0:0
     RDKit          3D

 54 57  0  0  0  0  0  0  0  0999 V2000
   57.2150   24.5380   44.9720 C   0  0  0  0  0  0  0  0  0  0  0  0
   57.3080   25.8730   45.0730 C   0  0  0  0  0  0  0  0  0  0  0  0
   56.4840   26.6210   46.0960 C   0  0  0  0  0  0  0  0  0  0  0  0
   55.1460   26.0440   46.1850 N   0  0  0  0  0  0  0  0  0  0  0  0
   58.2360   26.6410   44.1580 C   0  0  0  0  0  0  0  0  0  0  0  0
   58.5100   27.9690   44.7060 N   0  0  0  0  0  0  0  0  0  0  0  0
   59.3640   28.2460   45.7190 C   0  0  0  0  0  0  0  0  0  0  0  0
   59.3560   29.6080   46.0030 C   0  0  0  0  0  0  0  0  0  0  0  0
   60.1780   30.2640   47.0430 C   0  0  0  0  0  0  0  0  0  0  0  0
   61.3920   30.4940   46.7940 O   0  0  0  0  0  0  0  0  0  0  0  0
   59.6360   30.6540   48.3670 C   0  0  0  0  0  0  0  0  0  0  0  0
   59.8460   29.7980   49.4600 C   0  0  0  0  0  0  0  0  0  0  0  0
   59.3470   30.1230   50.7220 C   0  0  0  0  0  0  0  0  0  0  0  0
   58.6210   31.2990   50.9050 C   0  0  0  0  0  0  0  0  0  0  0  0
   58.3870   32.1510   49.8240 C   0  0  0  0  0  0  0  0  0  0  0  0
   58.8860   31.8410   48.5460 C   0  0  0  0  0  0  0  0  0  0  0  0
   58.6200   32.6900   47.4200 N   0  0  0  0  0  0  0  0  0  0  0  0
   59.5330   34.0990   46.9950 S   0  0  0  0  0  0  0  0  0  0  0  0
   59.0220   35.2920   47.7540 O   0  0  0  0  0  0  0  0  0  0  0  0
   59.4110   34.3610   45.5190 O   0  0  0  0  0  0  0  0  0  0  0  0
   61.2180   33.8340   47.4250 C   0  0  0  0  0  0  0  0  0  0  0  0
   62.1840   33.6230   46.4300 C   0  0  0  0  0  0  0  0  0  0  0  0
   63.5220   33.4250   46.7830 C   0  0  0  0  0  0  0  0  0  0  0  0
   63.9000   33.4290   48.1300 C   0  0  0  0  0  0  0  0  0  0  0  0
   62.9370   33.6190   49.1250 C   0  0  0  0  0  0  0  0  0  0  0  0
   61.5990   33.8240   48.7740 C   0  0  0  0  0  0  0  0  0  0  0  0
   58.4620   30.1730   45.1030 C   0  0  0  0  0  0  0  0  0  0  0  0
   58.0890   31.5000   44.8740 C   0  0  0  0  0  0  0  0  0  0  0  0
   57.1490   31.7570   43.8600 C   0  0  0  0  0  0  0  0  0  0  0  0
   56.6170   30.6990   43.0930 C   0  0  0  0  0  0  0  0  0  0  0  0
   57.0240   29.3750   43.3280 C   0  0  0  0  0  0  0  0  0  0  0  0
   57.9580   29.1440   44.3410 C   0  0  0  0  0  0  0  0  0  0  0  0
   57.8174   23.9996   44.2255 H   0  0  0  0  0  0  0  0  0  0  0  0
   56.5364   23.9822   45.6358 H   0  0  0  0  0  0  0  0  0  0  0  0
   56.9750   26.5532   47.0780 H   0  0  0  0  0  0  0  0  0  0  0  0
   56.4011   27.6742   45.7895 H   0  0  0  0  0  0  0  0  0  0  0  0
   54.7360   26.0250   45.2230 H   0  0  0  0  0  0  0  0  0  0  0  0
   54.5540   26.6960   46.7500 H   0  0  0  0  0  0  0  0  0  0  0  0
   59.1820   26.0892   44.0554 H   0  0  0  0  0  0  0  0  0  0  0  0
   57.7549   26.7534   43.1752 H   0  0  0  0  0  0  0  0  0  0  0  0
   59.9780   27.4993   46.2439 H   0  0  0  0  0  0  0  0  0  0  0  0
   60.4087   28.8632   49.3203 H   0  0  0  0  0  0  0  0  0  0  0  0
   59.5267   29.4503   51.5736 H   0  0  0  0  0  0  0  0  0  0  0  0
   58.2324   31.5557   51.9015 H   0  0  0  0  0  0  0  0  0  0  0  0
   57.8068   33.0736   49.9732 H   0  0  0  0  0  0  0  0  0  0  0  0
   61.8882   33.6133   45.3706 H   0  0  0  0  0  0  0  0  0  0  0  0
   64.2787   33.2658   46.0006 H   0  0  0  0  0  0  0  0  0  0  0  0
   64.9547   33.2827   48.4059 H   0  0  0  0  0  0  0  0  0  0  0  0
   63.2317   33.6073   50.1847 H   0  0  0  0  0  0  0  0  0  0  0  0
   60.8435   33.9778   49.5585 H   0  0  0  0  0  0  0  0  0  0  0  0
   58.5180   32.3195   45.4693 H   0  0  0  0  0  0  0  0  0  0  0  0
   56.8263   32.7901   43.6635 H   0  0  0  0  0  0  0  0  0  0  0  0
   55.8788   30.9122   42.3059 H   0  0  0  0  0  0  0  0  0  0  0  0
   56.6190   28.5442   42.7316 H   0  0  0  0  0  0  0  0  0  0  0  0
  1  2  2  0
  2  3  1  0
  3  4  1  0
  2  5  1  0
  5  6  1  0
  6  7  1  0
  7  8  2  0
  8  9  1  0
  9 10  2  0
  9 11  1  0
 11 12  2  0
 12 13  1  0
 13 14  2  0
 14 15  1  0
 15 16  2  0
 16 17  1  0
 17 18  1  0
 18 19  2  0
 18 20  2  0
 18 21  1  0
 21 22  2  0
 22 23  1  0
 23 24  2  0
 24 25  1  0
 25 26  2  0
  8 27  1  0
 27 28  2  0
 28 29  1  0
 29 30  2  0
 30 31  1  0
 31 32  2  0
 32  6  1  0
 16 11  1  0
 26 21  1  0
 32 27  1  0
  1 33  1  0
  1 34  1  0
  3 35  1  0
  3 36  1  0
  4 37  1  0
  4 38  1  0
  5 39  1  0
  5 40  1  0
  7 41  1  0
 12 42  1  0
 13 43  1  0
 14 44  1  0
 15 45  1  0
 22 46  1  0
 23 47  1  0
 24 48  1  0
 25 49  1  0
 26 50  1  0
 28 51  1  0
 29 52  1  0
 30 53  1  0
 31 54  1  0
M  CHG  1  17  -1
M  END
>  <UniqueID>  (1) 
1

>  <SMILES>  (1) 
C=C(CN)Cn1cc(C(=O)c2ccccc2[N-]S(=O)(=O)c2ccccc2)c2ccccc21

>  <Energy>  (1) 
91.65804993399337

>  <Genealogy>  (1) 
C=C(CN)Cn1cc(C(=O)c2ccccc2[N-]S(=O)(=O)c2ccccc2)c2ccccc21 (protonated)
C=C(CN)Cn1cc(C(=O)c2ccccc2[N-]S(=O)(=O)c2ccccc2)c2ccccc21 (3D coordinates assigned)
C=C(CN)Cn1cc(C(=O)c2ccccc2[N-]S(=O)(=O)c2ccccc2)c2ccccc21 (optimized conformer: 91.65804993399337 kcal/mol)

>  <smiles>  (1) 
C=C(CN)Cn1cc(C(=O)c2ccccc2NS(=O)(=O)c2ccccc2)c2ccccc21

>  <score_type>  (1) 
oracle

>  <origin>  (1) 
adg

>  <m_score__min__energy>  (1) 
-11.529999999999999

>  <m_primary>  (1) 
energy

$$$$
1:0
     RDKit          3D

 46 48  0  0  0  0  0  0  0  0999 V2000
   55.1620   22.2080   48.8300 C   0  0  0  0  0  0  0  0  0  0  0  0
   56.6470   22.0790   48.6770 C   0  0  0  0  0  0  0  0  0  0  0  0
   57.3800   22.2470   49.6860 O   0  0  0  0  0  0  0  0  0  0  0  0
   57.2560   21.7330   47.4260 N   0  0  0  0  0  0  0  0  0  0  0  0
   57.1400   22.4540   46.1880 C   0  0  0  0  0  0  0  0  0  0  0  0
   57.4260   23.8280   46.1250 C   0  0  0  0  0  0  0  0  0  0  0  0
   57.3450   24.5240   44.9110 C   0  0  0  0  0  0  0  0  0  0  0  0
   57.6110   25.9370   44.8900 N   0  0  0  0  0  0  0  0  0  0  0  0
   56.7600   26.9220   45.5060 C   0  0  0  0  0  0  0  0  0  0  0  0
   55.6630   26.5720   46.0210 O   0  0  0  0  0  0  0  0  0  0  0  0
   57.1420   28.3560   45.5430 C   0  0  0  0  0  0  0  0  0  0  0  0
   58.2120   28.7760   46.3480 C   0  0  0  0  0  0  0  0  0  0  0  0
   58.5780   30.1210   46.3920 C   0  0  0  0  0  0  0  0  0  0  0  0
   57.8620   31.0590   45.6310 C   0  0  0  0  0  0  0  0  0  0  0  0
   58.2060   32.4590   45.6480 N   0  0  0  0  0  0  0  0  0  0  0  0
   58.3810   33.2530   46.8530 C   0  0  0  0  0  0  0  0  0  0  0  0
   58.8920   34.6090   46.3830 C   0  0  0  0  0  0  0  0  0  0  0  0
   58.5960   34.6720   44.8880 C   0  0  0  0  0  0  0  0  0  0  0  0
   58.4230   33.2290   44.4350 C   0  0  0  0  0  0  0  0  0  0  0  0
   56.8160   30.6340   44.8710 N   0  0  0  0  0  0  0  0  0  0  0  0
   56.4430   29.3280   44.8090 C   0  0  0  0  0  0  0  0  0  0  0  0
   56.9510   23.8360   43.7530 C   0  0  0  0  0  0  0  0  0  0  0  0
   56.6940   22.4650   43.8000 C   0  0  0  0  0  0  0  0  0  0  0  0
   56.8060   21.7590   45.0080 C   0  0  0  0  0  0  0  0  0  0  0  0
   56.5190   20.2840   45.0450 C   0  0  0  0  0  0  0  0  0  0  0  0
   54.9041   22.2304   49.8991 H   0  0  0  0  0  0  0  0  0  0  0  0
   54.8236   23.1389   48.3516 H   0  0  0  0  0  0  0  0  0  0  0  0
   54.6681   21.3494   48.3516 H   0  0  0  0  0  0  0  0  0  0  0  0
   57.7172   24.3645   47.0401 H   0  0  0  0  0  0  0  0  0  0  0  0
   58.4470   26.2490   44.3500 H   0  0  0  0  0  0  0  0  0  0  0  0
   58.7658   28.0393   46.9484 H   0  0  0  0  0  0  0  0  0  0  0  0
   59.4220   30.4449   47.0187 H   0  0  0  0  0  0  0  0  0  0  0  0
   57.4222   33.3662   47.3802 H   0  0  0  0  0  0  0  0  0  0  0  0
   59.0812   32.7765   47.5549 H   0  0  0  0  0  0  0  0  0  0  0  0
   58.3682   35.4193   46.9112 H   0  0  0  0  0  0  0  0  0  0  0  0
   59.9662   34.7288   46.5874 H   0  0  0  0  0  0  0  0  0  0  0  0
   57.6743   35.2437   44.7043 H   0  0  0  0  0  0  0  0  0  0  0  0
   59.4053   35.1736   44.3372 H   0  0  0  0  0  0  0  0  0  0  0  0
   57.5563   33.1392   43.7636 H   0  0  0  0  0  0  0  0  0  0  0  0
   59.3013   32.8703   43.8783 H   0  0  0  0  0  0  0  0  0  0  0  0
   55.5899   29.0314   44.1811 H   0  0  0  0  0  0  0  0  0  0  0  0
   56.8441   24.3803   42.8031 H   0  0  0  0  0  0  0  0  0  0  0  0
   56.4012   21.9332   42.8827 H   0  0  0  0  0  0  0  0  0  0  0  0
   56.4539   19.9493   46.0908 H   0  0  0  0  0  0  0  0  0  0  0  0
   55.5649   20.0832   44.5356 H   0  0  0  0  0  0  0  0  0  0  0  0
   57.3282   19.7401   44.5356 H   0  0  0  0  0  0  0  0  0  0  0  0
  1  2  1  0
  2  3  2  0
  2  4  1  0
  4  5  1  0
  5  6  2  0
  6  7  1  0
  7  8  1  0
  8  9  1  0
  9 10  2  0
  9 11  1  0
 11 12  2  0
 12 13  1  0
 13 14  2  0
 14 15  1  0
 15 16  1  0
 16 17  1  0
 17 18  1  0
 18 19  1  0
 14 20  1  0
 20 21  2  0
  7 22  2  0
 22 23  1  0
 23 24  2  0
 24 25  1  0
 24  5  1  0
 21 11  1  0
 19 15  1  0
  1 26  1  0
  1 27  1  0
  1 28  1  0
  6 29  1  0
  8 30  1  0
 12 31  1  0
 13 32  1  0
 16 33  1  0
 16 34  1  0
 17 35  1  0
 17 36  1  0
 18 37  1  0
 18 38  1  0
 19 39  1  0
 19 40  1  0
 21 41  1  0
 22 42  1  0
 23 43  1  0
 25 44  1  0
 25 45  1  0
 25 46  1  0
M  CHG  1   4  -1
M  END
>  <UniqueID>  (2) 
2

>  <SMILES>  (2) 
CC(=O)[N-]c1cc(NC(=O)c2ccc(N3CCCC3)nc2)ccc1C

>  <Energy>  (2) 
57.76903960459832

>  <Genealogy>  (2) 
CC(=O)[N-]c1cc(NC(=O)c2ccc(N3CCCC3)nc2)ccc1C (protonated)
CC(=O)[N-]c1cc(NC(=O)c2ccc(N3CCCC3)nc2)ccc1C (3D coordinates assigned)
CC(=O)[N-]c1cc(NC(=O)c2ccc(N3CCCC3)nc2)ccc1C (nonaromatic ring conformer: 57.76903960459832 kcal/mol)

>  <smiles>  (2) 
CC(=O)Nc1cc(NC(=O)c2ccc(N3CCCC3)nc2)ccc1C

>  <score_type>  (2) 
oracle

>  <origin>  (2) 
adg

>  <m_score__min__energy>  (2) 
-9.6600000000000001

>  <m_primary>  (2) 
energy

$$$$
2:0
     RDKit          3D

 55 57  0  0  1  0  0  0  0  0999 V2000
   59.9010   32.2560   50.7120 C   0  0  0  0  0  0  0  0  0  0  0  0
   60.5610   33.4640   51.3250 C   0  0  0  0  0  0  0  0  0  0  0  0
   56.5240   31.2460   44.2020 N   0  0  0  0  0  0  0  0  0  0  0  0
   57.3680   32.0960   44.6670 C   0  0  0  0  0  0  0  0  0  0  0  0
   60.8690   34.3290   48.5490 N   0  0  0  0  0  0  0  0  0  0  0  0
   61.0510   34.2600   47.2170 C   0  0  0  0  0  0  0  0  0  0  0  0
   60.0960   34.6960   46.4560 N   0  0  0  0  0  0  0  0  0  0  0  0
   59.1650   33.8300   45.8070 C   0  0  0  0  0  0  0  0  0  0  0  0
   58.7600   33.9880   44.5070 C   0  0  0  0  0  0  0  0  0  0  0  0
   57.8670   33.1210   43.9530 N   0  0  0  0  0  0  0  0  0  0  0  0
   61.8700   33.8730   49.3260 C   0  0  0  0  0  0  0  0  0  0  0  0
   61.7220   33.9260   50.6080 N   0  0  0  0  0  0  0  0  0  0  0  0
   56.7140   29.8620   44.5120 C   0  0  0  0  0  0  0  0  0  0  0  0
   55.8490   29.3280   45.2410 O   0  0  0  0  0  0  0  0  0  0  0  0
   57.8440   29.2130   43.9820 N   0  0  0  0  0  0  0  0  0  0  0  0
   58.2330   27.5590   44.2470 S   0  0  0  0  0  0  0  0  0  0  0  0
   57.0940   26.8590   44.9740 O   0  0  0  0  0  0  0  0  0  0  0  0
   58.3920   26.8120   42.9480 O   0  0  0  0  0  0  0  0  0  0  0  0
   59.6670   27.3500   45.1450 N   0  0  0  0  0  0  0  0  0  0  0  0
   60.6250   28.3990   45.0320 C   0  0  0  0  0  0  0  0  0  0  0  0
   60.3430   29.5800   45.9200 C   0  0  0  0  0  0  0  0  0  0  0  0
   60.1000   29.1850   47.2940 N   0  0  0  0  0  0  0  0  0  0  0  0
   59.0170   28.2510   47.3440 C   0  0  0  0  0  0  0  0  0  0  0  0
   59.3190   27.0270   46.5080 C   0  0  0  0  0  0  0  0  0  0  0  0
   63.0390   33.3520   48.8090 C   0  0  0  0  0  0  0  0  0  0  0  0
   58.6760   32.7810   46.5880 C   0  0  0  0  0  0  0  0  0  0  0  0
   59.0720   32.6170   47.8760 F   0  0  0  0  0  0  0  0  0  0  0  0
   62.1560   33.7680   46.6450 N   0  0  0  0  0  0  0  0  0  0  0  0
   63.1690   33.3070   47.4200 C   0  0  0  0  0  0  0  0  0  0  0  0
   57.7720   31.9330   45.9710 C   0  0  0  0  0  0  0  0  0  0  0  0
   64.1130   32.8610   49.7150 C   0  0  0  0  0  0  0  0  0  0  0  0
   64.3060   33.7550   50.7640 F   0  0  0  0  0  0  0  0  0  0  0  0
   65.2900   32.7260   48.9930 F   0  0  0  0  0  0  0  0  0  0  0  0
   63.7380   31.6240   50.2220 F   0  0  0  0  0  0  0  0  0  0  0  0
   59.5381   31.5918   51.5102 H   0  0  0  0  0  0  0  0  0  0  0  0
   59.0534   32.5778   50.0891 H   0  0  0  0  0  0  0  0  0  0  0  0
   60.6297   31.7165   50.0891 H   0  0  0  0  0  0  0  0  0  0  0  0
   59.8256   34.2815   51.3555 H   0  0  0  0  0  0  0  0  0  0  0  0
   60.9043   33.1646   52.3263 H   0  0  0  0  0  0  0  0  0  0  0  0
   59.9990   34.7150   48.9770 H   0  0  0  0  0  0  0  0  0  0  0  0
   59.1584   34.8198   43.9075 H   0  0  0  0  0  0  0  0  0  0  0  0
   57.5630   33.2500   42.9600 H   0  0  0  0  0  0  0  0  0  0  0  0
   58.5140   29.7600   43.3750 H   0  0  0  0  0  0  0  0  0  0  0  0
   61.6135   27.9952   45.2961 H   0  0  0  0  0  0  0  0  0  0  0  0
   60.5806   28.7617   43.9945 H   0  0  0  0  0  0  0  0  0  0  0  0
   61.2089   30.2579   45.8939 H   0  0  0  0  0  0  0  0  0  0  0  0
   59.4356   30.0761   45.5451 H   0  0  0  0  0  0  0  0  0  0  0  0
   60.9620   28.6610   47.5900 H   0  0  0  0  0  0  0  0  0  0  0  0
   58.8552   27.9431   48.3876 H   0  0  0  0  0  0  0  0  0  0  0  0
   58.1158   28.7369   46.9419 H   0  0  0  0  0  0  0  0  0  0  0  0
   60.1607   26.4875   46.9668 H   0  0  0  0  0  0  0  0  0  0  0  0
   58.4065   26.4134   46.4793 H   0  0  0  0  0  0  0  0  0  0  0  0
   57.3594   31.0929   46.5489 H   0  0  0  0  0  0  0  0  0  0  0  0
   62.2420   33.7410   45.5880 H   0  0  0  0  0  0  0  0  0  0  0  0
   64.0823   32.9024   46.9594 H   0  0  0  0  0  0  0  0  0  0  0  0
  1  2  1  0
  2  3  1  0
  3  4  2  0
  4  5  1  0
  5  6  1  0
  6  7  2  0
  7  8  1  0
  8  9  2  0
  9 10  1  0
 10 11  1  0
 11 12  2  0
 12 13  1  0
 13 14  2  0
 13 15  1  0
 15 16  1  0
 16 17  2  0
 16 18  2  0
 16 19  1  0
 19 20  1  0
 20 21  1  0
 21 22  1  0
 22 23  1  0
 23 24  1  0
 11 25  1  0
 25 26  2  0
 26 27  1  0
  6 28  1  0
 28 29  1  0
 29 30  2  0
 30 31  1  0
 31 32  1  0
 31 33  1  0
 31 34  1  0
 30  4  1  0
 26  8  1  0
 24 19  1  0
  1 35  1  0
  1 36  1  0
  1 37  1  0
  2 38  1  0
  2 39  1  0
  5 40  1  0
  9 41  1  0
 10 42  1  0
 15 43  1  0
 20 44  1  0
 20 45  1  0
 21 46  1  0
 21 47  1  0
 22 48  1  0
 23 49  1  0
 23 50  1  0
 24 51  1  0
 24 52  1  0
 25 53  1  0
 28 54  1  0
 29 55  1  0
M  END
>  <smiles>  (3) 
CCN=c1[nH]c(=Nc2c[nH]c(=NC(=O)NS(=O)(=O)N3CCNCC3)cc2F)[nH]cc1C(F)(F)F

>  <score_type>  (3) 
oracle

>  <origin>  (3) 
adg

>  <m_score__min__energy>  (3) 
-8.6199999999999992

>  <m_primary>  (3) 
energy

$$$$
3:0
     RDKit          3D

 44 46  0  0  0  0  0  0  0  0999 V2000
   63.3030   31.6140   48.8230 C   0  0  0  0  0  0  0  0  0  0  0  0
   62.1390   32.2960   48.2720 N   0  0  0  0  0  0  0  0  0  0  0  0
   62.2610   33.5260   47.5460 C   0  0  0  0  0  0  0  0  0  0  0  0
   63.3970   34.0300   47.3360 O   0  0  0  0  0  0  0  0  0  0  0  0
   61.0420   34.2110   47.0040 C   0  0  0  0  0  0  0  0  0  0  0  0
   59.8600   33.5030   47.3780 O   0  0  0  0  0  0  0  0  0  0  0  0
   59.0710   32.7070   46.5290 C   0  0  0  0  0  0  0  0  0  0  0  0
   58.4570   33.2540   45.3840 C   0  0  0  0  0  0  0  0  0  0  0  0
   57.6680   32.4660   44.5470 C   0  0  0  0  0  0  0  0  0  0  0  0
   57.4720   31.1100   44.8370 C   0  0  0  0  0  0  0  0  0  0  0  0
   56.6820   30.2770   44.0260 C   0  0  0  0  0  0  0  0  0  0  0  0
   56.1090   30.7250   42.9970 O   0  0  0  0  0  0  0  0  0  0  0  0
   56.5300   28.9680   44.3530 N   0  0  0  0  0  0  0  0  0  0  0  0
   57.1340   28.4370   45.4490 C   0  0  0  0  0  0  0  0  0  0  0  0
   56.9430   26.9900   45.7830 C   0  0  0  0  0  0  0  0  0  0  0  0
   55.5280   26.6840   45.9760 N   0  0  0  0  0  0  0  0  0  0  0  0
   54.8400   25.4900   45.5720 C   0  0  0  0  0  0  0  0  0  0  0  0
   53.5840   25.4670   45.6600 O   0  0  0  0  0  0  0  0  0  0  0  0
   55.5390   24.2880   45.0670 C   0  0  0  0  0  0  0  0  0  0  0  0
   56.7410   23.8090   45.5630 C   0  0  0  0  0  0  0  0  0  0  0  0
   57.0360   22.6760   44.8390 C   0  0  0  0  0  0  0  0  0  0  0  0
   55.9960   22.5230   43.9510 C   0  0  0  0  0  0  0  0  0  0  0  0
   55.8950   21.4950   43.0230 O   0  0  0  0  0  0  0  0  0  0  0  0
   55.0750   23.4930   44.0810 N   0  0  0  0  0  0  0  0  0  0  0  0
   57.8910   29.2290   46.2530 N   0  0  0  0  0  0  0  0  0  0  0  0
   58.0800   30.5480   45.9780 C   0  0  0  0  0  0  0  0  0  0  0  0
   58.8810   31.3310   46.8260 C   0  0  0  0  0  0  0  0  0  0  0  0
   59.4550   30.6850   47.9390 O   0  0  0  0  0  0  0  0  0  0  0  0
   58.8920   30.5740   49.2400 C   0  0  0  0  0  0  0  0  0  0  0  0
   63.2575   31.6406   49.9217 H   0  0  0  0  0  0  0  0  0  0  0  0
   63.3110   30.5684   48.4816 H   0  0  0  0  0  0  0  0  0  0  0  0
   64.2191   32.1182   48.4816 H   0  0  0  0  0  0  0  0  0  0  0  0
   61.1950   31.8750   48.4200 H   0  0  0  0  0  0  0  0  0  0  0  0
   60.9932   35.2338   47.4059 H   0  0  0  0  0  0  0  0  0  0  0  0
   61.1079   34.2364   45.9063 H   0  0  0  0  0  0  0  0  0  0  0  0
   58.6025   34.3183   45.1474 H   0  0  0  0  0  0  0  0  0  0  0  0
   57.1985   32.9103   43.6570 H   0  0  0  0  0  0  0  0  0  0  0  0
   57.3358   26.3751   44.9598 H   0  0  0  0  0  0  0  0  0  0  0  0
   57.4816   26.7699   46.7165 H   0  0  0  0  0  0  0  0  0  0  0  0
   57.3406   24.2473   46.3744 H   0  0  0  0  0  0  0  0  0  0  0  0
   57.9185   22.0284   44.9476 H   0  0  0  0  0  0  0  0  0  0  0  0
   59.6778   30.7289   49.9940 H   0  0  0  0  0  0  0  0  0  0  0  0
   58.1076   31.3348   49.3662 H   0  0  0  0  0  0  0  0  0  0  0  0
   58.4551   29.5724   49.3662 H   0  0  0  0  0  0  0  0  0  0  0  0
  1  2  1  0
  2  3  1  0
  3  4  2  0
  3  5  1  0
  5  6  1  0
  6  7  1  0
  7  8  2  0
  8  9  1  0
  9 10  2  0
 10 11  1  0
 11 12  2  0
 11 13  1  0
 13 14  2  0
 14 15  1  0
 15 16  1  0
 16 17  1  0
 17 18  2  0
 17 19  1  0
 19 20  2  0
 20 21  1  0
 21 22  2  0
 22 23  1  0
 22 24  1  0
 14 25  1  0
 25 26  1  0
 26 27  2  0
 27 28  1  0
 28 29  1  0
 27  7  1  0
 26 10  1  0
 24 19  1  0
  1 30  1  0
  1 31  1  0
  1 32  1  0
  2 33  1  0
  5 34  1  0
  5 35  1  0
  8 36  1  0
  9 37  1  0
 15 38  1  0
 15 39  1  0
 20 40  1  0
 21 41  1  0
 29 42  1  0
 29 43  1  0
 29 44  1  0
M  CHG  4  16  -1  23  -1  24  -1  25  -1
M  END
>  <UniqueID>  (4) 
3

>  <SMILES>  (4) 
CNC(=O)COc1ccc2c(=O)nc(C[N-]C(=O)c3ccc([O-])[n-]3)[n-]c2c1OC

>  <Energy>  (4) 
73.26650429928655

>  <Genealogy>  (4) 
CNC(=O)COc1ccc2c(=O)nc(C[N-]C(=O)c3ccc([O-])[n-]3)[n-]c2c1OC (protonated)
CNC(=O)COc1ccc2c(=O)nc(C[N-]C(=O)c3ccc([O-])[n-]3)[n-]c2c1OC (3D coordinates assigned)
CNC(=O)COc1ccc2c(=O)nc(C[N-]C(=O)c3ccc([O-])[n-]3)[n-]c2c1OC (optimized conformer: 73.26650429928655 kcal/mol)

>  <smiles>  (4) 
CNC(=O)COc1ccc2c(=O)nc(CNC(=O)c3ccc(O)[nH]3)[nH]c2c1OC

>  <score_type>  (4) 
oracle

>  <origin>  (4) 
adg

>  <m_score__min__energy>  (4) 
-15.69

>  <m_primary>  (4) 
energy

$$$$
4:0
     RDKit          3D

 60 62  0  0  0  0  0  0  0  0999 V2000
   53.1560   22.0050   48.2600 C   0  0  0  0  0  0  0  0  0  0  0  0
   53.7820   21.6680   46.9280 C   0  0  0  0  0  0  0  0  0  0  0  0
   54.5510   20.5680   46.7550 C   0  0  0  0  0  0  0  0  0  0  0  0
   54.2340   19.4270   45.8160 C   0  0  0  0  0  0  0  0  0  0  0  0
   55.2860   19.2550   44.7070 C   0  0  0  0  0  0  0  0  0  0  0  0
   56.4700   20.1740   44.8940 C   0  0  0  0  0  0  0  0  0  0  0  0
   57.3450   19.9690   45.9740 C   0  0  0  0  0  0  0  0  0  0  0  0
   58.4740   20.7760   46.1330 C   0  0  0  0  0  0  0  0  0  0  0  0
   58.7440   21.7990   45.2140 C   0  0  0  0  0  0  0  0  0  0  0  0
   59.8650   22.6120   45.3630 O   0  0  0  0  0  0  0  0  0  0  0  0
   57.8790   22.0070   44.1350 C   0  0  0  0  0  0  0  0  0  0  0  0
   56.7490   21.1990   43.9670 C   0  0  0  0  0  0  0  0  0  0  0  0
   55.9100   21.4170   42.8800 O   0  0  0  0  0  0  0  0  0  0  0  0
   53.5700   22.6010   45.7550 C   0  0  0  0  0  0  0  0  0  0  0  0
   54.0200   24.0260   46.1020 C   0  0  0  0  0  0  0  0  0  0  0  0
   55.3350   24.0090   46.7440 N   0  0  0  0  0  0  0  0  0  0  0  0
   56.4010   24.9370   46.4540 C   0  0  0  0  0  0  0  0  0  0  0  0
   57.7570   24.5540   46.5310 C   0  0  0  0  0  0  0  0  0  0  0  0
   58.7710   25.4720   46.2520 C   0  0  0  0  0  0  0  0  0  0  0  0
   58.4550   26.7880   45.8970 C   0  0  0  0  0  0  0  0  0  0  0  0
   59.7290   27.9650   45.5760 S   0  0  0  0  0  0  0  0  0  0  0  0
   59.6740   28.3500   44.1240 O   0  0  0  0  0  0  0  0  0  0  0  0
   61.0770   27.3570   45.8510 O   0  0  0  0  0  0  0  0  0  0  0  0
   59.5290   29.3960   46.5490 N   0  0  0  0  0  0  0  0  0  0  0  0
   58.1590   29.9100   46.4820 C   0  0  0  0  0  0  0  0  0  0  0  0
   57.8730   30.5320   45.1460 C   0  0  0  0  0  0  0  0  0  0  0  0
   57.1110   29.8490   44.1870 C   0  0  0  0  0  0  0  0  0  0  0  0
   56.8810   30.4450   42.9460 C   0  0  0  0  0  0  0  0  0  0  0  0
   57.4090   31.7070   42.6720 C   0  0  0  0  0  0  0  0  0  0  0  0
   58.1630   32.3580   43.6500 C   0  0  0  0  0  0  0  0  0  0  0  0
   58.3760   31.7620   44.8530 N   0  0  0  0  0  0  0  0  0  0  0  0
   57.1150   27.1800   45.8230 C   0  0  0  0  0  0  0  0  0  0  0  0
   56.0940   26.2660   46.0970 C   0  0  0  0  0  0  0  0  0  0  0  0
   54.7710   26.6870   46.0140 O   0  0  0  0  0  0  0  0  0  0  0  0
   53.8096   21.6532   49.0718 H   0  0  0  0  0  0  0  0  0  0  0  0
   53.0269   23.0945   48.3393 H   0  0  0  0  0  0  0  0  0  0  0  0
   52.1754   21.5129   48.3393 H   0  0  0  0  0  0  0  0  0  0  0  0
   55.4781   20.4990   47.3430 H   0  0  0  0  0  0  0  0  0  0  0  0
   54.1835   18.4959   46.3995 H   0  0  0  0  0  0  0  0  0  0  0  0
   53.2750   19.6570   45.3287 H   0  0  0  0  0  0  0  0  0  0  0  0
   55.6413   18.2140   44.7146 H   0  0  0  0  0  0  0  0  0  0  0  0
   54.8100   19.5095   43.7486 H   0  0  0  0  0  0  0  0  0  0  0  0
   57.1396   19.1677   46.6991 H   0  0  0  0  0  0  0  0  0  0  0  0
   59.1531   20.6081   46.9819 H   0  0  0  0  0  0  0  0  0  0  0  0
   60.7410   22.3960   44.9000 H   0  0  0  0  0  0  0  0  0  0  0  0
   58.0882   22.8108   43.4138 H   0  0  0  0  0  0  0  0  0  0  0  0
   54.1533   22.2381   44.8959 H   0  0  0  0  0  0  0  0  0  0  0  0
   52.4978   22.6204   45.5101 H   0  0  0  0  0  0  0  0  0  0  0  0
   54.0759   24.6222   45.1793 H   0  0  0  0  0  0  0  0  0  0  0  0
   53.2916   24.4684   46.7974 H   0  0  0  0  0  0  0  0  0  0  0  0
   55.5050   23.2450   47.4370 H   0  0  0  0  0  0  0  0  0  0  0  0
   58.0172   23.5232   46.8133 H   0  0  0  0  0  0  0  0  0  0  0  0
   59.8239   25.1591   46.3116 H   0  0  0  0  0  0  0  0  0  0  0  0
   57.4566   29.0799   46.6482 H   0  0  0  0  0  0  0  0  0  0  0  0
   58.0403   30.6822   47.2563 H   0  0  0  0  0  0  0  0  0  0  0  0
   56.6989   28.8539   44.4105 H   0  0  0  0  0  0  0  0  0  0  0  0
   56.2843   29.9205   42.1852 H   0  0  0  0  0  0  0  0  0  0  0  0
   57.2332   32.1837   41.6964 H   0  0  0  0  0  0  0  0  0  0  0  0
   58.5848   33.3534   43.4471 H   0  0  0  0  0  0  0  0  0  0  0  0
   56.8628   28.2146   45.5473 H   0  0  0  0  0  0  0  0  0  0  0  0
  1  2  1  0
  2  3  2  3
  3  4  1  0
  4  5  1  0
  5  6  1  0
  6  7  2  0
  7  8  1  0
  8  9  2  0
  9 10  1  0
  9 11  1  0
 11 12  2  0
 12 13  1  0
  2 14  1  0
 14 15  1  0
 15 16  1  0
 16 17  1  0
 17 18  2  0
 18 19  1  0
 19 20  2  0
 20 21  1  0
 21 22  2  0
 21 23  2  0
 21 24  1  0
 24 25  1  0
 25 26  1  0
 26 27  2  0
 27 28  1  0
 28 29  2  0
 29 30  1  0
 30 31  2  0
 20 32  1  0
 32 33  2  0
 33 34  1  0
 12  6  1  0
 33 17  1  0
 31 26  1  0
  1 35  1  0
  1 36  1  0
  1 37  1  0
  3 38  1  0
  4 39  1  0
  4 40  1  0
  5 41  1  0
  5 42  1  0
  7 43  1  0
  8 44  1  0
 10 45  1  0
 11 46  1  0
 14 47  1  0
 14 48  1  0
 15 49  1  0
 15 50  1  0
 16 51  1  0
 18 52  1  0
 19 53  1  0
 25 54  1  0
 25 55  1  0
 27 56  1  0
 28 57  1  0
 29 58  1  0
 30 59  1  0
 32 60  1  0
M  CHG  3  13  -1  24  -1  34  -1
M  END
>  <UniqueID>  (5) 
4

>  <SMILES>  (5) 
CC(=CCCc1ccc(O)cc1[O-])CCNc1ccc(S(=O)(=O)[N-]Cc2ccccn2)cc1[O-]

>  <Energy>  (5) 
53.15774770501971

>  <Genealogy>  (5) 
CC(=CCCc1ccc(O)cc1[O-])CCNc1ccc(S(=O)(=O)[N-]Cc2ccccn2)cc1[O-] (protonated)
CC(=CCCc1ccc(O)cc1[O-])CCNc1ccc(S(=O)(=O)[N-]Cc2ccccn2)cc1[O-] (3D coordinates assigned)
CC(=CCCc1ccc(O)cc1[O-])CCNc1ccc(S(=O)(=O)[N-]Cc2ccccn2)cc1[O-] (optimized conformer: 53.15774770501971 kcal/mol)

>  <smiles>  (5) 
CC(=CCCc1ccc(O)cc1O)CCNc1ccc(S(=O)(=O)NCc2ccccn2)cc1O

>  <score_type>  (5) 
oracle

>  <origin>  (5) 
adg

>  <m_score__min__energy>  (5) 
-14.380000000000001

>  <m_primary>  (5) 
energy

$$$$
5:0
     RDKit          3D

 15 15  0  0  0  0  0  0  0  0999 V2000
   58.1660   26.9060   42.2540 O   0  0  0  0  0  0  0  0  0  0  0  0
   58.1650   26.9400   43.5020 N   0  0  0  0  0  0  0  0  0  0  0  0
   57.6890   28.0870   44.2050 C   0  0  0  0  0  0  0  0  0  0  0  0
   57.4460   29.2810   43.6440 N   0  0  0  0  0  0  0  0  0  0  0  0
   56.9950   30.0340   44.6650 C   0  0  0  0  0  0  0  0  0  0  0  0
   56.6510   31.2380   44.5300 O   0  0  0  0  0  0  0  0  0  0  0  0
   56.9360   29.3820   45.8480 N   0  0  0  0  0  0  0  0  0  0  0  0
   57.3890   28.1470   45.5490 C   0  0  0  0  0  0  0  0  0  0  0  0
   57.4580   27.0210   46.5320 C   0  0  0  0  0  0  0  0  0  0  0  0
   56.1980   26.2190   46.4810 C   0  0  0  0  0  0  0  0  0  0  0  0
   55.1500   26.7150   45.9900 O   0  0  0  0  0  0  0  0  0  0  0  0
   56.1670   24.9400   47.0220 O   0  0  0  0  0  0  0  0  0  0  0  0
   57.5680   29.5620   42.6450 H   0  0  0  0  0  0  0  0  0  0  0  0
   58.3121   26.3734   46.2846 H   0  0  0  0  0  0  0  0  0  0  0  0
   57.5827   27.4330   47.5443 H   0  0  0  0  0  0  0  0  0  0  0  0
  1  2  2  0
  2  3  1  0
  3  4  1  0
  4  5  1  0
  5  6  2  0
  5  7  1  0
  7  8  1  0
  8  9  1  0
  9 10  1  0
 10 11  2  0
 10 12  1  0
  8  3  2  0
  4 13  1  0
  9 14  1  0
  9 15  1  0
M  CHG  2   7  -1  12  -1
M  END
>  <UniqueID>  (6) 
5

>  <SMILES>  (6) 
O=Nc1[nH]c(=O)[n-]c1CC(=O)[O-]

>  <Energy>  (6) 
41.89255493437266

>  <Genealogy>  (6) 
O=Nc1[nH]c(=O)[n-]c1CC(=O)[O-] (protonated)
O=Nc1[nH]c(=O)[n-]c1CC(=O)[O-] (3D coordinates assigned)
O=Nc1[nH]c(=O)[n-]c1CC(=O)[O-] (optimized conformer: 41.89255493437266 kcal/mol)

>  <smiles>  (6) 
O=Nc1[nH]c(=O)[nH]c1CC(=O)O

>  <score_type>  (6) 
oracle

>  <origin>  (6) 
adg

>  <m_score__min__energy>  (6) 
-9.9600000000000009

>  <m_primary>  (6) 
energy

$$$$
6:0
     RDKit          3D

 60 63  0  0  0  0  0  0  0  0999 V2000
   57.7560   22.5540   43.7900 C   0  0  0  0  0  0  0  0  0  0  0  0
   56.6590   23.2720   44.5410 C   0  0  0  0  0  0  0  0  0  0  0  0
   55.3310   23.0310   44.1620 C   0  0  0  0  0  0  0  0  0  0  0  0
   54.3050   23.6720   44.8460 C   0  0  0  0  0  0  0  0  0  0  0  0
   53.1030   23.4730   44.5230 O   0  0  0  0  0  0  0  0  0  0  0  0
   54.6000   24.5100   45.8660 N   0  0  0  0  0  0  0  0  0  0  0  0
   55.8820   24.7470   46.2420 C   0  0  0  0  0  0  0  0  0  0  0  0
   56.0910   25.5360   47.2030 O   0  0  0  0  0  0  0  0  0  0  0  0
   56.9280   24.1330   45.5880 N   0  0  0  0  0  0  0  0  0  0  0  0
   58.3210   24.3920   46.0250 C   0  0  0  0  0  0  0  0  0  0  0  0
   58.5870   25.8710   46.1630 C   0  0  0  0  0  0  0  0  0  0  0  0
   58.5670   26.4820   47.4270 C   0  0  0  0  0  0  0  0  0  0  0  0
   58.7710   27.8600   47.5510 C   0  0  0  0  0  0  0  0  0  0  0  0
   59.0010   28.6500   46.4090 C   0  0  0  0  0  0  0  0  0  0  0  0
   59.1730   30.0740   46.5080 N   0  0  0  0  0  0  0  0  0  0  0  0
   58.2400   31.0300   45.9780 C   0  0  0  0  0  0  0  0  0  0  0  0
   57.0650   30.6730   45.6900 O   0  0  0  0  0  0  0  0  0  0  0  0
   58.6500   32.4430   45.7850 C   0  0  0  0  0  0  0  0  0  0  0  0
   58.1400   33.1480   44.6770 C   0  0  0  0  0  0  0  0  0  0  0  0
   58.4270   34.5030   44.5000 C   0  0  0  0  0  0  0  0  0  0  0  0
   59.2210   35.1780   45.4290 C   0  0  0  0  0  0  0  0  0  0  0  0
   59.7460   34.4950   46.5270 C   0  0  0  0  0  0  0  0  0  0  0  0
   59.4880   33.1250   46.7080 C   0  0  0  0  0  0  0  0  0  0  0  0
   60.1290   32.4390   47.8530 C   0  0  0  0  0  0  0  0  0  0  0  0
   59.3970   31.7910   48.6540 O   0  0  0  0  0  0  0  0  0  0  0  0
   61.5540   32.5020   48.0790 N   0  0  0  0  0  0  0  0  0  0  0  0
   62.1830   31.5010   48.9480 C   0  0  0  0  0  0  0  0  0  0  0  0
   63.7100   31.6570   48.9540 C   0  0  0  0  0  0  0  0  0  0  0  0
   64.1350   33.0470   49.2440 N   0  0  0  0  0  0  0  0  0  0  0  0
   64.1850   33.3050   50.6970 C   0  0  0  0  0  0  0  0  0  0  0  0
   63.3570   34.1000   48.5340 C   0  0  0  0  0  0  0  0  0  0  0  0
   62.3910   33.5470   47.4770 C   0  0  0  0  0  0  0  0  0  0  0  0
   58.9920   28.0420   45.1450 C   0  0  0  0  0  0  0  0  0  0  0  0
   58.7880   26.6650   45.0220 C   0  0  0  0  0  0  0  0  0  0  0  0
   58.4535   22.0975   44.5077 H   0  0  0  0  0  0  0  0  0  0  0  0
   57.3147   21.7694   43.1578 H   0  0  0  0  0  0  0  0  0  0  0  0
   58.2984   23.2724   43.1578 H   0  0  0  0  0  0  0  0  0  0  0  0
   55.1040   22.3434   43.3339 H   0  0  0  0  0  0  0  0  0  0  0  0
   58.4876   23.9058   46.9976 H   0  0  0  0  0  0  0  0  0  0  0  0
   59.0043   23.9861   45.2645 H   0  0  0  0  0  0  0  0  0  0  0  0
   58.3897   25.8728   48.3256 H   0  0  0  0  0  0  0  0  0  0  0  0
   58.7516   28.3288   48.5459 H   0  0  0  0  0  0  0  0  0  0  0  0
   59.9720   30.4340   47.0780 H   0  0  0  0  0  0  0  0  0  0  0  0
   57.5088   32.6253   43.9433 H   0  0  0  0  0  0  0  0  0  0  0  0
   58.0268   35.0395   43.6271 H   0  0  0  0  0  0  0  0  0  0  0  0
   59.4330   36.2491   45.2954 H   0  0  0  0  0  0  0  0  0  0  0  0
   60.3674   35.0336   47.2576 H   0  0  0  0  0  0  0  0  0  0  0  0
   61.8048   31.6266   49.9733 H   0  0  0  0  0  0  0  0  0  0  0  0
   61.9352   30.5001   48.5649 H   0  0  0  0  0  0  0  0  0  0  0  0
   64.1300   30.9916   49.7226 H   0  0  0  0  0  0  0  0  0  0  0  0
   64.0776   31.3964   47.9505 H   0  0  0  0  0  0  0  0  0  0  0  0
   64.0033   32.3672   51.2424 H   0  0  0  0  0  0  0  0  0  0  0  0
   65.1762   33.6992   50.9655 H   0  0  0  0  0  0  0  0  0  0  0  0
   63.4127   34.0409   50.9655 H   0  0  0  0  0  0  0  0  0  0  0  0
   62.7730   34.6614   49.2782 H   0  0  0  0  0  0  0  0  0  0  0  0
   64.0834   34.7343   48.0048 H   0  0  0  0  0  0  0  0  0  0  0  0
   61.7509   34.3601   47.1040 H   0  0  0  0  0  0  0  0  0  0  0  0
   62.9659   33.1208   46.6417 H   0  0  0  0  0  0  0  0  0  0  0  0
   59.1467   28.6536   44.2439 H   0  0  0  0  0  0  0  0  0  0  0  0
   58.7848   26.1999   44.0251 H   0  0  0  0  0  0  0  0  0  0  0  0
  1  2  1  0
  2  3  2  0
  3  4  1  0
  4  5  2  0
  4  6  1  0
  6  7  1  0
  7  8  2  0
  7  9  1  0
  9 10  1  0
 10 11  1  0
 11 12  2  0
 12 13  1  0
 13 14  2  0
 14 15  1  0
 15 16  1  0
 16 17  2  0
 16 18  1  0
 18 19  2  0
 19 20  1  0
 20 21  2  0
 21 22  1  0
 22 23  2  0
 23 24  1  0
 24 25  2  0
 24 26  1  0
 26 27  1  0
 27 28  1  0
 28 29  1  0
 29 30  1  0
 29 31  1  0
 31 32  1  0
 14 33  1  0
 33 34  2  0
  9  2  1  0
 34 11  1  0
 23 18  1  0
 32 26  1  0
  1 35  1  0
  1 36  1  0
  1 37  1  0
  3 38  1  0
 10 39  1  0
 10 40  1  0
 12 41  1  0
 13 42  1  0
 15 43  1  0
 19 44  1  0
 20 45  1  0
 21 46  1  0
 22 47  1  0
 27 48  1  0
 27 49  1  0
 28 50  1  0
 28 51  1  0
 30 52  1  0
 30 53  1  0
 30 54  1  0
 31 55  1  0
 31 56  1  0
 32 57  1  0
 32 58  1  0
 33 59  1  0
 34 60  1  0
M  CHG  1   6  -1
M  END
>  <UniqueID>  (7) 
6

>  <SMILES>  (7) 
Cc1cc(=O)[n-]c(=O)n1Cc1ccc(NC(=O)c2ccccc2C(=O)N2CCN(C)CC2)cc1

>  <Energy>  (7) 
88.60120126042655

>  <Genealogy>  (7) 
Cc1cc(=O)[n-]c(=O)n1Cc1ccc(NC(=O)c2ccccc2C(=O)N2CCN(C)CC2)cc1 (protonated)
Cc1cc(=O)[n-]c(=O)n1Cc1ccc(NC(=O)c2ccccc2C(=O)N2CCN(C)CC2)cc1 (3D coordinates assigned)
Cc1cc(=O)[n-]c(=O)n1Cc1ccc(NC(=O)c2ccccc2C(=O)N2CCN(C)CC2)cc1 (nonaromatic ring conformer: 88.60120126042655 kcal/mol)

>  <smiles>  (7) 
Cc1cc(=O)[nH]c(=O)n1Cc1ccc(NC(=O)c2ccccc2C(=O)N2CCN(C)CC2)cc1

>  <score_type>  (7) 
oracle

>  <origin>  (7) 
adg

>  <m_score__min__energy>  (7) 
-11.529999999999999

>  <m_primary>  (7) 
energy

$$$$
7:0
     RDKit          3D

 51 54  0  0  0  0  0  0  0  0999 V2000
   59.1530   28.5990   53.1480 C   0  0  0  0  0  0  0  0  0  0  0  0
   58.2610   29.6530   52.8020 O   0  0  0  0  0  0  0  0  0  0  0  0
   56.8620   29.5410   52.8010 C   0  0  0  0  0  0  0  0  0  0  0  0
   56.1880   28.5830   53.5810 C   0  0  0  0  0  0  0  0  0  0  0  0
   54.7920   28.5200   53.5730 C   0  0  0  0  0  0  0  0  0  0  0  0
   54.0460   29.4150   52.7920 C   0  0  0  0  0  0  0  0  0  0  0  0
   52.5450   29.3200   52.7570 C   0  0  0  0  0  0  0  0  0  0  0  0
   51.9850   30.2500   51.7120 C   0  0  0  0  0  0  0  0  0  0  0  0
   51.9270   29.8520   50.3690 C   0  0  0  0  0  0  0  0  0  0  0  0
   51.4470   30.7030   49.4250 N   0  0  0  0  0  0  0  0  0  0  0  0
   51.0240   31.9480   49.7570 C   0  0  0  0  0  0  0  0  0  0  0  0
   50.5800   32.7180   48.8670 O   0  0  0  0  0  0  0  0  0  0  0  0
   51.0800   32.3630   51.0490 N   0  0  0  0  0  0  0  0  0  0  0  0
   51.5530   31.5510   52.0280 C   0  0  0  0  0  0  0  0  0  0  0  0
   51.5990   31.9740   53.2130 O   0  0  0  0  0  0  0  0  0  0  0  0
   54.7160   30.3650   52.0070 C   0  0  0  0  0  0  0  0  0  0  0  0
   56.1140   30.4230   52.0030 C   0  0  0  0  0  0  0  0  0  0  0  0
   56.7650   31.4000   51.1920 N   0  0  0  0  0  0  0  0  0  0  0  0
   58.3980   31.1900   50.6640 S   0  0  0  0  0  0  0  0  0  0  0  0
   59.3280   31.5260   51.7960 O   0  0  0  0  0  0  0  0  0  0  0  0
   58.6380   29.7610   50.2620 O   0  0  0  0  0  0  0  0  0  0  0  0
   58.7000   32.2500   49.2930 C   0  0  0  0  0  0  0  0  0  0  0  0
   59.3060   33.4970   49.4820 C   0  0  0  0  0  0  0  0  0  0  0  0
   59.5390   34.3360   48.3920 C   0  0  0  0  0  0  0  0  0  0  0  0
   59.1680   33.9350   47.1050 C   0  0  0  0  0  0  0  0  0  0  0  0
   58.5490   32.6890   46.8970 C   0  0  0  0  0  0  0  0  0  0  0  0
   58.1720   32.2560   45.5250 C   0  0  0  0  0  0  0  0  0  0  0  0
   57.7170   30.9440   45.2880 C   0  0  0  0  0  0  0  0  0  0  0  0
   57.3910   30.5310   43.9930 C   0  0  0  0  0  0  0  0  0  0  0  0
   57.5160   31.4170   42.9210 C   0  0  0  0  0  0  0  0  0  0  0  0
   57.9570   32.7230   43.1440 C   0  0  0  0  0  0  0  0  0  0  0  0
   58.2820   33.1430   44.4370 C   0  0  0  0  0  0  0  0  0  0  0  0
   58.3100   31.8550   48.0050 C   0  0  0  0  0  0  0  0  0  0  0  0
   59.2199   28.5199   54.2431 H   0  0  0  0  0  0  0  0  0  0  0  0
   58.7786   27.6511   52.7341 H   0  0  0  0  0  0  0  0  0  0  0  0
   60.1498   28.8115   52.7341 H   0  0  0  0  0  0  0  0  0  0  0  0
   56.7635   27.8796   54.2007 H   0  0  0  0  0  0  0  0  0  0  0  0
   54.2752   27.7642   54.1827 H   0  0  0  0  0  0  0  0  0  0  0  0
   52.2525   28.2870   52.5173 H   0  0  0  0  0  0  0  0  0  0  0  0
   52.1459   29.6067   53.7411 H   0  0  0  0  0  0  0  0  0  0  0  0
   52.2710   28.8483   50.0789 H   0  0  0  0  0  0  0  0  0  0  0  0
   54.1384   31.0693   51.3903 H   0  0  0  0  0  0  0  0  0  0  0  0
   59.5995   33.8166   50.4928 H   0  0  0  0  0  0  0  0  0  0  0  0
   60.0157   35.3154   48.5455 H   0  0  0  0  0  0  0  0  0  0  0  0
   59.3615   34.5984   46.2492 H   0  0  0  0  0  0  0  0  0  0  0  0
   57.6176   30.2401   46.1274 H   0  0  0  0  0  0  0  0  0  0  0  0
   57.0350   29.5051   43.8179 H   0  0  0  0  0  0  0  0  0  0  0  0
   57.2673   31.0864   41.9017 H   0  0  0  0  0  0  0  0  0  0  0  0
   58.0488   33.4228   42.3003 H   0  0  0  0  0  0  0  0  0  0  0  0
   58.6262   34.1740   44.6058 H   0  0  0  0  0  0  0  0  0  0  0  0
   57.8128   30.8846   47.8596 H   0  0  0  0  0  0  0  0  0  0  0  0
  1  2  1  0
  2  3  1  0
  3  4  2  0
  4  5  1  0
  5  6  2  0
  6  7  1  0
  7  8  1  0
  8  9  2  0
  9 10  1  0
 10 11  1  0
 11 12  2  0
 11 13  1  0
 13 14  1  0
 14 15  2  0
  6 16  1  0
 16 17  2  0
 17 18  1  0
 18 19  1  0
 19 20  2  0
 19 21  2  0
 19 22  1  0
 22 23  2  0
 23 24  1  0
 24 25  2  0
 25 26  1  0
 26 27  1  0
 27 28  2  0
 28 29  1  0
 29 30  2  0
 30 31  1  0
 31 32  2  0
 26 33  2  0
 17  3  1  0
 33 22  1  0
 14  8  1  0
 32 27  1  0
  1 34  1  0
  1 35  1  0
  1 36  1  0
  4 37  1  0
  5 38  1  0
  7 39  1  0
  7 40  1  0
  9 41  1  0
 16 42  1  0
 23 43  1  0
 24 44  1  0
 25 45  1  0
 28 46  1  0
 29 47  1  0
 30 48  1  0
 31 49  1  0
 32 50  1  0
 33 51  1  0
M  CHG  3  10  -1  13  -1  18  -1
M  END
>  <UniqueID>  (8) 
7

>  <SMILES>  (8) 
COc1ccc(Cc2c[n-]c(=O)[n-]c2=O)cc1[N-]S(=O)(=O)c1cccc(-c2ccccc2)c1

>  <Energy>  (8) 
66.82285789413105

>  <Genealogy>  (8) 
COc1ccc(Cc2c[n-]c(=O)[n-]c2=O)cc1[N-]S(=O)(=O)c1cccc(-c2ccccc2)c1 (protonated)
COc1ccc(Cc2c[n-]c(=O)[n-]c2=O)cc1[N-]S(=O)(=O)c1cccc(-c2ccccc2)c1 (3D coordinates assigned)
COc1ccc(Cc2c[n-]c(=O)[n-]c2=O)cc1[N-]S(=O)(=O)c1cccc(-c2ccccc2)c1 (optimized conformer: 66.82285789413105 kcal/mol)

>  <smiles>  (8) 
COc1ccc(Cc2c[nH]c(=O)[nH]c2=O)cc1NS(=O)(=O)c1cccc(-c2ccccc2)c1

>  <score_type>  (8) 
oracle

>  <origin>  (8) 
adg

>  <m_score__min__energy>  (8) 
-16.120000000000001

>  <m_primary>  (8) 
energy

$$$$
8:0
     RDKit          3D

 62 64  0  0  0  0  0  0  0  0999 V2000
   60.3110   27.7180   46.0080 C   0  0  0  0  0  0  0  0  0  0  0  0
   60.7900   28.9990   46.4020 O   0  0  0  0  0  0  0  0  0  0  0  0
   60.0200   29.8900   47.1530 C   0  0  0  0  0  0  0  0  0  0  0  0
   59.5660   29.5150   48.3760 N   0  0  0  0  0  0  0  0  0  0  0  0
   58.8190   30.3590   49.1400 C   0  0  0  0  0  0  0  0  0  0  0  0
   58.3790   29.9840   50.4160 O   0  0  0  0  0  0  0  0  0  0  0  0
   58.3960   30.8050   51.5530 C   0  0  0  0  0  0  0  0  0  0  0  0
   57.3050   30.8810   52.4370 C   0  0  0  0  0  0  0  0  0  0  0  0
   57.3590   31.7280   53.5460 C   0  0  0  0  0  0  0  0  0  0  0  0
   58.4930   32.5090   53.7800 C   0  0  0  0  0  0  0  0  0  0  0  0
   59.5860   32.4560   52.9000 C   0  0  0  0  0  0  0  0  0  0  0  0
   60.7850   33.2980   53.1460 C   0  0  0  0  0  0  0  0  0  0  0  0
   60.9690   33.9220   54.4230 N   0  0  0  0  0  0  0  0  0  0  0  0
   61.6750   33.4730   52.2150 N   0  0  0  0  0  0  0  0  0  0  0  0
   59.5220   31.6040   51.7820 C   0  0  0  0  0  0  0  0  0  0  0  0
   58.5240   31.6390   48.6660 C   0  0  0  0  0  0  0  0  0  0  0  0
   58.9770   32.0130   47.3910 C   0  0  0  0  0  0  0  0  0  0  0  0
   58.7170   33.3280   46.8510 N   0  0  0  0  0  0  0  0  0  0  0  0
   57.7530   33.4620   45.7470 C   0  0  0  0  0  0  0  0  0  0  0  0
   58.3230   32.8940   44.4420 C   0  0  0  0  0  0  0  0  0  0  0  0
   57.4560   31.4120   43.9500 S   0  0  0  0  0  0  0  0  0  0  0  0
   58.5070   29.9880   44.1430 C   0  0  0  0  0  0  0  0  0  0  0  0
   57.0210   31.5250   42.5170 O   0  0  0  0  0  0  0  0  0  0  0  0
   56.2430   31.2450   44.8210 O   0  0  0  0  0  0  0  0  0  0  0  0
   59.5260   34.4920   47.2560 C   0  0  0  0  0  0  0  0  0  0  0  0
   60.9620   34.0920   47.4890 C   0  0  0  0  0  0  0  0  0  0  0  0
   61.7920   33.8520   46.3830 C   0  0  0  0  0  0  0  0  0  0  0  0
   63.1130   33.4420   46.5680 C   0  0  0  0  0  0  0  0  0  0  0  0
   63.6190   33.2640   47.8560 C   0  0  0  0  0  0  0  0  0  0  0  0
   62.8030   33.4950   48.9790 C   0  0  0  0  0  0  0  0  0  0  0  0
   63.2710   33.3260   50.2910 O   0  0  0  0  0  0  0  0  0  0  0  0
   64.5350   32.7640   50.6290 C   0  0  0  0  0  0  0  0  0  0  0  0
   61.4750   33.9080   48.7910 C   0  0  0  0  0  0  0  0  0  0  0  0
   60.6700   34.1310   49.9040 O   0  0  0  0  0  0  0  0  0  0  0  0
   59.7260   31.1300   46.6760 N   0  0  0  0  0  0  0  0  0  0  0  0
   60.0870   27.1191   46.9031 H   0  0  0  0  0  0  0  0  0  0  0  0
   59.3966   27.8370   45.4082 H   0  0  0  0  0  0  0  0  0  0  0  0
   61.0791   27.2079   45.4082 H   0  0  0  0  0  0  0  0  0  0  0  0
   56.4073   30.2721   52.2546 H   0  0  0  0  0  0  0  0  0  0  0  0
   56.5053   31.7803   54.2377 H   0  0  0  0  0  0  0  0  0  0  0  0
   58.5301   33.1695   54.6588 H   0  0  0  0  0  0  0  0  0  0  0  0
   60.2280   33.8740   55.1580 H   0  0  0  0  0  0  0  0  0  0  0  0
   61.8280   34.4790   54.6270 H   0  0  0  0  0  0  0  0  0  0  0  0
   61.4260   33.8770   51.2840 H   0  0  0  0  0  0  0  0  0  0  0  0
   62.6680   33.1860   52.3650 H   0  0  0  0  0  0  0  0  0  0  0  0
   60.3674   31.5655   51.0793 H   0  0  0  0  0  0  0  0  0  0  0  0
   57.9457   32.3432   49.2821 H   0  0  0  0  0  0  0  0  0  0  0  0
   56.8337   32.9157   46.0049 H   0  0  0  0  0  0  0  0  0  0  0  0
   57.5398   34.5308   45.5982 H   0  0  0  0  0  0  0  0  0  0  0  0
   58.2227   33.6487   43.6481 H   0  0  0  0  0  0  0  0  0  0  0  0
   59.3810   32.6409   44.6049 H   0  0  0  0  0  0  0  0  0  0  0  0
   58.6567   29.7852   45.2137 H   0  0  0  0  0  0  0  0  0  0  0  0
   58.0342   29.1161   43.6673 H   0  0  0  0  0  0  0  0  0  0  0  0
   59.4795   30.1828   43.6673 H   0  0  0  0  0  0  0  0  0  0  0  0
   59.4877   35.2517   46.4614 H   0  0  0  0  0  0  0  0  0  0  0  0
   59.1165   34.8969   48.1932 H   0  0  0  0  0  0  0  0  0  0  0  0
   61.3990   33.9878   45.3646 H   0  0  0  0  0  0  0  0  0  0  0  0
   63.7574   33.2586   45.6956 H   0  0  0  0  0  0  0  0  0  0  0  0
   64.6615   32.9413   47.9944 H   0  0  0  0  0  0  0  0  0  0  0  0
   64.6355   32.7193   51.7235 H   0  0  0  0  0  0  0  0  0  0  0  0
   64.6080   31.7486   50.2123 H   0  0  0  0  0  0  0  0  0  0  0  0
   65.3378   33.3900   50.2123 H   0  0  0  0  0  0  0  0  0  0  0  0
  1  2  1  0
  2  3  1  0
  3  4  2  0
  4  5  1  0
  5  6  1  0
  6  7  1  0
  7  8  2  0
  8  9  1  0
  9 10  2  0
 10 11  1  0
 11 12  1  0
 12 13  1  0
 12 14  2  0
 11 15  2  0
  5 16  2  0
 16 17  1  0
 17 18  1  0
 18 19  1  0
 19 20  1  0
 20 21  1  0
 21 22  1  0
 21 23  2  0
 21 24  2  0
 18 25  1  0
 25 26  1  0
 26 27  2  0
 27 28  1  0
 28 29  2  0
 29 30  1  0
 30 31  1  0
 31 32  1  0
 30 33  2  0
 33 34  1  0
 17 35  2  0
 35  3  1  0
 15  7  1  0
 33 26  1  0
  1 36  1  0
  1 37  1  0
  1 38  1  0
  8 39  1  0
  9 40  1  0
 10 41  1  0
 13 42  1  0
 13 43  1  0
 14 44  1  0
 14 45  1  0
 15 46  1  0
 16 47  1  0
 19 48  1  0
 19 49  1  0
 20 50  1  0
 20 51  1  0
 22 52  1  0
 22 53  1  0
 22 54  1  0
 25 55  1  0
 25 56  1  0
 27 57  1  0
 28 58  1  0
 29 59  1  0
 32 60  1  0
 32 61  1  0
 32 62  1  0
M  CHG  2  14   1  34  -1
M  END
>  <UniqueID>  (9) 
8

>  <SMILES>  (9) 
COc1nc(Oc2cccc(C(N)=[NH2+])c2)cc(N(CCS(C)(=O)=O)Cc2cccc(OC)c2[O-])n1

>  <Energy>  (9) 
61.08045271536479

>  <Genealogy>  (9) 
COc1nc(Oc2cccc(C(N)=[NH2+])c2)cc(N(CCS(C)(=O)=O)Cc2cccc(OC)c2[O-])n1 (protonated)
COc1nc(Oc2cccc(C(N)=[NH2+])c2)cc(N(CCS(C)(=O)=O)Cc2cccc(OC)c2[O-])n1 (3D coordinates assigned)
COc1nc(Oc2cccc(C(N)=[NH2+])c2)cc(N(CCS(C)(=O)=O)Cc2cccc(OC)c2[O-])n1 (optimized conformer: 61.08045271536479 kcal/mol)

>  <smiles>  (9) 
COc1nc(Oc2cccc(C(=N)N)c2)cc(N(CCS(C)(=O)=O)Cc2cccc(OC)c2O)n1

>  <score_type>  (9) 
oracle

>  <origin>  (9) 
adg

>  <m_score__min__energy>  (9) 
-10.66

>  <m_primary>  (9) 
energy

$$$$
9:0
     RDKit          3D

 58 60  0  0  0  0  0  0  0  0999 V2000
   60.4240   27.1110   48.9740 C   0  0  0  0  0  0  0  0  0  0  0  0
   60.1700   28.6040   49.1560 C   0  0  0  0  0  0  0  0  0  0  0  0
   59.9880   28.9300   50.5870 N   0  0  0  0  0  0  0  0  0  0  0  0
   59.0720   30.0810   50.7500 C   0  0  0  0  0  0  0  0  0  0  0  0
   58.0750   29.8410   51.8780 C   0  0  0  0  0  0  0  0  0  0  0  0
   61.5450   29.2620   51.3260 S   0  0  0  0  0  0  0  0  0  0  0  0
   61.3470   29.6670   52.7600 O   0  0  0  0  0  0  0  0  0  0  0  0
   62.3860   28.0160   51.3240 O   0  0  0  0  0  0  0  0  0  0  0  0
   62.4160   30.5330   50.4650 C   0  0  0  0  0  0  0  0  0  0  0  0
   63.7270   30.8640   50.8150 C   0  0  0  0  0  0  0  0  0  0  0  0
   64.4000   31.8810   50.1330 C   0  0  0  0  0  0  0  0  0  0  0  0
   63.7710   32.5730   49.0930 C   0  0  0  0  0  0  0  0  0  0  0  0
   64.4710   33.5730   48.4270 O   0  0  0  0  0  0  0  0  0  0  0  0
   62.4470   32.2470   48.7260 C   0  0  0  0  0  0  0  0  0  0  0  0
   61.7450   32.9820   47.6420 C   0  0  0  0  0  0  0  0  0  0  0  0
   62.3850   33.3490   46.6240 O   0  0  0  0  0  0  0  0  0  0  0  0
   60.3610   33.3440   47.7480 N   0  0  0  0  0  0  0  0  0  0  0  0
   59.4560   33.5170   46.6480 C   0  0  0  0  0  0  0  0  0  0  0  0
   59.3290   34.7730   46.0280 C   0  0  0  0  0  0  0  0  0  0  0  0
   58.4790   34.9370   44.9350 C   0  0  0  0  0  0  0  0  0  0  0  0
   57.7450   33.8550   44.4510 C   0  0  0  0  0  0  0  0  0  0  0  0
   57.8580   32.6030   45.0580 C   0  0  0  0  0  0  0  0  0  0  0  0
   58.7100   32.4180   46.1630 C   0  0  0  0  0  0  0  0  0  0  0  0
   58.8710   31.0740   46.7700 C   0  0  0  0  0  0  0  0  0  0  0  0
   58.7110   30.9330   48.0130 O   0  0  0  0  0  0  0  0  0  0  0  0
   59.2340   29.9010   45.9430 C   0  0  0  0  0  0  0  0  0  0  0  0
   58.3570   29.1650   45.2410 C   0  0  0  0  0  0  0  0  0  0  0  0
   57.7460   27.8930   45.6980 C   0  0  0  0  0  0  0  0  0  0  0  0
   58.5470   26.8070   46.1000 C   0  0  0  0  0  0  0  0  0  0  0  0
   57.9650   25.5910   46.4560 C   0  0  0  0  0  0  0  0  0  0  0  0
   56.5790   25.4350   46.3960 C   0  0  0  0  0  0  0  0  0  0  0  0
   55.7720   26.5000   45.9840 C   0  0  0  0  0  0  0  0  0  0  0  0
   54.3940   26.3390   45.9310 O   0  0  0  0  0  0  0  0  0  0  0  0
   56.3510   27.7240   45.6250 C   0  0  0  0  0  0  0  0  0  0  0  0
   55.5360   28.7720   45.2070 O   0  0  0  0  0  0  0  0  0  0  0  0
   61.7800   31.2270   49.4290 C   0  0  0  0  0  0  0  0  0  0  0  0
   60.5058   26.6301   49.9599 H   0  0  0  0  0  0  0  0  0  0  0  0
   59.5893   26.6625   48.4154 H   0  0  0  0  0  0  0  0  0  0  0  0
   61.3601   26.9637   48.4154 H   0  0  0  0  0  0  0  0  0  0  0  0
   61.0292   29.1675   48.7632 H   0  0  0  0  0  0  0  0  0  0  0  0
   59.2546   28.8772   48.6107 H   0  0  0  0  0  0  0  0  0  0  0  0
   59.6633   30.9796   50.9798 H   0  0  0  0  0  0  0  0  0  0  0  0
   58.5107   30.2130   49.8132 H   0  0  0  0  0  0  0  0  0  0  0  0
   58.5813   29.9629   52.8469 H   0  0  0  0  0  0  0  0  0  0  0  0
   57.2520   30.5667   51.8005 H   0  0  0  0  0  0  0  0  0  0  0  0
   57.6724   28.8203   51.8005 H   0  0  0  0  0  0  0  0  0  0  0  0
   64.2308   30.3228   51.6294 H   0  0  0  0  0  0  0  0  0  0  0  0
   65.4312   32.1391   50.4159 H   0  0  0  0  0  0  0  0  0  0  0  0
   59.9035   35.6308   46.4075 H   0  0  0  0  0  0  0  0  0  0  0  0
   58.3874   35.9219   44.4537 H   0  0  0  0  0  0  0  0  0  0  0  0
   57.0752   33.9882   43.5887 H   0  0  0  0  0  0  0  0  0  0  0  0
   57.2764   31.7540   44.6695 H   0  0  0  0  0  0  0  0  0  0  0  0
   60.2946   29.6125   45.9006 H   0  0  0  0  0  0  0  0  0  0  0  0
   58.0683   29.5356   44.2463 H   0  0  0  0  0  0  0  0  0  0  0  0
   59.6408   26.9188   46.1335 H   0  0  0  0  0  0  0  0  0  0  0  0
   58.5985   24.7539   46.7844 H   0  0  0  0  0  0  0  0  0  0  0  0
   56.1215   24.4738   46.6730 H   0  0  0  0  0  0  0  0  0  0  0  0
   60.7443   30.9713   49.1608 H   0  0  0  0  0  0  0  0  0  0  0  0
  1  2  1  0
  2  3  1  0
  3  4  1  0
  4  5  1  0
  3  6  1  0
  6  7  2  0
  6  8  2  0
  6  9  1  0
  9 10  2  0
 10 11  1  0
 11 12  2  0
 12 13  1  0
 12 14  1  0
 14 15  1  0
 15 16  2  0
 15 17  1  0
 17 18  1  0
 18 19  2  0
 19 20  1  0
 20 21  2  0
 21 22  1  0
 22 23  2  0
 23 24  1  0
 24 25  2  0
 24 26  1  0
 26 27  2  3
 27 28  1  0
 28 29  2  0
 29 30  1  0
 30 31  2  0
 31 32  1  0
 32 33  1  0
 32 34  2  0
 34 35  1  0
 14 36  2  0
 36  9  1  0
 23 18  1  0
 34 28  1  0
  1 37  1  0
  1 38  1  0
  1 39  1  0
  2 40  1  0
  2 41  1  0
  4 42  1  0
  4 43  1  0
  5 44  1  0
  5 45  1  0
  5 46  1  0
 10 47  1  0
 11 48  1  0
 19 49  1  0
 20 50  1  0
 21 51  1  0
 22 52  1  0
 26 53  1  0
 27 54  1  0
 29 55  1  0
 30 56  1  0
 31 57  1  0
 36 58  1  0
M  CHG  4  13  -1  17  -1  33  -1  35  -1
M  END
>  <UniqueID>  (10) 
9

>  <SMILES>  (10) 
CCN(CC)S(=O)(=O)c1ccc([O-])c(C(=O)[N-]c2ccccc2C(=O)C=Cc2cccc([O-])c2[O-])c1

>  <Energy>  (10) 
75.62852998737371

>  <Genealogy>  (10) 
CCN(CC)S(=O)(=O)c1ccc([O-])c(C(=O)[N-]c2ccccc2C(=O)C=Cc2cccc([O-])c2[O-])c1 (protonated)
CCN(CC)S(=O)(=O)c1ccc([O-])c(C(=O)[N-]c2ccccc2C(=O)C=Cc2cccc([O-])c2[O-])c1 (3D coordinates assigned)
CCN(CC)S(=O)(=O)c1ccc([O-])c(C(=O)[N-]c2ccccc2C(=O)C=Cc2cccc([O-])c2[O-])c1 (optimized conformer: 75.62852998737371 kcal/mol)

>  <smiles>  (10) 
CCN(CC)S(=O)(=O)c1ccc(O)c(C(=O)Nc2ccccc2C(=O)C=Cc2cccc(O)c2O)c1

>  <score_type>  (10) 
oracle

>  <origin>  (10) 
adg

>  <m_score__min__energy>  (10) 
-18.969999999999999

>  <m_primary>  (10) 
energy

$$$$
10:0
     RDKit          3D

 53 56  0  0  0  0  0  0  0  0999 V2000
   54.7250   25.4210   45.9010 O   0  0  0  0  0  0  0  0  0  0  0  0
   55.8070   26.0620   45.9880 C   0  0  0  0  0  0  0  0  0  0  0  0
   57.0010   25.4170   46.6480 C   0  0  0  0  0  0  0  0  0  0  0  0
   56.8530   23.9210   46.7370 C   0  0  0  0  0  0  0  0  0  0  0  0
   57.2740   23.1990   47.7950 N   0  0  0  0  0  0  0  0  0  0  0  0
   56.9990   21.9250   47.4410 C   0  0  0  0  0  0  0  0  0  0  0  0
   57.2660   20.9400   48.1820 O   0  0  0  0  0  0  0  0  0  0  0  0
   56.4370   21.7900   46.2200 N   0  0  0  0  0  0  0  0  0  0  0  0
   56.3530   23.0590   45.7790 C   0  0  0  0  0  0  0  0  0  0  0  0
   55.8540   23.3960   44.5230 O   0  0  0  0  0  0  0  0  0  0  0  0
   55.8140   27.4460   45.6180 N   0  0  0  0  0  0  0  0  0  0  0  0
   56.9550   28.1840   45.1610 C   0  0  0  0  0  0  0  0  0  0  0  0
   58.1010   27.4880   44.7630 C   0  0  0  0  0  0  0  0  0  0  0  0
   59.2450   28.1880   44.3640 C   0  0  0  0  0  0  0  0  0  0  0  0
   59.2600   29.5860   44.3960 C   0  0  0  0  0  0  0  0  0  0  0  0
   58.1270   30.2900   44.8240 C   0  0  0  0  0  0  0  0  0  0  0  0
   58.1550   32.0450   44.9570 S   0  0  0  0  0  0  0  0  0  0  0  0
   58.5820   32.6700   43.6560 O   0  0  0  0  0  0  0  0  0  0  0  0
   56.7720   32.5310   45.2930 O   0  0  0  0  0  0  0  0  0  0  0  0
   59.2720   32.5120   46.2060 N   0  0  0  0  0  0  0  0  0  0  0  0
   59.8030   33.8780   46.2480 C   0  0  0  0  0  0  0  0  0  0  0  0
   61.0860   33.9220   47.0380 C   0  0  0  0  0  0  0  0  0  0  0  0
   62.3080   33.5980   46.4250 C   0  0  0  0  0  0  0  0  0  0  0  0
   63.4930   33.5960   47.1690 C   0  0  0  0  0  0  0  0  0  0  0  0
   63.4680   33.9230   48.5280 C   0  0  0  0  0  0  0  0  0  0  0  0
   62.2570   34.2510   49.1460 C   0  0  0  0  0  0  0  0  0  0  0  0
   61.0700   34.2510   48.4040 C   0  0  0  0  0  0  0  0  0  0  0  0
   59.5400   31.6030   47.2790 C   0  0  0  0  0  0  0  0  0  0  0  0
   60.4970   30.5900   47.1230 C   0  0  0  0  0  0  0  0  0  0  0  0
   60.7490   29.6940   48.1660 C   0  0  0  0  0  0  0  0  0  0  0  0
   60.0480   29.8050   49.3690 C   0  0  0  0  0  0  0  0  0  0  0  0
   59.0910   30.8120   49.5300 C   0  0  0  0  0  0  0  0  0  0  0  0
   58.8340   31.7110   48.4870 C   0  0  0  0  0  0  0  0  0  0  0  0
   57.8780   32.7070   48.6550 O   0  0  0  0  0  0  0  0  0  0  0  0
   56.9740   29.5870   45.1970 C   0  0  0  0  0  0  0  0  0  0  0  0
   57.9014   25.6510   46.0611 H   0  0  0  0  0  0  0  0  0  0  0  0
   57.0806   25.8133   47.6710 H   0  0  0  0  0  0  0  0  0  0  0  0
   55.4770   24.3130   44.3250 H   0  0  0  0  0  0  0  0  0  0  0  0
   58.1030   26.3880   44.7636 H   0  0  0  0  0  0  0  0  0  0  0  0
   60.1346   27.6373   44.0244 H   0  0  0  0  0  0  0  0  0  0  0  0
   60.1621   30.1332   44.0849 H   0  0  0  0  0  0  0  0  0  0  0  0
   59.9980   34.2222   45.2216 H   0  0  0  0  0  0  0  0  0  0  0  0
   59.0638   34.5321   46.7336 H   0  0  0  0  0  0  0  0  0  0  0  0
   62.3332   33.3447   45.3549 H   0  0  0  0  0  0  0  0  0  0  0  0
   64.4456   33.3368   46.6839 H   0  0  0  0  0  0  0  0  0  0  0  0
   64.4007   33.9223   49.1112 H   0  0  0  0  0  0  0  0  0  0  0  0
   62.2373   34.5090   50.2151 H   0  0  0  0  0  0  0  0  0  0  0  0
   60.1193   34.5100   48.8930 H   0  0  0  0  0  0  0  0  0  0  0  0
   61.0511   30.5001   46.1770 H   0  0  0  0  0  0  0  0  0  0  0  0
   61.5003   28.9006   48.0392 H   0  0  0  0  0  0  0  0  0  0  0  0
   60.2486   29.1005   50.1896 H   0  0  0  0  0  0  0  0  0  0  0  0
   58.5390   30.8982   50.4776 H   0  0  0  0  0  0  0  0  0  0  0  0
   56.0783   30.1378   45.5200 H   0  0  0  0  0  0  0  0  0  0  0  0
  1  2  2  0
  2  3  1  0
  3  4  1  0
  4  5  1  0
  5  6  1  0
  6  7  2  0
  6  8  1  0
  8  9  1  0
  9 10  1  0
  2 11  1  0
 11 12  1  0
 12 13  2  0
 13 14  1  0
 14 15  2  0
 15 16  1  0
 16 17  1  0
 17 18  2  0
 17 19  2  0
 17 20  1  0
 20 21  1  0
 21 22  1  0
 22 23  2  0
 23 24  1  0
 24 25  2  0
 25 26  1  0
 26 27  2  0
 20 28  1  0
 28 29  2  0
 29 30  1  0
 30 31  2  0
 31 32  1  0
 32 33  2  0
 33 34  1  0
 16 35  2  0
  9  4  2  0
 35 12  1  0
 27 22  1  0
 33 28  1  0
  3 36  1  0
  3 37  1  0
 10 38  1  0
 13 39  1  0
 14 40  1  0
 15 41  1  0
 21 42  1  0
 21 43  1  0
 23 44  1  0
 24 45  1  0
 25 46  1  0
 26 47  1  0
 27 48  1  0
 29 49  1  0
 30 50  1  0
 31 51  1  0
 32 52  1  0
 35 53  1  0
M  CHG  4   5  -1   8  -1  11  -1  34  -1
M  END
>  <UniqueID>  (11) 
10

>  <SMILES>  (11) 
O=C(Cc1[n-]c(=O)[n-]c1O)[N-]c1cccc(S(=O)(=O)N(Cc2ccccc2)c2ccccc2[O-])c1

>  <Energy>  (11) 
91.90017381265115

>  <Genealogy>  (11) 
O=C(Cc1[n-]c(=O)[n-]c1O)[N-]c1cccc(S(=O)(=O)N(Cc2ccccc2)c2ccccc2[O-])c1 (protonated)
O=C(Cc1[n-]c(=O)[n-]c1O)[N-]c1cccc(S(=O)(=O)N(Cc2ccccc2)c2ccccc2[O-])c1 (3D coordinates assigned)
O=C(Cc1[n-]c(=O)[n-]c1O)[N-]c1cccc(S(=O)(=O)N(Cc2ccccc2)c2ccccc2[O-])c1 (optimized conformer: 91.90017381265115 kcal/mol)

>  <smiles>  (11) 
O=C(Cc1[nH]c(=O)[nH]c1O)Nc1cccc(S(=O)(=O)N(Cc2ccccc2)c2ccccc2O)c1

>  <score_type>  (11) 
oracle

>  <origin>  (11) 
adg

>  <m_score__min__energy>  (11) 
-17.079999999999998

>  <m_primary>  (11) 
energy

$$$$
11:0
     RDKit          3D

 54 57  0  0  0  0  0  0  0  0999 V2000
   56.2010   28.2730   44.3510 H   0  0  0  0  0  0  0  0  0  0  0  0
   55.8830   28.0200   45.2770 O   0  0  0  0  0  0  0  0  0  0  0  0
   55.9970   26.7220   45.7660 C   0  0  0  0  0  0  0  0  0  0  0  0
   54.9550   25.8780   45.8590 N   0  0  0  0  0  0  0  0  0  0  0  0
   55.5160   24.7640   46.3730 C   0  0  0  0  0  0  0  0  0  0  0  0
   54.8540   23.7220   46.6180 O   0  0  0  0  0  0  0  0  0  0  0  0
   56.8410   24.8570   46.6110 N   0  0  0  0  0  0  0  0  0  0  0  0
   57.1490   26.1050   46.2120 C   0  0  0  0  0  0  0  0  0  0  0  0
   58.4850   26.7300   46.3320 C   0  0  0  0  0  0  0  0  0  0  0  0
   59.3483   26.1610   45.9566 H   0  0  0  0  0  0  0  0  0  0  0  0
   58.7240   27.9470   46.8680 C   0  0  0  0  0  0  0  0  0  0  0  0
   58.5980   28.3120   48.2050 C   0  0  0  0  0  0  0  0  0  0  0  0
   58.2617   27.6696   49.0322 H   0  0  0  0  0  0  0  0  0  0  0  0
   58.9770   29.6370   48.2920 C   0  0  0  0  0  0  0  0  0  0  0  0
   58.9740   30.4430   49.5550 C   0  0  0  0  0  0  0  0  0  0  0  0
   58.9765   29.7660   50.4220 H   0  0  0  0  0  0  0  0  0  0  0  0
   59.8698   31.0807   49.5851 H   0  0  0  0  0  0  0  0  0  0  0  0
   58.0735   31.0740   49.5851 H   0  0  0  0  0  0  0  0  0  0  0  0
   59.3230   30.1100   47.0750 N   0  0  0  0  0  0  0  0  0  0  0  0
   59.7630   31.4500   46.7940 C   0  0  0  0  0  0  0  0  0  0  0  0
   61.0840   31.8170   47.0790 C   0  0  0  0  0  0  0  0  0  0  0  0
   61.7593   31.0944   47.5605 H   0  0  0  0  0  0  0  0  0  0  0  0
   61.5520   33.0960   46.7560 C   0  0  0  0  0  0  0  0  0  0  0  0
   63.2410   33.5220   47.0460 S   0  0  0  0  0  0  0  0  0  0  0  0
   64.1140   32.3450   46.7120 O   0  0  0  0  0  0  0  0  0  0  0  0
   63.6260   34.6590   46.1390 O   0  0  0  0  0  0  0  0  0  0  0  0
   63.5090   33.9800   48.7120 N   0  0  0  0  0  0  0  0  0  0  0  0
   64.5220   33.1170   49.3580 C   0  0  0  0  0  0  0  0  0  0  0  0
   65.0845   32.5838   48.5774 H   0  0  0  0  0  0  0  0  0  0  0  0
   65.1845   33.7596   49.9565 H   0  0  0  0  0  0  0  0  0  0  0  0
   63.8800   32.0830   50.3030 C   0  0  0  0  0  0  0  0  0  0  0  0
   63.2284   31.4251   49.7093 H   0  0  0  0  0  0  0  0  0  0  0  0
   64.6997   31.5303   50.7852 H   0  0  0  0  0  0  0  0  0  0  0  0
   63.1040   32.6710   51.3380 O   0  0  0  0  0  0  0  0  0  0  0  0
   62.4700   33.8880   50.9620 C   0  0  0  0  0  0  0  0  0  0  0  0
   61.4971   33.9439   51.4723 H   0  0  0  0  0  0  0  0  0  0  0  0
   63.1470   34.7045   51.2537 H   0  0  0  0  0  0  0  0  0  0  0  0
   62.2320   34.0240   49.4500 C   0  0  0  0  0  0  0  0  0  0  0  0
   61.5906   33.1975   49.1102 H   0  0  0  0  0  0  0  0  0  0  0  0
   61.7457   34.9913   49.2554 H   0  0  0  0  0  0  0  0  0  0  0  0
   60.6780   34.0230   46.1760 C   0  0  0  0  0  0  0  0  0  0  0  0
   61.0340   35.0365   45.9394 H   0  0  0  0  0  0  0  0  0  0  0  0
   59.3560   33.6680   45.8960 C   0  0  0  0  0  0  0  0  0  0  0  0
   58.6764   34.4041   45.4419 H   0  0  0  0  0  0  0  0  0  0  0  0
   58.8890   32.3730   46.1920 C   0  0  0  0  0  0  0  0  0  0  0  0
   57.5780   31.9670   45.8950 O   0  0  0  0  0  0  0  0  0  0  0  0
   57.1030   31.6700   44.5860 C   0  0  0  0  0  0  0  0  0  0  0  0
   56.1723   31.0880   44.6570 H   0  0  0  0  0  0  0  0  0  0  0  0
   56.9087   32.6078   44.0449 H   0  0  0  0  0  0  0  0  0  0  0  0
   57.8611   31.0847   44.0449 H   0  0  0  0  0  0  0  0  0  0  0  0
   59.1770   29.0890   46.1940 C   0  0  0  0  0  0  0  0  0  0  0  0
   59.4030   29.2030   44.8750 C   0  0  0  0  0  0  0  0  0  0  0  0
   59.7601   30.1564   44.4586 H   0  0  0  0  0  0  0  0  0  0  0  0
   59.2310   28.3429   44.2112 H   0  0  0  0  0  0  0  0  0  0  0  0
  1  2  1  0
  2  3  1  0
  3  4  1  0
  4  5  1  0
  5  6  2  0
  5  7  1  0
  7  8  1  0
  8  9  1  0
  9 10  1  0
  9 11  2  0
 11 12  1  0
 12 13  1  0
 12 14  2  0
 14 15  1  0
 15 16  1  0
 15 17  1  0
 15 18  1  0
 14 19  1  0
 19 20  1  0
 20 21  2  0
 21 22  1  0
 21 23  1  0
 23 24  1  0
 24 25  2  0
 24 26  2  0
 24 27  1  0
 27 28  1  0
 28 29  1  0
 28 30  1  0
 28 31  1  0
 31 32  1  0
 31 33  1  0
 31 34  1  0
 34 35  1  0
 35 36  1  0
 35 37  1  0
 35 38  1  0
 38 39  1  0
 38 40  1  0
 23 41  2  0
 41 42  1  0
 41 43  1  0
 43 44  1  0
 43 45  2  0
 45 46  1  0
 46 47  1  0
 47 48  1  0
 47 49  1  0
 47 50  1  0
 19 51  1  0
 51 52  2  0
 52 53  1  0
 52 54  1  0
  8  3  2  0
 51 11  1  0
 45 20  1  0
 38 27  1  0
M  CHG  2   4  -1   7  -1
M  END
>  <UniqueID>  (12) 
11

>  <SMILES>  (12) 
C=c1/c(=C/c2[n-]c(=O)[n-]c2O)cc(C)n1-c1cc(S(=O)(=O)N2CCOCC2)ccc1OC

>  <Energy>  (12) 
134.8699672099616

>  <Genealogy>  (12) 
C=c1c(=Cc2[n-]c(=O)[n-]c2O)cc(C)n1-c1cc(S(=O)(=O)N2CCOCC2)ccc1OC (protonated)
C=c1/c(=C/c2[n-]c(=O)[n-]c2O)cc(C)n1-c1cc(S(=O)(=O)N2CCOCC2)ccc1OC (cis-trans isomerization)
C=c1/c(=C/c2[n-]c(=O)[n-]c2O)cc(C)n1-c1cc(S(=O)(=O)N2CCOCC2)ccc1OC (3D coordinates assigned)
C=c1/c(=C/c2[n-]c(=O)[n-]c2O)cc(C)n1-c1cc(S(=O)(=O)N2CCOCC2)ccc1OC (nonaromatic ring conformer: 134.8699672099616 kcal/mol)

>  <smiles>  (12) 
C=c1c(=Cc2[nH]c(=O)[nH]c2O)cc(C)n1-c1cc(S(=O)(=O)N2CCOCC2)ccc1OC

>  <score_type>  (12) 
oracle

>  <origin>  (12) 
adg

>  <m_score__min__energy>  (12) 
-13.59

>  <m_primary>  (12) 
energy

$$$$
12:0
     RDKit          3D

 60 63  0  0  0  0  0  0  0  0999 V2000
   56.1352   27.7360   46.5666 H   0  0  0  0  0  0  0  0  0  0  0  0
   56.2440   26.8150   45.9750 C   0  0  0  0  0  0  0  0  0  0  0  0
   55.2930   25.8500   46.0450 N   0  0  0  0  0  0  0  0  0  0  0  0
   55.3740   24.6980   45.3200 C   0  0  0  0  0  0  0  0  0  0  0  0
   54.4520   23.7860   45.4240 N   0  0  0  0  0  0  0  0  0  0  0  0
   54.0230   23.1660   46.6770 C   0  0  0  0  0  0  0  0  0  0  0  0
   53.0949   22.6016   46.5034 H   0  0  0  0  0  0  0  0  0  0  0  0
   53.8509   23.9537   47.4252 H   0  0  0  0  0  0  0  0  0  0  0  0
   55.0860   22.2290   47.1880 C   0  0  0  0  0  0  0  0  0  0  0  0
   55.4900   21.1180   46.4320 C   0  0  0  0  0  0  0  0  0  0  0  0
   55.0423   20.9362   45.4438 H   0  0  0  0  0  0  0  0  0  0  0  0
   56.4590   20.2410   46.9290 C   0  0  0  0  0  0  0  0  0  0  0  0
   56.7716   19.3739   46.3287 H   0  0  0  0  0  0  0  0  0  0  0  0
   57.0340   20.4610   48.1880 C   0  0  0  0  0  0  0  0  0  0  0  0
   58.0990   19.5420   48.7080 C   0  0  0  0  0  0  0  0  0  0  0  0
   58.0871   19.5522   49.8079 H   0  0  0  0  0  0  0  0  0  0  0  0
   57.9087   18.5199   48.3488 H   0  0  0  0  0  0  0  0  0  0  0  0
   59.0823   19.8798   48.3488 H   0  0  0  0  0  0  0  0  0  0  0  0
   56.6460   21.5840   48.9340 C   0  0  0  0  0  0  0  0  0  0  0  0
   57.1121   21.7791   49.9111 H   0  0  0  0  0  0  0  0  0  0  0  0
   55.6710   22.4560   48.4430 C   0  0  0  0  0  0  0  0  0  0  0  0
   55.3607   23.3242   49.0429 H   0  0  0  0  0  0  0  0  0  0  0  0
   56.4660   24.4970   44.4640 C   0  0  0  0  0  0  0  0  0  0  0  0
   56.6090   23.0380   43.4880 Cl  0  0  0  0  0  0  0  0  0  0  0  0
   57.4600   25.4740   44.3830 C   0  0  0  0  0  0  0  0  0  0  0  0
   58.3206   25.3263   43.7140 H   0  0  0  0  0  0  0  0  0  0  0  0
   57.3650   26.6420   45.1510 C   0  0  0  0  0  0  0  0  0  0  0  0
   58.4130   27.6810   45.0900 C   0  0  0  0  0  0  0  0  0  0  0  0
   58.4030   28.4960   44.1270 O   0  0  0  0  0  0  0  0  0  0  0  0
   59.4110   27.8040   46.1210 N   0  0  0  0  0  0  0  0  0  0  0  0
   59.0440   27.5350   47.5230 C   0  0  0  0  0  0  0  0  0  0  0  0
   58.0242   27.9065   47.7016 H   0  0  0  0  0  0  0  0  0  0  0  0
   59.1043   26.4494   47.6899 H   0  0  0  0  0  0  0  0  0  0  0  0
   60.0030   28.2230   48.5060 C   0  0  0  0  0  0  0  0  0  0  0  0
   59.5241   28.2920   49.4939 H   0  0  0  0  0  0  0  0  0  0  0  0
   60.9284   27.6329   48.5799 H   0  0  0  0  0  0  0  0  0  0  0  0
   60.3300   29.5750   48.0280 N   0  0  0  0  0  0  0  0  0  0  0  0
   60.2980   30.7100   48.9120 C   0  0  0  0  0  0  0  0  0  0  0  0
   60.0290   30.5560   50.1340 O   0  0  0  0  0  0  0  0  0  0  0  0
   60.5530   31.9910   48.4070 O   0  0  0  0  0  0  0  0  0  0  0  0
   59.5860   33.0380   48.4040 C   0  0  0  0  0  0  0  0  0  0  0  0
   58.7917   32.8000   49.1268 H   0  0  0  0  0  0  0  0  0  0  0  0
   60.0798   33.9808   48.6821 H   0  0  0  0  0  0  0  0  0  0  0  0
   58.9810   33.1890   47.0340 C   0  0  0  0  0  0  0  0  0  0  0  0
   58.2140   32.1560   46.4720 C   0  0  0  0  0  0  0  0  0  0  0  0
   58.0671   31.2179   47.0273 H   0  0  0  0  0  0  0  0  0  0  0  0
   57.6360   32.3160   45.2080 C   0  0  0  0  0  0  0  0  0  0  0  0
   57.0393   31.5025   44.7697 H   0  0  0  0  0  0  0  0  0  0  0  0
   57.8160   33.5080   44.5020 C   0  0  0  0  0  0  0  0  0  0  0  0
   57.3635   33.6318   43.5071 H   0  0  0  0  0  0  0  0  0  0  0  0
   58.5710   34.5430   45.0600 C   0  0  0  0  0  0  0  0  0  0  0  0
   58.7094   35.4824   44.5047 H   0  0  0  0  0  0  0  0  0  0  0  0
   59.1510   34.3870   46.3230 C   0  0  0  0  0  0  0  0  0  0  0  0
   59.7419   35.2053   46.7602 H   0  0  0  0  0  0  0  0  0  0  0  0
   60.7650   29.7730   46.6380 C   0  0  0  0  0  0  0  0  0  0  0  0
   60.1177   30.5256   46.1641 H   0  0  0  0  0  0  0  0  0  0  0  0
   61.8122   30.1095   46.6472 H   0  0  0  0  0  0  0  0  0  0  0  0
   60.6840   28.4720   45.8380 C   0  0  0  0  0  0  0  0  0  0  0  0
   60.7489   28.6976   44.7633 H   0  0  0  0  0  0  0  0  0  0  0  0
   61.5163   27.8124   46.1248 H   0  0  0  0  0  0  0  0  0  0  0  0
  1  2  1  0
  2  3  1  0
  3  4  1  0
  4  5  2  0
  5  6  1  0
  6  7  1  0
  6  8  1  0
  6  9  1  0
  9 10  2  0
 10 11  1  0
 10 12  1  0
 12 13  1  0
 12 14  2  0
 14 15  1  0
 15 16  1  0
 15 17  1  0
 15 18  1  0
 14 19  1  0
 19 20  1  0
 19 21  2  0
 21 22  1  0
  4 23  1  0
 23 24  1  0
 23 25  2  0
 25 26  1  0
 25 27  1  0
 27 28  1  0
 28 29  2  0
 28 30  1  0
 30 31  1  0
 31 32  1  0
 31 33  1  0
 31 34  1  0
 34 35  1  0
 34 36  1  0
 34 37  1  0
 37 38  1  0
 38 39  2  0
 38 40  1  0
 40 41  1  0
 41 42  1  0
 41 43  1  0
 41 44  1  0
 44 45  2  0
 45 46  1  0
 45 47  1  0
 47 48  1  0
 47 49  2  0
 49 50  1  0
 49 51  1  0
 51 52  1  0
 51 53  2  0
 53 54  1  0
 37 55  1  0
 55 56  1  0
 55 57  1  0
 55 58  1  0
 58 59  1  0
 58 60  1  0
 27  2  2  0
 58 30  1  0
 21  9  1  0
 53 44  1  0
M  CHG  1   3  -1
M  END
>  <UniqueID>  (13) 
12

>  <SMILES>  (13) 
Cc1ccc(C/N=c2\[n-]cc(C(=O)N3CCN(C(=O)OCc4ccccc4)CC3)cc2Cl)cc1

>  <Energy>  (13) 
66.70666849069094

>  <Genealogy>  (13) 
Cc1ccc(CN=c2[n-]cc(C(=O)N3CCN(C(=O)OCc4ccccc4)CC3)cc2Cl)cc1 (protonated)
Cc1ccc(C/N=c2\[n-]cc(C(=O)N3CCN(C(=O)OCc4ccccc4)CC3)cc2Cl)cc1 (cis-trans isomerization)
Cc1ccc(C/N=c2\[n-]cc(C(=O)N3CCN(C(=O)OCc4ccccc4)CC3)cc2Cl)cc1 (3D coordinates assigned)
Cc1ccc(C/N=c2\[n-]cc(C(=O)N3CCN(C(=O)OCc4ccccc4)CC3)cc2Cl)cc1 (nonaromatic ring conformer: 66.70666849069094 kcal/mol)

>  <smiles>  (13) 
Cc1ccc(CN=c2[nH]cc(C(=O)N3CCN(C(=O)OCc4ccccc4)CC3)cc2Cl)cc1

>  <score_type>  (13) 
oracle

>  <origin>  (13) 
adg

>  <m_score__min__energy>  (13) 
-10.65

>  <m_primary>  (13) 
energy

$$$$
13:0
     RDKit          3D

 68 71  0  0  0  0  0  0  0  0999 V2000
   65.3840   32.0610   50.1680 C   0  0  0  0  0  0  0  0  0  0  0  0
   64.9070   33.4530   49.7630 C   0  0  0  0  0  0  0  0  0  0  0  0
   63.6410   33.3700   48.9550 C   0  0  0  0  0  0  0  0  0  0  0  0
   62.3950   33.3260   49.5980 C   0  0  0  0  0  0  0  0  0  0  0  0
   61.2180   33.2670   48.8500 C   0  0  0  0  0  0  0  0  0  0  0  0
   61.2710   33.2580   47.4470 C   0  0  0  0  0  0  0  0  0  0  0  0
   60.0030   33.1210   46.6450 C   0  0  0  0  0  0  0  0  0  0  0  0
   59.7330   31.7020   46.3530 N   0  0  0  0  0  0  0  0  0  0  0  0
   60.8370   30.7330   46.4490 C   0  0  0  0  0  0  0  0  0  0  0  0
   60.5990   29.7410   47.5470 C   0  0  0  0  0  0  0  0  0  0  0  0
   60.3710   28.5350   47.2630 O   0  0  0  0  0  0  0  0  0  0  0  0
   60.7280   30.1780   48.9070 N   0  0  0  0  0  0  0  0  0  0  0  0
   59.7160   30.4200   49.9010 C   0  0  0  0  0  0  0  0  0  0  0  0
   58.7990   31.4880   49.8030 C   0  0  0  0  0  0  0  0  0  0  0  0
   57.7950   31.6470   50.7650 C   0  0  0  0  0  0  0  0  0  0  0  0
   57.7010   30.7530   51.8320 C   0  0  0  0  0  0  0  0  0  0  0  0
   58.6210   29.7090   51.9540 C   0  0  0  0  0  0  0  0  0  0  0  0
   59.6440   29.5550   51.0120 C   0  0  0  0  0  0  0  0  0  0  0  0
   60.5630   28.5050   51.1810 O   0  0  0  0  0  0  0  0  0  0  0  0
   60.7390   27.4650   50.2180 C   0  0  0  0  0  0  0  0  0  0  0  0
   58.3930   31.2810   46.0030 C   0  0  0  0  0  0  0  0  0  0  0  0
   57.7610   30.5140   46.7780 O   0  0  0  0  0  0  0  0  0  0  0  0
   57.7580   31.6880   44.6880 C   0  0  0  0  0  0  0  0  0  0  0  0
   57.4480   30.5140   43.7420 C   0  0  0  0  0  0  0  0  0  0  0  0
   57.5230   29.2250   44.4380 N   0  0  0  0  0  0  0  0  0  0  0  0
   56.4700   28.5410   44.9490 C   0  0  0  0  0  0  0  0  0  0  0  0
   55.1500   28.9740   44.8830 O   0  0  0  0  0  0  0  0  0  0  0  0
   56.8950   27.3760   45.5500 C   0  0  0  0  0  0  0  0  0  0  0  0
   58.2590   27.3420   45.4170 C   0  0  0  0  0  0  0  0  0  0  0  0
   58.6240   28.4920   44.7470 C   0  0  0  0  0  0  0  0  0  0  0  0
   59.9430   28.8430   44.4570 O   0  0  0  0  0  0  0  0  0  0  0  0
   59.1230   26.2700   45.9980 C   0  0  0  0  0  0  0  0  0  0  0  0
   58.2950   25.0840   46.4580 C   0  0  0  0  0  0  0  0  0  0  0  0
   56.9480   25.1210   46.5930 C   0  0  0  0  0  0  0  0  0  0  0  0
   56.1060   26.3490   46.2950 C   0  0  0  0  0  0  0  0  0  0  0  0
   62.5170   33.3270   46.8020 C   0  0  0  0  0  0  0  0  0  0  0  0
   63.6940   33.3890   47.5510 C   0  0  0  0  0  0  0  0  0  0  0  0
   65.4094   31.9869   51.2652 H   0  0  0  0  0  0  0  0  0  0  0  0
   64.6936   31.3052   49.7653 H   0  0  0  0  0  0  0  0  0  0  0  0
   66.3929   31.8875   49.7653 H   0  0  0  0  0  0  0  0  0  0  0  0
   64.7181   34.0473   50.6692 H   0  0  0  0  0  0  0  0  0  0  0  0
   65.6865   33.9279   49.1491 H   0  0  0  0  0  0  0  0  0  0  0  0
   62.3453   33.3381   50.6968 H   0  0  0  0  0  0  0  0  0  0  0  0
   60.2451   33.2274   49.3617 H   0  0  0  0  0  0  0  0  0  0  0  0
   59.1634   33.5394   47.2195 H   0  0  0  0  0  0  0  0  0  0  0  0
   60.1192   33.6656   45.6964 H   0  0  0  0  0  0  0  0  0  0  0  0
   60.9254   30.1952   45.4935 H   0  0  0  0  0  0  0  0  0  0  0  0
   61.7625   31.2833   46.6738 H   0  0  0  0  0  0  0  0  0  0  0  0
   58.8736   32.1988   48.9668 H   0  0  0  0  0  0  0  0  0  0  0  0
   57.0791   32.4778   50.6797 H   0  0  0  0  0  0  0  0  0  0  0  0
   56.9013   30.8704   52.5782 H   0  0  0  0  0  0  0  0  0  0  0  0
   58.5408   29.0044   52.7949 H   0  0  0  0  0  0  0  0  0  0  0  0
   60.9009   26.5086   50.7367 H   0  0  0  0  0  0  0  0  0  0  0  0
   59.8403   27.3929   49.5878 H   0  0  0  0  0  0  0  0  0  0  0  0
   61.6114   27.6926   49.5878 H   0  0  0  0  0  0  0  0  0  0  0  0
   56.8155   32.2107   44.9082 H   0  0  0  0  0  0  0  0  0  0  0  0
   58.4900   32.3246   44.1694 H   0  0  0  0  0  0  0  0  0  0  0  0
   56.4339   30.6415   43.3353 H   0  0  0  0  0  0  0  0  0  0  0  0
   58.1973   30.5141   42.9367 H   0  0  0  0  0  0  0  0  0  0  0  0
   60.6930   28.7590   45.1310 H   0  0  0  0  0  0  0  0  0  0  0  0
   59.8385   25.9327   45.2336 H   0  0  0  0  0  0  0  0  0  0  0  0
   59.6513   26.6838   46.8695 H   0  0  0  0  0  0  0  0  0  0  0  0
   58.8166   24.1448   46.6942 H   0  0  0  0  0  0  0  0  0  0  0  0
   56.4353   24.2109   46.9377 H   0  0  0  0  0  0  0  0  0  0  0  0
   55.2394   26.0511   45.6865 H   0  0  0  0  0  0  0  0  0  0  0  0
   55.7772   26.7864   47.2492 H   0  0  0  0  0  0  0  0  0  0  0  0
   62.5658   33.3322   45.7031 H   0  0  0  0  0  0  0  0  0  0  0  0
   64.6660   33.4529   47.0401 H   0  0  0  0  0  0  0  0  0  0  0  0
  1  2  1  0
  2  3  1  0
  3  4  2  0
  4  5  1  0
  5  6  2  0
  6  7  1  0
  7  8  1  0
  8  9  1  0
  9 10  1  0
 10 11  2  0
 10 12  1  0
 12 13  1  0
 13 14  2  0
 14 15  1  0
 15 16  2  0
 16 17  1  0
 17 18  2  0
 18 19  1  0
 19 20  1  0
  8 21  1  0
 21 22  2  0
 21 23  1  0
 23 24  1  0
 24 25  1  0
 25 26  1  0
 26 27  1  0
 26 28  2  0
 28 29  1  0
 29 30  2  0
 30 31  1  0
 29 32  1  0
 32 33  1  0
 33 34  2  0
 34 35  1  0
  6 36  1  0
 36 37  2  0
 37  3  1  0
 18 13  1  0
 30 25  1  0
 35 28  1  0
  1 38  1  0
  1 39  1  0
  1 40  1  0
  2 41  1  0
  2 42  1  0
  4 43  1  0
  5 44  1  0
  7 45  1  0
  7 46  1  0
  9 47  1  0
  9 48  1  0
 14 49  1  0
 15 50  1  0
 16 51  1  0
 17 52  1  0
 20 53  1  0
 20 54  1  0
 20 55  1  0
 23 56  1  0
 23 57  1  0
 24 58  1  0
 24 59  1  0
 31 60  1  0
 32 61  1  0
 32 62  1  0
 33 63  1  0
 34 64  1  0
 35 65  1  0
 35 66  1  0
 36 67  1  0
 37 68  1  0
M  CHG  2  12  -1  27  -1
M  END
>  <UniqueID>  (14) 
13

>  <SMILES>  (14) 
CCc1ccc(CN(CC(=O)[N-]c2ccccc2OC)C(=O)CCn2c([O-])c3c(c2O)CC=CC3)cc1

>  <Energy>  (14) 
107.75466899774734

>  <Genealogy>  (14) 
CCc1ccc(CN(CC(=O)[N-]c2ccccc2OC)C(=O)CCn2c([O-])c3c(c2O)CC=CC3)cc1 (protonated)
CCc1ccc(CN(CC(=O)[N-]c2ccccc2OC)C(=O)CCn2c([O-])c3c(c2O)CC=CC3)cc1 (3D coordinates assigned)
CCc1ccc(CN(CC(=O)[N-]c2ccccc2OC)C(=O)CCn2c([O-])c3c(c2O)CC=CC3)cc1 (nonaromatic ring conformer: 107.75466899774734 kcal/mol)

>  <smiles>  (14) 
CCc1ccc(CN(CC(=O)Nc2ccccc2OC)C(=O)CCn2c(O)c3c(c2O)CC=CC3)cc1

>  <score_type>  (14) 
oracle

>  <origin>  (14) 
adg

>  <m_score__min__energy>  (14) 
-13.4

>  <m_primary>  (14) 
energy

$$$$
14:0
     RDKit          3D

 52 55  0  0  1  0  0  0  0  0999 V2000
   59.0100   30.9110   48.8760 N   0  0  0  0  0  0  0  0  0  0  0  0
   60.2010   30.0760   47.9900 S   0  0  0  0  0  0  0  0  0  0  0  0
   61.0820   31.0800   47.3090 O   0  0  0  0  0  0  0  0  0  0  0  0
   61.0900   29.3510   48.9800 O   0  0  0  0  0  0  0  0  0  0  0  0
   59.5720   28.9770   46.8120 C   0  0  0  0  0  0  0  0  0  0  0  0
   60.1580   27.7200   46.6280 C   0  0  0  0  0  0  0  0  0  0  0  0
   59.6520   26.8310   45.6910 C   0  0  0  0  0  0  0  0  0  0  0  0
   58.5490   27.1590   44.9040 C   0  0  0  0  0  0  0  0  0  0  0  0
   57.9670   28.4000   45.0820 C   0  0  0  0  0  0  0  0  0  0  0  0
   58.4640   29.3140   46.0250 C   0  0  0  0  0  0  0  0  0  0  0  0
   57.7850   30.5470   46.1610 N   0  0  0  0  0  0  0  0  0  0  0  0
   58.1250   31.6090   45.5790 C   0  0  0  0  0  0  0  0  0  0  0  0
   58.9070   32.4870   46.2740 N   0  0  0  0  0  0  0  0  0  0  0  0
   59.3160   33.6440   45.7350 C   0  0  0  0  0  0  0  0  0  0  0  0
   60.0550   34.4940   46.3620 N   0  0  0  0  0  0  0  0  0  0  0  0
   61.0860   33.9710   47.2030 C   0  0  0  0  0  0  0  0  0  0  0  0
   62.3500   33.6960   46.6860 C   0  0  0  0  0  0  0  0  0  0  0  0
   63.3300   33.1880   47.5270 C   0  0  0  0  0  0  0  0  0  0  0  0
   63.1090   32.9410   48.8660 C   0  0  0  0  0  0  0  0  0  0  0  0
   64.1380   32.4180   49.7080 N   0  0  0  0  0  0  0  0  0  0  0  0
   63.8370   31.2430   50.5040 C   0  0  0  0  0  0  0  0  0  0  0  0
   64.8500   31.0950   51.6050 C   0  0  0  0  0  0  0  0  0  0  0  0
   66.1040   31.2350   51.0130 O   0  0  0  0  0  0  0  0  0  0  0  0
   66.2740   32.6310   50.8550 C   0  0  0  0  0  0  0  0  0  0  0  0
   65.4170   33.0890   49.7170 C   0  0  0  0  0  0  0  0  0  0  0  0
   61.8490   33.2220   49.3500 C   0  0  0  0  0  0  0  0  0  0  0  0
   60.8340   33.7300   48.5540 C   0  0  0  0  0  0  0  0  0  0  0  0
   59.6060   34.0000   49.0490 F   0  0  0  0  0  0  0  0  0  0  0  0
   58.9440   33.9430   44.4760 N   0  0  0  0  0  0  0  0  0  0  0  0
   58.1710   33.0960   43.7620 C   0  0  0  0  0  0  0  0  0  0  0  0
   57.7450   31.9140   44.2950 C   0  0  0  0  0  0  0  0  0  0  0  0
   56.7560   30.8230   43.3590 Cl  0  0  0  0  0  0  0  0  0  0  0  0
   58.1970   31.0910   48.2280 H   0  0  0  0  0  0  0  0  0  0  0  0
   58.6440   30.3700   49.6850 H   0  0  0  0  0  0  0  0  0  0  0  0
   61.0304   27.4332   47.2335 H   0  0  0  0  0  0  0  0  0  0  0  0
   60.1303   25.8483   45.5666 H   0  0  0  0  0  0  0  0  0  0  0  0
   58.1529   26.4500   44.1621 H   0  0  0  0  0  0  0  0  0  0  0  0
   57.0952   28.6778   44.4714 H   0  0  0  0  0  0  0  0  0  0  0  0
   59.2120   32.2870   47.2460 H   0  0  0  0  0  0  0  0  0  0  0  0
   62.5687   33.8794   45.6237 H   0  0  0  0  0  0  0  0  0  0  0  0
   64.3244   32.9734   47.1085 H   0  0  0  0  0  0  0  0  0  0  0  0
   62.8340   31.3477   50.9434 H   0  0  0  0  0  0  0  0  0  0  0  0
   63.8707   30.3519   49.8599 H   0  0  0  0  0  0  0  0  0  0  0  0
   64.7002   31.8750   52.3661 H   0  0  0  0  0  0  0  0  0  0  0  0
   64.7536   30.1198   52.1047 H   0  0  0  0  0  0  0  0  0  0  0  0
   65.9725   33.1481   51.7779 H   0  0  0  0  0  0  0  0  0  0  0  0
   67.3296   32.8606   50.6475 H   0  0  0  0  0  0  0  0  0  0  0  0
   65.2506   34.1724   49.8095 H   0  0  0  0  0  0  0  0  0  0  0  0
   65.9369   32.8490   48.7778 H   0  0  0  0  0  0  0  0  0  0  0  0
   61.6401   33.0350   50.4137 H   0  0  0  0  0  0  0  0  0  0  0  0
   59.2570   34.8430   44.0420 H   0  0  0  0  0  0  0  0  0  0  0  0
   57.8804   33.3630   42.7352 H   0  0  0  0  0  0  0  0  0  0  0  0
  1  2  1  0
  2  3  2  0
  2  4  2  0
  2  5  1  0
  5  6  2  0
  6  7  1  0
  7  8  2  0
  8  9  1  0
  9 10  2  0
 10 11  1  0
 11 12  2  0
 12 13  1  0
 13 14  1  0
 14 15  2  0
 15 16  1  0
 16 17  2  0
 17 18  1  0
 18 19  2  0
 19 20  1  0
 20 21  1  0
 21 22  1  0
 22 23  1  0
 23 24  1  0
 24 25  1  0
 19 26  1  0
 26 27  2  0
 27 28  1  0
 14 29  1  0
 29 30  1  0
 30 31  2  0
 31 32  1  0
 10  5  1  0
 31 12  1  0
 27 16  1  0
 25 20  1  0
  1 33  1  0
  1 34  1  0
  6 35  1  0
  7 36  1  0
  8 37  1  0
  9 38  1  0
 13 39  1  0
 17 40  1  0
 18 41  1  0
 21 42  1  0
 21 43  1  0
 22 44  1  0
 22 45  1  0
 24 46  1  0
 24 47  1  0
 25 48  1  0
 25 49  1  0
 26 50  1  0
 29 51  1  0
 30 52  1  0
M  END
>  <smiles>  (15) 
NS(=O)(=O)c1ccccc1N=c1[nH]c(=Nc2ccc(N3CCOCC3)cc2F)[nH]cc1Cl

>  <score_type>  (15) 
oracle

>  <origin>  (15) 
adg

>  <m_score__min__energy>  (15) 
-10.220000000000001

>  <m_primary>  (15) 
energy

$$$$
15:0
     RDKit          3D

 49 52  0  0  0  0  0  0  0  0999 V2000
   60.5770   28.9640   46.8670 C   0  0  0  0  0  0  0  0  0  0  0  0
   59.9160   29.9980   46.3260 C   0  0  0  0  0  0  0  0  0  0  0  0
   58.8640   29.9520   45.3920 C   0  0  0  0  0  0  0  0  0  0  0  0
   58.3210   28.9200   44.7160 C   0  0  0  0  0  0  0  0  0  0  0  0
   57.6360   27.7620   45.3200 C   0  0  0  0  0  0  0  0  0  0  0  0
   56.2530   27.7940   45.5430 C   0  0  0  0  0  0  0  0  0  0  0  0
   55.5190   28.9390   45.2430 O   0  0  0  0  0  0  0  0  0  0  0  0
   55.6210   26.7070   46.0610 N   0  0  0  0  0  0  0  0  0  0  0  0
   56.3120   25.5730   46.3550 C   0  0  0  0  0  0  0  0  0  0  0  0
   55.7140   24.5750   46.8380 O   0  0  0  0  0  0  0  0  0  0  0  0
   57.6480   25.5100   46.1220 N   0  0  0  0  0  0  0  0  0  0  0  0
   58.3230   26.5690   45.6060 C   0  0  0  0  0  0  0  0  0  0  0  0
   59.5590   26.4680   45.3860 O   0  0  0  0  0  0  0  0  0  0  0  0
   58.4300   31.2590   45.2340 C   0  0  0  0  0  0  0  0  0  0  0  0
   59.2340   32.0490   46.0290 C   0  0  0  0  0  0  0  0  0  0  0  0
   59.1290   33.5400   46.1380 C   0  0  0  0  0  0  0  0  0  0  0  0
   60.1410   31.2890   46.6790 N   0  0  0  0  0  0  0  0  0  0  0  0
   61.1130   31.7780   47.6200 C   0  0  0  0  0  0  0  0  0  0  0  0
   62.3150   32.3310   47.1610 C   0  0  0  0  0  0  0  0  0  0  0  0
   63.2670   32.7970   48.0710 C   0  0  0  0  0  0  0  0  0  0  0  0
   63.0320   32.7130   49.4520 C   0  0  0  0  0  0  0  0  0  0  0  0
   64.0150   33.1990   50.3860 N   0  0  0  0  0  0  0  0  0  0  0  0
   63.6000   33.9400   51.5820 C   0  0  0  0  0  0  0  0  0  0  0  0
   64.7190   34.8950   52.0100 C   0  0  0  0  0  0  0  0  0  0  0  0
   65.9460   34.2030   52.1460 O   0  0  0  0  0  0  0  0  0  0  0  0
   66.3600   33.7100   50.8850 C   0  0  0  0  0  0  0  0  0  0  0  0
   65.3780   32.6570   50.3640 C   0  0  0  0  0  0  0  0  0  0  0  0
   61.8220   32.1610   49.9080 C   0  0  0  0  0  0  0  0  0  0  0  0
   60.8680   31.6950   48.9970 C   0  0  0  0  0  0  0  0  0  0  0  0
   59.7040   31.1710   49.4550 F   0  0  0  0  0  0  0  0  0  0  0  0
   61.3851   29.1459   47.5908 H   0  0  0  0  0  0  0  0  0  0  0  0
   60.3110   27.9340   46.5869 H   0  0  0  0  0  0  0  0  0  0  0  0
   58.3952   28.9436   43.6188 H   0  0  0  0  0  0  0  0  0  0  0  0
   54.5910   26.7470   46.2340 H   0  0  0  0  0  0  0  0  0  0  0  0
   57.6019   31.6011   44.5959 H   0  0  0  0  0  0  0  0  0  0  0  0
   59.1086   33.8295   47.1990 H   0  0  0  0  0  0  0  0  0  0  0  0
   59.9966   34.0055   45.6475 H   0  0  0  0  0  0  0  0  0  0  0  0
   58.2047   33.8793   45.6475 H   0  0  0  0  0  0  0  0  0  0  0  0
   62.5101   32.3986   46.0806 H   0  0  0  0  0  0  0  0  0  0  0  0
   64.2074   33.2328   47.7025 H   0  0  0  0  0  0  0  0  0  0  0  0
   62.6915   34.5181   51.3574 H   0  0  0  0  0  0  0  0  0  0  0  0
   63.3936   33.2310   52.3973 H   0  0  0  0  0  0  0  0  0  0  0  0
   64.8314   35.6824   51.2501 H   0  0  0  0  0  0  0  0  0  0  0  0
   64.4534   35.3360   52.9821 H   0  0  0  0  0  0  0  0  0  0  0  0
   66.4075   34.5442   50.1695 H   0  0  0  0  0  0  0  0  0  0  0  0
   67.3503   33.2442   50.9963 H   0  0  0  0  0  0  0  0  0  0  0  0
   65.6468   32.3848   49.3326 H   0  0  0  0  0  0  0  0  0  0  0  0
   65.4259   31.7648   51.0056 H   0  0  0  0  0  0  0  0  0  0  0  0
   61.6241   32.0951   50.9881 H   0  0  0  0  0  0  0  0  0  0  0  0
  1  2  2  0
  2  3  1  0
  3  4  2  3
  4  5  1  0
  5  6  2  0
  6  7  1  0
  6  8  1  0
  8  9  1  0
  9 10  2  0
  9 11  1  0
 11 12  1  0
 12 13  2  0
  3 14  1  0
 14 15  2  0
 15 16  1  0
 15 17  1  0
 17 18  1  0
 18 19  2  0
 19 20  1  0
 20 21  2  0
 21 22  1  0
 22 23  1  0
 23 24  1  0
 24 25  1  0
 25 26  1  0
 26 27  1  0
 21 28  1  0
 28 29  2  0
 29 30  1  0
 17  2  1  0
 29 18  1  0
 12  5  1  0
 27 22  1  0
  1 31  1  0
  1 32  1  0
  4 33  1  0
  8 34  1  0
 14 35  1  0
 16 36  1  0
 16 37  1  0
 16 38  1  0
 19 39  1  0
 20 40  1  0
 23 41  1  0
 23 42  1  0
 24 43  1  0
 24 44  1  0
 26 45  1  0
 26 46  1  0
 27 47  1  0
 27 48  1  0
 28 49  1  0
M  CHG  2   7  -1  11  -1
M  END
>  <UniqueID>  (16) 
14

>  <SMILES>  (16) 
C=c1c(=Cc2c([O-])[nH]c(=O)[n-]c2=O)cc(C)n1-c1ccc(N2CCOCC2)cc1F

>  <Energy>  (16) 
106.98682572731174

>  <Genealogy>  (16) 
C=c1c(=Cc2c([O-])[nH]c(=O)[n-]c2=O)cc(C)n1-c1ccc(N2CCOCC2)cc1F (protonated)
C=c1c(=Cc2c([O-])[nH]c(=O)[n-]c2=O)cc(C)n1-c1ccc(N2CCOCC2)cc1F (3D coordinates assigned)
C=c1c(=Cc2c([O-])[nH]c(=O)[n-]c2=O)cc(C)n1-c1ccc(N2CCOCC2)cc1F (nonaromatic ring conformer: 106.98682572731174 kcal/mol)

>  <smiles>  (16) 
C=c1c(=Cc2c(O)[nH]c(=O)[nH]c2=O)cc(C)n1-c1ccc(N2CCOCC2)cc1F

>  <score_type>  (16) 
oracle

>  <origin>  (16) 
adg

>  <m_score__min__energy>  (16) 
-13.390000000000001

>  <m_primary>  (16) 
energy

$$$$
16:0
     RDKit          3D

 62 65  0  0  0  0  0  0  0  0999 V2000
   54.7650   29.3360   44.4730 N   0  0  0  0  0  0  0  0  0  0  0  0
   56.0780   29.6790   44.0310 C   0  0  0  0  0  0  0  0  0  0  0  0
   56.2140   30.3810   42.9940 O   0  0  0  0  0  0  0  0  0  0  0  0
   57.2660   29.1880   44.7750 C   0  0  0  0  0  0  0  0  0  0  0  0
   57.2360   27.8870   45.3090 C   0  0  0  0  0  0  0  0  0  0  0  0
   58.3580   27.3480   45.9620 C   0  0  0  0  0  0  0  0  0  0  0  0
   58.3540   26.0080   46.4720 N   0  0  0  0  0  0  0  0  0  0  0  0
   58.2990   24.8040   45.6950 C   0  0  0  0  0  0  0  0  0  0  0  0
   59.3390   24.1000   45.5900 O   0  0  0  0  0  0  0  0  0  0  0  0
   57.0280   24.3520   45.0260 C   0  0  0  0  0  0  0  0  0  0  0  0
   56.6980   22.9830   45.4160 N   0  0  0  0  0  0  0  0  0  0  0  0
   56.4200   21.8920   44.5390 C   0  0  0  0  0  0  0  0  0  0  0  0
   56.1600   22.0100   43.3110 O   0  0  0  0  0  0  0  0  0  0  0  0
   56.5080   20.6480   45.2790 C   0  0  0  0  0  0  0  0  0  0  0  0
   56.2770   19.4960   44.8270 O   0  0  0  0  0  0  0  0  0  0  0  0
   56.8980   20.9280   46.6200 N   0  0  0  0  0  0  0  0  0  0  0  0
   56.8460   20.0100   47.7540 C   0  0  0  0  0  0  0  0  0  0  0  0
   56.2500   20.7120   48.9770 C   0  0  0  0  0  0  0  0  0  0  0  0
   57.3130   20.9560   50.0150 C   0  0  0  0  0  0  0  0  0  0  0  0
   58.3290   20.0090   50.2270 C   0  0  0  0  0  0  0  0  0  0  0  0
   59.3330   20.2540   51.1690 C   0  0  0  0  0  0  0  0  0  0  0  0
   59.3370   21.4460   51.8960 C   0  0  0  0  0  0  0  0  0  0  0  0
   58.3400   22.4000   51.6790 C   0  0  0  0  0  0  0  0  0  0  0  0
   57.3310   22.1600   50.7400 C   0  0  0  0  0  0  0  0  0  0  0  0
   56.9920   22.3560   46.6690 C   0  0  0  0  0  0  0  0  0  0  0  0
   57.3060   22.9960   47.7080 O   0  0  0  0  0  0  0  0  0  0  0  0
   59.5330   28.0970   46.0400 C   0  0  0  0  0  0  0  0  0  0  0  0
   59.5760   29.3950   45.5320 C   0  0  0  0  0  0  0  0  0  0  0  0
   58.4480   29.9640   44.9210 C   0  0  0  0  0  0  0  0  0  0  0  0
   58.5350   31.3700   44.4710 C   0  0  0  0  0  0  0  0  0  0  0  0
   58.7300   31.6040   43.2480 O   0  0  0  0  0  0  0  0  0  0  0  0
   58.4410   32.4630   45.4080 N   0  0  0  0  0  0  0  0  0  0  0  0
   58.8640   32.2710   46.8050 C   0  0  0  0  0  0  0  0  0  0  0  0
   58.9380   33.6040   47.5610 C   0  0  0  0  0  0  0  0  0  0  0  0
   59.6600   34.6590   46.7140 C   0  0  0  0  0  0  0  0  0  0  0  0
   59.0040   34.8700   45.3310 C   0  0  0  0  0  0  0  0  0  0  0  0
   57.9780   33.7860   44.9640 C   0  0  0  0  0  0  0  0  0  0  0  0
   54.5170   29.3560   45.4860 H   0  0  0  0  0  0  0  0  0  0  0  0
   56.3216   27.2829   45.2142 H   0  0  0  0  0  0  0  0  0  0  0  0
   56.2062   25.0202   45.3230 H   0  0  0  0  0  0  0  0  0  0  0  0
   57.1711   24.3845   43.9358 H   0  0  0  0  0  0  0  0  0  0  0  0
   56.2206   19.1439   47.4918 H   0  0  0  0  0  0  0  0  0  0  0  0
   57.8670   19.6779   47.9935 H   0  0  0  0  0  0  0  0  0  0  0  0
   55.8188   21.6753   48.6671 H   0  0  0  0  0  0  0  0  0  0  0  0
   55.4698   20.0694   49.4110 H   0  0  0  0  0  0  0  0  0  0  0  0
   58.3347   19.0723   49.6504 H   0  0  0  0  0  0  0  0  0  0  0  0
   60.1215   19.5058   51.3376 H   0  0  0  0  0  0  0  0  0  0  0  0
   60.1254   21.6339   52.6397 H   0  0  0  0  0  0  0  0  0  0  0  0
   58.3482   23.3417   52.2474 H   0  0  0  0  0  0  0  0  0  0  0  0
   56.5499   22.9154   50.5687 H   0  0  0  0  0  0  0  0  0  0  0  0
   60.4298   27.6613   46.5046 H   0  0  0  0  0  0  0  0  0  0  0  0
   60.5045   29.9794   45.6111 H   0  0  0  0  0  0  0  0  0  0  0  0
   58.1406   31.6139   47.3099 H   0  0  0  0  0  0  0  0  0  0  0  0
   59.8678   31.8211   46.8018 H   0  0  0  0  0  0  0  0  0  0  0  0
   57.9184   33.9524   47.7822 H   0  0  0  0  0  0  0  0  0  0  0  0
   59.4970   33.4534   48.4963 H   0  0  0  0  0  0  0  0  0  0  0  0
   59.6475   35.6149   47.2581 H   0  0  0  0  0  0  0  0  0  0  0  0
   60.6854   34.2998   46.5422 H   0  0  0  0  0  0  0  0  0  0  0  0
   58.4942   35.8447   45.3332 H   0  0  0  0  0  0  0  0  0  0  0  0
   59.8080   34.8196   44.5819 H   0  0  0  0  0  0  0  0  0  0  0  0
   57.0192   34.0158   45.4518 H   0  0  0  0  0  0  0  0  0  0  0  0
   57.8549   33.7700   43.8710 H   0  0  0  0  0  0  0  0  0  0  0  0
  1  2  1  0
  2  3  2  0
  2  4  1  0
  4  5  2  0
  5  6  1  0
  6  7  1  0
  7  8  1  0
  8  9  2  0
  8 10  1  0
 10 11  1  0
 11 12  1  0
 12 13  2  0
 12 14  1  0
 14 15  2  0
 14 16  1  0
 16 17  1  0
 17 18  1  0
 18 19  1  0
 19 20  2  0
 20 21  1  0
 21 22  2  0
 22 23  1  0
 23 24  2  0
 16 25  1  0
 25 26  2  0
  6 27  2  0
 27 28  1  0
 28 29  2  0
 29 30  1  0
 30 31  2  0
 30 32  1  0
 32 33  1  0
 33 34  1  0
 34 35  1  0
 35 36  1  0
 36 37  1  0
 29  4  1  0
 37 32  1  0
 25 11  1  0
 24 19  1  0
  1 38  1  0
  5 39  1  0
 10 40  1  0
 10 41  1  0
 17 42  1  0
 17 43  1  0
 18 44  1  0
 18 45  1  0
 20 46  1  0
 21 47  1  0
 22 48  1  0
 23 49  1  0
 24 50  1  0
 27 51  1  0
 28 52  1  0
 33 53  1  0
 33 54  1  0
 34 55  1  0
 34 56  1  0
 35 57  1  0
 35 58  1  0
 36 59  1  0
 36 60  1  0
 37 61  1  0
 37 62  1  0
M  CHG  2   1  -1   7  -1
M  END
>  <UniqueID>  (17) 
15

>  <SMILES>  (17) 
[NH-]C(=O)c1cc([N-]C(=O)CN2C(=O)C(=O)N(CCc3ccccc3)C2=O)ccc1C(=O)N1CCCCC1

>  <Energy>  (17) 
105.4578077585992

>  <Genealogy>  (17) 
[NH-]C(=O)c1cc([N-]C(=O)CN2C(=O)C(=O)N(CCc3ccccc3)C2=O)ccc1C(=O)N1CCCCC1 (protonated)
[NH-]C(=O)c1cc([N-]C(=O)CN2C(=O)C(=O)N(CCc3ccccc3)C2=O)ccc1C(=O)N1CCCCC1 (3D coordinates assigned)
[NH-]C(=O)c1cc([N-]C(=O)CN2C(=O)C(=O)N(CCc3ccccc3)C2=O)ccc1C(=O)N1CCCCC1 (nonaromatic ring conformer: 105.4578077585992 kcal/mol)

>  <smiles>  (17) 
NC(=O)c1cc(NC(=O)CN2C(=O)C(=O)N(CCc3ccccc3)C2=O)ccc1C(=O)N1CCCCC1

>  <score_type>  (17) 
oracle

>  <origin>  (17) 
adg

>  <m_score__min__energy>  (17) 
-13.119999999999999

>  <m_primary>  (17) 
energy

$$$$
17:0
     RDKit          3D

 41 43  0  0  0  0  0  0  0  0999 V2000
   55.1980   28.5950   44.8550 H   0  0  0  0  0  0  0  0  0  0  0  0
   55.2050   29.6390   44.8830 N   0  0  0  0  0  0  0  0  0  0  0  0
   56.6110   30.1580   44.0230 S   0  0  0  0  0  0  0  0  0  0  0  0
   56.2050   30.7370   42.6970 O   0  0  0  0  0  0  0  0  0  0  0  0
   57.5090   28.9780   43.7790 O   0  0  0  0  0  0  0  0  0  0  0  0
   57.4630   31.3750   44.9680 C   0  0  0  0  0  0  0  0  0  0  0  0
   56.9650   32.6820   45.0490 C   0  0  0  0  0  0  0  0  0  0  0  0
   56.0340   32.9479   44.5270 H   0  0  0  0  0  0  0  0  0  0  0  0
   57.6480   33.6480   45.7910 C   0  0  0  0  0  0  0  0  0  0  0  0
   57.2509   34.6717   45.8559 H   0  0  0  0  0  0  0  0  0  0  0  0
   58.8340   33.3180   46.4510 C   0  0  0  0  0  0  0  0  0  0  0  0
   59.3657   34.0834   47.0353 H   0  0  0  0  0  0  0  0  0  0  0  0
   59.3520   32.0140   46.3730 C   0  0  0  0  0  0  0  0  0  0  0  0
   60.6100   31.6670   47.0730 C   0  0  0  0  0  0  0  0  0  0  0  0
   61.4660   32.5620   47.3150 O   0  0  0  0  0  0  0  0  0  0  0  0
   60.8260   30.3510   47.5040 O   0  0  0  0  0  0  0  0  0  0  0  0
   60.1480   29.2330   47.0010 C   0  0  0  0  0  0  0  0  0  0  0  0
   60.6570   28.6090   45.8570 C   0  0  0  0  0  0  0  0  0  0  0  0
   61.5688   29.0010   45.3826 H   0  0  0  0  0  0  0  0  0  0  0  0
   60.0190   27.4940   45.3120 C   0  0  0  0  0  0  0  0  0  0  0  0
   60.4161   27.0290   44.3976 H   0  0  0  0  0  0  0  0  0  0  0  0
   58.8760   26.9640   45.9230 C   0  0  0  0  0  0  0  0  0  0  0  0
   58.2030   25.8050   45.3030 C   0  0  0  0  0  0  0  0  0  0  0  0
   58.4485   25.5646   44.2580 H   0  0  0  0  0  0  0  0  0  0  0  0
   57.3100   25.0260   45.9350 C   0  0  0  0  0  0  0  0  0  0  0  0
   57.6060   23.3190   46.4340 S   0  0  0  0  0  0  0  0  0  0  0  0
   55.8810   23.2390   46.9270 C   0  0  0  0  0  0  0  0  0  0  0  0
   55.3740   22.1950   47.4080 O   0  0  0  0  0  0  0  0  0  0  0  0
   55.1130   24.4210   46.7470 N   0  0  0  0  0  0  0  0  0  0  0  0
   55.9270   25.4310   46.1810 C   0  0  0  0  0  0  0  0  0  0  0  0
   55.4750   26.5770   45.9180 O   0  0  0  0  0  0  0  0  0  0  0  0
   58.3570   27.5890   47.0700 C   0  0  0  0  0  0  0  0  0  0  0  0
   57.4381   27.2001   47.5329 H   0  0  0  0  0  0  0  0  0  0  0  0
   59.0010   28.7080   47.6330 C   0  0  0  0  0  0  0  0  0  0  0  0
   58.5470   29.3010   48.8220 O   0  0  0  0  0  0  0  0  0  0  0  0
   59.3610   29.5510   49.9630 C   0  0  0  0  0  0  0  0  0  0  0  0
   58.7761   29.3714   50.8771 H   0  0  0  0  0  0  0  0  0  0  0  0
   60.2316   28.8788   49.9467 H   0  0  0  0  0  0  0  0  0  0  0  0
   59.7042   30.5960   49.9467 H   0  0  0  0  0  0  0  0  0  0  0  0
   58.6570   31.0460   45.6250 C   0  0  0  0  0  0  0  0  0  0  0  0
   59.0538   30.0224   45.5551 H   0  0  0  0  0  0  0  0  0  0  0  0
  1  2  1  0
  2  3  1  0
  3  4  2  0
  3  5  2  0
  3  6  1  0
  6  7  2  0
  7  8  1  0
  7  9  1  0
  9 10  1  0
  9 11  2  0
 11 12  1  0
 11 13  1  0
 13 14  1  0
 14 15  2  0
 14 16  1  0
 16 17  1  0
 17 18  2  0
 18 19  1  0
 18 20  1  0
 20 21  1  0
 20 22  2  0
 22 23  1  0
 23 24  1  0
 23 25  2  0
 25 26  1  0
 26 27  1  0
 27 28  2  0
 27 29  1  0
 29 30  1  0
 30 31  2  0
 22 32  1  0
 32 33  1  0
 32 34  2  0
 34 35  1  0
 35 36  1  0
 36 37  1  0
 36 38  1  0
 36 39  1  0
 13 40  2  0
 40 41  1  0
 40  6  1  0
 34 17  1  0
 30 25  1  0
M  CHG  2   2  -1  29  -1
M  END
>  <UniqueID>  (18) 
16

>  <SMILES>  (18) 
COc1cc(/C=C2\SC(=O)[N-]C2=O)ccc1OC(=O)c1cccc(S([NH-])(=O)=O)c1

>  <Energy>  (18) 
73.68612939101173

>  <Genealogy>  (18) 
COc1cc(C=C2SC(=O)[N-]C2=O)ccc1OC(=O)c1cccc(S([NH-])(=O)=O)c1 (protonated)
COc1cc(/C=C2\SC(=O)[N-]C2=O)ccc1OC(=O)c1cccc(S([NH-])(=O)=O)c1 (cis-trans isomerization)
COc1cc(/C=C2\SC(=O)[N-]C2=O)ccc1OC(=O)c1cccc(S([NH-])(=O)=O)c1 (3D coordinates assigned)
COc1cc(/C=C2\SC(=O)[N-]C2=O)ccc1OC(=O)c1cccc(S([NH-])(=O)=O)c1 (nonaromatic ring conformer: 73.68612939101173 kcal/mol)

>  <smiles>  (18) 
COc1cc(C=C2SC(=O)NC2=O)ccc1OC(=O)c1cccc(S(N)(=O)=O)c1

>  <score_type>  (18) 
oracle

>  <origin>  (18) 
adg

>  <m_score__min__energy>  (18) 
-13.18

>  <m_primary>  (18) 
energy

$$$$
18:0
     RDKit          3D

 63 67  0  0  0  0  0  0  0  0999 V2000
   55.5560   31.5110   52.3020 C   0  0  0  0  0  0  0  0  0  0  0  0
   54.9660   30.4230   52.8170 C   0  0  0  0  0  0  0  0  0  0  0  0
   53.5900   30.1480   52.8670 C   0  0  0  0  0  0  0  0  0  0  0  0
   52.5200   30.9340   52.6420 C   0  0  0  0  0  0  0  0  0  0  0  0
   51.8360   31.1060   51.3500 C   0  0  0  0  0  0  0  0  0  0  0  0
   51.8790   30.2260   50.3340 N   0  0  0  0  0  0  0  0  0  0  0  0
   51.2290   30.8670   49.3380 C   0  0  0  0  0  0  0  0  0  0  0  0
   51.0450   30.3510   48.2060 O   0  0  0  0  0  0  0  0  0  0  0  0
   50.8020   32.1090   49.6480 N   0  0  0  0  0  0  0  0  0  0  0  0
   51.2070   32.2510   50.9200 C   0  0  0  0  0  0  0  0  0  0  0  0
   51.0200   33.4040   51.6660 O   0  0  0  0  0  0  0  0  0  0  0  0
   53.4770   28.8160   53.2310 C   0  0  0  0  0  0  0  0  0  0  0  0
   54.7550   28.3530   53.4580 C   0  0  0  0  0  0  0  0  0  0  0  0
   55.0950   26.9550   53.8820 C   0  0  0  0  0  0  0  0  0  0  0  0
   55.6570   29.3250   53.2140 N   0  0  0  0  0  0  0  0  0  0  0  0
   57.0840   29.1780   53.2800 C   0  0  0  0  0  0  0  0  0  0  0  0
   57.7020   28.8680   54.4960 C   0  0  0  0  0  0  0  0  0  0  0  0
   59.0870   28.7180   54.5590 C   0  0  0  0  0  0  0  0  0  0  0  0
   59.8650   28.8890   53.4110 C   0  0  0  0  0  0  0  0  0  0  0  0
   59.2610   29.2280   52.1890 C   0  0  0  0  0  0  0  0  0  0  0  0
   60.0900   29.4330   50.9770 C   0  0  0  0  0  0  0  0  0  0  0  0
   61.2040   28.8460   50.8860 O   0  0  0  0  0  0  0  0  0  0  0  0
   59.6500   30.2860   49.9000 N   0  0  0  0  0  0  0  0  0  0  0  0
   58.9530   31.5540   50.1670 C   0  0  0  0  0  0  0  0  0  0  0  0
   59.6840   32.7080   49.4770 C   0  0  0  0  0  0  0  0  0  0  0  0
   59.9770   32.3490   48.0860 N   0  0  0  0  0  0  0  0  0  0  0  0
   59.6000   33.2140   46.9980 C   0  0  0  0  0  0  0  0  0  0  0  0
   60.0000   34.5610   46.9870 C   0  0  0  0  0  0  0  0  0  0  0  0
   59.6380   35.3980   45.9320 C   0  0  0  0  0  0  0  0  0  0  0  0
   58.8770   34.8970   44.8730 C   0  0  0  0  0  0  0  0  0  0  0  0
   58.4770   33.5560   44.8580 C   0  0  0  0  0  0  0  0  0  0  0  0
   57.7310   33.0990   43.7670 O   0  0  0  0  0  0  0  0  0  0  0  0
   57.7700   31.7650   43.2750 C   0  0  0  0  0  0  0  0  0  0  0  0
   58.8410   32.7180   45.9290 C   0  0  0  0  0  0  0  0  0  0  0  0
   60.6980   31.0920   47.8430 C   0  0  0  0  0  0  0  0  0  0  0  0
   59.9470   29.9400   48.5060 C   0  0  0  0  0  0  0  0  0  0  0  0
   57.8630   29.3520   52.1290 C   0  0  0  0  0  0  0  0  0  0  0  0
   56.6517   31.6056   52.3255 H   0  0  0  0  0  0  0  0  0  0  0  0
   54.9445   32.3092   51.8559 H   0  0  0  0  0  0  0  0  0  0  0  0
   52.1221   31.4971   53.4991 H   0  0  0  0  0  0  0  0  0  0  0  0
   52.5452   28.2384   53.3215 H   0  0  0  0  0  0  0  0  0  0  0  0
   55.1088   26.8981   54.9804 H   0  0  0  0  0  0  0  0  0  0  0  0
   54.3401   26.2586   53.4883 H   0  0  0  0  0  0  0  0  0  0  0  0
   56.0855   26.6831   53.4883 H   0  0  0  0  0  0  0  0  0  0  0  0
   57.0943   28.7423   55.4043 H   0  0  0  0  0  0  0  0  0  0  0  0
   59.5683   28.4644   55.5150 H   0  0  0  0  0  0  0  0  0  0  0  0
   60.9558   28.7575   53.4645 H   0  0  0  0  0  0  0  0  0  0  0  0
   57.9243   31.4924   49.7822 H   0  0  0  0  0  0  0  0  0  0  0  0
   58.9351   31.7349   51.2519 H   0  0  0  0  0  0  0  0  0  0  0  0
   59.0492   33.6061   49.4964 H   0  0  0  0  0  0  0  0  0  0  0  0
   60.6269   32.9092   50.0066 H   0  0  0  0  0  0  0  0  0  0  0  0
   60.6032   34.9582   47.8167 H   0  0  0  0  0  0  0  0  0  0  0  0
   59.9516   36.4524   45.9337 H   0  0  0  0  0  0  0  0  0  0  0  0
   58.5900   35.5615   44.0447 H   0  0  0  0  0  0  0  0  0  0  0  0
   57.7905   31.0625   44.1212 H   0  0  0  0  0  0  0  0  0  0  0  0
   56.8771   31.5742   42.6616 H   0  0  0  0  0  0  0  0  0  0  0  0
   58.6726   31.6266   42.6616 H   0  0  0  0  0  0  0  0  0  0  0  0
   58.5268   31.6638   45.9270 H   0  0  0  0  0  0  0  0  0  0  0  0
   60.7654   30.9111   46.7601 H   0  0  0  0  0  0  0  0  0  0  0  0
   61.7110   31.1619   48.2661 H   0  0  0  0  0  0  0  0  0  0  0  0
   59.0066   29.7566   47.9657 H   0  0  0  0  0  0  0  0  0  0  0  0
   60.5694   29.0334   48.4785 H   0  0  0  0  0  0  0  0  0  0  0  0
   57.3765   29.5875   51.1710 H   0  0  0  0  0  0  0  0  0  0  0  0
  1  2  2  0
  2  3  1  0
  3  4  2  3
  4  5  1  0
  5  6  1  0
  6  7  1  0
  7  8  2  0
  7  9  1  0
  9 10  1  0
 10 11  1  0
  3 12  1  0
 12 13  2  0
 13 14  1  0
 13 15  1  0
 15 16  1  0
 16 17  2  0
 17 18  1  0
 18 19  2  0
 19 20  1  0
 20 21  1  0
 21 22  2  0
 21 23  1  0
 23 24  1  0
 24 25  1  0
 25 26  1  0
 26 27  1  0
 27 28  2  0
 28 29  1  0
 29 30  2  0
 30 31  1  0
 31 32  1  0
 32 33  1  0
 31 34  2  0
 26 35  1  0
 35 36  1  0
 20 37  2  0
 15  2  1  0
 37 16  1  0
 10  5  2  0
 36 23  1  0
 34 27  1  0
  1 38  1  0
  1 39  1  0
  4 40  1  0
 12 41  1  0
 14 42  1  0
 14 43  1  0
 14 44  1  0
 17 45  1  0
 18 46  1  0
 19 47  1  0
 24 48  1  0
 24 49  1  0
 25 50  1  0
 25 51  1  0
 28 52  1  0
 29 53  1  0
 30 54  1  0
 33 55  1  0
 33 56  1  0
 33 57  1  0
 34 58  1  0
 35 59  1  0
 35 60  1  0
 36 61  1  0
 36 62  1  0
 37 63  1  0
M  CHG  3   6  -1   9  -1  11  -1
M  END
>  <UniqueID>  (19) 
17

>  <SMILES>  (19) 
C=c1c(=Cc2[n-]c(=O)[n-]c2[O-])cc(C)n1-c1cccc(C(=O)N2CCN(c3cccc(OC)c3)CC2)c1

>  <Energy>  (19) 
150.5283148708139

>  <Genealogy>  (19) 
C=c1c(=Cc2[n-]c(=O)[n-]c2[O-])cc(C)n1-c1cccc(C(=O)N2CCN(c3cccc(OC)c3)CC2)c1 (protonated)
C=c1c(=Cc2[n-]c(=O)[n-]c2[O-])cc(C)n1-c1cccc(C(=O)N2CCN(c3cccc(OC)c3)CC2)c1 (3D coordinates assigned)
C=c1c(=Cc2[n-]c(=O)[n-]c2[O-])cc(C)n1-c1cccc(C(=O)N2CCN(c3cccc(OC)c3)CC2)c1 (nonaromatic ring conformer: 150.5283148708139 kcal/mol)

>  <smiles>  (19) 
C=c1c(=Cc2[nH]c(=O)[nH]c2O)cc(C)n1-c1cccc(C(=O)N2CCN(c3cccc(OC)c3)CC2)c1

>  <score_type>  (19) 
oracle

>  <origin>  (19) 
adg

>  <m_score__min__energy>  (19) 
-18.670000000000002

>  <m_primary>  (19) 
energy

$$$$
19:0
     RDKit          3D

 39 41  0  0  0  0  0  0  0  0999 V2000
   60.5640   29.0370   46.5390 O   0  0  0  0  0  0  0  0  0  0  0  0
   59.3460   29.2270   46.8000 C   0  0  0  0  0  0  0  0  0  0  0  0
   58.3620   28.7420   45.8750 N   0  0  0  0  0  0  0  0  0  0  0  0
   57.7310   29.4110   44.9490 C   0  0  0  0  0  0  0  0  0  0  0  0
   58.4150   30.3950   44.3010 N   0  0  0  0  0  0  0  0  0  0  0  0
   57.8600   31.1450   43.3130 C   0  0  0  0  0  0  0  0  0  0  0  0
   56.5400   30.9230   42.9260 C   0  0  0  0  0  0  0  0  0  0  0  0
   55.7970   29.9390   43.5760 C   0  0  0  0  0  0  0  0  0  0  0  0
   56.3740   29.1830   44.6000 C   0  0  0  0  0  0  0  0  0  0  0  0
   55.5810   28.2520   45.2620 O   0  0  0  0  0  0  0  0  0  0  0  0
   58.9530   29.8670   48.0810 C   0  0  0  0  0  0  0  0  0  0  0  0
   58.9360   31.2680   48.1970 C   0  0  0  0  0  0  0  0  0  0  0  0
   58.5530   31.8770   49.3960 C   0  0  0  0  0  0  0  0  0  0  0  0
   58.1890   31.0950   50.5020 C   0  0  0  0  0  0  0  0  0  0  0  0
   57.7430   31.7420   51.7860 C   0  0  0  0  0  0  0  0  0  0  0  0
   56.2830   31.7970   51.8420 N   0  0  0  0  0  0  0  0  0  0  0  0
   55.4820   30.6450   52.1480 C   0  0  0  0  0  0  0  0  0  0  0  0
   56.0350   29.5210   52.3000 O   0  0  0  0  0  0  0  0  0  0  0  0
   54.0140   30.7660   52.2870 C   0  0  0  0  0  0  0  0  0  0  0  0
   53.3020   29.9490   53.1780 C   0  0  0  0  0  0  0  0  0  0  0  0
   51.9180   30.1090   53.2710 C   0  0  0  0  0  0  0  0  0  0  0  0
   51.2490   29.3910   54.0600 O   0  0  0  0  0  0  0  0  0  0  0  0
   51.2900   31.0420   52.5100 N   0  0  0  0  0  0  0  0  0  0  0  0
   51.9920   31.8270   51.6520 C   0  0  0  0  0  0  0  0  0  0  0  0
   51.3930   32.6860   50.9540 O   0  0  0  0  0  0  0  0  0  0  0  0
   53.3380   31.6860   51.5470 N   0  0  0  0  0  0  0  0  0  0  0  0
   58.2100   29.6970   50.3920 C   0  0  0  0  0  0  0  0  0  0  0  0
   58.5930   29.0880   49.1940 C   0  0  0  0  0  0  0  0  0  0  0  0
   58.4534   31.9281   42.8183 H   0  0  0  0  0  0  0  0  0  0  0  0
   56.0897   31.5172   42.1172 H   0  0  0  0  0  0  0  0  0  0  0  0
   54.7528   29.7569   43.2819 H   0  0  0  0  0  0  0  0  0  0  0  0
   59.2264   31.8901   47.3375 H   0  0  0  0  0  0  0  0  0  0  0  0
   58.5371   32.9742   49.4722 H   0  0  0  0  0  0  0  0  0  0  0  0
   58.1176   31.1555   52.6379 H   0  0  0  0  0  0  0  0  0  0  0  0
   58.1431   32.7657   51.8305 H   0  0  0  0  0  0  0  0  0  0  0  0
   55.8220   32.7160   51.6540 H   0  0  0  0  0  0  0  0  0  0  0  0
   53.8230   29.1983   53.7904 H   0  0  0  0  0  0  0  0  0  0  0  0
   57.9233   29.0763   51.2537 H   0  0  0  0  0  0  0  0  0  0  0  0
   58.6129   27.9906   49.1216 H   0  0  0  0  0  0  0  0  0  0  0  0
  1  2  2  0
  2  3  1  0
  3  4  2  3
  4  5  1  0
  5  6  1  0
  6  7  2  0
  7  8  1  0
  8  9  2  0
  9 10  1  0
  2 11  1  0
 11 12  2  0
 12 13  1  0
 13 14  2  0
 14 15  1  0
 15 16  1  0
 16 17  1  0
 17 18  2  0
 17 19  1  0
 19 20  2  0
 20 21  1  0
 21 22  2  0
 21 23  1  0
 23 24  1  0
 24 25  2  0
 24 26  1  0
 14 27  1  0
 27 28  2  0
  9  4  1  0
 28 11  1  0
 26 19  1  0
  6 29  1  0
  7 30  1  0
  8 31  1  0
 12 32  1  0
 13 33  1  0
 15 34  1  0
 15 35  1  0
 16 36  1  0
 20 37  1  0
 27 38  1  0
 28 39  1  0
M  CHG  4   5  -1  10  -1  23  -1  26  -1
M  END
>  <UniqueID>  (20) 
18

>  <SMILES>  (20) 
O=C(N=c1[n-]cccc1[O-])c1ccc(CNC(=O)c2cc(=O)[n-]c(=O)[n-]2)cc1

>  <Energy>  (20) 
55.50920525663248

>  <Genealogy>  (20) 
O=C(N=c1[n-]cccc1[O-])c1ccc(CNC(=O)c2cc(=O)[n-]c(=O)[n-]2)cc1 (protonated)
O=C(N=c1[n-]cccc1[O-])c1ccc(CNC(=O)c2cc(=O)[n-]c(=O)[n-]2)cc1 (3D coordinates assigned)
O=C(N=c1[n-]cccc1[O-])c1ccc(CNC(=O)c2cc(=O)[n-]c(=O)[n-]2)cc1 (optimized conformer: 55.50920525663248 kcal/mol)

>  <smiles>  (20) 
O=C(N=c1[nH]cccc1O)c1ccc(CNC(=O)c2cc(=O)[nH]c(=O)[nH]2)cc1

>  <score_type>  (20) 
oracle

>  <origin>  (20) 
adg

>  <m_score__min__energy>  (20) 
-15.380000000000001

>  <m_primary>  (20) 
energy

$$$$
20:0
     RDKit          3D

 53 55  0  0  0  0  0  0  0  0999 V2000
   60.0382   35.4853   45.8443 H   0  0  0  0  0  0  0  0  0  0  0  0
   59.4130   34.6530   46.2000 C   0  0  0  0  0  0  0  0  0  0  0  0
   58.4640   34.0810   45.3470 C   0  0  0  0  0  0  0  0  0  0  0  0
   58.3578   34.4488   44.3158 H   0  0  0  0  0  0  0  0  0  0  0  0
   57.6440   33.0330   45.8100 C   0  0  0  0  0  0  0  0  0  0  0  0
   56.6780   32.3990   44.9620 N   0  0  0  0  0  0  0  0  0  0  0  0
   56.8520   30.7990   44.3130 S   0  0  0  0  0  0  0  0  0  0  0  0
   55.5080   30.1300   44.2740 O   0  0  0  0  0  0  0  0  0  0  0  0
   57.3960   30.8630   42.9140 O   0  0  0  0  0  0  0  0  0  0  0  0
   57.9120   29.8720   45.3690 C   0  0  0  0  0  0  0  0  0  0  0  0
   59.2510   30.2460   45.5520 C   0  0  0  0  0  0  0  0  0  0  0  0
   59.6621   31.1021   44.9969 H   0  0  0  0  0  0  0  0  0  0  0  0
   60.0660   29.5330   46.4390 C   0  0  0  0  0  0  0  0  0  0  0  0
   61.1148   29.8338   46.5790 H   0  0  0  0  0  0  0  0  0  0  0  0
   59.5530   28.4340   47.1530 C   0  0  0  0  0  0  0  0  0  0  0  0
   60.4090   27.6940   48.1070 C   0  0  0  0  0  0  0  0  0  0  0  0
   60.7720   28.2300   49.1890 O   0  0  0  0  0  0  0  0  0  0  0  0
   60.8340   26.3990   47.8170 O   0  0  0  0  0  0  0  0  0  0  0  0
   58.2110   28.0600   46.9590 C   0  0  0  0  0  0  0  0  0  0  0  0
   57.8006   27.1960   47.5023 H   0  0  0  0  0  0  0  0  0  0  0  0
   57.3940   28.7800   46.0790 C   0  0  0  0  0  0  0  0  0  0  0  0
   56.3421   28.4878   45.9443 H   0  0  0  0  0  0  0  0  0  0  0  0
   57.7880   32.5700   47.1300 C   0  0  0  0  0  0  0  0  0  0  0  0
   57.1258   31.7771   47.5078 H   0  0  0  0  0  0  0  0  0  0  0  0
   58.7720   33.1150   47.9660 C   0  0  0  0  0  0  0  0  0  0  0  0
   59.0980   32.3640   49.5210 S   0  0  0  0  0  0  0  0  0  0  0  0
   59.7740   33.3340   50.4410 O   0  0  0  0  0  0  0  0  0  0  0  0
   57.8160   31.9300   50.1480 O   0  0  0  0  0  0  0  0  0  0  0  0
   60.1220   30.9950   49.2930 N   0  0  0  0  0  0  0  0  0  0  0  0
   59.7410   30.1460   48.8030 H   0  0  0  0  0  0  0  0  0  0  0  0
   61.5060   31.0440   49.6620 C   0  0  0  0  0  0  0  0  0  0  0  0
   62.3990   31.9180   48.9560 N   0  0  0  0  0  0  0  0  0  0  0  0
   63.0420   33.0220   49.6710 C   0  0  0  0  0  0  0  0  0  0  0  0
   62.3593   33.8840   49.7003 H   0  0  0  0  0  0  0  0  0  0  0  0
   63.2792   32.6996   50.6956 H   0  0  0  0  0  0  0  0  0  0  0  0
   64.3370   33.4240   48.9570 C   0  0  0  0  0  0  0  0  0  0  0  0
   64.7363   34.3383   49.4203 H   0  0  0  0  0  0  0  0  0  0  0  0
   65.0624   32.6022   49.0494 H   0  0  0  0  0  0  0  0  0  0  0  0
   64.0950   33.6660   47.5850 O   0  0  0  0  0  0  0  0  0  0  0  0
   63.7260   32.4580   46.9510 C   0  0  0  0  0  0  0  0  0  0  0  0
   63.6351   32.6343   45.8690 H   0  0  0  0  0  0  0  0  0  0  0  0
   64.5012   31.7057   47.1587 H   0  0  0  0  0  0  0  0  0  0  0  0
   62.3880   31.9350   47.4860 C   0  0  0  0  0  0  0  0  0  0  0  0
   61.5763   32.5900   47.1366 H   0  0  0  0  0  0  0  0  0  0  0  0
   62.2304   30.9108   47.1170 H   0  0  0  0  0  0  0  0  0  0  0  0
   61.9750   30.2570   50.5910 N   0  0  0  0  0  0  0  0  0  0  0  0
   62.0540   29.2220   50.4030 H   0  0  0  0  0  0  0  0  0  0  0  0
   62.3830   30.7460   51.9080 C   0  0  0  0  0  0  0  0  0  0  0  0
   61.8871   30.1517   52.6896 H   0  0  0  0  0  0  0  0  0  0  0  0
   63.4740   30.6516   52.0124 H   0  0  0  0  0  0  0  0  0  0  0  0
   62.0947   31.8024   52.0124 H   0  0  0  0  0  0  0  0  0  0  0  0
   59.5710   34.1700   47.5070 C   0  0  0  0  0  0  0  0  0  0  0  0
   60.3228   34.6199   48.1721 H   0  0  0  0  0  0  0  0  0  0  0  0
  1  2  1  0
  2  3  2  0
  3  4  1  0
  3  5  1  0
  5  6  1  0
  6  7  1  0
  7  8  2  0
  7  9  2  0
  7 10  1  0
 10 11  2  0
 11 12  1  0
 11 13  1  0
 13 14  1  0
 13 15  2  0
 15 16  1  0
 16 17  2  0
 16 18  1  0
 15 19  1  0
 19 20  1  0
 19 21  2  0
 21 22  1  0
  5 23  2  0
 23 24  1  0
 23 25  1  0
 25 26  1  0
 26 27  2  0
 26 28  2  0
 26 29  1  0
 29 30  1  0
 29 31  1  0
 31 32  1  0
 32 33  1  0
 33 34  1  0
 33 35  1  0
 33 36  1  0
 36 37  1  0
 36 38  1  0
 36 39  1  0
 39 40  1  0
 40 41  1  0
 40 42  1  0
 40 43  1  0
 43 44  1  0
 43 45  1  0
 31 46  2  0
 46 47  1  0
 46 48  1  0
 48 49  1  0
 48 50  1  0
 48 51  1  0
 25 52  2  0
 52 53  1  0
 52  2  1  0
 21 10  1  0
 43 32  1  0
M  CHG  3   6  -1  18  -1  46   1
M  END
>  <UniqueID>  (21) 
19

>  <SMILES>  (21) 
C/[NH+]=C(\NS(=O)(=O)c1cccc([N-]S(=O)(=O)c2ccc(C(=O)[O-])cc2)c1)N1CCOCC1

>  <Energy>  (21) 
65.8131594055997

>  <Genealogy>  (21) 
C[NH+]=C(NS(=O)(=O)c1cccc([N-]S(=O)(=O)c2ccc(C(=O)[O-])cc2)c1)N1CCOCC1 (protonated)
C/[NH+]=C(\NS(=O)(=O)c1cccc([N-]S(=O)(=O)c2ccc(C(=O)[O-])cc2)c1)N1CCOCC1 (cis-trans isomerization)
C/[NH+]=C(\NS(=O)(=O)c1cccc([N-]S(=O)(=O)c2ccc(C(=O)[O-])cc2)c1)N1CCOCC1 (3D coordinates assigned)
C/[NH+]=C(\NS(=O)(=O)c1cccc([N-]S(=O)(=O)c2ccc(C(=O)[O-])cc2)c1)N1CCOCC1 (nonaromatic ring conformer: 65.8131594055997 kcal/mol)

>  <smiles>  (21) 
CN=C(NS(=O)(=O)c1cccc(NS(=O)(=O)c2ccc(C(=O)O)cc2)c1)N1CCOCC1

>  <score_type>  (21) 
oracle

>  <origin>  (21) 
adg

>  <m_score__min__energy>  (21) 
-11.94

>  <m_primary>  (21) 
energy

$$$$
21:0
     RDKit          3D

 52 54  0  0  0  0  0  0  0  0999 V2000
   56.6240   30.0820   46.3260 H   0  0  0  0  0  0  0  0  0  0  0  0
   57.5360   30.5170   46.4010 O   0  0  0  0  0  0  0  0  0  0  0  0
   57.7810   31.7950   45.9010 C   0  0  0  0  0  0  0  0  0  0  0  0
   57.7550   32.9020   46.7610 C   0  0  0  0  0  0  0  0  0  0  0  0
   57.5350   32.7600   47.8294 H   0  0  0  0  0  0  0  0  0  0  0  0
   58.0070   34.1840   46.2680 C   0  0  0  0  0  0  0  0  0  0  0  0
   57.9754   35.0498   46.9458 H   0  0  0  0  0  0  0  0  0  0  0  0
   58.2990   34.3670   44.9150 C   0  0  0  0  0  0  0  0  0  0  0  0
   58.5048   35.3762   44.5288 H   0  0  0  0  0  0  0  0  0  0  0  0
   58.3300   33.2690   44.0510 C   0  0  0  0  0  0  0  0  0  0  0  0
   58.5780   33.4154   42.9894 H   0  0  0  0  0  0  0  0  0  0  0  0
   58.0460   31.9780   44.5310 C   0  0  0  0  0  0  0  0  0  0  0  0
   58.1180   30.8060   43.6320 C   0  0  0  0  0  0  0  0  0  0  0  0
   59.0525   30.6584   43.0708 H   0  0  0  0  0  0  0  0  0  0  0  0
   57.1390   29.9070   43.4430 C   0  0  0  0  0  0  0  0  0  0  0  0
   57.1152   29.3822   42.4766 H   0  0  0  0  0  0  0  0  0  0  0  0
   56.0860   29.5630   44.4310 C   0  0  0  0  0  0  0  0  0  0  0  0
   55.1310   30.3550   44.6420 O   0  0  0  0  0  0  0  0  0  0  0  0
   56.1410   28.3510   45.1970 N   0  0  0  0  0  0  0  0  0  0  0  0
   57.3480   27.5970   45.5290 C   0  0  1  0  0  0  0  0  0  0  0  0
   58.2457   28.1128   45.1575 H   0  0  0  0  0  0  0  0  0  0  0  0
   57.4780   27.4910   47.0710 C   0  0  0  0  0  0  0  0  0  0  0  0
   57.9475   28.4119   47.4472 H   0  0  0  0  0  0  0  0  0  0  0  0
   56.4656   27.3503   47.4775 H   0  0  0  0  0  0  0  0  0  0  0  0
   58.2920   26.3370   47.5040 N   0  0  0  0  0  0  0  0  0  0  0  0
   59.7450   26.5710   47.6940 C   0  0  0  0  0  0  0  0  0  0  0  0
   60.2921   25.9661   46.9559 H   0  0  0  0  0  0  0  0  0  0  0  0
   59.9796   26.2888   48.7310 H   0  0  0  0  0  0  0  0  0  0  0  0
   60.1650   28.0220   47.5280 C   0  0  0  0  0  0  0  0  0  0  0  0
   60.3790   28.5450   46.2340 C   0  0  0  0  0  0  0  0  0  0  0  0
   60.1690   27.7840   45.1290 F   0  0  0  0  0  0  0  0  0  0  0  0
   60.8130   29.8610   46.0660 C   0  0  0  0  0  0  0  0  0  0  0  0
   60.9913   30.2549   45.0545 H   0  0  0  0  0  0  0  0  0  0  0  0
   61.0210   30.6770   47.1760 C   0  0  0  0  0  0  0  0  0  0  0  0
   61.3785   31.7083   47.0398 H   0  0  0  0  0  0  0  0  0  0  0  0
   60.7770   30.1890   48.4590 C   0  0  0  0  0  0  0  0  0  0  0  0
   60.9316   30.8432   49.3297 H   0  0  0  0  0  0  0  0  0  0  0  0
   60.3340   28.8650   48.6500 C   0  0  0  0  0  0  0  0  0  0  0  0
   60.0460   28.3680   49.9300 O   0  0  0  0  0  0  0  0  0  0  0  0
   61.0140   28.1410   50.9500 C   0  0  0  0  0  0  0  0  0  0  0  0
   60.5401   28.2521   51.9365 H   0  0  0  0  0  0  0  0  0  0  0  0
   61.4196   27.1234   50.8506 H   0  0  0  0  0  0  0  0  0  0  0  0
   61.8298   28.8722   50.8506 H   0  0  0  0  0  0  0  0  0  0  0  0
   57.8990   25.0140   46.9640 C   0  0  0  0  0  0  0  0  0  0  0  0
   58.8022   24.5034   46.5986 H   0  0  0  0  0  0  0  0  0  0  0  0
   57.4121   24.4599   47.7800 H   0  0  0  0  0  0  0  0  0  0  0  0
   56.8900   25.1060   45.8100 C   0  0  0  0  0  0  0  0  0  0  0  0
   56.8650   24.1466   45.2725 H   0  0  0  0  0  0  0  0  0  0  0  0
   55.8956   25.3334   46.2215 H   0  0  0  0  0  0  0  0  0  0  0  0
   57.2920   26.2150   44.8420 C   0  0  0  0  0  0  0  0  0  0  0  0
   58.2856   25.9833   44.4307 H   0  0  0  0  0  0  0  0  0  0  0  0
   56.5316   26.2628   44.0486 H   0  0  0  0  0  0  0  0  0  0  0  0
  1  2  1  0
  2  3  1  0
  3  4  2  0
  4  5  1  0
  4  6  1  0
  6  7  1  0
  6  8  2  0
  8  9  1  0
  8 10  1  0
 10 11  1  0
 10 12  2  0
 12 13  1  0
 13 14  1  0
 13 15  2  0
 15 16  1  0
 15 17  1  0
 17 18  2  0
 17 19  1  0
 19 20  1  0
 20 21  1  6
 20 22  1  0
 22 23  1  0
 22 24  1  0
 22 25  1  0
 25 26  1  0
 26 27  1  0
 26 28  1  0
 26 29  1  0
 29 30  2  0
 30 31  1  0
 30 32  1  0
 32 33  1  0
 32 34  2  0
 34 35  1  0
 34 36  1  0
 36 37  1  0
 36 38  2  0
 38 39  1  0
 39 40  1  0
 40 41  1  0
 40 42  1  0
 40 43  1  0
 25 44  1  0
 44 45  1  0
 44 46  1  0
 44 47  1  0
 47 48  1  0
 47 49  1  0
 47 50  1  0
 50 51  1  0
 50 52  1  0
 12  3  1  0
 50 20  1  0
 38 29  1  0
M  CHG  1  19  -1
M  END
>  <UniqueID>  (22) 
20

>  <SMILES>  (22) 
COc1cccc(F)c1CN1CCC[C@@H]([N-]C(=O)/C=C\c2ccccc2O)C1

>  <Energy>  (22) 
74.15646841267461

>  <Genealogy>  (22) 
COc1cccc(F)c1CN1CCCC([N-]C(=O)C=Cc2ccccc2O)C1 (protonated)
COc1cccc(F)c1CN1CCC[C@@H]([N-]C(=O)C=Cc2ccccc2O)C1 (chirality)
COc1cccc(F)c1CN1CCC[C@@H]([N-]C(=O)/C=C\c2ccccc2O)C1 (cis-trans isomerization)
COc1cccc(F)c1CN1CCC[C@@H]([N-]C(=O)/C=C\c2ccccc2O)C1 (3D coordinates assigned)
COc1cccc(F)c1CN1CCC[C@@H]([N-]C(=O)/C=C\c2ccccc2O)C1 (nonaromatic ring conformer: 74.15646841267461 kcal/mol)

>  <smiles>  (22) 
COc1cccc(F)c1CN1CCCC(NC(=O)C=Cc2ccccc2O)C1

>  <score_type>  (22) 
oracle

>  <origin>  (22) 
adg

>  <m_score__min__energy>  (22) 
-11.380000000000001

>  <m_primary>  (22) 
energy

$$$$
22:0
     RDKit          3D

 47 49  0  0  0  0  0  0  0  0999 V2000
   62.4320   33.9810   48.4250 C   0  0  0  0  0  0  0  0  0  0  0  0
   61.1220   33.8620   47.6910 C   0  0  0  0  0  0  0  0  0  0  0  0
   61.1250   33.4610   46.3450 C   0  0  0  0  0  0  0  0  0  0  0  0
   59.9300   33.3440   45.6340 C   0  0  0  0  0  0  0  0  0  0  0  0
   58.7060   33.6130   46.2580 C   0  0  0  0  0  0  0  0  0  0  0  0
   57.4250   33.5340   45.4790 C   0  0  0  0  0  0  0  0  0  0  0  0
   57.7680   32.8820   43.8120 S   0  0  0  0  0  0  0  0  0  0  0  0
   57.5720   31.1730   44.3140 C   0  0  0  0  0  0  0  0  0  0  0  0
   58.6960   30.3680   44.5300 C   0  0  0  0  0  0  0  0  0  0  0  0
   58.5170   29.0390   44.9210 C   0  0  0  0  0  0  0  0  0  0  0  0
   57.2280   28.5320   45.0870 C   0  0  0  0  0  0  0  0  0  0  0  0
   56.1300   29.3670   44.8600 C   0  0  0  0  0  0  0  0  0  0  0  0
   56.3240   30.6580   44.4790 N   0  0  0  0  0  0  0  0  0  0  0  0
   58.6920   34.0200   47.6000 C   0  0  0  0  0  0  0  0  0  0  0  0
   59.8860   34.1270   48.3340 C   0  0  0  0  0  0  0  0  0  0  0  0
   59.8240   34.5930   49.7660 C   0  0  0  0  0  0  0  0  0  0  0  0
   60.0200   33.4730   50.6230 O   0  0  0  0  0  0  0  0  0  0  0  0
   59.0410   32.5450   51.0230 C   0  0  0  0  0  0  0  0  0  0  0  0
   59.1490   31.2230   50.5510 C   0  0  0  0  0  0  0  0  0  0  0  0
   60.2700   30.8220   49.6240 C   0  0  0  0  0  0  0  0  0  0  0  0
   59.7330   30.3910   48.2920 C   0  0  0  0  0  0  0  0  0  0  0  0
   58.6580   30.8150   47.9020 O   0  0  0  0  0  0  0  0  0  0  0  0
   58.1710   30.2870   50.9040 C   0  0  0  0  0  0  0  0  0  0  0  0
   57.1260   30.6800   51.7400 C   0  0  0  0  0  0  0  0  0  0  0  0
   56.2410   29.8500   52.0740 O   0  0  0  0  0  0  0  0  0  0  0  0
   57.0570   31.9280   52.1850 O   0  0  0  0  0  0  0  0  0  0  0  0
   57.9510   32.8610   51.8700 C   0  0  0  0  0  0  0  0  0  0  0  0
   57.7870   34.1400   52.3930 O   0  0  0  0  0  0  0  0  0  0  0  0
   62.2476   33.9642   49.5093 H   0  0  0  0  0  0  0  0  0  0  0  0
   63.0838   33.1384   48.1509 H   0  0  0  0  0  0  0  0  0  0  0  0
   62.9213   34.9273   48.1509 H   0  0  0  0  0  0  0  0  0  0  0  0
   62.0793   33.2368   45.8460 H   0  0  0  0  0  0  0  0  0  0  0  0
   59.9498   33.0387   44.5774 H   0  0  0  0  0  0  0  0  0  0  0  0
   56.7215   32.8654   45.9968 H   0  0  0  0  0  0  0  0  0  0  0  0
   56.9831   34.5379   45.3966 H   0  0  0  0  0  0  0  0  0  0  0  0
   59.7081   30.7767   44.3936 H   0  0  0  0  0  0  0  0  0  0  0  0
   59.3902   28.3938   45.0976 H   0  0  0  0  0  0  0  0  0  0  0  0
   57.0772   27.4863   45.3933 H   0  0  0  0  0  0  0  0  0  0  0  0
   55.1087   28.9796   44.9896 H   0  0  0  0  0  0  0  0  0  0  0  0
   57.7338   34.2587   48.0847 H   0  0  0  0  0  0  0  0  0  0  0  0
   60.6123   35.3387   49.9464 H   0  0  0  0  0  0  0  0  0  0  0  0
   58.8441   35.0503   49.9676 H   0  0  0  0  0  0  0  0  0  0  0  0
   60.9434   31.6799   49.4806 H   0  0  0  0  0  0  0  0  0  0  0  0
   60.8140   29.9784   50.0739 H   0  0  0  0  0  0  0  0  0  0  0  0
   60.3085   29.6926   47.6667 H   0  0  0  0  0  0  0  0  0  0  0  0
   58.2254   29.2550   50.5273 H   0  0  0  0  0  0  0  0  0  0  0  0
   58.2620   34.9330   51.9800 H   0  0  0  0  0  0  0  0  0  0  0  0
  1  2  1  0
  2  3  2  0
  3  4  1  0
  4  5  2  0
  5  6  1  0
  6  7  1  0
  7  8  1  0
  8  9  2  0
  9 10  1  0
 10 11  2  0
 11 12  1  0
 12 13  2  0
  5 14  1  0
 14 15  2  0
 15 16  1  0
 16 17  1  0
 17 18  1  0
 18 19  1  0
 19 20  1  0
 20 21  1  0
 21 22  2  0
 19 23  2  0
 23 24  1  0
 24 25  2  0
 24 26  1  0
 26 27  1  0
 27 28  1  0
 15  2  1  0
 27 18  2  0
 13  8  1  0
  1 29  1  0
  1 30  1  0
  1 31  1  0
  3 32  1  0
  4 33  1  0
  6 34  1  0
  6 35  1  0
  9 36  1  0
 10 37  1  0
 11 38  1  0
 12 39  1  0
 14 40  1  0
 16 41  1  0
 16 42  1  0
 20 43  1  0
 20 44  1  0
 21 45  1  0
 23 46  1  0
 28 47  1  0
M  END
>  <UniqueID>  (23) 
21

>  <SMILES>  (23) 
Cc1ccc(CSc2ccccn2)cc1COc1c(CC=O)cc(=O)oc1O

>  <Energy>  (23) 
46.74825292985157

>  <Genealogy>  (23) 
Cc1ccc(CSc2ccccn2)cc1COc1c(CC=O)cc(=O)oc1O (3D coordinates assigned)
Cc1ccc(CSc2ccccn2)cc1COc1c(CC=O)cc(=O)oc1O (optimized conformer: 46.74825292985157 kcal/mol)

>  <smiles>  (23) 
Cc1ccc(CSc2ccccn2)cc1COc1c(CC=O)cc(=O)oc1O

>  <score_type>  (23) 
oracle

>  <origin>  (23) 
adg

>  <m_score__min__energy>  (23) 
-9.5

>  <m_primary>  (23) 
energy

$$$$
23:0
     RDKit          3D

 51 54  0  0  0  0  0  0  0  0999 V2000
   54.7660   26.7320   47.1280 H   0  0  0  0  0  0  0  0  0  0  0  0
   55.1610   26.5500   46.2130 O   0  0  0  0  0  0  0  0  0  0  0  0
   55.0390   25.2960   45.6200 C   0  0  0  0  0  0  0  0  0  0  0  0
   53.8130   24.7230   45.5010 N   0  0  0  0  0  0  0  0  0  0  0  0
   53.6640   23.4930   44.9450 C   0  0  0  0  0  0  0  0  0  0  0  0
   52.5190   22.9840   44.8420 O   0  0  0  0  0  0  0  0  0  0  0  0
   54.7520   22.8090   44.5050 N   0  0  0  0  0  0  0  0  0  0  0  0
   55.9990   23.3390   44.5990 C   0  0  0  0  0  0  0  0  0  0  0  0
   56.9870   22.6740   44.1870 O   0  0  0  0  0  0  0  0  0  0  0  0
   56.1750   24.6190   45.1450 C   0  0  0  0  0  0  0  0  0  0  0  0
   57.5260   25.1930   45.3020 C   0  0  0  0  0  0  0  0  0  0  0  0
   58.3626   24.4864   45.4060 H   0  0  0  0  0  0  0  0  0  0  0  0
   57.8240   26.5070   45.3290 C   0  0  0  0  0  0  0  0  0  0  0  0
   57.4250   27.3820   44.3320 C   0  0  0  0  0  0  0  0  0  0  0  0
   56.8085   27.1370   43.4546 H   0  0  0  0  0  0  0  0  0  0  0  0
   57.9470   28.6180   44.6480 C   0  0  0  0  0  0  0  0  0  0  0  0
   57.7820   29.8540   43.8160 C   0  0  0  0  0  0  0  0  0  0  0  0
   57.6655   30.7269   44.4752 H   0  0  0  0  0  0  0  0  0  0  0  0
   58.6700   29.9899   43.1811 H   0  0  0  0  0  0  0  0  0  0  0  0
   56.8895   29.7522   43.1811 H   0  0  0  0  0  0  0  0  0  0  0  0
   58.6430   28.5520   45.8040 N   0  0  0  0  0  0  0  0  0  0  0  0
   59.2910   29.6630   46.4490 C   0  0  0  0  0  0  0  0  0  0  0  0
   60.6890   29.7220   46.5110 C   0  0  0  0  0  0  0  0  0  0  0  0
   61.2917   28.9112   46.0759 H   0  0  0  0  0  0  0  0  0  0  0  0
   61.3210   30.8080   47.1240 C   0  0  0  0  0  0  0  0  0  0  0  0
   62.4195   30.8483   47.1661 H   0  0  0  0  0  0  0  0  0  0  0  0
   60.5620   31.8490   47.6870 C   0  0  0  0  0  0  0  0  0  0  0  0
   61.2280   33.0090   48.3260 C   0  0  0  0  0  0  0  0  0  0  0  0
   60.7600   34.1670   48.1470 O   0  0  0  0  0  0  0  0  0  0  0  0
   62.4130   32.8430   49.1230 N   0  0  0  0  0  0  0  0  0  0  0  0
   63.4950   33.8240   49.0010 C   0  0  0  0  0  0  0  0  0  0  0  0
   63.7954   33.9033   47.9458 H   0  0  0  0  0  0  0  0  0  0  0  0
   63.1370   34.7981   49.3657 H   0  0  0  0  0  0  0  0  0  0  0  0
   64.7000   33.3930   49.8370 C   0  0  0  0  0  0  0  0  0  0  0  0
   65.6049   33.8939   49.4624 H   0  0  0  0  0  0  0  0  0  0  0  0
   64.5370   33.6718   50.8885 H   0  0  0  0  0  0  0  0  0  0  0  0
   64.8610   31.9940   49.7390 O   0  0  0  0  0  0  0  0  0  0  0  0
   63.8500   31.3310   50.4810 C   0  0  0  0  0  0  0  0  0  0  0  0
   63.8574   30.2669   50.2023 H   0  0  0  0  0  0  0  0  0  0  0  0
   64.0785   31.4906   51.5451 H   0  0  0  0  0  0  0  0  0  0  0  0
   62.4270   31.8880   50.2390 C   0  0  0  0  0  0  0  0  0  0  0  0
   61.7499   31.0532   50.0054 H   0  0  0  0  0  0  0  0  0  0  0  0
   62.0983   32.4110   51.1491 H   0  0  0  0  0  0  0  0  0  0  0  0
   59.1590   31.7930   47.6030 C   0  0  0  0  0  0  0  0  0  0  0  0
   58.5537   32.6102   48.0222 H   0  0  0  0  0  0  0  0  0  0  0  0
   58.5290   30.7070   46.9910 C   0  0  0  0  0  0  0  0  0  0  0  0
   57.4311   30.6710   46.9342 H   0  0  0  0  0  0  0  0  0  0  0  0
   58.5610   27.2720   46.2510 C   0  0  0  0  0  0  0  0  0  0  0  0
   59.0700   26.8710   47.4270 C   0  0  0  0  0  0  0  0  0  0  0  0
   59.6304   27.5800   48.0542 H   0  0  0  0  0  0  0  0  0  0  0  0
   58.9266   25.8335   47.7633 H   0  0  0  0  0  0  0  0  0  0  0  0
  1  2  1  0
  2  3  1  0
  3  4  1  0
  4  5  1  0
  5  6  2  0
  5  7  1  0
  7  8  1  0
  8  9  2  0
  8 10  1  0
 10 11  1  0
 11 12  1  0
 11 13  2  0
 13 14  1  0
 14 15  1  0
 14 16  2  0
 16 17  1  0
 17 18  1  0
 17 19  1  0
 17 20  1  0
 16 21  1  0
 21 22  1  0
 22 23  2  0
 23 24  1  0
 23 25  1  0
 25 26  1  0
 25 27  2  0
 27 28  1  0
 28 29  2  0
 28 30  1  0
 30 31  1  0
 31 32  1  0
 31 33  1  0
 31 34  1  0
 34 35  1  0
 34 36  1  0
 34 37  1  0
 37 38  1  0
 38 39  1  0
 38 40  1  0
 38 41  1  0
 41 42  1  0
 41 43  1  0
 27 44  1  0
 44 45  1  0
 44 46  2  0
 46 47  1  0
 21 48  1  0
 48 49  2  0
 49 50  1  0
 49 51  1  0
 10  3  2  0
 48 13  1  0
 46 22  1  0
 41 30  1  0
M  CHG  2   4  -1   7  -1
M  END
>  <UniqueID>  (24) 
22

>  <SMILES>  (24) 
C=c1/c(=C\c2c(O)[n-]c(=O)[n-]c2=O)cc(C)n1-c1ccc(C(=O)N2CCOCC2)cc1

>  <Energy>  (24) 
113.85424828245596

>  <Genealogy>  (24) 
C=c1c(=Cc2c(O)[n-]c(=O)[n-]c2=O)cc(C)n1-c1ccc(C(=O)N2CCOCC2)cc1 (protonated)
C=c1/c(=C\c2c(O)[n-]c(=O)[n-]c2=O)cc(C)n1-c1ccc(C(=O)N2CCOCC2)cc1 (cis-trans isomerization)
C=c1/c(=C\c2c(O)[n-]c(=O)[n-]c2=O)cc(C)n1-c1ccc(C(=O)N2CCOCC2)cc1 (3D coordinates assigned)
C=c1/c(=C\c2c(O)[n-]c(=O)[n-]c2=O)cc(C)n1-c1ccc(C(=O)N2CCOCC2)cc1 (nonaromatic ring conformer: 113.85424828245596 kcal/mol)

>  <smiles>  (24) 
C=c1c(=Cc2c(O)[nH]c(=O)[nH]c2=O)cc(C)n1-c1ccc(C(=O)N2CCOCC2)cc1

>  <score_type>  (24) 
oracle

>  <origin>  (24) 
adg

>  <m_score__min__energy>  (24) 
-13.34

>  <m_primary>  (24) 
energy

$$$$
24:0
     RDKit          3D

 45 46  0  0  0  0  0  0  0  0999 V2000
   56.3190   30.0810   43.6970 C   0  0  0  0  0  0  0  0  0  0  0  0
   56.3010   31.2220   44.5500 O   0  0  0  0  0  0  0  0  0  0  0  0
   57.4170   31.7090   45.2460 C   0  0  0  0  0  0  0  0  0  0  0  0
   57.7800   33.0660   45.2310 C   0  0  0  0  0  0  0  0  0  0  0  0
   58.8930   33.5050   45.9510 C   0  0  0  0  0  0  0  0  0  0  0  0
   59.6710   32.5970   46.6950 C   0  0  0  0  0  0  0  0  0  0  0  0
   60.7640   33.0240   47.4670 O   0  0  0  0  0  0  0  0  0  0  0  0
   62.1260   32.7480   47.1550 C   0  0  0  0  0  0  0  0  0  0  0  0
   59.3280   31.2280   46.6810 C   0  0  0  0  0  0  0  0  0  0  0  0
   60.0860   30.2530   47.4160 N   0  0  0  0  0  0  0  0  0  0  0  0
   59.5090   29.3620   48.3790 C   0  0  0  0  0  0  0  0  0  0  0  0
   58.2600   29.3090   48.5390 O   0  0  0  0  0  0  0  0  0  0  0  0
   60.3740   28.5670   49.1980 N   0  0  0  0  0  0  0  0  0  0  0  0
   60.5260   27.1210   49.0620 C   0  0  0  0  0  0  0  0  0  0  0  0
   60.9820   26.7570   47.6470 C   0  0  0  0  0  0  0  0  0  0  0  0
   59.8610   26.8700   46.6470 C   0  0  0  0  0  0  0  0  0  0  0  0
   59.9720   27.7420   45.5520 C   0  0  0  0  0  0  0  0  0  0  0  0
   58.9330   27.8400   44.6230 C   0  0  0  0  0  0  0  0  0  0  0  0
   57.7730   27.0790   44.7840 C   0  0  0  0  0  0  0  0  0  0  0  0
   57.6360   26.2300   45.8910 C   0  0  0  0  0  0  0  0  0  0  0  0
   56.1670   25.2870   46.1140 S   0  0  0  0  0  0  0  0  0  0  0  0
   54.7910   26.3220   45.9830 N   0  0  0  0  0  0  0  0  0  0  0  0
   56.1740   24.6330   47.4680 O   0  0  0  0  0  0  0  0  0  0  0  0
   56.0930   24.2160   45.0620 O   0  0  0  0  0  0  0  0  0  0  0  0
   58.6830   26.1230   46.8170 C   0  0  0  0  0  0  0  0  0  0  0  0
   58.1910   30.8050   45.9770 C   0  0  0  0  0  0  0  0  0  0  0  0
   56.3334   29.1665   44.3081 H   0  0  0  0  0  0  0  0  0  0  0  0
   55.4207   30.0836   43.0621 H   0  0  0  0  0  0  0  0  0  0  0  0
   57.2168   30.1119   43.0621 H   0  0  0  0  0  0  0  0  0  0  0  0
   57.1850   33.7857   44.6497 H   0  0  0  0  0  0  0  0  0  0  0  0
   59.1648   34.5708   45.9369 H   0  0  0  0  0  0  0  0  0  0  0  0
   62.6993   32.6318   48.0866 H   0  0  0  0  0  0  0  0  0  0  0  0
   62.1869   31.8193   46.5687 H   0  0  0  0  0  0  0  0  0  0  0  0
   62.5437   33.5798   46.5687 H   0  0  0  0  0  0  0  0  0  0  0  0
   61.1270   30.3470   47.4190 H   0  0  0  0  0  0  0  0  0  0  0  0
   61.2752   26.7668   49.7854 H   0  0  0  0  0  0  0  0  0  0  0  0
   59.5543   26.6430   49.2550 H   0  0  0  0  0  0  0  0  0  0  0  0
   61.7936   27.4372   47.3493 H   0  0  0  0  0  0  0  0  0  0  0  0
   61.3236   25.7114   47.6582 H   0  0  0  0  0  0  0  0  0  0  0  0
   60.8799   28.3499   45.4252 H   0  0  0  0  0  0  0  0  0  0  0  0
   59.0289   28.5184   43.7624 H   0  0  0  0  0  0  0  0  0  0  0  0
   56.9651   27.1460   44.0405 H   0  0  0  0  0  0  0  0  0  0  0  0
   55.1400   27.3030   46.0610 H   0  0  0  0  0  0  0  0  0  0  0  0
   58.5818   25.4505   47.6816 H   0  0  0  0  0  0  0  0  0  0  0  0
   57.9041   29.7434   46.0010 H   0  0  0  0  0  0  0  0  0  0  0  0
  1  2  1  0
  2  3  1  0
  3  4  2  0
  4  5  1  0
  5  6  2  0
  6  7  1  0
  7  8  1  0
  6  9  1  0
  9 10  1  0
 10 11  1  0
 11 12  2  0
 11 13  1  0
 13 14  1  0
 14 15  1  0
 15 16  1  0
 16 17  2  0
 17 18  1  0
 18 19  2  0
 19 20  1  0
 20 21  1  0
 21 22  1  0
 21 23  2  0
 21 24  2  0
 20 25  2  0
  9 26  2  0
 26  3  1  0
 25 16  1  0
  1 27  1  0
  1 28  1  0
  1 29  1  0
  4 30  1  0
  5 31  1  0
  8 32  1  0
  8 33  1  0
  8 34  1  0
 10 35  1  0
 14 36  1  0
 14 37  1  0
 15 38  1  0
 15 39  1  0
 17 40  1  0
 18 41  1  0
 19 42  1  0
 22 43  1  0
 25 44  1  0
 26 45  1  0
M  CHG  2  13  -1  22  -1
M  END
>  <UniqueID>  (25) 
23

>  <SMILES>  (25) 
COc1ccc(OC)c(NC(=O)[N-]CCc2cccc(S([NH-])(=O)=O)c2)c1

>  <Energy>  (25) 
43.1564434494906

>  <Genealogy>  (25) 
COc1ccc(OC)c(NC(=O)[N-]CCc2cccc(S([NH-])(=O)=O)c2)c1 (protonated)
COc1ccc(OC)c(NC(=O)[N-]CCc2cccc(S([NH-])(=O)=O)c2)c1 (3D coordinates assigned)
COc1ccc(OC)c(NC(=O)[N-]CCc2cccc(S([NH-])(=O)=O)c2)c1 (optimized conformer: 43.1564434494906 kcal/mol)

>  <smiles>  (25) 
COc1ccc(OC)c(NC(=O)NCCc2cccc(S(N)(=O)=O)c2)c1

>  <score_type>  (25) 
oracle

>  <origin>  (25) 
adg

>  <m_score__min__energy>  (25) 
-11.640000000000001

>  <m_primary>  (25) 
energy

$$$$
25:0
     RDKit          3D

 72 76  0  0  0  0  0  0  0  0999 V2000
   56.6310   22.6300   41.6870 H   0  0  0  0  0  0  0  0  0  0  0  0
   56.2700   21.8880   42.2400 O   0  0  0  0  0  0  0  0  0  0  0  0
   56.4740   22.2500   43.5810 C   0  0  2  0  0  0  0  0  0  0  0  0
   57.4638   22.7165   43.6937 H   0  0  0  0  0  0  0  0  0  0  0  0
   56.4360   20.9930   44.4830 C   0  0  0  0  0  0  0  0  0  0  0  0
   55.7298   20.2718   44.0457 H   0  0  0  0  0  0  0  0  0  0  0  0
   57.4612   20.5970   44.5297 H   0  0  0  0  0  0  0  0  0  0  0  0
   55.9970   21.2890   45.9330 C   0  0  0  0  0  0  0  0  0  0  0  0
   54.9094   21.1450   46.0126 H   0  0  0  0  0  0  0  0  0  0  0  0
   56.5357   20.6013   46.6015 H   0  0  0  0  0  0  0  0  0  0  0  0
   56.3410   22.7300   46.3490 C   0  0  2  0  0  0  0  0  0  0  0  0
   57.4260   22.8661   46.2300 H   0  0  0  0  0  0  0  0  0  0  0  0
   62.2260   23.3890   53.5900 N   0  0  0  0  0  0  0  0  0  0  0  0
   61.1790   23.0440   52.8950 C   0  0  0  0  0  0  0  0  0  0  0  0
   61.2750   21.9690   52.0720 N   0  0  0  0  0  0  0  0  0  0  0  0
   57.8240   21.8000   50.5770 C   0  0  0  0  0  0  0  0  0  0  0  0
   59.0020   22.2370   51.3730 C   0  0  0  0  0  0  0  0  0  0  0  0
   58.9200   23.3400   52.2370 C   0  0  0  0  0  0  0  0  0  0  0  0
   57.9762   23.8991   52.3186 H   0  0  0  0  0  0  0  0  0  0  0  0
   59.9960   23.7240   52.9740 N   0  0  0  0  0  0  0  0  0  0  0  0
   59.8770   24.5480   53.6030 H   0  0  0  0  0  0  0  0  0  0  0  0
   56.3410   22.2130   48.7480 C   0  0  0  0  0  0  0  0  0  0  0  0
   55.9740   22.9610   47.7490 N   0  0  0  0  0  0  0  0  0  0  0  0
   63.0560   24.5870   53.4250 C   0  0  0  0  0  0  0  0  0  0  0  0
   64.1103   24.3573   53.6388 H   0  0  0  0  0  0  0  0  0  0  0  0
   62.6380   25.6820   54.4400 C   0  0  0  0  0  0  0  0  0  0  0  0
   63.5173   26.3000   54.6742 H   0  0  0  0  0  0  0  0  0  0  0  0
   62.2489   25.1763   55.3360 H   0  0  0  0  0  0  0  0  0  0  0  0
   61.5280   26.5910   53.8990 C   0  0  0  0  0  0  0  0  0  0  0  0
   61.3450   27.4012   54.6202 H   0  0  0  0  0  0  0  0  0  0  0  0
   60.6213   25.9847   53.7565 H   0  0  0  0  0  0  0  0  0  0  0  0
   61.9020   27.1780   52.6040 N   0  0  0  0  0  0  0  0  0  0  0  0
   61.0840   28.2300   52.0520 C   0  0  0  0  0  0  0  0  0  0  0  0
   59.8610   28.2850   52.3550 O   0  0  0  0  0  0  0  0  0  0  0  0
   61.6420   29.2540   51.1390 C   0  0  0  0  0  0  0  0  0  0  0  0
   62.8280   29.9360   51.4600 C   0  0  0  0  0  0  0  0  0  0  0  0
   63.3575   29.7018   52.3953 H   0  0  0  0  0  0  0  0  0  0  0  0
   63.3390   30.9110   50.5970 C   0  0  0  0  0  0  0  0  0  0  0  0
   64.2685   31.4393   50.8558 H   0  0  0  0  0  0  0  0  0  0  0  0
   62.6710   31.2170   49.4040 C   0  0  0  0  0  0  0  0  0  0  0  0
   63.3020   32.4500   48.3170 S   0  0  0  0  0  0  0  0  0  0  0  0
   64.4640   33.1560   48.9570 O   0  0  0  0  0  0  0  0  0  0  0  0
   63.7700   31.8050   47.0430 O   0  0  0  0  0  0  0  0  0  0  0  0
   62.0210   33.6290   47.9550 C   0  0  0  0  0  0  0  0  0  0  0  0
   61.6015   34.0151   48.8957 H   0  0  0  0  0  0  0  0  0  0  0  0
   62.4428   34.4615   47.3727 H   0  0  0  0  0  0  0  0  0  0  0  0
   61.2263   33.1398   47.3727 H   0  0  0  0  0  0  0  0  0  0  0  0
   61.4770   30.5550   49.0910 C   0  0  0  0  0  0  0  0  0  0  0  0
   60.9422   30.8006   48.1616 H   0  0  0  0  0  0  0  0  0  0  0  0
   60.9620   29.5840   49.9540 C   0  0  0  0  0  0  0  0  0  0  0  0
   60.0192   29.0751   49.7045 H   0  0  0  0  0  0  0  0  0  0  0  0
   62.9990   26.5860   51.8250 C   0  0  0  0  0  0  0  0  0  0  0  0
   63.9612   26.9586   52.2061 H   0  0  0  0  0  0  0  0  0  0  0  0
   62.8885   26.8663   50.7671 H   0  0  0  0  0  0  0  0  0  0  0  0
   62.9560   25.0620   51.9540 C   0  0  0  0  0  0  0  0  0  0  0  0
   63.7978   24.6364   51.3881 H   0  0  0  0  0  0  0  0  0  0  0  0
   61.9881   24.7207   51.5582 H   0  0  0  0  0  0  0  0  0  0  0  0
   57.4110   22.5540   49.5210 N   0  0  0  0  0  0  0  0  0  0  0  0
   60.2290   21.5500   51.3150 C   0  0  0  0  0  0  0  0  0  0  0  0
   60.3810   20.5570   50.5570 O   0  0  0  0  0  0  0  0  0  0  0  0
   57.1190   20.6250   50.8930 C   0  0  0  0  0  0  0  0  0  0  0  0
   57.4313   20.0033   51.7450 H   0  0  0  0  0  0  0  0  0  0  0  0
   56.0200   20.2540   50.1170 C   0  0  0  0  0  0  0  0  0  0  0  0
   55.4639   19.3354   50.3556 H   0  0  0  0  0  0  0  0  0  0  0  0
   55.6260   21.0470   49.0390 C   0  0  0  0  0  0  0  0  0  0  0  0
   54.7612   20.7578   48.4238 H   0  0  0  0  0  0  0  0  0  0  0  0
   55.6030   23.7490   45.4520 C   0  0  0  0  0  0  0  0  0  0  0  0
   54.6147   23.9482   45.8921 H   0  0  0  0  0  0  0  0  0  0  0  0
   56.2297   24.6518   45.4059 H   0  0  0  0  0  0  0  0  0  0  0  0
   55.4020   23.2620   44.0000 C   0  0  0  0  0  0  0  0  0  0  0  0
   54.4134   22.7866   43.9184 H   0  0  0  0  0  0  0  0  0  0  0  0
   55.4796   24.1346   43.3348 H   0  0  0  0  0  0  0  0  0  0  0  0
  1  2  1  0
  2  3  1  0
  3  4  1  6
  3  5  1  0
  5  6  1  0
  5  7  1  0
  5  8  1  0
  8  9  1  0
  8 10  1  0
  8 11  1  0
 11 12  1  6
 11 13  1  0
 13 14  2  0
 14 15  1  0
 15 16  1  0
 16 17  1  0
 17 18  2  0
 18 19  1  0
 18 20  1  0
 20 21  1  0
 20 22  1  0
 22 23  2  0
 23 24  1  0
 24 25  1  0
 24 26  1  0
 26 27  1  0
 26 28  1  0
 26 29  1  0
 29 30  1  0
 29 31  1  0
 29 32  1  0
 32 33  1  0
 33 34  2  0
 33 35  1  0
 35 36  2  0
 36 37  1  0
 36 38  1  0
 38 39  1  0
 38 40  2  0
 40 41  1  0
 41 42  2  0
 41 43  2  0
 41 44  1  0
 44 45  1  0
 44 46  1  0
 44 47  1  0
 40 48  1  0
 48 49  1  0
 48 50  2  0
 50 51  1  0
 32 52  1  0
 52 53  1  0
 52 54  1  0
 52 55  1  0
 55 56  1  0
 55 57  1  0
 22 58  1  0
 58 59  1  0
 59 60  2  0
 16 61  2  0
 61 62  1  0
 61 63  1  0
 63 64  1  0
 63 65  2  0
 65 66  1  0
 11 67  1  0
 67 68  1  0
 67 69  1  0
 67 70  1  0
 70 71  1  0
 70 72  1  0
 70  3  1  0
 65 14  1  0
 59 17  1  0
 55 24  1  0
 50 35  1  0
M  CHG  2  15  -1  58  -1
M  END
>  <UniqueID>  (26) 
24

>  <SMILES>  (26) 
CS(=O)(=O)c1ccc(C(=O)N2CCC(/N=c3/[n-]c(=O)c(-c4ccc/c(=N/C5CCC(O)CC5)[n-]4)c[nH]3)CC2)cc1

>  <Energy>  (26) 
90.12910670131829

>  <Genealogy>  (26) 
CS(=O)(=O)c1ccc(C(=O)N2CCC(N=c3[n-]c(=O)c(-c4cccc(=NC5CCC(O)CC5)[n-]4)c[nH]3)CC2)cc1 (protonated)
CS(=O)(=O)c1ccc(C(=O)N2CCC(/N=c3/[n-]c(=O)c(-c4ccc/c(=N/C5CCC(O)CC5)[n-]4)c[nH]3)CC2)cc1 (cis-trans isomerization)
CS(=O)(=O)c1ccc(C(=O)N2CCC(/N=c3/[n-]c(=O)c(-c4ccc/c(=N/C5CCC(O)CC5)[n-]4)c[nH]3)CC2)cc1 (3D coordinates assigned)
CS(=O)(=O)c1ccc(C(=O)N2CCC(/N=c3/[n-]c(=O)c(-c4ccc/c(=N/C5CCC(O)CC5)[n-]4)c[nH]3)CC2)cc1 (nonaromatic ring conformer: 90.12910670131829 kcal/mol)

>  <smiles>  (26) 
CS(=O)(=O)c1ccc(C(=O)N2CCC(N=c3[nH]cc(-c4cccc(=NC5CCC(O)CC5)[nH]4)c(=O)[nH]3)CC2)cc1

>  <score_type>  (26) 
oracle

>  <origin>  (26) 
adg

>  <m_score__min__energy>  (26) 
-13.25

>  <m_primary>  (26) 
energy

$$$$
26:0
     RDKit          3D

 43 45  0  0  0  0  0  0  0  0999 V2000
   58.9800   29.8170   48.2130 C   0  0  0  0  0  0  0  0  0  0  0  0
   58.6760   30.4740   47.0840 C   0  0  0  0  0  0  0  0  0  0  0  0
   58.4240   29.9370   45.8100 C   0  0  0  0  0  0  0  0  0  0  0  0
   58.5570   28.6800   45.3360 C   0  0  0  0  0  0  0  0  0  0  0  0
   57.6380   27.5650   45.6300 C   0  0  0  0  0  0  0  0  0  0  0  0
   56.2450   27.7450   45.5890 C   0  0  0  0  0  0  0  0  0  0  0  0
   55.7010   28.9870   45.2590 O   0  0  0  0  0  0  0  0  0  0  0  0
   55.4220   26.7040   45.8840 N   0  0  0  0  0  0  0  0  0  0  0  0
   55.9220   25.4900   46.2370 C   0  0  0  0  0  0  0  0  0  0  0  0
   55.1380   24.5410   46.4970 O   0  0  0  0  0  0  0  0  0  0  0  0
   57.2630   25.3030   46.3100 N   0  0  0  0  0  0  0  0  0  0  0  0
   58.1300   26.3090   46.0230 C   0  0  0  0  0  0  0  0  0  0  0  0
   59.3690   26.0990   46.0990 O   0  0  0  0  0  0  0  0  0  0  0  0
   57.9980   31.0310   45.0640 C   0  0  0  0  0  0  0  0  0  0  0  0
   57.6530   31.0450   43.6100 C   0  0  0  0  0  0  0  0  0  0  0  0
   58.0460   32.1470   45.8140 N   0  0  0  0  0  0  0  0  0  0  0  0
   58.4600   31.8110   47.0250 N   0  0  0  0  0  0  0  0  0  0  0  0
   58.5680   32.7850   48.1140 C   0  0  0  0  0  0  0  0  0  0  0  0
   59.7240   33.7180   47.8640 C   0  0  0  0  0  0  0  0  0  0  0  0
   59.4710   34.9260   47.5890 O   0  0  0  0  0  0  0  0  0  0  0  0
   61.0950   33.2720   47.9210 N   0  0  0  0  0  0  0  0  0  0  0  0
   62.1240   34.1820   48.4380 C   0  0  0  0  0  0  0  0  0  0  0  0
   63.4800   33.8530   47.8070 C   0  0  0  0  0  0  0  0  0  0  0  0
   63.7820   32.4800   47.9510 O   0  0  0  0  0  0  0  0  0  0  0  0
   62.8550   31.7100   47.2090 C   0  0  0  0  0  0  0  0  0  0  0  0
   61.4420   31.8530   47.7780 C   0  0  0  0  0  0  0  0  0  0  0  0
   59.1525   30.3754   49.1449 H   0  0  0  0  0  0  0  0  0  0  0  0
   59.0568   28.7197   48.2071 H   0  0  0  0  0  0  0  0  0  0  0  0
   59.4158   28.4718   44.6810 H   0  0  0  0  0  0  0  0  0  0  0  0
   55.6190   29.7220   45.9560 H   0  0  0  0  0  0  0  0  0  0  0  0
   56.5602   31.0893   43.4929 H   0  0  0  0  0  0  0  0  0  0  0  0
   58.1089   31.9254   43.1334 H   0  0  0  0  0  0  0  0  0  0  0  0
   58.0360   30.1306   43.1334 H   0  0  0  0  0  0  0  0  0  0  0  0
   57.6370   33.3678   48.1740 H   0  0  0  0  0  0  0  0  0  0  0  0
   58.7370   32.2491   49.0597 H   0  0  0  0  0  0  0  0  0  0  0  0
   61.8500   35.2186   48.1925 H   0  0  0  0  0  0  0  0  0  0  0  0
   62.1955   34.0631   49.5292 H   0  0  0  0  0  0  0  0  0  0  0  0
   63.4501   34.1051   46.7367 H   0  0  0  0  0  0  0  0  0  0  0  0
   64.2576   34.4399   48.3177 H   0  0  0  0  0  0  0  0  0  0  0  0
   62.8581   32.0528   46.1638 H   0  0  0  0  0  0  0  0  0  0  0  0
   63.1511   30.6523   47.2692 H   0  0  0  0  0  0  0  0  0  0  0  0
   60.7254   31.3704   47.0971 H   0  0  0  0  0  0  0  0  0  0  0  0
   61.4025   31.3722   48.7666 H   0  0  0  0  0  0  0  0  0  0  0  0
  1  2  2  0
  2  3  1  0
  3  4  2  3
  4  5  1  0
  5  6  2  0
  6  7  1  0
  6  8  1  0
  8  9  1  0
  9 10  2  0
  9 11  1  0
 11 12  1  0
 12 13  2  0
  3 14  1  0
 14 15  1  0
 14 16  2  0
 16 17  1  0
 17 18  1  0
 18 19  1  0
 19 20  2  0
 19 21  1  0
 21 22  1  0
 22 23  1  0
 23 24  1  0
 24 25  1  0
 25 26  1  0
 17  2  1  0
 26 21  1  0
 12  5  1  0
  1 27  1  0
  1 28  1  0
  4 29  1  0
  7 30  1  0
 15 31  1  0
 15 32  1  0
 15 33  1  0
 18 34  1  0
 18 35  1  0
 22 36  1  0
 22 37  1  0
 23 38  1  0
 23 39  1  0
 25 40  1  0
 25 41  1  0
 26 42  1  0
 26 43  1  0
M  CHG  2   8  -1  11  -1
M  END
>  <UniqueID>  (27) 
25

>  <SMILES>  (27) 
C=c1c(=Cc2c(O)[n-]c(=O)[n-]c2=O)c(C)nn1CC(=O)N1CCOCC1

>  <Energy>  (27) 
91.33974346861623

>  <Genealogy>  (27) 
C=c1c(=Cc2c(O)[n-]c(=O)[n-]c2=O)c(C)nn1CC(=O)N1CCOCC1 (protonated)
C=c1c(=Cc2c(O)[n-]c(=O)[n-]c2=O)c(C)nn1CC(=O)N1CCOCC1 (3D coordinates assigned)
C=c1c(=Cc2c(O)[n-]c(=O)[n-]c2=O)c(C)nn1CC(=O)N1CCOCC1 (nonaromatic ring conformer: 91.33974346861623 kcal/mol)

>  <smiles>  (27) 
C=c1c(=Cc2c(O)[nH]c(=O)[nH]c2=O)c(C)nn1CC(=O)N1CCOCC1

>  <score_type>  (27) 
oracle

>  <origin>  (27) 
adg

>  <m_score__min__energy>  (27) 
-12.970000000000001

>  <m_primary>  (27) 
energy

$$$$
27:0
     RDKit          3D

 44 45  0  0  0  0  0  0  0  0999 V2000
   56.2400   29.3960   42.6430 C   0  0  0  0  0  0  0  0  0  0  0  0
   56.1280   30.4700   44.1090 S   0  0  0  0  0  0  0  0  0  0  0  0
   57.5820   31.5010   43.6970 C   0  0  0  0  0  0  0  0  0  0  0  0
   57.8870   32.4740   44.7950 C   0  0  0  0  0  0  0  0  0  0  0  0
   57.4880   33.7610   44.7790 N   0  0  0  0  0  0  0  0  0  0  0  0
   57.8790   34.3370   45.9060 N   0  0  0  0  0  0  0  0  0  0  0  0
   58.5130   33.4190   46.6640 C   0  0  0  0  0  0  0  0  0  0  0  0
   59.1860   33.7550   47.9690 C   0  0  0  0  0  0  0  0  0  0  0  0
   60.6130   34.3080   47.7620 C   0  0  0  0  0  0  0  0  0  0  0  0
   61.5640   33.8610   48.8820 C   0  0  0  0  0  0  0  0  0  0  0  0
   61.1620   33.8640   46.4000 C   0  0  0  0  0  0  0  0  0  0  0  0
   58.5480   32.2130   45.9810 C   0  0  0  0  0  0  0  0  0  0  0  0
   59.1360   30.9300   46.4030 C   0  0  0  0  0  0  0  0  0  0  0  0
   60.0900   30.9310   47.2250 O   0  0  0  0  0  0  0  0  0  0  0  0
   58.6670   29.6970   45.8410 N   0  0  0  0  0  0  0  0  0  0  0  0
   59.3960   28.4420   46.0040 C   0  0  0  0  0  0  0  0  0  0  0  0
   58.4210   27.3020   46.1100 C   0  0  0  0  0  0  0  0  0  0  0  0
   58.8780   26.0140   46.4340 C   0  0  0  0  0  0  0  0  0  0  0  0
   57.9690   24.9650   46.5980 C   0  0  0  0  0  0  0  0  0  0  0  0
   56.5980   25.1950   46.4520 C   0  0  0  0  0  0  0  0  0  0  0  0
   56.1330   26.4780   46.1410 C   0  0  0  0  0  0  0  0  0  0  0  0
   54.7700   26.7090   46.0040 O   0  0  0  0  0  0  0  0  0  0  0  0
   57.0410   27.5290   45.9720 C   0  0  0  0  0  0  0  0  0  0  0  0
   56.3492   28.3492   42.9628 H   0  0  0  0  0  0  0  0  0  0  0  0
   55.3260   29.5018   42.0402 H   0  0  0  0  0  0  0  0  0  0  0  0
   57.1126   29.6881   42.0402 H   0  0  0  0  0  0  0  0  0  0  0  0
   58.4535   30.8473   43.5449 H   0  0  0  0  0  0  0  0  0  0  0  0
   57.3576   32.0687   42.7819 H   0  0  0  0  0  0  0  0  0  0  0  0
   58.5848   34.5124   48.4933 H   0  0  0  0  0  0  0  0  0  0  0  0
   59.2639   32.8292   48.5578 H   0  0  0  0  0  0  0  0  0  0  0  0
   60.5509   35.4059   47.7906 H   0  0  0  0  0  0  0  0  0  0  0  0
   61.1066   34.0760   49.8590 H   0  0  0  0  0  0  0  0  0  0  0  0
   61.7512   32.7806   48.7946 H   0  0  0  0  0  0  0  0  0  0  0  0
   62.5153   34.4062   48.7946 H   0  0  0  0  0  0  0  0  0  0  0  0
   62.0091   33.1789   46.5518 H   0  0  0  0  0  0  0  0  0  0  0  0
   60.3705   33.3490   45.8358 H   0  0  0  0  0  0  0  0  0  0  0  0
   61.5000   34.7457   45.8358 H   0  0  0  0  0  0  0  0  0  0  0  0
   57.9370   29.7320   45.0970 H   0  0  0  0  0  0  0  0  0  0  0  0
   60.0511   28.2837   45.1347 H   0  0  0  0  0  0  0  0  0  0  0  0
   60.0038   28.4890   46.9196 H   0  0  0  0  0  0  0  0  0  0  0  0
   59.9553   25.8302   46.5591 H   0  0  0  0  0  0  0  0  0  0  0  0
   58.3333   23.9563   46.8425 H   0  0  0  0  0  0  0  0  0  0  0  0
   55.8846   24.3678   46.5815 H   0  0  0  0  0  0  0  0  0  0  0  0
   56.6732   28.5371   45.7301 H   0  0  0  0  0  0  0  0  0  0  0  0
  1  2  1  0
  2  3  1  0
  3  4  1  0
  4  5  2  0
  5  6  1  0
  6  7  1  0
  7  8  1  0
  8  9  1  0
  9 10  1  0
  9 11  1  0
  7 12  2  0
 12 13  1  0
 13 14  2  0
 13 15  1  0
 15 16  1  0
 16 17  1  0
 17 18  2  0
 18 19  1  0
 19 20  2  0
 20 21  1  0
 21 22  1  0
 21 23  2  0
 12  4  1  0
 23 17  1  0
  1 24  1  0
  1 25  1  0
  1 26  1  0
  3 27  1  0
  3 28  1  0
  8 29  1  0
  8 30  1  0
  9 31  1  0
 10 32  1  0
 10 33  1  0
 10 34  1  0
 11 35  1  0
 11 36  1  0
 11 37  1  0
 15 38  1  0
 16 39  1  0
 16 40  1  0
 18 41  1  0
 19 42  1  0
 20 43  1  0
 23 44  1  0
M  CHG  2   6  -1  22  -1
M  END
>  <UniqueID>  (28) 
26

>  <SMILES>  (28) 
CSCc1n[n-]c(CC(C)C)c1C(=O)NCc1cccc([O-])c1

>  <Energy>  (28) 
63.05665951735911

>  <Genealogy>  (28) 
CSCc1n[n-]c(CC(C)C)c1C(=O)NCc1cccc([O-])c1 (protonated)
CSCc1n[n-]c(CC(C)C)c1C(=O)NCc1cccc([O-])c1 (3D coordinates assigned)
CSCc1n[n-]c(CC(C)C)c1C(=O)NCc1cccc([O-])c1 (optimized conformer: 63.05665951735911 kcal/mol)

>  <smiles>  (28) 
CSCc1n[nH]c(CC(C)C)c1C(=O)NCc1cccc(O)c1

>  <score_type>  (28) 
oracle

>  <origin>  (28) 
adg

>  <m_score__min__energy>  (28) 
-11.91

>  <m_primary>  (28) 
energy

$$$$
28:0
     RDKit          3D

 45 47  0  0  0  0  0  0  0  0999 V2000
   55.7940   29.2810   45.1030 O   0  0  0  0  0  0  0  0  0  0  0  0
   56.9910   29.1540   45.4740 C   0  0  0  0  0  0  0  0  0  0  0  0
   57.5210   27.8390   45.6760 N   0  0  0  0  0  0  0  0  0  0  0  0
   57.5610   26.8080   44.6400 C   0  0  0  0  0  0  0  0  0  0  0  0
   57.5700   25.4160   45.2750 C   0  0  0  0  0  0  0  0  0  0  0  0
   56.2050   24.7720   45.1910 C   0  0  0  0  0  0  0  0  0  0  0  0
   55.0540   25.4430   45.6420 C   0  0  0  0  0  0  0  0  0  0  0  0
   55.1520   26.7050   46.2240 O   0  0  0  0  0  0  0  0  0  0  0  0
   53.8320   24.8620   45.5060 N   0  0  0  0  0  0  0  0  0  0  0  0
   53.6960   23.6400   44.9310 C   0  0  0  0  0  0  0  0  0  0  0  0
   52.5550   23.1240   44.8180 O   0  0  0  0  0  0  0  0  0  0  0  0
   54.7880   22.9770   44.4770 N   0  0  0  0  0  0  0  0  0  0  0  0
   56.0310   23.5110   44.5880 C   0  0  0  0  0  0  0  0  0  0  0  0
   57.0190   22.8700   44.1400 O   0  0  0  0  0  0  0  0  0  0  0  0
   57.8230   30.3580   45.6610 C   0  0  0  0  0  0  0  0  0  0  0  0
   57.3870   31.6030   45.1850 C   0  0  0  0  0  0  0  0  0  0  0  0
   58.1620   32.7480   45.3990 C   0  0  0  0  0  0  0  0  0  0  0  0
   59.3860   32.6560   46.0770 C   0  0  0  0  0  0  0  0  0  0  0  0
   60.3270   34.1080   46.4170 S   0  0  0  0  0  0  0  0  0  0  0  0
   59.7860   35.2520   45.6050 O   0  0  0  0  0  0  0  0  0  0  0  0
   61.7550   33.8800   46.0010 O   0  0  0  0  0  0  0  0  0  0  0  0
   60.2750   34.5350   48.1150 N   0  0  0  0  0  0  0  0  0  0  0  0
   59.2620   33.7470   48.8250 C   0  0  0  0  0  0  0  0  0  0  0  0
   59.9560   32.5730   49.4990 C   0  0  0  0  0  0  0  0  0  0  0  0
   61.4300   32.9260   49.5220 C   0  0  0  0  0  0  0  0  0  0  0  0
   61.5540   34.2480   48.7770 C   0  0  0  0  0  0  0  0  0  0  0  0
   59.8440   31.4050   46.5090 C   0  0  0  0  0  0  0  0  0  0  0  0
   59.0670   30.2640   46.3030 C   0  0  0  0  0  0  0  0  0  0  0  0
   56.6751   26.9069   43.9954 H   0  0  0  0  0  0  0  0  0  0  0  0
   58.4770   26.9351   44.0444 H   0  0  0  0  0  0  0  0  0  0  0  0
   58.2987   24.7843   44.7460 H   0  0  0  0  0  0  0  0  0  0  0  0
   57.8446   25.5169   46.3354 H   0  0  0  0  0  0  0  0  0  0  0  0
   55.9510   27.3000   46.0440 H   0  0  0  0  0  0  0  0  0  0  0  0
   56.4334   31.6795   44.6421 H   0  0  0  0  0  0  0  0  0  0  0  0
   57.8098   33.7241   45.0340 H   0  0  0  0  0  0  0  0  0  0  0  0
   58.7684   34.3725   49.5833 H   0  0  0  0  0  0  0  0  0  0  0  0
   58.5014   33.3829   48.1186 H   0  0  0  0  0  0  0  0  0  0  0  0
   59.5774   32.4402   50.5232 H   0  0  0  0  0  0  0  0  0  0  0  0
   59.7726   31.6304   48.9624 H   0  0  0  0  0  0  0  0  0  0  0  0
   61.7808   33.0366   50.5587 H   0  0  0  0  0  0  0  0  0  0  0  0
   62.0409   32.1399   49.0542 H   0  0  0  0  0  0  0  0  0  0  0  0
   61.7921   35.0530   49.4879 H   0  0  0  0  0  0  0  0  0  0  0  0
   62.3580   34.1836   48.0290 H   0  0  0  0  0  0  0  0  0  0  0  0
   60.8187   31.3214   47.0120 H   0  0  0  0  0  0  0  0  0  0  0  0
   59.4323   29.2848   46.6462 H   0  0  0  0  0  0  0  0  0  0  0  0
  1  2  2  0
  2  3  1  0
  3  4  1  0
  4  5  1  0
  5  6  1  0
  6  7  2  0
  7  8  1  0
  7  9  1  0
  9 10  1  0
 10 11  2  0
 10 12  1  0
 12 13  1  0
 13 14  2  0
  2 15  1  0
 15 16  2  0
 16 17  1  0
 17 18  2  0
 18 19  1  0
 19 20  2  0
 19 21  2  0
 19 22  1  0
 22 23  1  0
 23 24  1  0
 24 25  1  0
 25 26  1  0
 18 27  1  0
 27 28  2  0
 13  6  1  0
 28 15  1  0
 26 22  1  0
  4 29  1  0
  4 30  1  0
  5 31  1  0
  5 32  1  0
  8 33  1  0
 16 34  1  0
 17 35  1  0
 23 36  1  0
 23 37  1  0
 24 38  1  0
 24 39  1  0
 25 40  1  0
 25 41  1  0
 26 42  1  0
 26 43  1  0
 27 44  1  0
 28 45  1  0
M  CHG  3   3  -1   9  -1  12  -1
M  END
>  <UniqueID>  (29) 
27

>  <SMILES>  (29) 
O=C([N-]CCc1c(O)[n-]c(=O)[n-]c1=O)c1ccc(S(=O)(=O)N2CCCC2)cc1

>  <Energy>  (29) 
49.53068145027766

>  <Genealogy>  (29) 
O=C([N-]CCc1c(O)[n-]c(=O)[n-]c1=O)c1ccc(S(=O)(=O)N2CCCC2)cc1 (protonated)
O=C([N-]CCc1c(O)[n-]c(=O)[n-]c1=O)c1ccc(S(=O)(=O)N2CCCC2)cc1 (3D coordinates assigned)
O=C([N-]CCc1c(O)[n-]c(=O)[n-]c1=O)c1ccc(S(=O)(=O)N2CCCC2)cc1 (nonaromatic ring conformer: 49.53068145027766 kcal/mol)

>  <smiles>  (29) 
O=C(NCCc1c(O)[nH]c(=O)[nH]c1=O)c1ccc(S(=O)(=O)N2CCCC2)cc1

>  <score_type>  (29) 
oracle

>  <origin>  (29) 
adg

>  <m_score__min__energy>  (29) 
-14.35

>  <m_primary>  (29) 
energy

$$$$
29:0
     RDKit          3D

 78 82  0  0  0  0  0  0  0  0999 V2000
   59.2910   33.5520   55.1120 C   0  0  0  0  0  0  0  0  0  0  0  0
   59.1820   32.1860   54.7190 O   0  0  0  0  0  0  0  0  0  0  0  0
   58.5930   31.7460   53.5230 C   0  0  0  0  0  0  0  0  0  0  0  0
   59.0800   32.1500   52.2690 C   0  0  0  0  0  0  0  0  0  0  0  0
   58.4560   31.7240   51.0870 C   0  0  0  0  0  0  0  0  0  0  0  0
   58.9680   32.1020   49.7060 C   0  0  1  0  0  0  0  0  0  0  0  0
   59.4790   33.5270   49.6040 C   0  0  0  0  0  0  0  0  0  0  0  0
   59.5620   34.2400   50.6410 O   0  0  0  0  0  0  0  0  0  0  0  0
   59.8860   34.1020   48.3490 N   0  0  0  0  0  0  0  0  0  0  0  0
   59.0040   34.5180   47.2610 C   0  0  0  0  0  0  0  0  0  0  0  0
   59.7280   34.6460   45.9310 C   0  0  0  0  0  0  0  0  0  0  0  0
   58.6810   34.3480   44.8670 C   0  0  0  0  0  0  0  0  0  0  0  0
   57.6270   33.4660   45.5290 C   0  0  0  0  0  0  0  0  0  0  0  0
   57.9330   33.4600   47.0250 C   0  0  0  0  0  0  0  0  0  0  0  0
   59.9710   31.1170   49.2190 N   0  0  0  0  0  0  0  0  0  0  0  0
   61.3840   31.1470   49.6620 C   0  0  0  0  0  0  0  0  0  0  0  0
   62.2210   32.1070   48.8510 C   0  0  0  0  0  0  0  0  0  0  0  0
   62.5590   31.8140   47.5160 C   0  0  0  0  0  0  0  0  0  0  0  0
   63.3150   32.7200   46.7600 C   0  0  0  0  0  0  0  0  0  0  0  0
   63.7510   33.9230   47.3300 C   0  0  0  0  0  0  0  0  0  0  0  0
   63.4400   34.2140   48.6620 C   0  0  0  0  0  0  0  0  0  0  0  0
   62.6840   33.3090   49.4220 C   0  0  0  0  0  0  0  0  0  0  0  0
   59.5580   30.0460   48.3320 C   0  0  0  0  0  0  0  0  0  0  0  0
   59.3430   28.8940   48.7990 O   0  0  0  0  0  0  0  0  0  0  0  0
   59.3770   30.2780   46.8540 C   0  0  0  0  0  0  0  0  0  0  0  0
   58.2590   29.4920   46.3410 N   0  0  0  0  0  0  0  0  0  0  0  0
   57.3010   29.9820   45.5680 N   0  0  0  0  0  0  0  0  0  0  0  0
   56.4910   28.9970   45.2170 N   0  0  0  0  0  0  0  0  0  0  0  0
   57.0100   27.8970   45.8060 C   0  0  0  0  0  0  0  0  0  0  0  0
   56.4470   26.5500   45.6630 C   0  0  0  0  0  0  0  0  0  0  0  0
   57.1610   25.3910   45.4190 C   0  0  0  0  0  0  0  0  0  0  0  0
   56.2210   24.3860   45.3380 C   0  0  0  0  0  0  0  0  0  0  0  0
   55.0010   24.9970   45.5470 C   0  0  0  0  0  0  0  0  0  0  0  0
   53.6740   24.3100   45.5870 C   0  0  0  0  0  0  0  0  0  0  0  0
   55.1650   26.2850   45.7330 O   0  0  0  0  0  0  0  0  0  0  0  0
   58.1250   28.1870   46.5020 N   0  0  0  0  0  0  0  0  0  0  0  0
   57.3420   30.8780   51.1780 C   0  0  0  0  0  0  0  0  0  0  0  0
   56.8450   30.4550   52.4220 C   0  0  0  0  0  0  0  0  0  0  0  0
   55.7370   29.6000   52.4960 O   0  0  0  0  0  0  0  0  0  0  0  0
   54.4190   29.9310   52.0600 C   0  0  0  0  0  0  0  0  0  0  0  0
   57.4840   30.8930   53.6080 C   0  0  0  0  0  0  0  0  0  0  0  0
   57.0740   30.5120   54.8990 O   0  0  0  0  0  0  0  0  0  0  0  0
   55.7310   30.3940   55.3570 C   0  0  0  0  0  0  0  0  0  0  0  0
   59.2963   33.6183   56.2100 H   0  0  0  0  0  0  0  0  0  0  0  0
   60.2257   33.9744   54.7146 H   0  0  0  0  0  0  0  0  0  0  0  0
   58.4351   34.1173   54.7146 H   0  0  0  0  0  0  0  0  0  0  0  0
   59.9601   32.8075   52.2132 H   0  0  0  0  0  0  0  0  0  0  0  0
   58.0935   32.0650   49.0398 H   0  0  0  0  0  0  0  0  0  0  0  0
   58.5940   35.4905   47.5712 H   0  0  0  0  0  0  0  0  0  0  0  0
   60.1243   35.6644   45.8056 H   0  0  0  0  0  0  0  0  0  0  0  0
   60.5840   33.9583   45.8648 H   0  0  0  0  0  0  0  0  0  0  0  0
   58.2244   35.2833   44.5112 H   0  0  0  0  0  0  0  0  0  0  0  0
   59.1302   33.8455   43.9977 H   0  0  0  0  0  0  0  0  0  0  0  0
   56.6225   33.8768   45.3496 H   0  0  0  0  0  0  0  0  0  0  0  0
   57.6505   32.4462   45.1173 H   0  0  0  0  0  0  0  0  0  0  0  0
   57.0264   33.7050   47.5977 H   0  0  0  0  0  0  0  0  0  0  0  0
   58.2794   32.4686   47.3525 H   0  0  0  0  0  0  0  0  0  0  0  0
   61.4168   31.4545   50.7176 H   0  0  0  0  0  0  0  0  0  0  0  0
   61.8007   30.1385   49.5229 H   0  0  0  0  0  0  0  0  0  0  0  0
   62.2275   30.8678   47.0635 H   0  0  0  0  0  0  0  0  0  0  0  0
   63.5669   32.4856   45.7152 H   0  0  0  0  0  0  0  0  0  0  0  0
   64.3363   34.6367   46.7316 H   0  0  0  0  0  0  0  0  0  0  0  0
   63.7887   35.1540   49.1146 H   0  0  0  0  0  0  0  0  0  0  0  0
   62.4509   33.5396   50.4720 H   0  0  0  0  0  0  0  0  0  0  0  0
   59.1787   31.3455   46.6778 H   0  0  0  0  0  0  0  0  0  0  0  0
   60.2950   29.9690   46.3327 H   0  0  0  0  0  0  0  0  0  0  0  0
   58.2513   25.2918   45.3119 H   0  0  0  0  0  0  0  0  0  0  0  0
   56.4050   23.3185   45.1465 H   0  0  0  0  0  0  0  0  0  0  0  0
   53.3731   24.1542   46.6335 H   0  0  0  0  0  0  0  0  0  0  0  0
   52.9233   24.9327   45.0785 H   0  0  0  0  0  0  0  0  0  0  0  0
   53.7491   23.3375   45.0785 H   0  0  0  0  0  0  0  0  0  0  0  0
   56.8468   30.5384   50.2564 H   0  0  0  0  0  0  0  0  0  0  0  0
   53.7731   30.0932   52.9355 H   0  0  0  0  0  0  0  0  0  0  0  0
   54.4528   30.8485   51.4542 H   0  0  0  0  0  0  0  0  0  0  0  0
   54.0153   29.1064   51.4542 H   0  0  0  0  0  0  0  0  0  0  0  0
   55.7175   30.3928   56.4569 H   0  0  0  0  0  0  0  0  0  0  0  0
   55.1404   31.2437   54.9840 H   0  0  0  0  0  0  0  0  0  0  0  0
   55.2976   29.4543   54.9840 H   0  0  0  0  0  0  0  0  0  0  0  0
  1  2  1  0
  2  3  1  0
  3  4  2  0
  4  5  1  0
  5  6  1  0
  6  7  1  0
  7  8  2  0
  7  9  1  0
  9 10  1  0
 10 11  1  0
 11 12  1  0
 12 13  1  0
 13 14  1  0
  6 15  1  0
 15 16  1  0
 16 17  1  0
 17 18  2  0
 18 19  1  0
 19 20  2  0
 20 21  1  0
 21 22  2  0
 15 23  1  0
 23 24  2  0
 23 25  1  0
 25 26  1  0
 26 27  1  0
 27 28  2  0
 28 29  1  0
 29 30  1  0
 30 31  2  0
 31 32  1  0
 32 33  2  0
 33 34  1  0
 33 35  1  0
 29 36  2  0
  5 37  2  0
 37 38  1  0
 38 39  1  0
 39 40  1  0
 38 41  2  0
 41 42  1  0
 42 43  1  0
 41  3  1  0
 14 10  1  0
 22 17  1  0
 36 26  1  0
 35 30  1  0
  1 44  1  0
  1 45  1  0
  1 46  1  0
  4 47  1  0
  6 48  1  6
 10 49  1  0
 11 50  1  0
 11 51  1  0
 12 52  1  0
 12 53  1  0
 13 54  1  0
 13 55  1  0
 14 56  1  0
 14 57  1  0
 16 58  1  0
 16 59  1  0
 18 60  1  0
 19 61  1  0
 20 62  1  0
 21 63  1  0
 22 64  1  0
 25 65  1  0
 25 66  1  0
 31 67  1  0
 32 68  1  0
 34 69  1  0
 34 70  1  0
 34 71  1  0
 37 72  1  0
 40 73  1  0
 40 74  1  0
 40 75  1  0
 43 76  1  0
 43 77  1  0
 43 78  1  0
M  CHG  1   9  -1
M  END
>  <UniqueID>  (30) 
28

>  <SMILES>  (30) 
COc1cc([C@@H](C(=O)[N-]C2CCCC2)N(Cc2ccccc2)C(=O)Cn2nnc(-c3ccc(C)o3)n2)cc(OC)c1OC

>  <Energy>  (30) 
151.47416421572

>  <Genealogy>  (30) 
COc1cc(C(C(=O)[N-]C2CCCC2)N(Cc2ccccc2)C(=O)Cn2nnc(-c3ccc(C)o3)n2)cc(OC)c1OC (protonated)
COc1cc([C@@H](C(=O)[N-]C2CCCC2)N(Cc2ccccc2)C(=O)Cn2nnc(-c3ccc(C)o3)n2)cc(OC)c1OC (chirality)
COc1cc([C@@H](C(=O)[N-]C2CCCC2)N(Cc2ccccc2)C(=O)Cn2nnc(-c3ccc(C)o3)n2)cc(OC)c1OC (3D coordinates assigned)
COc1cc([C@@H](C(=O)[N-]C2CCCC2)N(Cc2ccccc2)C(=O)Cn2nnc(-c3ccc(C)o3)n2)cc(OC)c1OC (nonaromatic ring conformer: 151.47416421572 kcal/mol)

>  <smiles>  (30) 
COc1cc(C(C(=O)NC2CCCC2)N(Cc2ccccc2)C(=O)Cn2nnc(-c3ccc(C)o3)n2)cc(OC)c1OC

>  <score_type>  (30) 
oracle

>  <origin>  (30) 
adg

>  <m_score__min__energy>  (30) 
-10.32

>  <m_primary>  (30) 
energy

$$$$
30:0
     RDKit          3D

 29 31  0  0  0  0  0  0  0  0999 V2000
   54.7980   29.7560   51.7180 O   0  0  0  0  0  0  0  0  0  0  0  0
   54.4330   30.8830   52.1450 C   0  0  0  0  0  0  0  0  0  0  0  0
   52.9910   31.1250   52.4540 C   0  0  0  0  0  0  0  0  0  0  0  0
   52.2120   31.2430   51.1830 C   0  0  0  0  0  0  0  0  0  0  0  0
   52.2140   30.3170   50.2070 N   0  0  0  0  0  0  0  0  0  0  0  0
   51.3310   30.8100   49.3110 C   0  0  0  0  0  0  0  0  0  0  0  0
   51.0590   30.2200   48.2340 O   0  0  0  0  0  0  0  0  0  0  0  0
   50.7580   31.9820   49.6620 N   0  0  0  0  0  0  0  0  0  0  0  0
   51.3230   32.2380   50.8530 C   0  0  0  0  0  0  0  0  0  0  0  0
   51.0260   33.3540   51.6260 O   0  0  0  0  0  0  0  0  0  0  0  0
   55.3840   31.9360   52.3480 N   0  0  0  0  0  0  0  0  0  0  0  0
   56.7680   31.9160   51.9750 C   0  0  0  0  0  0  0  0  0  0  0  0
   57.5670   33.0190   52.3010 C   0  0  0  0  0  0  0  0  0  0  0  0
   58.9180   33.0530   51.9410 C   0  0  0  0  0  0  0  0  0  0  0  0
   59.4810   31.9880   51.2330 C   0  0  0  0  0  0  0  0  0  0  0  0
   60.7940   32.0190   50.8800 N   0  0  0  0  0  0  0  0  0  0  0  0
   61.3720   31.0050   50.1820 C   0  0  0  0  0  0  0  0  0  0  0  0
   62.5910   31.0720   49.8750 O   0  0  0  0  0  0  0  0  0  0  0  0
   60.6140   29.8900   49.8060 C   0  0  0  0  0  0  0  0  0  0  0  0
   59.2620   29.8290   50.1550 C   0  0  0  0  0  0  0  0  0  0  0  0
   58.6810   30.8800   50.8770 C   0  0  0  0  0  0  0  0  0  0  0  0
   57.3260   30.8500   51.2420 C   0  0  0  0  0  0  0  0  0  0  0  0
   52.5986   30.2849   53.0458 H   0  0  0  0  0  0  0  0  0  0  0  0
   52.8947   32.0594   53.0264 H   0  0  0  0  0  0  0  0  0  0  0  0
   57.1274   33.8674   52.8459 H   0  0  0  0  0  0  0  0  0  0  0  0
   59.5381   33.9191   52.2155 H   0  0  0  0  0  0  0  0  0  0  0  0
   61.0785   29.0687   49.2406 H   0  0  0  0  0  0  0  0  0  0  0  0
   58.6558   28.9585   49.8638 H   0  0  0  0  0  0  0  0  0  0  0  0
   56.6988   29.9930   50.9553 H   0  0  0  0  0  0  0  0  0  0  0  0
  1  2  2  0
  2  3  1  0
  3  4  1  0
  4  5  1  0
  5  6  1  0
  6  7  2  0
  6  8  1  0
  8  9  1  0
  9 10  1  0
  2 11  1  0
 11 12  1  0
 12 13  2  0
 13 14  1  0
 14 15  2  0
 15 16  1  0
 16 17  1  0
 17 18  2  0
 17 19  1  0
 19 20  2  0
 20 21  1  0
 21 22  2  0
  9  4  2  0
 22 12  1  0
 21 15  1  0
  3 23  1  0
  3 24  1  0
 13 25  1  0
 14 26  1  0
 19 27  1  0
 20 28  1  0
 22 29  1  0
M  CHG  5   5  -1   8  -1  10  -1  11  -1  16  -1
M  END
>  <UniqueID>  (31) 
29

>  <SMILES>  (31) 
O=C(Cc1[n-]c(=O)[n-]c1[O-])[N-]c1ccc2[n-]c(=O)ccc2c1

>  <Energy>  (31) 
65.56430159986475

>  <Genealogy>  (31) 
O=C(Cc1[n-]c(=O)[n-]c1[O-])[N-]c1ccc2[n-]c(=O)ccc2c1 (protonated)
O=C(Cc1[n-]c(=O)[n-]c1[O-])[N-]c1ccc2[n-]c(=O)ccc2c1 (3D coordinates assigned)
O=C(Cc1[n-]c(=O)[n-]c1[O-])[N-]c1ccc2[n-]c(=O)ccc2c1 (optimized conformer: 65.56430159986475 kcal/mol)

>  <smiles>  (31) 
O=C(Cc1[nH]c(=O)[nH]c1O)Nc1ccc2[nH]c(=O)ccc2c1

>  <score_type>  (31) 
oracle

>  <origin>  (31) 
adg

>  <m_score__min__energy>  (31) 
-17.140000000000001

>  <m_primary>  (31) 
energy

$$$$
31:0
     RDKit          3D

 46 48  0  0  0  0  0  0  0  0999 V2000
   55.2040   27.0760   45.1200 H   0  0  0  0  0  0  0  0  0  0  0  0
   55.5290   26.7210   46.0470 N   0  0  0  0  0  0  0  0  0  0  0  0
   56.7910   26.0710   46.1810 C   0  0  0  0  0  0  0  0  0  0  0  0
   56.9820   24.9740   45.5900 O   0  0  0  0  0  0  0  0  0  0  0  0
   57.8520   26.6680   47.0270 C   0  0  0  0  0  0  0  0  0  0  0  0
   58.6650   25.8280   47.8070 C   0  0  0  0  0  0  0  0  0  0  0  0
   58.4747   24.7447   47.8217 H   0  0  0  0  0  0  0  0  0  0  0  0
   59.6840   26.3430   48.5430 N   0  0  0  0  0  0  0  0  0  0  0  0
   59.9700   27.6690   48.5660 C   0  0  0  0  0  0  0  0  0  0  0  0
   60.9580   28.0780   49.3110 N   0  0  0  0  0  0  0  0  0  0  0  0
   61.0840   29.3400   49.9860 C   0  0  0  0  0  0  0  0  0  0  0  0
   60.4480   29.5170   51.0580 O   0  0  0  0  0  0  0  0  0  0  0  0
   61.8870   30.4870   49.4210 C   0  0  0  0  0  0  0  0  0  0  0  0
   62.3351   31.0464   50.2555 H   0  0  0  0  0  0  0  0  0  0  0  0
   62.6526   30.0586   48.7574 H   0  0  0  0  0  0  0  0  0  0  0  0
   61.0540   31.4370   48.5970 C   0  0  0  0  0  0  0  0  0  0  0  0
   59.7130   31.6890   48.9370 C   0  0  0  0  0  0  0  0  0  0  0  0
   59.2554   31.1623   49.7874 H   0  0  0  0  0  0  0  0  0  0  0  0
   58.9590   32.6060   48.1990 C   0  0  0  0  0  0  0  0  0  0  0  0
   57.9157   32.8117   48.4803 H   0  0  0  0  0  0  0  0  0  0  0  0
   59.5290   33.2620   47.1040 C   0  0  0  0  0  0  0  0  0  0  0  0
   58.5820   34.4150   46.1830 Cl  0  0  0  0  0  0  0  0  0  0  0  0
   60.8550   32.9980   46.7440 C   0  0  0  0  0  0  0  0  0  0  0  0
   61.2997   33.5051   45.8750 H   0  0  0  0  0  0  0  0  0  0  0  0
   61.6150   32.0910   47.4870 C   0  0  0  0  0  0  0  0  0  0  0  0
   62.6577   31.8879   47.2016 H   0  0  0  0  0  0  0  0  0  0  0  0
   59.2050   28.5450   47.7760 C   0  0  0  0  0  0  0  0  0  0  0  0
   59.4588   29.6146   47.7376 H   0  0  0  0  0  0  0  0  0  0  0  0
   58.1200   28.0560   47.0380 C   0  0  0  0  0  0  0  0  0  0  0  0
   57.2790   28.9940   46.3550 N   0  0  0  0  0  0  0  0  0  0  0  0
   56.5720   28.5950   45.6950 H   0  0  0  0  0  0  0  0  0  0  0  0
   57.7760   30.3380   46.0640 C   0  0  0  0  0  0  0  0  0  0  0  0
   57.2501   31.0649   46.7005 H   0  0  0  0  0  0  0  0  0  0  0  0
   58.8566   30.3712   46.2669 H   0  0  0  0  0  0  0  0  0  0  0  0
   57.5390   30.6820   44.6170 C   0  0  0  0  0  0  0  0  0  0  0  0
   58.3320   31.6590   43.9890 C   0  0  0  0  0  0  0  0  0  0  0  0
   59.1371   32.1548   44.5511 H   0  0  0  0  0  0  0  0  0  0  0  0
   58.1020   32.0030   42.6540 C   0  0  0  0  0  0  0  0  0  0  0  0
   58.7318   32.7619   42.1668 H   0  0  0  0  0  0  0  0  0  0  0  0
   57.0750   31.3860   41.9370 C   0  0  0  0  0  0  0  0  0  0  0  0
   56.8970   31.6583   40.8862 H   0  0  0  0  0  0  0  0  0  0  0  0
   56.2730   30.4220   42.5550 C   0  0  0  0  0  0  0  0  0  0  0  0
   55.4639   29.9380   41.9883 H   0  0  0  0  0  0  0  0  0  0  0  0
   56.4950   30.0690   43.8940 C   0  0  0  0  0  0  0  0  0  0  0  0
   55.6830   29.1160   44.5080 O   0  0  0  0  0  0  0  0  0  0  0  0
   55.8930   28.1260   44.4540 H   0  0  0  0  0  0  0  0  0  0  0  0
  1  2  1  0
  2  3  1  0
  3  4  2  0
  3  5  1  0
  5  6  2  0
  6  7  1  0
  6  8  1  0
  8  9  1  0
  9 10  2  0
 10 11  1  0
 11 12  2  0
 11 13  1  0
 13 14  1  0
 13 15  1  0
 13 16  1  0
 16 17  2  0
 17 18  1  0
 17 19  1  0
 19 20  1  0
 19 21  2  0
 21 22  1  0
 21 23  1  0
 23 24  1  0
 23 25  2  0
 25 26  1  0
  9 27  1  0
 27 28  1  0
 27 29  2  0
 29 30  1  0
 30 31  1  0
 30 32  1  0
 32 33  1  0
 32 34  1  0
 32 35  1  0
 35 36  2  0
 36 37  1  0
 36 38  1  0
 38 39  1  0
 38 40  2  0
 40 41  1  0
 40 42  1  0
 42 43  1  0
 42 44  2  0
 44 45  1  0
 45 46  1  0
 29  5  1  0
 44 35  1  0
 25 16  1  0
M  CHG  2   2  -1   8  -1
M  END
>  <UniqueID>  (32) 
30

>  <SMILES>  (32) 
[NH-]C(=O)c1c[n-]/c(=N/C(=O)Cc2ccc(Cl)cc2)cc1NCc1ccccc1O

>  <Energy>  (32) 
63.39068057245804

>  <Genealogy>  (32) 
[NH-]C(=O)c1c[n-]c(=NC(=O)Cc2ccc(Cl)cc2)cc1NCc1ccccc1O (protonated)
[NH-]C(=O)c1c[n-]/c(=N/C(=O)Cc2ccc(Cl)cc2)cc1NCc1ccccc1O (cis-trans isomerization)
[NH-]C(=O)c1c[n-]/c(=N/C(=O)Cc2ccc(Cl)cc2)cc1NCc1ccccc1O (3D coordinates assigned)
[NH-]C(=O)c1c[n-]/c(=N/C(=O)Cc2ccc(Cl)cc2)cc1NCc1ccccc1O (optimized conformer: 63.39068057245804 kcal/mol)

>  <smiles>  (32) 
NC(=O)c1c[nH]c(=NC(=O)Cc2ccc(Cl)cc2)cc1NCc1ccccc1O

>  <score_type>  (32) 
oracle

>  <origin>  (32) 
adg

>  <m_score__min__energy>  (32) 
-13.48

>  <m_primary>  (32) 
energy

$$$$
32:0
     RDKit          3D

 69 73  0  0  1  0  0  0  0  0999 V2000
   63.1660   31.9020   52.2810 C   0  0  0  0  0  0  0  0  0  0  0  0
   64.1750   32.8960   52.1990 N   0  0  0  0  0  0  0  0  0  0  0  0
   65.4020   32.5160   51.5800 C   0  0  0  0  0  0  0  0  0  0  0  0
   65.3260   32.6510   50.0900 C   0  0  0  0  0  0  0  0  0  0  0  0
   64.0670   33.2360   49.6850 N   0  0  0  0  0  0  0  0  0  0  0  0
   63.4510   32.7340   48.5220 C   0  0  0  0  0  0  0  0  0  0  0  0
   64.0440   31.7850   47.8890 O   0  0  0  0  0  0  0  0  0  0  0  0
   62.2000   33.1780   47.9460 C   0  0  0  0  0  0  0  0  0  0  0  0
   62.2110   33.4940   46.5950 C   0  0  0  0  0  0  0  0  0  0  0  0
   61.0250   33.9290   46.0620 C   0  0  0  0  0  0  0  0  0  0  0  0
   59.8500   34.0750   46.7380 C   0  0  0  0  0  0  0  0  0  0  0  0
   58.6230   34.6500   46.1070 C   0  0  0  0  0  0  0  0  0  0  0  0
   57.5300   33.6940   46.1790 N   0  0  0  0  0  0  0  0  0  0  0  0
   57.6010   32.3430   45.7830 C   0  0  0  0  0  0  0  0  0  0  0  0
   58.1830   31.3400   46.5200 C   0  0  0  0  0  0  0  0  0  0  0  0
   58.2070   30.0290   46.0690 C   0  0  0  0  0  0  0  0  0  0  0  0
   57.6170   29.7840   44.8490 C   0  0  0  0  0  0  0  0  0  0  0  0
   57.4680   28.6230   44.1230 C   0  0  0  0  0  0  0  0  0  0  0  0
   57.8360   27.4470   44.3680 N   0  0  0  0  0  0  0  0  0  0  0  0
   59.0750   27.1590   44.9800 C   0  0  0  0  0  0  0  0  0  0  0  0
   59.9910   27.9770   44.7120 O   0  0  0  0  0  0  0  0  0  0  0  0
   59.1510   25.9950   45.8290 C   0  0  0  0  0  0  0  0  0  0  0  0
   58.2110   25.1360   46.0820 C   0  0  0  0  0  0  0  0  0  0  0  0
   57.6140   24.1460   45.2430 C   0  0  0  0  0  0  0  0  0  0  0  0
   57.0090   24.2520   44.0460 C   0  0  0  0  0  0  0  0  0  0  0  0
   56.6190   23.1690   43.2460 C   0  0  0  0  0  0  0  0  0  0  0  0
   56.8570   21.8960   43.6950 C   0  0  0  0  0  0  0  0  0  0  0  0
   56.5180   20.7580   42.9960 O   0  0  0  0  0  0  0  0  0  0  0  0
   57.4680   21.7360   44.9160 C   0  0  0  0  0  0  0  0  0  0  0  0
   57.7330   20.4490   45.4270 O   0  0  0  0  0  0  0  0  0  0  0  0
   57.8410   22.8080   45.6770 C   0  0  0  0  0  0  0  0  0  0  0  0
   56.8000   28.9420   42.9710 N   0  0  0  0  0  0  0  0  0  0  0  0
   56.5300   30.2340   42.9460 N   0  0  0  0  0  0  0  0  0  0  0  0
   57.0190   30.7600   44.0780 C   0  0  0  0  0  0  0  0  0  0  0  0
   57.0110   32.0450   44.5460 C   0  0  0  0  0  0  0  0  0  0  0  0
   59.8390   33.7530   48.1090 C   0  0  0  0  0  0  0  0  0  0  0  0
   61.0220   33.3090   48.6900 C   0  0  0  0  0  0  0  0  0  0  0  0
   63.3950   34.3010   50.3950 C   0  0  0  0  0  0  0  0  0  0  0  0
   63.7350   34.2160   51.8540 C   0  0  0  0  0  0  0  0  0  0  0  0
   62.9479   31.6872   53.3375 H   0  0  0  0  0  0  0  0  0  0  0  0
   62.2536   32.2639   51.7845 H   0  0  0  0  0  0  0  0  0  0  0  0
   63.5142   30.9843   51.7845 H   0  0  0  0  0  0  0  0  0  0  0  0
   66.2085   33.1618   51.9574 H   0  0  0  0  0  0  0  0  0  0  0  0
   65.6009   31.4617   51.8229 H   0  0  0  0  0  0  0  0  0  0  0  0
   66.1488   33.2943   49.7449 H   0  0  0  0  0  0  0  0  0  0  0  0
   65.4060   31.6490   49.6433 H   0  0  0  0  0  0  0  0  0  0  0  0
   63.1215   33.4006   45.9849 H   0  0  0  0  0  0  0  0  0  0  0  0
   61.0211   34.1833   44.9918 H   0  0  0  0  0  0  0  0  0  0  0  0
   58.3375   35.5699   46.6383 H   0  0  0  0  0  0  0  0  0  0  0  0
   58.8336   34.8777   45.0516 H   0  0  0  0  0  0  0  0  0  0  0  0
   56.6250   34.0930   46.5710 H   0  0  0  0  0  0  0  0  0  0  0  0
   58.6406   31.5827   47.4904 H   0  0  0  0  0  0  0  0  0  0  0  0
   58.6740   29.2248   46.6564 H   0  0  0  0  0  0  0  0  0  0  0  0
   60.1189   25.8141   46.3194 H   0  0  0  0  0  0  0  0  0  0  0  0
   57.8104   25.1771   47.1056 H   0  0  0  0  0  0  0  0  0  0  0  0
   56.8051   25.2642   43.6667 H   0  0  0  0  0  0  0  0  0  0  0  0
   56.1305   23.3378   42.2750 H   0  0  0  0  0  0  0  0  0  0  0  0
   56.8840   19.8500   43.2360 H   0  0  0  0  0  0  0  0  0  0  0  0
   57.7460   19.6960   44.7570 H   0  0  0  0  0  0  0  0  0  0  0  0
   58.3281   22.6338   46.6478 H   0  0  0  0  0  0  0  0  0  0  0  0
   56.5460   28.2760   42.2370 H   0  0  0  0  0  0  0  0  0  0  0  0
   56.0180   30.6990   42.1500 H   0  0  0  0  0  0  0  0  0  0  0  0
   56.5423   32.8440   43.9528 H   0  0  0  0  0  0  0  0  0  0  0  0
   58.9192   33.8501   48.7044 H   0  0  0  0  0  0  0  0  0  0  0  0
   61.0320   33.0547   49.7601 H   0  0  0  0  0  0  0  0  0  0  0  0
   63.7237   35.2724   49.9971 H   0  0  0  0  0  0  0  0  0  0  0  0
   62.3073   34.2024   50.2637 H   0  0  0  0  0  0  0  0  0  0  0  0
   64.5374   34.9339   52.0796 H   0  0  0  0  0  0  0  0  0  0  0  0
   62.8342   34.4513   52.4398 H   0  0  0  0  0  0  0  0  0  0  0  0
  1  2  1  0
  2  3  1  0
  3  4  1  0
  4  5  1  0
  5  6  1  0
  6  7  2  0
  6  8  1  0
  8  9  2  0
  9 10  1  0
 10 11  2  0
 11 12  1  0
 12 13  1  0
 13 14  1  0
 14 15  2  0
 15 16  1  0
 16 17  2  0
 17 18  1  0
 18 19  2  0
 19 20  1  0
 20 21  2  0
 20 22  1  0
 22 23  2  0
 23 24  1  0
 24 25  2  0
 25 26  1  0
 26 27  2  0
 27 28  1  0
 27 29  1  0
 29 30  1  0
 29 31  2  0
 18 32  1  0
 32 33  1  0
 33 34  1  0
 34 35  2  0
 11 36  1  0
 36 37  2  0
  5 38  1  0
 38 39  1  0
 39  2  1  0
 37  8  1  0
 35 14  1  0
 34 17  1  0
 31 24  1  0
  1 40  1  0
  1 41  1  0
  1 42  1  0
  3 43  1  0
  3 44  1  0
  4 45  1  0
  4 46  1  0
  9 47  1  0
 10 48  1  0
 12 49  1  0
 12 50  1  0
 13 51  1  0
 15 52  1  0
 16 53  1  0
 22 54  1  0
 23 55  1  0
 25 56  1  0
 26 57  1  0
 28 58  1  0
 30 59  1  0
 31 60  1  0
 32 61  1  0
 33 62  1  0
 35 63  1  0
 36 64  1  0
 37 65  1  0
 38 66  1  0
 38 67  1  0
 39 68  1  0
 39 69  1  0
M  END
>  <smiles>  (33) 
CN1CCN(C(=O)c2ccc(CNc3ccc4c(=NC(=O)C=Cc5ccc(O)c(O)c5)[nH][nH]c4c3)cc2)CC1

>  <score_type>  (33) 
oracle

>  <origin>  (33) 
adg

>  <m_score__min__energy>  (33) 
-10.890000000000001

>  <m_primary>  (33) 
energy

$$$$
33:0
     RDKit          3D

 50 53  0  0  0  0  0  0  0  0999 V2000
   57.0187   23.4122   44.9529 H   0  0  0  0  0  0  0  0  0  0  0  0
   57.0710   24.3390   45.5430 C   0  0  0  0  0  0  0  0  0  0  0  0
   58.4740   25.0630   46.1270 S   0  0  0  0  0  0  0  0  0  0  0  0
   57.6400   26.3200   46.8610 C   0  0  0  0  0  0  0  0  0  0  0  0
   58.2210   27.2810   47.5160 N   0  0  0  0  0  0  0  0  0  0  0  0
   59.6150   27.3550   47.8570 C   0  0  0  0  0  0  0  0  0  0  0  0
   60.4670   26.6760   47.2180 O   0  0  0  0  0  0  0  0  0  0  0  0
   60.0560   28.2260   48.9720 C   0  0  0  0  0  0  0  0  0  0  0  0
   60.4430   27.6690   50.2050 C   0  0  0  0  0  0  0  0  0  0  0  0
   60.4654   26.5761   50.3279 H   0  0  0  0  0  0  0  0  0  0  0  0
   60.7990   28.4950   51.2740 C   0  0  0  0  0  0  0  0  0  0  0  0
   61.1064   28.0499   52.2318 H   0  0  0  0  0  0  0  0  0  0  0  0
   60.7660   29.8830   51.1310 C   0  0  0  0  0  0  0  0  0  0  0  0
   61.0297   30.5283   51.9819 H   0  0  0  0  0  0  0  0  0  0  0  0
   60.3980   30.4570   49.9070 C   0  0  0  0  0  0  0  0  0  0  0  0
   60.2830   31.9530   49.7770 C   0  0  0  0  0  0  0  0  0  0  0  0
   60.7477   32.4267   50.6543 H   0  0  0  0  0  0  0  0  0  0  0  0
   60.7941   32.2639   48.8539 H   0  0  0  0  0  0  0  0  0  0  0  0
   58.5330   32.4720   49.6750 S   0  0  0  0  0  0  0  0  0  0  0  0
   58.4750   32.4630   47.8820 C   0  0  0  0  0  0  0  0  0  0  0  0
   58.6010   31.2900   47.2130 N   0  0  0  0  0  0  0  0  0  0  0  0
   58.4970   31.2310   45.8590 C   0  0  0  0  0  0  0  0  0  0  0  0
   58.6230   29.9150   45.1970 C   0  0  0  0  0  0  0  0  0  0  0  0
   59.9060   29.3520   45.0840 C   0  0  0  0  0  0  0  0  0  0  0  0
   60.7678   29.8673   45.5332 H   0  0  0  0  0  0  0  0  0  0  0  0
   60.0980   28.1480   44.4090 C   0  0  0  0  0  0  0  0  0  0  0  0
   61.1056   27.7126   44.3366 H   0  0  0  0  0  0  0  0  0  0  0  0
   59.0140   27.4960   43.8260 C   0  0  0  0  0  0  0  0  0  0  0  0
   59.1683   26.5489   43.2883 H   0  0  0  0  0  0  0  0  0  0  0  0
   57.7320   28.0410   43.9220 C   0  0  0  0  0  0  0  0  0  0  0  0
   56.8837   27.5203   43.4537 H   0  0  0  0  0  0  0  0  0  0  0  0
   57.5120   29.2490   44.6110 C   0  0  0  0  0  0  0  0  0  0  0  0
   56.1190   29.7580   44.7180 C   0  0  0  0  0  0  0  0  0  0  0  0
   55.1490   28.9720   44.8720 O   0  0  0  0  0  0  0  0  0  0  0  0
   55.8650   31.1210   44.6110 O   0  0  0  0  0  0  0  0  0  0  0  0
   58.2470   32.4110   45.1320 C   0  0  0  0  0  0  0  0  0  0  0  0
   58.1360   32.4000   43.6900 C   0  0  0  0  0  0  0  0  0  0  0  0
   58.0480   32.3890   42.5360 N   0  0  0  0  0  0  0  0  0  0  0  0
   58.1310   33.6140   45.8430 C   0  0  0  0  0  0  0  0  0  0  0  0
   57.9090   34.6980   45.2360 O   0  0  0  0  0  0  0  0  0  0  0  0
   58.2550   33.6180   47.1980 N   0  0  0  0  0  0  0  0  0  0  0  0
   58.1550   34.5160   47.7240 H   0  0  0  0  0  0  0  0  0  0  0  0
   60.0580   29.6240   48.8280 C   0  0  0  0  0  0  0  0  0  0  0  0
   59.7903   30.0711   47.8593 H   0  0  0  0  0  0  0  0  0  0  0  0
   56.3040   26.2180   46.6790 N   0  0  0  0  0  0  0  0  0  0  0  0
   55.9870   25.1210   45.9390 C   0  0  0  0  0  0  0  0  0  0  0  0
   54.5720   24.7620   45.6300 C   0  0  0  0  0  0  0  0  0  0  0  0
   54.0161   24.6210   46.5687 H   0  0  0  0  0  0  0  0  0  0  0  0
   54.1075   25.5708   45.0468 H   0  0  0  0  0  0  0  0  0  0  0  0
   54.5492   23.8296   45.0468 H   0  0  0  0  0  0  0  0  0  0  0  0
  1  2  1  0
  2  3  1  0
  3  4  1  0
  4  5  2  0
  5  6  1  0
  6  7  2  0
  6  8  1  0
  8  9  2  0
  9 10  1  0
  9 11  1  0
 11 12  1  0
 11 13  2  0
 13 14  1  0
 13 15  1  0
 15 16  1  0
 16 17  1  0
 16 18  1  0
 16 19  1  0
 19 20  1  0
 20 21  2  0
 21 22  1  0
 22 23  1  0
 23 24  2  0
 24 25  1  0
 24 26  1  0
 26 27  1  0
 26 28  2  0
 28 29  1  0
 28 30  1  0
 30 31  1  0
 30 32  2  0
 32 33  1  0
 33 34  2  0
 33 35  1  0
 22 36  2  0
 36 37  1  0
 37 38  3  0
 36 39  1  0
 39 40  2  0
 39 41  1  0
 41 42  1  0
 15 43  2  0
 43 44  1  0
  4 45  1  0
 45 46  1  0
 46 47  1  0
 47 48  1  0
 47 49  1  0
 47 50  1  0
 46  2  2  0
 43  8  1  0
 41 20  1  0
 32 23  1  0
M  CHG  2  35  -1  45  -1
M  END
>  <UniqueID>  (34) 
31

>  <SMILES>  (34) 
Cc1cs/c(=N/C(=O)c2cccc(CSc3nc(-c4ccccc4C(=O)[O-])c(C#N)c(=O)[nH]3)c2)[n-]1

>  <Energy>  (34) 
89.98950149804145

>  <Genealogy>  (34) 
Cc1csc(=NC(=O)c2cccc(CSc3nc(-c4ccccc4C(=O)[O-])c(C#N)c(=O)[nH]3)c2)[n-]1 (protonated)
Cc1cs/c(=N/C(=O)c2cccc(CSc3nc(-c4ccccc4C(=O)[O-])c(C#N)c(=O)[nH]3)c2)[n-]1 (cis-trans isomerization)
Cc1cs/c(=N/C(=O)c2cccc(CSc3nc(-c4ccccc4C(=O)[O-])c(C#N)c(=O)[nH]3)c2)[n-]1 (3D coordinates assigned)
Cc1cs/c(=N/C(=O)c2cccc(CSc3nc(-c4ccccc4C(=O)[O-])c(C#N)c(=O)[nH]3)c2)[n-]1 (optimized conformer: 89.98950149804145 kcal/mol)

>  <smiles>  (34) 
Cc1csc(=NC(=O)c2cccc(CSc3nc(-c4ccccc4C(=O)O)c(C#N)c(=O)[nH]3)c2)[nH]1

>  <score_type>  (34) 
oracle

>  <origin>  (34) 
adg

>  <m_score__min__energy>  (34) 
-13.77

>  <m_primary>  (34) 
energy

$$$$
34:0
     RDKit          3D

 45 47  0  0  0  0  0  0  0  0999 V2000
   55.9100   31.2300   44.5120 O   0  0  0  0  0  0  0  0  0  0  0  0
   56.8120   30.3540   44.6070 C   0  0  0  0  0  0  0  0  0  0  0  0
   56.5380   28.9580   44.1560 C   0  0  0  0  0  0  0  0  0  0  0  0
   55.8830   28.2270   45.2320 N   0  0  0  0  0  0  0  0  0  0  0  0
   56.4470   27.1290   45.9610 C   0  0  0  0  0  0  0  0  0  0  0  0
   55.7730   26.0700   46.0640 O   0  0  0  0  0  0  0  0  0  0  0  0
   57.7810   27.1940   46.5930 C   0  0  0  0  0  0  0  0  0  0  0  0
   58.8390   26.3430   46.3180 C   0  0  0  0  0  0  0  0  0  0  0  0
   59.8750   26.7570   47.1280 C   0  0  0  0  0  0  0  0  0  0  0  0
   59.3860   27.8300   47.8430 C   0  0  0  0  0  0  0  0  0  0  0  0
   60.3570   28.8370   49.1380 Br  0  0  0  0  0  0  0  0  0  0  0  0
   58.1410   28.0670   47.5060 O   0  0  0  0  0  0  0  0  0  0  0  0
   58.1290   30.7080   45.0440 N   0  0  0  0  0  0  0  0  0  0  0  0
   58.5280   32.0050   45.5050 C   0  0  0  0  0  0  0  0  0  0  0  0
   59.0740   32.1180   46.7900 C   0  0  0  0  0  0  0  0  0  0  0  0
   59.4760   33.3640   47.2880 C   0  0  0  0  0  0  0  0  0  0  0  0
   60.1830   33.4930   48.8960 S   0  0  0  0  0  0  0  0  0  0  0  0
   60.1320   34.9310   49.3310 O   0  0  0  0  0  0  0  0  0  0  0  0
   59.3990   32.6520   49.8660 O   0  0  0  0  0  0  0  0  0  0  0  0
   61.8420   32.9430   48.8630 N   0  0  0  0  0  0  0  0  0  0  0  0
   62.7710   34.0580   48.5720 C   0  0  0  0  0  0  0  0  0  0  0  0
   63.3150   34.0020   47.1320 C   0  0  0  0  0  0  0  0  0  0  0  0
   63.9940   32.7910   46.8360 O   0  0  0  0  0  0  0  0  0  0  0  0
   63.4420   31.6490   47.4840 C   0  0  0  0  0  0  0  0  0  0  0  0
   61.9770   31.8190   47.9180 C   0  0  0  0  0  0  0  0  0  0  0  0
   59.3010   34.5110   46.5060 C   0  0  0  0  0  0  0  0  0  0  0  0
   58.7280   34.4140   45.2360 C   0  0  0  0  0  0  0  0  0  0  0  0
   58.3250   33.1680   44.7330 C   0  0  0  0  0  0  0  0  0  0  0  0
   57.7000   33.0930   43.4900 O   0  0  0  0  0  0  0  0  0  0  0  0
   55.8824   28.9786   43.2730 H   0  0  0  0  0  0  0  0  0  0  0  0
   57.4842   28.4617   43.8945 H   0  0  0  0  0  0  0  0  0  0  0  0
   58.8502   25.5088   45.6011 H   0  0  0  0  0  0  0  0  0  0  0  0
   60.8831   26.3215   47.1909 H   0  0  0  0  0  0  0  0  0  0  0  0
   59.1882   31.2194   47.4142 H   0  0  0  0  0  0  0  0  0  0  0  0
   62.2372   35.0095   48.7122 H   0  0  0  0  0  0  0  0  0  0  0  0
   63.6257   33.9732   49.2592 H   0  0  0  0  0  0  0  0  0  0  0  0
   62.4705   34.1083   46.4352 H   0  0  0  0  0  0  0  0  0  0  0  0
   64.0440   34.8190   47.0266 H   0  0  0  0  0  0  0  0  0  0  0  0
   63.5000   30.7970   46.7907 H   0  0  0  0  0  0  0  0  0  0  0  0
   64.0279   31.4915   48.4016 H   0  0  0  0  0  0  0  0  0  0  0  0
   61.3578   32.0166   47.0306 H   0  0  0  0  0  0  0  0  0  0  0  0
   61.6455   30.8958   48.4158 H   0  0  0  0  0  0  0  0  0  0  0  0
   59.6155   35.4917   46.8925 H   0  0  0  0  0  0  0  0  0  0  0  0
   58.5919   35.3197   44.6267 H   0  0  0  0  0  0  0  0  0  0  0  0
   57.2550   32.2420   43.1660 H   0  0  0  0  0  0  0  0  0  0  0  0
  1  2  2  0
  2  3  1  0
  3  4  1  0
  4  5  1  0
  5  6  2  0
  5  7  1  0
  7  8  2  0
  8  9  1  0
  9 10  2  0
 10 11  1  0
 10 12  1  0
  2 13  1  0
 13 14  1  0
 14 15  2  0
 15 16  1  0
 16 17  1  0
 17 18  2  0
 17 19  2  0
 17 20  1  0
 20 21  1  0
 21 22  1  0
 22 23  1  0
 23 24  1  0
 24 25  1  0
 16 26  2  0
 26 27  1  0
 27 28  2  0
 28 29  1  0
 12  7  1  0
 28 14  1  0
 25 20  1  0
  3 30  1  0
  3 31  1  0
  8 32  1  0
  9 33  1  0
 15 34  1  0
 21 35  1  0
 21 36  1  0
 22 37  1  0
 22 38  1  0
 24 39  1  0
 24 40  1  0
 25 41  1  0
 25 42  1  0
 26 43  1  0
 27 44  1  0
 29 45  1  0
M  CHG  2   4  -1  13  -1
M  END
>  <UniqueID>  (35) 
32

>  <SMILES>  (35) 
O=C(C[N-]C(=O)c1ccc(Br)o1)[N-]c1cc(S(=O)(=O)N2CCOCC2)ccc1O

>  <Energy>  (35) 
86.55544949787894

>  <Genealogy>  (35) 
O=C(C[N-]C(=O)c1ccc(Br)o1)[N-]c1cc(S(=O)(=O)N2CCOCC2)ccc1O (protonated)
O=C(C[N-]C(=O)c1ccc(Br)o1)[N-]c1cc(S(=O)(=O)N2CCOCC2)ccc1O (3D coordinates assigned)
O=C(C[N-]C(=O)c1ccc(Br)o1)[N-]c1cc(S(=O)(=O)N2CCOCC2)ccc1O (nonaromatic ring conformer: 86.55544949787894 kcal/mol)

>  <smiles>  (35) 
O=C(CNC(=O)c1ccc(Br)o1)Nc1cc(S(=O)(=O)N2CCOCC2)ccc1O

>  <score_type>  (35) 
oracle

>  <origin>  (35) 
adg

>  <m_score__min__energy>  (35) 
-12.83

>  <m_primary>  (35) 
energy

$$$$
35:0
     RDKit          3D

 58 62  0  0  0  0  0  0  0  0999 V2000
   57.9410   29.5620   44.1880 O   0  0  0  0  0  0  0  0  0  0  0  0
   57.5590   28.5470   44.8250 C   0  0  0  0  0  0  0  0  0  0  0  0
   56.2010   28.3020   45.1410 N   0  0  0  0  0  0  0  0  0  0  0  0
   56.2660   27.0840   45.8740 C   0  0  0  0  0  0  0  0  0  0  0  0
   55.2430   26.5440   46.3700 O   0  0  0  0  0  0  0  0  0  0  0  0
   57.6710   26.5400   46.0160 C   0  0  1  0  0  0  0  0  0  0  0  0
   58.1160   26.4850   47.4980 C   0  0  0  0  0  0  0  0  0  0  0  0
   58.7800   27.7220   47.9060 N   0  0  0  0  0  0  0  0  0  0  0  0
   60.0760   27.8500   48.2520 C   0  0  0  0  0  0  0  0  0  0  0  0
   60.3150   29.1880   48.4880 C   0  0  0  0  0  0  0  0  0  0  0  0
   61.5280   29.8040   48.8230 O   0  0  0  0  0  0  0  0  0  0  0  0
   61.8450   31.1440   48.5660 C   0  0  0  0  0  0  0  0  0  0  0  0
   61.7250   32.0750   49.6060 C   0  0  0  0  0  0  0  0  0  0  0  0
   62.0410   33.4210   49.3910 C   0  0  0  0  0  0  0  0  0  0  0  0
   62.4910   33.8420   48.1360 C   0  0  0  0  0  0  0  0  0  0  0  0
   62.6340   32.9170   47.0990 C   0  0  0  0  0  0  0  0  0  0  0  0
   62.3200   31.5710   47.3110 C   0  0  0  0  0  0  0  0  0  0  0  0
   59.1090   29.8280   48.2560 C   0  0  0  0  0  0  0  0  0  0  0  0
   58.8610   31.2850   48.3180 C   0  0  0  0  0  0  0  0  0  0  0  0
   58.5070   31.7900   49.4180 O   0  0  0  0  0  0  0  0  0  0  0  0
   59.0160   32.1380   47.1620 N   0  0  0  0  0  0  0  0  0  0  0  0
   59.2830   33.5740   47.3340 C   0  0  0  0  0  0  0  0  0  0  0  0
   58.1380   34.4090   46.7370 C   0  0  0  0  0  0  0  0  0  0  0  0
   57.5400   33.7960   45.4520 C   0  0  0  0  0  0  0  0  0  0  0  0
   58.4660   32.7570   44.8110 C   0  0  0  0  0  0  0  0  0  0  0  0
   58.7660   31.6220   45.8050 C   0  0  0  0  0  0  0  0  0  0  0  0
   58.1920   28.9090   47.8960 N   0  0  0  0  0  0  0  0  0  0  0  0
   57.7840   25.1670   45.3490 C   0  0  0  0  0  0  0  0  0  0  0  0
   56.9060   24.7610   44.3190 C   0  0  0  0  0  0  0  0  0  0  0  0
   57.0330   23.5000   43.7290 C   0  0  0  0  0  0  0  0  0  0  0  0
   58.0310   22.6220   44.1540 C   0  0  0  0  0  0  0  0  0  0  0  0
   58.9030   23.0020   45.1740 C   0  0  0  0  0  0  0  0  0  0  0  0
   58.7820   24.2610   45.7690 C   0  0  0  0  0  0  0  0  0  0  0  0
   58.4520   27.5530   45.3060 N   0  0  0  0  0  0  0  0  0  0  0  0
   57.2302   26.3295   48.1313 H   0  0  0  0  0  0  0  0  0  0  0  0
   58.8306   25.6566   47.6125 H   0  0  0  0  0  0  0  0  0  0  0  0
   60.8105   27.0351   48.3318 H   0  0  0  0  0  0  0  0  0  0  0  0
   61.3803   31.7459   50.5974 H   0  0  0  0  0  0  0  0  0  0  0  0
   61.9354   34.1481   50.2096 H   0  0  0  0  0  0  0  0  0  0  0  0
   62.7324   34.9015   47.9652 H   0  0  0  0  0  0  0  0  0  0  0  0
   62.9943   33.2481   46.1138 H   0  0  0  0  0  0  0  0  0  0  0  0
   62.4444   30.8437   46.4952 H   0  0  0  0  0  0  0  0  0  0  0  0
   59.3744   33.7994   48.4068 H   0  0  0  0  0  0  0  0  0  0  0  0
   60.2179   33.8274   46.8127 H   0  0  0  0  0  0  0  0  0  0  0  0
   57.3389   34.4931   47.4882 H   0  0  0  0  0  0  0  0  0  0  0  0
   58.5570   35.3892   46.4657 H   0  0  0  0  0  0  0  0  0  0  0  0
   56.5858   33.3102   45.7040 H   0  0  0  0  0  0  0  0  0  0  0  0
   57.4000   34.6112   44.7269 H   0  0  0  0  0  0  0  0  0  0  0  0
   57.9782   32.3380   43.9186 H   0  0  0  0  0  0  0  0  0  0  0  0
   59.4109   33.2453   44.5304 H   0  0  0  0  0  0  0  0  0  0  0  0
   57.9045   30.9388   45.8365 H   0  0  0  0  0  0  0  0  0  0  0  0
   59.6718   31.0988   45.4648 H   0  0  0  0  0  0  0  0  0  0  0  0
   56.1143   25.4443   43.9779 H   0  0  0  0  0  0  0  0  0  0  0  0
   56.3436   23.1987   42.9266 H   0  0  0  0  0  0  0  0  0  0  0  0
   58.1297   21.6318   43.6853 H   0  0  0  0  0  0  0  0  0  0  0  0
   59.6880   22.3091   45.5111 H   0  0  0  0  0  0  0  0  0  0  0  0
   59.4731   24.5496   46.5747 H   0  0  0  0  0  0  0  0  0  0  0  0
   59.4940   27.5990   45.2490 H   0  0  0  0  0  0  0  0  0  0  0  0
  1  2  2  0
  2  3  1  0
  3  4  1  0
  4  5  2  0
  4  6  1  0
  6  7  1  1
  7  8  1  0
  8  9  1  0
  9 10  2  0
 10 11  1  0
 11 12  1  0
 12 13  2  0
 13 14  1  0
 14 15  2  0
 15 16  1  0
 16 17  2  0
 10 18  1  0
 18 19  1  0
 19 20  2  0
 19 21  1  0
 21 22  1  0
 22 23  1  0
 23 24  1  0
 24 25  1  0
 25 26  1  0
 18 27  2  0
  6 28  1  0
 28 29  2  0
 29 30  1  0
 30 31  2  0
 31 32  1  0
 32 33  2  0
  6 34  1  0
 34  2  1  0
 27  8  1  0
 33 28  1  0
 17 12  1  0
 26 21  1  0
  7 35  1  0
  7 36  1  0
  9 37  1  0
 13 38  1  0
 14 39  1  0
 15 40  1  0
 16 41  1  0
 17 42  1  0
 22 43  1  0
 22 44  1  0
 23 45  1  0
 23 46  1  0
 24 47  1  0
 24 48  1  0
 25 49  1  0
 25 50  1  0
 26 51  1  0
 26 52  1  0
 29 53  1  0
 30 54  1  0
 31 55  1  0
 32 56  1  0
 33 57  1  0
 34 58  1  0
M  CHG  1   3  -1
M  END
>  <UniqueID>  (36) 
33

>  <SMILES>  (36) 
O=C1[N-]C(=O)[C@@](Cn2cc(Oc3ccccc3)c(C(=O)N3CCCCC3)n2)(c2ccccc2)N1

>  <Energy>  (36) 
120.72352625036538

>  <Genealogy>  (36) 
O=C1[N-]C(=O)C(Cn2cc(Oc3ccccc3)c(C(=O)N3CCCCC3)n2)(c2ccccc2)N1 (protonated)
O=C1[N-]C(=O)[C@@](Cn2cc(Oc3ccccc3)c(C(=O)N3CCCCC3)n2)(c2ccccc2)N1 (chirality)
O=C1[N-]C(=O)[C@@](Cn2cc(Oc3ccccc3)c(C(=O)N3CCCCC3)n2)(c2ccccc2)N1 (3D coordinates assigned)
O=C1[N-]C(=O)[C@@](Cn2cc(Oc3ccccc3)c(C(=O)N3CCCCC3)n2)(c2ccccc2)N1 (nonaromatic ring conformer: 120.72352625036538 kcal/mol)

>  <smiles>  (36) 
O=C1NC(=O)C(Cn2cc(Oc3ccccc3)c(C(=O)N3CCCCC3)n2)(c2ccccc2)N1

>  <score_type>  (36) 
oracle

>  <origin>  (36) 
adg

>  <m_score__min__energy>  (36) 
-10.49

>  <m_primary>  (36) 
energy

$$$$
36:0
     RDKit          3D

 39 41  0  0  0  0  0  0  0  0999 V2000
   54.7730   24.4380   47.5190 H   0  0  0  0  0  0  0  0  0  0  0  0
   55.7860   24.4280   47.4670 O   0  0  0  0  0  0  0  0  0  0  0  0
   56.4960   25.4930   46.9190 C   0  0  0  0  0  0  0  0  0  0  0  0
   57.8740   25.6190   47.1400 C   0  0  0  0  0  0  0  0  0  0  0  0
   58.4010   24.8722   47.7519 H   0  0  0  0  0  0  0  0  0  0  0  0
   58.5820   26.6900   46.5860 C   0  0  0  0  0  0  0  0  0  0  0  0
   59.6599   26.7935   46.7793 H   0  0  0  0  0  0  0  0  0  0  0  0
   57.9220   27.6320   45.7850 C   0  0  0  0  0  0  0  0  0  0  0  0
   58.6720   28.7880   45.2480 C   0  0  0  0  0  0  0  0  0  0  0  0
   59.5438   28.5658   44.6151 H   0  0  0  0  0  0  0  0  0  0  0  0
   58.3840   30.1060   45.4640 C   0  0  0  0  0  0  0  0  0  0  0  0
   57.4080   30.7950   44.6800 C   0  0  0  0  0  0  0  0  0  0  0  0
   56.7460   30.2590   43.6400 C   0  0  0  0  0  0  0  0  0  0  0  0
   56.9142   29.2076   43.3638 H   0  0  0  0  0  0  0  0  0  0  0  0
   56.0361   30.8718   43.0652 H   0  0  0  0  0  0  0  0  0  0  0  0
   57.1410   32.0960   44.9510 N   0  0  0  0  0  0  0  0  0  0  0  0
   57.7620   32.7850   45.9320 C   0  0  0  0  0  0  0  0  0  0  0  0
   57.4570   33.9960   46.1060 O   0  0  0  0  0  0  0  0  0  0  0  0
   58.7010   32.1750   46.7150 N   0  0  0  0  0  0  0  0  0  0  0  0
   59.3520   32.9240   47.8130 C   0  0  0  0  0  0  0  0  0  0  0  0
   58.9330   33.9402   47.8553 H   0  0  0  0  0  0  0  0  0  0  0  0
   59.1673   32.3959   48.7601 H   0  0  0  0  0  0  0  0  0  0  0  0
   60.8400   33.0110   47.5880 C   0  0  0  0  0  0  0  0  0  0  0  0
   61.7230   32.2690   48.3910 C   0  0  0  0  0  0  0  0  0  0  0  0
   61.3280   31.6377   49.2006 H   0  0  0  0  0  0  0  0  0  0  0  0
   63.1020   32.3300   48.1650 C   0  0  0  0  0  0  0  0  0  0  0  0
   63.7884   31.7480   48.7976 H   0  0  0  0  0  0  0  0  0  0  0  0
   63.6090   33.1290   47.1370 C   0  0  0  0  0  0  0  0  0  0  0  0
   64.6938   33.1747   46.9605 H   0  0  0  0  0  0  0  0  0  0  0  0
   62.7390   33.8700   46.3330 C   0  0  0  0  0  0  0  0  0  0  0  0
   63.1393   34.5000   45.5250 H   0  0  0  0  0  0  0  0  0  0  0  0
   61.3600   33.8110   46.5550 C   0  0  0  0  0  0  0  0  0  0  0  0
   60.6780   34.3935   45.9182 H   0  0  0  0  0  0  0  0  0  0  0  0
   59.0010   30.8500   46.5160 C   0  0  0  0  0  0  0  0  0  0  0  0
   59.8020   30.2840   47.3110 O   0  0  0  0  0  0  0  0  0  0  0  0
   56.5360   27.5220   45.5880 C   0  0  0  0  0  0  0  0  0  0  0  0
   56.0053   28.2808   44.9942 H   0  0  0  0  0  0  0  0  0  0  0  0
   55.8270   26.4510   46.1440 C   0  0  0  0  0  0  0  0  0  0  0  0
   54.4590   26.3410   45.9280 O   0  0  0  0  0  0  0  0  0  0  0  0
  1  2  1  0
  2  3  1  0
  3  4  2  0
  4  5  1  0
  4  6  1  0
  6  7  1  0
  6  8  2  0
  8  9  1  0
  9 10  1  0
  9 11  2  0
 11 12  1  0
 12 13  2  0
 13 14  1  0
 13 15  1  0
 12 16  1  0
 16 17  1  0
 17 18  2  0
 17 19  1  0
 19 20  1  0
 20 21  1  0
 20 22  1  0
 20 23  1  0
 23 24  2  0
 24 25  1  0
 24 26  1  0
 26 27  1  0
 26 28  2  0
 28 29  1  0
 28 30  1  0
 30 31  1  0
 30 32  2  0
 32 33  1  0
 19 34  1  0
 34 35  2  0
  8 36  1  0
 36 37  1  0
 36 38  2  0
 38 39  1  0
 38  3  1  0
 34 11  1  0
 32 23  1  0
M  CHG  2  16  -1  39  -1
M  END
>  <UniqueID>  (37) 
34

>  <SMILES>  (37) 
C=c1[n-]c(=O)n(Cc2ccccc2)c(=O)/c1=C\c1ccc(O)c([O-])c1

>  <Energy>  (37) 
66.4344034343347

>  <Genealogy>  (37) 
C=c1[n-]c(=O)n(Cc2ccccc2)c(=O)c1=Cc1ccc(O)c([O-])c1 (protonated)
C=c1[n-]c(=O)n(Cc2ccccc2)c(=O)/c1=C\c1ccc(O)c([O-])c1 (cis-trans isomerization)
C=c1[n-]c(=O)n(Cc2ccccc2)c(=O)/c1=C\c1ccc(O)c([O-])c1 (3D coordinates assigned)
C=c1[n-]c(=O)n(Cc2ccccc2)c(=O)/c1=C\c1ccc(O)c([O-])c1 (optimized conformer: 66.4344034343347 kcal/mol)

>  <smiles>  (37) 
C=c1[nH]c(=O)n(Cc2ccccc2)c(=O)c1=Cc1ccc(O)c(O)c1

>  <score_type>  (37) 
oracle

>  <origin>  (37) 
adg

>  <m_score__min__energy>  (37) 
-13.59

>  <m_primary>  (37) 
energy

$$$$
37:0
     RDKit          3D

 52 55  0  0  0  0  0  0  0  0999 V2000
   54.3222   24.8421   45.9133 H   0  0  0  0  0  0  0  0  0  0  0  0
   55.3430   25.2460   45.9820 C   0  0  0  0  0  0  0  0  0  0  0  0
   55.5550   26.5840   45.9260 N   0  0  0  0  0  0  0  0  0  0  0  0
   56.8070   27.1210   45.9950 C   0  0  0  0  0  0  0  0  0  0  0  0
   56.9560   28.4120   45.9890 N   0  0  0  0  0  0  0  0  0  0  0  0
   56.6300   29.4270   44.6230 S   0  0  0  0  0  0  0  0  0  0  0  0
   57.1700   28.7750   43.3820 O   0  0  0  0  0  0  0  0  0  0  0  0
   55.1430   29.5960   44.4720 O   0  0  0  0  0  0  0  0  0  0  0  0
   57.4220   30.9840   44.8450 C   0  0  0  0  0  0  0  0  0  0  0  0
   57.4970   31.8780   43.7710 C   0  0  0  0  0  0  0  0  0  0  0  0
   57.0430   31.6146   42.8043 H   0  0  0  0  0  0  0  0  0  0  0  0
   58.1480   33.1050   43.9250 C   0  0  0  0  0  0  0  0  0  0  0  0
   58.2086   33.8040   43.0778 H   0  0  0  0  0  0  0  0  0  0  0  0
   58.7220   33.4460   45.1520 C   0  0  0  0  0  0  0  0  0  0  0  0
   59.2426   34.4083   45.2655 H   0  0  0  0  0  0  0  0  0  0  0  0
   58.6360   32.5620   46.2430 C   0  0  0  0  0  0  0  0  0  0  0  0
   59.2160   32.8580   47.4860 O   0  0  0  0  0  0  0  0  0  0  0  0
   60.5680   33.1670   47.6990 C   0  0  0  0  0  0  0  0  0  0  0  0
   60.9160   33.9070   48.8370 C   0  0  0  0  0  0  0  0  0  0  0  0
   60.1352   34.2220   49.5449 H   0  0  0  0  0  0  0  0  0  0  0  0
   62.2510   34.2470   49.0770 C   0  0  0  0  0  0  0  0  0  0  0  0
   62.5190   34.8174   49.9785 H   0  0  0  0  0  0  0  0  0  0  0  0
   63.2450   33.8630   48.1730 C   0  0  0  0  0  0  0  0  0  0  0  0
   64.2954   34.1271   48.3653 H   0  0  0  0  0  0  0  0  0  0  0  0
   62.9040   33.1430   47.0240 C   0  0  0  0  0  0  0  0  0  0  0  0
   63.6859   32.8453   46.3098 H   0  0  0  0  0  0  0  0  0  0  0  0
   61.5700   32.8010   46.7820 C   0  0  0  0  0  0  0  0  0  0  0  0
   61.3032   32.2440   45.8717 H   0  0  0  0  0  0  0  0  0  0  0  0
   57.9990   31.3260   46.0760 C   0  0  0  0  0  0  0  0  0  0  0  0
   57.9511   30.6184   46.9169 H   0  0  0  0  0  0  0  0  0  0  0  0
   57.9220   26.2430   46.1150 C   0  0  0  0  0  0  0  0  0  0  0  0
   59.1660   26.6400   46.1840 N   0  0  0  0  0  0  0  0  0  0  0  0
   59.7580   27.5460   47.1230 C   0  0  0  0  0  0  0  0  0  0  0  0
   60.0410   27.1330   48.4350 C   0  0  0  0  0  0  0  0  0  0  0  0
   59.8116   26.1038   48.7482 H   0  0  0  0  0  0  0  0  0  0  0  0
   60.6140   28.0280   49.3440 C   0  0  0  0  0  0  0  0  0  0  0  0
   60.8549   27.6946   50.3642 H   0  0  0  0  0  0  0  0  0  0  0  0
   60.8820   29.3480   48.9590 C   0  0  0  0  0  0  0  0  0  0  0  0
   61.6420   30.4600   50.0920 S   0  0  0  0  0  0  0  0  0  0  0  0
   60.6620   31.5270   50.4930 O   0  0  0  0  0  0  0  0  0  0  0  0
   62.8310   31.1160   49.4460 O   0  0  0  0  0  0  0  0  0  0  0  0
   62.1680   29.5600   51.5320 C   0  0  0  0  0  0  0  0  0  0  0  0
   61.8526   30.0997   52.4371 H   0  0  0  0  0  0  0  0  0  0  0  0
   61.7130   28.5585   51.5249 H   0  0  0  0  0  0  0  0  0  0  0  0
   63.2639   29.4649   51.5249 H   0  0  0  0  0  0  0  0  0  0  0  0
   60.5710   29.7680   47.6570 C   0  0  0  0  0  0  0  0  0  0  0  0
   60.7776   30.8042   47.3510 H   0  0  0  0  0  0  0  0  0  0  0  0
   59.9990   28.8730   46.7470 C   0  0  0  0  0  0  0  0  0  0  0  0
   59.7379   29.2124   45.7338 H   0  0  0  0  0  0  0  0  0  0  0  0
   57.6820   24.9070   46.1910 N   0  0  0  0  0  0  0  0  0  0  0  0
   56.4280   24.3900   46.1270 C   0  0  0  0  0  0  0  0  0  0  0  0
   56.2724   23.3029   46.1894 H   0  0  0  0  0  0  0  0  0  0  0  0
  1  2  1  0
  2  3  1  0
  3  4  1  0
  4  5  2  0
  5  6  1  0
  6  7  2  0
  6  8  2  0
  6  9  1  0
  9 10  2  0
 10 11  1  0
 10 12  1  0
 12 13  1  0
 12 14  2  0
 14 15  1  0
 14 16  1  0
 16 17  1  0
 17 18  1  0
 18 19  2  0
 19 20  1  0
 19 21  1  0
 21 22  1  0
 21 23  2  0
 23 24  1  0
 23 25  1  0
 25 26  1  0
 25 27  2  0
 27 28  1  0
 16 29  2  0
 29 30  1  0
  4 31  1  0
 31 32  2  0
 32 33  1  0
 33 34  2  0
 34 35  1  0
 34 36  1  0
 36 37  1  0
 36 38  2  0
 38 39  1  0
 39 40  2  0
 39 41  2  0
 39 42  1  0
 42 43  1  0
 42 44  1  0
 42 45  1  0
 38 46  1  0
 46 47  1  0
 46 48  2  0
 48 49  1  0
 31 50  1  0
 50 51  1  0
 51 52  1  0
 51  2  2  0
 29  9  1  0
 48 33  1  0
 27 18  1  0
M  CHG  2   3  -1  50  -1
M  END
>  <UniqueID>  (38) 
35

>  <SMILES>  (38) 
CS(=O)(=O)c1ccc(/N=c2/[n-]cc[n-]c2=NS(=O)(=O)c2cccc(Oc3ccccc3)c2)cc1

>  <Energy>  (38) 
78.484116307397

>  <Genealogy>  (38) 
CS(=O)(=O)c1ccc(N=c2[n-]cc[n-]c2=NS(=O)(=O)c2cccc(Oc3ccccc3)c2)cc1 (protonated)
CS(=O)(=O)c1ccc(/N=c2/[n-]cc[n-]c2=NS(=O)(=O)c2cccc(Oc3ccccc3)c2)cc1 (cis-trans isomerization)
CS(=O)(=O)c1ccc(/N=c2/[n-]cc[n-]c2=NS(=O)(=O)c2cccc(Oc3ccccc3)c2)cc1 (3D coordinates assigned)
CS(=O)(=O)c1ccc(/N=c2/[n-]cc[n-]c2=NS(=O)(=O)c2cccc(Oc3ccccc3)c2)cc1 (optimized conformer: 78.484116307397 kcal/mol)

>  <smiles>  (38) 
CS(=O)(=O)c1ccc(N=c2[nH]cc[nH]c2=NS(=O)(=O)c2cccc(Oc3ccccc3)c2)cc1

>  <score_type>  (38) 
oracle

>  <origin>  (38) 
adg

>  <m_score__min__energy>  (38) 
-13.01

>  <m_primary>  (38) 
energy

$$$$
38:0
     RDKit          3D

 45 46  0  0  0  0  0  0  0  0999 V2000
   61.7430   29.5470   50.9170 C   0  0  0  0  0  0  0  0  0  0  0  0
   60.8620   28.5060   50.5010 O   0  0  0  0  0  0  0  0  0  0  0  0
   60.2720   28.4240   49.2310 C   0  0  0  0  0  0  0  0  0  0  0  0
   60.5760   27.3820   48.3320 C   0  0  0  0  0  0  0  0  0  0  0  0
   59.9690   27.3320   47.0770 C   0  0  0  0  0  0  0  0  0  0  0  0
   59.0420   28.3150   46.6990 C   0  0  0  0  0  0  0  0  0  0  0  0
   58.4330   28.2910   45.3240 C   0  0  0  0  0  0  0  0  0  0  0  0
   57.8190   29.6210   45.0200 C   0  0  0  0  0  0  0  0  0  0  0  0
   58.5050   30.7770   44.9900 N   0  0  0  0  0  0  0  0  0  0  0  0
   57.5490   31.7140   44.7930 C   0  0  0  0  0  0  0  0  0  0  0  0
   57.8490   33.1800   44.7300 C   0  0  0  0  0  0  0  0  0  0  0  0
   58.2930   33.7320   46.0950 C   0  0  0  0  0  0  0  0  0  0  0  0
   59.6200   34.4550   46.0620 C   0  0  0  0  0  0  0  0  0  0  0  0
   59.6530   35.7150   46.0460 O   0  0  0  0  0  0  0  0  0  0  0  0
   60.8620   33.7450   45.9940 N   0  0  0  0  0  0  0  0  0  0  0  0
   61.7120   33.0570   47.3410 S   0  0  0  0  0  0  0  0  0  0  0  0
   63.4640   33.3250   47.1850 C   0  0  0  0  0  0  0  0  0  0  0  0
   61.2360   33.7320   48.5960 O   0  0  0  0  0  0  0  0  0  0  0  0
   61.4150   31.5880   47.4410 O   0  0  0  0  0  0  0  0  0  0  0  0
   56.2950   31.2150   44.7130 N   0  0  0  0  0  0  0  0  0  0  0  0
   56.4830   29.8940   44.8640 C   0  0  0  0  0  0  0  0  0  0  0  0
   55.4560   28.9560   44.8720 O   0  0  0  0  0  0  0  0  0  0  0  0
   58.7470   29.3620   47.5860 C   0  0  0  0  0  0  0  0  0  0  0  0
   59.3570   29.4200   48.8540 C   0  0  0  0  0  0  0  0  0  0  0  0
   59.0820   30.4520   49.7660 O   0  0  0  0  0  0  0  0  0  0  0  0
   58.8580   31.8110   49.4040 C   0  0  0  0  0  0  0  0  0  0  0  0
   61.7741   29.5837   52.0159 H   0  0  0  0  0  0  0  0  0  0  0  0
   62.7529   29.3500   50.5280 H   0  0  0  0  0  0  0  0  0  0  0  0
   61.3817   30.5104   50.5280 H   0  0  0  0  0  0  0  0  0  0  0  0
   61.2966   26.6031   48.6219 H   0  0  0  0  0  0  0  0  0  0  0  0
   60.2183   26.5180   46.3804 H   0  0  0  0  0  0  0  0  0  0  0  0
   59.2146   28.0711   44.5819 H   0  0  0  0  0  0  0  0  0  0  0  0
   57.6557   27.5137   45.2839 H   0  0  0  0  0  0  0  0  0  0  0  0
   58.6541   33.3475   43.9994 H   0  0  0  0  0  0  0  0  0  0  0  0
   56.9290   33.7045   44.4323 H   0  0  0  0  0  0  0  0  0  0  0  0
   57.5249   34.4344   46.4508 H   0  0  0  0  0  0  0  0  0  0  0  0
   58.4175   32.8673   46.7635 H   0  0  0  0  0  0  0  0  0  0  0  0
   63.9149   33.3940   48.1860 H   0  0  0  0  0  0  0  0  0  0  0  0
   63.9159   32.4855   46.6363 H   0  0  0  0  0  0  0  0  0  0  0  0
   63.6443   34.2612   46.6363 H   0  0  0  0  0  0  0  0  0  0  0  0
   54.7670   28.9540   45.6140 H   0  0  0  0  0  0  0  0  0  0  0  0
   58.0331   30.1441   47.2881 H   0  0  0  0  0  0  0  0  0  0  0  0
   58.7575   32.4210   50.3138 H   0  0  0  0  0  0  0  0  0  0  0  0
   59.7080   32.1769   48.8093 H   0  0  0  0  0  0  0  0  0  0  0  0
   57.9356   31.8848   48.8093 H   0  0  0  0  0  0  0  0  0  0  0  0
  1  2  1  0
  2  3  1  0
  3  4  2  0
  4  5  1  0
  5  6  2  0
  6  7  1  0
  7  8  1  0
  8  9  1  0
  9 10  2  0
 10 11  1  0
 11 12  1  0
 12 13  1  0
 13 14  2  0
 13 15  1  0
 15 16  1  0
 16 17  1  0
 16 18  2  0
 16 19  2  0
 10 20  1  0
 20 21  1  0
 21 22  1  0
  6 23  1  0
 23 24  2  0
 24 25  1  0
 25 26  1  0
 24  3  1  0
 21  8  2  0
  1 27  1  0
  1 28  1  0
  1 29  1  0
  4 30  1  0
  5 31  1  0
  7 32  1  0
  7 33  1  0
 11 34  1  0
 11 35  1  0
 12 36  1  0
 12 37  1  0
 17 38  1  0
 17 39  1  0
 17 40  1  0
 22 41  1  0
 23 42  1  0
 26 43  1  0
 26 44  1  0
 26 45  1  0
M  CHG  2  15  -1  20  -1
M  END
>  <UniqueID>  (39) 
36

>  <SMILES>  (39) 
COc1ccc(Cc2nc(CCC(=O)[N-]S(C)(=O)=O)[n-]c2O)cc1OC

>  <Energy>  (39) 
65.44280472580422

>  <Genealogy>  (39) 
COc1ccc(Cc2nc(CCC(=O)[N-]S(C)(=O)=O)[n-]c2O)cc1OC (protonated)
COc1ccc(Cc2nc(CCC(=O)[N-]S(C)(=O)=O)[n-]c2O)cc1OC (3D coordinates assigned)
COc1ccc(Cc2nc(CCC(=O)[N-]S(C)(=O)=O)[n-]c2O)cc1OC (optimized conformer: 65.44280472580422 kcal/mol)

>  <smiles>  (39) 
COc1ccc(Cc2nc(CCC(=O)NS(C)(=O)=O)[nH]c2O)cc1OC

>  <score_type>  (39) 
oracle

>  <origin>  (39) 
adg

>  <m_score__min__energy>  (39) 
-11.23

>  <m_primary>  (39) 
energy

$$$$
39:0
     RDKit          3D

 47 49  0  0  0  0  0  0  0  0999 V2000
   56.4810   29.4110   52.7540 C   0  0  0  0  0  0  0  0  0  0  0  0
   56.6180   30.3120   51.6610 O   0  0  0  0  0  0  0  0  0  0  0  0
   57.5800   31.3310   51.5880 C   0  0  0  0  0  0  0  0  0  0  0  0
   58.3340   31.5710   50.4210 C   0  0  0  0  0  0  0  0  0  0  0  0
   59.2900   32.5990   50.3900 C   0  0  0  0  0  0  0  0  0  0  0  0
   60.1080   32.8480   49.1490 C   0  0  0  0  0  0  0  0  0  0  0  0
   61.3120   31.9860   49.1430 N   0  0  0  0  0  0  0  0  0  0  0  0
   61.0270   30.6090   49.6310 C   0  0  0  0  0  0  0  0  0  0  0  0
   60.8520   29.5720   48.5060 C   0  0  0  0  0  0  0  0  0  0  0  0
   60.3480   30.2180   47.2910 N   0  0  0  0  0  0  0  0  0  0  0  0
   59.1030   29.8140   46.6890 C   0  0  0  0  0  0  0  0  0  0  0  0
   58.3730   30.7110   45.8980 C   0  0  0  0  0  0  0  0  0  0  0  0
   57.1770   30.3190   45.2970 C   0  0  0  0  0  0  0  0  0  0  0  0
   56.4830   31.2440   44.5150 O   0  0  0  0  0  0  0  0  0  0  0  0
   56.6930   29.0130   45.4770 C   0  0  0  0  0  0  0  0  0  0  0  0
   55.4970   28.6470   44.8670 O   0  0  0  0  0  0  0  0  0  0  0  0
   57.4180   28.0870   46.2660 C   0  0  0  0  0  0  0  0  0  0  0  0
   56.9490   26.6910   46.4830 C   0  0  0  0  0  0  0  0  0  0  0  0
   55.5670   26.3500   46.3890 N   0  0  0  0  0  0  0  0  0  0  0  0
   57.7770   25.7810   46.7590 O   0  0  0  0  0  0  0  0  0  0  0  0
   58.6250   28.5070   46.8600 C   0  0  0  0  0  0  0  0  0  0  0  0
   61.1030   31.3470   46.7380 C   0  0  0  0  0  0  0  0  0  0  0  0
   61.9840   31.9910   47.8240 C   0  0  0  0  0  0  0  0  0  0  0  0
   59.4940   33.3880   51.5310 C   0  0  0  0  0  0  0  0  0  0  0  0
   58.7490   33.1550   52.6880 C   0  0  0  0  0  0  0  0  0  0  0  0
   57.7970   32.1320   52.7190 C   0  0  0  0  0  0  0  0  0  0  0  0
   57.0630   31.9110   53.8780 O   0  0  0  0  0  0  0  0  0  0  0  0
   56.5654   29.9663   53.6998 H   0  0  0  0  0  0  0  0  0  0  0  0
   55.4979   28.9201   52.7035 H   0  0  0  0  0  0  0  0  0  0  0  0
   57.2738   28.6501   52.7035 H   0  0  0  0  0  0  0  0  0  0  0  0
   58.1722   30.9486   49.5286 H   0  0  0  0  0  0  0  0  0  0  0  0
   59.4976   32.6243   48.2616 H   0  0  0  0  0  0  0  0  0  0  0  0
   60.4234   33.9017   49.1349 H   0  0  0  0  0  0  0  0  0  0  0  0
   61.8625   30.2884   50.2707 H   0  0  0  0  0  0  0  0  0  0  0  0
   60.0719   30.6543   50.1749 H   0  0  0  0  0  0  0  0  0  0  0  0
   61.8234   29.1028   48.2910 H   0  0  0  0  0  0  0  0  0  0  0  0
   60.1286   28.8100   48.8318 H   0  0  0  0  0  0  0  0  0  0  0  0
   58.7470   31.7348   45.7495 H   0  0  0  0  0  0  0  0  0  0  0  0
   55.6320   31.0030   44.0220 H   0  0  0  0  0  0  0  0  0  0  0  0
   54.8300   27.0890   46.3730 H   0  0  0  0  0  0  0  0  0  0  0  0
   59.2028   27.7963   47.4691 H   0  0  0  0  0  0  0  0  0  0  0  0
   61.7431   30.9877   45.9188 H   0  0  0  0  0  0  0  0  0  0  0  0
   60.3936   32.0996   46.3633 H   0  0  0  0  0  0  0  0  0  0  0  0
   62.9256   31.4275   47.9007 H   0  0  0  0  0  0  0  0  0  0  0  0
   62.1744   33.0360   47.5383 H   0  0  0  0  0  0  0  0  0  0  0  0
   60.2434   34.1930   51.5142 H   0  0  0  0  0  0  0  0  0  0  0  0
   58.9117   33.7790   53.5792 H   0  0  0  0  0  0  0  0  0  0  0  0
  1  2  1  0
  2  3  1  0
  3  4  2  0
  4  5  1  0
  5  6  1  0
  6  7  1  0
  7  8  1  0
  8  9  1  0
  9 10  1  0
 10 11  1  0
 11 12  2  0
 12 13  1  0
 13 14  1  0
 13 15  2  0
 15 16  1  0
 15 17  1  0
 17 18  1  0
 18 19  1  0
 18 20  2  0
 17 21  2  0
 10 22  1  0
 22 23  1  0
  5 24  2  0
 24 25  1  0
 25 26  2  0
 26 27  1  0
 26  3  1  0
 23  7  1  0
 21 11  1  0
  1 28  1  0
  1 29  1  0
  1 30  1  0
  4 31  1  0
  6 32  1  0
  6 33  1  0
  8 34  1  0
  8 35  1  0
  9 36  1  0
  9 37  1  0
 12 38  1  0
 14 39  1  0
 19 40  1  0
 21 41  1  0
 22 42  1  0
 22 43  1  0
 23 44  1  0
 23 45  1  0
 24 46  1  0
 25 47  1  0
M  CHG  3  16  -1  19  -1  27  -1
M  END
>  <UniqueID>  (40) 
37

>  <SMILES>  (40) 
COc1cc(CN2CCN(c3cc(O)c([O-])c(C([NH-])=O)c3)CC2)ccc1[O-]

>  <Energy>  (40) 
62.07471831782929

>  <Genealogy>  (40) 
COc1cc(CN2CCN(c3cc(O)c([O-])c(C([NH-])=O)c3)CC2)ccc1[O-] (protonated)
COc1cc(CN2CCN(c3cc(O)c([O-])c(C([NH-])=O)c3)CC2)ccc1[O-] (3D coordinates assigned)
COc1cc(CN2CCN(c3cc(O)c([O-])c(C([NH-])=O)c3)CC2)ccc1[O-] (nonaromatic ring conformer: 62.07471831782929 kcal/mol)

>  <smiles>  (40) 
COc1cc(CN2CCN(c3cc(O)c(O)c(C(N)=O)c3)CC2)ccc1O

>  <score_type>  (40) 
oracle

>  <origin>  (40) 
adg

>  <m_score__min__energy>  (40) 
-13.449999999999999

>  <m_primary>  (40) 
energy

$$$$
40:0
     RDKit          3D

 57 60  0  0  0  0  0  0  0  0999 V2000
   52.2621   32.1936   50.3769 H   0  0  0  0  0  0  0  0  0  0  0  0
   52.3520   31.7770   51.3910 C   0  0  0  0  0  0  0  0  0  0  0  0
   53.4690   31.0090   51.7330 C   0  0  0  0  0  0  0  0  0  0  0  0
   54.2532   30.8194   50.9853 H   0  0  0  0  0  0  0  0  0  0  0  0
   53.5940   30.4780   53.0290 C   0  0  0  0  0  0  0  0  0  0  0  0
   54.7880   29.6410   53.4040 C   0  0  0  0  0  0  0  0  0  0  0  0
   54.6072   28.5980   53.1050 H   0  0  0  0  0  0  0  0  0  0  0  0
   54.9384   29.7029   54.4919 H   0  0  0  0  0  0  0  0  0  0  0  0
   55.9870   30.1320   52.7330 N   0  0  0  0  0  0  0  0  0  0  0  0
   57.0910   30.5760   52.2180 C   0  0  0  0  0  0  0  0  0  0  0  0
   57.2590   30.5550   50.8770 N   0  0  0  0  0  0  0  0  0  0  0  0
   58.4960   31.0250   50.7120 C   0  0  0  0  0  0  0  0  0  0  0  0
   59.1700   31.1750   49.5030 C   0  0  0  0  0  0  0  0  0  0  0  0
   58.6795   30.9314   48.5490 H   0  0  0  0  0  0  0  0  0  0  0  0
   60.4940   31.6460   49.5340 C   0  0  0  0  0  0  0  0  0  0  0  0
   61.4250   31.7780   48.0400 S   0  0  0  0  0  0  0  0  0  0  0  0
   62.8540   32.1110   48.3750 O   0  0  0  0  0  0  0  0  0  0  0  0
   61.4070   30.4540   47.3260 O   0  0  0  0  0  0  0  0  0  0  0  0
   60.7690   33.0130   46.9840 N   0  0  0  0  0  0  0  0  0  0  0  0
   59.6450   32.4990   46.1700 C   0  0  0  0  0  0  0  0  0  0  0  0
   59.7562   32.8659   45.1390 H   0  0  0  0  0  0  0  0  0  0  0  0
   59.6738   31.4000   46.2064 H   0  0  0  0  0  0  0  0  0  0  0  0
   58.2790   32.9580   46.7170 C   0  0  0  0  0  0  0  0  0  0  0  0
   57.4914   32.5686   46.0551 H   0  0  0  0  0  0  0  0  0  0  0  0
   58.1964   32.5686   47.7425 H   0  0  0  0  0  0  0  0  0  0  0  0
   58.1400   34.3710   46.7970 O   0  0  0  0  0  0  0  0  0  0  0  0
   59.3660   35.0580   47.0120 C   0  0  0  0  0  0  0  0  0  0  0  0
   59.7785   35.3472   46.0342 H   0  0  0  0  0  0  0  0  0  0  0  0
   59.1407   35.9286   47.6455 H   0  0  0  0  0  0  0  0  0  0  0  0
   60.4190   34.2210   47.7550 C   0  0  0  0  0  0  0  0  0  0  0  0
   61.3238   34.8289   47.9029 H   0  0  0  0  0  0  0  0  0  0  0  0
   60.0023   33.9113   48.7248 H   0  0  0  0  0  0  0  0  0  0  0  0
   61.0880   31.9770   50.7710 C   0  0  0  0  0  0  0  0  0  0  0  0
   62.1160   32.3678   50.7931 H   0  0  0  0  0  0  0  0  0  0  0  0
   60.3810   31.8130   51.9750 C   0  0  0  0  0  0  0  0  0  0  0  0
   60.8487   32.0606   52.9394 H   0  0  0  0  0  0  0  0  0  0  0  0
   59.0640   31.3260   51.9200 C   0  0  0  0  0  0  0  0  0  0  0  0
   58.1760   31.0580   52.9230 N   0  0  0  0  0  0  0  0  0  0  0  0
   58.3780   31.2830   54.3900 C   0  0  0  0  0  0  0  0  0  0  0  0
   58.8120   32.7440   54.6470 C   0  0  0  0  0  0  0  0  0  0  0  0
   58.8659   32.9253   55.7306 H   0  0  0  0  0  0  0  0  0  0  0  0
   59.8005   32.9175   54.1966 H   0  0  0  0  0  0  0  0  0  0  0  0
   58.0786   33.4290   54.1966 H   0  0  0  0  0  0  0  0  0  0  0  0
   57.0810   30.9460   55.1660 C   0  0  0  0  0  0  0  0  0  0  0  0
   57.2769   30.9969   56.2472 H   0  0  0  0  0  0  0  0  0  0  0  0
   56.2965   31.6701   54.9010 H   0  0  0  0  0  0  0  0  0  0  0  0
   56.7483   29.9316   54.9010 H   0  0  0  0  0  0  0  0  0  0  0  0
   59.4800   30.3850   54.9860 C   0  0  0  0  0  0  0  0  0  0  0  0
   59.4313   30.4247   56.0842 H   0  0  0  0  0  0  0  0  0  0  0  0
   59.3302   29.3485   54.6496 H   0  0  0  0  0  0  0  0  0  0  0  0
   60.4649   30.7410   54.6496 H   0  0  0  0  0  0  0  0  0  0  0  0
   52.5690   30.7040   53.9670 C   0  0  0  0  0  0  0  0  0  0  0  0
   52.6436   30.2706   54.9753 H   0  0  0  0  0  0  0  0  0  0  0  0
   51.4570   31.4770   53.6220 C   0  0  0  0  0  0  0  0  0  0  0  0
   50.6655   31.6613   54.3634 H   0  0  0  0  0  0  0  0  0  0  0  0
   51.3480   32.0170   52.3360 C   0  0  0  0  0  0  0  0  0  0  0  0
   50.2400   32.7830   51.9950 O   0  0  0  0  0  0  0  0  0  0  0  0
  1  2  1  0
  2  3  2  0
  3  4  1  0
  3  5  1  0
  5  6  1  0
  6  7  1  0
  6  8  1  0
  6  9  1  0
  9 10  2  0
 10 11  1  0
 11 12  1  0
 12 13  2  0
 13 14  1  0
 13 15  1  0
 15 16  1  0
 16 17  2  0
 16 18  2  0
 16 19  1  0
 19 20  1  0
 20 21  1  0
 20 22  1  0
 20 23  1  0
 23 24  1  0
 23 25  1  0
 23 26  1  0
 26 27  1  0
 27 28  1  0
 27 29  1  0
 27 30  1  0
 30 31  1  0
 30 32  1  0
 15 33  2  0
 33 34  1  0
 33 35  1  0
 35 36  1  0
 35 37  2  0
 37 38  1  0
 38 39  1  0
 39 40  1  0
 40 41  1  0
 40 42  1  0
 40 43  1  0
 39 44  1  0
 44 45  1  0
 44 46  1  0
 44 47  1  0
 39 48  1  0
 48 49  1  0
 48 50  1  0
 48 51  1  0
  5 52  2  0
 52 53  1  0
 52 54  1  0
 54 55  1  0
 54 56  2  0
 56 57  1  0
 56  2  1  0
 38 10  1  0
 37 12  1  0
 30 19  1  0
M  CHG  2  11  -1  57  -1
M  END
>  <UniqueID>  (41) 
38

>  <SMILES>  (41) 
CC(C)(C)n1/c(=N\Cc2ccc([O-])cc2)[n-]c2cc(S(=O)(=O)N3CCOCC3)ccc21

>  <Energy>  (41) 
162.47029190876148

>  <Genealogy>  (41) 
CC(C)(C)n1c(=NCc2ccc([O-])cc2)[n-]c2cc(S(=O)(=O)N3CCOCC3)ccc21 (protonated)
CC(C)(C)n1/c(=N\Cc2ccc([O-])cc2)[n-]c2cc(S(=O)(=O)N3CCOCC3)ccc21 (cis-trans isomerization)
CC(C)(C)n1/c(=N\Cc2ccc([O-])cc2)[n-]c2cc(S(=O)(=O)N3CCOCC3)ccc21 (3D coordinates assigned)
CC(C)(C)n1/c(=N\Cc2ccc([O-])cc2)[n-]c2cc(S(=O)(=O)N3CCOCC3)ccc21 (nonaromatic ring conformer: 162.47029190876148 kcal/mol)

>  <smiles>  (41) 
CC(C)(C)n1c(=NCc2ccc(O)cc2)[nH]c2cc(S(=O)(=O)N3CCOCC3)ccc21

>  <score_type>  (41) 
oracle

>  <origin>  (41) 
adg

>  <m_score__min__energy>  (41) 
-13.41

>  <m_primary>  (41) 
energy

$$$$
41:0
     RDKit          3D

 66 69  0  0  0  0  0  0  0  0999 V2000
   56.5890   30.4370   43.7160 C   0  0  0  0  0  0  0  0  0  0  0  0
   57.6400   30.6530   44.7570 C   0  0  0  0  0  0  0  0  0  0  0  0
   57.6500   31.6980   45.6050 N   0  0  0  0  0  0  0  0  0  0  0  0
   58.7160   31.5780   46.3820 N   0  0  0  0  0  0  0  0  0  0  0  0
   59.0240   32.5180   47.4190 C   0  0  0  0  0  0  0  0  0  0  0  0
   59.7200   33.7040   47.1300 C   0  0  0  0  0  0  0  0  0  0  0  0
   60.0380   34.6000   48.1530 C   0  0  0  0  0  0  0  0  0  0  0  0
   59.6760   34.3120   49.4720 C   0  0  0  0  0  0  0  0  0  0  0  0
   59.0040   33.1230   49.7700 C   0  0  0  0  0  0  0  0  0  0  0  0
   58.6870   32.2230   48.7500 C   0  0  0  0  0  0  0  0  0  0  0  0
   59.4120   30.4680   46.0360 C   0  0  0  0  0  0  0  0  0  0  0  0
   60.7300   30.0300   46.6170 C   0  0  0  0  0  0  0  0  0  0  0  0
   60.5340   29.4280   47.9310 N   0  0  0  0  0  0  0  0  0  0  0  0
   60.9010   30.0670   49.1590 C   0  0  0  0  0  0  0  0  0  0  0  0
   60.0800   30.1030   50.1180 O   0  0  0  0  0  0  0  0  0  0  0  0
   62.2490   30.7450   49.2750 C   0  0  0  0  0  0  0  0  0  0  0  0
   62.3620   31.9810   48.3480 C   0  0  0  0  0  0  0  0  0  0  0  0
   63.4890   32.9420   48.7700 C   0  0  0  0  0  0  0  0  0  0  0  0
   64.4980   32.2380   49.5810 N   0  0  0  0  0  0  0  0  0  0  0  0
   65.6690   33.1000   49.7990 C   0  0  0  0  0  0  0  0  0  0  0  0
   63.9250   31.8240   50.8810 C   0  0  0  0  0  0  0  0  0  0  0  0
   62.5420   31.1480   50.7310 C   0  0  0  0  0  0  0  0  0  0  0  0
   58.7560   29.8630   44.9770 C   0  0  0  0  0  0  0  0  0  0  0  0
   59.1050   28.5880   44.2730 C   0  0  0  0  0  0  0  0  0  0  0  0
   57.8830   27.8360   44.0330 N   0  0  0  0  0  0  0  0  0  0  0  0
   57.8000   26.4130   44.1470 C   0  0  0  0  0  0  0  0  0  0  0  0
   57.7540   25.6890   43.1150 O   0  0  0  0  0  0  0  0  0  0  0  0
   57.7140   25.7890   45.5050 C   0  0  0  0  0  0  0  0  0  0  0  0
   56.5310   24.8550   45.5630 C   0  0  0  0  0  0  0  0  0  0  0  0
   56.7200   23.4870   45.3060 C   0  0  0  0  0  0  0  0  0  0  0  0
   55.6290   22.6130   45.2690 C   0  0  0  0  0  0  0  0  0  0  0  0
   55.8970   20.9120   44.9270 Cl  0  0  0  0  0  0  0  0  0  0  0  0
   54.3340   23.0990   45.4860 C   0  0  0  0  0  0  0  0  0  0  0  0
   53.2450   22.2280   45.4340 O   0  0  0  0  0  0  0  0  0  0  0  0
   54.1380   24.4630   45.7410 C   0  0  0  0  0  0  0  0  0  0  0  0
   55.2260   25.3410   45.7710 C   0  0  0  0  0  0  0  0  0  0  0  0
   54.9990   26.6950   45.9990 O   0  0  0  0  0  0  0  0  0  0  0  0
   55.6238   30.2386   44.2050 H   0  0  0  0  0  0  0  0  0  0  0  0
   56.5041   31.3365   43.0885 H   0  0  0  0  0  0  0  0  0  0  0  0
   56.8657   29.5770   43.0885 H   0  0  0  0  0  0  0  0  0  0  0  0
   60.0155   33.9275   46.0943 H   0  0  0  0  0  0  0  0  0  0  0  0
   60.5734   35.5324   47.9207 H   0  0  0  0  0  0  0  0  0  0  0  0
   59.9201   35.0216   50.2763 H   0  0  0  0  0  0  0  0  0  0  0  0
   58.7244   32.8958   50.8093 H   0  0  0  0  0  0  0  0  0  0  0  0
   58.1722   31.2810   48.9898 H   0  0  0  0  0  0  0  0  0  0  0  0
   61.1939   29.2919   45.9462 H   0  0  0  0  0  0  0  0  0  0  0  0
   61.3823   30.9094   46.7222 H   0  0  0  0  0  0  0  0  0  0  0  0
   63.0014   30.0114   48.9499 H   0  0  0  0  0  0  0  0  0  0  0  0
   62.5608   31.6347   47.3230 H   0  0  0  0  0  0  0  0  0  0  0  0
   61.4131   32.5334   48.4151 H   0  0  0  0  0  0  0  0  0  0  0  0
   63.9708   33.3509   47.8696 H   0  0  0  0  0  0  0  0  0  0  0  0
   63.0546   33.7533   49.3725 H   0  0  0  0  0  0  0  0  0  0  0  0
   65.8372   33.2238   50.8790 H   0  0  0  0  0  0  0  0  0  0  0  0
   66.5554   32.6372   49.3406 H   0  0  0  0  0  0  0  0  0  0  0  0
   65.4905   34.0838   49.3406 H   0  0  0  0  0  0  0  0  0  0  0  0
   64.6147   31.1135   51.3602 H   0  0  0  0  0  0  0  0  0  0  0  0
   63.7896   32.7300   51.4900 H   0  0  0  0  0  0  0  0  0  0  0  0
   62.5180   30.2461   51.3603 H   0  0  0  0  0  0  0  0  0  0  0  0
   61.7754   31.8727   51.0425 H   0  0  0  0  0  0  0  0  0  0  0  0
   59.5929   28.8167   43.3140 H   0  0  0  0  0  0  0  0  0  0  0  0
   59.7935   27.9949   44.8928 H   0  0  0  0  0  0  0  0  0  0  0  0
   58.6360   25.2238   45.7064 H   0  0  0  0  0  0  0  0  0  0  0  0
   57.5913   26.5786   46.2609 H   0  0  0  0  0  0  0  0  0  0  0  0
   57.7349   23.0999   45.1324 H   0  0  0  0  0  0  0  0  0  0  0  0
   52.5820   22.1600   46.1990 H   0  0  0  0  0  0  0  0  0  0  0  0
   53.1220   24.8454   45.9187 H   0  0  0  0  0  0  0  0  0  0  0  0
  1  2  1  0
  2  3  2  0
  3  4  1  0
  4  5  1  0
  5  6  2  0
  6  7  1  0
  7  8  2  0
  8  9  1  0
  9 10  2  0
  4 11  1  0
 11 12  1  0
 12 13  1  0
 13 14  1  0
 14 15  2  0
 14 16  1  0
 16 17  1  0
 17 18  1  0
 18 19  1  0
 19 20  1  0
 19 21  1  0
 21 22  1  0
 11 23  2  0
 23 24  1  0
 24 25  1  0
 25 26  1  0
 26 27  2  0
 26 28  1  0
 28 29  1  0
 29 30  2  0
 30 31  1  0
 31 32  1  0
 31 33  2  0
 33 34  1  0
 33 35  1  0
 35 36  2  0
 36 37  1  0
 23  2  1  0
 36 29  1  0
 10  5  1  0
 22 16  1  0
  1 38  1  0
  1 39  1  0
  1 40  1  0
  6 41  1  0
  7 42  1  0
  8 43  1  0
  9 44  1  0
 10 45  1  0
 12 46  1  0
 12 47  1  0
 16 48  1  0
 17 49  1  0
 17 50  1  0
 18 51  1  0
 18 52  1  0
 20 53  1  0
 20 54  1  0
 20 55  1  0
 21 56  1  0
 21 57  1  0
 22 58  1  0
 22 59  1  0
 24 60  1  0
 24 61  1  0
 28 62  1  0
 28 63  1  0
 30 64  1  0
 34 65  1  0
 35 66  1  0
M  CHG  3  13  -1  25  -1  37  -1
M  END
>  <UniqueID>  (42) 
39

>  <SMILES>  (42) 
Cc1nn(-c2ccccc2)c(C[N-]C(=O)C2CCN(C)CC2)c1C[N-]C(=O)Cc1cc(Cl)c(O)cc1[O-]

>  <Energy>  (42) 
102.28105373684717

>  <Genealogy>  (42) 
Cc1nn(-c2ccccc2)c(C[N-]C(=O)C2CCN(C)CC2)c1C[N-]C(=O)Cc1cc(Cl)c(O)cc1[O-] (protonated)
Cc1nn(-c2ccccc2)c(C[N-]C(=O)C2CCN(C)CC2)c1C[N-]C(=O)Cc1cc(Cl)c(O)cc1[O-] (3D coordinates assigned)
Cc1nn(-c2ccccc2)c(C[N-]C(=O)C2CCN(C)CC2)c1C[N-]C(=O)Cc1cc(Cl)c(O)cc1[O-] (nonaromatic ring conformer: 102.28105373684717 kcal/mol)

>  <smiles>  (42) 
Cc1nn(-c2ccccc2)c(CNC(=O)C2CCN(C)CC2)c1CNC(=O)Cc1cc(Cl)c(O)cc1O

>  <score_type>  (42) 
oracle

>  <origin>  (42) 
adg

>  <m_score__min__energy>  (42) 
-14.42

>  <m_primary>  (42) 
energy

$$$$
42:0
     RDKit          3D

 71 74  0  0  0  0  0  0  0  0999 V2000
   55.7320   20.4940   49.1760 C   0  0  0  0  0  0  0  0  0  0  0  0
   56.4370   22.0460   48.6690 S   0  0  0  0  0  0  0  0  0  0  0  0
   55.3620   23.0890   48.5420 O   0  0  0  0  0  0  0  0  0  0  0  0
   57.4200   22.4930   49.7140 O   0  0  0  0  0  0  0  0  0  0  0  0
   57.2780   21.8200   47.1680 N   0  0  0  0  0  0  0  0  0  0  0  0
   57.1070   22.6240   45.9930 C   0  0  0  0  0  0  0  0  0  0  0  0
   56.8570   21.9820   44.7750 C   0  0  0  0  0  0  0  0  0  0  0  0
   56.7090   22.7250   43.6010 C   0  0  0  0  0  0  0  0  0  0  0  0
   56.4460   22.0910   42.4310 F   0  0  0  0  0  0  0  0  0  0  0  0
   56.8490   24.1150   43.6270 C   0  0  0  0  0  0  0  0  0  0  0  0
   57.1390   24.7700   44.8330 C   0  0  0  0  0  0  0  0  0  0  0  0
   57.3960   26.2520   44.8530 C   0  0  0  0  0  0  0  0  0  0  0  0
   57.6240   26.7150   46.2180 N   0  0  0  0  0  0  0  0  0  0  0  0
   58.9150   26.6750   46.8430 C   0  0  0  0  0  0  0  0  0  0  0  0
   59.8680   26.0630   46.2910 O   0  0  0  0  0  0  0  0  0  0  0  0
   59.1200   27.2680   48.1290 N   0  0  0  0  0  0  0  0  0  0  0  0
   59.7480   28.5380   48.3470 C   0  0  0  0  0  0  0  0  0  0  0  0
   60.5450   29.0920   47.3380 C   0  0  0  0  0  0  0  0  0  0  0  0
   61.1590   30.3360   47.5260 C   0  0  0  0  0  0  0  0  0  0  0  0
   60.9540   31.0500   48.7160 C   0  0  0  0  0  0  0  0  0  0  0  0
   61.7440   32.6000   48.9910 S   0  0  0  0  0  0  0  0  0  0  0  0
   61.7730   32.9170   50.4620 O   0  0  0  0  0  0  0  0  0  0  0  0
   63.1600   32.5500   48.4870 O   0  0  0  0  0  0  0  0  0  0  0  0
   60.8720   33.8440   48.1570 N   0  0  0  0  0  0  0  0  0  0  0  0
   59.6480   34.4450   48.6700 C   0  0  0  0  0  0  0  0  0  0  0  0
   58.8840   34.9770   47.4310 C   0  0  0  0  0  0  0  0  0  0  0  0
   59.7300   34.6810   46.2780 N   0  0  0  0  0  0  0  0  0  0  0  0
   59.2520   34.6610   44.8940 C   0  0  0  0  0  0  0  0  0  0  0  0
   58.7500   33.2680   44.4940 C   0  0  0  0  0  0  0  0  0  0  0  0
   57.3110   32.9920   44.9910 C   0  0  0  0  0  0  0  0  0  0  0  0
   57.0290   31.5700   45.2950 N   0  0  0  0  0  0  0  0  0  0  0  0
   56.4320   30.8350   44.1670 C   0  0  0  0  0  0  0  0  0  0  0  0
   57.3810   29.7060   43.7740 C   0  0  0  0  0  0  0  0  0  0  0  0
   58.6380   29.9210   44.5920 C   0  0  0  0  0  0  0  0  0  0  0  0
   58.2060   30.8120   45.7410 C   0  0  0  0  0  0  0  0  0  0  0  0
   60.8700   33.9940   46.7550 C   0  0  0  0  0  0  0  0  0  0  0  0
   61.7710   33.5330   46.0050 O   0  0  0  0  0  0  0  0  0  0  0  0
   60.1270   30.5090   49.7090 C   0  0  0  0  0  0  0  0  0  0  0  0
   59.5310   29.2610   49.5310 C   0  0  0  0  0  0  0  0  0  0  0  0
   57.2470   24.0230   46.0190 C   0  0  0  0  0  0  0  0  0  0  0  0
   55.7089   20.4432   50.2746 H   0  0  0  0  0  0  0  0  0  0  0  0
   54.7078   20.4109   48.7835 H   0  0  0  0  0  0  0  0  0  0  0  0
   56.3432   19.6680   48.7835 H   0  0  0  0  0  0  0  0  0  0  0  0
   56.7765   20.8855   44.7416 H   0  0  0  0  0  0  0  0  0  0  0  0
   56.7316   24.6963   42.7006 H   0  0  0  0  0  0  0  0  0  0  0  0
   58.2843   26.4732   44.2430 H   0  0  0  0  0  0  0  0  0  0  0  0
   56.5157   26.7703   44.4449 H   0  0  0  0  0  0  0  0  0  0  0  0
   56.8030   27.0590   46.7640 H   0  0  0  0  0  0  0  0  0  0  0  0
   60.6894   28.5473   46.3933 H   0  0  0  0  0  0  0  0  0  0  0  0
   61.8035   30.7545   46.7390 H   0  0  0  0  0  0  0  0  0  0  0  0
   59.0441   33.6921   49.1976 H   0  0  0  0  0  0  0  0  0  0  0  0
   59.8636   35.2502   49.3878 H   0  0  0  0  0  0  0  0  0  0  0  0
   57.9134   34.4687   47.3333 H   0  0  0  0  0  0  0  0  0  0  0  0
   58.6810   36.0548   47.5153 H   0  0  0  0  0  0  0  0  0  0  0  0
   58.4276   35.3818   44.7899 H   0  0  0  0  0  0  0  0  0  0  0  0
   60.0909   34.9286   44.2347 H   0  0  0  0  0  0  0  0  0  0  0  0
   58.7657   33.1889   43.3970 H   0  0  0  0  0  0  0  0  0  0  0  0
   59.4136   32.5262   44.9623 H   0  0  0  0  0  0  0  0  0  0  0  0
   57.1452   33.5786   45.9066 H   0  0  0  0  0  0  0  0  0  0  0  0
   56.6362   33.2765   44.1702 H   0  0  0  0  0  0  0  0  0  0  0  0
   55.4606   30.4162   44.4685 H   0  0  0  0  0  0  0  0  0  0  0  0
   56.2751   31.5120   43.3143 H   0  0  0  0  0  0  0  0  0  0  0  0
   56.9330   28.7294   44.0095 H   0  0  0  0  0  0  0  0  0  0  0  0
   57.5938   29.7127   42.6948 H   0  0  0  0  0  0  0  0  0  0  0  0
   59.0235   28.9622   44.9691 H   0  0  0  0  0  0  0  0  0  0  0  0
   59.4470   30.3721   43.9987 H   0  0  0  0  0  0  0  0  0  0  0  0
   57.9473   30.1974   46.6159 H   0  0  0  0  0  0  0  0  0  0  0  0
   59.0195   31.4943   46.0287 H   0  0  0  0  0  0  0  0  0  0  0  0
   59.9465   31.0729   50.6360 H   0  0  0  0  0  0  0  0  0  0  0  0
   58.8893   28.8419   50.3200 H   0  0  0  0  0  0  0  0  0  0  0  0
   57.4421   24.5356   46.9725 H   0  0  0  0  0  0  0  0  0  0  0  0
  1  2  1  0
  2  3  2  0
  2  4  2  0
  2  5  1  0
  5  6  1  0
  6  7  2  0
  7  8  1  0
  8  9  1  0
  8 10  2  0
 10 11  1  0
 11 12  1  0
 12 13  1  0
 13 14  1  0
 14 15  2  0
 14 16  1  0
 16 17  1  0
 17 18  2  0
 18 19  1  0
 19 20  2  0
 20 21  1  0
 21 22  2  0
 21 23  2  0
 21 24  1  0
 24 25  1  0
 25 26  1  0
 26 27  1  0
 27 28  1  0
 28 29  1  0
 29 30  1  0
 30 31  1  0
 31 32  1  0
 32 33  1  0
 33 34  1  0
 34 35  1  0
 27 36  1  0
 36 37  2  0
 20 38  1  0
 38 39  2  0
 11 40  2  0
 40  6  1  0
 39 17  1  0
 36 24  1  0
 35 31  1  0
  1 41  1  0
  1 42  1  0
  1 43  1  0
  7 44  1  0
 10 45  1  0
 12 46  1  0
 12 47  1  0
 13 48  1  0
 18 49  1  0
 19 50  1  0
 25 51  1  0
 25 52  1  0
 26 53  1  0
 26 54  1  0
 28 55  1  0
 28 56  1  0
 29 57  1  0
 29 58  1  0
 30 59  1  0
 30 60  1  0
 32 61  1  0
 32 62  1  0
 33 63  1  0
 33 64  1  0
 34 65  1  0
 34 66  1  0
 35 67  1  0
 35 68  1  0
 38 69  1  0
 39 70  1  0
 40 71  1  0
M  CHG  2   5  -1  16  -1
M  END
>  <UniqueID>  (43) 
40

>  <SMILES>  (43) 
CS(=O)(=O)[N-]c1cc(F)cc(CNC(=O)[N-]c2ccc(S(=O)(=O)N3CCN(CCCN4CCCC4)C3=O)cc2)c1

>  <Energy>  (43) 
88.77151095286855

>  <Genealogy>  (43) 
CS(=O)(=O)[N-]c1cc(F)cc(CNC(=O)[N-]c2ccc(S(=O)(=O)N3CCN(CCCN4CCCC4)C3=O)cc2)c1 (protonated)
CS(=O)(=O)[N-]c1cc(F)cc(CNC(=O)[N-]c2ccc(S(=O)(=O)N3CCN(CCCN4CCCC4)C3=O)cc2)c1 (3D coordinates assigned)
CS(=O)(=O)[N-]c1cc(F)cc(CNC(=O)[N-]c2ccc(S(=O)(=O)N3CCN(CCCN4CCCC4)C3=O)cc2)c1 (nonaromatic ring conformer: 88.77151095286855 kcal/mol)

>  <smiles>  (43) 
CS(=O)(=O)Nc1cc(F)cc(CNC(=O)Nc2ccc(S(=O)(=O)N3CCN(CCCN4CCCC4)C3=O)cc2)c1

>  <score_type>  (43) 
oracle

>  <origin>  (43) 
adg

>  <m_score__min__energy>  (43) 
-13.65

>  <m_primary>  (43) 
energy

$$$$
43:0
     RDKit          3D

 48 50  0  0  0  0  0  0  0  0999 V2000
   57.9613   31.7492   41.4878 H   0  0  0  0  0  0  0  0  0  0  0  0
   57.3360   31.5760   42.3760 C   0  0  0  0  0  0  0  0  0  0  0  0
   56.2421   31.6679   42.3050 H   0  0  0  0  0  0  0  0  0  0  0  0
   57.9050   31.2540   43.5410 C   0  0  0  0  0  0  0  0  0  0  0  0
   59.0001   31.1660   43.5958 H   0  0  0  0  0  0  0  0  0  0  0  0
   57.0890   31.0090   44.7780 C   0  0  0  0  0  0  0  0  0  0  0  0
   57.1877   31.8715   45.4536 H   0  0  0  0  0  0  0  0  0  0  0  0
   56.0365   30.8726   44.4889 H   0  0  0  0  0  0  0  0  0  0  0  0
   57.5520   29.8010   45.4670 N   0  0  0  0  0  0  0  0  0  0  0  0
   56.8410   28.6720   45.6560 C   0  0  0  0  0  0  0  0  0  0  0  0
   55.5280   28.4960   45.2360 O   0  0  0  0  0  0  0  0  0  0  0  0
   57.6240   27.7340   46.2980 C   0  0  0  0  0  0  0  0  0  0  0  0
   57.1830   26.3610   46.7320 C   0  0  0  0  0  0  0  0  0  0  0  0
   58.0646   25.7074   46.8066 H   0  0  0  0  0  0  0  0  0  0  0  0
   56.6818   26.4470   47.7074 H   0  0  0  0  0  0  0  0  0  0  0  0
   56.2110   25.7660   45.7450 C   0  0  0  0  0  0  0  0  0  0  0  0
   54.9760   25.8820   45.9650 O   0  0  0  0  0  0  0  0  0  0  0  0
   56.6360   25.1560   44.5160 N   0  0  0  0  0  0  0  0  0  0  0  0
   56.7810   23.8850   44.2840 C   0  0  0  0  0  0  0  0  0  0  0  0
   57.5970   23.1100   45.0510 N   0  0  0  0  0  0  0  0  0  0  0  0
   57.7280   21.7770   44.8250 C   0  0  0  0  0  0  0  0  0  0  0  0
   58.3964   21.1705   45.4538 H   0  0  0  0  0  0  0  0  0  0  0  0
   57.0070   21.1840   43.7880 C   0  0  0  0  0  0  0  0  0  0  0  0
   57.1048   20.1064   43.5898 H   0  0  0  0  0  0  0  0  0  0  0  0
   56.1830   21.9490   43.0250 N   0  0  0  0  0  0  0  0  0  0  0  0
   56.0500   23.2840   43.2530 C   0  0  0  0  0  0  0  0  0  0  0  0
   55.3722   23.8869   42.6308 H   0  0  0  0  0  0  0  0  0  0  0  0
   58.8500   28.2780   46.4980 N   0  0  0  0  0  0  0  0  0  0  0  0
   60.0350   27.6320   47.0780 C   0  0  0  0  0  0  0  0  0  0  0  0
   59.9557   26.5434   46.9415 H   0  0  0  0  0  0  0  0  0  0  0  0
   60.9314   28.0167   46.5696 H   0  0  0  0  0  0  0  0  0  0  0  0
   60.1440   27.9390   48.5490 C   0  0  0  0  0  0  0  0  0  0  0  0
   60.7530   27.0250   49.4200 C   0  0  0  0  0  0  0  0  0  0  0  0
   61.1531   26.0787   49.0270 H   0  0  0  0  0  0  0  0  0  0  0  0
   60.8550   27.3090   50.7860 C   0  0  0  0  0  0  0  0  0  0  0  0
   61.3405   26.5868   51.4589 H   0  0  0  0  0  0  0  0  0  0  0  0
   60.3440   28.5050   51.3030 C   0  0  0  0  0  0  0  0  0  0  0  0
   60.4690   28.7430   52.6800 O   0  0  0  0  0  0  0  0  0  0  0  0
   59.7040   29.7000   53.4030 C   0  0  0  0  0  0  0  0  0  0  0  0
   59.8359   29.5350   54.4825 H   0  0  0  0  0  0  0  0  0  0  0  0
   60.0438   30.7133   53.1428 H   0  0  0  0  0  0  0  0  0  0  0  0
   58.6407   29.5917   53.1428 H   0  0  0  0  0  0  0  0  0  0  0  0
   59.7270   29.4210   50.4320 C   0  0  0  0  0  0  0  0  0  0  0  0
   59.3227   30.3646   50.8271 H   0  0  0  0  0  0  0  0  0  0  0  0
   59.6250   29.1380   49.0660 C   0  0  0  0  0  0  0  0  0  0  0  0
   59.1360   29.8578   48.3931 H   0  0  0  0  0  0  0  0  0  0  0  0
   58.7740   29.5330   45.9850 C   0  0  0  0  0  0  0  0  0  0  0  0
   60.0210   30.6060   45.9970 S   0  0  0  0  0  0  0  0  0  0  0  0
  1  2  1  0
  2  3  1  0
  2  4  2  0
  4  5  1  0
  4  6  1  0
  6  7  1  0
  6  8  1  0
  6  9  1  0
  9 10  1  0
 10 11  1  0
 10 12  2  0
 12 13  1  0
 13 14  1  0
 13 15  1  0
 13 16  1  0
 16 17  2  0
 16 18  1  0
 18 19  2  0
 19 20  1  0
 20 21  1  0
 21 22  1  0
 21 23  2  0
 23 24  1  0
 23 25  1  0
 25 26  2  0
 26 27  1  0
 12 28  1  0
 28 29  1  0
 29 30  1  0
 29 31  1  0
 29 32  1  0
 32 33  2  0
 33 34  1  0
 33 35  1  0
 35 36  1  0
 35 37  2  0
 37 38  1  0
 38 39  1  0
 39 40  1  0
 39 41  1  0
 39 42  1  0
 37 43  1  0
 43 44  1  0
 43 45  2  0
 45 46  1  0
 28 47  1  0
 47 48  2  0
 47  9  1  0
 26 19  1  0
 45 32  1  0
M  CHG  2  11  -1  20  -1
M  END
>  <UniqueID>  (44) 
41

>  <SMILES>  (44) 
C=CCn1c([O-])c(CC(=O)/N=c2/cncc[n-]2)n(Cc2ccc(OC)cc2)c1=S

>  <Energy>  (44) 
86.06964877644599

>  <Genealogy>  (44) 
C=CCn1c([O-])c(CC(=O)N=c2cncc[n-]2)n(Cc2ccc(OC)cc2)c1=S (protonated)
C=CCn1c([O-])c(CC(=O)/N=c2/cncc[n-]2)n(Cc2ccc(OC)cc2)c1=S (cis-trans isomerization)
C=CCn1c([O-])c(CC(=O)/N=c2/cncc[n-]2)n(Cc2ccc(OC)cc2)c1=S (3D coordinates assigned)
C=CCn1c([O-])c(CC(=O)/N=c2/cncc[n-]2)n(Cc2ccc(OC)cc2)c1=S (optimized conformer: 86.06964877644599 kcal/mol)

>  <smiles>  (44) 
C=CCn1c(O)c(CC(=O)N=c2cncc[nH]2)n(Cc2ccc(OC)cc2)c1=S

>  <score_type>  (44) 
oracle

>  <origin>  (44) 
adg

>  <m_score__min__energy>  (44) 
-12.58

>  <m_primary>  (44) 
energy

$$$$
44:0
     RDKit          3D

 57 60  0  0  0  0  0  0  0  0999 V2000
   60.0380   26.8735   45.7976 H   0  0  0  0  0  0  0  0  0  0  0  0
   58.9390   26.8280   45.8100 C   0  0  0  0  0  0  0  0  0  0  0  0
   58.2100   27.9390   45.5250 N   0  0  0  0  0  0  0  0  0  0  0  0
   56.8480   27.9440   45.5180 C   0  0  0  0  0  0  0  0  0  0  0  0
   56.2510   29.0650   45.2220 N   0  0  0  0  0  0  0  0  0  0  0  0
   56.7070   30.1450   44.3940 C   0  0  0  0  0  0  0  0  0  0  0  0
   56.4680   30.1300   43.1550 O   0  0  0  0  0  0  0  0  0  0  0  0
   57.5570   31.2140   44.9680 C   0  0  0  0  0  0  0  0  0  0  0  0
   58.6330   30.8930   45.8160 C   0  0  0  0  0  0  0  0  0  0  0  0
   58.8418   29.8404   46.0577 H   0  0  0  0  0  0  0  0  0  0  0  0
   59.4390   31.9010   46.3540 C   0  0  0  0  0  0  0  0  0  0  0  0
   60.2795   31.6367   47.0126 H   0  0  0  0  0  0  0  0  0  0  0  0
   59.1810   33.2470   46.0580 C   0  0  0  0  0  0  0  0  0  0  0  0
   60.0650   34.3360   46.6080 C   0  0  0  0  0  0  0  0  0  0  0  0
   59.4821   34.9567   47.3043 H   0  0  0  0  0  0  0  0  0  0  0  0
   60.4362   34.9458   45.7711 H   0  0  0  0  0  0  0  0  0  0  0  0
   61.2210   33.7600   47.3240 N   0  0  0  0  0  0  0  0  0  0  0  0
   62.4380   33.8350   46.4890 C   0  0  0  0  0  0  0  0  0  0  0  0
   62.7509   34.8859   46.4014 H   0  0  0  0  0  0  0  0  0  0  0  0
   62.2104   33.4189   45.4965 H   0  0  0  0  0  0  0  0  0  0  0  0
   63.5860   33.0160   47.1170 C   0  0  0  0  0  0  0  0  0  0  0  0
   64.5386   33.5261   46.9113 H   0  0  0  0  0  0  0  0  0  0  0  0
   63.5657   32.0103   46.6718 H   0  0  0  0  0  0  0  0  0  0  0  0
   63.4250   32.8610   48.6440 C   0  0  1  0  0  0  0  0  0  0  0  0
   62.7226   32.0378   48.8415 H   0  0  0  0  0  0  0  0  0  0  0  0
   64.7460   32.4400   49.3410 C   0  0  0  0  0  0  0  0  0  0  0  0
   65.5306   32.3365   48.5770 H   0  0  0  0  0  0  0  0  0  0  0  0
   64.5609   31.4889   49.8618 H   0  0  0  0  0  0  0  0  0  0  0  0
   65.2090   33.4610   50.3860 C   0  0  0  0  0  0  0  0  0  0  0  0
   65.4820   34.3979   49.8783 H   0  0  0  0  0  0  0  0  0  0  0  0
   66.0766   33.0480   50.9214 H   0  0  0  0  0  0  0  0  0  0  0  0
   64.1380   33.7350   51.3630 N   0  0  0  0  0  0  0  0  0  0  0  0
   64.6730   34.9350   52.5160 S   0  0  0  0  0  0  0  0  0  0  0  0
   63.9130   34.7660   53.8030 O   0  0  0  0  0  0  0  0  0  0  0  0
   64.3960   36.3070   51.9710 O   0  0  0  0  0  0  0  0  0  0  0  0
   66.4190   34.7860   52.8520 C   0  0  0  0  0  0  0  0  0  0  0  0
   66.5832   34.7720   53.9396 H   0  0  0  0  0  0  0  0  0  0  0  0
   66.7987   33.8522   52.4118 H   0  0  0  0  0  0  0  0  0  0  0  0
   66.9515   35.6420   52.4118 H   0  0  0  0  0  0  0  0  0  0  0  0
   62.8250   34.1010   50.7700 C   0  0  0  0  0  0  0  0  0  0  0  0
   62.5347   35.0905   51.1528 H   0  0  0  0  0  0  0  0  0  0  0  0
   62.1118   33.3144   51.0573 H   0  0  0  0  0  0  0  0  0  0  0  0
   62.8360   34.1590   49.2280 C   0  0  2  0  0  0  0  0  0  0  0  0
   63.4749   35.0071   48.9407 H   0  0  0  0  0  0  0  0  0  0  0  0
   61.4260   34.4260   48.6380 C   0  0  0  0  0  0  0  0  0  0  0  0
   61.2984   35.5107   48.5070 H   0  0  0  0  0  0  0  0  0  0  0  0
   60.6870   34.0127   49.3402 H   0  0  0  0  0  0  0  0  0  0  0  0
   58.1170   33.5710   45.2050 C   0  0  0  0  0  0  0  0  0  0  0  0
   57.9157   34.6239   44.9581 H   0  0  0  0  0  0  0  0  0  0  0  0
   57.3100   32.5650   44.6660 C   0  0  0  0  0  0  0  0  0  0  0  0
   56.4757   32.8321   44.0008 H   0  0  0  0  0  0  0  0  0  0  0  0
   56.1620   26.7510   45.8720 C   0  0  0  0  0  0  0  0  0  0  0  0
   54.7800   26.6950   46.0060 O   0  0  0  0  0  0  0  0  0  0  0  0
   56.9020   25.5980   46.1520 C   0  0  0  0  0  0  0  0  0  0  0  0
   56.3824   24.6608   46.4002 H   0  0  0  0  0  0  0  0  0  0  0  0
   58.2950   25.6310   46.1180 C   0  0  0  0  0  0  0  0  0  0  0  0
   58.8788   24.7235   46.3316 H   0  0  0  0  0  0  0  0  0  0  0  0
  1  2  1  0
  2  3  1  0
  3  4  1  0
  4  5  2  0
  5  6  1  0
  6  7  2  0
  6  8  1  0
  8  9  2  0
  9 10  1  0
  9 11  1  0
 11 12  1  0
 11 13  2  0
 13 14  1  0
 14 15  1  0
 14 16  1  0
 14 17  1  0
 17 18  1  0
 18 19  1  0
 18 20  1  0
 18 21  1  0
 21 22  1  0
 21 23  1  0
 21 24  1  0
 24 25  1  6
 24 26  1  0
 26 27  1  0
 26 28  1  0
 26 29  1  0
 29 30  1  0
 29 31  1  0
 29 32  1  0
 32 33  1  0
 33 34  2  0
 33 35  2  0
 33 36  1  0
 36 37  1  0
 36 38  1  0
 36 39  1  0
 32 40  1  0
 40 41  1  0
 40 42  1  0
 40 43  1  0
 43 44  1  1
 43 45  1  0
 45 46  1  0
 45 47  1  0
 13 48  1  0
 48 49  1  0
 48 50  2  0
 50 51  1  0
  4 52  1  0
 52 53  1  0
 52 54  2  0
 54 55  1  0
 54 56  1  0
 56 57  1  0
 56  2  2  0
 50  8  1  0
 45 17  1  0
 43 24  1  0
M  CHG  2   3  -1  53  -1
M  END
>  <UniqueID>  (45) 
42

>  <SMILES>  (45) 
CS(=O)(=O)N1CC[C@@H]2CCN(Cc3ccc(C(=O)/N=c4/[n-]cccc4[O-])cc3)C[C@H]2C1

>  <Energy>  (45) 
83.93593999800362

>  <Genealogy>  (45) 
CS(=O)(=O)N1CCC2CCN(Cc3ccc(C(=O)N=c4[n-]cccc4[O-])cc3)CC2C1 (protonated)
CS(=O)(=O)N1CC[C@@H]2CCN(Cc3ccc(C(=O)N=c4[n-]cccc4[O-])cc3)C[C@H]2C1 (chirality)
CS(=O)(=O)N1CC[C@@H]2CCN(Cc3ccc(C(=O)/N=c4/[n-]cccc4[O-])cc3)C[C@H]2C1 (cis-trans isomerization)
CS(=O)(=O)N1CC[C@@H]2CCN(Cc3ccc(C(=O)/N=c4/[n-]cccc4[O-])cc3)C[C@H]2C1 (3D coordinates assigned)
CS(=O)(=O)N1CC[C@@H]2CCN(Cc3ccc(C(=O)/N=c4/[n-]cccc4[O-])cc3)C[C@H]2C1 (nonaromatic ring conformer: 83.93593999800362 kcal/mol)

>  <smiles>  (45) 
CS(=O)(=O)N1CCC2CCN(Cc3ccc(C(=O)N=c4[nH]cccc4O)cc3)CC2C1

>  <score_type>  (45) 
oracle

>  <origin>  (45) 
adg

>  <m_score__min__energy>  (45) 
-15.68

>  <m_primary>  (45) 
energy

$$$$
45:0
     RDKit          3D

 49 51  0  0  0  0  0  0  0  0999 V2000
   63.6320   32.2640   47.3450 C   0  0  0  0  0  0  0  0  0  0  0  0
   62.4400   32.7700   48.0510 N   0  0  0  0  0  0  0  0  0  0  0  0
   61.5210   33.5400   47.3750 C   0  0  0  0  0  0  0  0  0  0  0  0
   61.7030   33.8670   45.9830 N   0  0  0  0  0  0  0  0  0  0  0  0
   60.3850   34.0170   48.0440 C   0  0  0  0  0  0  0  0  0  0  0  0
   59.4460   34.8580   47.3600 N   0  0  0  0  0  0  0  0  0  0  0  0
   58.7870   34.5390   46.1260 C   0  0  0  0  0  0  0  0  0  0  0  0
   59.3400   34.8750   45.0450 O   0  0  0  0  0  0  0  0  0  0  0  0
   57.5490   33.6840   46.0890 C   0  0  0  0  0  0  0  0  0  0  0  0
   57.8710   32.3140   45.6920 N   0  0  0  0  0  0  0  0  0  0  0  0
   57.7150   31.7620   44.3510 C   0  0  0  0  0  0  0  0  0  0  0  0
   58.2270   30.3000   44.4360 C   0  0  0  0  0  0  0  0  0  0  0  0
   58.6710   30.1170   45.8130 N   0  0  0  0  0  0  0  0  0  0  0  0
   59.2560   28.8960   46.3620 C   0  0  0  0  0  0  0  0  0  0  0  0
   58.4030   27.7120   46.0070 C   0  0  0  0  0  0  0  0  0  0  0  0
   59.0030   26.5160   45.5800 C   0  0  0  0  0  0  0  0  0  0  0  0
   58.2160   25.3990   45.2830 C   0  0  0  0  0  0  0  0  0  0  0  0
   56.8260   25.4650   45.4190 C   0  0  0  0  0  0  0  0  0  0  0  0
   56.2210   26.6470   45.8560 C   0  0  0  0  0  0  0  0  0  0  0  0
   54.8410   26.7090   45.9980 O   0  0  0  0  0  0  0  0  0  0  0  0
   57.0060   27.7680   46.1520 C   0  0  0  0  0  0  0  0  0  0  0  0
   58.4410   31.3200   46.5150 C   0  0  0  0  0  0  0  0  0  0  0  0
   58.7140   31.4860   47.7330 O   0  0  0  0  0  0  0  0  0  0  0  0
   60.2370   33.7380   49.4050 C   0  0  0  0  0  0  0  0  0  0  0  0
   59.2710   34.2470   50.0380 O   0  0  0  0  0  0  0  0  0  0  0  0
   61.1420   32.9410   50.0490 N   0  0  0  0  0  0  0  0  0  0  0  0
   60.9730   32.6490   51.4830 C   0  0  0  0  0  0  0  0  0  0  0  0
   62.2490   32.4810   49.3830 C   0  0  0  0  0  0  0  0  0  0  0  0
   63.1060   31.7940   50.0080 O   0  0  0  0  0  0  0  0  0  0  0  0
   64.3853   31.9442   48.0800 H   0  0  0  0  0  0  0  0  0  0  0  0
   63.3489   31.4085   46.7142 H   0  0  0  0  0  0  0  0  0  0  0  0
   64.0508   33.0619   46.7142 H   0  0  0  0  0  0  0  0  0  0  0  0
   62.5910   33.6400   45.4850 H   0  0  0  0  0  0  0  0  0  0  0  0
   60.9680   34.3330   45.4110 H   0  0  0  0  0  0  0  0  0  0  0  0
   57.0908   33.6707   47.0890 H   0  0  0  0  0  0  0  0  0  0  0  0
   56.8516   34.1082   45.3517 H   0  0  0  0  0  0  0  0  0  0  0  0
   56.6574   31.7809   44.0492 H   0  0  0  0  0  0  0  0  0  0  0  0
   58.2744   32.3451   43.6046 H   0  0  0  0  0  0  0  0  0  0  0  0
   57.4167   29.5953   44.1974 H   0  0  0  0  0  0  0  0  0  0  0  0
   59.0397   30.1120   43.7189 H   0  0  0  0  0  0  0  0  0  0  0  0
   60.2644   28.7562   45.9455 H   0  0  0  0  0  0  0  0  0  0  0  0
   59.3130   28.9841   47.4570 H   0  0  0  0  0  0  0  0  0  0  0  0
   60.0968   26.4578   45.4788 H   0  0  0  0  0  0  0  0  0  0  0  0
   58.6910   24.4673   44.9420 H   0  0  0  0  0  0  0  0  0  0  0  0
   56.2082   24.5863   45.1820 H   0  0  0  0  0  0  0  0  0  0  0  0
   56.5278   28.6958   46.4992 H   0  0  0  0  0  0  0  0  0  0  0  0
   61.4366   33.4501   52.0774 H   0  0  0  0  0  0  0  0  0  0  0  0
   59.9008   32.5893   51.7212 H   0  0  0  0  0  0  0  0  0  0  0  0
   61.4554   31.6896   51.7212 H   0  0  0  0  0  0  0  0  0  0  0  0
  1  2  1  0
  2  3  1  0
  3  4  1  0
  3  5  2  0
  5  6  1  0
  6  7  1  0
  7  8  2  0
  7  9  1  0
  9 10  1  0
 10 11  1  0
 11 12  1  0
 12 13  1  0
 13 14  1  0
 14 15  1  0
 15 16  2  0
 16 17  1  0
 17 18  2  0
 18 19  1  0
 19 20  1  0
 19 21  2  0
 13 22  1  0
 22 23  2  0
  5 24  1  0
 24 25  2  0
 24 26  1  0
 26 27  1  0
 26 28  1  0
 28 29  2  0
 28  2  1  0
 22 10  1  0
 21 15  1  0
  1 30  1  0
  1 31  1  0
  1 32  1  0
  4 33  1  0
  4 34  1  0
  9 35  1  0
  9 36  1  0
 11 37  1  0
 11 38  1  0
 12 39  1  0
 12 40  1  0
 14 41  1  0
 14 42  1  0
 16 43  1  0
 17 44  1  0
 18 45  1  0
 21 46  1  0
 27 47  1  0
 27 48  1  0
 27 49  1  0
M  CHG  2   6  -1  20  -1
M  END
>  <UniqueID>  (46) 
43

>  <SMILES>  (46) 
Cn1c(N)c([N-]C(=O)CN2CCN(Cc3cccc([O-])c3)C2=O)c(=O)n(C)c1=O

>  <Energy>  (46) 
75.61483716084557

>  <Genealogy>  (46) 
Cn1c(N)c([N-]C(=O)CN2CCN(Cc3cccc([O-])c3)C2=O)c(=O)n(C)c1=O (protonated)
Cn1c(N)c([N-]C(=O)CN2CCN(Cc3cccc([O-])c3)C2=O)c(=O)n(C)c1=O (3D coordinates assigned)
Cn1c(N)c([N-]C(=O)CN2CCN(Cc3cccc([O-])c3)C2=O)c(=O)n(C)c1=O (nonaromatic ring conformer: 75.61483716084557 kcal/mol)

>  <smiles>  (46) 
Cn1c(N)c(NC(=O)CN2CCN(Cc3cccc(O)c3)C2=O)c(=O)n(C)c1=O

>  <score_type>  (46) 
oracle

>  <origin>  (46) 
adg

>  <m_score__min__energy>  (46) 
-12.029999999999999

>  <m_primary>  (46) 
energy

$$$$
46:0
     RDKit          3D

 37 39  0  0  0  0  0  0  0  0999 V2000
   58.5560   24.4820   45.6450 O   0  0  0  0  0  0  0  0  0  0  0  0
   57.5750   25.2530   45.4840 C   0  0  0  0  0  0  0  0  0  0  0  0
   57.8000   26.6660   45.4210 N   0  0  0  0  0  0  0  0  0  0  0  0
   58.0830   27.3890   44.1880 C   0  0  0  0  0  0  0  0  0  0  0  0
   57.7930   28.8480   44.3900 C   0  0  0  0  0  0  0  0  0  0  0  0
   58.4740   29.5740   45.3790 C   0  0  0  0  0  0  0  0  0  0  0  0
   58.2280   30.9410   45.5460 C   0  0  0  0  0  0  0  0  0  0  0  0
   57.3140   31.6030   44.7110 C   0  0  0  0  0  0  0  0  0  0  0  0
   57.0190   33.0620   44.9190 C   0  0  0  0  0  0  0  0  0  0  0  0
   58.1040   33.6860   45.6710 N   0  0  0  0  0  0  0  0  0  0  0  0
   58.1950   33.8090   47.0050 C   0  0  0  0  0  0  0  0  0  0  0  0
   59.4130   34.3810   47.2930 C   0  0  0  0  0  0  0  0  0  0  0  0
   60.0900   34.6060   46.1470 N   0  0  0  0  0  0  0  0  0  0  0  0
   59.2620   34.1640   45.1770 C   0  0  0  0  0  0  0  0  0  0  0  0
   56.6340   30.8760   43.7220 C   0  0  0  0  0  0  0  0  0  0  0  0
   56.8790   29.5110   43.5550 C   0  0  0  0  0  0  0  0  0  0  0  0
   56.2220   24.6780   45.3370 C   0  0  0  0  0  0  0  0  0  0  0  0
   55.0660   25.4180   45.6540 C   0  0  0  0  0  0  0  0  0  0  0  0
   55.1380   26.7170   46.1580 O   0  0  0  0  0  0  0  0  0  0  0  0
   53.8420   24.8530   45.4860 N   0  0  0  0  0  0  0  0  0  0  0  0
   53.7070   23.5830   45.0290 C   0  0  0  0  0  0  0  0  0  0  0  0
   52.5610   23.0850   44.8810 O   0  0  0  0  0  0  0  0  0  0  0  0
   54.8080   22.8460   44.7340 N   0  0  0  0  0  0  0  0  0  0  0  0
   56.0560   23.3610   44.8790 C   0  0  0  0  0  0  0  0  0  0  0  0
   57.0560   22.6490   44.5900 O   0  0  0  0  0  0  0  0  0  0  0  0
   59.1420   27.2586   43.9205 H   0  0  0  0  0  0  0  0  0  0  0  0
   57.4510   26.9967   43.3777 H   0  0  0  0  0  0  0  0  0  0  0  0
   59.2045   29.0660   46.0258 H   0  0  0  0  0  0  0  0  0  0  0  0
   58.7530   31.4995   46.3349 H   0  0  0  0  0  0  0  0  0  0  0  0
   56.9207   33.5572   43.9417 H   0  0  0  0  0  0  0  0  0  0  0  0
   56.0808   33.1649   45.4840 H   0  0  0  0  0  0  0  0  0  0  0  0
   57.4319   33.5064   47.7372 H   0  0  0  0  0  0  0  0  0  0  0  0
   59.7790   34.6186   48.3027 H   0  0  0  0  0  0  0  0  0  0  0  0
   59.5055   34.1912   44.1046 H   0  0  0  0  0  0  0  0  0  0  0  0
   55.9039   31.3839   43.0746 H   0  0  0  0  0  0  0  0  0  0  0  0
   56.3537   28.9529   42.7660 H   0  0  0  0  0  0  0  0  0  0  0  0
   55.9970   27.1230   46.5070 H   0  0  0  0  0  0  0  0  0  0  0  0
  1  2  2  0
  2  3  1  0
  3  4  1  0
  4  5  1  0
  5  6  2  0
  6  7  1  0
  7  8  2  0
  8  9  1  0
  9 10  1  0
 10 11  1  0
 11 12  2  0
 12 13  1  0
 13 14  2  0
  8 15  1  0
 15 16  2  0
  2 17  1  0
 17 18  2  0
 18 19  1  0
 18 20  1  0
 20 21  1  0
 21 22  2  0
 21 23  1  0
 23 24  1  0
 24 25  2  0
 16  5  1  0
 24 17  1  0
 14 10  1  0
  4 26  1  0
  4 27  1  0
  6 28  1  0
  7 29  1  0
  9 30  1  0
  9 31  1  0
 11 32  1  0
 12 33  1  0
 14 34  1  0
 15 35  1  0
 16 36  1  0
 19 37  1  0
M  CHG  3   3  -1  20  -1  23  -1
M  END
>  <UniqueID>  (47) 
44

>  <SMILES>  (47) 
O=C([N-]Cc1ccc(Cn2ccnc2)cc1)c1c(O)[n-]c(=O)[n-]c1=O

>  <Energy>  (47) 
73.81973585683997

>  <Genealogy>  (47) 
O=C([N-]Cc1ccc(Cn2ccnc2)cc1)c1c(O)[n-]c(=O)[n-]c1=O (protonated)
O=C([N-]Cc1ccc(Cn2ccnc2)cc1)c1c(O)[n-]c(=O)[n-]c1=O (3D coordinates assigned)
O=C([N-]Cc1ccc(Cn2ccnc2)cc1)c1c(O)[n-]c(=O)[n-]c1=O (optimized conformer: 73.81973585683997 kcal/mol)

>  <smiles>  (47) 
O=C(NCc1ccc(Cn2ccnc2)cc1)c1c(O)[nH]c(=O)[nH]c1=O

>  <score_type>  (47) 
oracle

>  <origin>  (47) 
adg

>  <m_score__min__energy>  (47) 
-13.85

>  <m_primary>  (47) 
energy

$$$$
47:0
     RDKit          3D

 42 45  0  0  0  0  0  0  0  0999 V2000
   59.9584   34.3224   50.2501 H   0  0  0  0  0  0  0  0  0  0  0  0
   60.3790   34.2010   49.2410 C   0  0  0  0  0  0  0  0  0  0  0  0
   59.6740   34.6200   48.1560 N   0  0  0  0  0  0  0  0  0  0  0  0
   60.1530   34.4870   46.8870 C   0  0  0  0  0  0  0  0  0  0  0  0
   59.3420   34.9670   45.7450 C   0  0  0  0  0  0  0  0  0  0  0  0
   59.5760   36.0990   45.2420 O   0  0  0  0  0  0  0  0  0  0  0  0
   58.2260   34.2100   45.2530 N   0  0  0  0  0  0  0  0  0  0  0  0
   58.1970   32.9340   44.9860 C   0  0  0  0  0  0  0  0  0  0  0  0
   58.5020   32.0570   45.9820 N   0  0  0  0  0  0  0  0  0  0  0  0
   58.4920   30.7120   45.7950 C   0  0  0  0  0  0  0  0  0  0  0  0
   58.7449   30.0408   46.6290 H   0  0  0  0  0  0  0  0  0  0  0  0
   58.1600   30.1750   44.5410 C   0  0  0  0  0  0  0  0  0  0  0  0
   58.1190   28.7930   44.3040 O   0  0  0  0  0  0  0  0  0  0  0  0
   58.8270   27.8220   45.0270 C   0  0  0  0  0  0  0  0  0  0  0  0
   60.1090   28.0660   45.5410 C   0  0  0  0  0  0  0  0  0  0  0  0
   60.5934   29.0410   45.3834 H   0  0  0  0  0  0  0  0  0  0  0  0
   60.7640   27.0630   46.2530 C   0  0  0  0  0  0  0  0  0  0  0  0
   61.7613   27.2518   46.6770 H   0  0  0  0  0  0  0  0  0  0  0  0
   60.1720   25.8520   46.4240 N   0  0  0  0  0  0  0  0  0  0  0  0
   58.9460   25.5580   45.9110 C   0  0  0  0  0  0  0  0  0  0  0  0
   58.4600   24.3680   46.1290 N   0  0  0  0  0  0  0  0  0  0  0  0
   57.2540   23.9910   46.8140 C   0  0  0  0  0  0  0  0  0  0  0  0
   57.2880   23.2680   47.8470 O   0  0  0  0  0  0  0  0  0  0  0  0
   55.9700   24.5330   46.3530 C   0  0  0  0  0  0  0  0  0  0  0  0
   55.5980   25.8180   46.5050 N   0  0  0  0  0  0  0  0  0  0  0  0
   54.3940   25.9650   45.9730 N   0  0  0  0  0  0  0  0  0  0  0  0
   53.9950   24.7770   45.4820 C   0  0  0  0  0  0  0  0  0  0  0  0
   53.0348   24.5882   44.9797 H   0  0  0  0  0  0  0  0  0  0  0  0
   54.9730   23.8350   45.7050 C   0  0  0  0  0  0  0  0  0  0  0  0
   54.9619   22.7701   45.4296 H   0  0  0  0  0  0  0  0  0  0  0  0
   58.2490   26.5600   45.2010 C   0  0  0  0  0  0  0  0  0  0  0  0
   57.2528   26.3485   44.7852 H   0  0  0  0  0  0  0  0  0  0  0  0
   57.8060   31.0500   43.5120 C   0  0  0  0  0  0  0  0  0  0  0  0
   57.5132   30.6503   42.5299 H   0  0  0  0  0  0  0  0  0  0  0  0
   57.8220   32.4300   43.7240 C   0  0  0  0  0  0  0  0  0  0  0  0
   57.5441   33.1186   42.9125 H   0  0  0  0  0  0  0  0  0  0  0  0
   61.4170   33.9080   46.6850 C   0  0  0  0  0  0  0  0  0  0  0  0
   61.8217   33.7990   45.6680 H   0  0  0  0  0  0  0  0  0  0  0  0
   62.1550   33.4720   47.7880 C   0  0  0  0  0  0  0  0  0  0  0  0
   63.1447   33.0146   47.6420 H   0  0  0  0  0  0  0  0  0  0  0  0
   61.6360   33.6170   49.0750 C   0  0  0  0  0  0  0  0  0  0  0  0
   62.2106   33.2752   49.9485 H   0  0  0  0  0  0  0  0  0  0  0  0
  1  2  1  0
  2  3  2  0
  3  4  1  0
  4  5  1  0
  5  6  2  0
  5  7  1  0
  7  8  2  0
  8  9  1  0
  9 10  1  0
 10 11  1  0
 10 12  2  0
 12 13  1  0
 13 14  1  0
 14 15  1  0
 15 16  1  0
 15 17  2  0
 17 18  1  0
 17 19  1  0
 19 20  1  0
 20 21  2  0
 21 22  1  0
 22 23  2  0
 22 24  1  0
 24 25  2  0
 25 26  1  0
 26 27  1  0
 27 28  1  0
 27 29  2  0
 29 30  1  0
 20 31  1  0
 31 32  1  0
 12 33  1  0
 33 34  1  0
 33 35  2  0
 35 36  1  0
  4 37  2  0
 37 38  1  0
 37 39  1  0
 39 40  1  0
 39 41  2  0
 41 42  1  0
 41  2  1  0
 35  8  1  0
 31 14  2  0
 29 24  1  0
M  CHG  3   9  -1  19  -1  26  -1
M  END
>  <UniqueID>  (48) 
45

>  <SMILES>  (48) 
O=C(/N=c1\ccc(Oc2cc[n-]/c(=N/C(=O)c3cc[n-]n3)c2)c[n-]1)c1ccccn1

>  <Energy>  (48) 
101.00515090559752

>  <Genealogy>  (48) 
O=C(N=c1ccc(Oc2cc[n-]c(=NC(=O)c3cc[n-]n3)c2)c[n-]1)c1ccccn1 (protonated)
O=C(/N=c1\ccc(Oc2cc[n-]/c(=N/C(=O)c3cc[n-]n3)c2)c[n-]1)c1ccccn1 (cis-trans isomerization)
O=C(/N=c1\ccc(Oc2cc[n-]/c(=N/C(=O)c3cc[n-]n3)c2)c[n-]1)c1ccccn1 (3D coordinates assigned)
O=C(/N=c1\ccc(Oc2cc[n-]/c(=N/C(=O)c3cc[n-]n3)c2)c[n-]1)c1ccccn1 (optimized conformer: 101.00515090559752 kcal/mol)

>  <smiles>  (48) 
O=C(N=c1ccc(Oc2cc[nH]c(=NC(=O)c3cc[nH]n3)c2)c[nH]1)c1ccccn1

>  <score_type>  (48) 
oracle

>  <origin>  (48) 
adg

>  <m_score__min__energy>  (48) 
-13.529999999999999

>  <m_primary>  (48) 
energy

$$$$
48:0
     RDKit          3D

 43 46  0  0  0  0  0  0  0  0999 V2000
   62.4930   33.8360   46.7120 C   0  0  0  0  0  0  0  0  0  0  0  0
   61.3870   33.6710   48.0970 S   0  0  0  0  0  0  0  0  0  0  0  0
   61.4880   32.2690   48.6300 O   0  0  0  0  0  0  0  0  0  0  0  0
   61.7640   34.6310   49.1890 O   0  0  0  0  0  0  0  0  0  0  0  0
   59.7520   33.9570   47.5930 N   0  0  0  0  0  0  0  0  0  0  0  0
   58.9880   33.1240   46.7080 C   0  0  0  0  0  0  0  0  0  0  0  0
   58.1350   33.7400   45.7830 C   0  0  0  0  0  0  0  0  0  0  0  0
   57.3780   32.9710   44.8940 C   0  0  0  0  0  0  0  0  0  0  0  0
   57.4700   31.5770   44.9230 C   0  0  0  0  0  0  0  0  0  0  0  0
   58.2870   30.9460   45.8740 C   0  0  0  0  0  0  0  0  0  0  0  0
   59.0600   31.7200   46.7480 C   0  0  0  0  0  0  0  0  0  0  0  0
   58.2840   29.5180   46.0120 N   0  0  0  0  0  0  0  0  0  0  0  0
   57.3460   28.7360   45.5560 C   0  0  0  0  0  0  0  0  0  0  0  0
   57.4450   27.2830   45.8090 C   0  0  0  0  0  0  0  0  0  0  0  0
   58.6020   26.5220   45.9320 C   0  0  0  0  0  0  0  0  0  0  0  0
   59.9210   26.9480   45.7940 O   0  0  0  0  0  0  0  0  0  0  0  0
   58.2110   25.2260   46.1880 C   0  0  0  0  0  0  0  0  0  0  0  0
   59.0690   24.1470   46.3550 O   0  0  0  0  0  0  0  0  0  0  0  0
   56.8680   25.1440   46.2440 N   0  0  0  0  0  0  0  0  0  0  0  0
   56.0720   23.9310   46.4290 C   0  0  0  0  0  0  0  0  0  0  0  0
   56.1940   23.0540   45.2240 C   0  0  0  0  0  0  0  0  0  0  0  0
   56.0220   23.4550   43.9060 C   0  0  0  0  0  0  0  0  0  0  0  0
   56.2860   22.4380   42.9820 C   0  0  0  0  0  0  0  0  0  0  0  0
   56.6820   21.2410   43.5690 C   0  0  0  0  0  0  0  0  0  0  0  0
   56.7050   21.4520   45.2370 S   0  0  0  0  0  0  0  0  0  0  0  0
   56.4010   26.3880   46.0060 C   0  0  0  0  0  0  0  0  0  0  0  0
   55.0480   26.7120   45.9930 O   0  0  0  0  0  0  0  0  0  0  0  0
   56.1170   29.3160   44.8980 C   0  0  0  0  0  0  0  0  0  0  0  0
   56.6000   30.5960   43.6990 S   0  0  0  0  0  0  0  0  0  0  0  0
   63.5189   33.9890   47.0782 H   0  0  0  0  0  0  0  0  0  0  0  0
   62.4543   32.9221   46.1010 H   0  0  0  0  0  0  0  0  0  0  0  0
   62.1893   34.6988   46.1010 H   0  0  0  0  0  0  0  0  0  0  0  0
   58.0603   34.8371   45.7559 H   0  0  0  0  0  0  0  0  0  0  0  0
   56.7101   33.4633   44.1718 H   0  0  0  0  0  0  0  0  0  0  0  0
   59.7275   31.2271   47.4701 H   0  0  0  0  0  0  0  0  0  0  0  0
   60.7000   26.3050   45.8500 H   0  0  0  0  0  0  0  0  0  0  0  0
   56.4352   23.3877   47.3139 H   0  0  0  0  0  0  0  0  0  0  0  0
   55.0169   24.2080   46.5702 H   0  0  0  0  0  0  0  0  0  0  0  0
   55.7098   24.4695   43.6174 H   0  0  0  0  0  0  0  0  0  0  0  0
   56.1895   22.5725   41.8945 H   0  0  0  0  0  0  0  0  0  0  0  0
   56.9367   20.3145   43.0335 H   0  0  0  0  0  0  0  0  0  0  0  0
   55.5707   28.5160   44.3768 H   0  0  0  0  0  0  0  0  0  0  0  0
   55.4732   29.7664   45.6679 H   0  0  0  0  0  0  0  0  0  0  0  0
  1  2  1  0
  2  3  2  0
  2  4  2  0
  2  5  1  0
  5  6  1  0
  6  7  2  0
  7  8  1  0
  8  9  2  0
  9 10  1  0
 10 11  2  0
 10 12  1  0
 12 13  2  0
 13 14  1  0
 14 15  1  0
 15 16  1  0
 15 17  2  0
 17 18  1  0
 17 19  1  0
 19 20  1  0
 20 21  1  0
 21 22  2  0
 22 23  1  0
 23 24  2  0
 24 25  1  0
 19 26  1  0
 26 27  1  0
 13 28  1  0
 28 29  1  0
 11  6  1  0
 26 14  2  0
 29  9  1  0
 25 21  1  0
  1 30  1  0
  1 31  1  0
  1 32  1  0
  7 33  1  0
  8 34  1  0
 11 35  1  0
 16 36  1  0
 20 37  1  0
 20 38  1  0
 22 39  1  0
 23 40  1  0
 24 41  1  0
 28 42  1  0
 28 43  1  0
M  CHG  3   5  -1  18  -1  27  -1
M  END
>  <UniqueID>  (49) 
46

>  <SMILES>  (49) 
CS(=O)(=O)[N-]c1ccc2c(c1)N=C(c1c(O)c([O-])n(Cc3cccs3)c1[O-])CS2

>  <Energy>  (49) 
108.32269924070495

>  <Genealogy>  (49) 
CS(=O)(=O)[N-]c1ccc2c(c1)N=C(c1c(O)c([O-])n(Cc3cccs3)c1[O-])CS2 (protonated)
CS(=O)(=O)[N-]c1ccc2c(c1)N=C(c1c(O)c([O-])n(Cc3cccs3)c1[O-])CS2 (3D coordinates assigned)
CS(=O)(=O)[N-]c1ccc2c(c1)N=C(c1c(O)c([O-])n(Cc3cccs3)c1[O-])CS2 (nonaromatic ring conformer: 108.32269924070495 kcal/mol)

>  <smiles>  (49) 
CS(=O)(=O)Nc1ccc2c(c1)N=C(c1c(O)c(O)n(Cc3cccs3)c1O)CS2

>  <score_type>  (49) 
oracle

>  <origin>  (49) 
adg

>  <m_score__min__energy>  (49) 
-14.07

>  <m_primary>  (49) 
energy

$$$$
49:0
     RDKit          3D

 62 65  0  0  0  0  0  0  0  0999 V2000
   64.6860   32.5390   47.1690 H   0  0  0  0  0  0  0  0  0  0  0  0
   64.4140   33.4550   47.5090 O   0  0  0  0  0  0  0  0  0  0  0  0
   63.2420   33.6390   48.2390 C   0  0  0  0  0  0  0  0  0  0  0  0
   63.2850   33.8470   49.6260 C   0  0  0  0  0  0  0  0  0  0  0  0
   64.2531   33.8668   50.1478 H   0  0  0  0  0  0  0  0  0  0  0  0
   62.1020   34.0290   50.3460 C   0  0  0  0  0  0  0  0  0  0  0  0
   62.1420   34.1926   51.4330 H   0  0  0  0  0  0  0  0  0  0  0  0
   60.8620   34.0040   49.6880 C   0  0  0  0  0  0  0  0  0  0  0  0
   59.6670   34.1840   50.4560 N   0  0  0  0  0  0  0  0  0  0  0  0
   59.3440   33.3980   51.4030 N   0  0  0  0  0  0  0  0  0  0  0  0
   59.0490   32.0220   51.1570 C   0  0  0  0  0  0  0  0  0  0  0  0
   57.8480   31.3770   51.3910 C   0  0  0  0  0  0  0  0  0  0  0  0
   56.6320   31.9710   52.0230 C   0  0  0  0  0  0  0  0  0  0  0  0
   56.7278   31.9242   53.1178 H   0  0  0  0  0  0  0  0  0  0  0  0
   56.5305   33.0201   51.7083 H   0  0  0  0  0  0  0  0  0  0  0  0
   55.7421   31.4061   51.7083 H   0  0  0  0  0  0  0  0  0  0  0  0
   57.9590   30.0770   51.0330 N   0  0  0  0  0  0  0  0  0  0  0  0
   59.1860   29.8910   50.5620 N   0  0  0  0  0  0  0  0  0  0  0  0
   59.6860   28.6030   50.0850 C   0  0  0  0  0  0  0  0  0  0  0  0
   58.9238   27.8313   50.2678 H   0  0  0  0  0  0  0  0  0  0  0  0
   60.6134   28.3649   50.6266 H   0  0  0  0  0  0  0  0  0  0  0  0
   59.9890   28.6540   48.6210 C   0  0  0  0  0  0  0  0  0  0  0  0
   60.5670   29.6600   48.1250 O   0  0  0  0  0  0  0  0  0  0  0  0
   59.5310   27.5960   47.7760 N   0  0  0  0  0  0  0  0  0  0  0  0
   58.9080   27.8010   46.5030 C   0  0  0  0  0  0  0  0  0  0  0  0
   58.3800   29.0670   46.2170 C   0  0  0  0  0  0  0  0  0  0  0  0
   58.4697   29.8753   46.9577 H   0  0  0  0  0  0  0  0  0  0  0  0
   57.7390   29.3120   44.9960 C   0  0  0  0  0  0  0  0  0  0  0  0
   57.1240   30.9230   44.6270 S   0  0  0  0  0  0  0  0  0  0  0  0
   55.6430   30.8270   44.3920 O   0  0  0  0  0  0  0  0  0  0  0  0
   57.7550   31.4000   43.3480 O   0  0  0  0  0  0  0  0  0  0  0  0
   57.4170   32.0980   45.8930 N   0  0  0  0  0  0  0  0  0  0  0  0
   56.7040   33.3790   45.7210 C   0  0  0  0  0  0  0  0  0  0  0  0
   55.7444   33.1799   45.2215 H   0  0  0  0  0  0  0  0  0  0  0  0
   56.5683   33.8129   46.7226 H   0  0  0  0  0  0  0  0  0  0  0  0
   57.4850   34.4020   44.8850 C   0  0  0  0  0  0  0  0  0  0  0  0
   57.5446   34.0475   43.8454 H   0  0  0  0  0  0  0  0  0  0  0  0
   56.9609   35.3680   44.9315 H   0  0  0  0  0  0  0  0  0  0  0  0
   58.8970   34.5860   45.4320 C   0  0  0  0  0  0  0  0  0  0  0  0
   59.4507   35.2827   44.7854 H   0  0  0  0  0  0  0  0  0  0  0  0
   58.8398   34.9916   46.4529 H   0  0  0  0  0  0  0  0  0  0  0  0
   59.6200   33.2440   45.4650 C   0  0  0  0  0  0  0  0  0  0  0  0
   59.7293   32.8689   44.4367 H   0  0  0  0  0  0  0  0  0  0  0  0
   60.6066   33.3888   45.9293 H   0  0  0  0  0  0  0  0  0  0  0  0
   58.8350   32.2160   46.2940 C   0  0  0  0  0  0  0  0  0  0  0  0
   59.3140   31.2330   46.1748 H   0  0  0  0  0  0  0  0  0  0  0  0
   58.8495   32.5617   47.3382 H   0  0  0  0  0  0  0  0  0  0  0  0
   57.6450   28.2870   44.0460 C   0  0  0  0  0  0  0  0  0  0  0  0
   57.1706   28.4835   43.0732 H   0  0  0  0  0  0  0  0  0  0  0  0
   58.1510   27.0170   44.3290 C   0  0  0  0  0  0  0  0  0  0  0  0
   58.0668   26.2172   43.5785 H   0  0  0  0  0  0  0  0  0  0  0  0
   58.7670   26.7510   45.5640 C   0  0  0  0  0  0  0  0  0  0  0  0
   59.2680   25.3570   45.8480 C   0  0  0  0  0  0  0  0  0  0  0  0
   59.3237   25.2019   46.9356 H   0  0  0  0  0  0  0  0  0  0  0  0
   58.5776   24.6225   45.4078 H   0  0  0  0  0  0  0  0  0  0  0  0
   60.2680   25.2300   45.4078 H   0  0  0  0  0  0  0  0  0  0  0  0
   59.8690   31.0500   50.6300 C   0  0  0  0  0  0  0  0  0  0  0  0
   61.0670   31.2010   50.2670 O   0  0  0  0  0  0  0  0  0  0  0  0
   60.8240   33.8000   48.2970 C   0  0  0  0  0  0  0  0  0  0  0  0
   59.8575   33.7836   47.7720 H   0  0  0  0  0  0  0  0  0  0  0  0
   62.0090   33.6180   47.5790 C   0  0  0  0  0  0  0  0  0  0  0  0
   61.9720   33.4577   46.4914 H   0  0  0  0  0  0  0  0  0  0  0  0
  1  2  1  0
  2  3  1  0
  3  4  2  0
  4  5  1  0
  4  6  1  0
  6  7  1  0
  6  8  2  0
  8  9  1  0
  9 10  2  0
 10 11  1  0
 11 12  2  0
 12 13  1  0
 13 14  1  0
 13 15  1  0
 13 16  1  0
 12 17  1  0
 17 18  1  0
 18 19  1  0
 19 20  1  0
 19 21  1  0
 19 22  1  0
 22 23  2  0
 22 24  1  0
 24 25  1  0
 25 26  2  0
 26 27  1  0
 26 28  1  0
 28 29  1  0
 29 30  2  0
 29 31  2  0
 29 32  1  0
 32 33  1  0
 33 34  1  0
 33 35  1  0
 33 36  1  0
 36 37  1  0
 36 38  1  0
 36 39  1  0
 39 40  1  0
 39 41  1  0
 39 42  1  0
 42 43  1  0
 42 44  1  0
 42 45  1  0
 45 46  1  0
 45 47  1  0
 28 48  2  0
 48 49  1  0
 48 50  1  0
 50 51  1  0
 50 52  2  0
 52 53  1  0
 53 54  1  0
 53 55  1  0
 53 56  1  0
 18 57  1  0
 57 58  2  0
  8 59  1  0
 59 60  1  0
 59 61  2  0
 61 62  1  0
 61  3  1  0
 57 11  1  0
 52 25  1  0
 45 32  1  0
M  CHG  2  17  -1  24  -1
M  END
>  <UniqueID>  (50) 
47

>  <SMILES>  (50) 
Cc1ccc(S(=O)(=O)N2CCCCC2)cc1[N-]C(=O)Cn1[n-]c(C)c(/N=N/c2ccc(O)cc2)c1=O

>  <Energy>  (50) 
103.39902186499907

>  <Genealogy>  (50) 
Cc1ccc(S(=O)(=O)N2CCCCC2)cc1[N-]C(=O)Cn1[n-]c(C)c(N=Nc2ccc(O)cc2)c1=O (protonated)
Cc1ccc(S(=O)(=O)N2CCCCC2)cc1[N-]C(=O)Cn1[n-]c(C)c(/N=N/c2ccc(O)cc2)c1=O (cis-trans isomerization)
Cc1ccc(S(=O)(=O)N2CCCCC2)cc1[N-]C(=O)Cn1[n-]c(C)c(/N=N/c2ccc(O)cc2)c1=O (3D coordinates assigned)
Cc1ccc(S(=O)(=O)N2CCCCC2)cc1[N-]C(=O)Cn1[n-]c(C)c(/N=N/c2ccc(O)cc2)c1=O (nonaromatic ring conformer: 103.39902186499907 kcal/mol)

>  <smiles>  (50) 
Cc1ccc(S(=O)(=O)N2CCCCC2)cc1NC(=O)Cn1[nH]c(C)c(N=Nc2ccc(O)cc2)c1=O

>  <score_type>  (50) 
oracle

>  <origin>  (50) 
adg

>  <m_score__min__energy>  (50) 
-13.31

>  <m_primary>  (50) 
energy

$$$$
50:0
     RDKit          3D

 71 75  0  0  0  0  0  0  0  0999 V2000
   68.4130   27.4570   49.7680 C   0  0  0  0  0  0  0  0  0  0  0  0
   67.8490   28.2040   50.9720 C   0  0  0  0  0  0  0  0  0  0  0  0
   66.7160   27.4560   51.5550 N   0  0  0  0  0  0  0  0  0  0  0  0
   65.7030   28.3600   52.1330 C   0  0  0  0  0  0  0  0  0  0  0  0
   64.4210   27.5620   52.3930 C   0  0  0  0  0  0  0  0  0  0  0  0
   64.7380   26.2040   52.8550 N   0  0  0  0  0  0  0  0  0  0  0  0
   63.7100   25.1920   52.8110 C   0  0  0  0  0  0  0  0  0  0  0  0
   62.5890   25.3180   51.9710 C   0  0  0  0  0  0  0  0  0  0  0  0
   61.5890   24.3440   52.0030 C   0  0  0  0  0  0  0  0  0  0  0  0
   61.6800   23.2720   52.9050 C   0  0  0  0  0  0  0  0  0  0  0  0
   60.6620   22.2670   53.0090 N   0  0  0  0  0  0  0  0  0  0  0  0
   60.0050   21.5960   51.9260 C   0  0  0  0  0  0  0  0  0  0  0  0
   60.7110   21.0160   51.0580 O   0  0  0  0  0  0  0  0  0  0  0  0
   58.5740   21.4800   51.8830 N   0  0  0  0  0  0  0  0  0  0  0  0
   57.8240   21.0940   50.7170 C   0  0  0  0  0  0  0  0  0  0  0  0
   57.4690   19.7470   50.5530 C   0  0  0  0  0  0  0  0  0  0  0  0
   56.7310   19.3360   49.4400 C   0  0  0  0  0  0  0  0  0  0  0  0
   56.3210   20.2740   48.4760 C   0  0  0  0  0  0  0  0  0  0  0  0
   55.6030   19.8870   47.3350 O   0  0  0  0  0  0  0  0  0  0  0  0
   55.7040   20.5160   46.0860 C   0  0  0  0  0  0  0  0  0  0  0  0
   56.2060   19.7960   45.0010 C   0  0  0  0  0  0  0  0  0  0  0  0
   56.2840   20.4070   43.7490 C   0  0  0  0  0  0  0  0  0  0  0  0
   55.9000   21.7010   43.5940 N   0  0  0  0  0  0  0  0  0  0  0  0
   55.4480   22.4540   44.6340 C   0  0  0  0  0  0  0  0  0  0  0  0
   55.1000   23.6890   44.3980 N   0  0  0  0  0  0  0  0  0  0  0  0
   55.4550   24.8540   45.1560 C   0  0  0  0  0  0  0  0  0  0  0  0
   54.5930   25.4350   45.8710 O   0  0  0  0  0  0  0  0  0  0  0  0
   56.8890   25.3430   45.1270 C   0  0  2  0  0  0  0  0  0  0  0  0
   57.8850   24.3840   44.4830 C   0  0  0  0  0  0  0  0  0  0  0  0
   58.6020   24.4320   45.8250 C   0  0  0  0  0  0  0  0  0  0  0  0
   57.6150   25.3520   46.4170 N   0  0  0  0  0  0  0  0  0  0  0  0
   56.9170   24.7330   47.5600 C   0  0  0  0  0  0  0  0  0  0  0  0
   55.3390   21.8610   45.9100 C   0  0  0  0  0  0  0  0  0  0  0  0
   56.6620   21.6200   48.6410 C   0  0  0  0  0  0  0  0  0  0  0  0
   57.3850   22.0390   49.7630 C   0  0  0  0  0  0  0  0  0  0  0  0
   57.6050   23.3670   49.9380 F   0  0  0  0  0  0  0  0  0  0  0  0
   62.8220   23.1670   53.7060 C   0  0  0  0  0  0  0  0  0  0  0  0
   63.7870   24.1210   53.6510 N   0  0  0  0  0  0  0  0  0  0  0  0
   66.0490   25.9660   53.4760 C   0  0  0  0  0  0  0  0  0  0  0  0
   67.1860   26.4730   52.5600 C   0  0  0  0  0  0  0  0  0  0  0  0
   69.0420   26.6240   50.1151 H   0  0  0  0  0  0  0  0  0  0  0  0
   67.5851   27.0629   49.1603 H   0  0  0  0  0  0  0  0  0  0  0  0
   69.0187   28.1453   49.1603 H   0  0  0  0  0  0  0  0  0  0  0  0
   68.6375   28.3176   51.7305 H   0  0  0  0  0  0  0  0  0  0  0  0
   67.4947   29.1929   50.6456 H   0  0  0  0  0  0  0  0  0  0  0  0
   66.0770   28.7777   53.0794 H   0  0  0  0  0  0  0  0  0  0  0  0
   65.4954   29.1843   51.4349 H   0  0  0  0  0  0  0  0  0  0  0  0
   63.8262   28.0754   53.1628 H   0  0  0  0  0  0  0  0  0  0  0  0
   63.8522   27.4918   51.4541 H   0  0  0  0  0  0  0  0  0  0  0  0
   62.5005   26.1792   51.2925 H   0  0  0  0  0  0  0  0  0  0  0  0
   60.7291   24.4167   51.3209 H   0  0  0  0  0  0  0  0  0  0  0  0
   58.0540   21.5640   52.7880 H   0  0  0  0  0  0  0  0  0  0  0  0
   57.7744   19.0073   51.3077 H   0  0  0  0  0  0  0  0  0  0  0  0
   56.4697   18.2745   49.3174 H   0  0  0  0  0  0  0  0  0  0  0  0
   56.5375   18.7553   45.1317 H   0  0  0  0  0  0  0  0  0  0  0  0
   56.6577   19.8390   42.8843 H   0  0  0  0  0  0  0  0  0  0  0  0
   56.6870   26.3119   44.6470 H   0  0  0  0  0  0  0  0  0  0  0  0
   57.4759   23.4011   44.2063 H   0  0  0  0  0  0  0  0  0  0  0  0
   58.3878   24.5957   43.5278 H   0  0  0  0  0  0  0  0  0  0  0  0
   58.6462   23.4561   46.3306 H   0  0  0  0  0  0  0  0  0  0  0  0
   59.6645   24.7161   45.8444 H   0  0  0  0  0  0  0  0  0  0  0  0
   57.3447   25.1122   48.4998 H   0  0  0  0  0  0  0  0  0  0  0  0
   55.8471   24.9846   47.5162 H   0  0  0  0  0  0  0  0  0  0  0  0
   57.0389   23.6407   47.5162 H   0  0  0  0  0  0  0  0  0  0  0  0
   54.9699   22.4494   46.7629 H   0  0  0  0  0  0  0  0  0  0  0  0
   56.3590   22.3560   47.8817 H   0  0  0  0  0  0  0  0  0  0  0  0
   62.9389   22.3081   54.3833 H   0  0  0  0  0  0  0  0  0  0  0  0
   66.0953   26.4981   54.4376 H   0  0  0  0  0  0  0  0  0  0  0  0
   66.1758   24.8846   53.6325 H   0  0  0  0  0  0  0  0  0  0  0  0
   67.9555   26.9495   53.1852 H   0  0  0  0  0  0  0  0  0  0  0  0
   67.5849   25.6051   52.0144 H   0  0  0  0  0  0  0  0  0  0  0  0
  1  2  1  0
  2  3  1  0
  3  4  1  0
  4  5  1  0
  5  6  1  0
  6  7  1  0
  7  8  2  0
  8  9  1  0
  9 10  2  0
 10 11  1  0
 11 12  1  0
 12 13  2  0
 12 14  1  0
 14 15  1  0
 15 16  2  0
 16 17  1  0
 17 18  2  0
 18 19  1  0
 19 20  1  0
 20 21  1  0
 21 22  2  0
 22 23  1  0
 23 24  1  0
 24 25  2  3
 25 26  1  0
 26 27  2  0
 26 28  1  0
 28 29  1  0
 29 30  1  0
 30 31  1  0
 31 32  1  0
 24 33  1  0
 18 34  1  0
 34 35  2  0
 35 36  1  0
 10 37  1  0
 37 38  2  0
  6 39  1  0
 39 40  1  0
 40  3  1  0
 38  7  1  0
 35 15  1  0
 33 20  2  0
 31 28  1  0
  1 41  1  0
  1 42  1  0
  1 43  1  0
  2 44  1  0
  2 45  1  0
  4 46  1  0
  4 47  1  0
  5 48  1  0
  5 49  1  0
  8 50  1  0
  9 51  1  0
 14 52  1  0
 16 53  1  0
 17 54  1  0
 21 55  1  0
 22 56  1  0
 28 57  1  6
 29 58  1  0
 29 59  1  0
 30 60  1  0
 30 61  1  0
 32 62  1  0
 32 63  1  0
 32 64  1  0
 33 65  1  0
 34 66  1  0
 37 67  1  0
 39 68  1  0
 39 69  1  0
 40 70  1  0
 40 71  1  0
M  CHG  2  11  -1  23  -1
M  END
>  <UniqueID>  (51) 
48

>  <SMILES>  (51) 
CCN1CCN(c2ccc([N-]C(=O)Nc3ccc(Oc4cc[n-]c(=NC(=O)[C@@H]5CCN5C)c4)cc3F)cn2)CC1

>  <Energy>  (51) 
180.86408542386152

>  <Genealogy>  (51) 
CCN1CCN(c2ccc([N-]C(=O)Nc3ccc(Oc4cc[n-]c(=NC(=O)C5CCN5C)c4)cc3F)cn2)CC1 (protonated)
CCN1CCN(c2ccc([N-]C(=O)Nc3ccc(Oc4cc[n-]c(=NC(=O)[C@@H]5CCN5C)c4)cc3F)cn2)CC1 (chirality)
CCN1CCN(c2ccc([N-]C(=O)Nc3ccc(Oc4cc[n-]c(=NC(=O)[C@@H]5CCN5C)c4)cc3F)cn2)CC1 (3D coordinates assigned)
CCN1CCN(c2ccc([N-]C(=O)Nc3ccc(Oc4cc[n-]c(=NC(=O)[C@@H]5CCN5C)c4)cc3F)cn2)CC1 (nonaromatic ring conformer: 180.86408542386152 kcal/mol)

>  <smiles>  (51) 
CCN1CCN(c2ccc(NC(=O)Nc3ccc(Oc4cc[nH]c(=NC(=O)C5CCN5C)c4)cc3F)cn2)CC1

>  <score_type>  (51) 
oracle

>  <origin>  (51) 
adg

>  <m_score__min__energy>  (51) 
-10.68

>  <m_primary>  (51) 
energy

$$$$
51:0
     RDKit          3D

 51 54  0  0  0  0  0  0  0  0999 V2000
   55.1790   29.1380   44.6080 N   0  0  0  0  0  0  0  0  0  0  0  0
   56.4990   30.1540   44.1480 S   0  0  0  0  0  0  0  0  0  0  0  0
   56.6590   30.1140   42.6550 O   0  0  0  0  0  0  0  0  0  0  0  0
   56.2140   31.5700   44.5650 O   0  0  0  0  0  0  0  0  0  0  0  0
   57.9740   29.5940   44.9310 C   0  0  0  0  0  0  0  0  0  0  0  0
   58.6190   28.4340   44.4830 C   0  0  0  0  0  0  0  0  0  0  0  0
   59.7820   27.9930   45.1130 C   0  0  0  0  0  0  0  0  0  0  0  0
   60.3100   28.7040   46.1950 C   0  0  0  0  0  0  0  0  0  0  0  0
   59.6760   29.8710   46.6580 C   0  0  0  0  0  0  0  0  0  0  0  0
   60.2210   30.6240   47.8130 C   0  0  0  0  0  0  0  0  0  0  0  0
   60.2190   30.0920   48.9570 O   0  0  0  0  0  0  0  0  0  0  0  0
   60.7030   31.9690   47.6530 N   0  0  0  0  0  0  0  0  0  0  0  0
   61.6100   32.6070   48.5690 C   0  0  0  0  0  0  0  0  0  0  0  0
   62.8390   33.1370   48.1350 C   0  0  0  0  0  0  0  0  0  0  0  0
   63.6910   33.7780   49.0390 C   0  0  0  0  0  0  0  0  0  0  0  0
   63.3320   33.9000   50.3900 C   0  0  0  0  0  0  0  0  0  0  0  0
   64.2330   34.5930   51.3390 C   0  0  0  0  0  0  0  0  0  0  0  0
   63.9650   35.7760   51.6860 O   0  0  0  0  0  0  0  0  0  0  0  0
   65.4050   33.9520   51.8790 N   0  0  0  0  0  0  0  0  0  0  0  0
   66.6680   34.6980   52.0190 C   0  0  0  0  0  0  0  0  0  0  0  0
   67.7200   34.3170   50.9660 C   0  0  0  0  0  0  0  0  0  0  0  0
   68.3530   32.9430   51.2360 C   0  0  0  0  0  0  0  0  0  0  0  0
   67.4320   31.7870   50.8240 C   0  0  0  0  0  0  0  0  0  0  0  0
   66.2260   31.5910   51.7040 C   0  0  0  0  0  0  0  0  0  0  0  0
   65.8020   30.1040   52.3690 S   0  0  0  0  0  0  0  0  0  0  0  0
   64.4960   30.6630   53.2640 C   0  0  0  0  0  0  0  0  0  0  0  0
   63.3910   29.5870   54.3840 Br  0  0  0  0  0  0  0  0  0  0  0  0
   64.3700   32.0290   53.0690 C   0  0  0  0  0  0  0  0  0  0  0  0
   65.3340   32.5520   52.1920 C   0  0  0  0  0  0  0  0  0  0  0  0
   62.0900   33.4020   50.8160 C   0  0  0  0  0  0  0  0  0  0  0  0
   61.2370   32.7630   49.9110 C   0  0  0  0  0  0  0  0  0  0  0  0
   58.4970   30.3030   46.0210 C   0  0  0  0  0  0  0  0  0  0  0  0
   55.1750   29.0970   45.6510 H   0  0  0  0  0  0  0  0  0  0  0  0
   58.2073   27.8702   43.6329 H   0  0  0  0  0  0  0  0  0  0  0  0
   60.2861   27.0822   44.7575 H   0  0  0  0  0  0  0  0  0  0  0  0
   61.2272   28.3484   46.6873 H   0  0  0  0  0  0  0  0  0  0  0  0
   60.2920   32.5500   46.8880 H   0  0  0  0  0  0  0  0  0  0  0  0
   63.1310   33.0464   47.0783 H   0  0  0  0  0  0  0  0  0  0  0  0
   64.6492   34.1895   48.6890 H   0  0  0  0  0  0  0  0  0  0  0  0
   66.4513   35.7722   51.9230 H   0  0  0  0  0  0  0  0  0  0  0  0
   67.0874   34.4456   53.0041 H   0  0  0  0  0  0  0  0  0  0  0  0
   67.2377   34.2950   49.9776 H   0  0  0  0  0  0  0  0  0  0  0  0
   68.5222   35.0684   51.0083 H   0  0  0  0  0  0  0  0  0  0  0  0
   69.2914   32.8678   50.6670 H   0  0  0  0  0  0  0  0  0  0  0  0
   68.5320   32.8616   52.3183 H   0  0  0  0  0  0  0  0  0  0  0  0
   67.0797   31.9795   49.7999 H   0  0  0  0  0  0  0  0  0  0  0  0
   68.0312   30.8689   50.9138 H   0  0  0  0  0  0  0  0  0  0  0  0
   63.5941   32.6412   53.5519 H   0  0  0  0  0  0  0  0  0  0  0  0
   61.7866   33.5152   51.8673 H   0  0  0  0  0  0  0  0  0  0  0  0
   60.2651   32.3795   50.2551 H   0  0  0  0  0  0  0  0  0  0  0  0
   57.9817   31.2052   46.3821 H   0  0  0  0  0  0  0  0  0  0  0  0
  1  2  1  0
  2  3  2  0
  2  4  2  0
  2  5  1  0
  5  6  2  0
  6  7  1  0
  7  8  2  0
  8  9  1  0
  9 10  1  0
 10 11  2  0
 10 12  1  0
 12 13  1  0
 13 14  2  0
 14 15  1  0
 15 16  2  0
 16 17  1  0
 17 18  2  0
 17 19  1  0
 19 20  1  0
 20 21  1  0
 21 22  1  0
 22 23  1  0
 23 24  1  0
 24 25  1  0
 25 26  1  0
 26 27  1  0
 26 28  2  0
 28 29  1  0
 16 30  1  0
 30 31  2  0
  9 32  2  0
 32  5  1  0
 31 13  1  0
 29 19  1  0
 29 24  2  0
  1 33  1  0
  6 34  1  0
  7 35  1  0
  8 36  1  0
 12 37  1  0
 14 38  1  0
 15 39  1  0
 20 40  1  0
 20 41  1  0
 21 42  1  0
 21 43  1  0
 22 44  1  0
 22 45  1  0
 23 46  1  0
 23 47  1  0
 28 48  1  0
 30 49  1  0
 31 50  1  0
 32 51  1  0
M  CHG  1   1  -1
M  END
>  <UniqueID>  (52) 
49

>  <SMILES>  (52) 
[NH-]S(=O)(=O)c1cccc(C(=O)Nc2ccc(C(=O)N3CCCCc4sc(Br)cc43)cc2)c1

>  <Energy>  (52) 
100.69721148610915

>  <Genealogy>  (52) 
[NH-]S(=O)(=O)c1cccc(C(=O)Nc2ccc(C(=O)N3CCCCc4sc(Br)cc43)cc2)c1 (protonated)
[NH-]S(=O)(=O)c1cccc(C(=O)Nc2ccc(C(=O)N3CCCCc4sc(Br)cc43)cc2)c1 (3D coordinates assigned)
[NH-]S(=O)(=O)c1cccc(C(=O)Nc2ccc(C(=O)N3CCCCc4sc(Br)cc43)cc2)c1 (nonaromatic ring conformer: 100.69721148610915 kcal/mol)

>  <smiles>  (52) 
NS(=O)(=O)c1cccc(C(=O)Nc2ccc(C(=O)N3CCCCc4sc(Br)cc43)cc2)c1

>  <score_type>  (52) 
oracle

>  <origin>  (52) 
adg

>  <m_score__min__energy>  (52) 
-10.08

>  <m_primary>  (52) 
energy

$$$$
52:0
     RDKit          3D

 44 47  0  0  0  0  0  0  0  0999 V2000
   57.2760   26.0150   47.4700 O   0  0  0  0  0  0  0  0  0  0  0  0
   57.8170   26.4970   46.4370 C   0  0  0  0  0  0  0  0  0  0  0  0
   57.5930   25.9010   45.1470 N   0  0  0  0  0  0  0  0  0  0  0  0
   56.7290   24.9720   44.8450 C   0  0  0  0  0  0  0  0  0  0  0  0
   57.1020   23.8730   44.1260 N   0  0  0  0  0  0  0  0  0  0  0  0
   56.2210   22.8920   43.7970 C   0  0  0  0  0  0  0  0  0  0  0  0
   54.8880   22.9890   44.1920 C   0  0  0  0  0  0  0  0  0  0  0  0
   54.4740   24.1000   44.9280 C   0  0  0  0  0  0  0  0  0  0  0  0
   55.3890   25.1020   45.2600 C   0  0  0  0  0  0  0  0  0  0  0  0
   54.9510   26.2050   45.9960 O   0  0  0  0  0  0  0  0  0  0  0  0
   58.6960   27.6850   46.5550 C   0  0  0  0  0  0  0  0  0  0  0  0
   59.7690   27.8740   45.6650 C   0  0  0  0  0  0  0  0  0  0  0  0
   60.5920   28.9970   45.7770 C   0  0  0  0  0  0  0  0  0  0  0  0
   60.3590   29.9430   46.7750 C   0  0  0  0  0  0  0  0  0  0  0  0
   59.2980   29.7710   47.6730 C   0  0  0  0  0  0  0  0  0  0  0  0
   58.9920   30.9790   48.9160 S   0  0  0  0  0  0  0  0  0  0  0  0
   60.3110   31.4360   49.4730 O   0  0  0  0  0  0  0  0  0  0  0  0
   58.1480   30.3730   50.0020 O   0  0  0  0  0  0  0  0  0  0  0  0
   58.1460   32.3220   48.2140 N   0  0  0  0  0  0  0  0  0  0  0  0
   58.3550   32.9350   46.9290 C   0  0  0  0  0  0  0  0  0  0  0  0
   58.9890   34.1860   46.9160 C   0  0  0  0  0  0  0  0  0  0  0  0
   59.2270   34.8600   45.7170 C   0  0  0  0  0  0  0  0  0  0  0  0
   58.8440   34.2910   44.5030 C   0  0  0  0  0  0  0  0  0  0  0  0
   58.2260   33.0350   44.4830 C   0  0  0  0  0  0  0  0  0  0  0  0
   57.8530   32.4420   43.2680 C   0  0  0  0  0  0  0  0  0  0  0  0
   57.2560   31.1810   43.2660 C   0  0  0  0  0  0  0  0  0  0  0  0
   57.0370   30.5250   44.4770 C   0  0  0  0  0  0  0  0  0  0  0  0
   57.4010   31.1130   45.6460 N   0  0  0  0  0  0  0  0  0  0  0  0
   57.9790   32.3440   45.6960 C   0  0  0  0  0  0  0  0  0  0  0  0
   58.4650   28.6480   47.5570 C   0  0  0  0  0  0  0  0  0  0  0  0
   56.5604   22.0203   43.2182 H   0  0  0  0  0  0  0  0  0  0  0  0
   54.1703   22.1987   43.9266 H   0  0  0  0  0  0  0  0  0  0  0  0
   53.4250   24.1869   45.2474 H   0  0  0  0  0  0  0  0  0  0  0  0
   55.1350   26.3020   46.9880 H   0  0  0  0  0  0  0  0  0  0  0  0
   59.9611   27.1324   44.8756 H   0  0  0  0  0  0  0  0  0  0  0  0
   61.4275   29.1359   45.0751 H   0  0  0  0  0  0  0  0  0  0  0  0
   61.0098   30.8260   46.8570 H   0  0  0  0  0  0  0  0  0  0  0  0
   59.3037   34.6433   47.8657 H   0  0  0  0  0  0  0  0  0  0  0  0
   59.7187   35.8439   45.7299 H   0  0  0  0  0  0  0  0  0  0  0  0
   59.0274   34.8289   43.5612 H   0  0  0  0  0  0  0  0  0  0  0  0
   58.0306   32.9696   42.3193 H   0  0  0  0  0  0  0  0  0  0  0  0
   56.9607   30.7084   42.3176 H   0  0  0  0  0  0  0  0  0  0  0  0
   56.5687   29.5297   44.4855 H   0  0  0  0  0  0  0  0  0  0  0  0
   57.6243   28.5183   48.2544 H   0  0  0  0  0  0  0  0  0  0  0  0
  1  2  2  0
  2  3  1  0
  3  4  2  3
  4  5  1  0
  5  6  1  0
  6  7  2  0
  7  8  1  0
  8  9  2  0
  9 10  1  0
  2 11  1  0
 11 12  2  0
 12 13  1  0
 13 14  2  0
 14 15  1  0
 15 16  1  0
 16 17  2  0
 16 18  2  0
 16 19  1  0
 19 20  1  0
 20 21  2  0
 21 22  1  0
 22 23  2  0
 23 24  1  0
 24 25  2  0
 25 26  1  0
 26 27  2  0
 27 28  1  0
 28 29  2  0
 15 30  2  0
  9  4  1  0
 30 11  1  0
 29 20  1  0
 29 24  1  0
  6 31  1  0
  7 32  1  0
  8 33  1  0
 10 34  1  0
 12 35  1  0
 13 36  1  0
 14 37  1  0
 21 38  1  0
 22 39  1  0
 23 40  1  0
 25 41  1  0
 26 42  1  0
 27 43  1  0
 30 44  1  0
M  CHG  2   5  -1  19  -1
M  END
>  <UniqueID>  (53) 
50

>  <SMILES>  (53) 
O=C(N=c1[n-]cccc1O)c1cccc(S(=O)(=O)[N-]c2cccc3cccnc23)c1

>  <Energy>  (53) 
65.14879227865306

>  <Genealogy>  (53) 
O=C(N=c1[n-]cccc1O)c1cccc(S(=O)(=O)[N-]c2cccc3cccnc23)c1 (protonated)
O=C(N=c1[n-]cccc1O)c1cccc(S(=O)(=O)[N-]c2cccc3cccnc23)c1 (3D coordinates assigned)
O=C(N=c1[n-]cccc1O)c1cccc(S(=O)(=O)[N-]c2cccc3cccnc23)c1 (optimized conformer: 65.14879227865306 kcal/mol)

>  <smiles>  (53) 
O=C(N=c1[nH]cccc1O)c1cccc(S(=O)(=O)Nc2cccc3cccnc23)c1

>  <score_type>  (53) 
oracle

>  <origin>  (53) 
adg

>  <m_score__min__energy>  (53) 
-13.49

>  <m_primary>  (53) 
energy

$$$$
53:0
     RDKit          3D

 51 53  0  0  0  0  0  0  0  0999 V2000
   61.4310   33.8590   50.5980 C   0  0  0  0  0  0  0  0  0  0  0  0
   62.0690   33.7310   49.2410 C   0  0  0  0  0  0  0  0  0  0  0  0
   63.3990   33.2900   49.1300 C   0  0  0  0  0  0  0  0  0  0  0  0
   63.9980   33.1590   47.8760 C   0  0  0  0  0  0  0  0  0  0  0  0
   63.2770   33.4640   46.7210 C   0  0  0  0  0  0  0  0  0  0  0  0
   61.9540   33.9020   46.8150 C   0  0  0  0  0  0  0  0  0  0  0  0
   61.3380   34.0370   48.0740 C   0  0  0  0  0  0  0  0  0  0  0  0
   59.9780   34.4780   48.1870 N   0  0  0  0  0  0  0  0  0  0  0  0
   58.9950   33.7530   47.8300 N   0  0  0  0  0  0  0  0  0  0  0  0
   58.8860   32.3610   48.1640 C   0  0  0  0  0  0  0  0  0  0  0  0
   59.0560   31.3350   47.2070 C   0  0  0  0  0  0  0  0  0  0  0  0
   59.3270   31.6280   45.8750 O   0  0  0  0  0  0  0  0  0  0  0  0
   58.9570   29.9970   47.5930 C   0  0  0  0  0  0  0  0  0  0  0  0
   58.6790   29.6640   48.9180 C   0  0  0  0  0  0  0  0  0  0  0  0
   58.4860   30.6640   49.8790 C   0  0  0  0  0  0  0  0  0  0  0  0
   58.2030   30.2510   51.2710 C   0  0  0  0  0  0  0  0  0  0  0  0
   57.2000   30.7710   51.9910 C   0  0  0  0  0  0  0  0  0  0  0  0
   57.0450   30.5560   53.4460 C   0  0  0  0  0  0  0  0  0  0  0  0
   58.0810   30.5680   54.1630 O   0  0  0  0  0  0  0  0  0  0  0  0
   55.7080   30.3510   54.1140 C   0  0  0  0  0  0  0  0  0  0  0  0
   54.7670   29.5430   53.2550 C   0  0  0  0  0  0  0  0  0  0  0  0
   55.2000   28.8830   52.3210 O   0  0  0  0  0  0  0  0  0  0  0  0
   53.2820   29.6030   53.4870 C   0  0  0  0  0  0  0  0  0  0  0  0
   52.6030   30.3940   52.4000 C   0  0  0  0  0  0  0  0  0  0  0  0
   52.6030   29.9230   51.0770 C   0  0  0  0  0  0  0  0  0  0  0  0
   51.9520   30.6450   50.0720 C   0  0  0  0  0  0  0  0  0  0  0  0
   51.2950   31.8410   50.3790 C   0  0  0  0  0  0  0  0  0  0  0  0
   50.6470   32.5520   49.3760 O   0  0  0  0  0  0  0  0  0  0  0  0
   51.2860   32.3140   51.6970 C   0  0  0  0  0  0  0  0  0  0  0  0
   50.6270   33.4970   52.0100 O   0  0  0  0  0  0  0  0  0  0  0  0
   51.9370   31.5940   52.7040 C   0  0  0  0  0  0  0  0  0  0  0  0
   58.6130   32.0180   49.5000 C   0  0  0  0  0  0  0  0  0  0  0  0
   58.4980   33.0300   50.4480 O   0  0  0  0  0  0  0  0  0  0  0  0
   62.1924   33.7062   51.3770 H   0  0  0  0  0  0  0  0  0  0  0  0
   60.9938   34.8628   50.7044 H   0  0  0  0  0  0  0  0  0  0  0  0
   60.6404   33.1016   50.7044 H   0  0  0  0  0  0  0  0  0  0  0  0
   63.9715   33.0465   50.0372 H   0  0  0  0  0  0  0  0  0  0  0  0
   65.0399   32.8148   47.7982 H   0  0  0  0  0  0  0  0  0  0  0  0
   63.7516   33.3593   45.7342 H   0  0  0  0  0  0  0  0  0  0  0  0
   61.3907   34.1426   45.9013 H   0  0  0  0  0  0  0  0  0  0  0  0
   59.0992   29.2009   46.8474 H   0  0  0  0  0  0  0  0  0  0  0  0
   58.6106   28.6060   49.2112 H   0  0  0  0  0  0  0  0  0  0  0  0
   58.8426   29.4852   51.7341 H   0  0  0  0  0  0  0  0  0  0  0  0
   56.4528   31.3901   51.4730 H   0  0  0  0  0  0  0  0  0  0  0  0
   55.8636   29.8218   55.0657 H   0  0  0  0  0  0  0  0  0  0  0  0
   55.2546   31.3395   54.2789 H   0  0  0  0  0  0  0  0  0  0  0  0
   52.8767   28.5804   53.4959 H   0  0  0  0  0  0  0  0  0  0  0  0
   53.0953   30.0970   54.4520 H   0  0  0  0  0  0  0  0  0  0  0  0
   53.1172   28.9824   50.8304 H   0  0  0  0  0  0  0  0  0  0  0  0
   51.9566   30.2715   49.0374 H   0  0  0  0  0  0  0  0  0  0  0  0
   51.9278   31.9684   53.7383 H   0  0  0  0  0  0  0  0  0  0  0  0
  1  2  1  0
  2  3  2  0
  3  4  1  0
  4  5  2  0
  5  6  1  0
  6  7  2  0
  7  8  1  0
  8  9  2  3
  9 10  1  0
 10 11  2  0
 11 12  1  0
 11 13  1  0
 13 14  2  0
 14 15  1  0
 15 16  1  0
 16 17  2  3
 17 18  1  0
 18 19  2  0
 18 20  1  0
 20 21  1  0
 21 22  2  0
 21 23  1  0
 23 24  1  0
 24 25  2  0
 25 26  1  0
 26 27  2  0
 27 28  1  0
 27 29  1  0
 29 30  1  0
 29 31  2  0
 15 32  2  0
 32 33  1  0
  7  2  1  0
 32 10  1  0
 31 24  1  0
  1 34  1  0
  1 35  1  0
  1 36  1  0
  3 37  1  0
  4 38  1  0
  5 39  1  0
  6 40  1  0
 13 41  1  0
 14 42  1  0
 16 43  1  0
 17 44  1  0
 20 45  1  0
 20 46  1  0
 23 47  1  0
 23 48  1  0
 25 49  1  0
 26 50  1  0
 31 51  1  0
M  CHG  4  12  -1  28  -1  30  -1  33  -1
M  END
>  <UniqueID>  (54) 
51

>  <SMILES>  (54) 
Cc1ccccc1N=Nc1c([O-])ccc(C=CC(=O)CC(=O)Cc2ccc([O-])c([O-])c2)c1[O-]

>  <Energy>  (54) 
55.120439989628544

>  <Genealogy>  (54) 
Cc1ccccc1N=Nc1c([O-])ccc(C=CC(=O)CC(=O)Cc2ccc([O-])c([O-])c2)c1[O-] (protonated)
Cc1ccccc1N=Nc1c([O-])ccc(C=CC(=O)CC(=O)Cc2ccc([O-])c([O-])c2)c1[O-] (3D coordinates assigned)
Cc1ccccc1N=Nc1c([O-])ccc(C=CC(=O)CC(=O)Cc2ccc([O-])c([O-])c2)c1[O-] (optimized conformer: 55.120439989628544 kcal/mol)

>  <smiles>  (54) 
Cc1ccccc1N=Nc1c(O)ccc(C=CC(=O)CC(=O)Cc2ccc(O)c(O)c2)c1O

>  <score_type>  (54) 
oracle

>  <origin>  (54) 
adg

>  <m_score__min__energy>  (54) 
-18.809999999999999

>  <m_primary>  (54) 
energy

$$$$
54:0
     RDKit          3D

 55 57  0  0  0  0  0  0  0  0999 V2000
   56.0050   29.7170   43.0310 C   0  0  0  0  0  0  0  0  0  0  0  0
   56.2140   29.6100   44.5120 C   0  0  0  0  0  0  0  0  0  0  0  0
   56.6750   30.5960   45.1440 O   0  0  0  0  0  0  0  0  0  0  0  0
   55.9480   28.3920   45.2180 N   0  0  0  0  0  0  0  0  0  0  0  0
   56.9570   27.5060   45.7070 C   0  0  0  0  0  0  0  0  0  0  0  0
   58.1840   27.8860   46.2030 C   0  0  0  0  0  0  0  0  0  0  0  0
   58.7970   26.7780   46.6670 N   0  0  0  0  0  0  0  0  0  0  0  0
   60.0640   26.7310   47.3930 C   0  0  0  0  0  0  0  0  0  0  0  0
   60.1370   27.7930   48.4540 C   0  0  0  0  0  0  0  0  0  0  0  0
   60.4870   27.4690   49.6190 O   0  0  0  0  0  0  0  0  0  0  0  0
   59.8760   29.1730   48.1510 N   0  0  0  0  0  0  0  0  0  0  0  0
   60.4560   29.8200   46.9830 C   0  0  0  0  0  0  0  0  0  0  0  0
   59.7460   31.1670   46.8570 C   0  0  1  0  0  0  0  0  0  0  0  0
   59.3670   31.4060   45.5290 O   0  0  0  0  0  0  0  0  0  0  0  0
   58.5190   31.0700   47.7710 C   0  0  0  0  0  0  0  0  0  0  0  0
   58.8550   29.9840   48.7950 C   0  0  2  0  0  0  0  0  0  0  0  0
   59.4010   30.5800   50.0680 C   0  0  0  0  0  0  0  0  0  0  0  0
   60.2180   29.9240   50.7660 O   0  0  0  0  0  0  0  0  0  0  0  0
   58.9900   31.8890   50.4780 N   0  0  0  0  0  0  0  0  0  0  0  0
   59.8850   33.0300   50.6460 C   0  0  0  0  0  0  0  0  0  0  0  0
   59.8790   33.9250   49.4020 C   0  0  0  0  0  0  0  0  0  0  0  0
   61.0910   33.7020   48.5260 C   0  0  0  0  0  0  0  0  0  0  0  0
   62.2470   33.1450   49.1010 C   0  0  0  0  0  0  0  0  0  0  0  0
   63.4030   32.9700   48.3390 C   0  0  0  0  0  0  0  0  0  0  0  0
   63.4150   33.3380   46.9920 C   0  0  0  0  0  0  0  0  0  0  0  0
   62.2690   33.8720   46.4020 C   0  0  0  0  0  0  0  0  0  0  0  0
   61.1060   34.0570   47.1580 C   0  0  0  0  0  0  0  0  0  0  0  0
   59.7060   34.7660   46.3620 Cl  0  0  0  0  0  0  0  0  0  0  0  0
   57.9930   25.7290   46.5470 N   0  0  0  0  0  0  0  0  0  0  0  0
   56.8530   26.1450   45.9600 C   0  0  0  0  0  0  0  0  0  0  0  0
   55.6660   25.2830   45.8250 C   0  0  0  0  0  0  0  0  0  0  0  0
   54.3650   25.8650   45.8280 N   0  0  0  0  0  0  0  0  0  0  0  0
   55.7890   24.0400   45.6740 O   0  0  0  0  0  0  0  0  0  0  0  0
   55.0421   30.2099   42.8312 H   0  0  0  0  0  0  0  0  0  0  0  0
   56.8191   30.3092   42.5877 H   0  0  0  0  0  0  0  0  0  0  0  0
   56.0005   28.7103   42.5877 H   0  0  0  0  0  0  0  0  0  0  0  0
   58.5905   28.9080   46.2180 H   0  0  0  0  0  0  0  0  0  0  0  0
   60.1658   25.7444   47.8687 H   0  0  0  0  0  0  0  0  0  0  0  0
   60.8776   26.9082   46.6742 H   0  0  0  0  0  0  0  0  0  0  0  0
   61.5367   29.9685   47.1246 H   0  0  0  0  0  0  0  0  0  0  0  0
   60.3286   29.2092   46.0771 H   0  0  0  0  0  0  0  0  0  0  0  0
   60.4000   32.0026   47.1471 H   0  0  0  0  0  0  0  0  0  0  0  0
   58.4800   30.9800   45.4090 H   0  0  0  0  0  0  0  0  0  0  0  0
   58.3386   32.0309   48.2752 H   0  0  0  0  0  0  0  0  0  0  0  0
   57.6073   30.8283   47.2049 H   0  0  0  0  0  0  0  0  0  0  0  0
   57.9630   29.4059   49.0780 H   0  0  0  0  0  0  0  0  0  0  0  0
   59.5559   33.6198   51.5142 H   0  0  0  0  0  0  0  0  0  0  0  0
   60.9067   32.6524   50.7993 H   0  0  0  0  0  0  0  0  0  0  0  0
   58.9742   33.7082   48.8152 H   0  0  0  0  0  0  0  0  0  0  0  0
   59.8982   34.9712   49.7413 H   0  0  0  0  0  0  0  0  0  0  0  0
   62.2401   32.8450   50.1593 H   0  0  0  0  0  0  0  0  0  0  0  0
   64.3054   32.5419   48.7998 H   0  0  0  0  0  0  0  0  0  0  0  0
   64.3296   33.2066   46.3951 H   0  0  0  0  0  0  0  0  0  0  0  0
   62.2797   34.1489   45.3375 H   0  0  0  0  0  0  0  0  0  0  0  0
   54.1730   26.7440   46.3590 H   0  0  0  0  0  0  0  0  0  0  0  0
  1  2  1  0
  2  3  2  0
  2  4  1  0
  4  5  1  0
  5  6  2  0
  6  7  1  0
  7  8  1  0
  8  9  1  0
  9 10  2  0
  9 11  1  0
 11 12  1  0
 12 13  1  0
 13 14  1  0
 13 15  1  0
 15 16  1  0
 16 17  1  0
 17 18  2  0
 17 19  1  0
 19 20  1  0
 20 21  1  0
 21 22  1  0
 22 23  2  0
 23 24  1  0
 24 25  2  0
 25 26  1  0
 26 27  2  0
 27 28  1  0
  7 29  1  0
 29 30  2  0
 30 31  1  0
 31 32  1  0
 31 33  2  0
 30  5  1  0
 16 11  1  0
 27 22  1  0
  1 34  1  0
  1 35  1  0
  1 36  1  0
  6 37  1  0
  8 38  1  0
  8 39  1  0
 12 40  1  0
 12 41  1  0
 13 42  1  1
 14 43  1  0
 15 44  1  0
 15 45  1  0
 16 46  1  1
 20 47  1  0
 20 48  1  0
 21 49  1  0
 21 50  1  0
 23 51  1  0
 24 52  1  0
 25 53  1  0
 26 54  1  0
 32 55  1  0
M  CHG  3   4  -1  19  -1  32  -1
M  END
>  <UniqueID>  (55) 
52

>  <SMILES>  (55) 
CC(=O)[N-]c1cn(CC(=O)N2C[C@@H](O)C[C@@H]2C(=O)[N-]CCc2ccccc2Cl)nc1C([NH-])=O

>  <Energy>  (55) 
86.39788050479103

>  <Genealogy>  (55) 
CC(=O)[N-]c1cn(CC(=O)N2CC(O)CC2C(=O)[N-]CCc2ccccc2Cl)nc1C([NH-])=O (protonated)
CC(=O)[N-]c1cn(CC(=O)N2C[C@@H](O)C[C@@H]2C(=O)[N-]CCc2ccccc2Cl)nc1C([NH-])=O (chirality)
CC(=O)[N-]c1cn(CC(=O)N2C[C@@H](O)C[C@@H]2C(=O)[N-]CCc2ccccc2Cl)nc1C([NH-])=O (3D coordinates assigned)
CC(=O)[N-]c1cn(CC(=O)N2C[C@@H](O)C[C@@H]2C(=O)[N-]CCc2ccccc2Cl)nc1C([NH-])=O (nonaromatic ring conformer: 86.39788050479103 kcal/mol)

>  <smiles>  (55) 
CC(=O)Nc1cn(CC(=O)N2CC(O)CC2C(=O)NCCc2ccccc2Cl)nc1C(N)=O

>  <score_type>  (55) 
oracle

>  <origin>  (55) 
adg

>  <m_score__min__energy>  (55) 
-15.050000000000001

>  <m_primary>  (55) 
energy

$$$$
55:0
     RDKit          3D

 56 60  0  0  0  0  0  0  0  0999 V2000
   61.1196   29.3410   54.2203 H   0  0  0  0  0  0  0  0  0  0  0  0
   60.8450   29.7670   53.2440 C   0  0  0  0  0  0  0  0  0  0  0  0
   60.1880   30.9640   53.1870 N   0  0  0  0  0  0  0  0  0  0  0  0
   59.8630   31.4820   51.9770 C   0  0  0  0  0  0  0  0  0  0  0  0
   60.1600   30.8440   50.8040 C   0  0  0  0  0  0  0  0  0  0  0  0
   59.6030   31.5960   49.7850 C   0  0  0  0  0  0  0  0  0  0  0  0
   59.6319   31.3815   48.7065 H   0  0  0  0  0  0  0  0  0  0  0  0
   58.9980   32.6820   50.4130 C   0  0  0  0  0  0  0  0  0  0  0  0
   58.4537   33.4835   49.8921 H   0  0  0  0  0  0  0  0  0  0  0  0
   59.1730   32.6140   51.7540 N   0  0  0  0  0  0  0  0  0  0  0  0
   58.5890   33.5030   52.7520 C   0  0  0  0  0  0  0  0  0  0  0  0
   58.8318   33.1334   53.7592 H   0  0  0  0  0  0  0  0  0  0  0  0
   58.9980   34.5162   52.6247 H   0  0  0  0  0  0  0  0  0  0  0  0
   57.4967   33.5299   52.6247 H   0  0  0  0  0  0  0  0  0  0  0  0
   60.8410   29.6200   50.8060 C   0  0  0  0  0  0  0  0  0  0  0  0
   61.1560   28.9200   49.6340 O   0  0  0  0  0  0  0  0  0  0  0  0
   60.2200   28.2990   48.7950 C   0  0  0  0  0  0  0  0  0  0  0  0
   58.9160   28.7970   48.6310 C   0  0  0  0  0  0  0  0  0  0  0  0
   58.6002   29.6999   49.1742 H   0  0  0  0  0  0  0  0  0  0  0  0
   58.0450   28.1640   47.8020 N   0  0  0  0  0  0  0  0  0  0  0  0
   58.3920   27.0490   47.1000 C   0  0  0  0  0  0  0  0  0  0  0  0
   57.5440   26.4490   46.3140 N   0  0  0  0  0  0  0  0  0  0  0  0
   56.2670   26.9370   45.8750 C   0  0  0  0  0  0  0  0  0  0  0  0
   55.2460   26.2250   46.0710 O   0  0  0  0  0  0  0  0  0  0  0  0
   56.1370   28.2090   45.2290 N   0  0  0  0  0  0  0  0  0  0  0  0
   57.1240   28.7510   44.3020 C   0  0  0  0  0  0  0  0  0  0  0  0
   56.6236   29.4282   43.5942 H   0  0  0  0  0  0  0  0  0  0  0  0
   57.5979   27.9206   43.7580 H   0  0  0  0  0  0  0  0  0  0  0  0
   58.1830   29.5120   45.0530 C   0  0  0  0  0  0  0  0  0  0  0  0
   59.5120   29.0640   45.0410 C   0  0  0  0  0  0  0  0  0  0  0  0
   59.7744   28.1443   44.4976 H   0  0  0  0  0  0  0  0  0  0  0  0
   60.5050   29.7800   45.7160 C   0  0  0  0  0  0  0  0  0  0  0  0
   61.5454   29.4235   45.6953 H   0  0  0  0  0  0  0  0  0  0  0  0
   60.1830   30.9510   46.4200 C   0  0  0  0  0  0  0  0  0  0  0  0
   61.2480   31.7080   47.1170 C   0  0  0  0  0  0  0  0  0  0  0  0
   61.4750   33.0770   47.0690 C   0  0  0  0  0  0  0  0  0  0  0  0
   60.6970   34.1170   46.3260 C   0  0  0  0  0  0  0  0  0  0  0  0
   60.1979   34.7842   47.0441 H   0  0  0  0  0  0  0  0  0  0  0  0
   61.3798   34.7037   45.6938 H   0  0  0  0  0  0  0  0  0  0  0  0
   59.9414   33.6277   45.6938 H   0  0  0  0  0  0  0  0  0  0  0  0
   62.5750   33.3250   47.8700 C   0  0  0  0  0  0  0  0  0  0  0  0
   63.0473   34.3005   48.0582 H   0  0  0  0  0  0  0  0  0  0  0  0
   62.9620   32.1050   48.3860 C   0  0  0  0  0  0  0  0  0  0  0  0
   63.8103   31.9514   49.0692 H   0  0  0  0  0  0  0  0  0  0  0  0
   62.1520   31.1300   47.9330 N   0  0  0  0  0  0  0  0  0  0  0  0
   62.2290   30.1140   48.1640 H   0  0  0  0  0  0  0  0  0  0  0  0
   58.8530   31.4060   46.4200 C   0  0  0  0  0  0  0  0  0  0  0  0
   58.5914   32.3303   46.9560 H   0  0  0  0  0  0  0  0  0  0  0  0
   57.8610   30.6910   45.7430 C   0  0  0  0  0  0  0  0  0  0  0  0
   56.8227   31.0542   45.7510 H   0  0  0  0  0  0  0  0  0  0  0  0
   59.6890   26.5370   47.2220 C   0  0  0  0  0  0  0  0  0  0  0  0
   59.9865   25.6415   46.6568 H   0  0  0  0  0  0  0  0  0  0  0  0
   60.6020   27.1710   48.0660 C   0  0  0  0  0  0  0  0  0  0  0  0
   61.6263   26.7806   48.1573 H   0  0  0  0  0  0  0  0  0  0  0  0
   61.1740   29.0730   52.0590 C   0  0  0  0  0  0  0  0  0  0  0  0
   61.6911   28.1038   52.1155 H   0  0  0  0  0  0  0  0  0  0  0  0
  1  2  1  0
  2  3  2  0
  3  4  1  0
  4  5  2  0
  5  6  1  0
  6  7  1  0
  6  8  2  0
  8  9  1  0
  8 10  1  0
 10 11  1  0
 11 12  1  0
 11 13  1  0
 11 14  1  0
  5 15  1  0
 15 16  1  0
 16 17  1  0
 17 18  2  0
 18 19  1  0
 18 20  1  0
 20 21  1  0
 21 22  2  0
 22 23  1  0
 23 24  2  0
 23 25  1  0
 25 26  1  0
 26 27  1  0
 26 28  1  0
 26 29  1  0
 29 30  2  0
 30 31  1  0
 30 32  1  0
 32 33  1  0
 32 34  2  0
 34 35  1  0
 35 36  2  0
 36 37  1  0
 37 38  1  0
 37 39  1  0
 37 40  1  0
 36 41  1  0
 41 42  1  0
 41 43  2  0
 43 44  1  0
 43 45  1  0
 45 46  1  0
 34 47  1  0
 47 48  1  0
 47 49  2  0
 49 50  1  0
 21 51  1  0
 51 52  1  0
 51 53  2  0
 53 54  1  0
 15 55  2  0
 55 56  1  0
 55  2  1  0
 10  4  1  0
 53 17  1  0
 49 29  1  0
 45 35  1  0
M  CHG  2  20  -1  25  -1
M  END
>  <UniqueID>  (56) 
53

>  <SMILES>  (56) 
Cc1cc[nH]c1-c1ccc(C[N-]C(=O)/N=c2/ccc(Oc3ccnc4c3ccn4C)c[n-]2)cc1

>  <Energy>  (56) 
133.55751690503243

>  <Genealogy>  (56) 
Cc1cc[nH]c1-c1ccc(C[N-]C(=O)N=c2ccc(Oc3ccnc4c3ccn4C)c[n-]2)cc1 (protonated)
Cc1cc[nH]c1-c1ccc(C[N-]C(=O)/N=c2/ccc(Oc3ccnc4c3ccn4C)c[n-]2)cc1 (cis-trans isomerization)
Cc1cc[nH]c1-c1ccc(C[N-]C(=O)/N=c2/ccc(Oc3ccnc4c3ccn4C)c[n-]2)cc1 (3D coordinates assigned)
Cc1cc[nH]c1-c1ccc(C[N-]C(=O)/N=c2/ccc(Oc3ccnc4c3ccn4C)c[n-]2)cc1 (optimized conformer: 133.55751690503243 kcal/mol)

>  <smiles>  (56) 
Cc1cc[nH]c1-c1ccc(CNC(=O)N=c2ccc(Oc3ccnc4c3ccn4C)c[nH]2)cc1

>  <score_type>  (56) 
oracle

>  <origin>  (56) 
adg

>  <m_score__min__energy>  (56) 
-11

>  <m_primary>  (56) 
energy

$$$$
56:0
     RDKit          3D

 48 49  0  0  0  0  0  0  0  0999 V2000
   56.2180   24.0580   43.8560 C   0  0  0  0  0  0  0  0  0  0  0  0
   55.3260   23.8950   45.0910 C   0  0  0  0  0  0  0  0  0  0  0  0
   55.9060   22.8590   46.0610 C   0  0  0  0  0  0  0  0  0  0  0  0
   55.1310   25.2170   45.7840 C   0  0  0  0  0  0  0  0  0  0  0  0
   54.0480   25.8430   45.6260 O   0  0  0  0  0  0  0  0  0  0  0  0
   56.1380   25.7170   46.6760 N   0  0  0  0  0  0  0  0  0  0  0  0
   57.1790   26.6490   46.3460 C   0  0  0  0  0  0  0  0  0  0  0  0
   58.4130   26.5400   46.9990 C   0  0  0  0  0  0  0  0  0  0  0  0
   59.4600   27.4100   46.6850 C   0  0  0  0  0  0  0  0  0  0  0  0
   59.2870   28.3900   45.7080 C   0  0  0  0  0  0  0  0  0  0  0  0
   58.0630   28.5060   45.0300 C   0  0  0  0  0  0  0  0  0  0  0  0
   57.8620   29.5670   43.9840 C   0  0  0  0  0  0  0  0  0  0  0  0
   56.9820   30.6690   44.5050 C   0  0  0  0  0  0  0  0  0  0  0  0
   55.7500   30.4580   44.6690 O   0  0  0  0  0  0  0  0  0  0  0  0
   57.5220   31.9490   44.8500 N   0  0  0  0  0  0  0  0  0  0  0  0
   56.8390   32.8290   45.6270 O   0  0  0  0  0  0  0  0  0  0  0  0
   57.2790   34.1100   45.2500 C   0  0  0  0  0  0  0  0  0  0  0  0
   58.6810   34.3090   45.7360 C   0  0  0  0  0  0  0  0  0  0  0  0
   59.2980   35.3690   45.4370 O   0  0  0  0  0  0  0  0  0  0  0  0
   59.3240   33.2750   46.4970 N   0  0  0  0  0  0  0  0  0  0  0  0
   60.5870   33.4350   47.1660 C   0  0  0  0  0  0  0  0  0  0  0  0
   61.8010   33.4610   46.4510 C   0  0  0  0  0  0  0  0  0  0  0  0
   63.0120   33.6510   47.1250 C   0  0  0  0  0  0  0  0  0  0  0  0
   63.0230   33.8290   48.5110 C   0  0  0  0  0  0  0  0  0  0  0  0
   61.8220   33.8270   49.2250 C   0  0  0  0  0  0  0  0  0  0  0  0
   60.6090   33.6380   48.5560 C   0  0  0  0  0  0  0  0  0  0  0  0
   57.0160   27.6220   45.3420 C   0  0  0  0  0  0  0  0  0  0  0  0
   57.2538   24.2473   44.1742 H   0  0  0  0  0  0  0  0  0  0  0  0
   56.1817   23.1384   43.2535 H   0  0  0  0  0  0  0  0  0  0  0  0
   55.8588   24.9054   43.2535 H   0  0  0  0  0  0  0  0  0  0  0  0
   54.3451   23.5304   44.7522 H   0  0  0  0  0  0  0  0  0  0  0  0
   55.7242   23.1838   47.0961 H   0  0  0  0  0  0  0  0  0  0  0  0
   55.4213   21.8862   45.8914 H   0  0  0  0  0  0  0  0  0  0  0  0
   56.9887   22.7637   45.8914 H   0  0  0  0  0  0  0  0  0  0  0  0
   58.5590   25.7638   47.7646 H   0  0  0  0  0  0  0  0  0  0  0  0
   60.4229   27.3218   47.2095 H   0  0  0  0  0  0  0  0  0  0  0  0
   60.1132   29.0752   45.4675 H   0  0  0  0  0  0  0  0  0  0  0  0
   58.8392   29.9874   43.7041 H   0  0  0  0  0  0  0  0  0  0  0  0
   57.3765   29.1118   43.1082 H   0  0  0  0  0  0  0  0  0  0  0  0
   57.2526   34.2008   44.1541 H   0  0  0  0  0  0  0  0  0  0  0  0
   56.6215   34.8728   45.6925 H   0  0  0  0  0  0  0  0  0  0  0  0
   58.8910   32.3240   46.4860 H   0  0  0  0  0  0  0  0  0  0  0  0
   61.7964   33.3314   45.3587 H   0  0  0  0  0  0  0  0  0  0  0  0
   63.9575   33.6603   46.5629 H   0  0  0  0  0  0  0  0  0  0  0  0
   63.9771   33.9707   49.0398 H   0  0  0  0  0  0  0  0  0  0  0  0
   61.8309   33.9743   50.3150 H   0  0  0  0  0  0  0  0  0  0  0  0
   59.6657   33.6483   49.1217 H   0  0  0  0  0  0  0  0  0  0  0  0
   56.0625   27.6909   44.7978 H   0  0  0  0  0  0  0  0  0  0  0  0
  1  2  1  0
  2  3  1  0
  2  4  1  0
  4  5  2  0
  4  6  1  0
  6  7  1  0
  7  8  2  0
  8  9  1  0
  9 10  2  0
 10 11  1  0
 11 12  1  0
 12 13  1  0
 13 14  2  0
 13 15  1  0
 15 16  1  0
 16 17  1  0
 17 18  1  0
 18 19  2  0
 18 20  1  0
 20 21  1  0
 21 22  2  0
 22 23  1  0
 23 24  2  0
 24 25  1  0
 25 26  2  0
 11 27  2  0
 27  7  1  0
 26 21  1  0
  1 28  1  0
  1 29  1  0
  1 30  1  0
  2 31  1  0
  3 32  1  0
  3 33  1  0
  3 34  1  0
  8 35  1  0
  9 36  1  0
 10 37  1  0
 12 38  1  0
 12 39  1  0
 17 40  1  0
 17 41  1  0
 20 42  1  0
 22 43  1  0
 23 44  1  0
 24 45  1  0
 25 46  1  0
 26 47  1  0
 27 48  1  0
M  CHG  2   6  -1  15  -1
M  END
>  <UniqueID>  (57) 
54

>  <SMILES>  (57) 
CC(C)C(=O)[N-]c1cccc(CC(=O)[N-]OCC(=O)Nc2ccccc2)c1

>  <Energy>  (57) 
43.62721382142827

>  <Genealogy>  (57) 
CC(C)C(=O)[N-]c1cccc(CC(=O)[N-]OCC(=O)Nc2ccccc2)c1 (protonated)
CC(C)C(=O)[N-]c1cccc(CC(=O)[N-]OCC(=O)Nc2ccccc2)c1 (3D coordinates assigned)
CC(C)C(=O)[N-]c1cccc(CC(=O)[N-]OCC(=O)Nc2ccccc2)c1 (optimized conformer: 43.62721382142827 kcal/mol)

>  <smiles>  (57) 
CC(C)C(=O)Nc1cccc(CC(=O)NOCC(=O)Nc2ccccc2)c1

>  <score_type>  (57) 
oracle

>  <origin>  (57) 
adg

>  <m_score__min__energy>  (57) 
-11.94

>  <m_primary>  (57) 
energy

$$$$
57:0
     RDKit          3D

 40 42  0  0  0  0  0  0  0  0999 V2000
   54.8600   29.3800   44.1670 O   0  0  0  0  0  0  0  0  0  0  0  0
   55.9360   29.3530   44.8200 C   0  0  0  0  0  0  0  0  0  0  0  0
   56.6580   30.5810   45.0010 N   0  0  0  0  0  0  0  0  0  0  0  0
   58.0090   30.7220   45.5390 C   0  0  0  0  0  0  0  0  0  0  0  0
   58.3410   32.1720   45.7800 C   0  0  0  0  0  0  0  0  0  0  0  0
   57.8510   33.1610   44.9140 C   0  0  0  0  0  0  0  0  0  0  0  0
   58.2090   34.4990   45.1000 C   0  0  0  0  0  0  0  0  0  0  0  0
   59.0660   34.8580   46.1430 C   0  0  0  0  0  0  0  0  0  0  0  0
   59.5610   33.8800   47.0180 C   0  0  0  0  0  0  0  0  0  0  0  0
   60.4920   34.2390   48.1030 C   0  0  0  0  0  0  0  0  0  0  0  0
   60.0560   34.8950   49.0880 O   0  0  0  0  0  0  0  0  0  0  0  0
   61.8690   33.8190   48.0800 N   0  0  0  0  0  0  0  0  0  0  0  0
   62.3820   32.7660   47.2180 C   0  0  0  0  0  0  0  0  0  0  0  0
   63.7130   32.3490   47.8300 C   0  0  0  0  0  0  0  0  0  0  0  0
   64.1200   33.4980   48.7490 C   0  0  0  0  0  0  0  0  0  0  0  0
   62.8280   34.2280   49.0910 C   0  0  0  0  0  0  0  0  0  0  0  0
   59.1680   32.5440   46.8530 C   0  0  0  0  0  0  0  0  0  0  0  0
   56.4190   28.0610   45.3550 C   0  0  0  0  0  0  0  0  0  0  0  0
   57.7880   27.8450   45.5630 C   0  0  0  0  0  0  0  0  0  0  0  0
   58.2000   26.6110   46.0720 C   0  0  0  0  0  0  0  0  0  0  0  0
   59.4210   26.3900   46.2830 O   0  0  0  0  0  0  0  0  0  0  0  0
   57.2820   25.6480   46.3400 N   0  0  0  0  0  0  0  0  0  0  0  0
   55.9590   25.8660   46.1190 C   0  0  0  0  0  0  0  0  0  0  0  0
   55.1230   24.9610   46.3720 O   0  0  0  0  0  0  0  0  0  0  0  0
   55.5390   27.0610   45.6270 N   0  0  0  0  0  0  0  0  0  0  0  0
   58.0774   30.1736   46.4901 H   0  0  0  0  0  0  0  0  0  0  0  0
   58.7234   30.3136   44.8090 H   0  0  0  0  0  0  0  0  0  0  0  0
   57.1828   32.8824   44.0858 H   0  0  0  0  0  0  0  0  0  0  0  0
   57.8149   35.2715   44.4233 H   0  0  0  0  0  0  0  0  0  0  0  0
   59.3536   35.9111   46.2785 H   0  0  0  0  0  0  0  0  0  0  0  0
   61.6859   31.9146   47.1957 H   0  0  0  0  0  0  0  0  0  0  0  0
   62.5010   33.1108   46.1802 H   0  0  0  0  0  0  0  0  0  0  0  0
   63.5962   31.4193   48.4062 H   0  0  0  0  0  0  0  0  0  0  0  0
   64.4730   32.1559   47.0586 H   0  0  0  0  0  0  0  0  0  0  0  0
   64.5945   33.1094   49.6622 H   0  0  0  0  0  0  0  0  0  0  0  0
   64.8487   34.1659   48.2664 H   0  0  0  0  0  0  0  0  0  0  0  0
   62.4770   33.9386   50.0925 H   0  0  0  0  0  0  0  0  0  0  0  0
   62.9676   35.3191   49.1019 H   0  0  0  0  0  0  0  0  0  0  0  0
   59.5097   31.7819   47.5688 H   0  0  0  0  0  0  0  0  0  0  0  0
   58.5224   28.6303   45.3305 H   0  0  0  0  0  0  0  0  0  0  0  0
  1  2  2  0
  2  3  1  0
  3  4  1  0
  4  5  1  0
  5  6  2  0
  6  7  1  0
  7  8  2  0
  8  9  1  0
  9 10  1  0
 10 11  2  0
 10 12  1  0
 12 13  1  0
 13 14  1  0
 14 15  1  0
 15 16  1  0
  9 17  2  0
  2 18  1  0
 18 19  2  0
 19 20  1  0
 20 21  2  0
 20 22  1  0
 22 23  1  0
 23 24  2  0
 23 25  1  0
 17  5  1  0
 25 18  1  0
 16 12  1  0
  4 26  1  0
  4 27  1  0
  6 28  1  0
  7 29  1  0
  8 30  1  0
 13 31  1  0
 13 32  1  0
 14 33  1  0
 14 34  1  0
 15 35  1  0
 15 36  1  0
 16 37  1  0
 16 38  1  0
 17 39  1  0
 19 40  1  0
M  CHG  3   3  -1  22  -1  25  -1
M  END
>  <UniqueID>  (58) 
55

>  <SMILES>  (58) 
O=C([N-]Cc1cccc(C(=O)N2CCCC2)c1)c1cc(=O)[n-]c(=O)[n-]1

>  <Energy>  (58) 
45.74414091684065

>  <Genealogy>  (58) 
O=C([N-]Cc1cccc(C(=O)N2CCCC2)c1)c1cc(=O)[n-]c(=O)[n-]1 (protonated)
O=C([N-]Cc1cccc(C(=O)N2CCCC2)c1)c1cc(=O)[n-]c(=O)[n-]1 (3D coordinates assigned)
O=C([N-]Cc1cccc(C(=O)N2CCCC2)c1)c1cc(=O)[n-]c(=O)[n-]1 (nonaromatic ring conformer: 45.74414091684065 kcal/mol)

>  <smiles>  (58) 
O=C(NCc1cccc(C(=O)N2CCCC2)c1)c1cc(=O)[nH]c(=O)[nH]1

>  <score_type>  (58) 
oracle

>  <origin>  (58) 
adg

>  <m_score__min__energy>  (58) 
-14.65

>  <m_primary>  (58) 
energy

$$$$
58:0
     RDKit          3D

 49 52  0  0  0  0  0  0  0  0999 V2000
   56.3860   32.7640   46.8373 H   0  0  0  0  0  0  0  0  0  0  0  0
   57.4430   33.0640   46.7840 C   0  0  0  0  0  0  0  0  0  0  0  0
   58.3710   32.5020   47.6660 C   0  0  0  0  0  0  0  0  0  0  0  0
   58.0411   31.7624   48.4105 H   0  0  0  0  0  0  0  0  0  0  0  0
   59.7220   32.8780   47.6050 C   0  0  0  0  0  0  0  0  0  0  0  0
   60.7270   32.2390   48.5230 C   0  0  0  0  0  0  0  0  0  0  0  0
   61.7228   32.2774   48.0572 H   0  0  0  0  0  0  0  0  0  0  0  0
   60.7426   32.7835   49.4786 H   0  0  0  0  0  0  0  0  0  0  0  0
   60.3610   30.8490   48.7680 N   0  0  0  0  0  0  0  0  0  0  0  0
   60.4520   29.8950   47.8540 N   0  0  0  0  0  0  0  0  0  0  0  0
   60.0300   28.7580   48.4380 C   0  0  0  0  0  0  0  0  0  0  0  0
   59.9590   27.6020   47.8450 N   0  0  0  0  0  0  0  0  0  0  0  0
   59.5700   27.3830   46.4800 C   0  0  0  0  0  0  0  0  0  0  0  0
   60.1970   26.5270   45.8030 O   0  0  0  0  0  0  0  0  0  0  0  0
   58.4950   28.1590   45.8290 C   0  0  0  0  0  0  0  0  0  0  0  0
   57.1430   27.8700   45.8750 C   0  0  0  0  0  0  0  0  0  0  0  0
   56.6602   27.0267   46.3905 H   0  0  0  0  0  0  0  0  0  0  0  0
   56.5270   28.8610   45.1390 C   0  0  0  0  0  0  0  0  0  0  0  0
   55.1540   28.9670   44.9470 O   0  0  0  0  0  0  0  0  0  0  0  0
   57.4320   29.7240   44.6330 N   0  0  0  0  0  0  0  0  0  0  0  0
   57.1430   30.9300   43.8430 C   0  0  0  0  0  0  0  0  0  0  0  0
   56.3706   31.4579   44.4215 H   0  0  0  0  0  0  0  0  0  0  0  0
   56.6530   30.6000   42.4390 C   0  0  0  0  0  0  0  0  0  0  0  0
   57.1317   29.6807   42.0705 H   0  0  0  0  0  0  0  0  0  0  0  0
   55.5671   30.4263   42.4150 H   0  0  0  0  0  0  0  0  0  0  0  0
   57.0560   31.7940   41.5780 C   0  0  0  0  0  0  0  0  0  0  0  0
   57.4516   31.4468   40.6121 H   0  0  0  0  0  0  0  0  0  0  0  0
   56.1903   32.4416   41.3751 H   0  0  0  0  0  0  0  0  0  0  0  0
   58.1380   32.5540   42.3460 C   0  0  0  0  0  0  0  0  0  0  0  0
   59.0634   32.5962   41.7528 H   0  0  0  0  0  0  0  0  0  0  0  0
   57.8214   33.5873   42.5513 H   0  0  0  0  0  0  0  0  0  0  0  0
   58.3820   31.7920   43.6430 C   0  0  0  0  0  0  0  0  0  0  0  0
   59.2796   31.1620   43.5565 H   0  0  0  0  0  0  0  0  0  0  0  0
   58.5499   32.4712   44.4918 H   0  0  0  0  0  0  0  0  0  0  0  0
   58.6430   29.2920   45.0450 C   0  0  0  0  0  0  0  0  0  0  0  0
   59.6029   29.7679   44.7958 H   0  0  0  0  0  0  0  0  0  0  0  0
   59.6410   28.9920   49.7410 C   0  0  0  0  0  0  0  0  0  0  0  0
   59.2430   28.2709   50.4701 H   0  0  0  0  0  0  0  0  0  0  0  0
   59.8680   30.3430   49.9160 C   0  0  0  0  0  0  0  0  0  0  0  0
   59.6781   30.9114   50.8384 H   0  0  0  0  0  0  0  0  0  0  0  0
   60.1390   33.7980   46.6310 C   0  0  0  0  0  0  0  0  0  0  0  0
   61.2004   34.0784   46.5618 H   0  0  0  0  0  0  0  0  0  0  0  0
   59.2120   34.3600   45.7480 C   0  0  0  0  0  0  0  0  0  0  0  0
   59.5474   35.0790   44.9861 H   0  0  0  0  0  0  0  0  0  0  0  0
   57.8540   34.0100   45.8300 C   0  0  0  0  0  0  0  0  0  0  0  0
   56.8650   34.5810   44.8570 C   0  0  0  0  0  0  0  0  0  0  0  0
   56.0408   35.0568   45.4086 H   0  0  0  0  0  0  0  0  0  0  0  0
   57.3636   35.3302   44.2245 H   0  0  0  0  0  0  0  0  0  0  0  0
   56.4655   33.7746   44.2245 H   0  0  0  0  0  0  0  0  0  0  0  0
  1  2  1  0
  2  3  2  0
  3  4  1  0
  3  5  1  0
  5  6  1  0
  6  7  1  0
  6  8  1  0
  6  9  1  0
  9 10  1  0
 10 11  1  0
 11 12  2  0
 12 13  1  0
 13 14  2  0
 13 15  1  0
 15 16  1  0
 16 17  1  0
 16 18  2  0
 18 19  1  0
 18 20  1  0
 20 21  1  0
 21 22  1  0
 21 23  1  0
 23 24  1  0
 23 25  1  0
 23 26  1  0
 26 27  1  0
 26 28  1  0
 26 29  1  0
 29 30  1  0
 29 31  1  0
 29 32  1  0
 32 33  1  0
 32 34  1  0
 20 35  1  0
 35 36  1  0
 11 37  1  0
 37 38  1  0
 37 39  2  0
 39 40  1  0
  5 41  2  0
 41 42  1  0
 41 43  1  0
 43 44  1  0
 43 45  2  0
 45 46  1  0
 46 47  1  0
 46 48  1  0
 46 49  1  0
 45  2  1  0
 39  9  1  0
 35 15  2  0
 32 21  1  0
M  CHG  2  10  -1  19  -1
M  END
>  <UniqueID>  (59) 
56

>  <SMILES>  (59) 
Cc1ccc(Cn2cc/c(=N/C(=O)c3cc([O-])n(C4CCCC4)c3)[n-]2)cc1

>  <Energy>  (59) 
111.9750104957138

>  <Genealogy>  (59) 
Cc1ccc(Cn2ccc(=NC(=O)c3cc([O-])n(C4CCCC4)c3)[n-]2)cc1 (protonated)
Cc1ccc(Cn2cc/c(=N/C(=O)c3cc([O-])n(C4CCCC4)c3)[n-]2)cc1 (cis-trans isomerization)
Cc1ccc(Cn2cc/c(=N/C(=O)c3cc([O-])n(C4CCCC4)c3)[n-]2)cc1 (3D coordinates assigned)
Cc1ccc(Cn2cc/c(=N/C(=O)c3cc([O-])n(C4CCCC4)c3)[n-]2)cc1 (nonaromatic ring conformer: 111.9750104957138 kcal/mol)

>  <smiles>  (59) 
Cc1ccc(Cn2ccc(=NC(=O)c3cc(O)n(C4CCCC4)c3)[nH]2)cc1

>  <score_type>  (59) 
oracle

>  <origin>  (59) 
adg

>  <m_score__min__energy>  (59) 
-12.960000000000001

>  <m_primary>  (59) 
energy

$$$$
59:0
     RDKit          3D

 40 41  0  0  0  0  0  0  0  0999 V2000
   60.1730   34.3060   45.2190 O   0  0  0  0  0  0  0  0  0  0  0  0
   59.1840   34.4080   45.9940 C   0  0  0  0  0  0  0  0  0  0  0  0
   57.8480   33.8540   45.5730 C   0  0  0  0  0  0  0  0  0  0  0  0
   57.6850   32.5070   46.0140 O   0  0  0  0  0  0  0  0  0  0  0  0
   57.5780   31.4220   45.1330 C   0  0  0  0  0  0  0  0  0  0  0  0
   58.5670   30.6680   44.9190 O   0  0  0  0  0  0  0  0  0  0  0  0
   56.2670   31.1320   44.4740 C   0  0  0  0  0  0  0  0  0  0  0  0
   56.1460   29.6760   44.1160 C   0  0  0  0  0  0  0  0  0  0  0  0
   56.3630   29.3180   42.9280 O   0  0  0  0  0  0  0  0  0  0  0  0
   55.6930   28.6970   45.0620 N   0  0  0  0  0  0  0  0  0  0  0  0
   56.4790   27.6300   45.6050 C   0  0  0  0  0  0  0  0  0  0  0  0
   57.8820   27.7120   45.6460 C   0  0  0  0  0  0  0  0  0  0  0  0
   58.6350   26.6470   46.1520 C   0  0  0  0  0  0  0  0  0  0  0  0
   57.9960   25.4890   46.6030 C   0  0  0  0  0  0  0  0  0  0  0  0
   56.6040   25.3900   46.5400 C   0  0  0  0  0  0  0  0  0  0  0  0
   55.8460   26.4530   46.0350 C   0  0  0  0  0  0  0  0  0  0  0  0
   54.4610   26.3410   45.9710 O   0  0  0  0  0  0  0  0  0  0  0  0
   59.3450   35.1150   47.2270 N   0  0  0  0  0  0  0  0  0  0  0  0
   60.1440   34.6350   48.3480 C   0  0  0  0  0  0  0  0  0  0  0  0
   60.2190   33.1330   48.3040 C   0  0  0  0  0  0  0  0  0  0  0  0
   59.1270   32.3720   48.7600 C   0  0  0  0  0  0  0  0  0  0  0  0
   59.1650   30.9760   48.7070 C   0  0  0  0  0  0  0  0  0  0  0  0
   60.2880   30.3240   48.1910 C   0  0  0  0  0  0  0  0  0  0  0  0
   60.3310   28.5720   48.1220 Cl  0  0  0  0  0  0  0  0  0  0  0  0
   61.3740   31.0690   47.7210 C   0  0  0  0  0  0  0  0  0  0  0  0
   61.3450   32.4680   47.7690 C   0  0  0  0  0  0  0  0  0  0  0  0
   62.7300   33.3550   47.1360 Cl  0  0  0  0  0  0  0  0  0  0  0  0
   57.0497   34.4730   46.0084 H   0  0  0  0  0  0  0  0  0  0  0  0
   57.7956   33.8692   44.4744 H   0  0  0  0  0  0  0  0  0  0  0  0
   55.4525   31.4006   45.1627 H   0  0  0  0  0  0  0  0  0  0  0  0
   56.2049   31.7236   43.5487 H   0  0  0  0  0  0  0  0  0  0  0  0
   58.3892   28.6165   45.2790 H   0  0  0  0  0  0  0  0  0  0  0  0
   59.7316   26.7213   46.1949 H   0  0  0  0  0  0  0  0  0  0  0  0
   58.5890   24.6555   47.0076 H   0  0  0  0  0  0  0  0  0  0  0  0
   56.1025   24.4749   46.8879 H   0  0  0  0  0  0  0  0  0  0  0  0
   61.1585   35.0548   48.2814 H   0  0  0  0  0  0  0  0  0  0  0  0
   59.6774   34.9512   49.2926 H   0  0  0  0  0  0  0  0  0  0  0  0
   58.2372   32.8793   49.1610 H   0  0  0  0  0  0  0  0  0  0  0  0
   58.3092   30.3893   49.0722 H   0  0  0  0  0  0  0  0  0  0  0  0
   62.2553   30.5535   47.3116 H   0  0  0  0  0  0  0  0  0  0  0  0
  1  2  2  0
  2  3  1  0
  3  4  1  0
  4  5  1  0
  5  6  2  0
  5  7  1  0
  7  8  1  0
  8  9  2  0
  8 10  1  0
 10 11  1  0
 11 12  2  0
 12 13  1  0
 13 14  2  0
 14 15  1  0
 15 16  2  0
 16 17  1  0
  2 18  1  0
 18 19  1  0
 19 20  1  0
 20 21  2  0
 21 22  1  0
 22 23  2  0
 23 24  1  0
 23 25  1  0
 25 26  2  0
 26 27  1  0
 16 11  1  0
 26 20  1  0
  3 28  1  0
  3 29  1  0
  7 30  1  0
  7 31  1  0
 12 32  1  0
 13 33  1  0
 14 34  1  0
 15 35  1  0
 19 36  1  0
 19 37  1  0
 21 38  1  0
 22 39  1  0
 25 40  1  0
M  CHG  3  10  -1  17  -1  18  -1
M  END
>  <UniqueID>  (60) 
57

>  <SMILES>  (60) 
O=C(COC(=O)CC(=O)[N-]c1ccccc1[O-])[N-]Cc1ccc(Cl)cc1Cl

>  <Energy>  (60) 
40.73250879032786

>  <Genealogy>  (60) 
O=C(COC(=O)CC(=O)[N-]c1ccccc1[O-])[N-]Cc1ccc(Cl)cc1Cl (protonated)
O=C(COC(=O)CC(=O)[N-]c1ccccc1[O-])[N-]Cc1ccc(Cl)cc1Cl (3D coordinates assigned)
O=C(COC(=O)CC(=O)[N-]c1ccccc1[O-])[N-]Cc1ccc(Cl)cc1Cl (optimized conformer: 40.73250879032786 kcal/mol)

>  <smiles>  (60) 
O=C(COC(=O)CC(=O)Nc1ccccc1O)NCc1ccc(Cl)cc1Cl

>  <score_type>  (60) 
oracle

>  <origin>  (60) 
adg

>  <m_score__min__energy>  (60) 
-15.18

>  <m_primary>  (60) 
energy

$$$$
60:0
     RDKit          3D

 48 50  0  0  0  0  0  0  0  0999 V2000
   54.6470   27.0800   46.7870 H   0  0  0  0  0  0  0  0  0  0  0  0
   55.1860   26.6960   45.9810 N   0  0  0  0  0  0  0  0  0  0  0  0
   56.6090   26.6090   46.0290 C   0  0  0  0  0  0  0  0  0  0  0  0
   57.1450   25.5320   46.4050 O   0  0  0  0  0  0  0  0  0  0  0  0
   57.4470   27.7650   45.6370 C   0  0  0  0  0  0  0  0  0  0  0  0
   58.7300   27.5640   45.0960 C   0  0  0  0  0  0  0  0  0  0  0  0
   59.1188   26.5418   44.9776 H   0  0  0  0  0  0  0  0  0  0  0  0
   59.5140   28.6540   44.7080 C   0  0  0  0  0  0  0  0  0  0  0  0
   60.5120   28.4859   44.2769 H   0  0  0  0  0  0  0  0  0  0  0  0
   59.0340   29.9560   44.8660 C   0  0  0  0  0  0  0  0  0  0  0  0
   59.6506   30.8101   44.5494 H   0  0  0  0  0  0  0  0  0  0  0  0
   57.7640   30.1780   45.4290 C   0  0  0  0  0  0  0  0  0  0  0  0
   57.2360   31.4670   45.5950 O   0  0  0  0  0  0  0  0  0  0  0  0
   57.9670   32.6610   45.4990 C   0  0  0  0  0  0  0  0  0  0  0  0
   58.5410   33.0300   44.3170 N   0  0  0  0  0  0  0  0  0  0  0  0
   59.2710   34.1690   44.1940 C   0  0  0  0  0  0  0  0  0  0  0  0
   59.7234   34.4304   43.2260 H   0  0  0  0  0  0  0  0  0  0  0  0
   59.4470   35.0070   45.2950 C   0  0  0  0  0  0  0  0  0  0  0  0
   60.0291   35.9355   45.1999 H   0  0  0  0  0  0  0  0  0  0  0  0
   58.8760   34.6540   46.5190 C   0  0  0  0  0  0  0  0  0  0  0  0
   58.9942   35.3156   47.3898 H   0  0  0  0  0  0  0  0  0  0  0  0
   58.1510   33.4570   46.6430 C   0  0  0  0  0  0  0  0  0  0  0  0
   57.5580   33.0690   47.8960 N   0  0  0  0  0  0  0  0  0  0  0  0
   56.5370   33.2440   48.0330 H   0  0  0  0  0  0  0  0  0  0  0  0
   58.2540   32.3370   48.9190 C   0  0  0  0  0  0  0  0  0  0  0  0
   59.4420   31.8600   48.6730 N   0  0  0  0  0  0  0  0  0  0  0  0
   59.7910   30.5380   48.2380 C   0  0  0  0  0  0  0  0  0  0  0  0
   58.9790   29.5790   48.3460 O   0  0  0  0  0  0  0  0  0  0  0  0
   61.1060   30.3210   47.5570 C   0  0  0  0  0  0  0  0  0  0  0  0
   61.6495   29.5116   48.0665 H   0  0  0  0  0  0  0  0  0  0  0  0
   60.9249   30.0497   46.5065 H   0  0  0  0  0  0  0  0  0  0  0  0
   61.9310   31.5790   47.6030 C   0  0  0  0  0  0  0  0  0  0  0  0
   63.0370   31.6700   48.4660 C   0  0  0  0  0  0  0  0  0  0  0  0
   63.2769   30.8348   49.1405 H   0  0  0  0  0  0  0  0  0  0  0  0
   63.8330   32.8200   48.4690 C   0  0  0  0  0  0  0  0  0  0  0  0
   64.6924   32.8911   49.1519 H   0  0  0  0  0  0  0  0  0  0  0  0
   63.5380   33.8800   47.6050 C   0  0  0  0  0  0  0  0  0  0  0  0
   64.1682   34.7816   47.6058 H   0  0  0  0  0  0  0  0  0  0  0  0
   62.4420   33.7940   46.7400 C   0  0  0  0  0  0  0  0  0  0  0  0
   62.2116   34.6272   46.0597 H   0  0  0  0  0  0  0  0  0  0  0  0
   61.6400   32.6500   46.7400 C   0  0  0  0  0  0  0  0  0  0  0  0
   60.7766   32.5870   46.0614 H   0  0  0  0  0  0  0  0  0  0  0  0
   57.5970   32.1170   50.1760 N   0  0  0  0  0  0  0  0  0  0  0  0
   56.5590   32.0130   50.1810 H   0  0  0  0  0  0  0  0  0  0  0  0
   58.2010   32.5290   51.3740 C   0  0  0  0  0  0  0  0  0  0  0  0
   58.6970   32.8670   52.3640 N   0  0  0  0  0  0  0  0  0  0  0  0
   56.9730   29.0810   45.7940 C   0  0  0  0  0  0  0  0  0  0  0  0
   55.9683   29.2502   46.2087 H   0  0  0  0  0  0  0  0  0  0  0  0
  1  2  1  0
  2  3  1  0
  3  4  2  0
  3  5  1  0
  5  6  2  0
  6  7  1  0
  6  8  1  0
  8  9  1  0
  8 10  2  0
 10 11  1  0
 10 12  1  0
 12 13  1  0
 13 14  1  0
 14 15  2  0
 15 16  1  0
 16 17  1  0
 16 18  2  0
 18 19  1  0
 18 20  1  0
 20 21  1  0
 20 22  2  0
 22 23  1  0
 23 24  1  0
 23 25  1  0
 25 26  2  0
 26 27  1  0
 27 28  2  0
 27 29  1  0
 29 30  1  0
 29 31  1  0
 29 32  1  0
 32 33  2  0
 33 34  1  0
 33 35  1  0
 35 36  1  0
 35 37  2  0
 37 38  1  0
 37 39  1  0
 39 40  1  0
 39 41  2  0
 41 42  1  0
 25 43  1  0
 43 44  1  0
 43 45  1  0
 45 46  3  0
 12 47  2  0
 47 48  1  0
 47  5  1  0
 22 14  1  0
 41 32  1  0
M  CHG  1   2  -1
M  END
>  <UniqueID>  (61) 
58

>  <SMILES>  (61) 
N#CN/C(=N\C(=O)Cc1ccccc1)Nc1cccnc1Oc1cccc(C([NH-])=O)c1

>  <Energy>  (61) 
64.04193739669624

>  <Genealogy>  (61) 
N#CNC(=NC(=O)Cc1ccccc1)Nc1cccnc1Oc1cccc(C([NH-])=O)c1 (protonated)
N#CN/C(=N\C(=O)Cc1ccccc1)Nc1cccnc1Oc1cccc(C([NH-])=O)c1 (cis-trans isomerization)
N#CN/C(=N\C(=O)Cc1ccccc1)Nc1cccnc1Oc1cccc(C([NH-])=O)c1 (3D coordinates assigned)
N#CN/C(=N\C(=O)Cc1ccccc1)Nc1cccnc1Oc1cccc(C([NH-])=O)c1 (optimized conformer: 64.04193739669624 kcal/mol)

>  <smiles>  (61) 
N#CNC(=NC(=O)Cc1ccccc1)Nc1cccnc1Oc1cccc(C(N)=O)c1

>  <score_type>  (61) 
oracle

>  <origin>  (61) 
adg

>  <m_score__min__energy>  (61) 
-12.06

>  <m_primary>  (61) 
energy

$$$$
61:0
     RDKit          3D

 29 29  0  0  0  0  0  0  0  0999 V2000
   63.3810   33.7830   46.3560 C   0  0  0  0  0  0  0  0  0  0  0  0
   62.8150   33.5800   47.5490 C   0  0  0  0  0  0  0  0  0  0  0  0
   62.1270   32.2850   47.8790 C   0  0  0  0  0  0  0  0  0  0  0  0
   60.7130   32.4700   47.9700 O   0  0  0  0  0  0  0  0  0  0  0  0
   59.7780   32.1010   46.9880 C   0  0  0  0  0  0  0  0  0  0  0  0
   59.4280   30.7580   46.7480 C   0  0  0  0  0  0  0  0  0  0  0  0
   58.4920   30.4370   45.7610 C   0  0  0  0  0  0  0  0  0  0  0  0
   57.8840   31.4480   45.0040 C   0  0  0  0  0  0  0  0  0  0  0  0
   56.9030   31.0980   43.9190 C   0  0  0  0  0  0  0  0  0  0  0  0
   56.4510   29.6720   44.0690 C   0  0  0  0  0  0  0  0  0  0  0  0
   55.4610   29.3440   45.0480 N   0  0  0  0  0  0  0  0  0  0  0  0
   56.9980   28.7320   43.3590 N   0  0  0  0  0  0  0  0  0  0  0  0
   58.2410   32.7850   45.2320 C   0  0  0  0  0  0  0  0  0  0  0  0
   59.1780   33.1100   46.2190 C   0  0  0  0  0  0  0  0  0  0  0  0
   59.6290   34.9480   46.5030 Br  0  0  0  0  0  0  0  0  0  0  0  0
   63.8786   34.7397   46.1389 H   0  0  0  0  0  0  0  0  0  0  0  0
   63.3495   32.9934   45.5908 H   0  0  0  0  0  0  0  0  0  0  0  0
   62.8533   34.3774   48.3058 H   0  0  0  0  0  0  0  0  0  0  0  0
   62.3444   31.5500   47.0901 H   0  0  0  0  0  0  0  0  0  0  0  0
   62.4987   31.9260   48.8501 H   0  0  0  0  0  0  0  0  0  0  0  0
   59.8940   29.9571   47.3408 H   0  0  0  0  0  0  0  0  0  0  0  0
   58.2308   29.3844   45.5771 H   0  0  0  0  0  0  0  0  0  0  0  0
   56.0310   31.7649   43.9884 H   0  0  0  0  0  0  0  0  0  0  0  0
   57.3910   31.2191   42.9407 H   0  0  0  0  0  0  0  0  0  0  0  0
   55.0380   30.0880   45.6450 H   0  0  0  0  0  0  0  0  0  0  0  0
   55.1470   28.3570   45.1830 H   0  0  0  0  0  0  0  0  0  0  0  0
   57.7760   28.9400   42.6930 H   0  0  0  0  0  0  0  0  0  0  0  0
   56.6730   27.7420   43.4380 H   0  0  0  0  0  0  0  0  0  0  0  0
   57.7813   33.5834   44.6309 H   0  0  0  0  0  0  0  0  0  0  0  0
  1  2  2  0
  2  3  1  0
  3  4  1  0
  4  5  1  0
  5  6  2  0
  6  7  1  0
  7  8  2  0
  8  9  1  0
  9 10  1  0
 10 11  1  0
 10 12  2  0
  8 13  1  0
 13 14  2  0
 14 15  1  0
 14  5  1  0
  1 16  1  0
  1 17  1  0
  2 18  1  0
  3 19  1  0
  3 20  1  0
  6 21  1  0
  7 22  1  0
  9 23  1  0
  9 24  1  0
 11 25  1  0
 11 26  1  0
 12 27  1  0
 12 28  1  0
 13 29  1  0
M  CHG  1  12   1
M  END
>  <UniqueID>  (62) 
59

>  <SMILES>  (62) 
C=CCOc1ccc(CC(N)=[NH2+])cc1Br

>  <Energy>  (62) 
20.2887348543155

>  <Genealogy>  (62) 
C=CCOc1ccc(CC(N)=[NH2+])cc1Br (protonated)
C=CCOc1ccc(CC(N)=[NH2+])cc1Br (3D coordinates assigned)
C=CCOc1ccc(CC(N)=[NH2+])cc1Br (optimized conformer: 20.2887348543155 kcal/mol)

>  <smiles>  (62) 
C=CCOc1ccc(CC(=N)N)cc1Br

>  <score_type>  (62) 
oracle

>  <origin>  (62) 
adg

>  <m_score__min__energy>  (62) 
-5.3099999999999996

>  <m_primary>  (62) 
energy

$$$$
62:0
     RDKit          3D

 77 83  0  0  0  0  0  0  0  0999 V2000
   60.8430   26.2820   48.8550 O   0  0  0  0  0  0  0  0  0  0  0  0
   59.9380   26.9910   48.3230 C   0  0  0  0  0  0  0  0  0  0  0  0
   59.0100   26.3360   47.3770 C   0  0  0  0  0  0  0  0  0  0  0  0
   58.1230   25.3720   47.8780 C   0  0  0  0  0  0  0  0  0  0  0  0
   57.1860   24.7710   47.0440 C   0  0  0  0  0  0  0  0  0  0  0  0
   57.1050   25.1300   45.7000 C   0  0  0  0  0  0  0  0  0  0  0  0
   57.9700   26.1010   45.1740 C   0  0  0  0  0  0  0  0  0  0  0  0
   57.8680   26.4790   43.8240 C   0  0  0  0  0  0  0  0  0  0  0  0
   58.6920   27.4720   43.3060 C   0  0  0  0  0  0  0  0  0  0  0  0
   59.6330   28.0960   44.1210 C   0  0  0  0  0  0  0  0  0  0  0  0
   59.7570   27.7300   45.4610 C   0  0  0  0  0  0  0  0  0  0  0  0
   58.9300   26.7210   46.0130 C   0  0  0  0  0  0  0  0  0  0  0  0
   59.8420   28.3980   48.6360 N   0  0  0  0  0  0  0  0  0  0  0  0
   58.9890   29.2820   47.8130 C   0  0  0  0  0  0  0  0  0  0  0  0
   59.3000   30.7670   48.0900 C   0  0  1  0  0  0  0  0  0  0  0  0
   58.5700   31.8130   47.1910 C   0  0  0  0  0  0  0  0  0  0  0  0
   58.1010   31.4090   45.8060 C   0  0  0  0  0  0  0  0  0  0  0  0
   57.4030   30.2000   45.6350 C   0  0  0  0  0  0  0  0  0  0  0  0
   56.8400   29.8690   44.3990 C   0  0  0  0  0  0  0  0  0  0  0  0
   56.9240   30.7620   43.3230 C   0  0  0  0  0  0  0  0  0  0  0  0
   56.3180   30.4560   42.0980 O   0  0  0  0  0  0  0  0  0  0  0  0
   57.5910   31.9760   43.4840 C   0  0  0  0  0  0  0  0  0  0  0  0
   58.1470   32.3180   44.7270 C   0  0  0  0  0  0  0  0  0  0  0  0
   59.2780   31.0010   49.5500 N   0  0  0  0  0  0  0  0  0  0  0  0
   58.5400   32.0210   50.2460 C   0  0  0  0  0  0  0  0  0  0  0  0
   57.3790   32.3500   49.8830 O   0  0  0  0  0  0  0  0  0  0  0  0
   59.1160   32.6450   51.4940 C   0  0  0  0  0  0  0  0  0  0  0  0
   60.0080   31.6520   52.2730 C   0  0  0  0  0  0  0  0  0  0  0  0
   60.8780   30.9200   51.3320 N   0  0  0  0  0  0  0  0  0  0  0  0
   62.1390   31.5610   50.9760 C   0  0  0  0  0  0  0  0  0  0  0  0
   63.1970   30.8580   50.9440 O   0  0  0  0  0  0  0  0  0  0  0  0
   62.2580   33.0240   50.6080 C   0  0  0  0  0  0  0  0  0  0  0  0
   62.4190   33.2250   49.1130 C   0  0  0  0  0  0  0  0  0  0  0  0
   63.5870   32.7430   48.4990 C   0  0  0  0  0  0  0  0  0  0  0  0
   63.7770   32.8720   47.1250 C   0  0  0  0  0  0  0  0  0  0  0  0
   62.7920   33.4330   46.3260 C   0  0  0  0  0  0  0  0  0  0  0  0
   61.6030   33.9020   46.8990 C   0  0  0  0  0  0  0  0  0  0  0  0
   60.5980   34.4490   46.0820 C   0  0  0  0  0  0  0  0  0  0  0  0
   59.4190   34.9250   46.6430 C   0  0  0  0  0  0  0  0  0  0  0  0
   59.2260   34.8600   48.0220 C   0  0  0  0  0  0  0  0  0  0  0  0
   60.2100   34.3130   48.8520 C   0  0  0  0  0  0  0  0  0  0  0  0
   61.4110   33.8160   48.3070 C   0  0  0  0  0  0  0  0  0  0  0  0
   60.0600   30.0990   50.4060 C   0  0  2  0  0  0  0  0  0  0  0  0
   60.7780   28.9860   49.6110 C   0  0  0  0  0  0  0  0  0  0  0  0
   58.1687   25.0887   48.9399 H   0  0  0  0  0  0  0  0  0  0  0  0
   56.5047   24.0076   47.4479 H   0  0  0  0  0  0  0  0  0  0  0  0
   56.3597   24.6500   45.0488 H   0  0  0  0  0  0  0  0  0  0  0  0
   57.1312   25.9859   43.1729 H   0  0  0  0  0  0  0  0  0  0  0  0
   58.6003   27.7654   42.2498 H   0  0  0  0  0  0  0  0  0  0  0  0
   60.2817   28.8814   43.7059 H   0  0  0  0  0  0  0  0  0  0  0  0
   60.5041   28.2296   46.0953 H   0  0  0  0  0  0  0  0  0  0  0  0
   59.1713   29.0689   46.7494 H   0  0  0  0  0  0  0  0  0  0  0  0
   57.9367   29.0911   48.0702 H   0  0  0  0  0  0  0  0  0  0  0  0
   60.3244   30.9681   47.7433 H   0  0  0  0  0  0  0  0  0  0  0  0
   57.6804   32.1463   47.7456 H   0  0  0  0  0  0  0  0  0  0  0  0
   59.3447   32.5681   46.9916 H   0  0  0  0  0  0  0  0  0  0  0  0
   57.2990   29.5073   46.4831 H   0  0  0  0  0  0  0  0  0  0  0  0
   56.3290   28.9034   44.2708 H   0  0  0  0  0  0  0  0  0  0  0  0
   55.6310   29.7090   42.0290 H   0  0  0  0  0  0  0  0  0  0  0  0
   57.6819   32.6682   42.6340 H   0  0  0  0  0  0  0  0  0  0  0  0
   58.6218   33.3012   44.8610 H   0  0  0  0  0  0  0  0  0  0  0  0
   59.7206   33.5186   51.2088 H   0  0  0  0  0  0  0  0  0  0  0  0
   58.2804   32.9385   52.1465 H   0  0  0  0  0  0  0  0  0  0  0  0
   60.6306   32.2058   52.9911 H   0  0  0  0  0  0  0  0  0  0  0  0
   59.3705   30.9355   52.8118 H   0  0  0  0  0  0  0  0  0  0  0  0
   61.3501   33.5484   50.9407 H   0  0  0  0  0  0  0  0  0  0  0  0
   63.1547   33.4258   51.1024 H   0  0  0  0  0  0  0  0  0  0  0  0
   64.3614   32.2575   49.1110 H   0  0  0  0  0  0  0  0  0  0  0  0
   64.7166   32.5258   46.6698 H   0  0  0  0  0  0  0  0  0  0  0  0
   62.9449   33.5099   45.2394 H   0  0  0  0  0  0  0  0  0  0  0  0
   60.7457   34.5005   44.9932 H   0  0  0  0  0  0  0  0  0  0  0  0
   58.6374   35.3534   45.9983 H   0  0  0  0  0  0  0  0  0  0  0  0
   58.2925   35.2419   48.4609 H   0  0  0  0  0  0  0  0  0  0  0  0
   60.0452   34.2704   49.9388 H   0  0  0  0  0  0  0  0  0  0  0  0
   59.4037   29.4928   51.0477 H   0  0  0  0  0  0  0  0  0  0  0  0
   61.6410   29.4133   49.0794 H   0  0  0  0  0  0  0  0  0  0  0  0
   61.1247   28.2052   50.3040 H   0  0  0  0  0  0  0  0  0  0  0  0
  1  2  2  0
  2  3  1  0
  3  4  2  0
  4  5  1  0
  5  6  2  0
  6  7  1  0
  7  8  2  0
  8  9  1  0
  9 10  2  0
 10 11  1  0
 11 12  2  0
  2 13  1  0
 13 14  1  0
 14 15  1  0
 15 16  1  0
 16 17  1  0
 17 18  2  0
 18 19  1  0
 19 20  2  0
 20 21  1  0
 20 22  1  0
 22 23  2  0
 15 24  1  0
 24 25  1  0
 25 26  2  0
 25 27  1  0
 27 28  1  0
 28 29  1  0
 29 30  1  0
 30 31  2  0
 30 32  1  0
 32 33  1  0
 33 34  2  0
 34 35  1  0
 35 36  2  0
 36 37  1  0
 37 38  2  0
 38 39  1  0
 39 40  2  0
 40 41  1  0
 41 42  2  0
 29 43  1  0
 43 44  1  0
 12  3  1  0
 44 13  1  0
 12  7  1  0
 23 17  1  0
 43 24  1  0
 42 33  1  0
 42 37  1  0
  4 45  1  0
  5 46  1  0
  6 47  1  0
  8 48  1  0
  9 49  1  0
 10 50  1  0
 11 51  1  0
 14 52  1  0
 14 53  1  0
 15 54  1  6
 16 55  1  0
 16 56  1  0
 18 57  1  0
 19 58  1  0
 21 59  1  0
 22 60  1  0
 23 61  1  0
 27 62  1  0
 27 63  1  0
 28 64  1  0
 28 65  1  0
 32 66  1  0
 32 67  1  0
 34 68  1  0
 35 69  1  0
 36 70  1  0
 38 71  1  0
 39 72  1  0
 40 73  1  0
 41 74  1  0
 43 75  1  1
 44 76  1  0
 44 77  1  0
M  END
>  <UniqueID>  (63) 
60

>  <SMILES>  (63) 
O=C(c1cccc2ccccc12)N1C[C@@H](Cc2ccc(O)cc2)N2C(=O)CCN(C(=O)Cc3cccc4ccccc34)[C@@H]2C1

>  <Energy>  (63) 
135.58699216169384

>  <Genealogy>  (63) 
O=C(c1cccc2ccccc12)N1C[C@@H](Cc2ccc(O)cc2)N2C(=O)CCN(C(=O)Cc3cccc4ccccc34)[C@@H]2C1 (chirality)
O=C(c1cccc2ccccc12)N1C[C@@H](Cc2ccc(O)cc2)N2C(=O)CCN(C(=O)Cc3cccc4ccccc34)[C@@H]2C1 (3D coordinates assigned)
O=C(c1cccc2ccccc12)N1C[C@@H](Cc2ccc(O)cc2)N2C(=O)CCN(C(=O)Cc3cccc4ccccc34)[C@@H]2C1 (nonaromatic ring conformer: 135.58699216169384 kcal/mol)

>  <smiles>  (63) 
O=C(c1cccc2ccccc12)N1CC(Cc2ccc(O)cc2)N2C(=O)CCN(C(=O)Cc3cccc4ccccc34)C2C1

>  <score_type>  (63) 
oracle

>  <origin>  (63) 
adg

>  <m_score__min__energy>  (63) 
-10.68

>  <m_primary>  (63) 
energy

$$$$
63:0
     RDKit          3D

 41 43  0  0  0  0  0  0  0  0999 V2000
   58.8900   30.4230   46.9590 C   0  0  0  0  0  0  0  0  0  0  0  0
   58.5970   31.4030   46.0870 C   0  0  0  0  0  0  0  0  0  0  0  0
   58.0980   31.2440   44.7810 C   0  0  0  0  0  0  0  0  0  0  0  0
   57.6560   30.1530   44.1240 C   0  0  0  0  0  0  0  0  0  0  0  0
   57.4840   28.8070   44.7030 C   0  0  0  0  0  0  0  0  0  0  0  0
   56.2520   28.4250   45.2500 C   0  0  0  0  0  0  0  0  0  0  0  0
   55.1650   29.2930   45.2090 O   0  0  0  0  0  0  0  0  0  0  0  0
   56.1090   27.1980   45.8180 N   0  0  0  0  0  0  0  0  0  0  0  0
   57.1570   26.3300   45.8800 C   0  0  0  0  0  0  0  0  0  0  0  0
   56.9740   24.8560   46.5620 S   0  0  0  0  0  0  0  0  0  0  0  0
   58.3670   26.6920   45.3820 N   0  0  0  0  0  0  0  0  0  0  0  0
   58.5580   27.9060   44.8060 C   0  0  0  0  0  0  0  0  0  0  0  0
   59.7010   28.2140   44.3730 O   0  0  0  0  0  0  0  0  0  0  0  0
   58.1140   32.5010   44.2040 C   0  0  0  0  0  0  0  0  0  0  0  0
   58.5550   33.3800   45.1680 C   0  0  0  0  0  0  0  0  0  0  0  0
   58.7480   34.8500   44.9390 C   0  0  0  0  0  0  0  0  0  0  0  0
   58.8470   32.7240   46.3160 N   0  0  0  0  0  0  0  0  0  0  0  0
   59.4020   33.3520   47.5280 C   0  0  0  0  0  0  0  0  0  0  0  0
   60.9090   33.3190   47.5070 C   0  0  0  0  0  0  0  0  0  0  0  0
   61.6140   33.8350   46.4080 C   0  0  0  0  0  0  0  0  0  0  0  0
   63.0100   33.7970   46.3830 C   0  0  0  0  0  0  0  0  0  0  0  0
   63.7170   33.2470   47.4550 C   0  0  0  0  0  0  0  0  0  0  0  0
   63.0300   32.7310   48.5640 C   0  0  0  0  0  0  0  0  0  0  0  0
   63.7920   32.1550   49.6880 C   0  0  0  0  0  0  0  0  0  0  0  0
   65.0470   32.2510   49.7420 O   0  0  0  0  0  0  0  0  0  0  0  0
   61.6240   32.7720   48.5860 C   0  0  0  0  0  0  0  0  0  0  0  0
   59.2765   30.6731   47.9580 H   0  0  0  0  0  0  0  0  0  0  0  0
   58.7433   29.3708   46.6736 H   0  0  0  0  0  0  0  0  0  0  0  0
   57.4008   30.2775   43.0613 H   0  0  0  0  0  0  0  0  0  0  0  0
   55.1800   26.9250   46.2110 H   0  0  0  0  0  0  0  0  0  0  0  0
   57.8287   32.7510   43.1715 H   0  0  0  0  0  0  0  0  0  0  0  0
   58.8158   35.3662   45.9080 H   0  0  0  0  0  0  0  0  0  0  0  0
   59.6754   35.0139   44.3706 H   0  0  0  0  0  0  0  0  0  0  0  0
   57.8944   35.2477   44.3706 H   0  0  0  0  0  0  0  0  0  0  0  0
   59.0650   34.3979   47.5786 H   0  0  0  0  0  0  0  0  0  0  0  0
   59.0497   32.7927   48.4073 H   0  0  0  0  0  0  0  0  0  0  0  0
   61.0637   34.2718   45.5616 H   0  0  0  0  0  0  0  0  0  0  0  0
   63.5542   34.2013   45.5168 H   0  0  0  0  0  0  0  0  0  0  0  0
   64.8163   33.2184   47.4295 H   0  0  0  0  0  0  0  0  0  0  0  0
   63.2550   31.6324   50.4933 H   0  0  0  0  0  0  0  0  0  0  0  0
   61.0800   32.3727   49.4547 H   0  0  0  0  0  0  0  0  0  0  0  0
  1  2  2  0
  2  3  1  0
  3  4  2  3
  4  5  1  0
  5  6  2  0
  6  7  1  0
  6  8  1  0
  8  9  1  0
  9 10  2  0
  9 11  1  0
 11 12  1  0
 12 13  2  0
  3 14  1  0
 14 15  2  0
 15 16  1  0
 15 17  1  0
 17 18  1  0
 18 19  1  0
 19 20  2  0
 20 21  1  0
 21 22  2  0
 22 23  1  0
 23 24  1  0
 24 25  2  0
 23 26  2  0
 17  2  1  0
 26 19  1  0
 12  5  1  0
  1 27  1  0
  1 28  1  0
  4 29  1  0
  8 30  1  0
 14 31  1  0
 16 32  1  0
 16 33  1  0
 16 34  1  0
 18 35  1  0
 18 36  1  0
 20 37  1  0
 21 38  1  0
 22 39  1  0
 24 40  1  0
 26 41  1  0
M  CHG  2   7  -1  11  -1
M  END
>  <UniqueID>  (64) 
61

>  <SMILES>  (64) 
C=c1c(=Cc2c([O-])[nH]c(=S)[n-]c2=O)cc(C)n1Cc1cccc(C=O)c1

>  <Energy>  (64) 
85.58263315844694

>  <Genealogy>  (64) 
C=c1c(=Cc2c([O-])[nH]c(=S)[n-]c2=O)cc(C)n1Cc1cccc(C=O)c1 (protonated)
C=c1c(=Cc2c([O-])[nH]c(=S)[n-]c2=O)cc(C)n1Cc1cccc(C=O)c1 (3D coordinates assigned)
C=c1c(=Cc2c([O-])[nH]c(=S)[n-]c2=O)cc(C)n1Cc1cccc(C=O)c1 (optimized conformer: 85.58263315844694 kcal/mol)

>  <smiles>  (64) 
C=c1c(=Cc2c(O)[nH]c(=S)[nH]c2=O)cc(C)n1Cc1cccc(C=O)c1

>  <score_type>  (64) 
oracle

>  <origin>  (64) 
adg

>  <m_score__min__energy>  (64) 
-14.06

>  <m_primary>  (64) 
energy

$$$$
64:0
     RDKit          3D

 48 51  0  0  0  0  0  0  0  0999 V2000
   57.2170   33.8320   46.3960 C   0  0  0  0  0  0  0  0  0  0  0  0
   57.5950   32.6810   45.5110 C   0  0  0  0  0  0  0  0  0  0  0  0
   57.4010   32.7350   44.1180 C   0  0  0  0  0  0  0  0  0  0  0  0
   57.7910   31.6590   43.3020 C   0  0  0  0  0  0  0  0  0  0  0  0
   58.3830   30.5290   43.8820 C   0  0  0  0  0  0  0  0  0  0  0  0
   58.5590   30.5100   45.2300 N   0  0  0  0  0  0  0  0  0  0  0  0
   59.0930   29.5690   46.0350 C   0  0  0  0  0  0  0  0  0  0  0  0
   59.4440   28.1640   45.6040 C   0  0  0  0  0  0  0  0  0  0  0  0
   58.4850   27.1600   46.2010 C   0  0  0  0  0  0  0  0  0  0  0  0
   58.9510   26.2260   47.1410 C   0  0  0  0  0  0  0  0  0  0  0  0
   58.0810   25.2900   47.7010 C   0  0  0  0  0  0  0  0  0  0  0  0
   56.7410   25.2620   47.3170 C   0  0  0  0  0  0  0  0  0  0  0  0
   56.2570   26.1610   46.3610 C   0  0  0  0  0  0  0  0  0  0  0  0
   54.8730   26.0740   45.9930 N   0  0  0  0  0  0  0  0  0  0  0  0
   54.0290   24.6070   45.6070 S   0  0  0  0  0  0  0  0  0  0  0  0
   54.8290   23.7830   44.2460 C   0  0  0  0  0  0  0  0  0  0  0  0
   54.0760   23.6960   46.8010 O   0  0  0  0  0  0  0  0  0  0  0  0
   52.5940   24.9010   45.2740 O   0  0  0  0  0  0  0  0  0  0  0  0
   57.1240   27.1390   45.8270 C   0  0  0  0  0  0  0  0  0  0  0  0
   56.6340   28.1120   44.9660 O   0  0  0  0  0  0  0  0  0  0  0  0
   59.0510   30.0810   47.3350 C   0  0  0  0  0  0  0  0  0  0  0  0
   59.5270   29.4400   48.5760 C   0  0  0  0  0  0  0  0  0  0  0  0
   60.5460   28.4730   48.5480 C   0  0  0  0  0  0  0  0  0  0  0  0
   60.9810   27.8750   49.7350 C   0  0  0  0  0  0  0  0  0  0  0  0
   60.4170   28.2500   50.9570 C   0  0  0  0  0  0  0  0  0  0  0  0
   60.8370   27.6650   52.1060 F   0  0  0  0  0  0  0  0  0  0  0  0
   59.4290   29.2390   50.9960 C   0  0  0  0  0  0  0  0  0  0  0  0
   58.9960   29.8430   49.8130 C   0  0  0  0  0  0  0  0  0  0  0  0
   58.4820   31.3090   47.3310 N   0  0  0  0  0  0  0  0  0  0  0  0
   58.2010   31.5310   46.0310 C   0  0  0  0  0  0  0  0  0  0  0  0
   57.3155   33.5321   47.4497 H   0  0  0  0  0  0  0  0  0  0  0  0
   57.8825   34.6841   46.1936 H   0  0  0  0  0  0  0  0  0  0  0  0
   56.1759   34.1237   46.1936 H   0  0  0  0  0  0  0  0  0  0  0  0
   56.9410   33.6255   43.6647 H   0  0  0  0  0  0  0  0  0  0  0  0
   57.6324   31.7037   42.2144 H   0  0  0  0  0  0  0  0  0  0  0  0
   58.6979   29.6773   43.2612 H   0  0  0  0  0  0  0  0  0  0  0  0
   59.3942   28.1010   44.5069 H   0  0  0  0  0  0  0  0  0  0  0  0
   60.4597   27.9320   45.9571 H   0  0  0  0  0  0  0  0  0  0  0  0
   60.0101   26.2326   47.4379 H   0  0  0  0  0  0  0  0  0  0  0  0
   58.4531   24.5725   48.4472 H   0  0  0  0  0  0  0  0  0  0  0  0
   56.0590   24.5271   47.7695 H   0  0  0  0  0  0  0  0  0  0  0  0
   55.5458   23.0447   44.6346 H   0  0  0  0  0  0  0  0  0  0  0  0
   54.0733   23.2720   43.6314 H   0  0  0  0  0  0  0  0  0  0  0  0
   55.3621   24.5233   43.6314 H   0  0  0  0  0  0  0  0  0  0  0  0
   61.0030   28.1855   47.5896 H   0  0  0  0  0  0  0  0  0  0  0  0
   61.7688   27.1078   49.7065 H   0  0  0  0  0  0  0  0  0  0  0  0
   58.9923   29.5417   51.9592 H   0  0  0  0  0  0  0  0  0  0  0  0
   58.2361   30.6375   49.8501 H   0  0  0  0  0  0  0  0  0  0  0  0
  1  2  1  0
  2  3  2  0
  3  4  1  0
  4  5  2  0
  5  6  1  0
  6  7  1  0
  7  8  1  0
  8  9  1  0
  9 10  2  0
 10 11  1  0
 11 12  2  0
 12 13  1  0
 13 14  1  0
 14 15  1  0
 15 16  1  0
 15 17  2  0
 15 18  2  0
 13 19  2  0
 19 20  1  0
  7 21  2  0
 21 22  1  0
 22 23  2  0
 23 24  1  0
 24 25  2  0
 25 26  1  0
 25 27  1  0
 27 28  2  0
 21 29  1  0
 29 30  2  0
 30  2  1  0
 30  6  1  0
 19  9  1  0
 28 22  1  0
  1 31  1  0
  1 32  1  0
  1 33  1  0
  3 34  1  0
  4 35  1  0
  5 36  1  0
  8 37  1  0
  8 38  1  0
 10 39  1  0
 11 40  1  0
 12 41  1  0
 16 42  1  0
 16 43  1  0
 16 44  1  0
 23 45  1  0
 24 46  1  0
 27 47  1  0
 28 48  1  0
M  CHG  2  14  -1  20  -1
M  END
>  <UniqueID>  (65) 
62

>  <SMILES>  (65) 
Cc1cccn2c(Cc3cccc([N-]S(C)(=O)=O)c3[O-])c(-c3ccc(F)cc3)nc12

>  <Energy>  (65) 
92.49129871652599

>  <Genealogy>  (65) 
Cc1cccn2c(Cc3cccc([N-]S(C)(=O)=O)c3[O-])c(-c3ccc(F)cc3)nc12 (protonated)
Cc1cccn2c(Cc3cccc([N-]S(C)(=O)=O)c3[O-])c(-c3ccc(F)cc3)nc12 (3D coordinates assigned)
Cc1cccn2c(Cc3cccc([N-]S(C)(=O)=O)c3[O-])c(-c3ccc(F)cc3)nc12 (optimized conformer: 92.49129871652599 kcal/mol)

>  <smiles>  (65) 
Cc1cccn2c(Cc3cccc(NS(C)(=O)=O)c3O)c(-c3ccc(F)cc3)nc12

>  <score_type>  (65) 
oracle

>  <origin>  (65) 
adg

>  <m_score__min__energy>  (65) 
-12.9

>  <m_primary>  (65) 
energy

$$$$
65:0
     RDKit          3D

 35 36  0  0  0  0  0  0  0  0999 V2000
   54.3470   27.0830   46.4380 H   0  0  0  0  0  0  0  0  0  0  0  0
   54.8280   26.2760   45.9810 N   0  0  0  0  0  0  0  0  0  0  0  0
   56.1120   26.2550   45.8410 C   0  0  0  0  0  0  0  0  0  0  0  0
   56.9310   27.1220   46.4700 N   0  0  0  0  0  0  0  0  0  0  0  0
   58.2340   26.8840   46.1560 C   0  0  0  0  0  0  0  0  0  0  0  0
   59.3390   27.7370   46.6870 C   0  0  0  0  0  0  0  0  0  0  0  0
   59.2963   27.7513   47.7861 H   0  0  0  0  0  0  0  0  0  0  0  0
   60.3077   27.3274   46.3648 H   0  0  0  0  0  0  0  0  0  0  0  0
   59.1510   29.4350   46.0480 S   0  0  0  0  0  0  0  0  0  0  0  0
   58.0000   29.0050   44.6960 C   0  0  0  0  0  0  0  0  0  0  0  0
   58.4721   29.2418   43.7311 H   0  0  0  0  0  0  0  0  0  0  0  0
   57.7705   27.9309   44.7559 H   0  0  0  0  0  0  0  0  0  0  0  0
   56.7200   29.7790   44.8210 C   0  0  0  0  0  0  0  0  0  0  0  0
   55.6390   29.1520   44.9710 O   0  0  0  0  0  0  0  0  0  0  0  0
   56.6900   31.2130   44.8250 N   0  0  0  0  0  0  0  0  0  0  0  0
   57.8210   32.0940   45.1130 C   0  0  0  0  0  0  0  0  0  0  0  0
   58.7649   31.5642   44.9171 H   0  0  0  0  0  0  0  0  0  0  0  0
   57.7780   33.3390   44.1920 C   0  0  0  0  0  0  0  0  0  0  0  0
   58.3316   33.1088   43.2698 H   0  0  0  0  0  0  0  0  0  0  0  0
   56.7181   33.5613   43.9989 H   0  0  0  0  0  0  0  0  0  0  0  0
   58.3960   34.6000   44.8300 C   0  0  0  0  0  0  0  0  0  0  0  0
   58.8148   35.2338   44.0344 H   0  0  0  0  0  0  0  0  0  0  0  0
   57.6044   35.1304   45.3795 H   0  0  0  0  0  0  0  0  0  0  0  0
   59.5100   34.2440   45.8200 C   0  0  0  0  0  0  0  0  0  0  0  0
   60.2961   33.6884   45.2877 H   0  0  0  0  0  0  0  0  0  0  0  0
   59.9060   35.1794   46.2421 H   0  0  0  0  0  0  0  0  0  0  0  0
   58.9840   33.3770   46.9810 C   0  0  0  0  0  0  0  0  0  0  0  0
   59.7972   32.7187   47.3207 H   0  0  0  0  0  0  0  0  0  0  0  0
   58.6466   34.0633   47.7716 H   0  0  0  0  0  0  0  0  0  0  0  0
   57.7760   32.5010   46.5930 C   0  0  0  0  0  0  0  0  0  0  0  0
   57.7810   31.5923   47.2128 H   0  0  0  0  0  0  0  0  0  0  0  0
   56.8601   33.0870   46.7596 H   0  0  0  0  0  0  0  0  0  0  0  0
   58.4470   25.8370   45.2600 C   0  0  0  0  0  0  0  0  0  0  0  0
   59.4229   25.5018   44.8788 H   0  0  0  0  0  0  0  0  0  0  0  0
   56.9500   25.1750   44.8630 S   0  0  0  0  0  0  0  0  0  0  0  0
  1  2  1  0
  2  3  2  0
  3  4  1  0
  4  5  1  0
  5  6  1  0
  6  7  1  0
  6  8  1  0
  6  9  1  0
  9 10  1  0
 10 11  1  0
 10 12  1  0
 10 13  1  0
 13 14  2  0
 13 15  1  0
 15 16  1  0
 16 17  1  0
 16 18  1  0
 18 19  1  0
 18 20  1  0
 18 21  1  0
 21 22  1  0
 21 23  1  0
 21 24  1  0
 24 25  1  0
 24 26  1  0
 24 27  1  0
 27 28  1  0
 27 29  1  0
 27 30  1  0
 30 31  1  0
 30 32  1  0
  5 33  2  0
 33 34  1  0
 33 35  1  0
 35  3  1  0
 30 16  1  0
M  CHG  2   4  -1  15  -1
M  END
>  <UniqueID>  (66) 
63

>  <SMILES>  (66) 
[H]/N=c1/[n-]c(CSCC(=O)[N-]C2CCCCC2)cs1

>  <Energy>  (66) 
58.37858133582833

>  <Genealogy>  (66) 
N=c1[n-]c(CSCC(=O)[N-]C2CCCCC2)cs1 (protonated)
[H]/N=c1/[n-]c(CSCC(=O)[N-]C2CCCCC2)cs1 (cis-trans isomerization)
[H]/N=c1/[n-]c(CSCC(=O)[N-]C2CCCCC2)cs1 (3D coordinates assigned)
[H]/N=c1/[n-]c(CSCC(=O)[N-]C2CCCCC2)cs1 (nonaromatic ring conformer: 58.37858133582833 kcal/mol)

>  <smiles>  (66) 
N=c1[nH]c(CSCC(=O)NC2CCCCC2)cs1

>  <score_type>  (66) 
oracle

>  <origin>  (66) 
adg

>  <m_score__min__energy>  (66) 
-11.25

>  <m_primary>  (66) 
energy

$$$$
66:0
     RDKit          3D

 30 31  0  0  0  0  0  0  0  0999 V2000
   55.4770   29.7160   44.2210 C   0  0  0  0  0  0  0  0  0  0  0  0
   55.8490   28.6820   45.1250 O   0  0  0  0  0  0  0  0  0  0  0  0
   57.1520   28.1790   45.2700 C   0  0  0  0  0  0  0  0  0  0  0  0
   58.2570   28.7850   44.6370 C   0  0  0  0  0  0  0  0  0  0  0  0
   59.5400   28.2560   44.7960 C   0  0  0  0  0  0  0  0  0  0  0  0
   59.7380   27.1220   45.5830 C   0  0  0  0  0  0  0  0  0  0  0  0
   58.6530   26.5110   46.2170 C   0  0  0  0  0  0  0  0  0  0  0  0
   57.3580   27.0350   46.0700 C   0  0  0  0  0  0  0  0  0  0  0  0
   56.1940   26.3540   46.7440 C   0  0  0  0  0  0  0  0  0  0  0  0
   55.1560   26.0380   45.7690 N   0  0  0  0  0  0  0  0  0  0  0  0
   54.7080   24.7070   45.4930 C   0  0  0  0  0  0  0  0  0  0  0  0
   53.5680   24.3250   45.8770 O   0  0  0  0  0  0  0  0  0  0  0  0
   55.5820   23.7850   44.7580 C   0  0  0  0  0  0  0  0  0  0  0  0
   56.9160   24.0050   44.4640 C   0  0  0  0  0  0  0  0  0  0  0  0
   57.3450   22.8990   43.7660 C   0  0  0  0  0  0  0  0  0  0  0  0
   56.2490   22.0700   43.6760 C   0  0  0  0  0  0  0  0  0  0  0  0
   56.2500   20.8330   43.0410 O   0  0  0  0  0  0  0  0  0  0  0  0
   55.1650   22.5960   44.2760 N   0  0  0  0  0  0  0  0  0  0  0  0
   55.1581   30.6024   44.7890 H   0  0  0  0  0  0  0  0  0  0  0  0
   56.3378   29.9765   43.5876 H   0  0  0  0  0  0  0  0  0  0  0  0
   54.6475   29.3684   43.5876 H   0  0  0  0  0  0  0  0  0  0  0  0
   58.1077   29.6795   44.0144 H   0  0  0  0  0  0  0  0  0  0  0  0
   60.3964   28.7352   44.2991 H   0  0  0  0  0  0  0  0  0  0  0  0
   60.7498   26.7079   45.7049 H   0  0  0  0  0  0  0  0  0  0  0  0
   58.8138   25.6150   46.8345 H   0  0  0  0  0  0  0  0  0  0  0  0
   56.5424   25.4239   47.2168 H   0  0  0  0  0  0  0  0  0  0  0  0
   55.7759   27.0306   47.5039 H   0  0  0  0  0  0  0  0  0  0  0  0
   57.5143   24.8876   44.7342 H   0  0  0  0  0  0  0  0  0  0  0  0
   58.3524   22.7156   43.3642 H   0  0  0  0  0  0  0  0  0  0  0  0
   56.9100   20.1140   43.3100 H   0  0  0  0  0  0  0  0  0  0  0  0
  1  2  1  0
  2  3  1  0
  3  4  2  0
  4  5  1  0
  5  6  2  0
  6  7  1  0
  7  8  2  0
  8  9  1  0
  9 10  1  0
 10 11  1  0
 11 12  2  0
 11 13  1  0
 13 14  2  0
 14 15  1  0
 15 16  2  0
 16 17  1  0
 16 18  1  0
  8  3  1  0
 18 13  1  0
  1 19  1  0
  1 20  1  0
  1 21  1  0
  4 22  1  0
  5 23  1  0
  6 24  1  0
  7 25  1  0
  9 26  1  0
  9 27  1  0
 14 28  1  0
 15 29  1  0
 17 30  1  0
M  CHG  2  10  -1  18  -1
M  END
>  <UniqueID>  (67) 
64

>  <SMILES>  (67) 
COc1ccccc1C[N-]C(=O)c1ccc(O)[n-]1

>  <Energy>  (67) 
51.04490366852725

>  <Genealogy>  (67) 
COc1ccccc1C[N-]C(=O)c1ccc(O)[n-]1 (protonated)
COc1ccccc1C[N-]C(=O)c1ccc(O)[n-]1 (3D coordinates assigned)
COc1ccccc1C[N-]C(=O)c1ccc(O)[n-]1 (optimized conformer: 51.04490366852725 kcal/mol)

>  <smiles>  (67) 
COc1ccccc1CNC(=O)c1ccc(O)[nH]1

>  <score_type>  (67) 
oracle

>  <origin>  (67) 
adg

>  <m_score__min__energy>  (67) 
-10.369999999999999

>  <m_primary>  (67) 
energy

$$$$
67:0
     RDKit          3D

 65 69  0  0  0  0  0  0  0  0999 V2000
   58.8650   20.4340   45.2440 H   0  0  0  0  0  0  0  0  0  0  0  0
   58.7120   21.2730   45.7880 O   0  0  0  0  0  0  0  0  0  0  0  0
   57.9370   22.3340   45.3220 C   0  0  0  0  0  0  0  0  0  0  0  0
   56.7010   22.0770   44.7010 C   0  0  0  0  0  0  0  0  0  0  0  0
   56.3563   21.0393   44.5809 H   0  0  0  0  0  0  0  0  0  0  0  0
   55.9000   23.1390   44.2310 C   0  0  0  0  0  0  0  0  0  0  0  0
   54.9360   22.9228   43.7473 H   0  0  0  0  0  0  0  0  0  0  0  0
   56.3240   24.4710   44.3760 C   0  0  0  0  0  0  0  0  0  0  0  0
   55.7021   25.3060   44.0211 H   0  0  0  0  0  0  0  0  0  0  0  0
   57.5580   24.7010   44.9840 C   0  0  0  0  0  0  0  0  0  0  0  0
   58.2180   25.8810   45.2770 C   0  0  0  0  0  0  0  0  0  0  0  0
   57.7130   27.2810   45.0460 C   0  0  0  0  0  0  0  0  0  0  0  0
   58.3915   27.9925   45.5393 H   0  0  0  0  0  0  0  0  0  0  0  0
   57.6791   27.4631   43.9617 H   0  0  0  0  0  0  0  0  0  0  0  0
   56.3340   27.4600   45.5980 C   0  0  0  0  0  0  0  0  0  0  0  0
   55.8480   26.5980   46.3770 O   0  0  0  0  0  0  0  0  0  0  0  0
   55.5640   28.5540   45.2230 O   0  0  0  0  0  0  0  0  0  0  0  0
   59.4000   25.4910   45.9100 C   0  0  0  0  0  0  0  0  0  0  0  0
   60.4220   26.3880   46.4720 C   0  0  0  0  0  0  0  0  0  0  0  0
   61.4729   26.0634   46.4612 H   0  0  0  0  0  0  0  0  0  0  0  0
   60.1230   27.5880   46.9980 C   0  0  0  0  0  0  0  0  0  0  0  0
   59.6120   27.8170   48.2680 C   0  0  0  0  0  0  0  0  0  0  0  0
   59.3871   27.0587   49.0324 H   0  0  0  0  0  0  0  0  0  0  0  0
   59.4410   29.1820   48.3850 C   0  0  0  0  0  0  0  0  0  0  0  0
   58.9090   29.8560   49.6130 C   0  0  0  0  0  0  0  0  0  0  0  0
   59.3054   29.3538   50.5078 H   0  0  0  0  0  0  0  0  0  0  0  0
   59.2205   30.9110   49.6163 H   0  0  0  0  0  0  0  0  0  0  0  0
   57.8105   29.7980   49.6163 H   0  0  0  0  0  0  0  0  0  0  0  0
   59.8490   29.8050   47.2560 N   0  0  0  0  0  0  0  0  0  0  0  0
   59.7620   31.2140   46.9870 C   0  0  0  0  0  0  0  0  0  0  0  0
   58.6060   31.6990   46.3570 C   0  0  0  0  0  0  0  0  0  0  0  0
   57.7750   31.0099   46.1459 H   0  0  0  0  0  0  0  0  0  0  0  0
   58.4930   33.0490   45.9920 C   0  0  0  0  0  0  0  0  0  0  0  0
   57.2720   33.5520   45.3260 C   0  0  0  0  0  0  0  0  0  0  0  0
   56.2590   32.8130   45.1980 O   0  0  0  0  0  0  0  0  0  0  0  0
   57.2250   34.8490   44.8280 O   0  0  0  0  0  0  0  0  0  0  0  0
   59.5650   33.9130   46.2520 C   0  0  0  0  0  0  0  0  0  0  0  0
   59.4956   34.9716   45.9612 H   0  0  0  0  0  0  0  0  0  0  0  0
   60.7200   33.4410   46.8770 C   0  0  0  0  0  0  0  0  0  0  0  0
   61.5575   34.1304   47.0594 H   0  0  0  0  0  0  0  0  0  0  0  0
   60.8290   32.1010   47.2760 C   0  0  0  0  0  0  0  0  0  0  0  0
   62.3090   31.5990   48.1330 S   0  0  0  0  0  0  0  0  0  0  0  0
   62.0300   30.4720   49.0860 O   0  0  0  0  0  0  0  0  0  0  0  0
   63.2940   31.0970   47.1120 O   0  0  0  0  0  0  0  0  0  0  0  0
   63.0230   32.9020   49.0610 N   0  0  0  0  0  0  0  0  0  0  0  0
   62.7880   32.7300   50.5050 C   0  0  0  0  0  0  0  0  0  0  0  0
   61.7437   32.9878   50.7352 H   0  0  0  0  0  0  0  0  0  0  0  0
   62.9884   31.6829   50.7761 H   0  0  0  0  0  0  0  0  0  0  0  0
   63.7250   33.6420   51.3150 C   0  0  0  0  0  0  0  0  0  0  0  0
   63.4869   34.6865   51.0654 H   0  0  0  0  0  0  0  0  0  0  0  0
   63.5542   33.4012   52.3746 H   0  0  0  0  0  0  0  0  0  0  0  0
   65.1130   33.4330   51.0730 O   0  0  0  0  0  0  0  0  0  0  0  0
   65.3890   32.7350   49.8670 C   0  0  0  0  0  0  0  0  0  0  0  0
   66.4228   32.9553   49.5625 H   0  0  0  0  0  0  0  0  0  0  0  0
   65.2403   31.6631   50.0642 H   0  0  0  0  0  0  0  0  0  0  0  0
   64.4440   33.1290   48.7180 C   0  0  0  0  0  0  0  0  0  0  0  0
   64.5877   34.1957   48.4910 H   0  0  0  0  0  0  0  0  0  0  0  0
   64.6868   32.4989   47.8497 H   0  0  0  0  0  0  0  0  0  0  0  0
   60.2320   28.8380   46.3850 C   0  0  0  0  0  0  0  0  0  0  0  0
   60.6570   29.0810   45.1360 C   0  0  0  0  0  0  0  0  0  0  0  0
   60.7001   30.1142   44.7609 H   0  0  0  0  0  0  0  0  0  0  0  0
   60.9624   28.2471   44.4869 H   0  0  0  0  0  0  0  0  0  0  0  0
   59.4610   24.1440   46.0260 N   0  0  0  0  0  0  0  0  0  0  0  0
   60.2270   23.5980   46.4780 H   0  0  0  0  0  0  0  0  0  0  0  0
   58.3400   23.6710   45.4500 C   0  0  0  0  0  0  0  0  0  0  0  0
  1  2  1  0
  2  3  1  0
  3  4  2  0
  4  5  1  0
  4  6  1  0
  6  7  1  0
  6  8  2  0
  8  9  1  0
  8 10  1  0
 10 11  1  0
 11 12  1  0
 12 13  1  0
 12 14  1  0
 12 15  1  0
 15 16  2  0
 15 17  1  0
 11 18  2  0
 18 19  1  0
 19 20  1  0
 19 21  2  0
 21 22  1  0
 22 23  1  0
 22 24  2  0
 24 25  1  0
 25 26  1  0
 25 27  1  0
 25 28  1  0
 24 29  1  0
 29 30  1  0
 30 31  2  0
 31 32  1  0
 31 33  1  0
 33 34  1  0
 34 35  2  0
 34 36  1  0
 33 37  2  0
 37 38  1  0
 37 39  1  0
 39 40  1  0
 39 41  2  0
 41 42  1  0
 42 43  2  0
 42 44  2  0
 42 45  1  0
 45 46  1  0
 46 47  1  0
 46 48  1  0
 46 49  1  0
 49 50  1  0
 49 51  1  0
 49 52  1  0
 52 53  1  0
 53 54  1  0
 53 55  1  0
 53 56  1  0
 56 57  1  0
 56 58  1  0
 29 59  1  0
 59 60  2  0
 60 61  1  0
 60 62  1  0
 18 63  1  0
 63 64  1  0
 63 65  1  0
 65  3  1  0
 65 10  2  0
 59 21  1  0
 41 30  1  0
 56 45  1  0
M  CHG  2  17  -1  36  -1
M  END
>  <UniqueID>  (68) 
65

>  <SMILES>  (68) 
C=c1/c(=C/c2[nH]c3c(O)cccc3c2CC(=O)[O-])cc(C)n1-c1cc(C(=O)[O-])ccc1S(=O)(=O)N1CCOCC1

>  <Energy>  (68) 
159.3748106476965

>  <Genealogy>  (68) 
C=c1c(=Cc2[nH]c3c(O)cccc3c2CC(=O)[O-])cc(C)n1-c1cc(C(=O)[O-])ccc1S(=O)(=O)N1CCOCC1 (protonated)
C=c1/c(=C/c2[nH]c3c(O)cccc3c2CC(=O)[O-])cc(C)n1-c1cc(C(=O)[O-])ccc1S(=O)(=O)N1CCOCC1 (cis-trans isomerization)
C=c1/c(=C/c2[nH]c3c(O)cccc3c2CC(=O)[O-])cc(C)n1-c1cc(C(=O)[O-])ccc1S(=O)(=O)N1CCOCC1 (3D coordinates assigned)
C=c1/c(=C/c2[nH]c3c(O)cccc3c2CC(=O)[O-])cc(C)n1-c1cc(C(=O)[O-])ccc1S(=O)(=O)N1CCOCC1 (nonaromatic ring conformer: 159.3748106476965 kcal/mol)

>  <smiles>  (68) 
C=c1c(=Cc2[nH]c3c(O)cccc3c2CC(=O)O)cc(C)n1-c1cc(C(=O)O)ccc1S(=O)(=O)N1CCOCC1

>  <score_type>  (68) 
oracle

>  <origin>  (68) 
adg

>  <m_score__min__energy>  (68) 
-14.18

>  <m_primary>  (68) 
energy

$$$$
68:0
     RDKit          3D

 53 56  0  0  1  0  0  0  0  0999 V2000
   63.6560   32.0380   47.5200 N   0  0  0  0  0  0  0  0  0  0  0  0
   64.0810   32.9600   48.5170 C   0  0  0  0  0  0  0  0  0  0  0  0
   63.9480   34.1930   48.3000 O   0  0  0  0  0  0  0  0  0  0  0  0
   64.6590   32.5460   49.7670 C   0  0  0  0  0  0  0  0  0  0  0  0
   66.0260   32.3710   49.8420 C   0  0  0  0  0  0  0  0  0  0  0  0
   66.5860   31.9710   51.0450 C   0  0  0  0  0  0  0  0  0  0  0  0
   65.7780   31.7500   52.1620 C   0  0  0  0  0  0  0  0  0  0  0  0
   64.4010   31.9250   52.0900 C   0  0  0  0  0  0  0  0  0  0  0  0
   63.8650   32.3250   50.8750 C   0  0  0  0  0  0  0  0  0  0  0  0
   62.4370   32.4970   50.8350 N   0  0  0  0  0  0  0  0  0  0  0  0
   61.7340   31.8260   49.9860 C   0  0  0  0  0  0  0  0  0  0  0  0
   61.2180   32.4110   48.9310 N   0  0  0  0  0  0  0  0  0  0  0  0
   60.4670   31.7490   48.0010 C   0  0  0  0  0  0  0  0  0  0  0  0
   59.9100   32.5790   46.9590 C   0  0  0  0  0  0  0  0  0  0  0  0
   60.1660   33.9570   47.0830 C   0  0  0  0  0  0  0  0  0  0  0  0
   59.6510   34.9180   46.2700 C   0  0  0  0  0  0  0  0  0  0  0  0
   58.8230   34.5430   45.2550 C   0  0  0  0  0  0  0  0  0  0  0  0
   58.5520   33.2040   45.1060 C   0  0  0  0  0  0  0  0  0  0  0  0
   59.0810   32.2090   45.9380 C   0  0  0  0  0  0  0  0  0  0  0  0
   58.6330   30.5860   45.6220 S   0  0  0  0  0  0  0  0  0  0  0  0
   59.9250   29.7630   45.4110 O   0  0  0  0  0  0  0  0  0  0  0  0
   57.7640   29.9390   46.6210 O   0  0  0  0  0  0  0  0  0  0  0  0
   57.8120   30.4720   44.0870 N   0  0  0  0  0  0  0  0  0  0  0  0
   57.2360   29.2110   43.7840 C   0  0  0  0  0  0  0  0  0  0  0  0
   55.8400   29.7930   44.0130 C   0  0  0  0  0  0  0  0  0  0  0  0
   55.2610   29.3490   45.1900 O   0  0  0  0  0  0  0  0  0  0  0  0
   56.5400   31.1000   44.0750 C   0  0  0  0  0  0  0  0  0  0  0  0
   60.2980   30.4630   48.2420 N   0  0  0  0  0  0  0  0  0  0  0  0
   60.8070   29.7940   49.3200 C   0  0  0  0  0  0  0  0  0  0  0  0
   61.5590   30.4840   50.2430 C   0  0  0  0  0  0  0  0  0  0  0  0
   62.1140   29.8840   51.3650 O   0  0  0  0  0  0  0  0  0  0  0  0
   61.2980   29.0010   52.1040 C   0  0  0  0  0  0  0  0  0  0  0  0
   61.3770   27.7700   51.4670 F   0  0  0  0  0  0  0  0  0  0  0  0
   59.9710   29.3770   52.1330 F   0  0  0  0  0  0  0  0  0  0  0  0
   61.7230   28.8370   53.3920 F   0  0  0  0  0  0  0  0  0  0  0  0
   64.2430   31.8860   46.6610 H   0  0  0  0  0  0  0  0  0  0  0  0
   62.7660   31.5050   47.6270 H   0  0  0  0  0  0  0  0  0  0  0  0
   66.6609   32.5462   48.9610 H   0  0  0  0  0  0  0  0  0  0  0  0
   67.6739   31.8267   51.1203 H   0  0  0  0  0  0  0  0  0  0  0  0
   66.2367   31.4336   53.1104 H   0  0  0  0  0  0  0  0  0  0  0  0
   63.7587   31.7523   52.9662 H   0  0  0  0  0  0  0  0  0  0  0  0
   60.8313   34.2807   47.8970 H   0  0  0  0  0  0  0  0  0  0  0  0
   59.8983   35.9780   46.4289 H   0  0  0  0  0  0  0  0  0  0  0  0
   58.3849   35.2891   44.5757 H   0  0  0  0  0  0  0  0  0  0  0  0
   57.8830   32.8968   44.2886 H   0  0  0  0  0  0  0  0  0  0  0  0
   57.4171   28.8706   42.7538 H   0  0  0  0  0  0  0  0  0  0  0  0
   57.5579   28.3080   44.3235 H   0  0  0  0  0  0  0  0  0  0  0  0
   54.9769   29.6325   43.3502 H   0  0  0  0  0  0  0  0  0  0  0  0
   55.7360   29.7450   45.9630 H   0  0  0  0  0  0  0  0  0  0  0  0
   56.3692   31.7346   43.1929 H   0  0  0  0  0  0  0  0  0  0  0  0
   56.2826   31.8127   44.8724 H   0  0  0  0  0  0  0  0  0  0  0  0
   59.7920   29.8790   47.5870 H   0  0  0  0  0  0  0  0  0  0  0  0
   60.6179   28.7180   49.4480 H   0  0  0  0  0  0  0  0  0  0  0  0
  1  2  1  0
  2  3  2  0
  2  4  1  0
  4  5  2  0
  5  6  1  0
  6  7  2  0
  7  8  1  0
  8  9  2  0
  9 10  1  0
 10 11  2  0
 11 12  1  0
 12 13  2  0
 13 14  1  0
 14 15  2  0
 15 16  1  0
 16 17  2  0
 17 18  1  0
 18 19  2  0
 19 20  1  0
 20 21  2  0
 20 22  2  0
 20 23  1  0
 23 24  1  0
 24 25  1  0
 25 26  1  0
 25 27  1  0
 13 28  1  0
 28 29  1  0
 29 30  2  0
 30 31  1  0
 31 32  1  0
 32 33  1  0
 32 34  1  0
 32 35  1  0
  9  4  1  0
 30 11  1  0
 19 14  1  0
 27 23  1  0
  1 36  1  0
  1 37  1  0
  5 38  1  0
  6 39  1  0
  7 40  1  0
  8 41  1  0
 15 42  1  0
 16 43  1  0
 17 44  1  0
 18 45  1  0
 24 46  1  0
 24 47  1  0
 25 48  1  0
 26 49  1  0
 27 50  1  0
 27 51  1  0
 28 52  1  0
 29 53  1  0
M  END
>  <smiles>  (69) 
NC(=O)c1ccccc1N=c1nc(-c2ccccc2S(=O)(=O)N2CC(O)C2)[nH]cc1OC(F)(F)F

>  <score_type>  (69) 
oracle

>  <origin>  (69) 
adg

>  <m_score__min__energy>  (69) 
-8.5899999999999999

>  <m_primary>  (69) 
energy

$$$$
69:0
     RDKit          3D

 56 59  0  0  0  0  0  0  0  0999 V2000
   55.0910   23.4390   44.4170 C   0  0  0  0  0  0  0  0  0  0  0  0
   55.2530   24.7730   45.6050 S   0  0  0  0  0  0  0  0  0  0  0  0
   55.4690   24.1800   46.9790 O   0  0  0  0  0  0  0  0  0  0  0  0
   53.9770   25.5760   45.6180 O   0  0  0  0  0  0  0  0  0  0  0  0
   56.5860   25.8370   45.2150 N   0  0  0  0  0  0  0  0  0  0  0  0
   57.7780   25.0760   44.7940 C   0  0  0  0  0  0  0  0  0  0  0  0
   58.8080   25.1470   45.9150 C   0  0  0  0  0  0  0  0  0  0  0  0
   58.4280   26.3860   46.7350 C   0  0  1  0  0  0  0  0  0  0  0  0
   59.2530   27.6230   46.5100 N   0  0  0  0  0  0  0  0  0  0  0  0
   60.3750   27.7460   47.4740 C   0  0  0  0  0  0  0  0  0  0  0  0
   60.4730   29.1730   47.9340 C   0  0  0  0  0  0  0  0  0  0  0  0
   60.9880   30.1650   47.0780 C   0  0  0  0  0  0  0  0  0  0  0  0
   61.0070   31.4960   47.5020 C   0  0  0  0  0  0  0  0  0  0  0  0
   60.5150   31.8250   48.7660 C   0  0  0  0  0  0  0  0  0  0  0  0
   60.0110   30.8120   49.5930 C   0  0  0  0  0  0  0  0  0  0  0  0
   59.9970   29.5210   49.1620 N   0  0  0  0  0  0  0  0  0  0  0  0
   59.6580   27.9370   45.1240 C   0  0  0  0  0  0  0  0  0  0  0  0
   58.6610   28.8540   44.4870 C   0  0  0  0  0  0  0  0  0  0  0  0
   57.5250   28.4520   43.8960 N   0  0  0  0  0  0  0  0  0  0  0  0
   56.9210   29.5280   43.4210 N   0  0  0  0  0  0  0  0  0  0  0  0
   57.7220   30.5600   43.7510 C   0  0  0  0  0  0  0  0  0  0  0  0
   57.4570   31.9820   43.3770 C   0  0  0  0  0  0  0  0  0  0  0  0
   57.9100   32.8940   44.4870 C   0  0  0  0  0  0  0  0  0  0  0  0
   58.8930   33.8710   44.2470 C   0  0  0  0  0  0  0  0  0  0  0  0
   59.3450   34.6910   45.2910 C   0  0  0  0  0  0  0  0  0  0  0  0
   58.8260   34.5340   46.5830 C   0  0  0  0  0  0  0  0  0  0  0  0
   57.8560   33.5540   46.8320 C   0  0  0  0  0  0  0  0  0  0  0  0
   57.4020   32.7330   45.7920 C   0  0  0  0  0  0  0  0  0  0  0  0
   58.7910   30.1550   44.4020 O   0  0  0  0  0  0  0  0  0  0  0  0
   56.9590   26.6720   46.3730 C   0  0  0  0  0  0  0  0  0  0  0  0
   54.9751   22.4844   44.9511 H   0  0  0  0  0  0  0  0  0  0  0  0
   54.2077   23.6155   43.7856 H   0  0  0  0  0  0  0  0  0  0  0  0
   55.9909   23.3990   43.7856 H   0  0  0  0  0  0  0  0  0  0  0  0
   57.5034   24.0275   44.6064 H   0  0  0  0  0  0  0  0  0  0  0  0
   58.1934   25.5014   43.8685 H   0  0  0  0  0  0  0  0  0  0  0  0
   58.7612   24.2425   46.5392 H   0  0  0  0  0  0  0  0  0  0  0  0
   59.8347   25.2118   45.5254 H   0  0  0  0  0  0  0  0  0  0  0  0
   58.6098   26.1549   47.7950 H   0  0  0  0  0  0  0  0  0  0  0  0
   60.1910   27.0919   48.3390 H   0  0  0  0  0  0  0  0  0  0  0  0
   61.3157   27.4475   46.9882 H   0  0  0  0  0  0  0  0  0  0  0  0
   61.3723   29.8943   46.0835 H   0  0  0  0  0  0  0  0  0  0  0  0
   61.4076   32.2805   46.8432 H   0  0  0  0  0  0  0  0  0  0  0  0
   60.5228   32.8698   49.1099 H   0  0  0  0  0  0  0  0  0  0  0  0
   59.6258   31.0608   50.5928 H   0  0  0  0  0  0  0  0  0  0  0  0
   60.6440   28.4246   45.1356 H   0  0  0  0  0  0  0  0  0  0  0  0
   59.7065   27.0030   44.5449 H   0  0  0  0  0  0  0  0  0  0  0  0
   57.1680   27.4750   43.8060 H   0  0  0  0  0  0  0  0  0  0  0  0
   58.0071   32.2261   42.4562 H   0  0  0  0  0  0  0  0  0  0  0  0
   56.3782   32.1192   43.2114 H   0  0  0  0  0  0  0  0  0  0  0  0
   59.3090   33.9924   43.2360 H   0  0  0  0  0  0  0  0  0  0  0  0
   60.1082   35.4586   45.0953 H   0  0  0  0  0  0  0  0  0  0  0  0
   59.1796   35.1792   47.4007 H   0  0  0  0  0  0  0  0  0  0  0  0
   57.4501   33.4291   47.8467 H   0  0  0  0  0  0  0  0  0  0  0  0
   56.6463   31.9598   45.9943 H   0  0  0  0  0  0  0  0  0  0  0  0
   56.3126   26.4279   47.2289 H   0  0  0  0  0  0  0  0  0  0  0  0
   56.8348   27.7361   46.1233 H   0  0  0  0  0  0  0  0  0  0  0  0
  1  2  1  0
  2  3  2  0
  2  4  2  0
  2  5  1  0
  5  6  1  0
  6  7  1  0
  7  8  1  0
  8  9  1  0
  9 10  1  0
 10 11  1  0
 11 12  2  0
 12 13  1  0
 13 14  2  0
 14 15  1  0
 15 16  2  0
  9 17  1  0
 17 18  1  0
 18 19  2  0
 19 20  1  0
 20 21  2  0
 21 22  1  0
 22 23  1  0
 23 24  2  0
 24 25  1  0
 25 26  2  0
 26 27  1  0
 27 28  2  0
 21 29  1  0
  8 30  1  0
 30  5  1  0
 16 11  1  0
 29 18  1  0
 28 23  1  0
  1 31  1  0
  1 32  1  0
  1 33  1  0
  6 34  1  0
  6 35  1  0
  7 36  1  0
  7 37  1  0
  8 38  1  1
 10 39  1  0
 10 40  1  0
 12 41  1  0
 13 42  1  0
 14 43  1  0
 15 44  1  0
 17 45  1  0
 17 46  1  0
 19 47  1  0
 22 48  1  0
 22 49  1  0
 24 50  1  0
 25 51  1  0
 26 52  1  0
 27 53  1  0
 28 54  1  0
 30 55  1  0
 30 56  1  0
M  CHG  1  19   1
M  END
>  <UniqueID>  (70) 
66

>  <SMILES>  (70) 
CS(=O)(=O)N1CC[C@@H](N(Cc2ccccn2)Cc2[nH+]nc(Cc3ccccc3)o2)C1

>  <Energy>  (70) 
102.01775883395449

>  <Genealogy>  (70) 
CS(=O)(=O)N1CCC(N(Cc2ccccn2)Cc2[nH+]nc(Cc3ccccc3)o2)C1 (protonated)
CS(=O)(=O)N1CC[C@@H](N(Cc2ccccn2)Cc2[nH+]nc(Cc3ccccc3)o2)C1 (chirality)
CS(=O)(=O)N1CC[C@@H](N(Cc2ccccn2)Cc2[nH+]nc(Cc3ccccc3)o2)C1 (3D coordinates assigned)
CS(=O)(=O)N1CC[C@@H](N(Cc2ccccn2)Cc2[nH+]nc(Cc3ccccc3)o2)C1 (nonaromatic ring conformer: 102.01775883395449 kcal/mol)

>  <smiles>  (70) 
CS(=O)(=O)N1CCC(N(Cc2ccccn2)Cc2nnc(Cc3ccccc3)o2)C1

>  <score_type>  (70) 
oracle

>  <origin>  (70) 
adg

>  <m_score__min__energy>  (70) 
-8.3699999999999992

>  <m_primary>  (70) 
energy

$$$$
70:0
     RDKit          3D

 47 49  0  0  0  0  0  0  0  0999 V2000
   55.4500   29.5810   44.8870 N   0  0  0  0  0  0  0  0  0  0  0  0
   57.1580   29.5810   45.1570 S   0  0  0  0  0  0  0  0  0  0  0  0
   57.8370   28.7860   44.0790 O   0  0  0  0  0  0  0  0  0  0  0  0
   57.4350   28.9510   46.4930 O   0  0  0  0  0  0  0  0  0  0  0  0
   57.7600   31.2350   45.1330 C   0  0  0  0  0  0  0  0  0  0  0  0
   57.6290   32.0210   43.9800 C   0  0  0  0  0  0  0  0  0  0  0  0
   58.1340   33.3220   43.9580 C   0  0  0  0  0  0  0  0  0  0  0  0
   58.7670   33.8490   45.0870 C   0  0  0  0  0  0  0  0  0  0  0  0
   58.9040   33.0690   46.2440 C   0  0  0  0  0  0  0  0  0  0  0  0
   59.5760   33.6370   47.4250 C   0  0  0  0  0  0  0  0  0  0  0  0
   58.8740   34.2320   48.2870 O   0  0  0  0  0  0  0  0  0  0  0  0
   61.0130   33.6250   47.5600 N   0  0  0  0  0  0  0  0  0  0  0  0
   61.8380   33.9020   46.3740 C   0  0  0  0  0  0  0  0  0  0  0  0
   63.3060   33.5010   46.5950 C   0  0  0  0  0  0  0  0  0  0  0  0
   63.3970   32.1120   47.2480 C   0  0  0  0  0  0  0  0  0  0  0  0
   62.5690   32.0000   48.5660 C   0  0  2  0  0  0  0  0  0  0  0  0
   61.7070   30.7590   48.6170 C   0  0  0  0  0  0  0  0  0  0  0  0
   61.7250   30.0240   49.6420 O   0  0  0  0  0  0  0  0  0  0  0  0
   61.0040   30.3410   47.4340 N   0  0  0  0  0  0  0  0  0  0  0  0
   60.4330   29.0340   47.2570 C   0  0  0  0  0  0  0  0  0  0  0  0
   59.8880   28.3690   48.3670 C   0  0  0  0  0  0  0  0  0  0  0  0
   59.3170   27.1010   48.2230 C   0  0  0  0  0  0  0  0  0  0  0  0
   59.2960   26.4800   46.9710 C   0  0  0  0  0  0  0  0  0  0  0  0
   58.7210   25.2250   46.8280 O   0  0  0  0  0  0  0  0  0  0  0  0
   59.8610   27.1220   45.8650 C   0  0  0  0  0  0  0  0  0  0  0  0
   60.4360   28.3900   46.0070 C   0  0  0  0  0  0  0  0  0  0  0  0
   61.6800   33.2330   48.8100 C   0  0  0  0  0  0  0  0  0  0  0  0
   58.3780   31.7700   46.2720 C   0  0  0  0  0  0  0  0  0  0  0  0
   55.1440   28.5820   44.8700 H   0  0  0  0  0  0  0  0  0  0  0  0
   57.1273   31.6118   43.0907 H   0  0  0  0  0  0  0  0  0  0  0  0
   58.0335   33.9341   43.0496 H   0  0  0  0  0  0  0  0  0  0  0  0
   59.1582   34.8769   45.0679 H   0  0  0  0  0  0  0  0  0  0  0  0
   61.4380   33.3340   45.5211 H   0  0  0  0  0  0  0  0  0  0  0  0
   61.8042   34.9839   46.1783 H   0  0  0  0  0  0  0  0  0  0  0  0
   63.8243   33.4788   45.6250 H   0  0  0  0  0  0  0  0  0  0  0  0
   63.7774   34.2374   47.2625 H   0  0  0  0  0  0  0  0  0  0  0  0
   63.0215   31.3642   46.5340 H   0  0  0  0  0  0  0  0  0  0  0  0
   64.4520   31.9400   47.5077 H   0  0  0  0  0  0  0  0  0  0  0  0
   63.3236   31.9366   49.3638 H   0  0  0  0  0  0  0  0  0  0  0  0
   61.1040   30.9390   46.5810 H   0  0  0  0  0  0  0  0  0  0  0  0
   59.9104   28.8489   49.3566 H   0  0  0  0  0  0  0  0  0  0  0  0
   58.8837   26.5914   49.0962 H   0  0  0  0  0  0  0  0  0  0  0  0
   59.8536   26.6296   44.8814 H   0  0  0  0  0  0  0  0  0  0  0  0
   60.8922   28.8850   45.1370 H   0  0  0  0  0  0  0  0  0  0  0  0
   60.9206   32.9907   49.5680 H   0  0  0  0  0  0  0  0  0  0  0  0
   62.3056   34.0661   49.1630 H   0  0  0  0  0  0  0  0  0  0  0  0
   58.4503   31.1687   47.1903 H   0  0  0  0  0  0  0  0  0  0  0  0
  1  2  1  0
  2  3  2  0
  2  4  2  0
  2  5  1  0
  5  6  2  0
  6  7  1  0
  7  8  2  0
  8  9  1  0
  9 10  1  0
 10 11  2  0
 10 12  1  0
 12 13  1  0
 13 14  1  0
 14 15  1  0
 15 16  1  0
 16 17  1  0
 17 18  2  0
 17 19  1  0
 19 20  1  0
 20 21  2  0
 21 22  1  0
 22 23  2  0
 23 24  1  0
 23 25  1  0
 25 26  2  0
 16 27  1  0
  9 28  2  0
 28  5  1  0
 27 12  1  0
 26 20  1  0
  1 29  1  0
  6 30  1  0
  7 31  1  0
  8 32  1  0
 13 33  1  0
 13 34  1  0
 14 35  1  0
 14 36  1  0
 15 37  1  0
 15 38  1  0
 16 39  1  1
 19 40  1  0
 21 41  1  0
 22 42  1  0
 25 43  1  0
 26 44  1  0
 27 45  1  0
 27 46  1  0
 28 47  1  0
M  CHG  2   1  -1  24  -1
M  END
>  <UniqueID>  (71) 
67

>  <SMILES>  (71) 
[NH-]S(=O)(=O)c1cccc(C(=O)N2CCC[C@H](C(=O)Nc3ccc([O-])cc3)C2)c1

>  <Energy>  (71) 
58.69196441026267

>  <Genealogy>  (71) 
[NH-]S(=O)(=O)c1cccc(C(=O)N2CCCC(C(=O)Nc3ccc([O-])cc3)C2)c1 (protonated)
[NH-]S(=O)(=O)c1cccc(C(=O)N2CCC[C@H](C(=O)Nc3ccc([O-])cc3)C2)c1 (chirality)
[NH-]S(=O)(=O)c1cccc(C(=O)N2CCC[C@H](C(=O)Nc3ccc([O-])cc3)C2)c1 (3D coordinates assigned)
[NH-]S(=O)(=O)c1cccc(C(=O)N2CCC[C@H](C(=O)Nc3ccc([O-])cc3)C2)c1 (nonaromatic ring conformer: 58.69196441026267 kcal/mol)

>  <smiles>  (71) 
NS(=O)(=O)c1cccc(C(=O)N2CCCC(C(=O)Nc3ccc(O)cc3)C2)c1

>  <score_type>  (71) 
oracle

>  <origin>  (71) 
adg

>  <m_score__min__energy>  (71) 
-14.07

>  <m_primary>  (71) 
energy

$$$$
71:0
     RDKit          3D

 50 52  0  0  0  0  0  0  0  0999 V2000
   55.9510   22.5760   48.5510 C   0  0  0  0  0  0  0  0  0  0  0  0
   57.1090   23.3490   48.2520 O   0  0  0  0  0  0  0  0  0  0  0  0
   57.2190   24.2190   47.1560 C   0  0  0  0  0  0  0  0  0  0  0  0
   58.2700   24.0220   46.2570 C   0  0  0  0  0  0  0  0  0  0  0  0
   58.4260   24.8620   45.1520 C   0  0  0  0  0  0  0  0  0  0  0  0
   57.5360   25.9270   44.9250 C   0  0  0  0  0  0  0  0  0  0  0  0
   57.7540   26.7990   43.7410 C   0  0  0  0  0  0  0  0  0  0  0  0
   57.9290   26.2670   42.6110 O   0  0  0  0  0  0  0  0  0  0  0  0
   57.8130   28.3020   43.8350 C   0  0  0  0  0  0  0  0  0  0  0  0
   58.9070   28.7570   44.7650 C   0  0  0  0  0  0  0  0  0  0  0  0
   60.0620   28.2650   44.6500 O   0  0  0  0  0  0  0  0  0  0  0  0
   58.6340   29.7120   45.8590 C   0  0  0  0  0  0  0  0  0  0  0  0
   57.5420   30.3430   45.8790 O   0  0  0  0  0  0  0  0  0  0  0  0
   59.6230   29.9490   46.8750 N   0  0  0  0  0  0  0  0  0  0  0  0
   59.3610   30.6450   48.1050 C   0  0  0  0  0  0  0  0  0  0  0  0
   59.1260   29.9100   49.2760 C   0  0  0  0  0  0  0  0  0  0  0  0
   58.8460   30.5620   50.4800 C   0  0  0  0  0  0  0  0  0  0  0  0
   58.7770   31.9640   50.5310 C   0  0  0  0  0  0  0  0  0  0  0  0
   58.5010   32.6330   51.7750 N   0  0  0  0  0  0  0  0  0  0  0  0
   58.9040   34.0340   51.9560 C   0  0  0  0  0  0  0  0  0  0  0  0
   58.7690   34.4420   53.4230 C   0  0  0  0  0  0  0  0  0  0  0  0
   59.1640   33.3650   54.2460 O   0  0  0  0  0  0  0  0  0  0  0  0
   58.1720   32.3520   54.2300 C   0  0  0  0  0  0  0  0  0  0  0  0
   57.6920   31.9730   52.8090 C   0  0  0  0  0  0  0  0  0  0  0  0
   58.9960   32.7010   49.3550 C   0  0  0  0  0  0  0  0  0  0  0  0
   59.2760   32.0480   48.1510 C   0  0  0  0  0  0  0  0  0  0  0  0
   56.4620   26.1140   45.8230 C   0  0  0  0  0  0  0  0  0  0  0  0
   55.5160   27.1110   45.6220 O   0  0  0  0  0  0  0  0  0  0  0  0
   56.3140   25.2700   46.9310 C   0  0  0  0  0  0  0  0  0  0  0  0
   55.8339   22.4979   49.6420 H   0  0  0  0  0  0  0  0  0  0  0  0
   55.0636   23.0635   48.1210 H   0  0  0  0  0  0  0  0  0  0  0  0
   56.0609   21.5695   48.1210 H   0  0  0  0  0  0  0  0  0  0  0  0
   58.9806   23.1985   46.4207 H   0  0  0  0  0  0  0  0  0  0  0  0
   59.2553   24.6884   44.4506 H   0  0  0  0  0  0  0  0  0  0  0  0
   58.0014   28.7152   42.8331 H   0  0  0  0  0  0  0  0  0  0  0  0
   56.8521   28.6598   44.2332 H   0  0  0  0  0  0  0  0  0  0  0  0
   60.6130   29.6820   46.6690 H   0  0  0  0  0  0  0  0  0  0  0  0
   59.1624   28.8110   49.2466 H   0  0  0  0  0  0  0  0  0  0  0  0
   58.6785   29.9732   51.3939 H   0  0  0  0  0  0  0  0  0  0  0  0
   59.9513   34.1534   51.6415 H   0  0  0  0  0  0  0  0  0  0  0  0
   58.2507   34.6749   51.3458 H   0  0  0  0  0  0  0  0  0  0  0  0
   59.4118   35.3120   53.6229 H   0  0  0  0  0  0  0  0  0  0  0  0
   57.7225   34.7044   53.6373 H   0  0  0  0  0  0  0  0  0  0  0  0
   58.5869   31.4522   54.7077 H   0  0  0  0  0  0  0  0  0  0  0  0
   57.2989   32.7490   54.7687 H   0  0  0  0  0  0  0  0  0  0  0  0
   57.7711   30.8830   52.6835 H   0  0  0  0  0  0  0  0  0  0  0  0
   56.6493   32.3047   52.6963 H   0  0  0  0  0  0  0  0  0  0  0  0
   58.9468   33.7996   49.3818 H   0  0  0  0  0  0  0  0  0  0  0  0
   59.4308   32.6353   47.2339 H   0  0  0  0  0  0  0  0  0  0  0  0
   55.4815   25.4315   47.6316 H   0  0  0  0  0  0  0  0  0  0  0  0
  1  2  1  0
  2  3  1  0
  3  4  2  0
  4  5  1  0
  5  6  2  0
  6  7  1  0
  7  8  2  0
  7  9  1  0
  9 10  1  0
 10 11  2  0
 10 12  1  0
 12 13  2  0
 12 14  1  0
 14 15  1  0
 15 16  2  0
 16 17  1  0
 17 18  2  0
 18 19  1  0
 19 20  1  0
 20 21  1  0
 21 22  1  0
 22 23  1  0
 23 24  1  0
 18 25  1  0
 25 26  2  0
  6 27  1  0
 27 28  1  0
 27 29  2  0
 29  3  1  0
 26 15  1  0
 24 19  1  0
  1 30  1  0
  1 31  1  0
  1 32  1  0
  4 33  1  0
  5 34  1  0
  9 35  1  0
  9 36  1  0
 14 37  1  0
 16 38  1  0
 17 39  1  0
 20 40  1  0
 20 41  1  0
 21 42  1  0
 21 43  1  0
 23 44  1  0
 23 45  1  0
 24 46  1  0
 24 47  1  0
 25 48  1  0
 26 49  1  0
 29 50  1  0
M  CHG  1  28  -1
M  END
>  <UniqueID>  (72) 
68

>  <SMILES>  (72) 
COc1ccc(C(=O)CC(=O)C(=O)Nc2ccc(N3CCOCC3)cc2)c([O-])c1

>  <Energy>  (72) 
68.69197550610946

>  <Genealogy>  (72) 
COc1ccc(C(=O)CC(=O)C(=O)Nc2ccc(N3CCOCC3)cc2)c([O-])c1 (protonated)
COc1ccc(C(=O)CC(=O)C(=O)Nc2ccc(N3CCOCC3)cc2)c([O-])c1 (3D coordinates assigned)
COc1ccc(C(=O)CC(=O)C(=O)Nc2ccc(N3CCOCC3)cc2)c([O-])c1 (nonaromatic ring conformer: 68.69197550610946 kcal/mol)

>  <smiles>  (72) 
COc1ccc(C(=O)CC(=O)C(=O)Nc2ccc(N3CCOCC3)cc2)c(O)c1

>  <score_type>  (72) 
oracle

>  <origin>  (72) 
adg

>  <m_score__min__energy>  (72) 
-12.02

>  <m_primary>  (72) 
energy

$$$$
72:0
     RDKit          3D

 61 65  0  0  0  0  0  0  0  0999 V2000
   65.3526   33.3835   48.2575 H   0  0  0  0  0  0  0  0  0  0  0  0
   64.5400   33.0940   48.9400 C   0  0  0  0  0  0  0  0  0  0  0  0
   63.3110   33.6590   48.8210 N   0  0  0  0  0  0  0  0  0  0  0  0
   62.2850   33.3140   49.6450 C   0  0  0  0  0  0  0  0  0  0  0  0
   61.0380   33.9440   49.5360 O   0  0  0  0  0  0  0  0  0  0  0  0
   60.2090   33.9060   48.4060 C   0  0  0  0  0  0  0  0  0  0  0  0
   59.0490   33.1260   48.4540 C   0  0  0  0  0  0  0  0  0  0  0  0
   58.8026   32.5694   49.3702 H   0  0  0  0  0  0  0  0  0  0  0  0
   58.2010   33.0490   47.3460 C   0  0  0  0  0  0  0  0  0  0  0  0
   57.2966   32.4246   47.3919 H   0  0  0  0  0  0  0  0  0  0  0  0
   58.4960   33.7620   46.1780 C   0  0  0  0  0  0  0  0  0  0  0  0
   57.6400   33.6150   45.0330 N   0  0  0  0  0  0  0  0  0  0  0  0
   57.3950   32.5300   44.3550 C   0  0  0  0  0  0  0  0  0  0  0  0
   56.7810   31.4940   44.9910 N   0  0  0  0  0  0  0  0  0  0  0  0
   56.4780   30.3280   44.3610 C   0  0  0  0  0  0  0  0  0  0  0  0
   55.9897   29.5137   44.9164 H   0  0  0  0  0  0  0  0  0  0  0  0
   56.7860   30.1640   43.0110 C   0  0  0  0  0  0  0  0  0  0  0  0
   56.5501   29.2206   42.4969 H   0  0  0  0  0  0  0  0  0  0  0  0
   57.3970   31.2110   42.3200 C   0  0  0  0  0  0  0  0  0  0  0  0
   57.6393   31.0979   41.2530 H   0  0  0  0  0  0  0  0  0  0  0  0
   57.7010   32.4020   42.9820 C   0  0  0  0  0  0  0  0  0  0  0  0
   58.1746   33.2333   42.4392 H   0  0  0  0  0  0  0  0  0  0  0  0
   59.6890   34.5020   46.1070 C   0  0  0  0  0  0  0  0  0  0  0  0
   59.9571   35.0210   45.1749 H   0  0  0  0  0  0  0  0  0  0  0  0
   60.5360   34.5810   47.2160 C   0  0  0  0  0  0  0  0  0  0  0  0
   61.4613   35.1730   47.1580 H   0  0  0  0  0  0  0  0  0  0  0  0
   62.5080   32.3560   50.6510 C   0  0  0  0  0  0  0  0  0  0  0  0
   61.4460   31.9490   51.5360 N   0  0  0  0  0  0  0  0  0  0  0  0
   61.0290   32.8360   52.6350 C   0  0  0  0  0  0  0  0  0  0  0  0
   61.0378   33.8764   52.2780 H   0  0  0  0  0  0  0  0  0  0  0  0
   61.7311   32.7040   53.4714 H   0  0  0  0  0  0  0  0  0  0  0  0
   59.6180   32.4900   53.1300 C   0  0  0  0  0  0  0  0  0  0  0  0
   59.2274   33.3247   53.7305 H   0  0  0  0  0  0  0  0  0  0  0  0
   59.6634   31.5787   53.7444 H   0  0  0  0  0  0  0  0  0  0  0  0
   58.6850   32.2450   51.9280 C   0  0  0  0  0  0  0  0  0  0  0  0
   58.7200   33.1673   51.3296 H   0  0  0  0  0  0  0  0  0  0  0  0
   57.2390   32.0560   52.3420 C   0  0  0  0  0  0  0  0  0  0  0  0
   56.4820   33.0640   52.3390 O   0  0  0  0  0  0  0  0  0  0  0  0
   56.6840   30.7700   52.6800 N   0  0  0  0  0  0  0  0  0  0  0  0
   55.2780   30.4650   52.4770 C   0  0  0  0  0  0  0  0  0  0  0  0
   54.6531   31.0708   53.1496 H   0  0  0  0  0  0  0  0  0  0  0  0
   54.9578   30.6904   51.4490 H   0  0  0  0  0  0  0  0  0  0  0  0
   55.1270   28.9860   52.8010 C   0  0  0  0  0  0  0  0  0  0  0  0
   54.2154   28.8150   53.3924 H   0  0  0  0  0  0  0  0  0  0  0  0
   55.0405   28.3792   51.8876 H   0  0  0  0  0  0  0  0  0  0  0  0
   56.3630   28.6070   53.6100 C   0  0  0  0  0  0  0  0  0  0  0  0
   56.1220   28.5770   54.6829 H   0  0  0  0  0  0  0  0  0  0  0  0
   56.7359   27.6110   53.3290 H   0  0  0  0  0  0  0  0  0  0  0  0
   57.4010   29.6870   53.3320 C   0  0  0  0  0  0  0  0  0  0  0  0
   57.8501   30.0374   54.2730 H   0  0  0  0  0  0  0  0  0  0  0  0
   58.2196   29.3080   52.7025 H   0  0  0  0  0  0  0  0  0  0  0  0
   59.1850   31.1080   50.9960 C   0  0  0  0  0  0  0  0  0  0  0  0
   59.0675   31.4329   49.9517 H   0  0  0  0  0  0  0  0  0  0  0  0
   58.5849   30.2127   51.2159 H   0  0  0  0  0  0  0  0  0  0  0  0
   60.6600   30.7450   51.2340 C   0  0  0  0  0  0  0  0  0  0  0  0
   61.0649   30.2661   50.3303 H   0  0  0  0  0  0  0  0  0  0  0  0
   60.7224   30.0565   52.0896 H   0  0  0  0  0  0  0  0  0  0  0  0
   63.7460   31.7960   50.7690 N   0  0  0  0  0  0  0  0  0  0  0  0
   63.9240   31.0690   51.4980 H   0  0  0  0  0  0  0  0  0  0  0  0
   64.7620   32.1440   49.9350 C   0  0  0  0  0  0  0  0  0  0  0  0
   65.7526   31.6787   50.0450 H   0  0  0  0  0  0  0  0  0  0  0  0
  1  2  1  0
  2  3  2  0
  3  4  1  0
  4  5  1  0
  5  6  1  0
  6  7  2  0
  7  8  1  0
  7  9  1  0
  9 10  1  0
  9 11  2  0
 11 12  1  0
 12 13  2  0
 13 14  1  0
 14 15  1  0
 15 16  1  0
 15 17  2  0
 17 18  1  0
 17 19  1  0
 19 20  1  0
 19 21  2  0
 21 22  1  0
 11 23  1  0
 23 24  1  0
 23 25  2  0
 25 26  1  0
  4 27  2  0
 27 28  1  0
 28 29  1  0
 29 30  1  0
 29 31  1  0
 29 32  1  0
 32 33  1  0
 32 34  1  0
 32 35  1  0
 35 36  1  0
 35 37  1  0
 37 38  2  0
 37 39  1  0
 39 40  1  0
 40 41  1  0
 40 42  1  0
 40 43  1  0
 43 44  1  0
 43 45  1  0
 43 46  1  0
 46 47  1  0
 46 48  1  0
 46 49  1  0
 49 50  1  0
 49 51  1  0
 35 52  1  0
 52 53  1  0
 52 54  1  0
 52 55  1  0
 55 56  1  0
 55 57  1  0
 27 58  1  0
 58 59  1  0
 58 60  2  0
 60 61  1  0
 60  2  1  0
 25  6  1  0
 55 28  1  0
 21 13  1  0
 49 39  1  0
M  CHG  2  14  -1  58   1
M  END
>  <UniqueID>  (73) 
69

>  <SMILES>  (73) 
O=C(C1CCN(c2[nH+]ccnc2Oc2ccc(/N=c3\cccc[n-]3)cc2)CC1)N1CCCC1

>  <Energy>  (73) 
90.06768346640689

>  <Genealogy>  (73) 
O=C(C1CCN(c2[nH+]ccnc2Oc2ccc(N=c3cccc[n-]3)cc2)CC1)N1CCCC1 (protonated)
O=C(C1CCN(c2[nH+]ccnc2Oc2ccc(/N=c3\cccc[n-]3)cc2)CC1)N1CCCC1 (cis-trans isomerization)
O=C(C1CCN(c2[nH+]ccnc2Oc2ccc(/N=c3\cccc[n-]3)cc2)CC1)N1CCCC1 (3D coordinates assigned)
O=C(C1CCN(c2[nH+]ccnc2Oc2ccc(/N=c3\cccc[n-]3)cc2)CC1)N1CCCC1 (nonaromatic ring conformer: 90.06768346640689 kcal/mol)

>  <smiles>  (73) 
O=C(C1CCN(c2nccnc2Oc2ccc(N=c3cccc[nH]3)cc2)CC1)N1CCCC1

>  <score_type>  (73) 
oracle

>  <origin>  (73) 
adg

>  <m_score__min__energy>  (73) 
-8.8100000000000005

>  <m_primary>  (73) 
energy

$$$$
73:0
     RDKit          3D

 62 67  0  0  0  0  0  0  0  0999 V2000
   60.4620   26.5730   50.1070 O   0  0  0  0  0  0  0  0  0  0  0  0
   60.4090   27.4430   49.1950 C   0  0  0  0  0  0  0  0  0  0  0  0
   60.4160   26.9970   47.7570 C   0  0  0  0  0  0  0  0  0  0  0  0
   59.1440   27.4010   47.0170 C   0  0  0  0  0  0  0  0  0  0  0  0
   59.0420   28.7010   46.4380 C   0  0  0  0  0  0  0  0  0  0  0  0
   60.1450   29.5920   46.4200 C   0  0  0  0  0  0  0  0  0  0  0  0
   60.0360   30.8630   45.8660 C   0  0  0  0  0  0  0  0  0  0  0  0
   58.8370   31.2820   45.3070 C   0  0  0  0  0  0  0  0  0  0  0  0
   57.7350   30.4300   45.2840 C   0  0  0  0  0  0  0  0  0  0  0  0
   56.5680   30.9020   44.6920 O   0  0  0  0  0  0  0  0  0  0  0  0
   57.8220   29.1230   45.8370 C   0  0  0  0  0  0  0  0  0  0  0  0
   56.7290   28.2320   45.7820 C   0  0  0  0  0  0  0  0  0  0  0  0
   55.5220   28.6600   45.2320 O   0  0  0  0  0  0  0  0  0  0  0  0
   56.8460   26.9080   46.2600 C   0  0  0  0  0  0  0  0  0  0  0  0
   55.7750   25.9810   46.1260 C   0  0  0  0  0  0  0  0  0  0  0  0
   54.5580   26.3420   45.5560 O   0  0  0  0  0  0  0  0  0  0  0  0
   55.9240   24.6630   46.5540 C   0  0  0  0  0  0  0  0  0  0  0  0
   57.1210   24.2370   47.1120 C   0  0  0  0  0  0  0  0  0  0  0  0
   58.1780   25.1270   47.2700 C   0  0  0  0  0  0  0  0  0  0  0  0
   58.0640   26.4820   46.8640 C   0  0  0  0  0  0  0  0  0  0  0  0
   60.4740   28.8350   49.5440 N   0  0  0  0  0  0  0  0  0  0  0  0
   61.5910   29.2870   50.3880 C   0  0  0  0  0  0  0  0  0  0  0  0
   61.8750   30.7750   50.1500 C   0  0  0  0  0  0  0  0  0  0  0  0
   60.6170   31.5250   50.2000 N   0  0  0  0  0  0  0  0  0  0  0  0
   60.2920   32.3530   51.3330 C   0  0  0  0  0  0  0  0  0  0  0  0
   59.2600   32.3930   52.2610 C   0  0  0  0  0  0  0  0  0  0  0  0
   58.0680   31.6370   52.4940 N   0  0  0  0  0  0  0  0  0  0  0  0
   58.1250   30.4310   53.3200 C   0  0  0  0  0  0  0  0  0  0  0  0
   56.9700   29.4940   52.9390 C   0  0  0  0  0  0  0  0  0  0  0  0
   55.7310   30.1810   52.9550 O   0  0  0  0  0  0  0  0  0  0  0  0
   55.7280   31.2040   51.9720 C   0  0  0  0  0  0  0  0  0  0  0  0
   56.7690   32.2780   52.3050 C   0  0  0  0  0  0  0  0  0  0  0  0
   59.8300   33.5040   52.8510 C   0  0  0  0  0  0  0  0  0  0  0  0
   59.5290   34.2460   53.8240 O   0  0  0  0  0  0  0  0  0  0  0  0
   60.8680   33.4560   51.9450 C   0  0  0  0  0  0  0  0  0  0  0  0
   61.9070   34.1430   51.7570 O   0  0  0  0  0  0  0  0  0  0  0  0
   59.5770   31.0970   49.2640 C   0  0  0  0  0  0  0  0  0  0  0  0
   59.2390   29.6360   49.5580 C   0  0  0  0  0  0  0  0  0  0  0  0
   61.2795   27.4523   47.2500 H   0  0  0  0  0  0  0  0  0  0  0  0
   60.4759   25.8987   47.7465 H   0  0  0  0  0  0  0  0  0  0  0  0
   61.1046   29.2720   46.8522 H   0  0  0  0  0  0  0  0  0  0  0  0
   60.9038   31.5389   45.8710 H   0  0  0  0  0  0  0  0  0  0  0  0
   58.7562   32.2924   44.8797 H   0  0  0  0  0  0  0  0  0  0  0  0
   55.0877   23.9562   46.4488 H   0  0  0  0  0  0  0  0  0  0  0  0
   57.2344   23.1904   47.4309 H   0  0  0  0  0  0  0  0  0  0  0  0
   59.1189   24.7744   47.7176 H   0  0  0  0  0  0  0  0  0  0  0  0
   61.3313   29.1325   51.4457 H   0  0  0  0  0  0  0  0  0  0  0  0
   62.4895   28.7073   50.1300 H   0  0  0  0  0  0  0  0  0  0  0  0
   62.5557   31.1479   50.9295 H   0  0  0  0  0  0  0  0  0  0  0  0
   62.3420   30.9065   49.1628 H   0  0  0  0  0  0  0  0  0  0  0  0
   59.0836   29.9177   53.1536 H   0  0  0  0  0  0  0  0  0  0  0  0
   58.0368   30.7088   54.3807 H   0  0  0  0  0  0  0  0  0  0  0  0
   57.1477   29.0967   51.9288 H   0  0  0  0  0  0  0  0  0  0  0  0
   56.9261   28.6761   53.6733 H   0  0  0  0  0  0  0  0  0  0  0  0
   55.9641   30.7638   50.9920 H   0  0  0  0  0  0  0  0  0  0  0  0
   54.7323   31.6711   51.9506 H   0  0  0  0  0  0  0  0  0  0  0  0
   56.8310   33.0008   51.4782 H   0  0  0  0  0  0  0  0  0  0  0  0
   56.4774   32.8065   53.2246 H   0  0  0  0  0  0  0  0  0  0  0  0
   58.6798   31.7199   49.3945 H   0  0  0  0  0  0  0  0  0  0  0  0
   59.9321   31.2030   48.2283 H   0  0  0  0  0  0  0  0  0  0  0  0
   58.7645   29.5612   50.5476 H   0  0  0  0  0  0  0  0  0  0  0  0
   58.5475   29.2577   48.7907 H   0  0  0  0  0  0  0  0  0  0  0  0
  1  2  2  0
  2  3  1  0
  3  4  1  0
  4  5  1  0
  5  6  2  0
  6  7  1  0
  7  8  2  0
  8  9  1  0
  9 10  1  0
  9 11  2  0
 11 12  1  0
 12 13  1  0
 12 14  2  0
 14 15  1  0
 15 16  1  0
 15 17  2  0
 17 18  1  0
 18 19  2  0
 19 20  1  0
  2 21  1  0
 21 22  1  0
 22 23  1  0
 23 24  1  0
 24 25  1  0
 25 26  2  0
 26 27  1  0
 27 28  1  0
 28 29  1  0
 29 30  1  0
 30 31  1  0
 31 32  1  0
 26 33  1  0
 33 34  2  0
 33 35  1  0
 35 36  2  0
 24 37  1  0
 37 38  1  0
 20  4  2  0
 38 21  1  0
 11  5  1  0
 20 14  1  0
 35 25  1  0
 32 27  1  0
  3 39  1  0
  3 40  1  0
  6 41  1  0
  7 42  1  0
  8 43  1  0
 17 44  1  0
 18 45  1  0
 19 46  1  0
 22 47  1  0
 22 48  1  0
 23 49  1  0
 23 50  1  0
 28 51  1  0
 28 52  1  0
 29 53  1  0
 29 54  1  0
 31 55  1  0
 31 56  1  0
 32 57  1  0
 32 58  1  0
 37 59  1  0
 37 60  1  0
 38 61  1  0
 38 62  1  0
M  CHG  3  10  -1  13  -1  16  -1
M  END
>  <UniqueID>  (74) 
70

>  <SMILES>  (74) 
O=C(Cc1c2cccc([O-])c2c([O-])c2c([O-])cccc12)N1CCN(c2c(N3CCOCC3)c(=O)c2=O)CC1

>  <Energy>  (74) 
88.292500163915

>  <Genealogy>  (74) 
O=C(Cc1c2cccc([O-])c2c([O-])c2c([O-])cccc12)N1CCN(c2c(N3CCOCC3)c(=O)c2=O)CC1 (protonated)
O=C(Cc1c2cccc([O-])c2c([O-])c2c([O-])cccc12)N1CCN(c2c(N3CCOCC3)c(=O)c2=O)CC1 (3D coordinates assigned)
O=C(Cc1c2cccc([O-])c2c([O-])c2c([O-])cccc12)N1CCN(c2c(N3CCOCC3)c(=O)c2=O)CC1 (nonaromatic ring conformer: 88.292500163915 kcal/mol)

>  <smiles>  (74) 
O=C(Cc1c2cccc(O)c2c(O)c2c(O)cccc12)N1CCN(c2c(N3CCOCC3)c(=O)c2=O)CC1

>  <score_type>  (74) 
oracle

>  <origin>  (74) 
adg

>  <m_score__min__energy>  (74) 
-17.190000000000001

>  <m_primary>  (74) 
energy

$$$$
74:0
     RDKit          3D

 69 73  0  0  0  0  0  0  0  0999 V2000
   56.6410   32.6210   45.4030 O   0  0  0  0  0  0  0  0  0  0  0  0
   57.4200   33.1360   44.5550 C   0  0  0  0  0  0  0  0  0  0  0  0
   58.1760   34.3930   44.8890 C   0  0  0  0  0  0  0  0  0  0  0  0
   59.6680   34.1330   45.1630 C   0  0  0  0  0  0  0  0  0  0  0  0
   59.9890   34.1880   46.6290 C   0  0  0  0  0  0  0  0  0  0  0  0
   59.1420   34.5990   47.6540 C   0  0  0  0  0  0  0  0  0  0  0  0
   59.7820   34.5440   48.8450 N   0  0  0  0  0  0  0  0  0  0  0  0
   61.0240   34.1030   48.5810 C   0  0  0  0  0  0  0  0  0  0  0  0
   62.0590   33.8910   49.4940 C   0  0  0  0  0  0  0  0  0  0  0  0
   63.2920   33.4310   48.9960 C   0  0  0  0  0  0  0  0  0  0  0  0
   63.4600   33.1960   47.6130 C   0  0  0  0  0  0  0  0  0  0  0  0
   62.3980   33.4190   46.7160 C   0  0  0  0  0  0  0  0  0  0  0  0
   61.1880   33.8750   47.2400 C   0  0  0  0  0  0  0  0  0  0  0  0
   57.5420   32.5530   43.2500 N   0  0  0  0  0  0  0  0  0  0  0  0
   57.0500   31.2110   42.9450 C   0  0  0  0  0  0  0  0  0  0  0  0
   57.5270   30.2480   43.9960 C   0  0  0  0  0  0  0  0  0  0  0  0
   58.8760   30.2210   44.3830 C   0  0  0  0  0  0  0  0  0  0  0  0
   59.3240   29.2770   45.3110 C   0  0  0  0  0  0  0  0  0  0  0  0
   58.4330   28.3390   45.8510 C   0  0  0  0  0  0  0  0  0  0  0  0
   59.0080   27.1110   46.9800 S   0  0  0  0  0  0  0  0  0  0  0  0
   60.2830   26.5110   46.4550 O   0  0  0  0  0  0  0  0  0  0  0  0
   57.9850   26.0140   47.0820 O   0  0  0  0  0  0  0  0  0  0  0  0
   59.2980   27.7870   48.5670 N   0  0  0  0  0  0  0  0  0  0  0  0
   60.6810   27.5010   49.0060 C   0  0  0  0  0  0  0  0  0  0  0  0
   61.0930   28.4300   50.1520 C   0  0  0  0  0  0  0  0  0  0  0  0
   61.1020   29.8450   49.7100 N   0  0  0  0  0  0  0  0  0  0  0  0
   61.1080   30.8230   50.8220 C   0  0  0  0  0  0  0  0  0  0  0  0
   59.7250   31.2590   51.2660 C   0  0  0  0  0  0  0  0  0  0  0  0
   58.7630   30.2980   51.6330 C   0  0  0  0  0  0  0  0  0  0  0  0
   57.4790   30.6940   52.0190 C   0  0  0  0  0  0  0  0  0  0  0  0
   57.1470   32.0520   52.0570 C   0  0  0  0  0  0  0  0  0  0  0  0
   58.1050   33.0150   51.7230 C   0  0  0  0  0  0  0  0  0  0  0  0
   59.3900   32.6220   51.3360 C   0  0  0  0  0  0  0  0  0  0  0  0
   60.1520   30.1560   48.6150 C   0  0  0  0  0  0  0  0  0  0  0  0
   58.9270   29.2230   48.6300 C   0  0  0  0  0  0  0  0  0  0  0  0
   57.0850   28.3660   45.4670 C   0  0  0  0  0  0  0  0  0  0  0  0
   56.6360   29.3120   44.5420 C   0  0  0  0  0  0  0  0  0  0  0  0
   58.0898   35.0909   44.0431 H   0  0  0  0  0  0  0  0  0  0  0  0
   57.7372   34.8109   45.8071 H   0  0  0  0  0  0  0  0  0  0  0  0
   59.9311   33.1363   44.7790 H   0  0  0  0  0  0  0  0  0  0  0  0
   60.2481   34.9198   44.6586 H   0  0  0  0  0  0  0  0  0  0  0  0
   58.0999   34.9227   47.5156 H   0  0  0  0  0  0  0  0  0  0  0  0
   59.3880   34.7980   49.7780 H   0  0  0  0  0  0  0  0  0  0  0  0
   61.9150   34.0777   50.5684 H   0  0  0  0  0  0  0  0  0  0  0  0
   64.1293   33.2535   49.6869 H   0  0  0  0  0  0  0  0  0  0  0  0
   64.4279   32.8361   47.2342 H   0  0  0  0  0  0  0  0  0  0  0  0
   62.5183   33.2396   45.6374 H   0  0  0  0  0  0  0  0  0  0  0  0
   58.0860   33.0570   42.5120 H   0  0  0  0  0  0  0  0  0  0  0  0
   55.9502   31.2194   42.9283 H   0  0  0  0  0  0  0  0  0  0  0  0
   57.4309   30.8970   41.9620 H   0  0  0  0  0  0  0  0  0  0  0  0
   59.5835   30.9459   43.9540 H   0  0  0  0  0  0  0  0  0  0  0  0
   60.3800   29.2699   45.6190 H   0  0  0  0  0  0  0  0  0  0  0  0
   60.7417   26.4575   49.3486 H   0  0  0  0  0  0  0  0  0  0  0  0
   61.3608   27.6665   48.1572 H   0  0  0  0  0  0  0  0  0  0  0  0
   60.3796   28.3165   50.9816 H   0  0  0  0  0  0  0  0  0  0  0  0
   62.1078   28.1574   50.4773 H   0  0  0  0  0  0  0  0  0  0  0  0
   61.6196   30.3661   51.6820 H   0  0  0  0  0  0  0  0  0  0  0  0
   61.6225   31.7224   50.4527 H   0  0  0  0  0  0  0  0  0  0  0  0
   59.0235   29.2294   51.6158 H   0  0  0  0  0  0  0  0  0  0  0  0
   56.7294   29.9370   52.2930 H   0  0  0  0  0  0  0  0  0  0  0  0
   56.1331   32.3627   52.3494 H   0  0  0  0  0  0  0  0  0  0  0  0
   57.8470   34.0835   51.7649 H   0  0  0  0  0  0  0  0  0  0  0  0
   60.1427   33.3839   51.0850 H   0  0  0  0  0  0  0  0  0  0  0  0
   59.8083   31.1948   48.7277 H   0  0  0  0  0  0  0  0  0  0  0  0
   60.6769   30.0113   47.6592 H   0  0  0  0  0  0  0  0  0  0  0  0
   58.3617   29.3998   49.5569 H   0  0  0  0  0  0  0  0  0  0  0  0
   58.3264   29.4498   47.7368 H   0  0  0  0  0  0  0  0  0  0  0  0
   56.3784   27.6399   45.8954 H   0  0  0  0  0  0  0  0  0  0  0  0
   55.5783   29.3229   44.2403 H   0  0  0  0  0  0  0  0  0  0  0  0
  1  2  2  0
  2  3  1  0
  3  4  1  0
  4  5  1  0
  5  6  2  0
  6  7  1  0
  7  8  1  0
  8  9  2  0
  9 10  1  0
 10 11  2  0
 11 12  1  0
 12 13  2  0
  2 14  1  0
 14 15  1  0
 15 16  1  0
 16 17  2  0
 17 18  1  0
 18 19  2  0
 19 20  1  0
 20 21  2  0
 20 22  2  0
 20 23  1  0
 23 24  1  0
 24 25  1  0
 25 26  1  0
 26 27  1  0
 27 28  1  0
 28 29  2  0
 29 30  1  0
 30 31  2  0
 31 32  1  0
 32 33  2  0
 26 34  1  0
 34 35  1  0
 19 36  1  0
 36 37  2  0
 13  5  1  0
 37 16  1  0
 13  8  1  0
 35 23  1  0
 33 28  1  0
  3 38  1  0
  3 39  1  0
  4 40  1  0
  4 41  1  0
  6 42  1  0
  7 43  1  0
  9 44  1  0
 10 45  1  0
 11 46  1  0
 12 47  1  0
 14 48  1  0
 15 49  1  0
 15 50  1  0
 17 51  1  0
 18 52  1  0
 24 53  1  0
 24 54  1  0
 25 55  1  0
 25 56  1  0
 27 57  1  0
 27 58  1  0
 29 59  1  0
 30 60  1  0
 31 61  1  0
 32 62  1  0
 33 63  1  0
 34 64  1  0
 34 65  1  0
 35 66  1  0
 35 67  1  0
 36 68  1  0
 37 69  1  0
M  END
>  <UniqueID>  (75) 
71

>  <SMILES>  (75) 
O=C(CCc1c[nH]c2ccccc12)NCc1ccc(S(=O)(=O)N2CCN(Cc3ccccc3)CC2)cc1

>  <Energy>  (75) 
113.85733079176373

>  <Genealogy>  (75) 
O=C(CCc1c[nH]c2ccccc12)NCc1ccc(S(=O)(=O)N2CCN(Cc3ccccc3)CC2)cc1 (3D coordinates assigned)
O=C(CCc1c[nH]c2ccccc12)NCc1ccc(S(=O)(=O)N2CCN(Cc3ccccc3)CC2)cc1 (nonaromatic ring conformer: 113.85733079176373 kcal/mol)

>  <smiles>  (75) 
O=C(CCc1c[nH]c2ccccc12)NCc1ccc(S(=O)(=O)N2CCN(Cc3ccccc3)CC2)cc1

>  <score_type>  (75) 
oracle

>  <origin>  (75) 
adg

>  <m_score__min__energy>  (75) 
-10.619999999999999

>  <m_primary>  (75) 
energy

$$$$
75:0
     RDKit          3D

 60 62  0  0  0  0  0  0  0  0999 V2000
   57.7384   31.0092   42.0765 H   0  0  0  0  0  0  0  0  0  0  0  0
   57.6740   31.6490   42.9690 C   0  0  0  0  0  0  0  0  0  0  0  0
   58.2290   32.8720   43.0980 N   0  0  0  0  0  0  0  0  0  0  0  0
   57.9260   33.3270   44.3060 N   0  0  0  0  0  0  0  0  0  0  0  0
   58.4220   34.5920   44.8410 C   0  0  0  0  0  0  0  0  0  0  0  0
   57.6785   35.0016   45.5406 H   0  0  0  0  0  0  0  0  0  0  0  0
   58.5879   35.2835   44.0017 H   0  0  0  0  0  0  0  0  0  0  0  0
   59.7540   34.3990   45.5820 C   0  0  0  0  0  0  0  0  0  0  0  0
   60.5475   34.9183   45.0245 H   0  0  0  0  0  0  0  0  0  0  0  0
   59.9499   33.3185   45.6466 H   0  0  0  0  0  0  0  0  0  0  0  0
   59.7100   34.9600   47.0250 C   0  0  0  0  0  0  0  0  0  0  0  0
   58.7750   34.6333   47.5036 H   0  0  0  0  0  0  0  0  0  0  0  0
   59.7662   36.0568   46.9625 H   0  0  0  0  0  0  0  0  0  0  0  0
   60.8490   34.4940   47.8400 N   0  0  0  0  0  0  0  0  0  0  0  0
   60.5080   33.8900   48.6270 H   0  0  0  0  0  0  0  0  0  0  0  0
   61.8210   33.7350   47.0470 C   0  0  0  0  0  0  0  0  0  0  0  0
   62.5062   33.2000   47.7210 H   0  0  0  0  0  0  0  0  0  0  0  0
   61.2903   33.0099   46.4125 H   0  0  0  0  0  0  0  0  0  0  0  0
   62.3958   34.4257   46.4125 H   0  0  0  0  0  0  0  0  0  0  0  0
   57.1920   32.4140   44.9730 C   0  0  0  0  0  0  0  0  0  0  0  0
   56.8067   32.5164   45.9982 H   0  0  0  0  0  0  0  0  0  0  0  0
   57.0100   31.3290   44.1420 C   0  0  0  0  0  0  0  0  0  0  0  0
   56.2990   30.0770   44.4440 C   0  0  0  0  0  0  0  0  0  0  0  0
   55.3350   29.7170   43.7140 O   0  0  0  0  0  0  0  0  0  0  0  0
   56.6250   29.3420   45.6290 N   0  0  0  0  0  0  0  0  0  0  0  0
   57.3710   28.2810   45.7590 C   0  0  0  0  0  0  0  0  0  0  0  0
   56.8880   27.1180   45.2370 N   0  0  0  0  0  0  0  0  0  0  0  0
   57.5910   25.9580   45.2490 C   0  0  0  0  0  0  0  0  0  0  0  0
   57.1551   25.0454   44.8165 H   0  0  0  0  0  0  0  0  0  0  0  0
   58.8640   25.9240   45.8090 C   0  0  0  0  0  0  0  0  0  0  0  0
   59.4579   24.9985   45.7830 H   0  0  0  0  0  0  0  0  0  0  0  0
   59.3790   27.0740   46.4030 C   0  0  0  0  0  0  0  0  0  0  0  0
   60.3773   27.0472   46.8641 H   0  0  0  0  0  0  0  0  0  0  0  0
   58.6380   28.2680   46.4200 C   0  0  0  0  0  0  0  0  0  0  0  0
   59.0480   29.3050   47.3380 N   0  0  0  0  0  0  0  0  0  0  0  0
   59.1000   30.6840   46.7930 C   0  0  0  0  0  0  0  0  0  0  0  0
   60.0292   30.7806   46.2123 H   0  0  0  0  0  0  0  0  0  0  0  0
   58.1811   30.8010   46.1997 H   0  0  0  0  0  0  0  0  0  0  0  0
   59.0710   31.8350   47.8360 C   0  0  0  0  0  0  0  0  0  0  0  0
   60.0651   32.3052   47.8598 H   0  0  0  0  0  0  0  0  0  0  0  0
   58.2803   32.5311   47.5195 H   0  0  0  0  0  0  0  0  0  0  0  0
   58.7190   31.3810   49.2560 C   0  0  2  0  0  0  0  0  0  0  0  0
   57.6704   31.0509   49.2941 H   0  0  0  0  0  0  0  0  0  0  0  0
   58.8000   32.5390   50.2270 C   0  0  0  0  0  0  0  0  0  0  0  0
   59.4690   33.5720   49.9520 O   0  0  0  0  0  0  0  0  0  0  0  0
   58.0760   32.4740   51.4640 N   0  0  0  0  0  0  0  0  0  0  0  0
   57.4970   31.6270   51.6790 H   0  0  0  0  0  0  0  0  0  0  0  0
   58.0800   33.5740   52.4230 C   0  0  0  0  0  0  0  0  0  0  0  0
   58.0785   33.1689   53.4457 H   0  0  0  0  0  0  0  0  0  0  0  0
   58.9804   34.1879   52.2731 H   0  0  0  0  0  0  0  0  0  0  0  0
   57.1841   34.1944   52.2731 H   0  0  0  0  0  0  0  0  0  0  0  0
   59.5520   30.1400   49.6510 C   0  0  2  0  0  0  0  0  0  0  0  0
   59.3815   29.9577   50.7223 H   0  0  0  0  0  0  0  0  0  0  0  0
   61.0820   30.3150   49.5320 C   0  0  0  0  0  0  0  0  0  0  0  0
   61.5246   30.3656   50.5378 H   0  0  0  0  0  0  0  0  0  0  0  0
   61.5076   29.4597   48.9867 H   0  0  0  0  0  0  0  0  0  0  0  0
   61.3035   31.2443   48.9867 H   0  0  0  0  0  0  0  0  0  0  0  0
   59.0790   28.9700   48.7790 C   0  0  0  0  0  0  0  0  0  0  0  0
   59.7631   28.1216   48.9280 H   0  0  0  0  0  0  0  0  0  0  0  0
   58.0512   28.7238   49.0841 H   0  0  0  0  0  0  0  0  0  0  0  0
  1  2  1  0
  2  3  2  0
  3  4  1  0
  4  5  1  0
  5  6  1  0
  5  7  1  0
  5  8  1  0
  8  9  1  0
  8 10  1  0
  8 11  1  0
 11 12  1  0
 11 13  1  0
 11 14  1  0
 14 15  1  0
 14 16  1  0
 16 17  1  0
 16 18  1  0
 16 19  1  0
  4 20  1  0
 20 21  1  0
 20 22  2  0
 22 23  1  0
 23 24  2  0
 23 25  1  0
 25 26  2  0
 26 27  1  0
 27 28  1  0
 28 29  1  0
 28 30  2  0
 30 31  1  0
 30 32  1  0
 32 33  1  0
 32 34  2  0
 34 35  1  0
 35 36  1  0
 36 37  1  0
 36 38  1  0
 36 39  1  0
 39 40  1  0
 39 41  1  0
 39 42  1  0
 42 43  1  6
 42 44  1  0
 44 45  2  0
 44 46  1  0
 46 47  1  0
 46 48  1  0
 48 49  1  0
 48 50  1  0
 48 51  1  0
 42 52  1  0
 52 53  1  1
 52 54  1  0
 54 55  1  0
 54 56  1  0
 54 57  1  0
 52 58  1  0
 58 59  1  0
 58 60  1  0
 22  2  1  0
 34 26  1  0
 58 35  1  0
M  CHG  1  27  -1
M  END
>  <UniqueID>  (76) 
72

>  <SMILES>  (76) 
CNCCCn1cc(C(=O)/N=c2/[n-]cccc2N2CC[C@H](C(=O)NC)[C@H](C)C2)cn1

>  <Energy>  (76) 
106.33996248989095

>  <Genealogy>  (76) 
CNCCCn1cc(C(=O)N=c2[n-]cccc2N2CCC(C(=O)NC)C(C)C2)cn1 (protonated)
CNCCCn1cc(C(=O)N=c2[n-]cccc2N2CC[C@H](C(=O)NC)[C@H](C)C2)cn1 (chirality)
CNCCCn1cc(C(=O)/N=c2/[n-]cccc2N2CC[C@H](C(=O)NC)[C@H](C)C2)cn1 (cis-trans isomerization)
CNCCCn1cc(C(=O)/N=c2/[n-]cccc2N2CC[C@H](C(=O)NC)[C@H](C)C2)cn1 (3D coordinates assigned)
CNCCCn1cc(C(=O)/N=c2/[n-]cccc2N2CC[C@H](C(=O)NC)[C@H](C)C2)cn1 (nonaromatic ring conformer: 106.33996248989095 kcal/mol)

>  <smiles>  (76) 
CNCCCn1cc(C(=O)N=c2[nH]cccc2N2CCC(C(=O)NC)C(C)C2)cn1

>  <score_type>  (76) 
oracle

>  <origin>  (76) 
adg

>  <m_score__min__energy>  (76) 
-9.4499999999999993

>  <m_primary>  (76) 
energy

$$$$
76:0
     RDKit          3D

 44 46  0  0  0  0  0  0  0  0999 V2000
   54.7439   30.4451   55.1174 H   0  0  0  0  0  0  0  0  0  0  0  0
   54.6260   30.0930   54.0820 C   0  0  0  0  0  0  0  0  0  0  0  0
   53.4040   29.7120   53.6810 C   0  0  0  0  0  0  0  0  0  0  0  0
   52.9371   28.8448   54.1710 H   0  0  0  0  0  0  0  0  0  0  0  0
   52.6540   30.4070   52.6070 C   0  0  0  0  0  0  0  0  0  0  0  0
   52.7060   29.8900   51.3020 C   0  0  0  0  0  0  0  0  0  0  0  0
   53.2858   28.9776   51.0986 H   0  0  0  0  0  0  0  0  0  0  0  0
   52.0260   30.5270   50.2600 C   0  0  0  0  0  0  0  0  0  0  0  0
   52.0643   30.1076   49.2438 H   0  0  0  0  0  0  0  0  0  0  0  0
   51.2980   31.6940   50.5040 C   0  0  0  0  0  0  0  0  0  0  0  0
   50.6230   32.3200   49.4630 O   0  0  0  0  0  0  0  0  0  0  0  0
   51.2540   32.2300   51.7960 C   0  0  0  0  0  0  0  0  0  0  0  0
   50.5430   33.3990   52.0430 O   0  0  0  0  0  0  0  0  0  0  0  0
   51.9320   31.5940   52.8430 C   0  0  0  0  0  0  0  0  0  0  0  0
   51.9009   32.0232   53.8553 H   0  0  0  0  0  0  0  0  0  0  0  0
   55.8280   30.0680   53.2130 C   0  0  0  0  0  0  0  0  0  0  0  0
   56.1700   31.1360   52.3590 C   0  0  0  0  0  0  0  0  0  0  0  0
   55.4891   31.9940   52.2575 H   0  0  0  0  0  0  0  0  0  0  0  0
   57.3690   31.1120   51.6400 C   0  0  0  0  0  0  0  0  0  0  0  0
   57.6137   31.9383   50.9564 H   0  0  0  0  0  0  0  0  0  0  0  0
   58.2610   30.0400   51.7860 C   0  0  0  0  0  0  0  0  0  0  0  0
   59.5720   30.0370   51.1060 C   0  0  0  0  0  0  0  0  0  0  0  0
   60.6080   30.2590   51.7870 O   0  0  0  0  0  0  0  0  0  0  0  0
   59.7100   29.8530   49.6890 N   0  0  0  0  0  0  0  0  0  0  0  0
   59.1620   28.7640   48.8820 C   0  0  0  0  0  0  0  0  0  0  0  0
   58.1249   28.5731   49.1951 H   0  0  0  0  0  0  0  0  0  0  0  0
   59.7861   27.8712   49.0351 H   0  0  0  0  0  0  0  0  0  0  0  0
   59.1760   29.1050   47.4240 C   0  0  0  0  0  0  0  0  0  0  0  0
   60.2700   29.3750   46.8600 O   0  0  0  0  0  0  0  0  0  0  0  0
   57.9650   28.9750   46.6650 N   0  0  0  0  0  0  0  0  0  0  0  0
   57.5580   29.6120   45.6000 C   0  0  0  0  0  0  0  0  0  0  0  0
   58.3650   30.5990   45.1170 N   0  0  0  0  0  0  0  0  0  0  0  0
   58.0710   31.3090   43.9970 C   0  0  0  0  0  0  0  0  0  0  0  0
   58.7556   32.0970   43.6500 H   0  0  0  0  0  0  0  0  0  0  0  0
   56.9050   31.0400   43.2890 C   0  0  0  0  0  0  0  0  0  0  0  0
   56.6569   31.6163   42.3855 H   0  0  0  0  0  0  0  0  0  0  0  0
   56.0540   30.0310   43.7380 C   0  0  0  0  0  0  0  0  0  0  0  0
   55.1273   29.8112   43.1875 H   0  0  0  0  0  0  0  0  0  0  0  0
   56.3730   29.2970   44.8850 C   0  0  0  0  0  0  0  0  0  0  0  0
   55.5340   28.2510   45.2440 O   0  0  0  0  0  0  0  0  0  0  0  0
   57.8960   28.9510   52.5890 C   0  0  0  0  0  0  0  0  0  0  0  0
   58.5585   28.0755   52.6564 H   0  0  0  0  0  0  0  0  0  0  0  0
   56.6970   28.9700   53.3040 C   0  0  0  0  0  0  0  0  0  0  0  0
   56.4311   28.1163   53.9447 H   0  0  0  0  0  0  0  0  0  0  0  0
  1  2  1  0
  2  3  2  0
  3  4  1  0
  3  5  1  0
  5  6  2  0
  6  7  1  0
  6  8  1  0
  8  9  1  0
  8 10  2  0
 10 11  1  0
 10 12  1  0
 12 13  1  0
 12 14  2  0
 14 15  1  0
  2 16  1  0
 16 17  2  0
 17 18  1  0
 17 19  1  0
 19 20  1  0
 19 21  2  0
 21 22  1  0
 22 23  2  0
 22 24  1  0
 24 25  1  0
 25 26  1  0
 25 27  1  0
 25 28  1  0
 28 29  2  0
 28 30  1  0
 30 31  2  3
 31 32  1  0
 32 33  1  0
 33 34  1  0
 33 35  2  0
 35 36  1  0
 35 37  1  0
 37 38  1  0
 37 39  2  0
 39 40  1  0
 21 41  1  0
 41 42  1  0
 41 43  2  0
 43 44  1  0
 14  5  1  0
 43 16  1  0
 39 31  1  0
M  CHG  5  11  -1  13  -1  24  -1  32  -1  40  -1
M  END
>  <UniqueID>  (77) 
73

>  <SMILES>  (77) 
O=C(C[N-]C(=O)c1ccc(/C=C/c2ccc([O-])c([O-])c2)cc1)N=c1[n-]cccc1[O-]

>  <Energy>  (77) 
62.84023395789306

>  <Genealogy>  (77) 
O=C(C[N-]C(=O)c1ccc(C=Cc2ccc([O-])c([O-])c2)cc1)N=c1[n-]cccc1[O-] (protonated)
O=C(C[N-]C(=O)c1ccc(/C=C/c2ccc([O-])c([O-])c2)cc1)N=c1[n-]cccc1[O-] (cis-trans isomerization)
O=C(C[N-]C(=O)c1ccc(/C=C/c2ccc([O-])c([O-])c2)cc1)N=c1[n-]cccc1[O-] (3D coordinates assigned)
O=C(C[N-]C(=O)c1ccc(/C=C/c2ccc([O-])c([O-])c2)cc1)N=c1[n-]cccc1[O-] (optimized conformer: 62.84023395789306 kcal/mol)

>  <smiles>  (77) 
O=C(CNC(=O)c1ccc(C=Cc2ccc(O)c(O)c2)cc1)N=c1[nH]cccc1O

>  <score_type>  (77) 
oracle

>  <origin>  (77) 
adg

>  <m_score__min__energy>  (77) 
-22.719999999999999

>  <m_primary>  (77) 
energy

$$$$
77:0
     RDKit          3D

 49 51  0  0  0  0  0  0  0  0999 V2000
   63.5720   33.4820   46.7840 C   0  0  0  0  0  0  0  0  0  0  0  0
   63.0790   33.0840   48.4490 S   0  0  0  0  0  0  0  0  0  0  0  0
   63.4130   34.2480   49.3400 O   0  0  0  0  0  0  0  0  0  0  0  0
   63.8230   31.8750   48.9410 O   0  0  0  0  0  0  0  0  0  0  0  0
   61.3670   32.8020   48.5160 N   0  0  0  0  0  0  0  0  0  0  0  0
   60.4390   33.1430   47.4690 C   0  0  0  0  0  0  0  0  0  0  0  0
   60.3310   34.4840   47.0670 C   0  0  0  0  0  0  0  0  0  0  0  0
   59.4550   34.8520   46.0450 C   0  0  0  0  0  0  0  0  0  0  0  0
   58.6690   33.8870   45.4150 C   0  0  0  0  0  0  0  0  0  0  0  0
   58.7430   32.5430   45.8130 C   0  0  0  0  0  0  0  0  0  0  0  0
   57.9000   31.5270   45.1430 C   0  0  0  0  0  0  0  0  0  0  0  0
   56.6450   31.6250   45.2330 O   0  0  0  0  0  0  0  0  0  0  0  0
   58.4780   30.4170   44.4240 N   0  0  0  0  0  0  0  0  0  0  0  0
   57.6860   29.6790   43.4410 C   0  0  0  0  0  0  0  0  0  0  0  0
   57.3280   28.3110   44.0250 C   0  0  0  0  0  0  0  0  0  0  0  0
   58.4890   27.6100   44.6300 N   0  0  0  0  0  0  0  0  0  0  0  0
   58.1530   27.0140   46.2420 S   0  0  0  0  0  0  0  0  0  0  0  0
   59.4520   26.7610   46.9560 O   0  0  0  0  0  0  0  0  0  0  0  0
   57.4120   28.0730   47.0120 O   0  0  0  0  0  0  0  0  0  0  0  0
   57.2140   25.5130   46.2260 C   0  0  0  0  0  0  0  0  0  0  0  0
   57.8820   24.2830   46.3430 C   0  0  0  0  0  0  0  0  0  0  0  0
   57.1650   23.0830   46.3250 C   0  0  0  0  0  0  0  0  0  0  0  0
   55.7750   23.1000   46.1950 C   0  0  0  0  0  0  0  0  0  0  0  0
   55.0990   24.3170   46.0890 C   0  0  0  0  0  0  0  0  0  0  0  0
   55.8090   25.5230   46.1080 C   0  0  0  0  0  0  0  0  0  0  0  0
   55.1090   26.7180   45.9880 O   0  0  0  0  0  0  0  0  0  0  0  0
   59.7940   28.3010   44.5340 C   0  0  0  0  0  0  0  0  0  0  0  0
   59.7240   29.7980   44.8960 C   0  0  0  0  0  0  0  0  0  0  0  0
   59.6460   32.1750   46.8240 C   0  0  0  0  0  0  0  0  0  0  0  0
   64.4277   34.1728   46.8102 H   0  0  0  0  0  0  0  0  0  0  0  0
   63.8605   32.5606   46.2569 H   0  0  0  0  0  0  0  0  0  0  0  0
   62.7322   33.9583   46.2569 H   0  0  0  0  0  0  0  0  0  0  0  0
   61.0100   32.3080   49.3640 H   0  0  0  0  0  0  0  0  0  0  0  0
   60.9430   35.2521   47.5626 H   0  0  0  0  0  0  0  0  0  0  0  0
   59.3841   35.9052   45.7355 H   0  0  0  0  0  0  0  0  0  0  0  0
   57.9881   34.1807   44.6026 H   0  0  0  0  0  0  0  0  0  0  0  0
   56.7654   30.2366   43.2138 H   0  0  0  0  0  0  0  0  0  0  0  0
   58.2647   29.5506   42.5144 H   0  0  0  0  0  0  0  0  0  0  0  0
   56.5617   28.4522   44.8015 H   0  0  0  0  0  0  0  0  0  0  0  0
   56.9659   27.6864   43.1951 H   0  0  0  0  0  0  0  0  0  0  0  0
   58.9767   24.2638   46.4495 H   0  0  0  0  0  0  0  0  0  0  0  0
   57.6967   22.1241   46.4134 H   0  0  0  0  0  0  0  0  0  0  0  0
   55.2126   22.1548   46.1761 H   0  0  0  0  0  0  0  0  0  0  0  0
   54.0035   24.3280   45.9901 H   0  0  0  0  0  0  0  0  0  0  0  0
   60.4998   27.8094   45.2197 H   0  0  0  0  0  0  0  0  0  0  0  0
   60.1186   28.2361   43.4850 H   0  0  0  0  0  0  0  0  0  0  0  0
   59.7813   29.9027   45.9895 H   0  0  0  0  0  0  0  0  0  0  0  0
   60.5659   30.3078   44.4047 H   0  0  0  0  0  0  0  0  0  0  0  0
   59.7346   31.1180   47.1152 H   0  0  0  0  0  0  0  0  0  0  0  0
  1  2  1  0
  2  3  2  0
  2  4  2  0
  2  5  1  0
  5  6  1  0
  6  7  2  0
  7  8  1  0
  8  9  2  0
  9 10  1  0
 10 11  1  0
 11 12  2  0
 11 13  1  0
 13 14  1  0
 14 15  1  0
 15 16  1  0
 16 17  1  0
 17 18  2  0
 17 19  2  0
 17 20  1  0
 20 21  2  0
 21 22  1  0
 22 23  2  0
 23 24  1  0
 24 25  2  0
 25 26  1  0
 16 27  1  0
 27 28  1  0
 10 29  2  0
 29  6  1  0
 28 13  1  0
 25 20  1  0
  1 30  1  0
  1 31  1  0
  1 32  1  0
  5 33  1  0
  7 34  1  0
  8 35  1  0
  9 36  1  0
 14 37  1  0
 14 38  1  0
 15 39  1  0
 15 40  1  0
 21 41  1  0
 22 42  1  0
 23 43  1  0
 24 44  1  0
 27 45  1  0
 27 46  1  0
 28 47  1  0
 28 48  1  0
 29 49  1  0
M  CHG  1  26  -1
M  END
>  <UniqueID>  (78) 
74

>  <SMILES>  (78) 
CS(=O)(=O)Nc1cccc(C(=O)N2CCN(S(=O)(=O)c3ccccc3[O-])CC2)c1

>  <Energy>  (78) 
60.32524389441751

>  <Genealogy>  (78) 
CS(=O)(=O)Nc1cccc(C(=O)N2CCN(S(=O)(=O)c3ccccc3[O-])CC2)c1 (protonated)
CS(=O)(=O)Nc1cccc(C(=O)N2CCN(S(=O)(=O)c3ccccc3[O-])CC2)c1 (3D coordinates assigned)
CS(=O)(=O)Nc1cccc(C(=O)N2CCN(S(=O)(=O)c3ccccc3[O-])CC2)c1 (nonaromatic ring conformer: 60.32524389441751 kcal/mol)

>  <smiles>  (78) 
CS(=O)(=O)Nc1cccc(C(=O)N2CCN(S(=O)(=O)c3ccccc3O)CC2)c1

>  <score_type>  (78) 
oracle

>  <origin>  (78) 
adg

>  <m_score__min__energy>  (78) 
-12.91

>  <m_primary>  (78) 
energy

$$$$
78:0
     RDKit          3D

 41 43  0  0  0  0  0  0  0  0999 V2000
   59.3080   33.5020   50.5730 C   0  0  0  0  0  0  0  0  0  0  0  0
   59.8040   34.3160   49.5160 O   0  0  0  0  0  0  0  0  0  0  0  0
   60.8590   33.9570   48.6590 C   0  0  0  0  0  0  0  0  0  0  0  0
   62.0020   33.2840   49.1370 C   0  0  0  0  0  0  0  0  0  0  0  0
   63.0280   32.9210   48.2610 C   0  0  0  0  0  0  0  0  0  0  0  0
   62.9310   33.2260   46.9050 C   0  0  0  0  0  0  0  0  0  0  0  0
   61.8070   33.8960   46.4160 C   0  0  0  0  0  0  0  0  0  0  0  0
   60.7610   34.2620   47.2820 C   0  0  0  0  0  0  0  0  0  0  0  0
   59.5800   34.9780   46.7420 C   0  0  0  0  0  0  0  0  0  0  0  0
   59.6580   36.2130   46.5060 O   0  0  0  0  0  0  0  0  0  0  0  0
   58.3650   34.2930   46.4100 N   0  0  0  0  0  0  0  0  0  0  0  0
   58.2450   32.9100   46.0480 C   0  0  0  0  0  0  0  0  0  0  0  0
   57.9960   32.5730   44.7140 C   0  0  0  0  0  0  0  0  0  0  0  0
   57.8590   31.2330   44.3420 C   0  0  0  0  0  0  0  0  0  0  0  0
   57.9500   30.2350   45.3170 C   0  0  0  0  0  0  0  0  0  0  0  0
   57.8410   28.9860   44.9650 N   0  0  0  0  0  0  0  0  0  0  0  0
   56.7500   28.1050   45.2790 C   0  0  0  0  0  0  0  0  0  0  0  0
   55.5760   28.5560   45.2130 O   0  0  0  0  0  0  0  0  0  0  0  0
   56.9670   26.7130   45.7460 C   0  0  0  0  0  0  0  0  0  0  0  0
   58.2750   26.2160   45.8870 C   0  0  0  0  0  0  0  0  0  0  0  0
   58.4930   24.9110   46.3380 C   0  0  0  0  0  0  0  0  0  0  0  0
   57.4090   24.0920   46.6650 C   0  0  0  0  0  0  0  0  0  0  0  0
   57.6280   22.7960   47.1140 O   0  0  0  0  0  0  0  0  0  0  0  0
   56.1040   24.5790   46.5400 C   0  0  0  0  0  0  0  0  0  0  0  0
   55.8780   25.8830   46.0850 C   0  0  0  0  0  0  0  0  0  0  0  0
   54.5690   26.3370   45.9580 O   0  0  0  0  0  0  0  0  0  0  0  0
   58.1790   30.5850   46.6150 N   0  0  0  0  0  0  0  0  0  0  0  0
   58.3160   31.8810   47.0010 C   0  0  0  0  0  0  0  0  0  0  0  0
   59.5810   33.9500   51.5398 H   0  0  0  0  0  0  0  0  0  0  0  0
   58.2129   33.4308   50.4980 H   0  0  0  0  0  0  0  0  0  0  0  0
   59.7468   32.4961   50.4980 H   0  0  0  0  0  0  0  0  0  0  0  0
   62.0865   33.0431   50.2070 H   0  0  0  0  0  0  0  0  0  0  0  0
   63.9144   32.3932   48.6427 H   0  0  0  0  0  0  0  0  0  0  0  0
   63.7409   32.9387   46.2183 H   0  0  0  0  0  0  0  0  0  0  0  0
   61.7395   34.1392   45.3453 H   0  0  0  0  0  0  0  0  0  0  0  0
   57.9077   33.3647   43.9554 H   0  0  0  0  0  0  0  0  0  0  0  0
   57.6809   30.9654   43.2900 H   0  0  0  0  0  0  0  0  0  0  0  0
   59.1329   26.8589   45.6406 H   0  0  0  0  0  0  0  0  0  0  0  0
   59.5196   24.5281   46.4357 H   0  0  0  0  0  0  0  0  0  0  0  0
   55.2516   23.9344   46.8004 H   0  0  0  0  0  0  0  0  0  0  0  0
   58.4826   32.1241   48.0608 H   0  0  0  0  0  0  0  0  0  0  0  0
  1  2  1  0
  2  3  1  0
  3  4  2  0
  4  5  1  0
  5  6  2  0
  6  7  1  0
  7  8  2  0
  8  9  1  0
  9 10  2  0
  9 11  1  0
 11 12  1  0
 12 13  1  0
 13 14  2  0
 14 15  1  0
 15 16  2  3
 16 17  1  0
 17 18  2  0
 17 19  1  0
 19 20  2  0
 20 21  1  0
 21 22  2  0
 22 23  1  0
 22 24  1  0
 24 25  2  0
 25 26  1  0
 15 27  1  0
 27 28  1  0
  8  3  1  0
 28 12  2  0
 25 19  1  0
  1 29  1  0
  1 30  1  0
  1 31  1  0
  4 32  1  0
  5 33  1  0
  6 34  1  0
  7 35  1  0
 13 36  1  0
 14 37  1  0
 20 38  1  0
 21 39  1  0
 24 40  1  0
 28 41  1  0
M  CHG  4  11  -1  23  -1  26  -1  27  -1
M  END
>  <UniqueID>  (79) 
75

>  <SMILES>  (79) 
COc1ccccc1C(=O)[N-]c1ccc(=NC(=O)c2ccc([O-])cc2[O-])[n-]c1

>  <Energy>  (79) 
61.221839755360854

>  <Genealogy>  (79) 
COc1ccccc1C(=O)[N-]c1ccc(=NC(=O)c2ccc([O-])cc2[O-])[n-]c1 (protonated)
COc1ccccc1C(=O)[N-]c1ccc(=NC(=O)c2ccc([O-])cc2[O-])[n-]c1 (3D coordinates assigned)
COc1ccccc1C(=O)[N-]c1ccc(=NC(=O)c2ccc([O-])cc2[O-])[n-]c1 (optimized conformer: 61.221839755360854 kcal/mol)

>  <smiles>  (79) 
COc1ccccc1C(=O)Nc1ccc(=NC(=O)c2ccc(O)cc2O)[nH]c1

>  <score_type>  (79) 
oracle

>  <origin>  (79) 
adg

>  <m_score__min__energy>  (79) 
-16.109999999999999

>  <m_primary>  (79) 
energy

$$$$
79:0
     RDKit          3D

 68 71  0  0  0  0  0  0  0  0999 V2000
   65.7330   32.9740   50.5180 C   0  0  0  0  0  0  0  0  0  0  0  0
   64.9500   32.5950   51.5260 C   0  0  0  0  0  0  0  0  0  0  0  0
   63.8490   31.6160   51.3490 C   0  0  0  0  0  0  0  0  0  0  0  0
   64.1440   30.2500   51.4730 C   0  0  0  0  0  0  0  0  0  0  0  0
   63.1460   29.2890   51.3680 C   0  0  0  0  0  0  0  0  0  0  0  0
   61.8140   29.6700   51.1500 C   0  0  0  0  0  0  0  0  0  0  0  0
   60.7740   28.7300   51.0480 O   0  0  0  0  0  0  0  0  0  0  0  0
   60.7170   27.6550   50.1100 C   0  0  0  0  0  0  0  0  0  0  0  0
   60.1050   28.1080   48.8100 C   0  0  0  0  0  0  0  0  0  0  0  0
   59.3840   29.3100   48.7410 C   0  0  0  0  0  0  0  0  0  0  0  0
   58.8280   29.7310   47.5300 C   0  0  0  0  0  0  0  0  0  0  0  0
   58.9930   28.9590   46.3690 C   0  0  0  0  0  0  0  0  0  0  0  0
   58.4190   29.4210   45.0540 C   0  0  0  0  0  0  0  0  0  0  0  0
   57.3940   30.4700   45.2590 N   0  0  0  0  0  0  0  0  0  0  0  0
   56.2880   30.4010   44.2750 C   0  0  0  0  0  0  0  0  0  0  0  0
   56.7290   30.8100   42.8560 C   0  0  0  0  0  0  0  0  0  0  0  0
   57.7820   31.9310   42.8580 C   0  0  0  0  0  0  0  0  0  0  0  0
   57.7340   32.7380   44.1520 C   0  0  0  0  0  0  0  0  0  0  0  0
   57.9840   31.8310   45.3760 C   0  0  0  0  0  0  0  0  0  0  0  0
   59.7280   27.7650   46.4340 C   0  0  0  0  0  0  0  0  0  0  0  0
   60.2820   27.3430   47.6460 C   0  0  0  0  0  0  0  0  0  0  0  0
   61.4920   31.0290   51.0370 C   0  0  0  0  0  0  0  0  0  0  0  0
   60.1440   31.3520   50.8540 O   0  0  0  0  0  0  0  0  0  0  0  0
   62.5060   32.0230   51.1080 C   0  0  0  0  0  0  0  0  0  0  0  0
   62.1560   33.4840   50.8490 C   0  0  0  0  0  0  0  0  0  0  0  0
   61.7150   33.7180   49.4180 C   0  0  0  0  0  0  0  0  0  0  0  0
   62.6550   33.7120   48.3870 C   0  0  0  0  0  0  0  0  0  0  0  0
   62.2750   33.8940   47.0910 N   0  0  0  0  0  0  0  0  0  0  0  0
   63.2980   33.8450   46.0380 C   0  0  0  0  0  0  0  0  0  0  0  0
   60.9510   34.0400   46.7760 C   0  0  0  0  0  0  0  0  0  0  0  0
   60.6050   34.1470   45.5660 O   0  0  0  0  0  0  0  0  0  0  0  0
   59.9980   34.0610   47.7640 N   0  0  0  0  0  0  0  0  0  0  0  0
   58.5740   34.2020   47.4140 C   0  0  0  0  0  0  0  0  0  0  0  0
   60.3620   33.8680   49.0720 C   0  0  0  0  0  0  0  0  0  0  0  0
   59.4790   33.8130   49.9730 O   0  0  0  0  0  0  0  0  0  0  0  0
   66.5387   33.7026   50.6913 H   0  0  0  0  0  0  0  0  0  0  0  0
   65.5742   32.5585   49.5119 H   0  0  0  0  0  0  0  0  0  0  0  0
   65.1253   33.0223   52.5243 H   0  0  0  0  0  0  0  0  0  0  0  0
   65.1818   29.9348   51.6562 H   0  0  0  0  0  0  0  0  0  0  0  0
   63.4022   28.2229   51.4564 H   0  0  0  0  0  0  0  0  0  0  0  0
   61.7366   27.2885   49.9197 H   0  0  0  0  0  0  0  0  0  0  0  0
   60.0931   26.8532   50.5317 H   0  0  0  0  0  0  0  0  0  0  0  0
   59.2559   29.9239   49.6447 H   0  0  0  0  0  0  0  0  0  0  0  0
   58.2587   30.6712   47.4862 H   0  0  0  0  0  0  0  0  0  0  0  0
   59.2295   29.8274   44.4312 H   0  0  0  0  0  0  0  0  0  0  0  0
   57.9447   28.5611   44.5584 H   0  0  0  0  0  0  0  0  0  0  0  0
   55.9098   29.3686   44.2423 H   0  0  0  0  0  0  0  0  0  0  0  0
   55.5104   31.1086   44.5985 H   0  0  0  0  0  0  0  0  0  0  0  0
   57.1545   29.9292   42.3529 H   0  0  0  0  0  0  0  0  0  0  0  0
   55.8410   31.1913   42.3307 H   0  0  0  0  0  0  0  0  0  0  0  0
   58.7813   31.4835   42.7522 H   0  0  0  0  0  0  0  0  0  0  0  0
   57.5671   32.6092   42.0190 H   0  0  0  0  0  0  0  0  0  0  0  0
   58.5079   33.5190   44.1184 H   0  0  0  0  0  0  0  0  0  0  0  0
   56.7358   33.1903   44.2475 H   0  0  0  0  0  0  0  0  0  0  0  0
   59.0706   31.7252   45.5105 H   0  0  0  0  0  0  0  0  0  0  0  0
   57.4929   32.3151   46.2330 H   0  0  0  0  0  0  0  0  0  0  0  0
   59.8687   27.1586   45.5271 H   0  0  0  0  0  0  0  0  0  0  0  0
   60.8591   26.4075   47.6880 H   0  0  0  0  0  0  0  0  0  0  0  0
   59.7460   32.2550   51.0720 H   0  0  0  0  0  0  0  0  0  0  0  0
   61.3396   33.7786   51.5247 H   0  0  0  0  0  0  0  0  0  0  0  0
   63.0588   34.0863   51.0287 H   0  0  0  0  0  0  0  0  0  0  0  0
   63.7182   33.5581   48.6237 H   0  0  0  0  0  0  0  0  0  0  0  0
   64.2959   33.7972   46.4982 H   0  0  0  0  0  0  0  0  0  0  0  0
   63.1391   32.9534   45.4136 H   0  0  0  0  0  0  0  0  0  0  0  0
   63.2250   34.7477   45.4136 H   0  0  0  0  0  0  0  0  0  0  0  0
   57.9744   34.2614   48.3343 H   0  0  0  0  0  0  0  0  0  0  0  0
   58.4307   35.1187   46.8232 H   0  0  0  0  0  0  0  0  0  0  0  0
   58.2537   33.3312   46.8232 H   0  0  0  0  0  0  0  0  0  0  0  0
  1  2  2  0
  2  3  1  0
  3  4  2  0
  4  5  1  0
  5  6  2  0
  6  7  1  0
  7  8  1  0
  8  9  1  0
  9 10  2  0
 10 11  1  0
 11 12  2  0
 12 13  1  0
 13 14  1  0
 14 15  1  0
 15 16  1  0
 16 17  1  0
 17 18  1  0
 18 19  1  0
 12 20  1  0
 20 21  2  0
  6 22  1  0
 22 23  1  0
 22 24  2  0
 24 25  1  0
 25 26  1  0
 26 27  2  0
 27 28  1  0
 28 29  1  0
 28 30  1  0
 30 31  2  0
 30 32  1  0
 32 33  1  0
 32 34  1  0
 34 35  2  0
 24  3  1  0
 34 26  1  0
 21  9  1  0
 19 14  1  0
  1 36  1  0
  1 37  1  0
  2 38  1  0
  4 39  1  0
  5 40  1  0
  8 41  1  0
  8 42  1  0
 10 43  1  0
 11 44  1  0
 13 45  1  0
 13 46  1  0
 15 47  1  0
 15 48  1  0
 16 49  1  0
 16 50  1  0
 17 51  1  0
 17 52  1  0
 18 53  1  0
 18 54  1  0
 19 55  1  0
 19 56  1  0
 20 57  1  0
 21 58  1  0
 23 59  1  0
 25 60  1  0
 25 61  1  0
 27 62  1  0
 29 63  1  0
 29 64  1  0
 29 65  1  0
 33 66  1  0
 33 67  1  0
 33 68  1  0
M  END
>  <UniqueID>  (80) 
76

>  <SMILES>  (80) 
C=Cc1ccc(OCc2ccc(CN3CCCCC3)cc2)c(O)c1Cc1cn(C)c(=O)n(C)c1=O

>  <Energy>  (80) 
93.14927135694997

>  <Genealogy>  (80) 
C=Cc1ccc(OCc2ccc(CN3CCCCC3)cc2)c(O)c1Cc1cn(C)c(=O)n(C)c1=O (3D coordinates assigned)
C=Cc1ccc(OCc2ccc(CN3CCCCC3)cc2)c(O)c1Cc1cn(C)c(=O)n(C)c1=O (nonaromatic ring conformer: 93.14927135694997 kcal/mol)

>  <smiles>  (80) 
C=Cc1ccc(OCc2ccc(CN3CCCCC3)cc2)c(O)c1Cc1cn(C)c(=O)n(C)c1=O

>  <score_type>  (80) 
oracle

>  <origin>  (80) 
adg

>  <m_score__min__energy>  (80) 
-12.220000000000001

>  <m_primary>  (80) 
energy

$$$$
80:0
     RDKit          3D

 44 47  0  0  0  0  0  0  0  0999 V2000
   56.6810   30.2290   51.9550 O   0  0  0  0  0  0  0  0  0  0  0  0
   57.7290   30.4630   51.2960 C   0  0  0  0  0  0  0  0  0  0  0  0
   58.9160   29.5610   51.4380 C   0  0  0  0  0  0  0  0  0  0  0  0
   60.4200   30.5770   51.5510 S   0  0  0  0  0  0  0  0  0  0  0  0
   60.1790   31.3390   49.9410 C   0  0  0  0  0  0  0  0  0  0  0  0
   61.2670   31.4830   49.0750 C   0  0  0  0  0  0  0  0  0  0  0  0
   61.1180   32.1590   47.8610 C   0  0  0  0  0  0  0  0  0  0  0  0
   59.8690   32.6990   47.5010 C   0  0  0  0  0  0  0  0  0  0  0  0
   59.6730   33.4060   46.2690 N   0  0  0  0  0  0  0  0  0  0  0  0
   58.3620   33.1480   45.1640 S   0  0  0  0  0  0  0  0  0  0  0  0
   58.7000   33.7810   43.8430 O   0  0  0  0  0  0  0  0  0  0  0  0
   57.1120   33.7640   45.7280 O   0  0  0  0  0  0  0  0  0  0  0  0
   58.0940   31.4180   44.9220 C   0  0  0  0  0  0  0  0  0  0  0  0
   58.3030   30.5270   45.9890 C   0  0  0  0  0  0  0  0  0  0  0  0
   58.0980   29.1440   45.8260 C   0  0  0  0  0  0  0  0  0  0  0  0
   58.3260   28.2110   46.9550 C   0  0  0  0  0  0  0  0  0  0  0  0
   59.2950   28.3990   47.7410 O   0  0  0  0  0  0  0  0  0  0  0  0
   57.3830   27.1630   47.2240 N   0  0  0  0  0  0  0  0  0  0  0  0
   57.1270   26.0870   46.5310 C   0  0  0  0  0  0  0  0  0  0  0  0
   58.1010   25.1370   46.4610 N   0  0  0  0  0  0  0  0  0  0  0  0
   57.9520   23.9820   45.7600 C   0  0  0  0  0  0  0  0  0  0  0  0
   56.7650   23.7310   45.0770 C   0  0  0  0  0  0  0  0  0  0  0  0
   55.7300   24.6610   45.1440 C   0  0  0  0  0  0  0  0  0  0  0  0
   55.8880   25.8380   45.8840 C   0  0  0  0  0  0  0  0  0  0  0  0
   54.8000   26.6940   45.9990 O   0  0  0  0  0  0  0  0  0  0  0  0
   57.6810   28.6620   44.5750 C   0  0  0  0  0  0  0  0  0  0  0  0
   57.4710   29.5410   43.5110 C   0  0  0  0  0  0  0  0  0  0  0  0
   57.6730   30.9150   43.6750 C   0  0  0  0  0  0  0  0  0  0  0  0
   57.3900   31.9690   42.2930 Cl  0  0  0  0  0  0  0  0  0  0  0  0
   58.7760   32.5310   48.3590 C   0  0  0  0  0  0  0  0  0  0  0  0
   58.9160   31.8370   49.5700 C   0  0  0  0  0  0  0  0  0  0  0  0
   57.7600   31.5640   50.3760 N   0  0  0  0  0  0  0  0  0  0  0  0
   58.8113   28.9541   52.3495 H   0  0  0  0  0  0  0  0  0  0  0  0
   58.9825   28.8936   50.5662 H   0  0  0  0  0  0  0  0  0  0  0  0
   62.2452   31.0621   49.3505 H   0  0  0  0  0  0  0  0  0  0  0  0
   61.9789   32.2694   47.1852 H   0  0  0  0  0  0  0  0  0  0  0  0
   58.6311   30.9157   46.9643 H   0  0  0  0  0  0  0  0  0  0  0  0
   58.7689   23.2459   45.7323 H   0  0  0  0  0  0  0  0  0  0  0  0
   56.6457   22.8080   44.4906 H   0  0  0  0  0  0  0  0  0  0  0  0
   54.7856   24.4695   44.6135 H   0  0  0  0  0  0  0  0  0  0  0  0
   57.5185   27.5835   44.4322 H   0  0  0  0  0  0  0  0  0  0  0  0
   57.1442   29.1499   42.5362 H   0  0  0  0  0  0  0  0  0  0  0  0
   57.7967   32.9476   48.0807 H   0  0  0  0  0  0  0  0  0  0  0  0
   56.8810   32.1050   50.2140 H   0  0  0  0  0  0  0  0  0  0  0  0
  1  2  2  0
  2  3  1  0
  3  4  1  0
  4  5  1  0
  5  6  2  0
  6  7  1  0
  7  8  2  0
  8  9  1  0
  9 10  1  0
 10 11  2  0
 10 12  2  0
 10 13  1  0
 13 14  2  0
 14 15  1  0
 15 16  1  0
 16 17  2  0
 16 18  1  0
 18 19  2  3
 19 20  1  0
 20 21  1  0
 21 22  2  0
 22 23  1  0
 23 24  2  0
 24 25  1  0
 15 26  2  0
 26 27  1  0
 27 28  2  0
 28 29  1  0
  8 30  1  0
 30 31  2  0
 31 32  1  0
 32  2  1  0
 31  5  1  0
 28 13  1  0
 24 19  1  0
  3 33  1  0
  3 34  1  0
  6 35  1  0
  7 36  1  0
 14 37  1  0
 21 38  1  0
 22 39  1  0
 23 40  1  0
 26 41  1  0
 27 42  1  0
 30 43  1  0
 32 44  1  0
M  CHG  3   9  -1  20  -1  25  -1
M  END
>  <UniqueID>  (81) 
77

>  <SMILES>  (81) 
O=C1CSc2ccc([N-]S(=O)(=O)c3cc(C(=O)N=c4[n-]cccc4[O-])ccc3Cl)cc2N1

>  <Energy>  (81) 
71.55909861369406

>  <Genealogy>  (81) 
O=C1CSc2ccc([N-]S(=O)(=O)c3cc(C(=O)N=c4[n-]cccc4[O-])ccc3Cl)cc2N1 (protonated)
O=C1CSc2ccc([N-]S(=O)(=O)c3cc(C(=O)N=c4[n-]cccc4[O-])ccc3Cl)cc2N1 (3D coordinates assigned)
O=C1CSc2ccc([N-]S(=O)(=O)c3cc(C(=O)N=c4[n-]cccc4[O-])ccc3Cl)cc2N1 (nonaromatic ring conformer: 71.55909861369406 kcal/mol)

>  <smiles>  (81) 
O=C1CSc2ccc(NS(=O)(=O)c3cc(C(=O)N=c4[nH]cccc4O)ccc3Cl)cc2N1

>  <score_type>  (81) 
oracle

>  <origin>  (81) 
adg

>  <m_score__min__energy>  (81) 
-15.93

>  <m_primary>  (81) 
energy

$$$$
81:0
     RDKit          3D

 57 60  0  0  0  0  0  0  0  0999 V2000
   55.1440   29.3860   44.7590 O   0  0  0  0  0  0  0  0  0  0  0  0
   56.3840   29.5350   44.5660 C   0  0  0  0  0  0  0  0  0  0  0  0
   56.9470   29.2510   43.2000 C   0  0  0  0  0  0  0  0  0  0  0  0
   57.7610   27.6170   43.1630 S   0  0  0  0  0  0  0  0  0  0  0  0
   58.5310   27.7950   44.7700 C   0  0  0  0  0  0  0  0  0  0  0  0
   59.6970   28.4810   44.8900 N   0  0  0  0  0  0  0  0  0  0  0  0
   60.3070   28.6210   46.0930 C   0  0  0  0  0  0  0  0  0  0  0  0
   59.7430   28.0440   47.2400 C   0  0  0  0  0  0  0  0  0  0  0  0
   60.4190   28.1520   48.5550 C   0  0  0  0  0  0  0  0  0  0  0  0
   61.0490   27.1570   49.0100 O   0  0  0  0  0  0  0  0  0  0  0  0
   60.2970   29.3470   49.3480 N   0  0  0  0  0  0  0  0  0  0  0  0
   61.1380   29.6650   50.4720 C   0  0  0  0  0  0  0  0  0  0  0  0
   61.6520   28.6630   51.3160 C   0  0  0  0  0  0  0  0  0  0  0  0
   62.4920   29.0010   52.3810 C   0  0  0  0  0  0  0  0  0  0  0  0
   62.8510   30.3330   52.6000 C   0  0  0  0  0  0  0  0  0  0  0  0
   62.3640   31.3410   51.7570 C   0  0  0  0  0  0  0  0  0  0  0  0
   62.9050   33.0070   51.9640 S   0  0  0  0  0  0  0  0  0  0  0  0
   63.8930   33.0590   53.0970 O   0  0  0  0  0  0  0  0  0  0  0  0
   61.7220   33.8470   52.3560 O   0  0  0  0  0  0  0  0  0  0  0  0
   63.6410   33.6910   50.5320 N   0  0  0  0  0  0  0  0  0  0  0  0
   62.6920   34.4420   49.6860 C   0  0  0  0  0  0  0  0  0  0  0  0
   62.0430   33.5680   48.6050 C   0  0  0  0  0  0  0  0  0  0  0  0
   63.0230   32.8820   47.8580 O   0  0  0  0  0  0  0  0  0  0  0  0
   63.7010   31.9810   48.7050 C   0  0  0  0  0  0  0  0  0  0  0  0
   64.4840   32.7380   49.7870 C   0  0  0  0  0  0  0  0  0  0  0  0
   61.5110   31.0030   50.6950 C   0  0  0  0  0  0  0  0  0  0  0  0
   58.5280   27.3570   47.0910 C   0  0  0  0  0  0  0  0  0  0  0  0
   57.9530   27.2430   45.8670 N   0  0  0  0  0  0  0  0  0  0  0  0
   57.1850   30.1180   45.6050 N   0  0  0  0  0  0  0  0  0  0  0  0
   57.7670   31.4290   45.5810 C   0  0  0  0  0  0  0  0  0  0  0  0
   57.3960   32.3230   44.5670 C   0  0  0  0  0  0  0  0  0  0  0  0
   57.9200   33.6210   44.5420 C   0  0  0  0  0  0  0  0  0  0  0  0
   58.8080   34.0370   45.5420 C   0  0  0  0  0  0  0  0  0  0  0  0
   59.3130   35.2970   45.5200 F   0  0  0  0  0  0  0  0  0  0  0  0
   59.1600   33.1590   46.5720 C   0  0  0  0  0  0  0  0  0  0  0  0
   58.6360   31.8620   46.6000 C   0  0  0  0  0  0  0  0  0  0  0  0
   56.1303   29.2641   42.4632 H   0  0  0  0  0  0  0  0  0  0  0  0
   57.6926   30.0226   42.9579 H   0  0  0  0  0  0  0  0  0  0  0  0
   61.2463   29.1884   46.1693 H   0  0  0  0  0  0  0  0  0  0  0  0
   59.4610   29.9520   49.1880 H   0  0  0  0  0  0  0  0  0  0  0  0
   61.3917   27.6094   51.1369 H   0  0  0  0  0  0  0  0  0  0  0  0
   62.8720   28.2145   53.0496 H   0  0  0  0  0  0  0  0  0  0  0  0
   63.5175   30.5913   53.4361 H   0  0  0  0  0  0  0  0  0  0  0  0
   61.8995   34.8550   50.3274 H   0  0  0  0  0  0  0  0  0  0  0  0
   63.2576   35.2358   49.1762 H   0  0  0  0  0  0  0  0  0  0  0  0
   61.3778   32.8353   49.0854 H   0  0  0  0  0  0  0  0  0  0  0  0
   61.4719   34.2165   47.9243 H   0  0  0  0  0  0  0  0  0  0  0  0
   62.9680   31.3176   49.1873 H   0  0  0  0  0  0  0  0  0  0  0  0
   64.4089   31.3934   48.1021 H   0  0  0  0  0  0  0  0  0  0  0  0
   64.9019   32.0079   50.4958 H   0  0  0  0  0  0  0  0  0  0  0  0
   65.2757   33.3137   49.2852 H   0  0  0  0  0  0  0  0  0  0  0  0
   61.1302   31.7923   50.0302 H   0  0  0  0  0  0  0  0  0  0  0  0
   58.0402   26.9094   47.9695 H   0  0  0  0  0  0  0  0  0  0  0  0
   56.6895   32.0030   43.7869 H   0  0  0  0  0  0  0  0  0  0  0  0
   57.6343   34.3141   43.7370 H   0  0  0  0  0  0  0  0  0  0  0  0
   59.8506   33.4889   47.3621 H   0  0  0  0  0  0  0  0  0  0  0  0
   58.9037   31.1794   47.4200 H   0  0  0  0  0  0  0  0  0  0  0  0
  1  2  2  0
  2  3  1  0
  3  4  1  0
  4  5  1  0
  5  6  2  0
  6  7  1  0
  7  8  2  0
  8  9  1  0
  9 10  2  0
  9 11  1  0
 11 12  1  0
 12 13  2  0
 13 14  1  0
 14 15  2  0
 15 16  1  0
 16 17  1  0
 17 18  2  0
 17 19  2  0
 17 20  1  0
 20 21  1  0
 21 22  1  0
 22 23  1  0
 23 24  1  0
 24 25  1  0
 16 26  2  0
  8 27  1  0
 27 28  2  0
  2 29  1  0
 29 30  1  0
 30 31  2  0
 31 32  1  0
 32 33  2  0
 33 34  1  0
 33 35  1  0
 35 36  2  0
 28  5  1  0
 36 30  1  0
 26 12  1  0
 25 20  1  0
  3 37  1  0
  3 38  1  0
  7 39  1  0
 11 40  1  0
 13 41  1  0
 14 42  1  0
 15 43  1  0
 21 44  1  0
 21 45  1  0
 22 46  1  0
 22 47  1  0
 24 48  1  0
 24 49  1  0
 25 50  1  0
 25 51  1  0
 26 52  1  0
 27 53  1  0
 31 54  1  0
 32 55  1  0
 35 56  1  0
 36 57  1  0
M  CHG  1  29  -1
M  END
>  <UniqueID>  (82) 
78

>  <SMILES>  (82) 
O=C(CSc1ncc(C(=O)Nc2cccc(S(=O)(=O)N3CCOCC3)c2)cn1)[N-]c1ccc(F)cc1

>  <Energy>  (82) 
71.37374237997844

>  <Genealogy>  (82) 
O=C(CSc1ncc(C(=O)Nc2cccc(S(=O)(=O)N3CCOCC3)c2)cn1)[N-]c1ccc(F)cc1 (protonated)
O=C(CSc1ncc(C(=O)Nc2cccc(S(=O)(=O)N3CCOCC3)c2)cn1)[N-]c1ccc(F)cc1 (3D coordinates assigned)
O=C(CSc1ncc(C(=O)Nc2cccc(S(=O)(=O)N3CCOCC3)c2)cn1)[N-]c1ccc(F)cc1 (nonaromatic ring conformer: 71.37374237997844 kcal/mol)

>  <smiles>  (82) 
O=C(CSc1ncc(C(=O)Nc2cccc(S(=O)(=O)N3CCOCC3)c2)cn1)Nc1ccc(F)cc1

>  <score_type>  (82) 
oracle

>  <origin>  (82) 
adg

>  <m_score__min__energy>  (82) 
-10.390000000000001

>  <m_primary>  (82) 
energy

$$$$
82:0
     RDKit          3D

 14 14  0  0  0  0  0  0  0  0999 V2000
   57.7700   28.1290   44.1260 C   0  0  0  0  0  0  0  0  0  0  0  0
   57.3450   27.9720   45.3790 C   0  0  0  0  0  0  0  0  0  0  0  0
   57.2100   26.6460   46.0320 C   0  0  0  0  0  0  0  0  0  0  0  0
   55.9570   26.0680   46.3230 C   0  0  0  0  0  0  0  0  0  0  0  0
   54.7710   26.7100   45.9840 O   0  0  0  0  0  0  0  0  0  0  0  0
   55.8940   24.8490   46.9180 N   0  0  0  0  0  0  0  0  0  0  0  0
   57.0200   24.1580   47.2270 C   0  0  0  0  0  0  0  0  0  0  0  0
   56.9350   23.0320   47.7810 O   0  0  0  0  0  0  0  0  0  0  0  0
   58.2370   24.6780   46.9330 N   0  0  0  0  0  0  0  0  0  0  0  0
   58.3580   25.8940   46.3400 C   0  0  0  0  0  0  0  0  0  0  0  0
   59.5080   26.3420   46.0840 O   0  0  0  0  0  0  0  0  0  0  0  0
   57.8499   29.1377   43.6947 H   0  0  0  0  0  0  0  0  0  0  0  0
   58.0409   27.2499   43.5229 H   0  0  0  0  0  0  0  0  0  0  0  0
   57.0812   28.8693   45.9580 H   0  0  0  0  0  0  0  0  0  0  0  0
  1  2  2  0
  2  3  1  0
  3  4  2  0
  4  5  1  0
  4  6  1  0
  6  7  1  0
  7  8  2  0
  7  9  1  0
  9 10  1  0
 10 11  2  0
 10  3  1  0
  1 12  1  0
  1 13  1  0
  2 14  1  0
M  CHG  3   5  -1   6  -1   9  -1
M  END
>  <UniqueID>  (83) 
79

>  <SMILES>  (83) 
C=Cc1c([O-])[n-]c(=O)[n-]c1=O

>  <Energy>  (83) 
18.640710746704162

>  <Genealogy>  (83) 
C=Cc1c([O-])[n-]c(=O)[n-]c1=O (protonated)
C=Cc1c([O-])[n-]c(=O)[n-]c1=O (3D coordinates assigned)
C=Cc1c([O-])[n-]c(=O)[n-]c1=O (optimized conformer: 18.640710746704162 kcal/mol)

>  <smiles>  (83) 
C=Cc1c(O)[nH]c(=O)[nH]c1=O

>  <score_type>  (83) 
oracle

>  <origin>  (83) 
adg

>  <m_score__min__energy>  (83) 
-13.9

>  <m_primary>  (83) 
energy

$$$$
83:0
     RDKit          3D

 46 48  0  0  0  0  0  0  0  0999 V2000
   58.6890   28.4300   47.9270 H   0  0  0  0  0  0  0  0  0  0  0  0
   59.1000   27.5950   48.2720 O   0  0  0  0  0  0  0  0  0  0  0  0
   60.4450   27.8990   48.5210 C   0  0  0  0  0  0  0  0  0  0  0  0
   61.0059   27.8634   47.5754 H   0  0  0  0  0  0  0  0  0  0  0  0
   60.8523   27.1628   49.2296 H   0  0  0  0  0  0  0  0  0  0  0  0
   60.5710   29.2950   49.1290 C   0  0  0  0  0  0  0  0  0  0  0  0
   61.3092   29.8742   48.5549 H   0  0  0  0  0  0  0  0  0  0  0  0
   60.8946   29.1983   50.1759 H   0  0  0  0  0  0  0  0  0  0  0  0
   59.2830   29.9890   49.0950 N   0  0  0  0  0  0  0  0  0  0  0  0
   58.8190   30.6510   48.0750 C   0  0  0  0  0  0  0  0  0  0  0  0
   58.2570   30.0020   47.0200 N   0  0  0  0  0  0  0  0  0  0  0  0
   57.7670   30.7000   45.9620 C   0  0  0  0  0  0  0  0  0  0  0  0
   57.2420   30.0910   44.9410 N   0  0  0  0  0  0  0  0  0  0  0  0
   56.2570   29.0120   45.0220 C   0  0  0  0  0  0  0  0  0  0  0  0
   55.7463   28.9204   44.0521 H   0  0  0  0  0  0  0  0  0  0  0  0
   55.5403   29.2574   45.8196 H   0  0  0  0  0  0  0  0  0  0  0  0
   56.9100   27.6920   45.3600 C   0  0  0  0  0  0  0  0  0  0  0  0
   58.3050   27.5530   45.2400 C   0  0  0  0  0  0  0  0  0  0  0  0
   58.9085   28.3972   44.8750 H   0  0  0  0  0  0  0  0  0  0  0  0
   58.9290   26.3510   45.5810 C   0  0  0  0  0  0  0  0  0  0  0  0
   60.0186   26.2479   45.4711 H   0  0  0  0  0  0  0  0  0  0  0  0
   58.1730   25.2800   46.0610 C   0  0  0  0  0  0  0  0  0  0  0  0
   58.6668   24.3339   46.3274 H   0  0  0  0  0  0  0  0  0  0  0  0
   56.7890   25.4100   46.2030 C   0  0  0  0  0  0  0  0  0  0  0  0
   56.1958   24.5674   46.5879 H   0  0  0  0  0  0  0  0  0  0  0  0
   56.1550   26.6090   45.8570 C   0  0  0  0  0  0  0  0  0  0  0  0
   54.7760   26.7120   46.0140 O   0  0  0  0  0  0  0  0  0  0  0  0
   57.8330   32.0530   45.9670 N   0  0  0  0  0  0  0  0  0  0  0  0
   58.3910   32.7150   47.0150 C   0  0  0  0  0  0  0  0  0  0  0  0
   58.4460   34.0160   47.0280 N   0  0  0  0  0  0  0  0  0  0  0  0
   59.6020   34.8070   46.6070 C   0  0  0  0  0  0  0  0  0  0  0  0
   59.6888   34.7658   45.5112 H   0  0  0  0  0  0  0  0  0  0  0  0
   59.4607   35.8465   46.9380 H   0  0  0  0  0  0  0  0  0  0  0  0
   60.8660   34.2670   47.2250 C   0  0  0  0  0  0  0  0  0  0  0  0
   61.9300   33.8320   46.4170 C   0  0  0  0  0  0  0  0  0  0  0  0
   61.8346   33.8631   45.3216 H   0  0  0  0  0  0  0  0  0  0  0  0
   63.1090   33.3600   47.0000 C   0  0  0  0  0  0  0  0  0  0  0  0
   63.9385   33.0194   46.3629 H   0  0  0  0  0  0  0  0  0  0  0  0
   63.2360   33.3200   48.3920 C   0  0  0  0  0  0  0  0  0  0  0  0
   64.1648   32.9477   48.8489 H   0  0  0  0  0  0  0  0  0  0  0  0
   62.1830   33.7530   49.2030 C   0  0  0  0  0  0  0  0  0  0  0  0
   62.2829   33.7200   50.2980 H   0  0  0  0  0  0  0  0  0  0  0  0
   61.0030   34.2280   48.6230 C   0  0  0  0  0  0  0  0  0  0  0  0
   60.1781   34.5728   49.2638 H   0  0  0  0  0  0  0  0  0  0  0  0
   58.8950   32.0100   48.0630 N   0  0  0  0  0  0  0  0  0  0  0  0
   59.3280   32.5140   48.8720 H   0  0  0  0  0  0  0  0  0  0  0  0
  1  2  1  0
  2  3  1  0
  3  4  1  0
  3  5  1  0
  3  6  1  0
  6  7  1  0
  6  8  1  0
  6  9  1  0
  9 10  2  0
 10 11  1  0
 11 12  1  0
 12 13  2  3
 13 14  1  0
 14 15  1  0
 14 16  1  0
 14 17  1  0
 17 18  2  0
 18 19  1  0
 18 20  1  0
 20 21  1  0
 20 22  2  0
 22 23  1  0
 22 24  1  0
 24 25  1  0
 24 26  2  0
 26 27  1  0
 12 28  1  0
 28 29  1  0
 29 30  2  0
 30 31  1  0
 31 32  1  0
 31 33  1  0
 31 34  1  0
 34 35  2  0
 35 36  1  0
 35 37  1  0
 37 38  1  0
 37 39  2  0
 39 40  1  0
 39 41  1  0
 41 42  1  0
 41 43  2  0
 43 44  1  0
 29 45  1  0
 45 46  1  0
 45 10  1  0
 26 17  1  0
 43 34  1  0
M  CHG  3  11  -1  27  -1  28  -1
M  END
>  <UniqueID>  (84) 
80

>  <SMILES>  (84) 
[O-]c1ccccc1CN=c1[n-]/c(=N\CCO)[nH]/c(=N/Cc2ccccc2)[n-]1

>  <Energy>  (84) 
44.02772539525718

>  <Genealogy>  (84) 
[O-]c1ccccc1CN=c1[n-]c(=NCCO)[nH]c(=NCc2ccccc2)[n-]1 (protonated)
[O-]c1ccccc1CN=c1[n-]/c(=N\CCO)[nH]/c(=N/Cc2ccccc2)[n-]1 (cis-trans isomerization)
[O-]c1ccccc1CN=c1[n-]/c(=N\CCO)[nH]/c(=N/Cc2ccccc2)[n-]1 (3D coordinates assigned)
[O-]c1ccccc1CN=c1[n-]/c(=N\CCO)[nH]/c(=N/Cc2ccccc2)[n-]1 (optimized conformer: 44.02772539525718 kcal/mol)

>  <smiles>  (84) 
OCCN=c1[nH]c(=NCc2ccccc2)[nH]c(=NCc2ccccc2O)[nH]1

>  <score_type>  (84) 
oracle

>  <origin>  (84) 
adg

>  <m_score__min__energy>  (84) 
-13.83

>  <m_primary>  (84) 
energy

$$$$
84:0
     RDKit          3D

 59 63  0  0  0  0  0  0  0  0999 V2000
   69.2930   27.0500   49.7110 C   0  0  0  0  0  0  0  0  0  0  0  0
   68.0070   27.1620   50.4650 C   0  0  0  0  0  0  0  0  0  0  0  0
   67.1670   26.0510   50.6100 C   0  0  0  0  0  0  0  0  0  0  0  0
   65.9660   26.1890   51.3100 C   0  0  0  0  0  0  0  0  0  0  0  0
   65.6160   27.4260   51.8550 C   0  0  0  0  0  0  0  0  0  0  0  0
   66.4790   28.5170   51.6980 C   0  0  0  0  0  0  0  0  0  0  0  0
   66.1450   29.6730   52.1960 N   0  0  0  0  0  0  0  0  0  0  0  0
   66.1390   30.9280   51.4940 C   0  0  0  0  0  0  0  0  0  0  0  0
   67.1550   31.6680   51.5760 O   0  0  0  0  0  0  0  0  0  0  0  0
   65.0030   31.3540   50.6450 C   0  0  0  0  0  0  0  0  0  0  0  0
   63.7250   30.7940   50.8230 C   0  0  0  0  0  0  0  0  0  0  0  0
   62.6520   31.2170   50.0340 C   0  0  0  0  0  0  0  0  0  0  0  0
   62.8400   32.2010   49.0540 C   0  0  0  0  0  0  0  0  0  0  0  0
   61.7280   32.6400   48.2570 N   0  0  0  0  0  0  0  0  0  0  0  0
   61.4190   34.0840   48.1980 C   0  0  0  0  0  0  0  0  0  0  0  0
   60.7600   34.5000   46.8630 C   0  0  0  0  0  0  0  0  0  0  0  0
   59.7100   33.5070   46.4570 C   0  0  0  0  0  0  0  0  0  0  0  0
   58.6190   33.6090   45.6030 C   0  0  0  0  0  0  0  0  0  0  0  0
   58.1420   34.8000   44.8800 C   0  0  0  0  0  0  0  0  0  0  0  0
   56.7630   34.9630   44.5640 N   0  0  0  0  0  0  0  0  0  0  0  0
   58.9640   35.6940   44.5450 O   0  0  0  0  0  0  0  0  0  0  0  0
   58.0400   32.3930   45.4840 N   0  0  0  0  0  0  0  0  0  0  0  0
   58.7390   31.5310   46.2090 N   0  0  0  0  0  0  0  0  0  0  0  0
   58.4290   30.1330   46.2710 C   0  0  0  0  0  0  0  0  0  0  0  0
   58.4990   29.4570   47.4970 C   0  0  0  0  0  0  0  0  0  0  0  0
   58.1670   28.1010   47.5740 C   0  0  0  0  0  0  0  0  0  0  0  0
   57.7410   27.4130   46.4300 C   0  0  0  0  0  0  0  0  0  0  0  0
   57.3370   25.7010   46.5200 S   0  0  0  0  0  0  0  0  0  0  0  0
   55.6260   25.5040   46.3850 N   0  0  0  0  0  0  0  0  0  0  0  0
   57.8040   25.1390   47.8330 O   0  0  0  0  0  0  0  0  0  0  0  0
   58.0170   24.9550   45.4060 O   0  0  0  0  0  0  0  0  0  0  0  0
   57.6540   28.0920   45.2070 C   0  0  0  0  0  0  0  0  0  0  0  0
   57.9860   29.4470   45.1300 C   0  0  0  0  0  0  0  0  0  0  0  0
   59.7610   32.1860   46.8030 C   0  0  0  0  0  0  0  0  0  0  0  0
   60.7860   31.6850   47.7240 C   0  0  0  0  0  0  0  0  0  0  0  0
   60.8520   30.4660   48.0320 O   0  0  0  0  0  0  0  0  0  0  0  0
   64.1210   32.7370   48.8510 C   0  0  0  0  0  0  0  0  0  0  0  0
   65.1950   32.3130   49.6370 C   0  0  0  0  0  0  0  0  0  0  0  0
   67.6380   28.3580   50.9980 N   0  0  0  0  0  0  0  0  0  0  0  0
   70.1295   26.9771   50.4216 H   0  0  0  0  0  0  0  0  0  0  0  0
   69.2699   26.1505   49.0783 H   0  0  0  0  0  0  0  0  0  0  0  0
   69.4258   27.9400   49.0783 H   0  0  0  0  0  0  0  0  0  0  0  0
   67.4498   25.0800   50.1773 H   0  0  0  0  0  0  0  0  0  0  0  0
   65.2970   25.3244   51.4317 H   0  0  0  0  0  0  0  0  0  0  0  0
   64.6696   27.5423   52.4034 H   0  0  0  0  0  0  0  0  0  0  0  0
   63.5693   30.0187   51.5876 H   0  0  0  0  0  0  0  0  0  0  0  0
   61.6555   30.7757   50.1828 H   0  0  0  0  0  0  0  0  0  0  0  0
   60.7323   34.3307   49.0211 H   0  0  0  0  0  0  0  0  0  0  0  0
   62.3698   34.6305   48.2832 H   0  0  0  0  0  0  0  0  0  0  0  0
   60.2941   35.4892   46.9832 H   0  0  0  0  0  0  0  0  0  0  0  0
   61.5342   34.5348   46.0824 H   0  0  0  0  0  0  0  0  0  0  0  0
   56.0870   35.3220   45.2750 H   0  0  0  0  0  0  0  0  0  0  0  0
   58.8164   29.9955   48.4021 H   0  0  0  0  0  0  0  0  0  0  0  0
   58.2405   27.5725   48.5359 H   0  0  0  0  0  0  0  0  0  0  0  0
   55.2100   26.4620   46.3580 H   0  0  0  0  0  0  0  0  0  0  0  0
   57.3233   27.5564   44.3049 H   0  0  0  0  0  0  0  0  0  0  0  0
   57.8997   29.9783   44.1707 H   0  0  0  0  0  0  0  0  0  0  0  0
   64.2800   33.4945   48.0694 H   0  0  0  0  0  0  0  0  0  0  0  0
   66.1972   32.7327   49.4655 H   0  0  0  0  0  0  0  0  0  0  0  0
  1  2  1  0
  2  3  2  0
  3  4  1  0
  4  5  2  0
  5  6  1  0
  6  7  2  3
  7  8  1  0
  8  9  2  0
  8 10  1  0
 10 11  2  0
 11 12  1  0
 12 13  2  0
 13 14  1  0
 14 15  1  0
 15 16  1  0
 16 17  1  0
 17 18  1  0
 18 19  1  0
 19 20  1  0
 19 21  2  0
 18 22  2  0
 22 23  1  0
 23 24  1  0
 24 25  2  0
 25 26  1  0
 26 27  2  0
 27 28  1  0
 28 29  1  0
 28 30  2  0
 28 31  2  0
 27 32  1  0
 32 33  2  0
 23 34  1  0
 34 35  1  0
 35 36  2  0
 13 37  1  0
 37 38  2  0
  6 39  1  0
 39  2  1  0
 38 10  1  0
 35 14  1  0
 34 17  2  0
 33 24  1  0
  1 40  1  0
  1 41  1  0
  1 42  1  0
  3 43  1  0
  4 44  1  0
  5 45  1  0
 11 46  1  0
 12 47  1  0
 15 48  1  0
 15 49  1  0
 16 50  1  0
 16 51  1  0
 20 52  1  0
 25 53  1  0
 26 54  1  0
 29 55  1  0
 32 56  1  0
 33 57  1  0
 37 58  1  0
 38 59  1  0
M  CHG  3  20  -1  29  -1  39  -1
M  END
>  <UniqueID>  (85) 
81

>  <SMILES>  (85) 
Cc1cccc(=NC(=O)c2ccc(N3CCc4c(C([NH-])=O)nn(-c5ccc(S([NH-])(=O)=O)cc5)c4C3=O)cc2)[n-]1

>  <Energy>  (85) 
119.2919512301304

>  <Genealogy>  (85) 
Cc1cccc(=NC(=O)c2ccc(N3CCc4c(C([NH-])=O)nn(-c5ccc(S([NH-])(=O)=O)cc5)c4C3=O)cc2)[n-]1 (protonated)
Cc1cccc(=NC(=O)c2ccc(N3CCc4c(C([NH-])=O)nn(-c5ccc(S([NH-])(=O)=O)cc5)c4C3=O)cc2)[n-]1 (3D coordinates assigned)
Cc1cccc(=NC(=O)c2ccc(N3CCc4c(C([NH-])=O)nn(-c5ccc(S([NH-])(=O)=O)cc5)c4C3=O)cc2)[n-]1 (nonaromatic ring conformer: 119.2919512301304 kcal/mol)

>  <smiles>  (85) 
Cc1cccc(=NC(=O)c2ccc(N3CCc4c(C(N)=O)nn(-c5ccc(S(N)(=O)=O)cc5)c4C3=O)cc2)[nH]1

>  <score_type>  (85) 
oracle

>  <origin>  (85) 
adg

>  <m_score__min__energy>  (85) 
-12.52

>  <m_primary>  (85) 
energy

$$$$
85:0
     RDKit          3D

 52 55  0  0  0  0  0  0  0  0999 V2000
   59.5679   27.6467   48.2525 H   0  0  0  0  0  0  0  0  0  0  0  0
   59.0690   26.9080   47.6080 C   0  0  0  0  0  0  0  0  0  0  0  0
   59.0471   25.8480   47.9011 H   0  0  0  0  0  0  0  0  0  0  0  0
   58.4870   27.3000   46.4640 C   0  0  0  0  0  0  0  0  0  0  0  0
   57.8090   26.5010   45.5240 C   0  0  0  0  0  0  0  0  0  0  0  0
   57.4940   25.1900   45.5310 C   0  0  0  0  0  0  0  0  0  0  0  0
   58.3175   24.4757   45.6785 H   0  0  0  0  0  0  0  0  0  0  0  0
   56.1410   24.6320   45.3580 C   0  0  0  0  0  0  0  0  0  0  0  0
   55.0090   25.4180   45.6200 C   0  0  0  0  0  0  0  0  0  0  0  0
   55.1440   26.7470   46.0070 O   0  0  0  0  0  0  0  0  0  0  0  0
   53.7680   24.8830   45.4850 N   0  0  0  0  0  0  0  0  0  0  0  0
   53.5990   23.5890   45.1110 C   0  0  0  0  0  0  0  0  0  0  0  0
   52.4400   23.1200   44.9830 O   0  0  0  0  0  0  0  0  0  0  0  0
   54.6810   22.8000   44.8770 N   0  0  0  0  0  0  0  0  0  0  0  0
   55.9430   23.2880   44.9990 C   0  0  0  0  0  0  0  0  0  0  0  0
   56.9240   22.5260   44.7880 O   0  0  0  0  0  0  0  0  0  0  0  0
   57.4590   27.3420   44.4800 C   0  0  0  0  0  0  0  0  0  0  0  0
   56.9314   27.0565   43.5579 H   0  0  0  0  0  0  0  0  0  0  0  0
   57.8980   28.6050   44.8170 C   0  0  0  0  0  0  0  0  0  0  0  0
   57.7170   29.8280   43.9680 C   0  0  0  0  0  0  0  0  0  0  0  0
   57.5868   30.7078   44.6154 H   0  0  0  0  0  0  0  0  0  0  0  0
   58.6042   29.9681   43.3330 H   0  0  0  0  0  0  0  0  0  0  0  0
   56.8273   29.7051   43.3330 H   0  0  0  0  0  0  0  0  0  0  0  0
   58.5130   28.5830   46.0190 N   0  0  0  0  0  0  0  0  0  0  0  0
   59.1420   29.7110   46.6520 C   0  0  0  0  0  0  0  0  0  0  0  0
   60.3610   30.2040   46.1640 C   0  0  0  0  0  0  0  0  0  0  0  0
   60.8348   29.7292   45.2922 H   0  0  0  0  0  0  0  0  0  0  0  0
   60.9760   31.2970   46.7820 C   0  0  0  0  0  0  0  0  0  0  0  0
   61.9330   31.6786   46.3965 H   0  0  0  0  0  0  0  0  0  0  0  0
   60.3760   31.9070   47.8910 C   0  0  0  0  0  0  0  0  0  0  0  0
   61.0300   33.0520   48.5550 C   0  0  0  0  0  0  0  0  0  0  0  0
   60.5100   34.1920   48.3970 O   0  0  0  0  0  0  0  0  0  0  0  0
   62.2760   32.9280   49.2960 N   0  0  0  0  0  0  0  0  0  0  0  0
   62.2740   33.6950   50.0100 H   0  0  0  0  0  0  0  0  0  0  0  0
   63.4780   33.0940   48.4490 C   0  0  0  0  0  0  0  0  0  0  0  0
   63.5117   32.2780   47.7121 H   0  0  0  0  0  0  0  0  0  0  0  0
   63.4154   34.0712   47.9477 H   0  0  0  0  0  0  0  0  0  0  0  0
   64.7730   33.0630   49.2930 C   0  0  0  0  0  0  0  0  0  0  0  0
   65.5539   32.5447   48.7172 H   0  0  0  0  0  0  0  0  0  0  0  0
   65.0469   34.1055   49.5123 H   0  0  0  0  0  0  0  0  0  0  0  0
   64.6050   32.3720   50.5830 N   0  0  0  0  0  0  0  0  0  0  0  0
   64.1840   33.0320   51.2810 H   0  0  0  0  0  0  0  0  0  0  0  0
   63.7270   31.2060   50.4470 C   0  0  0  0  0  0  0  0  0  0  0  0
   64.1546   30.5213   49.6998 H   0  0  0  0  0  0  0  0  0  0  0  0
   63.6499   30.7146   51.4281 H   0  0  0  0  0  0  0  0  0  0  0  0
   62.3080   31.6180   49.9970 C   0  0  0  0  0  0  0  0  0  0  0  0
   61.9191   30.8468   49.3158 H   0  0  0  0  0  0  0  0  0  0  0  0
   61.6920   31.7158   50.9031 H   0  0  0  0  0  0  0  0  0  0  0  0
   59.1480   31.4270   48.3700 C   0  0  0  0  0  0  0  0  0  0  0  0
   58.6664   31.9125   49.2316 H   0  0  0  0  0  0  0  0  0  0  0  0
   58.5360   30.3320   47.7530 C   0  0  0  0  0  0  0  0  0  0  0  0
   57.5747   29.9560   48.1331 H   0  0  0  0  0  0  0  0  0  0  0  0
  1  2  1  0
  2  3  1  0
  2  4  2  0
  4  5  1  0
  5  6  2  0
  6  7  1  0
  6  8  1  0
  8  9  2  0
  9 10  1  0
  9 11  1  0
 11 12  1  0
 12 13  2  0
 12 14  1  0
 14 15  1  0
 15 16  2  0
  5 17  1  0
 17 18  1  0
 17 19  2  0
 19 20  1  0
 20 21  1  0
 20 22  1  0
 20 23  1  0
 19 24  1  0
 24 25  1  0
 25 26  2  0
 26 27  1  0
 26 28  1  0
 28 29  1  0
 28 30  2  0
 30 31  1  0
 31 32  2  0
 31 33  1  0
 33 34  1  0
 33 35  1  0
 35 36  1  0
 35 37  1  0
 35 38  1  0
 38 39  1  0
 38 40  1  0
 38 41  1  0
 41 42  1  0
 41 43  1  0
 43 44  1  0
 43 45  1  0
 43 46  1  0
 46 47  1  0
 46 48  1  0
 30 49  1  0
 49 50  1  0
 49 51  2  0
 51 52  1  0
 24  4  1  0
 51 25  1  0
 15  8  1  0
 46 33  1  0
M  CHG  4  10  -1  11  -1  14  -1  33   1
M  END
>  <UniqueID>  (86) 
82

>  <SMILES>  (86) 
C=c1/c(=C\c2c([O-])[n-]c(=O)[n-]c2=O)cc(C)n1-c1ccc(C(=O)[NH+]2CCNCC2)cc1

>  <Energy>  (86) 
124.63616849284769

>  <Genealogy>  (86) 
C=c1c(=Cc2c([O-])[n-]c(=O)[n-]c2=O)cc(C)n1-c1ccc(C(=O)[NH+]2CCNCC2)cc1 (protonated)
C=c1/c(=C\c2c([O-])[n-]c(=O)[n-]c2=O)cc(C)n1-c1ccc(C(=O)[NH+]2CCNCC2)cc1 (cis-trans isomerization)
C=c1/c(=C\c2c([O-])[n-]c(=O)[n-]c2=O)cc(C)n1-c1ccc(C(=O)[NH+]2CCNCC2)cc1 (3D coordinates assigned)
C=c1/c(=C\c2c([O-])[n-]c(=O)[n-]c2=O)cc(C)n1-c1ccc(C(=O)[NH+]2CCNCC2)cc1 (nonaromatic ring conformer: 124.63616849284769 kcal/mol)

>  <smiles>  (86) 
C=c1c(=Cc2c(O)[nH]c(=O)[nH]c2=O)cc(C)n1-c1ccc(C(=O)N2CCNCC2)cc1

>  <score_type>  (86) 
oracle

>  <origin>  (86) 
adg

>  <m_score__min__energy>  (86) 
-14.890000000000001

>  <m_primary>  (86) 
energy

$$$$
86:0
     RDKit          3D

 27 28  0  0  0  0  0  0  0  0999 V2000
   61.1829   30.7588   47.1666 H   0  0  0  0  0  0  0  0  0  0  0  0
   60.5310   31.5470   46.7620 C   0  0  0  0  0  0  0  0  0  0  0  0
   59.3070   31.2270   46.2670 N   0  0  0  0  0  0  0  0  0  0  0  0
   58.4540   32.1550   45.7540 C   0  0  0  0  0  0  0  0  0  0  0  0
   57.2970   31.7350   45.3190 N   0  0  0  0  0  0  0  0  0  0  0  0
   57.0030   30.6780   44.3940 C   0  0  0  0  0  0  0  0  0  0  0  0
   56.7880   30.9350   43.1770 O   0  0  0  0  0  0  0  0  0  0  0  0
   56.8340   29.3080   44.8930 C   0  0  0  0  0  0  0  0  0  0  0  0
   55.6320   28.7720   45.1900 N   0  0  0  0  0  0  0  0  0  0  0  0
   55.9090   27.5230   45.6100 C   0  0  0  0  0  0  0  0  0  0  0  0
   54.9330   26.6240   46.0180 O   0  0  0  0  0  0  0  0  0  0  0  0
   57.2590   27.2560   45.5870 C   0  0  0  0  0  0  0  0  0  0  0  0
   57.7559   26.3186   45.8774 H   0  0  0  0  0  0  0  0  0  0  0  0
   57.8580   28.4060   45.1250 C   0  0  0  0  0  0  0  0  0  0  0  0
   58.9341   28.5743   44.9711 H   0  0  0  0  0  0  0  0  0  0  0  0
   58.8830   33.5060   45.6820 C   0  0  0  0  0  0  0  0  0  0  0  0
   58.1330   34.4980   45.0610 O   0  0  0  0  0  0  0  0  0  0  0  0
   60.1320   33.8520   46.2050 C   0  0  0  0  0  0  0  0  0  0  0  0
   60.4628   34.9008   46.1810 H   0  0  0  0  0  0  0  0  0  0  0  0
   60.9630   32.8750   46.7580 C   0  0  0  0  0  0  0  0  0  0  0  0
   62.5500   33.3020   47.3870 S   0  0  0  0  0  0  0  0  0  0  0  0
   63.2430   34.2340   46.4340 O   0  0  0  0  0  0  0  0  0  0  0  0
   63.3860   32.0620   47.5410 O   0  0  0  0  0  0  0  0  0  0  0  0
   62.3670   34.0950   48.9670 C   0  0  0  0  0  0  0  0  0  0  0  0
   62.5366   33.3602   49.7679 H   0  0  0  0  0  0  0  0  0  0  0  0
   63.1007   34.9097   49.0555 H   0  0  0  0  0  0  0  0  0  0  0  0
   61.3504   34.5058   49.0555 H   0  0  0  0  0  0  0  0  0  0  0  0
  1  2  1  0
  2  3  1  0
  3  4  1  0
  4  5  2  0
  5  6  1  0
  6  7  2  0
  6  8  1  0
  8  9  1  0
  9 10  1  0
 10 11  1  0
 10 12  2  0
 12 13  1  0
 12 14  1  0
 14 15  1  0
  4 16  1  0
 16 17  1  0
 16 18  2  0
 18 19  1  0
 18 20  1  0
 20 21  1  0
 21 22  2  0
 21 23  2  0
 21 24  1  0
 24 25  1  0
 24 26  1  0
 24 27  1  0
 20  2  2  0
 14  8  2  0
M  CHG  4   3  -1   9  -1  11  -1  17  -1
M  END
>  <UniqueID>  (87) 
83

>  <SMILES>  (87) 
CS(=O)(=O)c1c[n-]/c(=N/C(=O)c2ccc([O-])[n-]2)c([O-])c1

>  <Energy>  (87) 
61.80417487309247

>  <Genealogy>  (87) 
CS(=O)(=O)c1c[n-]c(=NC(=O)c2ccc([O-])[n-]2)c([O-])c1 (protonated)
CS(=O)(=O)c1c[n-]/c(=N/C(=O)c2ccc([O-])[n-]2)c([O-])c1 (cis-trans isomerization)
CS(=O)(=O)c1c[n-]/c(=N/C(=O)c2ccc([O-])[n-]2)c([O-])c1 (3D coordinates assigned)
CS(=O)(=O)c1c[n-]/c(=N/C(=O)c2ccc([O-])[n-]2)c([O-])c1 (optimized conformer: 61.80417487309247 kcal/mol)

>  <smiles>  (87) 
CS(=O)(=O)c1c[nH]c(=NC(=O)c2ccc(O)[nH]2)c(O)c1

>  <score_type>  (87) 
oracle

>  <origin>  (87) 
adg

>  <m_score__min__energy>  (87) 
-15.449999999999999

>  <m_primary>  (87) 
energy

$$$$
87:0
     RDKit          3D

 51 53  0  0  0  0  0  0  0  0999 V2000
   55.4800   29.1120   44.8760 O   0  0  0  0  0  0  0  0  0  0  0  0
   56.5450   29.3100   44.2310 C   0  0  0  0  0  0  0  0  0  0  0  0
   56.8690   30.7010   43.7580 C   0  0  0  0  0  0  0  0  0  0  0  0
   56.7670   31.6650   44.8490 N   0  0  0  0  0  0  0  0  0  0  0  0
   57.7670   31.8180   45.8630 C   0  0  0  0  0  0  0  0  0  0  0  0
   58.0830   30.8330   46.5830 O   0  0  0  0  0  0  0  0  0  0  0  0
   58.4750   33.1090   46.0350 C   0  0  0  0  0  0  0  0  0  0  0  0
   58.6530   33.9350   44.9090 C   0  0  0  0  0  0  0  0  0  0  0  0
   59.2940   35.1700   45.0250 C   0  0  0  0  0  0  0  0  0  0  0  0
   59.7740   35.5950   46.2630 C   0  0  0  0  0  0  0  0  0  0  0  0
   59.6210   34.7830   47.3870 C   0  0  0  0  0  0  0  0  0  0  0  0
   58.9800   33.5410   47.2870 C   0  0  0  0  0  0  0  0  0  0  0  0
   58.9190   32.4630   48.8740 Br  0  0  0  0  0  0  0  0  0  0  0  0
   57.3680   28.1760   43.9130 N   0  0  0  0  0  0  0  0  0  0  0  0
   57.9850   27.2130   44.8300 C   0  0  2  0  0  0  0  0  0  0  0  0
   56.9560   26.2660   45.4210 C   0  0  0  0  0  0  0  0  0  0  0  0
   56.2220   26.6590   46.3700 O   0  0  0  0  0  0  0  0  0  0  0  0
   56.7900   24.9280   44.9050 N   0  0  0  0  0  0  0  0  0  0  0  0
   57.1190   24.6270   43.5010 C   0  0  0  0  0  0  0  0  0  0  0  0
   56.6930   23.2060   43.1120 C   0  0  0  0  0  0  0  0  0  0  0  0
   57.2200   22.1810   44.1240 C   0  0  0  0  0  0  0  0  0  0  0  0
   56.9410   22.5650   45.5950 C   0  0  0  0  0  0  0  0  0  0  0  0
   56.1810   23.8890   45.7490 C   0  0  0  0  0  0  0  0  0  0  0  0
   58.8640   27.9210   45.8500 C   0  0  0  0  0  0  0  0  0  0  0  0
   59.8720   28.7830   45.3820 C   0  0  0  0  0  0  0  0  0  0  0  0
   60.7030   29.4610   46.2790 C   0  0  0  0  0  0  0  0  0  0  0  0
   60.5360   29.2890   47.6550 C   0  0  0  0  0  0  0  0  0  0  0  0
   59.5380   28.4410   48.1360 C   0  0  0  0  0  0  0  0  0  0  0  0
   58.7040   27.7610   47.2430 C   0  0  0  0  0  0  0  0  0  0  0  0
   57.8947   30.7154   43.3608 H   0  0  0  0  0  0  0  0  0  0  0  0
   56.1473   30.9808   42.9765 H   0  0  0  0  0  0  0  0  0  0  0  0
   58.2832   33.6039   43.9274 H   0  0  0  0  0  0  0  0  0  0  0  0
   59.4205   35.8086   44.1383 H   0  0  0  0  0  0  0  0  0  0  0  0
   60.2735   36.5709   46.3535 H   0  0  0  0  0  0  0  0  0  0  0  0
   60.0069   35.1206   48.3602 H   0  0  0  0  0  0  0  0  0  0  0  0
   58.6657   26.5614   44.2625 H   0  0  0  0  0  0  0  0  0  0  0  0
   56.5990   25.3459   42.8508 H   0  0  0  0  0  0  0  0  0  0  0  0
   58.2096   24.7039   43.3797 H   0  0  0  0  0  0  0  0  0  0  0  0
   55.5946   23.1538   43.0851 H   0  0  0  0  0  0  0  0  0  0  0  0
   57.1128   22.9714   42.1227 H   0  0  0  0  0  0  0  0  0  0  0  0
   56.7400   21.2125   43.9202 H   0  0  0  0  0  0  0  0  0  0  0  0
   58.3125   22.1398   44.0027 H   0  0  0  0  0  0  0  0  0  0  0  0
   56.3434   21.7649   46.0562 H   0  0  0  0  0  0  0  0  0  0  0  0
   57.9168   22.6933   46.0863 H   0  0  0  0  0  0  0  0  0  0  0  0
   55.1335   23.7435   45.4464 H   0  0  0  0  0  0  0  0  0  0  0  0
   56.2284   24.2087   46.8004 H   0  0  0  0  0  0  0  0  0  0  0  0
   60.0079   28.9251   44.2997 H   0  0  0  0  0  0  0  0  0  0  0  0
   61.4893   30.1307   45.9006 H   0  0  0  0  0  0  0  0  0  0  0  0
   61.1914   29.8222   48.3595 H   0  0  0  0  0  0  0  0  0  0  0  0
   59.4069   28.3070   49.2199 H   0  0  0  0  0  0  0  0  0  0  0  0
   57.9172   27.0963   47.6292 H   0  0  0  0  0  0  0  0  0  0  0  0
  1  2  2  0
  2  3  1  0
  3  4  1  0
  4  5  1  0
  5  6  2  0
  5  7  1  0
  7  8  2  0
  8  9  1  0
  9 10  2  0
 10 11  1  0
 11 12  2  0
 12 13  1  0
  2 14  1  0
 14 15  1  0
 15 16  1  0
 16 17  2  0
 16 18  1  0
 18 19  1  0
 19 20  1  0
 20 21  1  0
 21 22  1  0
 22 23  1  0
 15 24  1  0
 24 25  2  0
 25 26  1  0
 26 27  2  0
 27 28  1  0
 28 29  2  0
 12  7  1  0
 23 18  1  0
 29 24  1  0
  3 30  1  0
  3 31  1  0
  8 32  1  0
  9 33  1  0
 10 34  1  0
 11 35  1  0
 15 36  1  6
 19 37  1  0
 19 38  1  0
 20 39  1  0
 20 40  1  0
 21 41  1  0
 21 42  1  0
 22 43  1  0
 22 44  1  0
 23 45  1  0
 23 46  1  0
 25 47  1  0
 26 48  1  0
 27 49  1  0
 28 50  1  0
 29 51  1  0
M  CHG  2   4  -1  14  -1
M  END
>  <UniqueID>  (88) 
84

>  <SMILES>  (88) 
O=C(C[N-]C(=O)c1ccccc1Br)[N-][C@H](C(=O)N1CCCCC1)c1ccccc1

>  <Energy>  (88) 
59.015295257434374

>  <Genealogy>  (88) 
O=C(C[N-]C(=O)c1ccccc1Br)[N-]C(C(=O)N1CCCCC1)c1ccccc1 (protonated)
O=C(C[N-]C(=O)c1ccccc1Br)[N-][C@H](C(=O)N1CCCCC1)c1ccccc1 (chirality)
O=C(C[N-]C(=O)c1ccccc1Br)[N-][C@H](C(=O)N1CCCCC1)c1ccccc1 (3D coordinates assigned)
O=C(C[N-]C(=O)c1ccccc1Br)[N-][C@H](C(=O)N1CCCCC1)c1ccccc1 (nonaromatic ring conformer: 59.015295257434374 kcal/mol)

>  <smiles>  (88) 
O=C(CNC(=O)c1ccccc1Br)NC(C(=O)N1CCCCC1)c1ccccc1

>  <score_type>  (88) 
oracle

>  <origin>  (88) 
adg

>  <m_score__min__energy>  (88) 
-12.890000000000001

>  <m_primary>  (88) 
energy

$$$$
88:0
     RDKit          3D

 38 40  0  0  0  0  0  0  0  0999 V2000
   56.8530   34.2290   45.6020 O   0  0  0  0  0  0  0  0  0  0  0  0
   58.0640   33.9370   45.7900 C   0  0  0  0  0  0  0  0  0  0  0  0
   58.6250   32.6780   45.2150 C   0  0  0  0  0  0  0  0  0  0  0  0
   57.7510   32.2200   43.6780 S   0  0  0  0  0  0  0  0  0  0  0  0
   57.0140   30.7280   44.3560 C   0  0  0  0  0  0  0  0  0  0  0  0
   55.6860   30.5050   44.3790 N   0  0  0  0  0  0  0  0  0  0  0  0
   55.5030   29.3110   44.9250 N   0  0  0  0  0  0  0  0  0  0  0  0
   56.7220   28.8290   45.2220 C   0  0  0  0  0  0  0  0  0  0  0  0
   56.9630   27.3570   45.8980 S   0  0  0  0  0  0  0  0  0  0  0  0
   57.7000   29.6950   44.8850 N   0  0  0  0  0  0  0  0  0  0  0  0
   59.1520   29.5140   44.9500 C   0  0  0  0  0  0  0  0  0  0  0  0
   59.6560   29.9230   46.2960 C   0  0  0  0  0  0  0  0  0  0  0  0
   60.9790   30.1190   46.6370 C   0  0  0  0  0  0  0  0  0  0  0  0
   60.9640   30.5200   47.9570 C   0  0  0  0  0  0  0  0  0  0  0  0
   59.6360   30.5480   48.3330 C   0  0  0  0  0  0  0  0  0  0  0  0
   58.8800   30.1900   47.3200 O   0  0  0  0  0  0  0  0  0  0  0  0
   58.8850   34.7530   46.5710 O   0  0  0  0  0  0  0  0  0  0  0  0
   59.2760   34.4170   47.8970 C   0  0  0  0  0  0  0  0  0  0  0  0
   60.7430   34.1040   47.9070 C   0  0  0  0  0  0  0  0  0  0  0  0
   61.4140   33.8280   46.7050 C   0  0  0  0  0  0  0  0  0  0  0  0
   62.7680   33.4800   46.7190 C   0  0  0  0  0  0  0  0  0  0  0  0
   63.4560   33.3910   47.9320 C   0  0  0  0  0  0  0  0  0  0  0  0
   62.7900   33.6480   49.1330 C   0  0  0  0  0  0  0  0  0  0  0  0
   61.4370   34.0000   49.1230 C   0  0  0  0  0  0  0  0  0  0  0  0
   59.6918   32.8275   44.9922 H   0  0  0  0  0  0  0  0  0  0  0  0
   58.4964   31.8680   45.9481 H   0  0  0  0  0  0  0  0  0  0  0  0
   59.3958   28.4556   44.7754 H   0  0  0  0  0  0  0  0  0  0  0  0
   59.6294   30.1376   44.1798 H   0  0  0  0  0  0  0  0  0  0  0  0
   61.8599   29.9839   45.9921 H   0  0  0  0  0  0  0  0  0  0  0  0
   61.8340   30.7673   48.5830 H   0  0  0  0  0  0  0  0  0  0  0  0
   59.2665   30.8279   49.3306 H   0  0  0  0  0  0  0  0  0  0  0  0
   59.0750   35.2657   48.5674 H   0  0  0  0  0  0  0  0  0  0  0  0
   58.7061   33.5421   48.2430 H   0  0  0  0  0  0  0  0  0  0  0  0
   60.8727   33.8857   45.7492 H   0  0  0  0  0  0  0  0  0  0  0  0
   63.2925   33.2760   45.7738 H   0  0  0  0  0  0  0  0  0  0  0  0
   64.5217   33.1187   47.9413 H   0  0  0  0  0  0  0  0  0  0  0  0
   63.3310   33.5733   50.0879 H   0  0  0  0  0  0  0  0  0  0  0  0
   60.9145   34.1961   50.0709 H   0  0  0  0  0  0  0  0  0  0  0  0
  1  2  2  0
  2  3  1  0
  3  4  1  0
  4  5  1  0
  5  6  2  0
  6  7  1  0
  7  8  1  0
  8  9  2  0
  8 10  1  0
 10 11  1  0
 11 12  1  0
 12 13  2  0
 13 14  1  0
 14 15  2  0
 15 16  1  0
  2 17  1  0
 17 18  1  0
 18 19  1  0
 19 20  2  0
 20 21  1  0
 21 22  2  0
 22 23  1  0
 23 24  2  0
 10  5  1  0
 16 12  1  0
 24 19  1  0
  3 25  1  0
  3 26  1  0
 11 27  1  0
 11 28  1  0
 13 29  1  0
 14 30  1  0
 15 31  1  0
 18 32  1  0
 18 33  1  0
 20 34  1  0
 21 35  1  0
 22 36  1  0
 23 37  1  0
 24 38  1  0
M  CHG  1   7  -1
M  END
>  <UniqueID>  (89) 
85

>  <SMILES>  (89) 
O=C(CSc1n[n-]c(=S)n1Cc1ccco1)OCc1ccccc1

>  <Energy>  (89) 
90.79483775706449

>  <Genealogy>  (89) 
O=C(CSc1n[n-]c(=S)n1Cc1ccco1)OCc1ccccc1 (protonated)
O=C(CSc1n[n-]c(=S)n1Cc1ccco1)OCc1ccccc1 (3D coordinates assigned)
O=C(CSc1n[n-]c(=S)n1Cc1ccco1)OCc1ccccc1 (optimized conformer: 90.79483775706449 kcal/mol)

>  <smiles>  (89) 
O=C(CSc1n[nH]c(=S)n1Cc1ccco1)OCc1ccccc1

>  <score_type>  (89) 
oracle

>  <origin>  (89) 
adg

>  <m_score__min__energy>  (89) 
-10.73

>  <m_primary>  (89) 
energy

$$$$
89:0
     RDKit          3D

 49 51  0  0  0  0  0  0  0  0999 V2000
   65.7500   32.9710   50.1090 C   0  0  0  0  0  0  0  0  0  0  0  0
   64.5050   32.7130   49.5010 O   0  0  0  0  0  0  0  0  0  0  0  0
   63.5110   33.5060   50.1160 C   0  0  0  0  0  0  0  0  0  0  0  0
   63.0110   34.5520   49.1190 C   0  0  0  0  0  0  0  0  0  0  0  0
   61.9210   34.0070   48.2990 N   0  0  0  0  0  0  0  0  0  0  0  0
   60.6170   33.7180   48.9040 C   0  0  0  0  0  0  0  0  0  0  0  0
   59.4770   34.1020   47.9510 C   0  0  0  0  0  0  0  0  0  0  0  0
   59.5980   33.4190   46.5580 C   0  0  0  0  0  0  0  0  0  0  0  0
   58.6460   34.1470   45.5640 C   0  0  0  0  0  0  0  0  0  0  0  0
   58.1720   33.2080   44.4530 C   0  0  0  0  0  0  0  0  0  0  0  0
   57.3530   32.1070   45.0120 N   0  0  0  0  0  0  0  0  0  0  0  0
   57.0410   31.0370   44.0370 C   0  0  0  0  0  0  0  0  0  0  0  0
   57.4800   29.6530   44.4820 C   0  0  0  0  0  0  0  0  0  0  0  0
   58.8480   29.3270   44.5260 C   0  0  0  0  0  0  0  0  0  0  0  0
   59.2630   28.0560   44.9320 C   0  0  0  0  0  0  0  0  0  0  0  0
   58.3190   27.0990   45.3090 C   0  0  0  0  0  0  0  0  0  0  0  0
   56.9600   27.4130   45.2900 C   0  0  0  0  0  0  0  0  0  0  0  0
   56.5350   28.6860   44.8910 C   0  0  0  0  0  0  0  0  0  0  0  0
   55.1750   28.9820   44.9060 O   0  0  0  0  0  0  0  0  0  0  0  0
   57.7680   31.6260   46.3540 C   0  0  0  0  0  0  0  0  0  0  0  0
   59.2530   31.8980   46.6370 C   0  0  0  0  0  0  0  0  0  0  0  0
   60.9670   33.5560   46.0520 N   0  0  0  0  0  0  0  0  0  0  0  0
   62.1020   33.7840   46.8910 C   0  0  0  0  0  0  0  0  0  0  0  0
   63.2510   33.8200   46.3780 O   0  0  0  0  0  0  0  0  0  0  0  0
   65.6358   32.9473   51.2028 H   0  0  0  0  0  0  0  0  0  0  0  0
   66.4752   32.2041   49.7994 H   0  0  0  0  0  0  0  0  0  0  0  0
   66.1107   33.9630   49.7994 H   0  0  0  0  0  0  0  0  0  0  0  0
   62.6725   32.8666   50.4293 H   0  0  0  0  0  0  0  0  0  0  0  0
   63.9344   34.0097   50.9975 H   0  0  0  0  0  0  0  0  0  0  0  0
   62.6439   35.4302   49.6704 H   0  0  0  0  0  0  0  0  0  0  0  0
   63.8428   34.8372   48.4581 H   0  0  0  0  0  0  0  0  0  0  0  0
   60.5535   32.6428   49.1275 H   0  0  0  0  0  0  0  0  0  0  0  0
   60.5183   34.3075   49.8274 H   0  0  0  0  0  0  0  0  0  0  0  0
   58.5219   33.8026   48.4072 H   0  0  0  0  0  0  0  0  0  0  0  0
   59.5309   35.1891   47.7920 H   0  0  0  0  0  0  0  0  0  0  0  0
   57.7700   34.5192   46.1155 H   0  0  0  0  0  0  0  0  0  0  0  0
   59.1992   34.9777   45.1015 H   0  0  0  0  0  0  0  0  0  0  0  0
   57.5673   33.7778   43.7321 H   0  0  0  0  0  0  0  0  0  0  0  0
   59.0527   32.7761   43.9551 H   0  0  0  0  0  0  0  0  0  0  0  0
   55.9528   31.0206   43.8770 H   0  0  0  0  0  0  0  0  0  0  0  0
   57.5991   31.2693   43.1180 H   0  0  0  0  0  0  0  0  0  0  0  0
   59.5973   30.0792   44.2383 H   0  0  0  0  0  0  0  0  0  0  0  0
   60.3347   27.8092   44.9546 H   0  0  0  0  0  0  0  0  0  0  0  0
   58.6471   26.0966   45.6213 H   0  0  0  0  0  0  0  0  0  0  0  0
   56.2191   26.6573   45.5898 H   0  0  0  0  0  0  0  0  0  0  0  0
   57.1629   32.1386   47.1163 H   0  0  0  0  0  0  0  0  0  0  0  0
   57.6135   30.5373   46.3840 H   0  0  0  0  0  0  0  0  0  0  0  0
   59.4946   31.5316   47.6457 H   0  0  0  0  0  0  0  0  0  0  0  0
   59.8446   31.3766   45.8701 H   0  0  0  0  0  0  0  0  0  0  0  0
  1  2  1  0
  2  3  1  0
  3  4  1  0
  4  5  1  0
  5  6  1  0
  6  7  1  0
  7  8  1  0
  8  9  1  0
  9 10  1  0
 10 11  1  0
 11 12  1  0
 12 13  1  0
 13 14  2  0
 14 15  1  0
 15 16  2  0
 16 17  1  0
 17 18  2  0
 18 19  1  0
 11 20  1  0
 20 21  1  0
  8 22  1  0
 22 23  1  0
 23 24  2  0
 23  5  1  0
 21  8  1  0
 18 13  1  0
  1 25  1  0
  1 26  1  0
  1 27  1  0
  3 28  1  0
  3 29  1  0
  4 30  1  0
  4 31  1  0
  6 32  1  0
  6 33  1  0
  7 34  1  0
  7 35  1  0
  9 36  1  0
  9 37  1  0
 10 38  1  0
 10 39  1  0
 12 40  1  0
 12 41  1  0
 14 42  1  0
 15 43  1  0
 16 44  1  0
 17 45  1  0
 20 46  1  0
 20 47  1  0
 21 48  1  0
 21 49  1  0
M  CHG  2  19  -1  22  -1
M  END
>  <UniqueID>  (90) 
86

>  <SMILES>  (90) 
COCCN1CCC2(CCN(Cc3ccccc3[O-])CC2)[N-]C1=O

>  <Energy>  (90) 
59.579312741244024

>  <Genealogy>  (90) 
COCCN1CCC2(CCN(Cc3ccccc3[O-])CC2)[N-]C1=O (protonated)
COCCN1CCC2(CCN(Cc3ccccc3[O-])CC2)[N-]C1=O (3D coordinates assigned)
COCCN1CCC2(CCN(Cc3ccccc3[O-])CC2)[N-]C1=O (nonaromatic ring conformer: 59.579312741244024 kcal/mol)

>  <smiles>  (90) 
COCCN1CCC2(CCN(Cc3ccccc3O)CC2)NC1=O

>  <score_type>  (90) 
oracle

>  <origin>  (90) 
adg

>  <m_score__min__energy>  (90) 
-12.32

>  <m_primary>  (90) 
energy

$$$$
90:0
     RDKit          3D

 39 41  0  0  0  0  0  0  0  0999 V2000
   58.4630   32.7230   48.2130 C   0  0  0  0  0  0  0  0  0  0  0  0
   58.2700   31.8040   47.1440 O   0  0  0  0  0  0  0  0  0  0  0  0
   58.3560   32.1350   45.7820 C   0  0  0  0  0  0  0  0  0  0  0  0
   58.7000   33.4330   45.3530 C   0  0  0  0  0  0  0  0  0  0  0  0
   58.7470   33.7380   43.9900 C   0  0  0  0  0  0  0  0  0  0  0  0
   58.4500   32.7580   43.0420 C   0  0  0  0  0  0  0  0  0  0  0  0
   58.1130   31.4670   43.4530 C   0  0  0  0  0  0  0  0  0  0  0  0
   58.0730   31.1450   44.8190 C   0  0  0  0  0  0  0  0  0  0  0  0
   57.7220   29.7690   45.2280 C   0  0  0  0  0  0  0  0  0  0  0  0
   58.5890   28.8610   45.8340 C   0  0  0  0  0  0  0  0  0  0  0  0
   60.0340   29.0400   46.0930 C   0  0  0  0  0  0  0  0  0  0  0  0
   60.8630   28.4850   45.3200 O   0  0  0  0  0  0  0  0  0  0  0  0
   60.5350   29.8450   47.2300 C   0  0  0  0  0  0  0  0  0  0  0  0
   60.1000   29.5900   48.5440 C   0  0  0  0  0  0  0  0  0  0  0  0
   60.5670   30.3700   49.6070 C   0  0  0  0  0  0  0  0  0  0  0  0
   61.4630   31.4170   49.3700 C   0  0  0  0  0  0  0  0  0  0  0  0
   62.0970   32.4800   50.8250 Br  0  0  0  0  0  0  0  0  0  0  0  0
   61.8880   31.6880   48.0670 C   0  0  0  0  0  0  0  0  0  0  0  0
   61.4230   30.9110   47.0010 C   0  0  0  0  0  0  0  0  0  0  0  0
   57.8410   27.7150   46.0470 C   0  0  0  0  0  0  0  0  0  0  0  0
   58.2940   26.5120   46.5750 O   0  0  0  0  0  0  0  0  0  0  0  0
   56.5690   27.9710   45.5980 C   0  0  0  0  0  0  0  0  0  0  0  0
   55.5110   27.0690   45.6280 O   0  0  0  0  0  0  0  0  0  0  0  0
   56.4840   29.2240   45.1130 N   0  0  0  0  0  0  0  0  0  0  0  0
   55.2860   29.8410   44.5450 C   0  0  0  0  0  0  0  0  0  0  0  0
   58.3526   32.1973   49.1729 H   0  0  0  0  0  0  0  0  0  0  0  0
   59.4718   33.1565   48.1463 H   0  0  0  0  0  0  0  0  0  0  0  0
   57.7138   33.5257   48.1463 H   0  0  0  0  0  0  0  0  0  0  0  0
   58.9328   34.2104   46.0955 H   0  0  0  0  0  0  0  0  0  0  0  0
   59.0187   34.7528   43.6637 H   0  0  0  0  0  0  0  0  0  0  0  0
   58.4814   33.0029   41.9701 H   0  0  0  0  0  0  0  0  0  0  0  0
   57.8775   30.6980   42.7026 H   0  0  0  0  0  0  0  0  0  0  0  0
   59.3890   28.7729   48.7360 H   0  0  0  0  0  0  0  0  0  0  0  0
   60.2285   30.1592   50.6322 H   0  0  0  0  0  0  0  0  0  0  0  0
   62.5897   32.5140   47.8791 H   0  0  0  0  0  0  0  0  0  0  0  0
   61.7543   31.1354   45.9763 H   0  0  0  0  0  0  0  0  0  0  0  0
   54.6275   30.1801   45.3582 H   0  0  0  0  0  0  0  0  0  0  0  0
   55.5759   30.7020   43.9247 H   0  0  0  0  0  0  0  0  0  0  0  0
   54.7534   29.1050   43.9247 H   0  0  0  0  0  0  0  0  0  0  0  0
  1  2  1  0
  2  3  1  0
  3  4  2  0
  4  5  1  0
  5  6  2  0
  6  7  1  0
  7  8  2  0
  8  9  1  0
  9 10  2  0
 10 11  1  0
 11 12  2  0
 11 13  1  0
 13 14  2  0
 14 15  1  0
 15 16  2  0
 16 17  1  0
 16 18  1  0
 18 19  2  0
 10 20  1  0
 20 21  1  0
 20 22  2  0
 22 23  1  0
 22 24  1  0
 24 25  1  0
  8  3  1  0
 24  9  1  0
 19 13  1  0
  1 26  1  0
  1 27  1  0
  1 28  1  0
  4 29  1  0
  5 30  1  0
  6 31  1  0
  7 32  1  0
 14 33  1  0
 15 34  1  0
 18 35  1  0
 19 36  1  0
 25 37  1  0
 25 38  1  0
 25 39  1  0
M  CHG  2  21  -1  23  -1
M  END
>  <UniqueID>  (91) 
87

>  <SMILES>  (91) 
COc1ccccc1-c1c(C(=O)c2ccc(Br)cc2)c([O-])c([O-])n1C

>  <Energy>  (91) 
81.69631188643125

>  <Genealogy>  (91) 
COc1ccccc1-c1c(C(=O)c2ccc(Br)cc2)c([O-])c([O-])n1C (protonated)
COc1ccccc1-c1c(C(=O)c2ccc(Br)cc2)c([O-])c([O-])n1C (3D coordinates assigned)
COc1ccccc1-c1c(C(=O)c2ccc(Br)cc2)c([O-])c([O-])n1C (optimized conformer: 81.69631188643125 kcal/mol)

>  <smiles>  (91) 
COc1ccccc1-c1c(C(=O)c2ccc(Br)cc2)c(O)c(O)n1C

>  <score_type>  (91) 
oracle

>  <origin>  (91) 
adg

>  <m_score__min__energy>  (91) 
-11.140000000000001

>  <m_primary>  (91) 
energy

$$$$
91:0
     RDKit          3D

 49 51  0  0  0  0  0  0  0  0999 V2000
   59.5910   27.2060   46.4500 C   0  0  0  0  0  0  0  0  0  0  0  0
   59.5130   28.1200   45.2530 C   0  0  0  0  0  0  0  0  0  0  0  0
   60.7450   28.8700   44.8040 C   0  0  0  0  0  0  0  0  0  0  0  0
   58.3210   28.2620   44.6270 C   0  0  0  0  0  0  0  0  0  0  0  0
   57.0010   28.3670   45.3440 C   0  0  0  0  0  0  0  0  0  0  0  0
   56.2730   29.4920   44.8580 O   0  0  0  0  0  0  0  0  0  0  0  0
   56.8570   30.5760   44.1830 C   0  0  0  0  0  0  0  0  0  0  0  0
   56.7220   30.7480   42.7920 C   0  0  0  0  0  0  0  0  0  0  0  0
   57.3430   31.8200   42.1410 C   0  0  0  0  0  0  0  0  0  0  0  0
   57.2120   31.9730   40.7250 N   0  0  0  0  0  0  0  0  0  0  0  0
   58.1080   32.7330   42.8780 C   0  0  0  0  0  0  0  0  0  0  0  0
   58.2620   32.5760   44.2670 C   0  0  0  0  0  0  0  0  0  0  0  0
   59.0590   33.4550   45.0290 C   0  0  0  0  0  0  0  0  0  0  0  0
   59.6260   34.4350   44.4670 O   0  0  0  0  0  0  0  0  0  0  0  0
   59.2140   33.2440   46.4170 C   0  0  0  0  0  0  0  0  0  0  0  0
   60.1110   34.0860   47.2530 C   0  0  0  0  0  0  0  0  0  0  0  0
   59.6790   34.5800   48.3330 O   0  0  0  0  0  0  0  0  0  0  0  0
   61.4680   34.3180   46.8610 N   0  0  0  0  0  0  0  0  0  0  0  0
   62.6030   33.5780   47.4040 C   0  0  0  0  0  0  0  0  0  0  0  0
   62.1100   32.2880   48.0050 C   0  0  0  0  0  0  0  0  0  0  0  0
   61.8820   32.1880   49.3880 C   0  0  0  0  0  0  0  0  0  0  0  0
   61.2780   31.0440   49.9220 C   0  0  0  0  0  0  0  0  0  0  0  0
   60.9010   29.9900   49.0780 C   0  0  0  0  0  0  0  0  0  0  0  0
   60.1100   28.5620   49.7420 Cl  0  0  0  0  0  0  0  0  0  0  0  0
   61.1360   30.0790   47.7010 C   0  0  0  0  0  0  0  0  0  0  0  0
   61.7360   31.2260   47.1660 C   0  0  0  0  0  0  0  0  0  0  0  0
   58.5240   32.1730   47.0100 C   0  0  0  0  0  0  0  0  0  0  0  0
   57.7630   31.3390   46.2580 N   0  0  0  0  0  0  0  0  0  0  0  0
   57.6180   31.5000   44.9180 C   0  0  0  0  0  0  0  0  0  0  0  0
   59.5400   27.8040   47.3719 H   0  0  0  0  0  0  0  0  0  0  0  0
   58.7501   26.4973   46.4256 H   0  0  0  0  0  0  0  0  0  0  0  0
   60.5399   26.6500   46.4256 H   0  0  0  0  0  0  0  0  0  0  0  0
   61.3073   29.2123   45.6852 H   0  0  0  0  0  0  0  0  0  0  0  0
   61.3794   28.2047   44.1999 H   0  0  0  0  0  0  0  0  0  0  0  0
   60.4454   29.7391   44.1999 H   0  0  0  0  0  0  0  0  0  0  0  0
   58.3165   28.3032   43.5278 H   0  0  0  0  0  0  0  0  0  0  0  0
   56.4170   27.4514   45.1690 H   0  0  0  0  0  0  0  0  0  0  0  0
   57.1832   28.4916   46.4216 H   0  0  0  0  0  0  0  0  0  0  0  0
   56.1221   30.0322   42.2109 H   0  0  0  0  0  0  0  0  0  0  0  0
   56.3880   31.5740   40.2200 H   0  0  0  0  0  0  0  0  0  0  0  0
   57.9500   32.4570   40.1680 H   0  0  0  0  0  0  0  0  0  0  0  0
   58.5916   33.5785   42.3669 H   0  0  0  0  0  0  0  0  0  0  0  0
   63.3189   33.3587   46.5982 H   0  0  0  0  0  0  0  0  0  0  0  0
   63.1012   34.1802   48.1781 H   0  0  0  0  0  0  0  0  0  0  0  0
   62.1794   33.0119   50.0534 H   0  0  0  0  0  0  0  0  0  0  0  0
   61.0989   30.9718   51.0049 H   0  0  0  0  0  0  0  0  0  0  0  0
   60.8495   29.2484   47.0392 H   0  0  0  0  0  0  0  0  0  0  0  0
   61.9152   31.2952   46.0829 H   0  0  0  0  0  0  0  0  0  0  0  0
   58.6018   32.0093   48.0950 H   0  0  0  0  0  0  0  0  0  0  0  0
  1  2  1  0
  2  3  1  0
  2  4  2  3
  4  5  1  0
  5  6  1  0
  6  7  1  0
  7  8  2  0
  8  9  1  0
  9 10  1  0
  9 11  2  0
 11 12  1  0
 12 13  1  0
 13 14  2  0
 13 15  1  0
 15 16  1  0
 16 17  2  0
 16 18  1  0
 18 19  1  0
 19 20  1  0
 20 21  2  0
 21 22  1  0
 22 23  2  0
 23 24  1  0
 23 25  1  0
 25 26  2  0
 15 27  2  0
 27 28  1  0
 28 29  1  0
 29  7  1  0
 29 12  2  0
 26 20  1  0
  1 30  1  0
  1 31  1  0
  1 32  1  0
  3 33  1  0
  3 34  1  0
  3 35  1  0
  4 36  1  0
  5 37  1  0
  5 38  1  0
  8 39  1  0
 10 40  1  0
 10 41  1  0
 11 42  1  0
 19 43  1  0
 19 44  1  0
 21 45  1  0
 22 46  1  0
 25 47  1  0
 26 48  1  0
 27 49  1  0
M  CHG  2  18  -1  28  -1
M  END
>  <UniqueID>  (92) 
88

>  <SMILES>  (92) 
CC(C)=CCOc1cc(N)cc2c(=O)c(C(=O)[N-]Cc3ccc(Cl)cc3)c[n-]c12

>  <Energy>  (92) 
52.820912611416546

>  <Genealogy>  (92) 
CC(C)=CCOc1cc(N)cc2c(=O)c(C(=O)[N-]Cc3ccc(Cl)cc3)c[n-]c12 (protonated)
CC(C)=CCOc1cc(N)cc2c(=O)c(C(=O)[N-]Cc3ccc(Cl)cc3)c[n-]c12 (3D coordinates assigned)
CC(C)=CCOc1cc(N)cc2c(=O)c(C(=O)[N-]Cc3ccc(Cl)cc3)c[n-]c12 (optimized conformer: 52.820912611416546 kcal/mol)

>  <smiles>  (92) 
CC(C)=CCOc1cc(N)cc2c(=O)c(C(=O)NCc3ccc(Cl)cc3)c[nH]c12

>  <score_type>  (92) 
oracle

>  <origin>  (92) 
adg

>  <m_score__min__energy>  (92) 
-11.68

>  <m_primary>  (92) 
energy

$$$$
92:0
     RDKit          3D

 57 60  0  0  0  0  0  0  0  0999 V2000
   54.3370   26.7210   46.7500 H   0  0  0  0  0  0  0  0  0  0  0  0
   54.9490   26.3460   46.0370 O   0  0  0  0  0  0  0  0  0  0  0  0
   55.9100   25.3820   46.3280 C   0  0  0  0  0  0  0  0  0  0  0  0
   55.6710   24.3240   47.1250 N   0  0  0  0  0  0  0  0  0  0  0  0
   56.8710   23.7080   47.1530 C   0  0  0  0  0  0  0  0  0  0  0  0
   57.0860   22.6530   47.8050 O   0  0  0  0  0  0  0  0  0  0  0  0
   57.7940   24.3110   46.4390 O   0  0  0  0  0  0  0  0  0  0  0  0
   57.2260   25.3640   45.9020 C   0  0  0  0  0  0  0  0  0  0  0  0
   57.9150   26.3150   45.0020 C   0  0  0  0  0  0  0  0  0  0  0  0
   58.7620   27.2540   45.4670 C   0  0  0  0  0  0  0  0  0  0  0  0
   59.6974   26.9086   45.9315 H   0  0  0  0  0  0  0  0  0  0  0  0
   58.5310   28.7140   45.4010 C   0  0  0  0  0  0  0  0  0  0  0  0
   58.6420   29.5290   46.5410 C   0  0  0  0  0  0  0  0  0  0  0  0
   58.9394   29.0869   47.5033 H   0  0  0  0  0  0  0  0  0  0  0  0
   58.3760   30.8990   46.4570 C   0  0  0  0  0  0  0  0  0  0  0  0
   58.4929   31.5352   47.3467 H   0  0  0  0  0  0  0  0  0  0  0  0
   57.9610   31.4650   45.2440 C   0  0  0  0  0  0  0  0  0  0  0  0
   57.6350   32.9000   45.1770 C   0  0  0  0  0  0  0  0  0  0  0  0
   56.6410   33.3330   45.8150 O   0  0  0  0  0  0  0  0  0  0  0  0
   58.3950   33.8130   44.3720 N   0  0  0  0  0  0  0  0  0  0  0  0
   59.2220   34.9050   44.8820 C   0  0  0  0  0  0  0  0  0  0  0  0
   60.0548   35.0830   44.1858 H   0  0  0  0  0  0  0  0  0  0  0  0
   58.6003   35.8080   44.9714 H   0  0  0  0  0  0  0  0  0  0  0  0
   59.7770   34.5620   46.2400 C   0  0  0  0  0  0  0  0  0  0  0  0
   59.0690   34.8920   47.4060 C   0  0  0  0  0  0  0  0  0  0  0  0
   58.1225   35.4474   47.3314 H   0  0  0  0  0  0  0  0  0  0  0  0
   59.5580   34.5200   48.6610 C   0  0  0  0  0  0  0  0  0  0  0  0
   58.9882   34.7755   49.5666 H   0  0  0  0  0  0  0  0  0  0  0  0
   60.7740   33.8210   48.7750 C   0  0  0  0  0  0  0  0  0  0  0  0
   61.2910   33.4240   50.1050 C   0  0  0  0  0  0  0  0  0  0  0  0
   62.1220   34.1620   50.7000 O   0  0  0  0  0  0  0  0  0  0  0  0
   60.8040   32.2310   50.7370 N   0  0  0  0  0  0  0  0  0  0  0  0
   59.4590   31.9730   51.1740 C   0  0  0  0  0  0  0  0  0  0  0  0
   58.8500   30.7190   50.9700 C   0  0  0  0  0  0  0  0  0  0  0  0
   59.4141   29.9104   50.4822 H   0  0  0  0  0  0  0  0  0  0  0  0
   57.5350   30.4960   51.3830 C   0  0  0  0  0  0  0  0  0  0  0  0
   57.0720   29.5097   51.2320 H   0  0  0  0  0  0  0  0  0  0  0  0
   56.8070   31.5220   51.9870 C   0  0  0  0  0  0  0  0  0  0  0  0
   55.7743   31.3411   52.3198 H   0  0  0  0  0  0  0  0  0  0  0  0
   57.3890   32.7780   52.1690 C   0  0  0  0  0  0  0  0  0  0  0  0
   56.8081   33.5869   52.6361 H   0  0  0  0  0  0  0  0  0  0  0  0
   58.7100   33.0150   51.7600 C   0  0  0  0  0  0  0  0  0  0  0  0
   59.2830   34.3150   51.9520 N   0  0  0  0  0  0  0  0  0  0  0  0
   58.6760   35.1380   52.1610 H   0  0  0  0  0  0  0  0  0  0  0  0
   60.3110   34.4770   51.8830 H   0  0  0  0  0  0  0  0  0  0  0  0
   61.4900   33.5090   47.6040 C   0  0  0  0  0  0  0  0  0  0  0  0
   62.4480   32.9734   47.6768 H   0  0  0  0  0  0  0  0  0  0  0  0
   60.9940   33.8740   46.3500 C   0  0  0  0  0  0  0  0  0  0  0  0
   61.5619   33.6200   45.4428 H   0  0  0  0  0  0  0  0  0  0  0  0
   57.8420   30.6530   44.1080 C   0  0  0  0  0  0  0  0  0  0  0  0
   57.5341   31.0947   43.1488 H   0  0  0  0  0  0  0  0  0  0  0  0
   58.1130   29.2840   44.1890 C   0  0  0  0  0  0  0  0  0  0  0  0
   57.9979   28.6500   43.2975 H   0  0  0  0  0  0  0  0  0  0  0  0
   57.7410   26.1770   43.5150 C   0  0  0  0  0  0  0  0  0  0  0  0
   56.8949   25.5060   43.3055 H   0  0  0  0  0  0  0  0  0  0  0  0
   57.5423   27.1657   43.0758 H   0  0  0  0  0  0  0  0  0  0  0  0
   58.6585   25.7583   43.0758 H   0  0  0  0  0  0  0  0  0  0  0  0
  1  2  1  0
  2  3  1  0
  3  4  1  0
  4  5  1  0
  5  6  2  0
  5  7  1  0
  7  8  1  0
  8  9  1  0
  9 10  2  0
 10 11  1  0
 10 12  1  0
 12 13  2  0
 13 14  1  0
 13 15  1  0
 15 16  1  0
 15 17  2  0
 17 18  1  0
 18 19  2  0
 18 20  1  0
 20 21  1  0
 21 22  1  0
 21 23  1  0
 21 24  1  0
 24 25  2  0
 25 26  1  0
 25 27  1  0
 27 28  1  0
 27 29  2  0
 29 30  1  0
 30 31  2  0
 30 32  1  0
 32 33  1  0
 33 34  2  0
 34 35  1  0
 34 36  1  0
 36 37  1  0
 36 38  2  0
 38 39  1  0
 38 40  1  0
 40 41  1  0
 40 42  2  0
 42 43  1  0
 43 44  1  0
 43 45  1  0
 29 46  1  0
 46 47  1  0
 46 48  2  0
 48 49  1  0
 17 50  1  0
 50 51  1  0
 50 52  2  0
 52 53  1  0
  9 54  1  0
 54 55  1  0
 54 56  1  0
 54 57  1  0
  8  3  2  0
 52 12  1  0
 48 24  1  0
 42 33  1  0
M  CHG  3   4  -1  20  -1  32  -1
M  END
>  <UniqueID>  (93) 
89

>  <SMILES>  (93) 
C/C(=C/c1ccc(C(=O)[N-]Cc2ccc(C(=O)[N-]c3ccccc3N)cc2)cc1)c1oc(=O)[n-]c1O

>  <Energy>  (93) 
107.49607032630072

>  <Genealogy>  (93) 
CC(=Cc1ccc(C(=O)[N-]Cc2ccc(C(=O)[N-]c3ccccc3N)cc2)cc1)c1oc(=O)[n-]c1O (protonated)
C/C(=C/c1ccc(C(=O)[N-]Cc2ccc(C(=O)[N-]c3ccccc3N)cc2)cc1)c1oc(=O)[n-]c1O (cis-trans isomerization)
C/C(=C/c1ccc(C(=O)[N-]Cc2ccc(C(=O)[N-]c3ccccc3N)cc2)cc1)c1oc(=O)[n-]c1O (3D coordinates assigned)
C/C(=C/c1ccc(C(=O)[N-]Cc2ccc(C(=O)[N-]c3ccccc3N)cc2)cc1)c1oc(=O)[n-]c1O (optimized conformer: 107.49607032630072 kcal/mol)

>  <smiles>  (93) 
CC(=Cc1ccc(C(=O)NCc2ccc(C(=O)Nc3ccccc3N)cc2)cc1)c1oc(=O)[nH]c1O

>  <score_type>  (93) 
oracle

>  <origin>  (93) 
adg

>  <m_score__min__energy>  (93) 
-14.460000000000001

>  <m_primary>  (93) 
energy

$$$$
93:0
     RDKit          3D

 49 51  0  0  0  0  0  0  0  0999 V2000
   58.3050   25.9060   47.8930 O   0  0  0  0  0  0  0  0  0  0  0  0
   57.7180   26.2710   46.8380 C   0  0  0  0  0  0  0  0  0  0  0  0
   56.5140   25.5990   46.4280 N   0  0  0  0  0  0  0  0  0  0  0  0
   56.0110   24.4140   47.1220 C   0  0  0  0  0  0  0  0  0  0  0  0
   56.7000   23.1610   46.6440 C   0  0  0  0  0  0  0  0  0  0  0  0
   57.3940   22.4930   47.4620 O   0  0  0  0  0  0  0  0  0  0  0  0
   56.5620   22.6990   45.2790 N   0  0  0  0  0  0  0  0  0  0  0  0
   55.4450   23.1550   44.4390 C   0  0  0  0  0  0  0  0  0  0  0  0
   55.8010   23.0130   42.9550 C   0  0  0  0  0  0  0  0  0  0  0  0
   56.2630   21.7080   42.6690 O   0  0  0  0  0  0  0  0  0  0  0  0
   57.4850   21.4830   43.3430 C   0  0  0  0  0  0  0  0  0  0  0  0
   57.2780   21.4860   44.8610 C   0  0  0  0  0  0  0  0  0  0  0  0
   58.2690   27.4020   46.0540 C   0  0  0  0  0  0  0  0  0  0  0  0
   59.6250   27.4030   45.6810 C   0  0  0  0  0  0  0  0  0  0  0  0
   60.1570   28.4690   44.9510 C   0  0  0  0  0  0  0  0  0  0  0  0
   59.3450   29.5420   44.5820 C   0  0  0  0  0  0  0  0  0  0  0  0
   57.9900   29.5540   44.9360 C   0  0  0  0  0  0  0  0  0  0  0  0
   56.9650   30.9190   44.4840 S   0  0  0  0  0  0  0  0  0  0  0  0
   55.5330   30.4630   44.4260 O   0  0  0  0  0  0  0  0  0  0  0  0
   57.3540   31.3960   43.1130 O   0  0  0  0  0  0  0  0  0  0  0  0
   57.1070   32.2470   45.6180 N   0  0  0  0  0  0  0  0  0  0  0  0
   58.2210   32.0370   46.5490 C   0  0  0  0  0  0  0  0  0  0  0  0
   59.4180   32.8410   46.0590 C   0  0  0  0  0  0  0  0  0  0  0  0
   58.8860   33.7600   44.9780 C   0  0  0  0  0  0  0  0  0  0  0  0
   57.3870   33.5070   44.9210 C   0  0  0  0  0  0  0  0  0  0  0  0
   57.4530   28.4780   45.6590 C   0  0  0  0  0  0  0  0  0  0  0  0
   55.9300   25.9960   45.6590 H   0  0  0  0  0  0  0  0  0  0  0  0
   56.1878   24.5298   48.2015 H   0  0  0  0  0  0  0  0  0  0  0  0
   54.9358   24.3196   46.9098 H   0  0  0  0  0  0  0  0  0  0  0  0
   54.5548   22.5471   44.6581 H   0  0  0  0  0  0  0  0  0  0  0  0
   55.2424   24.2138   44.6580 H   0  0  0  0  0  0  0  0  0  0  0  0
   54.9065   23.2191   42.3489 H   0  0  0  0  0  0  0  0  0  0  0  0
   56.6011   23.7290   42.7158 H   0  0  0  0  0  0  0  0  0  0  0  0
   57.8916   20.5080   43.0365 H   0  0  0  0  0  0  0  0  0  0  0  0
   58.1856   22.2896   43.0812 H   0  0  0  0  0  0  0  0  0  0  0  0
   56.6905   20.6015   45.1482 H   0  0  0  0  0  0  0  0  0  0  0  0
   58.2608   21.4644   45.3547 H   0  0  0  0  0  0  0  0  0  0  0  0
   60.2708   26.5593   45.9657 H   0  0  0  0  0  0  0  0  0  0  0  0
   61.2195   28.4623   44.6663 H   0  0  0  0  0  0  0  0  0  0  0  0
   59.7703   30.3808   44.0115 H   0  0  0  0  0  0  0  0  0  0  0  0
   57.9329   32.3761   47.5550 H   0  0  0  0  0  0  0  0  0  0  0  0
   58.4778   30.9684   46.5947 H   0  0  0  0  0  0  0  0  0  0  0  0
   59.8477   33.4287   46.8836 H   0  0  0  0  0  0  0  0  0  0  0  0
   60.2152   32.1865   45.6767 H   0  0  0  0  0  0  0  0  0  0  0  0
   59.0879   34.8105   45.2345 H   0  0  0  0  0  0  0  0  0  0  0  0
   59.3670   33.5656   44.0080 H   0  0  0  0  0  0  0  0  0  0  0  0
   56.8513   34.3318   45.4136 H   0  0  0  0  0  0  0  0  0  0  0  0
   57.0521   33.4447   43.8751 H   0  0  0  0  0  0  0  0  0  0  0  0
   56.3843   28.4757   45.9194 H   0  0  0  0  0  0  0  0  0  0  0  0
  1  2  2  0
  2  3  1  0
  3  4  1  0
  4  5  1  0
  5  6  2  0
  5  7  1  0
  7  8  1  0
  8  9  1  0
  9 10  1  0
 10 11  1  0
 11 12  1  0
  2 13  1  0
 13 14  2  0
 14 15  1  0
 15 16  2  0
 16 17  1  0
 17 18  1  0
 18 19  2  0
 18 20  2  0
 18 21  1  0
 21 22  1  0
 22 23  1  0
 23 24  1  0
 24 25  1  0
 17 26  2  0
 12  7  1  0
 26 13  1  0
 25 21  1  0
  3 27  1  0
  4 28  1  0
  4 29  1  0
  8 30  1  0
  8 31  1  0
  9 32  1  0
  9 33  1  0
 11 34  1  0
 11 35  1  0
 12 36  1  0
 12 37  1  0
 14 38  1  0
 15 39  1  0
 16 40  1  0
 22 41  1  0
 22 42  1  0
 23 43  1  0
 23 44  1  0
 24 45  1  0
 24 46  1  0
 25 47  1  0
 25 48  1  0
 26 49  1  0
M  END
>  <UniqueID>  (94) 
90

>  <SMILES>  (94) 
O=C(NCC(=O)N1CCOCC1)c1cccc(S(=O)(=O)N2CCCC2)c1

>  <Energy>  (94) 
51.63328331665788

>  <Genealogy>  (94) 
O=C(NCC(=O)N1CCOCC1)c1cccc(S(=O)(=O)N2CCCC2)c1 (3D coordinates assigned)
O=C(NCC(=O)N1CCOCC1)c1cccc(S(=O)(=O)N2CCCC2)c1 (nonaromatic ring conformer: 51.63328331665788 kcal/mol)

>  <smiles>  (94) 
O=C(NCC(=O)N1CCOCC1)c1cccc(S(=O)(=O)N2CCCC2)c1

>  <score_type>  (94) 
oracle

>  <origin>  (94) 
adg

>  <m_score__min__energy>  (94) 
-10.09

>  <m_primary>  (94) 
energy

$$$$
94:0
     RDKit          3D

 52 55  0  0  0  0  0  0  0  0999 V2000
   60.6280   29.1050   44.9660 C   0  0  0  0  0  0  0  0  0  0  0  0
   59.6600   28.1770   45.1270 C   0  0  0  0  0  0  0  0  0  0  0  0
   59.1660   27.5900   44.0000 N   0  0  0  0  0  0  0  0  0  0  0  0
   58.1430   26.7030   44.0290 C   0  0  0  0  0  0  0  0  0  0  0  0
   57.7270   26.2160   42.9410 O   0  0  0  0  0  0  0  0  0  0  0  0
   57.5710   26.3440   45.2170 N   0  0  0  0  0  0  0  0  0  0  0  0
   56.4940   25.3290   45.2460 C   0  0  0  0  0  0  0  0  0  0  0  0
   56.9860   24.0160   44.6920 C   0  0  0  0  0  0  0  0  0  0  0  0
   56.2760   23.3620   43.6710 C   0  0  0  0  0  0  0  0  0  0  0  0
   56.7220   22.1320   43.1790 C   0  0  0  0  0  0  0  0  0  0  0  0
   57.8780   21.5450   43.7010 C   0  0  0  0  0  0  0  0  0  0  0  0
   58.5900   22.1890   44.7170 C   0  0  0  0  0  0  0  0  0  0  0  0
   58.1470   23.4190   45.2130 C   0  0  0  0  0  0  0  0  0  0  0  0
   58.0400   26.8740   46.3920 C   0  0  0  0  0  0  0  0  0  0  0  0
   57.5440   26.4680   47.4800 O   0  0  0  0  0  0  0  0  0  0  0  0
   59.1050   27.8250   46.3970 C   0  0  0  0  0  0  0  0  0  0  0  0
   59.6100   28.3300   47.5640 C   0  0  0  0  0  0  0  0  0  0  0  0
   59.7390   29.7640   47.8960 C   0  0  0  0  0  0  0  0  0  0  0  0
   60.7420   30.1920   48.7740 C   0  0  0  0  0  0  0  0  0  0  0  0
   60.8620   31.5470   49.0910 C   0  0  0  0  0  0  0  0  0  0  0  0
   59.9910   32.4810   48.5250 C   0  0  0  0  0  0  0  0  0  0  0  0
   59.0010   32.0740   47.6210 C   0  0  0  0  0  0  0  0  0  0  0  0
   58.1450   33.0510   47.0850 O   0  0  0  0  0  0  0  0  0  0  0  0
   58.1060   33.4480   45.7140 C   0  0  0  0  0  0  0  0  0  0  0  0
   57.6080   32.3350   44.8440 C   0  0  0  0  0  0  0  0  0  0  0  0
   58.0490   32.0430   43.5680 C   0  0  0  0  0  0  0  0  0  0  0  0
   57.3160   30.9480   43.1610 C   0  0  0  0  0  0  0  0  0  0  0  0
   56.4780   30.6440   44.2170 C   0  0  0  0  0  0  0  0  0  0  0  0
   55.5050   29.5480   44.2560 C   0  0  0  0  0  0  0  0  0  0  0  0
   54.5940   29.4840   43.3900 O   0  0  0  0  0  0  0  0  0  0  0  0
   55.5810   28.5760   45.2460 O   0  0  0  0  0  0  0  0  0  0  0  0
   56.6750   31.4850   45.2060 O   0  0  0  0  0  0  0  0  0  0  0  0
   58.8960   30.7100   47.2900 C   0  0  0  0  0  0  0  0  0  0  0  0
   61.0595   29.6077   45.8441 H   0  0  0  0  0  0  0  0  0  0  0  0
   60.9849   29.3581   43.9568 H   0  0  0  0  0  0  0  0  0  0  0  0
   59.5630   27.8360   43.0620 H   0  0  0  0  0  0  0  0  0  0  0  0
   56.1640   25.1819   46.2850 H   0  0  0  0  0  0  0  0  0  0  0  0
   55.6566   25.6832   44.6269 H   0  0  0  0  0  0  0  0  0  0  0  0
   55.3654   23.8198   43.2572 H   0  0  0  0  0  0  0  0  0  0  0  0
   56.1620   21.6250   42.3794 H   0  0  0  0  0  0  0  0  0  0  0  0
   58.2273   20.5769   43.3126 H   0  0  0  0  0  0  0  0  0  0  0  0
   59.5004   21.7274   45.1270 H   0  0  0  0  0  0  0  0  0  0  0  0
   58.7092   23.9213   46.0140 H   0  0  0  0  0  0  0  0  0  0  0  0
   59.9491   27.6064   48.3199 H   0  0  0  0  0  0  0  0  0  0  0  0
   61.4359   29.4608   49.2144 H   0  0  0  0  0  0  0  0  0  0  0  0
   61.6448   31.8797   49.7885 H   0  0  0  0  0  0  0  0  0  0  0  0
   60.0831   33.5443   48.7911 H   0  0  0  0  0  0  0  0  0  0  0  0
   57.4349   34.3133   45.6096 H   0  0  0  0  0  0  0  0  0  0  0  0
   59.1264   33.7094   45.3969 H   0  0  0  0  0  0  0  0  0  0  0  0
   58.8239   32.5737   42.9954 H   0  0  0  0  0  0  0  0  0  0  0  0
   57.3842   30.4249   42.1957 H   0  0  0  0  0  0  0  0  0  0  0  0
   58.1489   30.3828   46.5519 H   0  0  0  0  0  0  0  0  0  0  0  0
  1  2  2  0
  2  3  1  0
  3  4  1  0
  4  5  2  0
  4  6  1  0
  6  7  1  0
  7  8  1  0
  8  9  2  0
  9 10  1  0
 10 11  2  0
 11 12  1  0
 12 13  2  0
  6 14  1  0
 14 15  2  0
 14 16  1  0
 16 17  2  3
 17 18  1  0
 18 19  2  0
 19 20  1  0
 20 21  2  0
 21 22  1  0
 22 23  1  0
 23 24  1  0
 24 25  1  0
 25 26  2  0
 26 27  1  0
 27 28  2  0
 28 29  1  0
 29 30  2  0
 29 31  1  0
 28 32  1  0
 22 33  2  0
 16  2  1  0
 33 18  1  0
 13  8  1  0
 32 25  1  0
  1 34  1  0
  1 35  1  0
  3 36  1  0
  7 37  1  0
  7 38  1  0
  9 39  1  0
 10 40  1  0
 11 41  1  0
 12 42  1  0
 13 43  1  0
 17 44  1  0
 19 45  1  0
 20 46  1  0
 21 47  1  0
 24 48  1  0
 24 49  1  0
 26 50  1  0
 27 51  1  0
 33 52  1  0
M  CHG  1  31  -1
M  END
>  <UniqueID>  (95) 
91

>  <SMILES>  (95) 
C=c1[nH]c(=O)n(Cc2ccccc2)c(=O)c1=Cc1cccc(OCc2ccc(C(=O)[O-])o2)c1

>  <Energy>  (95) 
102.96558219239475

>  <Genealogy>  (95) 
C=c1[nH]c(=O)n(Cc2ccccc2)c(=O)c1=Cc1cccc(OCc2ccc(C(=O)[O-])o2)c1 (protonated)
C=c1[nH]c(=O)n(Cc2ccccc2)c(=O)c1=Cc1cccc(OCc2ccc(C(=O)[O-])o2)c1 (3D coordinates assigned)
C=c1[nH]c(=O)n(Cc2ccccc2)c(=O)c1=Cc1cccc(OCc2ccc(C(=O)[O-])o2)c1 (optimized conformer: 102.96558219239475 kcal/mol)

>  <smiles>  (95) 
C=c1[nH]c(=O)n(Cc2ccccc2)c(=O)c1=Cc1cccc(OCc2ccc(C(=O)O)o2)c1

>  <score_type>  (95) 
oracle

>  <origin>  (95) 
adg

>  <m_score__min__energy>  (95) 
-13.4

>  <m_primary>  (95) 
energy

$$$$
95:0
     RDKit          3D

 32 34  0  0  0  0  0  0  0  0999 V2000
   55.1560   26.2580   45.9150 N   0  0  0  0  0  0  0  0  0  0  0  0
   56.8770   26.4150   45.8960 S   0  0  0  0  0  0  0  0  0  0  0  0
   57.4380   25.6560   44.7260 O   0  0  0  0  0  0  0  0  0  0  0  0
   57.4470   25.8410   47.1620 O   0  0  0  0  0  0  0  0  0  0  0  0
   57.3060   28.1160   45.7650 C   0  0  0  0  0  0  0  0  0  0  0  0
   56.6230   28.9480   44.8660 C   0  0  0  0  0  0  0  0  0  0  0  0
   56.9550   30.3010   44.7710 C   0  0  0  0  0  0  0  0  0  0  0  0
   57.9640   30.8440   45.5850 C   0  0  0  0  0  0  0  0  0  0  0  0
   58.3260   32.2310   45.4850 N   0  0  0  0  0  0  0  0  0  0  0  0
   58.0720   33.0240   44.2930 C   0  0  0  0  0  0  0  0  0  0  0  0
   58.0410   34.4700   44.8040 C   0  0  0  0  0  0  0  0  0  0  0  0
   58.3600   34.3780   46.2220 N   0  0  0  0  0  0  0  0  0  0  0  0
   58.5040   33.1450   46.5630 C   0  0  0  0  0  0  0  0  0  0  0  0
   58.9270   32.7730   47.9240 C   0  0  0  0  0  0  0  0  0  0  0  0
   60.2010   32.8790   48.4530 C   0  0  0  0  0  0  0  0  0  0  0  0
   60.1010   32.4370   49.7540 C   0  0  0  0  0  0  0  0  0  0  0  0
   58.7770   32.0970   49.9430 C   0  0  0  0  0  0  0  0  0  0  0  0
   58.1030   32.3120   48.8370 O   0  0  0  0  0  0  0  0  0  0  0  0
   58.6530   30.0060   46.4720 C   0  0  0  0  0  0  0  0  0  0  0  0
   58.3210   28.6520   46.5690 C   0  0  0  0  0  0  0  0  0  0  0  0
   54.7790   27.0950   46.4120 H   0  0  0  0  0  0  0  0  0  0  0  0
   55.8237   28.5336   44.2341 H   0  0  0  0  0  0  0  0  0  0  0  0
   56.4239   30.9455   44.0551 H   0  0  0  0  0  0  0  0  0  0  0  0
   58.8763   32.8880   43.5550 H   0  0  0  0  0  0  0  0  0  0  0  0
   57.1395   32.7359   43.7855 H   0  0  0  0  0  0  0  0  0  0  0  0
   58.7895   35.0814   44.2786 H   0  0  0  0  0  0  0  0  0  0  0  0
   57.0652   34.9475   44.6311 H   0  0  0  0  0  0  0  0  0  0  0  0
   61.1052   33.2407   47.9415 H   0  0  0  0  0  0  0  0  0  0  0  0
   60.9128   32.3688   50.4931 H   0  0  0  0  0  0  0  0  0  0  0  0
   58.3509   31.7053   50.8784 H   0  0  0  0  0  0  0  0  0  0  0  0
   59.4605   30.4167   47.0960 H   0  0  0  0  0  0  0  0  0  0  0  0
   58.8579   28.0051   47.2784 H   0  0  0  0  0  0  0  0  0  0  0  0
  1  2  1  0
  2  3  2  0
  2  4  2  0
  2  5  1  0
  5  6  2  0
  6  7  1  0
  7  8  2  0
  8  9  1  0
  9 10  1  0
 10 11  1  0
 11 12  1  0
 12 13  2  0
 13 14  1  0
 14 15  2  0
 15 16  1  0
 16 17  2  0
 17 18  1  0
  8 19  1  0
 19 20  2  0
 20  5  1  0
 13  9  1  0
 18 14  1  0
  1 21  1  0
  6 22  1  0
  7 23  1  0
 10 24  1  0
 10 25  1  0
 11 26  1  0
 11 27  1  0
 15 28  1  0
 16 29  1  0
 17 30  1  0
 19 31  1  0
 20 32  1  0
M  CHG  1   1  -1
M  END
>  <UniqueID>  (96) 
92

>  <SMILES>  (96) 
[NH-]S(=O)(=O)c1ccc(N2CCN=C2c2ccco2)cc1

>  <Energy>  (96) 
77.1687772367389

>  <Genealogy>  (96) 
[NH-]S(=O)(=O)c1ccc(N2CCN=C2c2ccco2)cc1 (protonated)
[NH-]S(=O)(=O)c1ccc(N2CCN=C2c2ccco2)cc1 (3D coordinates assigned)
[NH-]S(=O)(=O)c1ccc(N2CCN=C2c2ccco2)cc1 (nonaromatic ring conformer: 77.1687772367389 kcal/mol)

>  <smiles>  (96) 
NS(=O)(=O)c1ccc(N2CCN=C2c2ccco2)cc1

>  <score_type>  (96) 
oracle

>  <origin>  (96) 
adg

>  <m_score__min__energy>  (96) 
-9.5099999999999998

>  <m_primary>  (96) 
energy

$$$$
96:0
     RDKit          3D

 36 38  0  0  0  0  0  0  0  0999 V2000
   56.2500   24.3060   47.2340 C   0  0  0  0  0  0  0  0  0  0  0  0
   56.4580   25.5410   46.4230 C   0  0  0  0  0  0  0  0  0  0  0  0
   57.5030   25.7690   45.5550 C   0  0  0  0  0  0  0  0  0  0  0  0
   57.2080   27.0000   45.0050 C   0  0  0  0  0  0  0  0  0  0  0  0
   58.0220   27.7190   44.0070 C   0  0  0  0  0  0  0  0  0  0  0  0
   58.3690   27.1130   42.9540 O   0  0  0  0  0  0  0  0  0  0  0  0
   58.4660   29.0790   44.2510 N   0  0  0  0  0  0  0  0  0  0  0  0
   57.4780   29.8210   45.0700 C   0  0  0  0  0  0  0  0  0  0  0  0
   57.7510   31.3010   45.1590 C   0  0  0  0  0  0  0  0  0  0  0  0
   57.7040   32.2050   44.1060 C   0  0  0  0  0  0  0  0  0  0  0  0
   58.0020   33.5160   44.4930 C   0  0  0  0  0  0  0  0  0  0  0  0
   58.2780   33.6500   45.8470 C   0  0  0  0  0  0  0  0  0  0  0  0
   58.1510   32.1340   46.5650 S   0  0  0  0  0  0  0  0  0  0  0  0
   59.8290   29.1320   44.8330 C   0  0  0  0  0  0  0  0  0  0  0  0
   59.8970   28.3970   46.1420 C   0  0  0  0  0  0  0  0  0  0  0  0
   59.4350   28.8630   47.3650 C   0  0  0  0  0  0  0  0  0  0  0  0
   59.5740   27.9290   48.3990 C   0  0  0  0  0  0  0  0  0  0  0  0
   60.1350   26.7250   47.9900 C   0  0  0  0  0  0  0  0  0  0  0  0
   60.4550   26.8230   46.3420 S   0  0  0  0  0  0  0  0  0  0  0  0
   56.0480   27.4600   45.5140 N   0  0  0  0  0  0  0  0  0  0  0  0
   55.5860   26.5660   46.3740 N   0  0  0  0  0  0  0  0  0  0  0  0
   56.2925   24.5584   48.3038 H   0  0  0  0  0  0  0  0  0  0  0  0
   55.2664   23.8737   46.9980 H   0  0  0  0  0  0  0  0  0  0  0  0
   57.0377   23.5754   46.9980 H   0  0  0  0  0  0  0  0  0  0  0  0
   58.3686   25.1223   45.3488 H   0  0  0  0  0  0  0  0  0  0  0  0
   58.5120   29.5810   43.3320 H   0  0  0  0  0  0  0  0  0  0  0  0
   56.4819   29.6781   44.6257 H   0  0  0  0  0  0  0  0  0  0  0  0
   57.5440   29.4208   46.0925 H   0  0  0  0  0  0  0  0  0  0  0  0
   57.4575   31.9194   43.0727 H   0  0  0  0  0  0  0  0  0  0  0  0
   58.0163   34.3619   43.7899 H   0  0  0  0  0  0  0  0  0  0  0  0
   58.5356   34.5871   46.3622 H   0  0  0  0  0  0  0  0  0  0  0  0
   60.5371   28.6725   44.1277 H   0  0  0  0  0  0  0  0  0  0  0  0
   60.0863   30.1859   45.0148 H   0  0  0  0  0  0  0  0  0  0  0  0
   59.0033   29.8647   47.5076 H   0  0  0  0  0  0  0  0  0  0  0  0
   59.2682   28.1292   49.4365 H   0  0  0  0  0  0  0  0  0  0  0  0
   60.3355   25.8563   48.6343 H   0  0  0  0  0  0  0  0  0  0  0  0
  1  2  1  0
  2  3  1  0
  3  4  2  0
  4  5  1  0
  5  6  2  0
  5  7  1  0
  7  8  1  0
  8  9  1  0
  9 10  2  0
 10 11  1  0
 11 12  2  0
 12 13  1  0
  7 14  1  0
 14 15  1  0
 15 16  2  0
 16 17  1  0
 17 18  2  0
 18 19  1  0
  4 20  1  0
 20 21  1  0
 21  2  2  0
 13  9  1  0
 19 15  1  0
  1 22  1  0
  1 23  1  0
  1 24  1  0
  3 25  1  0
  7 26  1  0
  8 27  1  0
  8 28  1  0
 10 29  1  0
 11 30  1  0
 12 31  1  0
 14 32  1  0
 14 33  1  0
 16 34  1  0
 17 35  1  0
 18 36  1  0
M  CHG  2   7   1  20  -1
M  END
>  <UniqueID>  (97) 
93

>  <SMILES>  (97) 
Cc1cc(C(=O)[NH+](Cc2cccs2)Cc2cccs2)[n-]n1

>  <Energy>  (97) 
120.20073867320768

>  <Genealogy>  (97) 
Cc1cc(C(=O)[NH+](Cc2cccs2)Cc2cccs2)[n-]n1 (protonated)
Cc1cc(C(=O)[NH+](Cc2cccs2)Cc2cccs2)[n-]n1 (3D coordinates assigned)
Cc1cc(C(=O)[NH+](Cc2cccs2)Cc2cccs2)[n-]n1 (optimized conformer: 120.20073867320768 kcal/mol)

>  <smiles>  (97) 
Cc1cc(C(=O)N(Cc2cccs2)Cc2cccs2)[nH]n1

>  <score_type>  (97) 
oracle

>  <origin>  (97) 
adg

>  <m_score__min__energy>  (97) 
-8.0800000000000001

>  <m_primary>  (97) 
energy

$$$$
97:0
     RDKit          3D

 59 62  0  0  0  0  0  0  0  0999 V2000
   55.2890   29.3870   44.7620 N   0  0  0  0  0  0  0  0  0  0  0  0
   56.5740   29.8320   44.3200 C   0  0  0  0  0  0  0  0  0  0  0  0
   56.6660   30.9410   43.7300 O   0  0  0  0  0  0  0  0  0  0  0  0
   57.7830   29.0100   44.5450 C   0  0  0  0  0  0  0  0  0  0  0  0
   59.1240   29.6980   44.7190 C   0  0  0  0  0  0  0  0  0  0  0  0
   59.1150   30.5760   45.9400 C   0  0  0  0  0  0  0  0  0  0  0  0
   59.3120   30.1670   47.2570 C   0  0  0  0  0  0  0  0  0  0  0  0
   59.2440   31.2240   48.0970 N   0  0  0  0  0  0  0  0  0  0  0  0
   59.0040   32.2980   47.3240 C   0  0  0  0  0  0  0  0  0  0  0  0
   58.8530   33.6230   47.7420 C   0  0  0  0  0  0  0  0  0  0  0  0
   58.6030   34.6010   46.7620 C   0  0  0  0  0  0  0  0  0  0  0  0
   58.5130   34.2360   45.3990 C   0  0  0  0  0  0  0  0  0  0  0  0
   58.6720   32.8920   45.0040 C   0  0  0  0  0  0  0  0  0  0  0  0
   58.9160   31.9430   46.0010 C   0  0  0  0  0  0  0  0  0  0  0  0
   57.6520   27.7140   44.6130 N   0  0  0  0  0  0  0  0  0  0  0  0
   57.6670   26.9010   45.8280 C   0  0  0  0  0  0  0  0  0  0  0  0
   56.9150   25.6220   45.5800 C   0  0  0  0  0  0  0  0  0  0  0  0
   57.6280   24.4490   45.2830 C   0  0  0  0  0  0  0  0  0  0  0  0
   56.9510   23.2450   45.0750 C   0  0  0  0  0  0  0  0  0  0  0  0
   55.5600   23.1960   45.1620 C   0  0  0  0  0  0  0  0  0  0  0  0
   54.8250   24.3530   45.4690 C   0  0  0  0  0  0  0  0  0  0  0  0
   53.3230   24.2880   45.5650 C   0  0  0  0  0  0  0  0  0  0  0  0
   52.8210   23.0510   44.9750 N   0  0  0  0  0  0  0  0  0  0  0  0
   51.8530   22.2070   45.6100 C   0  0  0  0  0  0  0  0  0  0  0  0
   50.8150   22.7260   46.1000 O   0  0  0  0  0  0  0  0  0  0  0  0
   52.0590   20.7920   45.6890 N   0  0  0  0  0  0  0  0  0  0  0  0
   52.5790   20.1120   46.8730 C   0  0  0  0  0  0  0  0  0  0  0  0
   53.7880   20.8360   47.4010 C   0  0  0  0  0  0  0  0  0  0  0  0
   55.0780   20.3660   47.0980 C   0  0  0  0  0  0  0  0  0  0  0  0
   56.2040   21.0180   47.6110 C   0  0  0  0  0  0  0  0  0  0  0  0
   56.0530   22.1430   48.4260 C   0  0  0  0  0  0  0  0  0  0  0  0
   54.7740   22.6170   48.7310 C   0  0  0  0  0  0  0  0  0  0  0  0
   53.6440   21.9700   48.2200 C   0  0  0  0  0  0  0  0  0  0  0  0
   55.5090   25.5660   45.6950 C   0  0  0  0  0  0  0  0  0  0  0  0
   54.7920   26.7120   46.0310 O   0  0  0  0  0  0  0  0  0  0  0  0
   55.1610   28.4680   45.2450 H   0  0  0  0  0  0  0  0  0  0  0  0
   54.4410   29.9800   44.5980 H   0  0  0  0  0  0  0  0  0  0  0  0
   59.9097   28.9359   44.8277 H   0  0  0  0  0  0  0  0  0  0  0  0
   59.3190   30.3227   43.8349 H   0  0  0  0  0  0  0  0  0  0  0  0
   59.4971   29.1288   47.5698 H   0  0  0  0  0  0  0  0  0  0  0  0
   59.3560   31.2080   49.1350 H   0  0  0  0  0  0  0  0  0  0  0  0
   58.9274   33.8932   48.8057 H   0  0  0  0  0  0  0  0  0  0  0  0
   58.4771   35.6532   47.0572 H   0  0  0  0  0  0  0  0  0  0  0  0
   58.3172   35.0076   44.6399 H   0  0  0  0  0  0  0  0  0  0  0  0
   58.6062   32.5996   43.9456 H   0  0  0  0  0  0  0  0  0  0  0  0
   58.7067   26.6687   46.1018 H   0  0  0  0  0  0  0  0  0  0  0  0
   57.1891   27.4561   46.6486 H   0  0  0  0  0  0  0  0  0  0  0  0
   58.7254   24.4786   45.2138 H   0  0  0  0  0  0  0  0  0  0  0  0
   57.5176   22.3315   44.8416 H   0  0  0  0  0  0  0  0  0  0  0  0
   55.0349   22.2450   44.9891 H   0  0  0  0  0  0  0  0  0  0  0  0
   53.0268   24.3293   46.6236 H   0  0  0  0  0  0  0  0  0  0  0  0
   52.8965   25.1402   45.0156 H   0  0  0  0  0  0  0  0  0  0  0  0
   51.8008   20.0900   47.6502 H   0  0  0  0  0  0  0  0  0  0  0  0
   52.8668   19.0861   46.5995 H   0  0  0  0  0  0  0  0  0  0  0  0
   55.2021   19.4821   46.4550 H   0  0  0  0  0  0  0  0  0  0  0  0
   57.2107   20.6444   47.3724 H   0  0  0  0  0  0  0  0  0  0  0  0
   56.9400   22.6551   48.8272 H   0  0  0  0  0  0  0  0  0  0  0  0
   54.6557   23.5012   49.3746 H   0  0  0  0  0  0  0  0  0  0  0  0
   52.6397   22.3494   48.4595 H   0  0  0  0  0  0  0  0  0  0  0  0
  1  2  1  0
  2  3  2  0
  2  4  1  0
  4  5  1  0
  5  6  1  0
  6  7  2  0
  7  8  1  0
  8  9  1  0
  9 10  2  0
 10 11  1  0
 11 12  2  0
 12 13  1  0
 13 14  2  0
  4 15  2  3
 15 16  1  0
 16 17  1  0
 17 18  2  0
 18 19  1  0
 19 20  2  0
 20 21  1  0
 21 22  1  0
 22 23  1  0
 23 24  1  0
 24 25  2  0
 24 26  1  0
 26 27  1  0
 27 28  1  0
 28 29  2  0
 29 30  1  0
 30 31  2  0
 31 32  1  0
 32 33  2  0
 21 34  2  0
 34 35  1  0
 14  6  1  0
 34 17  1  0
 14  9  1  0
 33 28  1  0
  1 36  1  0
  1 37  1  0
  5 38  1  0
  5 39  1  0
  7 40  1  0
  8 41  1  0
 10 42  1  0
 11 43  1  0
 12 44  1  0
 13 45  1  0
 16 46  1  0
 16 47  1  0
 18 48  1  0
 19 49  1  0
 20 50  1  0
 22 51  1  0
 22 52  1  0
 27 53  1  0
 27 54  1  0
 29 55  1  0
 30 56  1  0
 31 57  1  0
 32 58  1  0
 33 59  1  0
M  CHG  3  23  -1  26  -1  35  -1
M  END
>  <UniqueID>  (98) 
94

>  <SMILES>  (98) 
NC(=O)C(Cc1c[nH]c2ccccc12)=NCc1cccc(C[N-]C(=O)[N-]Cc2ccccc2)c1[O-]

>  <Energy>  (98) 
88.84240200659539

>  <Genealogy>  (98) 
NC(=O)C(Cc1c[nH]c2ccccc12)=NCc1cccc(C[N-]C(=O)[N-]Cc2ccccc2)c1[O-] (protonated)
NC(=O)C(Cc1c[nH]c2ccccc12)=NCc1cccc(C[N-]C(=O)[N-]Cc2ccccc2)c1[O-] (3D coordinates assigned)
NC(=O)C(Cc1c[nH]c2ccccc12)=NCc1cccc(C[N-]C(=O)[N-]Cc2ccccc2)c1[O-] (optimized conformer: 88.84240200659539 kcal/mol)

>  <smiles>  (98) 
NC(=O)C(Cc1c[nH]c2ccccc12)=NCc1cccc(CNC(=O)NCc2ccccc2)c1O

>  <score_type>  (98) 
oracle

>  <origin>  (98) 
adg

>  <m_score__min__energy>  (98) 
-16.890000000000001

>  <m_primary>  (98) 
energy

$$$$
