0:0
     RDKit          3D

 75 78  0  0  0  0  0  0  0  0999 V2000
   55.8830   22.2200   49.2400 C   0  0  0  0  0  0  0  0  0  0  0  0
   54.8040   21.8530   48.8450 C   0  0  0  0  0  0  0  0  0  0  0  0
   53.4930   21.4070   48.3620 C   0  0  0  0  0  0  0  0  0  0  0  0
   53.3850   21.6250   46.9140 N   0  0  0  0  0  0  0  0  0  0  0  0
   54.4210   21.1270   46.0040 C   0  0  0  0  0  0  0  0  0  0  0  0
   55.2060   22.2830   45.4440 C   0  0  0  0  0  0  0  0  0  0  0  0
   55.0550   23.5570   46.0150 C   0  0  0  0  0  0  0  0  0  0  0  0
   55.6880   24.6760   45.4480 C   0  0  0  0  0  0  0  0  0  0  0  0
   55.5500   25.9950   46.0010 N   0  0  0  0  0  0  0  0  0  0  0  0
   56.5070   27.0600   45.9240 C   0  0  0  0  0  0  0  0  0  0  0  0
   56.1680   28.2100   45.5310 O   0  0  0  0  0  0  0  0  0  0  0  0
   57.9320   26.7940   46.3100 C   0  0  0  0  0  0  0  0  0  0  0  0
   58.7190   28.0760   46.3820 C   0  0  0  0  0  0  0  0  0  0  0  0
   59.3010   28.6140   45.2230 C   0  0  0  0  0  0  0  0  0  0  0  0
   59.9700   29.8390   45.2750 C   0  0  0  0  0  0  0  0  0  0  0  0
   60.0370   30.5550   46.4750 C   0  0  0  0  0  0  0  0  0  0  0  0
   60.7130   31.8150   46.5060 N   0  0  0  0  0  0  0  0  0  0  0  0
   61.9640   32.0880   47.1550 C   0  0  0  0  0  0  0  0  0  0  0  0
   62.8610   31.2070   47.1190 O   0  0  0  0  0  0  0  0  0  0  0  0
   62.2920   33.4160   47.8150 C   0  0  2  0  0  0  0  0  0  0  0  0
   63.6990   33.4340   48.4150 C   0  0  0  0  0  0  0  0  0  0  0  0
   63.5550   33.8540   49.8790 C   0  0  0  0  0  0  0  0  0  0  0  0
   62.0660   34.0520   50.1460 C   0  0  0  0  0  0  0  0  0  0  0  0
   61.3780   33.7580   48.9010 N   0  0  0  0  0  0  0  0  0  0  0  0
   59.9550   33.9530   48.7620 C   0  0  0  0  0  0  0  0  0  0  0  0
   59.1670   33.2190   49.4210 O   0  0  0  0  0  0  0  0  0  0  0  0
   59.3840   34.9540   47.7890 C   0  0  0  0  0  0  0  0  0  0  0  0
   58.8220   34.2760   46.5670 C   0  0  0  0  0  0  0  0  0  0  0  0
   57.7510   33.3750   46.6900 C   0  0  0  0  0  0  0  0  0  0  0  0
   57.2480   32.7230   45.5590 C   0  0  0  0  0  0  0  0  0  0  0  0
   57.8130   32.9610   44.3030 C   0  0  0  0  0  0  0  0  0  0  0  0
   58.8850   33.8490   44.1750 C   0  0  0  0  0  0  0  0  0  0  0  0
   59.3930   34.5000   45.3020 C   0  0  0  0  0  0  0  0  0  0  0  0
   59.4890   30.0040   47.6410 C   0  0  0  0  0  0  0  0  0  0  0  0
   58.8210   28.7780   47.5940 C   0  0  0  0  0  0  0  0  0  0  0  0
   56.5150   24.5010   44.3330 C   0  0  0  0  0  0  0  0  0  0  0  0
   56.6730   23.2380   43.7600 C   0  0  0  0  0  0  0  0  0  0  0  0
   56.0120   22.1280   44.2990 C   0  0  0  0  0  0  0  0  0  0  0  0
   56.1490   20.8770   43.6990 O   0  0  0  0  0  0  0  0  0  0  0  0
   52.2130   22.2490   46.3640 C   0  0  0  0  0  0  0  0  0  0  0  0
   51.2090   22.4350   47.1010 O   0  0  0  0  0  0  0  0  0  0  0  0
   52.1330   22.6070   44.9800 N   0  0  0  0  0  0  0  0  0  0  0  0
   51.8830   23.9520   44.4820 C   0  0  0  0  0  0  0  0  0  0  0  0
   56.8670   22.5547   49.6002 H   0  0  0  0  0  0  0  0  0  0  0  0
   53.3715   20.3353   48.5781 H   0  0  0  0  0  0  0  0  0  0  0  0
   52.7074   21.9843   48.8714 H   0  0  0  0  0  0  0  0  0  0  0  0
   55.0988   20.4574   46.5537 H   0  0  0  0  0  0  0  0  0  0  0  0
   53.9456   20.5768   45.1786 H   0  0  0  0  0  0  0  0  0  0  0  0
   54.4349   23.6802   46.9152 H   0  0  0  0  0  0  0  0  0  0  0  0
   57.9526   26.3033   47.2943 H   0  0  0  0  0  0  0  0  0  0  0  0
   58.3870   26.1454   45.5469 H   0  0  0  0  0  0  0  0  0  0  0  0
   59.2298   28.0686   44.2704 H   0  0  0  0  0  0  0  0  0  0  0  0
   60.4460   30.2423   44.3690 H   0  0  0  0  0  0  0  0  0  0  0  0
   62.2014   34.1474   46.9984 H   0  0  0  0  0  0  0  0  0  0  0  0
   64.1496   32.4325   48.3518 H   0  0  0  0  0  0  0  0  0  0  0  0
   64.3502   34.1319   47.8684 H   0  0  0  0  0  0  0  0  0  0  0  0
   63.9551   33.0690   50.5376 H   0  0  0  0  0  0  0  0  0  0  0  0
   64.1142   34.7804   50.0768 H   0  0  0  0  0  0  0  0  0  0  0  0
   61.7280   33.3668   50.9373 H   0  0  0  0  0  0  0  0  0  0  0  0
   61.8565   35.0782   50.4820 H   0  0  0  0  0  0  0  0  0  0  0  0
   58.5810   35.5180   48.2861 H   0  0  0  0  0  0  0  0  0  0  0  0
   60.1941   35.6261   47.4695 H   0  0  0  0  0  0  0  0  0  0  0  0
   57.3070   33.1818   47.6777 H   0  0  0  0  0  0  0  0  0  0  0  0
   56.4063   32.0218   45.6584 H   0  0  0  0  0  0  0  0  0  0  0  0
   57.4139   32.4493   43.4148 H   0  0  0  0  0  0  0  0  0  0  0  0
   59.3290   34.0354   43.1860 H   0  0  0  0  0  0  0  0  0  0  0  0
   60.2431   35.1905   45.1991 H   0  0  0  0  0  0  0  0  0  0  0  0
   59.5852   30.5390   48.5973 H   0  0  0  0  0  0  0  0  0  0  0  0
   58.3738   28.3615   48.5086 H   0  0  0  0  0  0  0  0  0  0  0  0
   57.0445   25.3649   43.9049 H   0  0  0  0  0  0  0  0  0  0  0  0
   57.3208   23.1142   42.8796 H   0  0  0  0  0  0  0  0  0  0  0  0
   57.0040   20.3390   43.7800 H   0  0  0  0  0  0  0  0  0  0  0  0
   51.7552   24.6395   45.3311 H   0  0  0  0  0  0  0  0  0  0  0  0
   52.7355   24.2805   43.8693 H   0  0  0  0  0  0  0  0  0  0  0  0
   50.9694   23.9522   43.8693 H   0  0  0  0  0  0  0  0  0  0  0  0
  1  2  3  0
  2  3  1  0
  3  4  1  0
  4  5  1  0
  5  6  1  0
  6  7  2  0
  7  8  1  0
  8  9  1  0
  9 10  1  0
 10 11  2  0
 10 12  1  0
 12 13  1  0
 13 14  2  0
 14 15  1  0
 15 16  2  0
 16 17  1  0
 17 18  1  0
 18 19  2  0
 18 20  1  0
 20 21  1  0
 21 22  1  0
 22 23  1  0
 23 24  1  0
 24 25  1  0
 25 26  2  0
 25 27  1  0
 27 28  1  0
 28 29  2  0
 29 30  1  0
 30 31  2  0
 31 32  1  0
 32 33  2  0
 16 34  1  0
 34 35  2  0
  8 36  2  0
 36 37  1  0
 37 38  2  0
 38 39  1  0
  4 40  1  0
 40 41  2  0
 40 42  1  0
 42 43  1  0
 38  6  1  0
 35 13  1  0
 24 20  1  0
 33 28  1  0
  1 44  1  0
  3 45  1  0
  3 46  1  0
  5 47  1  0
  5 48  1  0
  7 49  1  0
 12 50  1  0
 12 51  1  0
 14 52  1  0
 15 53  1  0
 20 54  1  6
 21 55  1  0
 21 56  1  0
 22 57  1  0
 22 58  1  0
 23 59  1  0
 23 60  1  0
 27 61  1  0
 27 62  1  0
 29 63  1  0
 30 64  1  0
 31 65  1  0
 32 66  1  0
 33 67  1  0
 34 68  1  0
 35 69  1  0
 36 70  1  0
 37 71  1  0
 39 72  1  0
 43 73  1  0
 43 74  1  0
 43 75  1  0
M  CHG  3   9  -1  17  -1  42  -1
M  END
>  <UniqueID>  (1) 
1

>  <SMILES>  (1) 
C#CCN(Cc1cc([N-]C(=O)Cc2ccc([N-]C(=O)[C@@H]3CCCN3C(=O)Cc3ccccc3)cc2)ccc1O)C(=O)[N-]C

>  <Energy>  (1) 
83.02493056491282

>  <Genealogy>  (1) 
C#CCN(Cc1cc([N-]C(=O)Cc2ccc([N-]C(=O)C3CCCN3C(=O)Cc3ccccc3)cc2)ccc1O)C(=O)[N-]C (protonated)
C#CCN(Cc1cc([N-]C(=O)Cc2ccc([N-]C(=O)[C@@H]3CCCN3C(=O)Cc3ccccc3)cc2)ccc1O)C(=O)[N-]C (chirality)
C#CCN(Cc1cc([N-]C(=O)Cc2ccc([N-]C(=O)[C@@H]3CCCN3C(=O)Cc3ccccc3)cc2)ccc1O)C(=O)[N-]C (3D coordinates assigned)
C#CCN(Cc1cc([N-]C(=O)Cc2ccc([N-]C(=O)[C@@H]3CCCN3C(=O)Cc3ccccc3)cc2)ccc1O)C(=O)[N-]C (nonaromatic ring conformer: 83.02493056491282 kcal/mol)

>  <smiles>  (1) 
C#CCN(Cc1cc(NC(=O)Cc2ccc(NC(=O)C3CCCN3C(=O)Cc3ccccc3)cc2)ccc1O)C(=O)NC

>  <score_type>  (1) 
oracle

>  <origin>  (1) 
adg

>  <m_score__min__energy>  (1) 
-13.66

>  <m_primary>  (1) 
energy

$$$$
1:0
     RDKit          3D

 42 44  0  0  0  0  0  0  0  0999 V2000
   58.2250   28.2570   46.3060 C   0  0  0  0  0  0  0  0  0  0  0  0
   57.4240   29.0240   45.2920 C   0  0  0  0  0  0  0  0  0  0  0  0
   57.9750   30.1520   44.6630 C   0  0  0  0  0  0  0  0  0  0  0  0
   57.2160   30.9070   43.7500 C   0  0  0  0  0  0  0  0  0  0  0  0
   57.7850   32.1140   43.1030 C   0  0  0  0  0  0  0  0  0  0  0  0
   58.3360   32.0070   41.9760 O   0  0  0  0  0  0  0  0  0  0  0  0
   57.7690   33.4010   43.7380 N   0  0  0  0  0  0  0  0  0  0  0  0
   58.3140   33.7120   45.0290 C   0  0  0  0  0  0  0  0  0  0  0  0
   57.5480   33.5940   46.2010 C   0  0  0  0  0  0  0  0  0  0  0  0
   58.1170   33.8760   47.4460 C   0  0  0  0  0  0  0  0  0  0  0  0
   59.4580   34.2860   47.5370 C   0  0  0  0  0  0  0  0  0  0  0  0
   60.0610   34.5810   48.8070 N   0  0  0  0  0  0  0  0  0  0  0  0
   61.3290   34.0650   49.2420 C   0  0  0  0  0  0  0  0  0  0  0  0
   62.3590   33.7910   48.3350 C   0  0  0  0  0  0  0  0  0  0  0  0
   63.5790   33.3190   48.8210 C   0  0  0  0  0  0  0  0  0  0  0  0
   64.5100   33.0830   48.0040 O   0  0  0  0  0  0  0  0  0  0  0  0
   63.7590   33.1230   50.1670 N   0  0  0  0  0  0  0  0  0  0  0  0
   65.0570   32.6510   50.6790 C   0  0  0  0  0  0  0  0  0  0  0  0
   62.7510   33.4510   51.0370 C   0  0  0  0  0  0  0  0  0  0  0  0
   62.9100   33.3350   52.2830 O   0  0  0  0  0  0  0  0  0  0  0  0
   61.5620   33.9100   50.5680 N   0  0  0  0  0  0  0  0  0  0  0  0
   60.1990   34.4670   46.3600 C   0  0  0  0  0  0  0  0  0  0  0  0
   59.6310   34.1800   45.1160 C   0  0  0  0  0  0  0  0  0  0  0  0
   55.9090   30.4970   43.4450 C   0  0  0  0  0  0  0  0  0  0  0  0
   55.3570   29.3760   44.0690 C   0  0  0  0  0  0  0  0  0  0  0  0
   56.1030   28.6450   44.9960 C   0  0  0  0  0  0  0  0  0  0  0  0
   55.5270   27.5430   45.6190 O   0  0  0  0  0  0  0  0  0  0  0  0
   57.9150   28.5539   47.3188 H   0  0  0  0  0  0  0  0  0  0  0  0
   58.0520   27.1791   46.1707 H   0  0  0  0  0  0  0  0  0  0  0  0
   59.2943   28.4765   46.1707 H   0  0  0  0  0  0  0  0  0  0  0  0
   59.0105   30.4484   44.8863 H   0  0  0  0  0  0  0  0  0  0  0  0
   56.4961   33.2784   46.1384 H   0  0  0  0  0  0  0  0  0  0  0  0
   57.5120   33.7765   48.3593 H   0  0  0  0  0  0  0  0  0  0  0  0
   59.5510   35.2210   49.4570 H   0  0  0  0  0  0  0  0  0  0  0  0
   62.2093   33.9452   47.2562 H   0  0  0  0  0  0  0  0  0  0  0  0
   65.0413   32.6567   51.7789 H   0  0  0  0  0  0  0  0  0  0  0  0
   65.2426   31.6278   50.3202 H   0  0  0  0  0  0  0  0  0  0  0  0
   65.8564   33.3160   50.3202 H   0  0  0  0  0  0  0  0  0  0  0  0
   61.2333   34.8370   46.4165 H   0  0  0  0  0  0  0  0  0  0  0  0
   60.2221   34.3226   44.1993 H   0  0  0  0  0  0  0  0  0  0  0  0
   55.3160   31.0616   42.7104 H   0  0  0  0  0  0  0  0  0  0  0  0
   54.3289   29.0672   43.8289 H   0  0  0  0  0  0  0  0  0  0  0  0
  1  2  1  0
  2  3  2  0
  3  4  1  0
  4  5  1  0
  5  6  2  0
  5  7  1  0
  7  8  1  0
  8  9  2  0
  9 10  1  0
 10 11  2  0
 11 12  1  0
 12 13  1  0
 13 14  2  0
 14 15  1  0
 15 16  2  0
 15 17  1  0
 17 18  1  0
 17 19  1  0
 19 20  2  0
 19 21  1  0
 11 22  1  0
 22 23  2  0
  4 24  2  0
 24 25  1  0
 25 26  2  0
 26 27  1  0
 26  2  1  0
 23  8  1  0
 21 13  1  0
  1 28  1  0
  1 29  1  0
  1 30  1  0
  3 31  1  0
  9 32  1  0
 10 33  1  0
 12 34  1  0
 14 35  1  0
 18 36  1  0
 18 37  1  0
 18 38  1  0
 22 39  1  0
 23 40  1  0
 24 41  1  0
 25 42  1  0
M  CHG  3   7  -1  21  -1  27  -1
M  END
>  <UniqueID>  (2) 
2

>  <SMILES>  (2) 
Cc1cc(C(=O)[N-]c2ccc(Nc3cc(=O)n(C)c(=O)[n-]3)cc2)ccc1[O-]

>  <Energy>  (2) 
60.152379863676984

>  <Genealogy>  (2) 
Cc1cc(C(=O)[N-]c2ccc(Nc3cc(=O)n(C)c(=O)[n-]3)cc2)ccc1[O-] (protonated)
Cc1cc(C(=O)[N-]c2ccc(Nc3cc(=O)n(C)c(=O)[n-]3)cc2)ccc1[O-] (3D coordinates assigned)
Cc1cc(C(=O)[N-]c2ccc(Nc3cc(=O)n(C)c(=O)[n-]3)cc2)ccc1[O-] (optimized conformer: 60.152379863676984 kcal/mol)

>  <smiles>  (2) 
Cc1cc(C(=O)Nc2ccc(Nc3cc(=O)n(C)c(=O)[nH]3)cc2)ccc1O

>  <score_type>  (2) 
oracle

>  <origin>  (2) 
adg

>  <m_score__min__energy>  (2) 
-14.06

>  <m_primary>  (2) 
energy

$$$$
2:0
     RDKit          3D

 56 59  0  0  0  0  0  0  0  0999 V2000
   60.2040   27.8070   52.5290 N   0  0  0  0  0  0  0  0  0  0  0  0
   60.9560   28.7910   51.8250 C   0  0  0  0  0  0  0  0  0  0  0  0
   62.0260   28.4640   51.2440 O   0  0  0  0  0  0  0  0  0  0  0  0
   60.4610   30.2070   51.7600 C   0  0  2  0  0  0  0  0  0  0  0  0
   61.5900   31.1950   52.0980 C   0  0  0  0  0  0  0  0  0  0  0  0
   62.0620   31.9270   50.8700 C   0  0  0  0  0  0  0  0  0  0  0  0
   62.4090   31.2120   49.7100 C   0  0  0  0  0  0  0  0  0  0  0  0
   62.8890   31.8850   48.5820 C   0  0  0  0  0  0  0  0  0  0  0  0
   63.0370   33.2740   48.6050 C   0  0  0  0  0  0  0  0  0  0  0  0
   62.7040   33.9910   49.7580 C   0  0  0  0  0  0  0  0  0  0  0  0
   62.2200   33.3230   50.8880 C   0  0  0  0  0  0  0  0  0  0  0  0
   59.3490   30.3700   52.6950 N   0  0  0  0  0  0  0  0  0  0  0  0
   57.9580   30.2420   52.3750 C   0  0  0  0  0  0  0  0  0  0  0  0
   57.4770   29.0810   52.2450 O   0  0  0  0  0  0  0  0  0  0  0  0
   57.0680   31.4400   52.1360 C   0  0  1  0  0  0  0  0  0  0  0  0
   57.8510   32.5280   51.3870 C   0  0  0  0  0  0  0  0  0  0  0  0
   58.4230   31.9850   50.1070 C   0  0  0  0  0  0  0  0  0  0  0  0
   58.3240   30.6720   49.6520 C   0  0  0  0  0  0  0  0  0  0  0  0
   58.8260   30.5650   48.4000 N   0  0  0  0  0  0  0  0  0  0  0  0
   59.2280   31.8010   48.0530 C   0  0  0  0  0  0  0  0  0  0  0  0
   59.7810   32.2010   46.8350 C   0  0  0  0  0  0  0  0  0  0  0  0
   60.1050   33.5610   46.6750 C   0  0  0  0  0  0  0  0  0  0  0  0
   59.8730   34.4810   47.7210 C   0  0  0  0  0  0  0  0  0  0  0  0
   59.3100   34.0500   48.9370 C   0  0  0  0  0  0  0  0  0  0  0  0
   58.9970   32.6960   49.0690 C   0  0  0  0  0  0  0  0  0  0  0  0
   55.9070   31.0520   51.3320 N   0  0  0  0  0  0  0  0  0  0  0  0
   54.6820   30.4660   51.7980 C   0  0  0  0  0  0  0  0  0  0  0  0
   54.6230   29.2140   51.9230 O   0  0  0  0  0  0  0  0  0  0  0  0
   53.4610   31.2770   52.1270 C   0  0  0  0  0  0  0  0  0  0  0  0
   52.4590   31.2070   51.0150 C   0  0  0  0  0  0  0  0  0  0  0  0
   52.4720   30.2830   50.0390 N   0  0  0  0  0  0  0  0  0  0  0  0
   51.3990   30.6080   49.2870 C   0  0  0  0  0  0  0  0  0  0  0  0
   51.0700   29.9610   48.2590 O   0  0  0  0  0  0  0  0  0  0  0  0
   50.7040   31.6810   49.7240 N   0  0  0  0  0  0  0  0  0  0  0  0
   51.3880   32.0460   50.8190 C   0  0  0  0  0  0  0  0  0  0  0  0
   51.0400   33.1210   51.6250 O   0  0  0  0  0  0  0  0  0  0  0  0
   59.2660   28.0320   52.9280 H   0  0  0  0  0  0  0  0  0  0  0  0
   60.1174   30.4213   50.7372 H   0  0  0  0  0  0  0  0  0  0  0  0
   61.2185   31.9266   52.8307 H   0  0  0  0  0  0  0  0  0  0  0  0
   62.4368   30.6268   52.5105 H   0  0  0  0  0  0  0  0  0  0  0  0
   62.3023   30.1174   49.6897 H   0  0  0  0  0  0  0  0  0  0  0  0
   63.1504   31.3198   47.6752 H   0  0  0  0  0  0  0  0  0  0  0  0
   63.4149   33.8026   47.7174 H   0  0  0  0  0  0  0  0  0  0  0  0
   62.8230   35.0844   49.7768 H   0  0  0  0  0  0  0  0  0  0  0  0
   61.9624   33.8924   51.7932 H   0  0  0  0  0  0  0  0  0  0  0  0
   56.7292   31.8263   53.1086 H   0  0  0  0  0  0  0  0  0  0  0  0
   57.1750   33.3640   51.1544 H   0  0  0  0  0  0  0  0  0  0  0  0
   58.6777   32.8721   52.0259 H   0  0  0  0  0  0  0  0  0  0  0  0
   57.8974   29.8388   50.2297 H   0  0  0  0  0  0  0  0  0  0  0  0
   58.8660   29.7020   47.8130 H   0  0  0  0  0  0  0  0  0  0  0  0
   59.9577   31.4764   46.0265 H   0  0  0  0  0  0  0  0  0  0  0  0
   60.5423   33.9102   45.7280 H   0  0  0  0  0  0  0  0  0  0  0  0
   60.1338   35.5409   47.5847 H   0  0  0  0  0  0  0  0  0  0  0  0
   59.1225   34.7581   49.7577 H   0  0  0  0  0  0  0  0  0  0  0  0
   53.0052   30.8848   53.0481 H   0  0  0  0  0  0  0  0  0  0  0  0
   53.7616   32.3261   52.2646 H   0  0  0  0  0  0  0  0  0  0  0  0
  1  2  1  0
  2  3  2  0
  2  4  1  0
  4  5  1  0
  5  6  1  0
  6  7  2  0
  7  8  1  0
  8  9  2  0
  9 10  1  0
 10 11  2  0
  4 12  1  0
 12 13  1  0
 13 14  2  0
 13 15  1  0
 15 16  1  0
 16 17  1  0
 17 18  2  0
 18 19  1  0
 19 20  1  0
 20 21  2  0
 21 22  1  0
 22 23  2  0
 23 24  1  0
 24 25  2  0
 15 26  1  0
 26 27  1  0
 27 28  2  0
 27 29  1  0
 29 30  1  0
 30 31  1  0
 31 32  1  0
 32 33  2  0
 32 34  1  0
 34 35  1  0
 35 36  1  0
 11  6  1  0
 25 17  1  0
 35 30  2  0
 25 20  1  0
  1 37  1  0
  4 38  1  6
  5 39  1  0
  5 40  1  0
  7 41  1  0
  8 42  1  0
  9 43  1  0
 10 44  1  0
 11 45  1  0
 15 46  1  1
 16 47  1  0
 16 48  1  0
 18 49  1  0
 19 50  1  0
 21 51  1  0
 22 52  1  0
 23 53  1  0
 24 54  1  0
 29 55  1  0
 29 56  1  0
M  CHG  6   1  -1  12  -1  26  -1  31  -1  34  -1  36  -1
M  END
>  <UniqueID>  (3) 
3

>  <SMILES>  (3) 
[NH-]C(=O)[C@H](Cc1ccccc1)[N-]C(=O)[C@@H](Cc1c[nH]c2ccccc12)[N-]C(=O)Cc1[n-]c(=O)[n-]c1[O-]

>  <Energy>  (3) 
109.13157902080187

>  <Genealogy>  (3) 
[NH-]C(=O)C(Cc1ccccc1)[N-]C(=O)C(Cc1c[nH]c2ccccc12)[N-]C(=O)Cc1[n-]c(=O)[n-]c1[O-] (protonated)
[NH-]C(=O)[C@H](Cc1ccccc1)[N-]C(=O)[C@@H](Cc1c[nH]c2ccccc12)[N-]C(=O)Cc1[n-]c(=O)[n-]c1[O-] (chirality)
[NH-]C(=O)[C@H](Cc1ccccc1)[N-]C(=O)[C@@H](Cc1c[nH]c2ccccc12)[N-]C(=O)Cc1[n-]c(=O)[n-]c1[O-] (3D coordinates assigned)
[NH-]C(=O)[C@H](Cc1ccccc1)[N-]C(=O)[C@@H](Cc1c[nH]c2ccccc12)[N-]C(=O)Cc1[n-]c(=O)[n-]c1[O-] (optimized conformer: 109.13157902080187 kcal/mol)

>  <smiles>  (3) 
NC(=O)C(Cc1ccccc1)NC(=O)C(Cc1c[nH]c2ccccc12)NC(=O)Cc1[nH]c(=O)[nH]c1O

>  <score_type>  (3) 
oracle

>  <origin>  (3) 
adg

>  <m_score__min__energy>  (3) 
-22.18

>  <m_primary>  (3) 
energy

$$$$
3:0
     RDKit          3D

 60 63  0  0  0  0  0  0  0  0999 V2000
   59.2960   31.9770   51.1670 C   0  0  0  0  0  0  0  0  0  0  0  0
   60.5020   31.8300   50.2320 C   0  0  1  0  0  0  0  0  0  0  0  0
   61.0510   30.4210   50.3590 C   0  0  0  0  0  0  0  0  0  0  0  0
   60.7420   29.4630   49.4740 C   0  0  0  0  0  0  0  0  0  0  0  0
   59.8590   29.7960   48.3010 C   0  0  2  0  0  0  0  0  0  0  0  0
   59.8460   28.6970   47.2570 C   0  0  0  0  0  0  0  0  0  0  0  0
   58.7730   28.3540   46.6020 N   0  0  0  0  0  0  0  0  0  0  0  0
   58.1330   29.1460   45.5920 C   0  0  0  0  0  0  0  0  0  0  0  0
   58.7830   30.2890   45.1120 C   0  0  0  0  0  0  0  0  0  0  0  0
   58.1900   31.0780   44.1240 C   0  0  0  0  0  0  0  0  0  0  0  0
   56.9330   30.7370   43.6200 C   0  0  0  0  0  0  0  0  0  0  0  0
   56.2620   29.6150   44.1110 C   0  0  0  0  0  0  0  0  0  0  0  0
   56.8460   28.8170   45.1070 C   0  0  0  0  0  0  0  0  0  0  0  0
   56.1210   27.6960   45.6270 N   0  0  0  0  0  0  0  0  0  0  0  0
   60.2690   31.1800   47.7480 C   0  0  2  0  0  0  0  0  0  0  0  0
   61.7170   31.2210   47.1870 C   0  0  0  0  0  0  0  0  0  0  0  0
   62.3830   32.5450   47.4740 C   0  0  0  0  0  0  0  0  0  0  0  0
   62.2400   33.4620   46.6190 O   0  0  0  0  0  0  0  0  0  0  0  0
   63.1360   32.8380   48.7290 C   0  0  0  0  0  0  0  0  0  0  0  0
   64.1790   31.9750   49.1240 C   0  0  0  0  0  0  0  0  0  0  0  0
   64.9220   32.2340   50.2780 C   0  0  0  0  0  0  0  0  0  0  0  0
   64.6370   33.3530   51.0590 C   0  0  0  0  0  0  0  0  0  0  0  0
   63.6050   34.2160   50.6880 C   0  0  0  0  0  0  0  0  0  0  0  0
   62.8560   33.9630   49.5350 C   0  0  0  0  0  0  0  0  0  0  0  0
   60.1150   32.1700   48.8390 N   0  0  0  0  0  0  0  0  0  0  0  0
   59.6900   33.5190   48.5460 C   0  0  0  0  0  0  0  0  0  0  0  0
   59.8870   34.4310   49.3940 O   0  0  0  0  0  0  0  0  0  0  0  0
   58.9970   33.8550   47.2850 C   0  0  0  0  0  0  0  0  0  0  0  0
   59.6430   34.6170   46.2950 C   0  0  0  0  0  0  0  0  0  0  0  0
   58.9850   34.9240   45.1010 C   0  0  0  0  0  0  0  0  0  0  0  0
   57.6830   34.4660   44.8810 C   0  0  0  0  0  0  0  0  0  0  0  0
   57.0400   33.6940   45.8520 C   0  0  0  0  0  0  0  0  0  0  0  0
   57.6950   33.3830   47.0470 C   0  0  0  0  0  0  0  0  0  0  0  0
   59.6354   31.9356   52.2125 H   0  0  0  0  0  0  0  0  0  0  0  0
   58.8023   32.9420   50.9797 H   0  0  0  0  0  0  0  0  0  0  0  0
   58.5850   31.1589   50.9797 H   0  0  0  0  0  0  0  0  0  0  0  0
   61.2995   32.5323   50.5163 H   0  0  0  0  0  0  0  0  0  0  0  0
   61.7195   30.1798   51.1986 H   0  0  0  0  0  0  0  0  0  0  0  0
   61.1303   28.4420   49.6037 H   0  0  0  0  0  0  0  0  0  0  0  0
   58.8122   29.8591   48.6329 H   0  0  0  0  0  0  0  0  0  0  0  0
   60.7847   28.1651   47.0427 H   0  0  0  0  0  0  0  0  0  0  0  0
   59.7676   30.5676   45.5157 H   0  0  0  0  0  0  0  0  0  0  0  0
   58.7128   31.9677   43.7429 H   0  0  0  0  0  0  0  0  0  0  0  0
   56.4706   31.3533   42.8349 H   0  0  0  0  0  0  0  0  0  0  0  0
   55.2694   29.3550   43.7146 H   0  0  0  0  0  0  0  0  0  0  0  0
   56.5310   27.0640   46.3500 H   0  0  0  0  0  0  0  0  0  0  0  0
   55.1480   27.4960   45.3030 H   0  0  0  0  0  0  0  0  0  0  0  0
   59.6143   31.4133   46.8954 H   0  0  0  0  0  0  0  0  0  0  0  0
   62.3043   30.4166   47.6538 H   0  0  0  0  0  0  0  0  0  0  0  0
   61.6689   31.0875   46.0962 H   0  0  0  0  0  0  0  0  0  0  0  0
   64.4101   31.0877   48.5163 H   0  0  0  0  0  0  0  0  0  0  0  0
   65.7345   31.5530   50.5714 H   0  0  0  0  0  0  0  0  0  0  0  0
   65.2248   33.5554   51.9665 H   0  0  0  0  0  0  0  0  0  0  0  0
   63.3801   35.0985   51.3050 H   0  0  0  0  0  0  0  0  0  0  0  0
   62.0414   34.6464   49.2532 H   0  0  0  0  0  0  0  0  0  0  0  0
   60.6705   34.9728   46.4613 H   0  0  0  0  0  0  0  0  0  0  0  0
   59.4924   35.5268   44.3334 H   0  0  0  0  0  0  0  0  0  0  0  0
   57.1643   34.7134   43.9431 H   0  0  0  0  0  0  0  0  0  0  0  0
   56.0169   33.3305   45.6758 H   0  0  0  0  0  0  0  0  0  0  0  0
   57.1891   32.7661   47.8043 H   0  0  0  0  0  0  0  0  0  0  0  0
  1  2  1  0
  2  3  1  0
  3  4  2  0
  4  5  1  0
  5  6  1  0
  6  7  2  3
  7  8  1  0
  8  9  2  0
  9 10  1  0
 10 11  2  0
 11 12  1  0
 12 13  2  0
 13 14  1  0
  5 15  1  0
 15 16  1  0
 16 17  1  0
 17 18  2  0
 17 19  1  0
 19 20  2  0
 20 21  1  0
 21 22  2  0
 22 23  1  0
 23 24  2  0
 15 25  1  0
 25 26  1  0
 26 27  2  0
 26 28  1  0
 28 29  2  0
 29 30  1  0
 30 31  2  0
 31 32  1  0
 32 33  2  0
 25  2  1  0
 33 28  1  0
 13  8  1  0
 24 19  1  0
  1 34  1  0
  1 35  1  0
  1 36  1  0
  2 37  1  1
  3 38  1  0
  4 39  1  0
  5 40  1  1
  6 41  1  0
  9 42  1  0
 10 43  1  0
 11 44  1  0
 12 45  1  0
 14 46  1  0
 14 47  1  0
 15 48  1  6
 16 49  1  0
 16 50  1  0
 20 51  1  0
 21 52  1  0
 22 53  1  0
 23 54  1  0
 24 55  1  0
 29 56  1  0
 30 57  1  0
 31 58  1  0
 32 59  1  0
 33 60  1  0
M  END
>  <UniqueID>  (4) 
4

>  <SMILES>  (4) 
C[C@H]1C=C[C@H](C=Nc2ccccc2N)C(CC(=O)c2ccccc2)N1C(=O)c1ccccc1

>  <Energy>  (4) 
76.28119327124122

>  <Genealogy>  (4) 
C[C@H]1C=C[C@H](C=Nc2ccccc2N)C(CC(=O)c2ccccc2)N1C(=O)c1ccccc1 (chirality)
C[C@H]1C=C[C@H](C=Nc2ccccc2N)C(CC(=O)c2ccccc2)N1C(=O)c1ccccc1 (3D coordinates assigned)
C[C@H]1C=C[C@H](C=Nc2ccccc2N)C(CC(=O)c2ccccc2)N1C(=O)c1ccccc1 (nonaromatic ring conformer: 76.28119327124122 kcal/mol)

>  <smiles>  (4) 
CC1C=CC(C=Nc2ccccc2N)C(CC(=O)c2ccccc2)N1C(=O)c1ccccc1

>  <score_type>  (4) 
oracle

>  <origin>  (4) 
adg

>  <m_score__min__energy>  (4) 
-10.109999999999999

>  <m_primary>  (4) 
energy

$$$$
4:0
     RDKit          3D

 24 26  0  0  0  0  0  0  0  0999 V2000
   51.9430   22.5400   45.1100 O   0  0  0  0  0  0  0  0  0  0  0  0
   52.9230   23.3220   45.2190 C   0  0  0  0  0  0  0  0  0  0  0  0
   52.7960   24.5890   45.6690 N   0  0  0  0  0  0  0  0  0  0  0  0
   54.0570   25.0470   45.6190 C   0  0  0  0  0  0  0  0  0  0  0  0
   54.4250   26.3350   45.9850 O   0  0  0  0  0  0  0  0  0  0  0  0
   54.9010   24.0650   45.1570 C   0  0  0  0  0  0  0  0  0  0  0  0
   56.3690   24.1930   44.8960 C   0  0  0  0  0  0  0  0  0  0  0  0
   57.0330   24.9130   46.0300 C   0  0  0  0  0  0  0  0  0  0  0  0
   57.5310   24.3540   47.2010 C   0  0  0  0  0  0  0  0  0  0  0  0
   57.4270   23.0100   47.5390 O   0  0  0  0  0  0  0  0  0  0  0  0
   58.1480   25.2660   47.9870 N   0  0  0  0  0  0  0  0  0  0  0  0
   58.0450   26.4170   47.2940 C   0  0  0  0  0  0  0  0  0  0  0  0
   58.5410   27.6610   47.6750 C   0  0  0  0  0  0  0  0  0  0  0  0
   58.3470   28.7480   46.8020 C   0  0  0  0  0  0  0  0  0  0  0  0
   57.6690   28.5680   45.5760 C   0  0  0  0  0  0  0  0  0  0  0  0
   57.4150   30.0530   44.4020 Br  0  0  0  0  0  0  0  0  0  0  0  0
   57.1770   27.3000   45.2140 C   0  0  0  0  0  0  0  0  0  0  0  0
   57.3840   26.2430   46.1020 C   0  0  0  0  0  0  0  0  0  0  0  0
   54.1820   22.9610   44.8890 N   0  0  0  0  0  0  0  0  0  0  0  0
   56.8092   23.1901   44.7943 H   0  0  0  0  0  0  0  0  0  0  0  0
   56.5212   24.7645   43.9685 H   0  0  0  0  0  0  0  0  0  0  0  0
   59.0694   27.7906   48.6310 H   0  0  0  0  0  0  0  0  0  0  0  0
   58.7257   29.7437   47.0762 H   0  0  0  0  0  0  0  0  0  0  0  0
   56.6467   27.1469   44.2625 H   0  0  0  0  0  0  0  0  0  0  0  0
  1  2  2  0
  2  3  1  0
  3  4  1  0
  4  5  1  0
  4  6  2  0
  6  7  1  0
  7  8  1  0
  8  9  2  0
  9 10  1  0
  9 11  1  0
 11 12  1  0
 12 13  2  0
 13 14  1  0
 14 15  2  0
 15 16  1  0
 15 17  1  0
 17 18  2  0
  6 19  1  0
 19  2  1  0
 18  8  1  0
 18 12  1  0
  7 20  1  0
  7 21  1  0
 13 22  1  0
 14 23  1  0
 17 24  1  0
M  CHG  5   3  -1   5  -1  10  -1  11  -1  19  -1
M  END
>  <UniqueID>  (5) 
5

>  <SMILES>  (5) 
O=c1[n-]c([O-])c(Cc2c([O-])[n-]c3ccc(Br)cc23)[n-]1

>  <Energy>  (5) 
86.51396377601958

>  <Genealogy>  (5) 
O=c1[n-]c([O-])c(Cc2c([O-])[n-]c3ccc(Br)cc23)[n-]1 (protonated)
O=c1[n-]c([O-])c(Cc2c([O-])[n-]c3ccc(Br)cc23)[n-]1 (3D coordinates assigned)
O=c1[n-]c([O-])c(Cc2c([O-])[n-]c3ccc(Br)cc23)[n-]1 (optimized conformer: 86.51396377601958 kcal/mol)

>  <smiles>  (5) 
O=c1[nH]c(O)c(Cc2c(O)[nH]c3ccc(Br)cc23)[nH]1

>  <score_type>  (5) 
oracle

>  <origin>  (5) 
adg

>  <m_score__min__energy>  (5) 
-17

>  <m_primary>  (5) 
energy

$$$$
5:0
     RDKit          3D

 52 54  0  0  0  0  0  0  0  0999 V2000
   55.6510   29.5260   43.7770 O   0  0  0  0  0  0  0  0  0  0  0  0
   56.8840   29.4590   43.5200 C   0  0  0  0  0  0  0  0  0  0  0  0
   57.5160   28.1150   43.3000 C   0  0  0  0  0  0  0  0  0  0  0  0
   58.4810   27.8330   44.3610 N   0  0  0  0  0  0  0  0  0  0  0  0
   58.0890   27.5980   45.7200 C   0  0  0  0  0  0  0  0  0  0  0  0
   56.8880   27.7580   46.0720 O   0  0  0  0  0  0  0  0  0  0  0  0
   59.0770   27.2010   46.6770 N   0  0  0  0  0  0  0  0  0  0  0  0
   59.5600   28.0180   47.7530 C   0  0  0  0  0  0  0  0  0  0  0  0
   59.2980   29.3930   47.7300 C   0  0  0  0  0  0  0  0  0  0  0  0
   59.7910   30.2240   48.7410 C   0  0  0  0  0  0  0  0  0  0  0  0
   60.5630   29.6940   49.7800 C   0  0  0  0  0  0  0  0  0  0  0  0
   61.0650   30.5630   50.7590 O   0  0  0  0  0  0  0  0  0  0  0  0
   61.9860   31.5970   50.5320 C   0  0  0  0  0  0  0  0  0  0  0  0
   61.8700   32.7780   51.2760 C   0  0  0  0  0  0  0  0  0  0  0  0
   62.7760   33.8260   51.0850 C   0  0  0  0  0  0  0  0  0  0  0  0
   63.8160   33.6930   50.1610 C   0  0  0  0  0  0  0  0  0  0  0  0
   63.9530   32.5090   49.4300 C   0  0  0  0  0  0  0  0  0  0  0  0
   63.0440   31.4620   49.6130 C   0  0  0  0  0  0  0  0  0  0  0  0
   60.8600   28.3200   49.7850 C   0  0  0  0  0  0  0  0  0  0  0  0
   60.3580   27.4860   48.7810 C   0  0  0  0  0  0  0  0  0  0  0  0
   57.6870   30.6470   43.4780 N   0  0  0  0  0  0  0  0  0  0  0  0
   57.3310   31.8670   44.1450 C   0  0  0  0  0  0  0  0  0  0  0  0
   56.3030   31.9180   44.8760 O   0  0  0  0  0  0  0  0  0  0  0  0
   58.1680   33.0210   44.0000 N   0  0  0  0  0  0  0  0  0  0  0  0
   58.0990   34.1610   44.9120 C   0  0  0  0  0  0  0  0  0  0  0  0
   59.0660   33.9610   46.0460 C   0  0  0  0  0  0  0  0  0  0  0  0
   59.0120   34.7830   47.1850 C   0  0  0  0  0  0  0  0  0  0  0  0
   59.8930   34.5680   48.2500 C   0  0  0  0  0  0  0  0  0  0  0  0
   60.8180   33.5220   48.1930 C   0  0  0  0  0  0  0  0  0  0  0  0
   60.8660   32.6890   47.0720 C   0  0  0  0  0  0  0  0  0  0  0  0
   59.9930   32.9060   46.0010 C   0  0  0  0  0  0  0  0  0  0  0  0
   56.7347   27.3407   43.3039 H   0  0  0  0  0  0  0  0  0  0  0  0
   58.0370   28.1168   42.3312 H   0  0  0  0  0  0  0  0  0  0  0  0
   59.4930   27.7560   44.1100 H   0  0  0  0  0  0  0  0  0  0  0  0
   58.7009   29.8223   46.9120 H   0  0  0  0  0  0  0  0  0  0  0  0
   59.5702   31.3014   48.7190 H   0  0  0  0  0  0  0  0  0  0  0  0
   61.0616   32.8818   52.0148 H   0  0  0  0  0  0  0  0  0  0  0  0
   62.6699   34.7561   51.6627 H   0  0  0  0  0  0  0  0  0  0  0  0
   64.5262   34.5191   50.0089 H   0  0  0  0  0  0  0  0  0  0  0  0
   64.7772   32.4008   48.7096 H   0  0  0  0  0  0  0  0  0  0  0  0
   63.1559   30.5311   49.0377 H   0  0  0  0  0  0  0  0  0  0  0  0
   61.4901   27.8990   50.5823 H   0  0  0  0  0  0  0  0  0  0  0  0
   60.5882   26.4105   48.7956 H   0  0  0  0  0  0  0  0  0  0  0  0
   58.6240   30.5970   43.0170 H   0  0  0  0  0  0  0  0  0  0  0  0
   58.9790   32.9700   43.3430 H   0  0  0  0  0  0  0  0  0  0  0  0
   58.3586   35.0810   44.3678 H   0  0  0  0  0  0  0  0  0  0  0  0
   57.0784   34.2454   45.3136 H   0  0  0  0  0  0  0  0  0  0  0  0
   58.2748   35.5977   47.2390 H   0  0  0  0  0  0  0  0  0  0  0  0
   59.8577   35.2228   49.1331 H   0  0  0  0  0  0  0  0  0  0  0  0
   61.5094   33.3541   49.0319 H   0  0  0  0  0  0  0  0  0  0  0  0
   61.5906   31.8624   47.0319 H   0  0  0  0  0  0  0  0  0  0  0  0
   60.0323   32.2483   45.1202 H   0  0  0  0  0  0  0  0  0  0  0  0
  1  2  2  0
  2  3  1  0
  3  4  1  0
  4  5  1  0
  5  6  2  0
  5  7  1  0
  7  8  1  0
  8  9  2  0
  9 10  1  0
 10 11  2  0
 11 12  1  0
 12 13  1  0
 13 14  2  0
 14 15  1  0
 15 16  2  0
 16 17  1  0
 17 18  2  0
 11 19  1  0
 19 20  2  0
  2 21  1  0
 21 22  1  0
 22 23  2  0
 22 24  1  0
 24 25  1  0
 25 26  1  0
 26 27  2  0
 27 28  1  0
 28 29  2  0
 29 30  1  0
 30 31  2  0
 20  8  1  0
 31 26  1  0
 18 13  1  0
  3 32  1  0
  3 33  1  0
  4 34  1  0
  9 35  1  0
 10 36  1  0
 14 37  1  0
 15 38  1  0
 16 39  1  0
 17 40  1  0
 18 41  1  0
 19 42  1  0
 20 43  1  0
 21 44  1  0
 24 45  1  0
 25 46  1  0
 25 47  1  0
 27 48  1  0
 28 49  1  0
 29 50  1  0
 30 51  1  0
 31 52  1  0
M  CHG  1   7  -1
M  END
>  <UniqueID>  (6) 
6

>  <SMILES>  (6) 
O=C(CNC(=O)[N-]c1ccc(Oc2ccccc2)cc1)NC(=O)NCc1ccccc1

>  <Energy>  (6) 
56.30622503296561

>  <Genealogy>  (6) 
O=C(CNC(=O)[N-]c1ccc(Oc2ccccc2)cc1)NC(=O)NCc1ccccc1 (protonated)
O=C(CNC(=O)[N-]c1ccc(Oc2ccccc2)cc1)NC(=O)NCc1ccccc1 (3D coordinates assigned)
O=C(CNC(=O)[N-]c1ccc(Oc2ccccc2)cc1)NC(=O)NCc1ccccc1 (optimized conformer: 56.30622503296561 kcal/mol)

>  <smiles>  (6) 
O=C(CNC(=O)Nc1ccc(Oc2ccccc2)cc1)NC(=O)NCc1ccccc1

>  <score_type>  (6) 
oracle

>  <origin>  (6) 
adg

>  <m_score__min__energy>  (6) 
-10.390000000000001

>  <m_primary>  (6) 
energy

$$$$
6:0
     RDKit          3D

 44 47  0  0  0  0  0  0  0  0999 V2000
   55.2770   29.4490   44.8210 O   0  0  0  0  0  0  0  0  0  0  0  0
   56.4760   29.1580   45.0740 C   0  0  0  0  0  0  0  0  0  0  0  0
   56.8000   28.0430   45.9210 N   0  0  0  0  0  0  0  0  0  0  0  0
   56.4200   26.8110   45.7550 C   0  0  0  0  0  0  0  0  0  0  0  0
   57.2760   25.8580   45.3050 N   0  0  0  0  0  0  0  0  0  0  0  0
   56.4970   24.7650   45.2750 C   0  0  0  0  0  0  0  0  0  0  0  0
   56.8530   23.4760   44.8860 C   0  0  0  0  0  0  0  0  0  0  0  0
   55.8580   22.4810   44.9370 C   0  0  0  0  0  0  0  0  0  0  0  0
   54.5500   22.7990   45.3690 C   0  0  0  0  0  0  0  0  0  0  0  0
   54.2270   24.1150   45.7540 C   0  0  0  0  0  0  0  0  0  0  0  0
   55.2380   25.0720   45.6910 C   0  0  0  0  0  0  0  0  0  0  0  0
   55.1550   26.3730   46.0050 N   0  0  0  0  0  0  0  0  0  0  0  0
   57.5130   29.9970   44.5540 N   0  0  0  0  0  0  0  0  0  0  0  0
   57.7980   31.3420   44.9640 C   0  0  0  0  0  0  0  0  0  0  0  0
   57.3850   32.3990   44.1440 C   0  0  0  0  0  0  0  0  0  0  0  0
   57.6580   33.7200   44.5020 C   0  0  0  0  0  0  0  0  0  0  0  0
   58.3650   33.9970   45.6740 C   0  0  0  0  0  0  0  0  0  0  0  0
   58.8180   32.9500   46.4880 C   0  0  0  0  0  0  0  0  0  0  0  0
   59.7490   33.2950   47.9490 S   0  0  0  0  0  0  0  0  0  0  0  0
   59.0870   32.6330   49.1260 O   0  0  0  0  0  0  0  0  0  0  0  0
   59.7520   34.7790   48.1930 O   0  0  0  0  0  0  0  0  0  0  0  0
   61.3980   32.7310   47.8150 N   0  0  0  0  0  0  0  0  0  0  0  0
   62.0810   32.7190   49.1280 C   0  0  0  0  0  0  0  0  0  0  0  0
   63.0830   33.8780   49.2700 C   0  0  0  0  0  0  0  0  0  0  0  0
   64.0910   33.8730   48.2670 O   0  0  0  0  0  0  0  0  0  0  0  0
   63.6450   33.3900   47.0060 C   0  0  0  0  0  0  0  0  0  0  0  0
   62.1270   33.5050   46.7920 C   0  0  0  0  0  0  0  0  0  0  0  0
   58.5350   31.6230   46.1300 C   0  0  0  0  0  0  0  0  0  0  0  0
   57.8746   23.2436   44.5510 H   0  0  0  0  0  0  0  0  0  0  0  0
   56.0999   21.4501   44.6389 H   0  0  0  0  0  0  0  0  0  0  0  0
   53.7800   22.0142   45.4047 H   0  0  0  0  0  0  0  0  0  0  0  0
   53.2137   24.3776   46.0920 H   0  0  0  0  0  0  0  0  0  0  0  0
   56.8417   32.1868   43.2114 H   0  0  0  0  0  0  0  0  0  0  0  0
   57.3156   34.5447   43.8597 H   0  0  0  0  0  0  0  0  0  0  0  0
   58.5669   35.0400   45.9591 H   0  0  0  0  0  0  0  0  0  0  0  0
   61.3246   32.8048   49.9220 H   0  0  0  0  0  0  0  0  0  0  0  0
   62.6406   31.7755   49.2100 H   0  0  0  0  0  0  0  0  0  0  0  0
   62.5309   34.8273   49.2061 H   0  0  0  0  0  0  0  0  0  0  0  0
   63.5868   33.7576   50.2404 H   0  0  0  0  0  0  0  0  0  0  0  0
   64.1499   33.9665   46.2169 H   0  0  0  0  0  0  0  0  0  0  0  0
   63.8903   32.3182   46.9716 H   0  0  0  0  0  0  0  0  0  0  0  0
   61.8314   34.5624   46.8600 H   0  0  0  0  0  0  0  0  0  0  0  0
   61.8775   33.1032   45.7989 H   0  0  0  0  0  0  0  0  0  0  0  0
   58.8911   30.7977   46.7641 H   0  0  0  0  0  0  0  0  0  0  0  0
  1  2  2  0
  2  3  1  0
  3  4  2  3
  4  5  1  0
  5  6  1  0
  6  7  2  0
  7  8  1  0
  8  9  2  0
  9 10  1  0
 10 11  2  0
 11 12  1  0
  2 13  1  0
 13 14  1  0
 14 15  2  0
 15 16  1  0
 16 17  2  0
 17 18  1  0
 18 19  1  0
 19 20  2  0
 19 21  2  0
 19 22  1  0
 22 23  1  0
 23 24  1  0
 24 25  1  0
 25 26  1  0
 26 27  1  0
 18 28  2  0
 12  4  1  0
 28 14  1  0
 11  6  1  0
 27 22  1  0
  7 29  1  0
  8 30  1  0
  9 31  1  0
 10 32  1  0
 15 33  1  0
 16 34  1  0
 17 35  1  0
 23 36  1  0
 23 37  1  0
 24 38  1  0
 24 39  1  0
 26 40  1  0
 26 41  1  0
 27 42  1  0
 27 43  1  0
 28 44  1  0
M  CHG  3   5  -1  12  -1  13  -1
M  END
>  <UniqueID>  (7) 
7

>  <SMILES>  (7) 
O=C(N=c1[n-]c2ccccc2[n-]1)[N-]c1cccc(S(=O)(=O)N2CCOCC2)c1

>  <Energy>  (7) 
99.35010651320259

>  <Genealogy>  (7) 
O=C(N=c1[n-]c2ccccc2[n-]1)[N-]c1cccc(S(=O)(=O)N2CCOCC2)c1 (protonated)
O=C(N=c1[n-]c2ccccc2[n-]1)[N-]c1cccc(S(=O)(=O)N2CCOCC2)c1 (3D coordinates assigned)
O=C(N=c1[n-]c2ccccc2[n-]1)[N-]c1cccc(S(=O)(=O)N2CCOCC2)c1 (nonaromatic ring conformer: 99.35010651320259 kcal/mol)

>  <smiles>  (7) 
O=C(N=c1[nH]c2ccccc2[nH]1)Nc1cccc(S(=O)(=O)N2CCOCC2)c1

>  <score_type>  (7) 
oracle

>  <origin>  (7) 
adg

>  <m_score__min__energy>  (7) 
-12.93

>  <m_primary>  (7) 
energy

$$$$
7:0
     RDKit          3D

 54 57  0  0  0  0  0  0  0  0999 V2000
   55.4350   27.4290   54.7640 O   0  0  0  0  0  0  0  0  0  0  0  0
   55.4700   28.4210   53.9870 C   0  0  0  0  0  0  0  0  0  0  0  0
   54.4370   28.6050   52.9360 C   0  0  0  0  0  0  0  0  0  0  0  0
   53.2560   29.2250   53.0880 C   0  0  0  0  0  0  0  0  0  0  0  0
   52.6270   30.1330   52.1070 C   0  0  0  0  0  0  0  0  0  0  0  0
   52.4780   29.7110   50.7770 C   0  0  0  0  0  0  0  0  0  0  0  0
   51.8280   30.5290   49.8470 C   0  0  0  0  0  0  0  0  0  0  0  0
   51.3080   31.7690   50.2380 C   0  0  0  0  0  0  0  0  0  0  0  0
   50.6670   32.5650   49.2890 O   0  0  0  0  0  0  0  0  0  0  0  0
   51.4300   32.1860   51.5760 C   0  0  0  0  0  0  0  0  0  0  0  0
   50.9110   33.4090   51.9850 O   0  0  0  0  0  0  0  0  0  0  0  0
   52.0730   31.3620   52.5060 C   0  0  0  0  0  0  0  0  0  0  0  0
   56.5430   29.3600   54.1290 N   0  0  0  0  0  0  0  0  0  0  0  0
   57.1830   30.0760   53.0640 C   0  0  0  0  0  0  0  0  0  0  0  0
   56.5120   31.1500   52.4660 C   0  0  0  0  0  0  0  0  0  0  0  0
   57.1020   31.8540   51.4120 C   0  0  0  0  0  0  0  0  0  0  0  0
   58.3590   31.4700   50.9250 C   0  0  0  0  0  0  0  0  0  0  0  0
   59.1090   32.3240   49.5810 S   0  0  0  0  0  0  0  0  0  0  0  0
   59.8900   33.4890   50.1230 O   0  0  0  0  0  0  0  0  0  0  0  0
   58.0740   32.8480   48.6240 O   0  0  0  0  0  0  0  0  0  0  0  0
   60.1880   31.2540   48.7460 N   0  0  0  0  0  0  0  0  0  0  0  0
   59.8250   29.9890   48.1720 C   0  0  0  0  0  0  0  0  0  0  0  0
   60.3780   28.7750   48.6200 C   0  0  0  0  0  0  0  0  0  0  0  0
   59.9900   27.5670   48.0350 C   0  0  0  0  0  0  0  0  0  0  0  0
   59.0520   27.5570   46.9990 C   0  0  0  0  0  0  0  0  0  0  0  0
   58.4990   28.7600   46.5410 C   0  0  0  0  0  0  0  0  0  0  0  0
   57.3060   28.7660   45.2430 S   0  0  0  0  0  0  0  0  0  0  0  0
   56.7060   30.1400   45.1410 O   0  0  0  0  0  0  0  0  0  0  0  0
   57.9460   28.4220   43.9260 O   0  0  0  0  0  0  0  0  0  0  0  0
   56.0560   27.6180   45.5900 N   0  0  0  0  0  0  0  0  0  0  0  0
   56.2750   26.3440   45.7020 C   0  0  0  0  0  0  0  0  0  0  0  0
   55.5220   25.5130   46.4570 N   0  0  0  0  0  0  0  0  0  0  0  0
   55.9740   24.2340   46.3820 C   0  0  0  0  0  0  0  0  0  0  0  0
   57.0880   24.0450   45.5680 C   0  0  0  0  0  0  0  0  0  0  0  0
   57.5210   25.5370   44.9180 S   0  0  0  0  0  0  0  0  0  0  0  0
   58.8850   29.9720   47.1310 C   0  0  0  0  0  0  0  0  0  0  0  0
   59.0180   30.3760   51.5000 C   0  0  0  0  0  0  0  0  0  0  0  0
   58.4340   29.6790   52.5600 C   0  0  0  0  0  0  0  0  0  0  0  0
   54.6604   28.1950   51.9400 H   0  0  0  0  0  0  0  0  0  0  0  0
   52.7091   29.0409   54.0245 H   0  0  0  0  0  0  0  0  0  0  0  0
   52.8738   28.7334   50.4647 H   0  0  0  0  0  0  0  0  0  0  0  0
   51.7248   30.1966   48.8035 H   0  0  0  0  0  0  0  0  0  0  0  0
   50.6160   33.5740   49.3790 H   0  0  0  0  0  0  0  0  0  0  0  0
   52.1456   31.6780   53.5571 H   0  0  0  0  0  0  0  0  0  0  0  0
   55.5149   31.4414   52.8277 H   0  0  0  0  0  0  0  0  0  0  0  0
   56.5785   32.7113   50.9638 H   0  0  0  0  0  0  0  0  0  0  0  0
   61.1183   28.7771   49.4336 H   0  0  0  0  0  0  0  0  0  0  0  0
   60.4241   26.6210   48.3909 H   0  0  0  0  0  0  0  0  0  0  0  0
   58.7476   26.6035   46.5427 H   0  0  0  0  0  0  0  0  0  0  0  0
   55.4942   23.4067   46.9255 H   0  0  0  0  0  0  0  0  0  0  0  0
   57.5967   23.0876   45.3819 H   0  0  0  0  0  0  0  0  0  0  0  0
   58.4475   30.9163   46.7749 H   0  0  0  0  0  0  0  0  0  0  0  0
   60.0001   30.0643   51.1149 H   0  0  0  0  0  0  0  0  0  0  0  0
   58.9545   28.8166   53.0020 H   0  0  0  0  0  0  0  0  0  0  0  0
  1  2  2  0
  2  3  1  0
  3  4  2  3
  4  5  1  0
  5  6  2  0
  6  7  1  0
  7  8  2  0
  8  9  1  0
  8 10  1  0
 10 11  1  0
 10 12  2  0
  2 13  1  0
 13 14  1  0
 14 15  2  0
 15 16  1  0
 16 17  2  0
 17 18  1  0
 18 19  2  0
 18 20  2  0
 18 21  1  0
 21 22  1  0
 22 23  2  0
 23 24  1  0
 24 25  2  0
 25 26  1  0
 26 27  1  0
 27 28  2  0
 27 29  2  0
 27 30  1  0
 30 31  2  3
 31 32  1  0
 32 33  1  0
 33 34  2  0
 34 35  1  0
 26 36  2  0
 17 37  1  0
 37 38  2  0
 12  5  1  0
 38 14  1  0
 36 22  1  0
 35 31  1  0
  3 39  1  0
  4 40  1  0
  6 41  1  0
  7 42  1  0
  9 43  1  0
 12 44  1  0
 15 45  1  0
 16 46  1  0
 23 47  1  0
 24 48  1  0
 25 49  1  0
 33 50  1  0
 34 51  1  0
 36 52  1  0
 37 53  1  0
 38 54  1  0
M  CHG  4  11  -1  13  -1  21  -1  32  -1
M  END
>  <UniqueID>  (8) 
8

>  <SMILES>  (8) 
O=C(C=Cc1ccc(O)c([O-])c1)[N-]c1ccc(S(=O)(=O)[N-]c2cccc(S(=O)(=O)N=c3[n-]ccs3)c2)cc1

>  <Energy>  (8) 
108.67806894610396

>  <Genealogy>  (8) 
O=C(C=Cc1ccc(O)c([O-])c1)[N-]c1ccc(S(=O)(=O)[N-]c2cccc(S(=O)(=O)N=c3[n-]ccs3)c2)cc1 (protonated)
O=C(C=Cc1ccc(O)c([O-])c1)[N-]c1ccc(S(=O)(=O)[N-]c2cccc(S(=O)(=O)N=c3[n-]ccs3)c2)cc1 (3D coordinates assigned)
O=C(C=Cc1ccc(O)c([O-])c1)[N-]c1ccc(S(=O)(=O)[N-]c2cccc(S(=O)(=O)N=c3[n-]ccs3)c2)cc1 (optimized conformer: 108.67806894610396 kcal/mol)

>  <smiles>  (8) 
O=C(C=Cc1ccc(O)c(O)c1)Nc1ccc(S(=O)(=O)Nc2cccc(S(=O)(=O)N=c3[nH]ccs3)c2)cc1

>  <score_type>  (8) 
oracle

>  <origin>  (8) 
adg

>  <m_score__min__energy>  (8) 
-18.23

>  <m_primary>  (8) 
energy

$$$$
8:0
     RDKit          3D

 38 39  0  0  0  0  0  0  0  0999 V2000
   58.0690   22.0120   44.1720 C   0  0  0  0  0  0  0  0  0  0  0  0
   56.4700   22.5040   43.5670 S   0  0  0  0  0  0  0  0  0  0  0  0
   56.2060   21.8230   42.2540 O   0  0  0  0  0  0  0  0  0  0  0  0
   56.4490   23.9950   43.3750 O   0  0  0  0  0  0  0  0  0  0  0  0
   55.2680   22.0340   44.7260 N   0  0  0  0  0  0  0  0  0  0  0  0
   54.8770   23.1820   45.5380 C   0  0  0  0  0  0  0  0  0  0  0  0
   55.8450   23.3600   46.7100 C   0  0  0  0  0  0  0  0  0  0  0  0
   55.9060   24.7530   47.1510 N   0  0  0  0  0  0  0  0  0  0  0  0
   55.8820   25.9500   46.3560 C   0  0  0  0  0  0  0  0  0  0  0  0
   54.7700   26.3320   45.9030 O   0  0  0  0  0  0  0  0  0  0  0  0
   57.0900   26.7590   46.0560 C   0  0  0  0  0  0  0  0  0  0  0  0
   58.3720   26.2350   46.2790 C   0  0  0  0  0  0  0  0  0  0  0  0
   59.4810   27.0320   45.9920 C   0  0  0  0  0  0  0  0  0  0  0  0
   60.6440   26.5900   46.1840 O   0  0  0  0  0  0  0  0  0  0  0  0
   59.3060   28.2880   45.5060 N   0  0  0  0  0  0  0  0  0  0  0  0
   58.0600   28.7850   45.2850 C   0  0  0  0  0  0  0  0  0  0  0  0
   57.8920   30.1220   44.7910 N   0  0  0  0  0  0  0  0  0  0  0  0
   57.2910   30.4290   43.5050 C   0  0  0  0  0  0  0  0  0  0  0  0
   57.4200   31.9380   43.3450 C   0  0  0  0  0  0  0  0  0  0  0  0
   57.7110   32.4830   44.7410 C   0  0  0  0  0  0  0  0  0  0  0  0
   58.2550   31.3080   45.5450 C   0  0  0  0  0  0  0  0  0  0  0  0
   56.9710   28.0150   45.5520 N   0  0  0  0  0  0  0  0  0  0  0  0
   58.0615   22.0143   45.2720 H   0  0  0  0  0  0  0  0  0  0  0  0
   58.3030   21.0003   43.8091 H   0  0  0  0  0  0  0  0  0  0  0  0
   58.8312   22.7172   43.8091 H   0  0  0  0  0  0  0  0  0  0  0  0
   54.8913   24.0885   44.9150 H   0  0  0  0  0  0  0  0  0  0  0  0
   53.8648   23.0116   45.9335 H   0  0  0  0  0  0  0  0  0  0  0  0
   55.5080   22.7342   47.5495 H   0  0  0  0  0  0  0  0  0  0  0  0
   56.8492   23.0608   46.3753 H   0  0  0  0  0  0  0  0  0  0  0  0
   58.5006   25.2158   46.6724 H   0  0  0  0  0  0  0  0  0  0  0  0
   57.8265   29.9096   42.6967 H   0  0  0  0  0  0  0  0  0  0  0  0
   56.2419   30.1018   43.4565 H   0  0  0  0  0  0  0  0  0  0  0  0
   58.2453   32.1810   42.6596 H   0  0  0  0  0  0  0  0  0  0  0  0
   56.5055   32.3790   42.9216 H   0  0  0  0  0  0  0  0  0  0  0  0
   58.4578   33.2889   44.6888 H   0  0  0  0  0  0  0  0  0  0  0  0
   56.8077   32.9054   45.2053 H   0  0  0  0  0  0  0  0  0  0  0  0
   59.3482   31.3820   45.6426 H   0  0  0  0  0  0  0  0  0  0  0  0
   57.8434   31.2855   46.5648 H   0  0  0  0  0  0  0  0  0  0  0  0
  1  2  1  0
  2  3  2  0
  2  4  2  0
  2  5  1  0
  5  6  1  0
  6  7  1  0
  7  8  1  0
  8  9  1  0
  9 10  2  0
  9 11  1  0
 11 12  2  0
 12 13  1  0
 13 14  2  0
 13 15  1  0
 15 16  1  0
 16 17  1  0
 17 18  1  0
 18 19  1  0
 19 20  1  0
 20 21  1  0
 16 22  2  0
 22 11  1  0
 21 17  1  0
  1 23  1  0
  1 24  1  0
  1 25  1  0
  6 26  1  0
  6 27  1  0
  7 28  1  0
  7 29  1  0
 12 30  1  0
 18 31  1  0
 18 32  1  0
 19 33  1  0
 19 34  1  0
 20 35  1  0
 20 36  1  0
 21 37  1  0
 21 38  1  0
M  CHG  3   5  -1   8  -1  15  -1
M  END
>  <UniqueID>  (9) 
9

>  <SMILES>  (9) 
CS(=O)(=O)[N-]CC[N-]C(=O)c1cc(=O)[n-]c(N2CCCC2)n1

>  <Energy>  (9) 
29.211443836204207

>  <Genealogy>  (9) 
CS(=O)(=O)[N-]CC[N-]C(=O)c1cc(=O)[n-]c(N2CCCC2)n1 (protonated)
CS(=O)(=O)[N-]CC[N-]C(=O)c1cc(=O)[n-]c(N2CCCC2)n1 (3D coordinates assigned)
CS(=O)(=O)[N-]CC[N-]C(=O)c1cc(=O)[n-]c(N2CCCC2)n1 (nonaromatic ring conformer: 29.211443836204207 kcal/mol)

>  <smiles>  (9) 
CS(=O)(=O)NCCNC(=O)c1cc(=O)[nH]c(N2CCCC2)n1

>  <score_type>  (9) 
oracle

>  <origin>  (9) 
adg

>  <m_score__min__energy>  (9) 
-13.85

>  <m_primary>  (9) 
energy

$$$$
9:0
     RDKit          3D

 53 55  0  0  0  0  0  0  0  0999 V2000
   58.2743   26.5093   44.1138 H   0  0  0  0  0  0  0  0  0  0  0  0
   57.6710   26.3640   45.0220 C   0  0  0  0  0  0  0  0  0  0  0  0
   57.8380   27.2340   46.0300 C   0  0  0  0  0  0  0  0  0  0  0  0
   57.9857   26.8487   47.0497 H   0  0  0  0  0  0  0  0  0  0  0  0
   57.8290   28.7000   45.8080 C   0  0  0  0  0  0  0  0  0  0  0  0
   56.6710   29.3210   45.3310 C   0  0  0  0  0  0  0  0  0  0  0  0
   55.5390   28.5740   45.0230 O   0  0  0  0  0  0  0  0  0  0  0  0
   56.6360   30.6660   45.1840 N   0  0  0  0  0  0  0  0  0  0  0  0
   57.7040   31.4430   45.4890 C   0  0  0  0  0  0  0  0  0  0  0  0
   57.6020   32.6940   45.3650 O   0  0  0  0  0  0  0  0  0  0  0  0
   58.8710   30.8750   45.9330 N   0  0  0  0  0  0  0  0  0  0  0  0
   60.0030   31.7340   46.3430 C   0  0  0  0  0  0  0  0  0  0  0  0
   60.1217   32.5453   45.6098 H   0  0  0  0  0  0  0  0  0  0  0  0
   60.9115   31.1154   46.3874 H   0  0  0  0  0  0  0  0  0  0  0  0
   59.7620   32.3450   47.7320 C   0  0  0  0  0  0  0  0  0  0  0  0
   58.7879   32.8560   47.7319 H   0  0  0  0  0  0  0  0  0  0  0  0
   60.5792   33.0510   47.9411 H   0  0  0  0  0  0  0  0  0  0  0  0
   59.7620   31.2920   48.8170 C   0  0  0  0  0  0  0  0  0  0  0  0
   58.5860   31.0670   49.5520 C   0  0  0  0  0  0  0  0  0  0  0  0
   57.6653   31.6037   49.2793 H   0  0  0  0  0  0  0  0  0  0  0  0
   58.5690   30.1700   50.6260 C   0  0  0  0  0  0  0  0  0  0  0  0
   57.3700   30.0000   51.3340 O   0  0  0  0  0  0  0  0  0  0  0  0
   56.6730   31.0490   51.9980 C   0  0  0  0  0  0  0  0  0  0  0  0
   56.7612   30.9163   53.0864 H   0  0  0  0  0  0  0  0  0  0  0  0
   57.1077   32.0176   51.7103 H   0  0  0  0  0  0  0  0  0  0  0  0
   55.6116   31.0235   51.7103 H   0  0  0  0  0  0  0  0  0  0  0  0
   59.7450   29.4800   50.9620 C   0  0  0  0  0  0  0  0  0  0  0  0
   59.7400   28.7655   51.7984 H   0  0  0  0  0  0  0  0  0  0  0  0
   60.9210   29.6960   50.2400 C   0  0  0  0  0  0  0  0  0  0  0  0
   61.8355   29.1475   50.5098 H   0  0  0  0  0  0  0  0  0  0  0  0
   60.9450   30.6100   49.1700 C   0  0  0  0  0  0  0  0  0  0  0  0
   62.1260   30.8760   48.4570 O   0  0  0  0  0  0  0  0  0  0  0  0
   63.0810   31.8680   48.8160 C   0  0  0  0  0  0  0  0  0  0  0  0
   63.1456   31.9351   49.9120 H   0  0  0  0  0  0  0  0  0  0  0  0
   64.0648   31.5949   48.4067 H   0  0  0  0  0  0  0  0  0  0  0  0
   62.7708   32.8408   48.4067 H   0  0  0  0  0  0  0  0  0  0  0  0
   58.9540   29.5090   46.0640 C   0  0  0  0  0  0  0  0  0  0  0  0
   60.0430   28.9700   46.4080 O   0  0  0  0  0  0  0  0  0  0  0  0
   56.7280   25.2200   45.0500 C   0  0  0  0  0  0  0  0  0  0  0  0
   55.7090   25.2230   46.0170 C   0  0  0  0  0  0  0  0  0  0  0  0
   55.6357   26.0585   46.7288 H   0  0  0  0  0  0  0  0  0  0  0  0
   54.7890   24.1760   46.0830 C   0  0  0  0  0  0  0  0  0  0  0  0
   54.0003   24.1870   46.8497 H   0  0  0  0  0  0  0  0  0  0  0  0
   54.8660   23.1140   45.1790 C   0  0  0  0  0  0  0  0  0  0  0  0
   53.9450   22.0760   45.2580 O   0  0  0  0  0  0  0  0  0  0  0  0
   55.8620   23.0940   44.1940 C   0  0  0  0  0  0  0  0  0  0  0  0
   55.8940   22.0120   43.2990 O   0  0  0  0  0  0  0  0  0  0  0  0
   56.6190   20.8060   43.5160 C   0  0  0  0  0  0  0  0  0  0  0  0
   56.7243   20.6309   44.5969 H   0  0  0  0  0  0  0  0  0  0  0  0
   56.0767   19.9649   43.0594 H   0  0  0  0  0  0  0  0  0  0  0  0
   57.6162   20.8904   43.0594 H   0  0  0  0  0  0  0  0  0  0  0  0
   56.7910   24.1540   44.1290 C   0  0  0  0  0  0  0  0  0  0  0  0
   57.5710   24.1488   43.3534 H   0  0  0  0  0  0  0  0  0  0  0  0
  1  2  1  0
  2  3  2  0
  3  4  1  0
  3  5  1  0
  5  6  2  0
  6  7  1  0
  6  8  1  0
  8  9  1  0
  9 10  2  0
  9 11  1  0
 11 12  1  0
 12 13  1  0
 12 14  1  0
 12 15  1  0
 15 16  1  0
 15 17  1  0
 15 18  1  0
 18 19  2  0
 19 20  1  0
 19 21  1  0
 21 22  1  0
 22 23  1  0
 23 24  1  0
 23 25  1  0
 23 26  1  0
 21 27  2  0
 27 28  1  0
 27 29  1  0
 29 30  1  0
 29 31  2  0
 31 32  1  0
 32 33  1  0
 33 34  1  0
 33 35  1  0
 33 36  1  0
 11 37  1  0
 37 38  2  0
  2 39  1  0
 39 40  2  0
 40 41  1  0
 40 42  1  0
 42 43  1  0
 42 44  2  0
 44 45  1  0
 44 46  1  0
 46 47  1  0
 47 48  1  0
 48 49  1  0
 48 50  1  0
 48 51  1  0
 46 52  2  0
 52 53  1  0
 37  5  1  0
 52 39  1  0
 31 18  1  0
M  CHG  3   7  -1   8  -1  45  -1
M  END
>  <UniqueID>  (10) 
10

>  <SMILES>  (10) 
COc1ccc(OC)c(CCn2c(=O)[n-]c([O-])c(/C=C/c3ccc([O-])c(OC)c3)c2=O)c1

>  <Energy>  (10) 
60.37840665361716

>  <Genealogy>  (10) 
COc1ccc(OC)c(CCn2c(=O)[n-]c([O-])c(C=Cc3ccc([O-])c(OC)c3)c2=O)c1 (protonated)
COc1ccc(OC)c(CCn2c(=O)[n-]c([O-])c(/C=C/c3ccc([O-])c(OC)c3)c2=O)c1 (cis-trans isomerization)
COc1ccc(OC)c(CCn2c(=O)[n-]c([O-])c(/C=C/c3ccc([O-])c(OC)c3)c2=O)c1 (3D coordinates assigned)
COc1ccc(OC)c(CCn2c(=O)[n-]c([O-])c(/C=C/c3ccc([O-])c(OC)c3)c2=O)c1 (optimized conformer: 60.37840665361716 kcal/mol)

>  <smiles>  (10) 
COc1ccc(OC)c(CCn2c(=O)[nH]c(O)c(C=Cc3ccc(O)c(OC)c3)c2=O)c1

>  <score_type>  (10) 
oracle

>  <origin>  (10) 
adg

>  <m_score__min__energy>  (10) 
-14.56

>  <m_primary>  (10) 
energy

$$$$
10:0
     RDKit          3D

 37 39  0  0  0  0  0  0  0  0999 V2000
   56.9960   29.0230   42.7790 N   0  0  0  0  0  0  0  0  0  0  0  0
   56.1180   29.5510   44.1700 S   0  0  0  0  0  0  0  0  0  0  0  0
   56.8930   30.6360   44.8650 O   0  0  0  0  0  0  0  0  0  0  0  0
   54.7780   30.0750   43.7380 O   0  0  0  0  0  0  0  0  0  0  0  0
   55.9010   28.2060   45.2430 N   0  0  0  0  0  0  0  0  0  0  0  0
   56.9500   27.5500   45.9680 C   0  0  0  0  0  0  0  0  0  0  0  0
   56.9330   26.1660   46.2180 C   0  0  0  0  0  0  0  0  0  0  0  0
   57.9720   25.5700   46.9390 C   0  0  0  0  0  0  0  0  0  0  0  0
   59.0340   26.3430   47.4110 C   0  0  0  0  0  0  0  0  0  0  0  0
   59.0710   27.7220   47.1570 C   0  0  0  0  0  0  0  0  0  0  0  0
   60.1940   28.5680   47.6910 C   0  0  0  0  0  0  0  0  0  0  0  0
   59.6710   29.8490   48.1770 N   0  0  0  0  0  0  0  0  0  0  0  0
   59.5610   30.8570   47.3060 N   0  0  0  0  0  0  0  0  0  0  0  0
   59.0580   32.0720   47.6520 C   0  0  0  0  0  0  0  0  0  0  0  0
   58.9660   33.1370   46.6340 C   0  0  0  0  0  0  0  0  0  0  0  0
   57.9130   33.3130   45.7400 C   0  0  0  0  0  0  0  0  0  0  0  0
   58.0850   34.4070   44.8840 C   0  0  0  0  0  0  0  0  0  0  0  0
   59.2710   35.1000   45.0950 C   0  0  0  0  0  0  0  0  0  0  0  0
   60.1010   34.3490   46.3490 S   0  0  0  0  0  0  0  0  0  0  0  0
   58.6330   32.2760   48.9680 C   0  0  0  0  0  0  0  0  0  0  0  0
   58.7310   31.2330   49.8830 C   0  0  0  0  0  0  0  0  0  0  0  0
   59.2530   30.0070   49.4720 C   0  0  0  0  0  0  0  0  0  0  0  0
   59.3320   29.0580   50.2990 O   0  0  0  0  0  0  0  0  0  0  0  0
   58.0210   28.3190   46.4410 C   0  0  0  0  0  0  0  0  0  0  0  0
   56.9690   27.9780   42.7800 H   0  0  0  0  0  0  0  0  0  0  0  0
   57.9930   29.2980   42.9240 H   0  0  0  0  0  0  0  0  0  0  0  0
   56.1004   25.5512   45.8454 H   0  0  0  0  0  0  0  0  0  0  0  0
   57.9525   24.4878   47.1350 H   0  0  0  0  0  0  0  0  0  0  0  0
   59.8446   25.8692   47.9841 H   0  0  0  0  0  0  0  0  0  0  0  0
   60.6868   28.0381   48.5194 H   0  0  0  0  0  0  0  0  0  0  0  0
   60.9182   28.7567   46.8848 H   0  0  0  0  0  0  0  0  0  0  0  0
   57.0314   32.6559   45.7095 H   0  0  0  0  0  0  0  0  0  0  0  0
   57.3504   34.6915   44.1163 H   0  0  0  0  0  0  0  0  0  0  0  0
   59.6082   35.9865   44.5378 H   0  0  0  0  0  0  0  0  0  0  0  0
   58.2257   33.2502   49.2764 H   0  0  0  0  0  0  0  0  0  0  0  0
   58.3994   31.3741   50.9223 H   0  0  0  0  0  0  0  0  0  0  0  0
   58.0397   29.4020   46.2495 H   0  0  0  0  0  0  0  0  0  0  0  0
  1  2  1  0
  2  3  2  0
  2  4  2  0
  2  5  1  0
  5  6  1  0
  6  7  2  0
  7  8  1  0
  8  9  2  0
  9 10  1  0
 10 11  1  0
 11 12  1  0
 12 13  1  0
 13 14  2  0
 14 15  1  0
 15 16  2  0
 16 17  1  0
 17 18  2  0
 18 19  1  0
 14 20  1  0
 20 21  2  0
 21 22  1  0
 22 23  2  0
 10 24  2  0
 24  6  1  0
 22 12  1  0
 19 15  1  0
  1 25  1  0
  1 26  1  0
  7 27  1  0
  8 28  1  0
  9 29  1  0
 11 30  1  0
 11 31  1  0
 16 32  1  0
 17 33  1  0
 18 34  1  0
 20 35  1  0
 21 36  1  0
 24 37  1  0
M  CHG  1   5  -1
M  END
>  <UniqueID>  (11) 
11

>  <SMILES>  (11) 
NS(=O)(=O)[N-]c1cccc(Cn2nc(-c3cccs3)ccc2=O)c1

>  <Energy>  (11) 
66.45549510676572

>  <Genealogy>  (11) 
NS(=O)(=O)[N-]c1cccc(Cn2nc(-c3cccs3)ccc2=O)c1 (protonated)
NS(=O)(=O)[N-]c1cccc(Cn2nc(-c3cccs3)ccc2=O)c1 (3D coordinates assigned)
NS(=O)(=O)[N-]c1cccc(Cn2nc(-c3cccs3)ccc2=O)c1 (optimized conformer: 66.45549510676572 kcal/mol)

>  <smiles>  (11) 
NS(=O)(=O)Nc1cccc(Cn2nc(-c3cccs3)ccc2=O)c1

>  <score_type>  (11) 
oracle

>  <origin>  (11) 
adg

>  <m_score__min__energy>  (11) 
-10.41

>  <m_primary>  (11) 
energy

$$$$
11:0
     RDKit          3D

 58 61  0  0  1  0  0  0  0  0999 V2000
   57.5460   23.6460   45.4560 C   0  0  0  0  0  0  0  0  0  0  0  0
   56.8690   24.8700   45.9850 C   0  0  0  0  0  0  0  0  0  0  0  0
   57.3720   25.1280   47.3910 C   0  0  0  0  0  0  0  0  0  0  0  0
   55.4420   24.6360   46.0160 C   0  0  0  0  0  0  0  0  0  0  0  0
   54.2910   24.4640   46.0530 N   0  0  0  0  0  0  0  0  0  0  0  0
   57.2020   26.0610   45.1240 C   0  0  0  0  0  0  0  0  0  0  0  0
   57.7660   25.8500   43.8850 C   0  0  0  0  0  0  0  0  0  0  0  0
   58.0510   26.9720   43.1350 C   0  0  0  0  0  0  0  0  0  0  0  0
   57.7830   28.2340   43.6110 C   0  0  0  0  0  0  0  0  0  0  0  0
   57.2120   28.4630   44.8630 C   0  0  0  0  0  0  0  0  0  0  0  0
   56.9770   29.7870   45.2600 N   0  0  0  0  0  0  0  0  0  0  0  0
   57.8930   30.8500   45.3180 C   0  0  0  0  0  0  0  0  0  0  0  0
   59.0650   30.6580   44.9910 O   0  0  0  0  0  0  0  0  0  0  0  0
   57.4950   32.1290   45.7420 N   0  0  0  0  0  0  0  0  0  0  0  0
   58.2980   33.2810   45.8500 C   0  0  0  0  0  0  0  0  0  0  0  0
   58.4480   34.2550   44.9140 C   0  0  0  0  0  0  0  0  0  0  0  0
   59.2740   35.3700   45.1160 C   0  0  0  0  0  0  0  0  0  0  0  0
   59.9800   35.5320   46.2880 C   0  0  0  0  0  0  0  0  0  0  0  0
   59.8330   34.5500   47.2430 C   0  0  0  0  0  0  0  0  0  0  0  0
   60.5330   34.6940   48.4270 O   0  0  0  0  0  0  0  0  0  0  0  0
   61.8270   34.1930   48.4790 C   0  0  0  0  0  0  0  0  0  0  0  0
   62.6240   34.2370   49.5870 C   0  0  0  0  0  0  0  0  0  0  0  0
   63.8860   33.7040   49.5020 C   0  0  0  0  0  0  0  0  0  0  0  0
   64.6920   33.7080   50.4950 N   0  0  0  0  0  0  0  0  0  0  0  0
   65.7450   32.7430   50.5210 C   0  0  0  0  0  0  0  0  0  0  0  0
   66.7260   32.7800   49.7340 O   0  0  0  0  0  0  0  0  0  0  0  0
   65.6040   31.6660   51.5640 C   0  0  0  0  0  0  0  0  0  0  0  0
   64.7380   30.4980   51.2850 C   0  0  0  0  0  0  0  0  0  0  0  0
   66.2920   30.3760   51.3650 C   0  0  0  0  0  0  0  0  0  0  0  0
   64.3420   33.1450   48.3510 N   0  0  0  0  0  0  0  0  0  0  0  0
   63.5450   33.1020   47.2510 C   0  0  0  0  0  0  0  0  0  0  0  0
   62.3100   33.6310   47.3560 N   0  0  0  0  0  0  0  0  0  0  0  0
   59.0240   33.4630   47.0390 C   0  0  0  0  0  0  0  0  0  0  0  0
   56.9340   27.3360   45.5970 C   0  0  0  0  0  0  0  0  0  0  0  0
   57.8896   23.0249   46.2963 H   0  0  0  0  0  0  0  0  0  0  0  0
   56.8373   23.0717   44.8413 H   0  0  0  0  0  0  0  0  0  0  0  0
   58.4092   23.9411   44.8413 H   0  0  0  0  0  0  0  0  0  0  0  0
   56.6375   24.7513   48.1181 H   0  0  0  0  0  0  0  0  0  0  0  0
   58.3317   24.6108   47.5378 H   0  0  0  0  0  0  0  0  0  0  0  0
   57.5119   26.2092   47.5378 H   0  0  0  0  0  0  0  0  0  0  0  0
   57.9785   24.8371   43.5123 H   0  0  0  0  0  0  0  0  0  0  0  0
   58.5008   26.8552   42.1380 H   0  0  0  0  0  0  0  0  0  0  0  0
   58.0292   29.0992   42.9779 H   0  0  0  0  0  0  0  0  0  0  0  0
   55.9800   30.0190   45.5560 H   0  0  0  0  0  0  0  0  0  0  0  0
   56.4710   32.2320   46.0100 H   0  0  0  0  0  0  0  0  0  0  0  0
   57.9016   34.1654   43.9635 H   0  0  0  0  0  0  0  0  0  0  0  0
   59.3598   36.1290   44.3245 H   0  0  0  0  0  0  0  0  0  0  0  0
   60.6300   36.4039   46.4533 H   0  0  0  0  0  0  0  0  0  0  0  0
   62.2639   34.6880   50.5235 H   0  0  0  0  0  0  0  0  0  0  0  0
   65.6238   32.4163   52.3681 H   0  0  0  0  0  0  0  0  0  0  0  0
   64.1058   30.0730   52.0785 H   0  0  0  0  0  0  0  0  0  0  0  0
   63.9635   30.2482   50.5449 H   0  0  0  0  0  0  0  0  0  0  0  0
   66.7651   29.8627   52.2151 H   0  0  0  0  0  0  0  0  0  0  0  0
   67.0878   30.0013   50.7045 H   0  0  0  0  0  0  0  0  0  0  0  0
   65.2960   32.7460   48.3010 H   0  0  0  0  0  0  0  0  0  0  0  0
   63.8949   32.6522   46.3101 H   0  0  0  0  0  0  0  0  0  0  0  0
   58.9401   32.7069   47.8335 H   0  0  0  0  0  0  0  0  0  0  0  0
   56.4834   27.4490   46.5941 H   0  0  0  0  0  0  0  0  0  0  0  0
  1  2  1  0
  2  3  1  0
  2  4  1  0
  4  5  3  0
  2  6  1  0
  6  7  2  0
  7  8  1  0
  8  9  2  0
  9 10  1  0
 10 11  1  0
 11 12  1  0
 12 13  2  0
 12 14  1  0
 14 15  1  0
 15 16  2  0
 16 17  1  0
 17 18  2  0
 18 19  1  0
 19 20  1  0
 20 21  1  0
 21 22  2  0
 22 23  1  0
 23 24  2  0
 24 25  1  0
 25 26  2  0
 25 27  1  0
 27 28  1  0
 28 29  1  0
 23 30  1  0
 30 31  1  0
 31 32  2  0
 19 33  2  0
 10 34  2  0
 34  6  1  0
 33 15  1  0
 32 21  1  0
 29 27  1  0
  1 35  1  0
  1 36  1  0
  1 37  1  0
  3 38  1  0
  3 39  1  0
  3 40  1  0
  7 41  1  0
  8 42  1  0
  9 43  1  0
 11 44  1  0
 14 45  1  0
 16 46  1  0
 17 47  1  0
 18 48  1  0
 22 49  1  0
 27 50  1  0
 28 51  1  0
 28 52  1  0
 29 53  1  0
 29 54  1  0
 30 55  1  0
 31 56  1  0
 33 57  1  0
 34 58  1  0
M  END
>  <smiles>  (12) 
CC(C)(C#N)c1cccc(NC(=O)Nc2cccc(Oc3cc(=NC(=O)C4CC4)[nH]cn3)c2)c1

>  <score_type>  (12) 
oracle

>  <origin>  (12) 
adg

>  <m_score__min__energy>  (12) 
-9.5899999999999999

>  <m_primary>  (12) 
energy

$$$$
12:0
     RDKit          3D

 37 39  0  0  0  0  0  0  0  0999 V2000
   53.9310   29.0150   53.0960 O   0  0  0  0  0  0  0  0  0  0  0  0
   53.9090   30.1070   52.4670 C   0  0  0  0  0  0  0  0  0  0  0  0
   52.7230   31.0210   52.6150 C   0  0  0  0  0  0  0  0  0  0  0  0
   52.0010   31.1640   51.3100 C   0  0  0  0  0  0  0  0  0  0  0  0
   52.0400   30.2520   50.3230 N   0  0  0  0  0  0  0  0  0  0  0  0
   51.3050   30.8240   49.3430 C   0  0  0  0  0  0  0  0  0  0  0  0
   51.1000   30.2630   48.2350 O   0  0  0  0  0  0  0  0  0  0  0  0
   50.8130   32.0460   49.6420 N   0  0  0  0  0  0  0  0  0  0  0  0
   51.2680   32.2470   50.8900 C   0  0  0  0  0  0  0  0  0  0  0  0
   51.0230   33.4010   51.6250 O   0  0  0  0  0  0  0  0  0  0  0  0
   55.0410   30.4610   51.6610 N   0  0  0  0  0  0  0  0  0  0  0  0
   56.2480   31.0870   52.1180 C   0  0  0  0  0  0  0  0  0  0  0  0
   56.6470   31.0240   53.4640 C   0  0  0  0  0  0  0  0  0  0  0  0
   57.8180   31.6620   53.8790 C   0  0  0  0  0  0  0  0  0  0  0  0
   58.5830   32.3910   52.9660 C   0  0  0  0  0  0  0  0  0  0  0  0
   58.1660   32.5060   51.6280 C   0  0  0  0  0  0  0  0  0  0  0  0
   58.9270   33.2350   50.6530 N   0  0  0  0  0  0  0  0  0  0  0  0
   59.5480   32.6980   49.4760 C   0  0  0  0  0  0  0  0  0  0  0  0
   60.3320   31.7140   49.5670 O   0  0  0  0  0  0  0  0  0  0  0  0
   59.3140   33.3350   48.1580 C   0  0  0  0  0  0  0  0  0  0  0  0
   59.8480   34.6060   47.8740 C   0  0  0  0  0  0  0  0  0  0  0  0
   59.6280   35.2040   46.6290 C   0  0  0  0  0  0  0  0  0  0  0  0
   58.8770   34.5440   45.6560 C   0  0  0  0  0  0  0  0  0  0  0  0
   58.3410   33.2810   45.9240 C   0  0  0  0  0  0  0  0  0  0  0  0
   57.3970   32.4520   44.6990 Cl  0  0  0  0  0  0  0  0  0  0  0  0
   58.5580   32.6770   47.1680 C   0  0  0  0  0  0  0  0  0  0  0  0
   57.0040   31.8420   51.2130 C   0  0  0  0  0  0  0  0  0  0  0  0
   52.0353   30.6023   53.3646 H   0  0  0  0  0  0  0  0  0  0  0  0
   53.0770   32.0122   52.9348 H   0  0  0  0  0  0  0  0  0  0  0  0
   56.0357   30.4710   54.1923 H   0  0  0  0  0  0  0  0  0  0  0  0
   58.1389   31.5900   54.9287 H   0  0  0  0  0  0  0  0  0  0  0  0
   59.5139   32.8764   53.2943 H   0  0  0  0  0  0  0  0  0  0  0  0
   60.4419   35.1321   48.6359 H   0  0  0  0  0  0  0  0  0  0  0  0
   60.0485   36.1980   46.4163 H   0  0  0  0  0  0  0  0  0  0  0  0
   58.7066   35.0175   44.6778 H   0  0  0  0  0  0  0  0  0  0  0  0
   58.1356   31.6824   47.3738 H   0  0  0  0  0  0  0  0  0  0  0  0
   56.6819   31.9147   50.1637 H   0  0  0  0  0  0  0  0  0  0  0  0
  1  2  2  0
  2  3  1  0
  3  4  1  0
  4  5  1  0
  5  6  1  0
  6  7  2  0
  6  8  1  0
  8  9  1  0
  9 10  1  0
  2 11  1  0
 11 12  1  0
 12 13  2  0
 13 14  1  0
 14 15  2  0
 15 16  1  0
 16 17  1  0
 17 18  1  0
 18 19  2  0
 18 20  1  0
 20 21  2  0
 21 22  1  0
 22 23  2  0
 23 24  1  0
 24 25  1  0
 24 26  2  0
 16 27  2  0
  9  4  2  0
 27 12  1  0
 26 20  1  0
  3 28  1  0
  3 29  1  0
 13 30  1  0
 14 31  1  0
 15 32  1  0
 21 33  1  0
 22 34  1  0
 23 35  1  0
 26 36  1  0
 27 37  1  0
M  CHG  5   5  -1   8  -1  10  -1  11  -1  17  -1
M  END
>  <UniqueID>  (13) 
12

>  <SMILES>  (13) 
O=C(Cc1[n-]c(=O)[n-]c1[O-])[N-]c1cccc([N-]C(=O)c2cccc(Cl)c2)c1

>  <Energy>  (13) 
77.06537370943182

>  <Genealogy>  (13) 
O=C(Cc1[n-]c(=O)[n-]c1[O-])[N-]c1cccc([N-]C(=O)c2cccc(Cl)c2)c1 (protonated)
O=C(Cc1[n-]c(=O)[n-]c1[O-])[N-]c1cccc([N-]C(=O)c2cccc(Cl)c2)c1 (3D coordinates assigned)
O=C(Cc1[n-]c(=O)[n-]c1[O-])[N-]c1cccc([N-]C(=O)c2cccc(Cl)c2)c1 (optimized conformer: 77.06537370943182 kcal/mol)

>  <smiles>  (13) 
O=C(Cc1[nH]c(=O)[nH]c1O)Nc1cccc(NC(=O)c2cccc(Cl)c2)c1

>  <score_type>  (13) 
oracle

>  <origin>  (13) 
adg

>  <m_score__min__energy>  (13) 
-19.5

>  <m_primary>  (13) 
energy

$$$$
13:0
     RDKit          3D

 69 71  0  0  0  0  0  0  0  0999 V2000
   65.2010   32.4220   49.9020 C   0  0  0  0  0  0  0  0  0  0  0  0
   63.8130   31.8030   50.1780 C   0  0  0  0  0  0  0  0  0  0  0  0
   62.6450   32.4350   49.4670 N   0  0  0  0  0  0  0  0  0  0  0  0
   62.3100   33.7720   50.0780 C   0  0  0  0  0  0  0  0  0  0  0  0
   60.8320   34.2080   50.0100 C   0  0  0  0  0  0  0  0  0  0  0  0
   61.4090   31.5690   49.5910 C   0  0  0  0  0  0  0  0  0  0  0  0
   61.4730   30.0980   49.0880 C   0  0  0  0  0  0  0  0  0  0  0  0
   60.2470   29.6130   48.2930 C   0  0  0  0  0  0  0  0  0  0  0  0
   60.1990   30.2550   46.9850 N   0  0  0  0  0  0  0  0  0  0  0  0
   59.9310   29.5540   45.7650 C   0  0  0  0  0  0  0  0  0  0  0  0
   60.8660   28.9240   45.2000 O   0  0  0  0  0  0  0  0  0  0  0  0
   58.5750   29.6180   45.1490 C   0  0  0  0  0  0  0  0  0  0  0  0
   58.3690   30.5010   44.0690 C   0  0  0  0  0  0  0  0  0  0  0  0
   57.1330   30.5770   43.4260 C   0  0  0  0  0  0  0  0  0  0  0  0
   56.0770   29.7740   43.8430 C   0  0  0  0  0  0  0  0  0  0  0  0
   56.2490   28.8960   44.9130 C   0  0  0  0  0  0  0  0  0  0  0  0
   57.4800   28.8160   45.5830 C   0  0  0  0  0  0  0  0  0  0  0  0
   57.5900   27.6440   46.9530 S   0  0  0  0  0  0  0  0  0  0  0  0
   57.1350   26.2150   45.9590 C   0  0  0  0  0  0  0  0  0  0  0  0
   58.1410   25.4270   45.3780 C   0  0  0  0  0  0  0  0  0  0  0  0
   57.8060   24.3620   44.5370 C   0  0  0  0  0  0  0  0  0  0  0  0
   56.4640   24.0560   44.3000 C   0  0  0  0  0  0  0  0  0  0  0  0
   55.4560   24.8300   44.8860 C   0  0  0  0  0  0  0  0  0  0  0  0
   55.7870   25.9180   45.7010 C   0  0  0  0  0  0  0  0  0  0  0  0
   54.7740   26.7090   46.2290 O   0  0  0  0  0  0  0  0  0  0  0  0
   63.0560   32.6160   48.0290 C   0  0  0  0  0  0  0  0  0  0  0  0
   61.9040   32.5850   46.9820 C   0  0  0  0  0  0  0  0  0  0  0  0
   61.3080   33.9810   46.7140 C   0  0  0  0  0  0  0  0  0  0  0  0
   59.8330   33.8900   46.4140 C   0  0  0  0  0  0  0  0  0  0  0  0
   59.3240   34.3860   45.2020 C   0  0  0  0  0  0  0  0  0  0  0  0
   57.9680   34.2500   44.8970 C   0  0  0  0  0  0  0  0  0  0  0  0
   57.1080   33.6230   45.8030 C   0  0  0  0  0  0  0  0  0  0  0  0
   57.6030   33.1320   47.0160 C   0  0  0  0  0  0  0  0  0  0  0  0
   58.9610   33.2610   47.3210 C   0  0  0  0  0  0  0  0  0  0  0  0
   65.6997   32.6444   50.8569 H   0  0  0  0  0  0  0  0  0  0  0  0
   65.8117   31.7109   49.3263 H   0  0  0  0  0  0  0  0  0  0  0  0
   65.0800   33.3515   49.3263 H   0  0  0  0  0  0  0  0  0  0  0  0
   63.8532   30.7448   49.8805 H   0  0  0  0  0  0  0  0  0  0  0  0
   63.6271   31.9679   51.2496 H   0  0  0  0  0  0  0  0  0  0  0  0
   62.5998   33.7370   51.1386 H   0  0  0  0  0  0  0  0  0  0  0  0
   62.8601   34.5124   49.4787 H   0  0  0  0  0  0  0  0  0  0  0  0
   60.4368   34.3246   51.0299 H   0  0  0  0  0  0  0  0  0  0  0  0
   60.7567   35.1666   49.4758 H   0  0  0  0  0  0  0  0  0  0  0  0
   60.2485   33.4437   49.4758 H   0  0  0  0  0  0  0  0  0  0  0  0
   61.1434   31.5349   50.6579 H   0  0  0  0  0  0  0  0  0  0  0  0
   60.6792   32.0482   48.9218 H   0  0  0  0  0  0  0  0  0  0  0  0
   62.3568   29.9999   48.4404 H   0  0  0  0  0  0  0  0  0  0  0  0
   61.5124   29.4723   49.9919 H   0  0  0  0  0  0  0  0  0  0  0  0
   60.3107   28.5231   48.1590 H   0  0  0  0  0  0  0  0  0  0  0  0
   59.3356   29.8743   48.8508 H   0  0  0  0  0  0  0  0  0  0  0  0
   59.1964   31.1405   43.7278 H   0  0  0  0  0  0  0  0  0  0  0  0
   56.9935   31.2742   42.5867 H   0  0  0  0  0  0  0  0  0  0  0  0
   55.1061   29.8313   43.3290 H   0  0  0  0  0  0  0  0  0  0  0  0
   55.4115   28.2597   45.2352 H   0  0  0  0  0  0  0  0  0  0  0  0
   59.1982   25.6488   45.5856 H   0  0  0  0  0  0  0  0  0  0  0  0
   58.5987   23.7653   44.0621 H   0  0  0  0  0  0  0  0  0  0  0  0
   56.1994   23.2068   43.6528 H   0  0  0  0  0  0  0  0  0  0  0  0
   54.3997   24.5821   44.7052 H   0  0  0  0  0  0  0  0  0  0  0  0
   63.5628   33.5886   47.9434 H   0  0  0  0  0  0  0  0  0  0  0  0
   63.6960   31.7533   47.7921 H   0  0  0  0  0  0  0  0  0  0  0  0
   62.2978   32.1828   46.0369 H   0  0  0  0  0  0  0  0  0  0  0  0
   61.1011   31.9528   47.3891 H   0  0  0  0  0  0  0  0  0  0  0  0
   61.4561   34.6121   47.6027 H   0  0  0  0  0  0  0  0  0  0  0  0
   61.8168   34.4179   45.8421 H   0  0  0  0  0  0  0  0  0  0  0  0
   59.9975   34.8843   44.4892 H   0  0  0  0  0  0  0  0  0  0  0  0
   57.5769   34.6362   43.9441 H   0  0  0  0  0  0  0  0  0  0  0  0
   56.0402   33.5154   45.5619 H   0  0  0  0  0  0  0  0  0  0  0  0
   56.9231   32.6442   47.7300 H   0  0  0  0  0  0  0  0  0  0  0  0
   59.3489   32.8695   48.2730 H   0  0  0  0  0  0  0  0  0  0  0  0
  1  2  1  0
  2  3  1  0
  3  4  1  0
  4  5  1  0
  3  6  1  0
  6  7  1  0
  7  8  1  0
  8  9  1  0
  9 10  1  0
 10 11  2  0
 10 12  1  0
 12 13  2  0
 13 14  1  0
 14 15  2  0
 15 16  1  0
 16 17  2  0
 17 18  1  0
 18 19  1  0
 19 20  2  0
 20 21  1  0
 21 22  2  0
 22 23  1  0
 23 24  2  0
 24 25  1  0
  3 26  1  0
 26 27  1  0
 27 28  1  0
 28 29  1  0
 29 30  2  0
 30 31  1  0
 31 32  2  0
 32 33  1  0
 33 34  2  0
 17 12  1  0
 24 19  1  0
 34 29  1  0
  1 35  1  0
  1 36  1  0
  1 37  1  0
  2 38  1  0
  2 39  1  0
  4 40  1  0
  4 41  1  0
  5 42  1  0
  5 43  1  0
  5 44  1  0
  6 45  1  0
  6 46  1  0
  7 47  1  0
  7 48  1  0
  8 49  1  0
  8 50  1  0
 13 51  1  0
 14 52  1  0
 15 53  1  0
 16 54  1  0
 20 55  1  0
 21 56  1  0
 22 57  1  0
 23 58  1  0
 26 59  1  0
 26 60  1  0
 27 61  1  0
 27 62  1  0
 28 63  1  0
 28 64  1  0
 30 65  1  0
 31 66  1  0
 32 67  1  0
 33 68  1  0
 34 69  1  0
M  CHG  3   3   1   9  -1  25  -1
M  END
>  <UniqueID>  (14) 
13

>  <SMILES>  (14) 
CC[N+](CC)(CCC[N-]C(=O)c1ccccc1Sc1ccccc1[O-])CCCc1ccccc1

>  <Energy>  (14) 
91.24826034358004

>  <Genealogy>  (14) 
CC[N+](CC)(CCC[N-]C(=O)c1ccccc1Sc1ccccc1[O-])CCCc1ccccc1 (protonated)
CC[N+](CC)(CCC[N-]C(=O)c1ccccc1Sc1ccccc1[O-])CCCc1ccccc1 (3D coordinates assigned)
CC[N+](CC)(CCC[N-]C(=O)c1ccccc1Sc1ccccc1[O-])CCCc1ccccc1 (optimized conformer: 91.24826034358004 kcal/mol)

>  <smiles>  (14) 
CC[N+](CC)(CCCNC(=O)c1ccccc1Sc1ccccc1O)CCCc1ccccc1

>  <score_type>  (14) 
oracle

>  <origin>  (14) 
adg

>  <m_score__min__energy>  (14) 
-11.800000000000001

>  <m_primary>  (14) 
energy

$$$$
14:0
     RDKit          3D

 45 47  0  0  0  0  0  0  0  0999 V2000
   58.2950   21.5670   43.9270 C   0  0  0  0  0  0  0  0  0  0  0  0
   59.5560   22.2170   44.4860 C   0  0  0  0  0  0  0  0  0  0  0  0
   59.2470   23.0290   45.6200 O   0  0  0  0  0  0  0  0  0  0  0  0
   58.4100   24.1560   45.6150 C   0  0  0  0  0  0  0  0  0  0  0  0
   58.9780   25.4020   45.9080 C   0  0  0  0  0  0  0  0  0  0  0  0
   58.1950   26.5590   45.9140 C   0  0  0  0  0  0  0  0  0  0  0  0
   56.8250   26.4880   45.6080 C   0  0  0  0  0  0  0  0  0  0  0  0
   55.9780   27.6470   45.6230 N   0  0  0  0  0  0  0  0  0  0  0  0
   56.1660   28.8510   44.8690 C   0  0  0  0  0  0  0  0  0  0  0  0
   55.1870   29.5900   44.5760 O   0  0  0  0  0  0  0  0  0  0  0  0
   57.5510   29.2910   44.5250 C   0  0  0  0  0  0  0  0  0  0  0  0
   57.7730   30.6530   45.0020 N   0  0  0  0  0  0  0  0  0  0  0  0
   56.9210   31.6540   44.8270 N   0  0  0  0  0  0  0  0  0  0  0  0
   57.5330   32.7590   45.3150 C   0  0  0  0  0  0  0  0  0  0  0  0
   56.9370   34.1270   45.2270 C   0  0  0  0  0  0  0  0  0  0  0  0
   58.7560   32.4600   45.8150 N   0  0  0  0  0  0  0  0  0  0  0  0
   59.7720   33.3350   46.2340 N   0  0  0  0  0  0  0  0  0  0  0  0
   60.3610   33.2960   47.5380 C   0  0  0  0  0  0  0  0  0  0  0  0
   59.7570   33.8580   48.4910 O   0  0  0  0  0  0  0  0  0  0  0  0
   61.7040   32.6410   47.7550 C   0  0  0  0  0  0  0  0  0  0  0  0
   62.7280   33.5000   48.4830 C   0  0  0  0  0  0  0  0  0  0  0  0
   62.8800   33.2390   46.9930 C   0  0  0  0  0  0  0  0  0  0  0  0
   58.8900   31.1510   45.5620 C   0  0  0  0  0  0  0  0  0  0  0  0
   59.9320   30.4850   45.7990 O   0  0  0  0  0  0  0  0  0  0  0  0
   56.2500   25.2420   45.3330 C   0  0  0  0  0  0  0  0  0  0  0  0
   57.0330   24.0840   45.3260 C   0  0  0  0  0  0  0  0  0  0  0  0
   57.6538   21.2365   44.7575 H   0  0  0  0  0  0  0  0  0  0  0  0
   57.7492   22.2961   43.3101 H   0  0  0  0  0  0  0  0  0  0  0  0
   58.5723   20.6995   43.3101 H   0  0  0  0  0  0  0  0  0  0  0  0
   60.2640   21.4309   44.7873 H   0  0  0  0  0  0  0  0  0  0  0  0
   60.0003   22.8535   43.7066 H   0  0  0  0  0  0  0  0  0  0  0  0
   60.0520   25.4705   46.1358 H   0  0  0  0  0  0  0  0  0  0  0  0
   58.6523   27.5290   46.1591 H   0  0  0  0  0  0  0  0  0  0  0  0
   58.2770   28.6152   45.0006 H   0  0  0  0  0  0  0  0  0  0  0  0
   57.6784   29.2647   43.4327 H   0  0  0  0  0  0  0  0  0  0  0  0
   56.7664   34.5185   46.2407 H   0  0  0  0  0  0  0  0  0  0  0  0
   57.6264   34.7933   44.6878 H   0  0  0  0  0  0  0  0  0  0  0  0
   55.9796   34.0759   44.6878 H   0  0  0  0  0  0  0  0  0  0  0  0
   61.2986   31.6256   47.8759 H   0  0  0  0  0  0  0  0  0  0  0  0
   62.4502   34.5027   48.8399 H   0  0  0  0  0  0  0  0  0  0  0  0
   63.3704   33.3634   49.3655 H   0  0  0  0  0  0  0  0  0  0  0  0
   62.7117   34.0526   46.2721 H   0  0  0  0  0  0  0  0  0  0  0  0
   63.6772   32.8354   46.3514 H   0  0  0  0  0  0  0  0  0  0  0  0
   55.1729   25.1733   45.1206 H   0  0  0  0  0  0  0  0  0  0  0  0
   56.5721   23.1126   45.0939 H   0  0  0  0  0  0  0  0  0  0  0  0
  1  2  1  0
  2  3  1  0
  3  4  1  0
  4  5  2  0
  5  6  1  0
  6  7  2  0
  7  8  1  0
  8  9  1  0
  9 10  2  0
  9 11  1  0
 11 12  1  0
 12 13  1  0
 13 14  2  0
 14 15  1  0
 14 16  1  0
 16 17  1  0
 17 18  1  0
 18 19  2  0
 18 20  1  0
 20 21  1  0
 21 22  1  0
 16 23  1  0
 23 24  2  0
  7 25  1  0
 25 26  2  0
 26  4  1  0
 23 12  1  0
 22 20  1  0
  1 27  1  0
  1 28  1  0
  1 29  1  0
  2 30  1  0
  2 31  1  0
  5 32  1  0
  6 33  1  0
 11 34  1  0
 11 35  1  0
 15 36  1  0
 15 37  1  0
 15 38  1  0
 20 39  1  0
 21 40  1  0
 21 41  1  0
 22 42  1  0
 22 43  1  0
 25 44  1  0
 26 45  1  0
M  CHG  2   8  -1  17  -1
M  END
>  <UniqueID>  (15) 
14

>  <SMILES>  (15) 
CCOc1ccc([N-]C(=O)Cn2nc(C)n([N-]C(=O)C3CC3)c2=O)cc1

>  <Energy>  (15) 
352.8322161747295

>  <Genealogy>  (15) 
CCOc1ccc([N-]C(=O)Cn2nc(C)n([N-]C(=O)C3CC3)c2=O)cc1 (protonated)
CCOc1ccc([N-]C(=O)Cn2nc(C)n([N-]C(=O)C3CC3)c2=O)cc1 (3D coordinates assigned)
CCOc1ccc([N-]C(=O)Cn2nc(C)n([N-]C(=O)C3CC3)c2=O)cc1 (nonaromatic ring conformer: 352.8322161747295 kcal/mol)

>  <smiles>  (15) 
CCOc1ccc(NC(=O)Cn2nc(C)n(NC(=O)C3CC3)c2=O)cc1

>  <score_type>  (15) 
oracle

>  <origin>  (15) 
adg

>  <m_score__min__energy>  (15) 
-10.92

>  <m_primary>  (15) 
energy

$$$$
15:0
     RDKit          3D

 38 40  0  0  0  0  0  0  0  0999 V2000
   59.7767   26.6304   46.2109 H   0  0  0  0  0  0  0  0  0  0  0  0
   58.6800   26.5590   46.1640 C   0  0  0  0  0  0  0  0  0  0  0  0
   57.9480   27.6160   45.7220 N   0  0  0  0  0  0  0  0  0  0  0  0
   56.5870   27.5760   45.6420 C   0  0  0  0  0  0  0  0  0  0  0  0
   55.8960   28.6060   45.2420 N   0  0  0  0  0  0  0  0  0  0  0  0
   56.3580   29.8760   44.7440 C   0  0  0  0  0  0  0  0  0  0  0  0
   55.4980   30.7180   44.3730 O   0  0  0  0  0  0  0  0  0  0  0  0
   57.8160   30.2360   44.6020 C   0  0  0  0  0  0  0  0  0  0  0  0
   58.4142   29.4935   45.1505 H   0  0  0  0  0  0  0  0  0  0  0  0
   58.0477   30.2413   43.5267 H   0  0  0  0  0  0  0  0  0  0  0  0
   58.1470   31.6130   45.1400 C   0  0  0  0  0  0  0  0  0  0  0  0
   57.3900   32.7130   44.7060 C   0  0  0  0  0  0  0  0  0  0  0  0
   56.5503   32.5577   44.0126 H   0  0  0  0  0  0  0  0  0  0  0  0
   57.6940   34.0020   45.1470 C   0  0  0  0  0  0  0  0  0  0  0  0
   57.0820   34.8536   44.8149 H   0  0  0  0  0  0  0  0  0  0  0  0
   58.7720   34.2140   46.0080 C   0  0  0  0  0  0  0  0  0  0  0  0
   58.9989   35.2312   46.3598 H   0  0  0  0  0  0  0  0  0  0  0  0
   59.5690   33.1360   46.4280 C   0  0  0  0  0  0  0  0  0  0  0  0
   60.6860   33.3590   47.3120 N   0  0  0  0  0  0  0  0  0  0  0  0
   60.6740   34.1290   48.5020 C   0  0  0  0  0  0  0  0  0  0  0  0
   59.6270   34.6280   48.9990 O   0  0  0  0  0  0  0  0  0  0  0  0
   61.9990   34.2180   49.1480 C   0  0  0  0  0  0  0  0  0  0  0  0
   61.9944   33.7183   50.1279 H   0  0  0  0  0  0  0  0  0  0  0  0
   62.3138   35.2533   49.3456 H   0  0  0  0  0  0  0  0  0  0  0  0
   62.9200   33.4870   48.1620 C   0  0  0  0  0  0  0  0  0  0  0  0
   63.5231   32.7366   48.6942 H   0  0  0  0  0  0  0  0  0  0  0  0
   63.6098   34.1915   47.6742 H   0  0  0  0  0  0  0  0  0  0  0  0
   62.0150   32.7980   47.1240 C   0  0  0  0  0  0  0  0  0  0  0  0
   61.9982   31.7113   47.2936 H   0  0  0  0  0  0  0  0  0  0  0  0
   62.3800   32.9637   46.0996 H   0  0  0  0  0  0  0  0  0  0  0  0
   59.2430   31.8380   45.9980 C   0  0  0  0  0  0  0  0  0  0  0  0
   59.8514   30.9860   46.3356 H   0  0  0  0  0  0  0  0  0  0  0  0
   55.9140   26.4080   46.0360 C   0  0  0  0  0  0  0  0  0  0  0  0
   54.5260   26.3340   45.9780 O   0  0  0  0  0  0  0  0  0  0  0  0
   56.6490   25.3100   46.4930 C   0  0  0  0  0  0  0  0  0  0  0  0
   56.1311   24.3896   46.8007 H   0  0  0  0  0  0  0  0  0  0  0  0
   58.0400   25.3840   46.5580 C   0  0  0  0  0  0  0  0  0  0  0  0
   58.6262   24.5249   46.9162 H   0  0  0  0  0  0  0  0  0  0  0  0
  1  2  1  0
  2  3  1  0
  3  4  1  0
  4  5  2  0
  5  6  1  0
  6  7  2  0
  6  8  1  0
  8  9  1  0
  8 10  1  0
  8 11  1  0
 11 12  2  0
 12 13  1  0
 12 14  1  0
 14 15  1  0
 14 16  2  0
 16 17  1  0
 16 18  1  0
 18 19  1  0
 19 20  1  0
 20 21  2  0
 20 22  1  0
 22 23  1  0
 22 24  1  0
 22 25  1  0
 25 26  1  0
 25 27  1  0
 25 28  1  0
 28 29  1  0
 28 30  1  0
 18 31  2  0
 31 32  1  0
  4 33  1  0
 33 34  1  0
 33 35  2  0
 35 36  1  0
 35 37  1  0
 37 38  1  0
 37  2  2  0
 31 11  1  0
 28 19  1  0
M  CHG  2   3  -1  34  -1
M  END
>  <UniqueID>  (16) 
15

>  <SMILES>  (16) 
O=C(Cc1cccc(N2CCCC2=O)c1)/N=c1\[n-]cccc1[O-]

>  <Energy>  (16) 
56.50781848746039

>  <Genealogy>  (16) 
O=C(Cc1cccc(N2CCCC2=O)c1)N=c1[n-]cccc1[O-] (protonated)
O=C(Cc1cccc(N2CCCC2=O)c1)/N=c1\[n-]cccc1[O-] (cis-trans isomerization)
O=C(Cc1cccc(N2CCCC2=O)c1)/N=c1\[n-]cccc1[O-] (3D coordinates assigned)
O=C(Cc1cccc(N2CCCC2=O)c1)/N=c1\[n-]cccc1[O-] (nonaromatic ring conformer: 56.50781848746039 kcal/mol)

>  <smiles>  (16) 
O=C(Cc1cccc(N2CCCC2=O)c1)N=c1[nH]cccc1O

>  <score_type>  (16) 
oracle

>  <origin>  (16) 
adg

>  <m_score__min__energy>  (16) 
-14.23

>  <m_primary>  (16) 
energy

$$$$
16:0
     RDKit          3D

 63 66  0  0  0  0  0  0  0  0999 V2000
   62.7341   33.3336   45.9635 H   0  0  0  0  0  0  0  0  0  0  0  0
   61.9480   33.6750   46.6530 C   0  0  0  0  0  0  0  0  0  0  0  0
   60.7220   34.0290   46.1780 N   0  0  0  0  0  0  0  0  0  0  0  0
   59.7240   34.4470   47.0110 C   0  0  0  0  0  0  0  0  0  0  0  0
   58.5610   34.8210   46.5520 N   0  0  0  0  0  0  0  0  0  0  0  0
   57.8390   34.2320   45.4590 C   0  0  0  0  0  0  0  0  0  0  0  0
   56.6480   34.5890   45.2610 O   0  0  0  0  0  0  0  0  0  0  0  0
   58.4870   33.3190   44.5580 N   0  0  0  0  0  0  0  0  0  0  0  0
   58.1660   31.9480   44.2830 C   0  0  0  0  0  0  0  0  0  0  0  0
   57.3510   31.5760   43.1970 C   0  0  0  0  0  0  0  0  0  0  0  0
   57.0456   32.3314   42.4580 H   0  0  0  0  0  0  0  0  0  0  0  0
   56.9280   30.2520   43.0530 C   0  0  0  0  0  0  0  0  0  0  0  0
   56.3139   29.9639   42.1871 H   0  0  0  0  0  0  0  0  0  0  0  0
   57.2820   29.2940   44.0040 C   0  0  0  0  0  0  0  0  0  0  0  0
   56.9352   28.2558   43.8950 H   0  0  0  0  0  0  0  0  0  0  0  0
   58.0760   29.6540   45.0930 C   0  0  0  0  0  0  0  0  0  0  0  0
   58.3388   28.9005   45.8501 H   0  0  0  0  0  0  0  0  0  0  0  0
   58.5440   30.9770   45.2300 C   0  0  0  0  0  0  0  0  0  0  0  0
   59.3630   31.3790   46.3010 O   0  0  0  0  0  0  0  0  0  0  0  0
   59.0190   31.2410   47.6800 C   0  0  0  0  0  0  0  0  0  0  0  0
   59.5016   32.0511   48.2465 H   0  0  0  0  0  0  0  0  0  0  0  0
   57.9228   31.2901   47.7569 H   0  0  0  0  0  0  0  0  0  0  0  0
   59.4670   29.8960   48.2670 C   0  0  0  0  0  0  0  0  0  0  0  0
   60.4978   29.7020   47.9357 H   0  0  0  0  0  0  0  0  0  0  0  0
   59.3781   29.9845   49.3598 H   0  0  0  0  0  0  0  0  0  0  0  0
   58.5940   28.7000   47.8500 C   0  0  0  0  0  0  0  0  0  0  0  0
   57.7021   28.6753   48.4933 H   0  0  0  0  0  0  0  0  0  0  0  0
   58.3310   28.8367   46.7907 H   0  0  0  0  0  0  0  0  0  0  0  0
   59.3040   27.3930   47.9700 N   0  0  0  0  0  0  0  0  0  0  0  0
   60.6790   27.5730   48.5090 C   0  0  0  0  0  0  0  0  0  0  0  0
   61.3347   26.8088   48.0662 H   0  0  0  0  0  0  0  0  0  0  0  0
   61.0106   28.5890   48.2487 H   0  0  0  0  0  0  0  0  0  0  0  0
   60.7300   27.4440   50.0070 C   0  0  0  0  0  0  0  0  0  0  0  0
   60.8350   26.1750   50.6020 C   0  0  0  0  0  0  0  0  0  0  0  0
   60.8913   25.2764   49.9700 H   0  0  0  0  0  0  0  0  0  0  0  0
   60.8680   26.0510   51.9880 C   0  0  0  0  0  0  0  0  0  0  0  0
   60.9423   25.0547   52.4482 H   0  0  0  0  0  0  0  0  0  0  0  0
   60.8070   27.1880   52.7950 C   0  0  0  0  0  0  0  0  0  0  0  0
   60.8336   27.0868   53.8900 H   0  0  0  0  0  0  0  0  0  0  0  0
   60.7120   28.4570   52.2120 C   0  0  0  0  0  0  0  0  0  0  0  0
   60.6640   29.5890   53.0150 O   0  0  0  0  0  0  0  0  0  0  0  0
   60.6670   28.5860   50.8200 C   0  0  0  0  0  0  0  0  0  0  0  0
   60.5822   29.5828   50.3625 H   0  0  0  0  0  0  0  0  0  0  0  0
   59.4030   26.7440   46.6380 C   0  0  0  0  0  0  0  0  0  0  0  0
   59.4986   27.5222   45.8665 H   0  0  0  0  0  0  0  0  0  0  0  0
   60.2838   26.0851   46.6376 H   0  0  0  0  0  0  0  0  0  0  0  0
   58.1850   25.9090   46.3440 C   0  0  0  0  0  0  0  0  0  0  0  0
   56.9160   26.4980   46.3400 C   0  0  0  0  0  0  0  0  0  0  0  0
   56.8031   27.5526   46.6315 H   0  0  0  0  0  0  0  0  0  0  0  0
   55.7890   25.7560   45.9680 C   0  0  0  0  0  0  0  0  0  0  0  0
   54.5300   26.3400   45.9940 O   0  0  0  0  0  0  0  0  0  0  0  0
   55.9300   24.4260   45.5720 C   0  0  0  0  0  0  0  0  0  0  0  0
   55.0499   23.8518   45.2468 H   0  0  0  0  0  0  0  0  0  0  0  0
   57.1890   23.8250   45.5890 C   0  0  0  0  0  0  0  0  0  0  0  0
   57.2975   22.7738   45.2838 H   0  0  0  0  0  0  0  0  0  0  0  0
   58.3140   24.5520   45.9920 C   0  0  0  0  0  0  0  0  0  0  0  0
   59.5530   23.9260   46.0250 O   0  0  0  0  0  0  0  0  0  0  0  0
   59.9710   34.4990   48.3870 C   0  0  0  0  0  0  0  0  0  0  0  0
   59.1764   34.8109   49.0808 H   0  0  0  0  0  0  0  0  0  0  0  0
   61.2050   34.1600   48.8630 N   0  0  0  0  0  0  0  0  0  0  0  0
   62.1960   33.7500   48.0230 C   0  0  0  0  0  0  0  0  0  0  0  0
   63.4960   33.4020   48.5520 C   0  0  0  0  0  0  0  0  0  0  0  0
   64.5480   33.1330   48.9730 N   0  0  0  0  0  0  0  0  0  0  0  0
  1  2  1  0
  2  3  1  0
  3  4  1  0
  4  5  2  0
  5  6  1  0
  6  7  2  0
  6  8  1  0
  8  9  1  0
  9 10  2  0
 10 11  1  0
 10 12  1  0
 12 13  1  0
 12 14  2  0
 14 15  1  0
 14 16  1  0
 16 17  1  0
 16 18  2  0
 18 19  1  0
 19 20  1  0
 20 21  1  0
 20 22  1  0
 20 23  1  0
 23 24  1  0
 23 25  1  0
 23 26  1  0
 26 27  1  0
 26 28  1  0
 26 29  1  0
 29 30  1  0
 30 31  1  0
 30 32  1  0
 30 33  1  0
 33 34  2  0
 34 35  1  0
 34 36  1  0
 36 37  1  0
 36 38  2  0
 38 39  1  0
 38 40  1  0
 40 41  1  0
 40 42  2  0
 42 43  1  0
 29 44  1  0
 44 45  1  0
 44 46  1  0
 44 47  1  0
 47 48  2  0
 48 49  1  0
 48 50  1  0
 50 51  1  0
 50 52  2  0
 52 53  1  0
 52 54  1  0
 54 55  1  0
 54 56  2  0
 56 57  1  0
  4 58  1  0
 58 59  1  0
 58 60  2  0
 60 61  1  0
 61 62  1  0
 62 63  3  0
 61  2  2  0
 18  9  1  0
 42 33  1  0
 56 47  1  0
M  CHG  5   3  -1   8  -1  41  -1  51  -1  57  -1
M  END
>  <UniqueID>  (17) 
16

>  <SMILES>  (17) 
N#Cc1c[n-]/c(=N\C(=O)[N-]c2ccccc2OCCCN(Cc2cccc([O-])c2)Cc2cc([O-])ccc2[O-])cn1

>  <Energy>  (17) 
74.83821066373451

>  <Genealogy>  (17) 
N#Cc1c[n-]c(=NC(=O)[N-]c2ccccc2OCCCN(Cc2cccc([O-])c2)Cc2cc([O-])ccc2[O-])cn1 (protonated)
N#Cc1c[n-]/c(=N\C(=O)[N-]c2ccccc2OCCCN(Cc2cccc([O-])c2)Cc2cc([O-])ccc2[O-])cn1 (cis-trans isomerization)
N#Cc1c[n-]/c(=N\C(=O)[N-]c2ccccc2OCCCN(Cc2cccc([O-])c2)Cc2cc([O-])ccc2[O-])cn1 (3D coordinates assigned)
N#Cc1c[n-]/c(=N\C(=O)[N-]c2ccccc2OCCCN(Cc2cccc([O-])c2)Cc2cc([O-])ccc2[O-])cn1 (optimized conformer: 74.83821066373451 kcal/mol)

>  <smiles>  (17) 
N#Cc1c[nH]c(=NC(=O)Nc2ccccc2OCCCN(Cc2cccc(O)c2)Cc2cc(O)ccc2O)cn1

>  <score_type>  (17) 
oracle

>  <origin>  (17) 
adg

>  <m_score__min__energy>  (17) 
-18.120000000000001

>  <m_primary>  (17) 
energy

$$$$
17:0
     RDKit          3D

 37 39  0  0  0  0  0  0  0  0999 V2000
   54.7870   26.7080   46.0460 O   0  0  0  0  0  0  0  0  0  0  0  0
   56.1680   26.7890   45.8970 C   0  0  0  0  0  0  0  0  0  0  0  0
   56.9640   25.7400   46.3680 C   0  0  0  0  0  0  0  0  0  0  0  0
   58.3510   25.8030   46.2460 C   0  0  0  0  0  0  0  0  0  0  0  0
   58.9540   26.9150   45.6570 C   0  0  0  0  0  0  0  0  0  0  0  0
   58.1740   27.9850   45.1890 C   0  0  0  0  0  0  0  0  0  0  0  0
   56.7590   27.9120   45.2840 C   0  0  0  0  0  0  0  0  0  0  0  0
   55.8780   29.0610   44.8400 C   0  0  0  0  0  0  0  0  0  0  0  0
   56.5820   30.0100   43.8670 C   0  0  0  0  0  0  0  0  0  0  0  0
   57.9710   30.3880   44.4060 C   0  0  2  0  0  0  0  0  0  0  0  0
   58.6050   31.4920   43.6510 N   0  0  0  0  0  0  0  0  0  0  0  0
   58.1530   32.8520   43.9970 C   0  0  0  0  0  0  0  0  0  0  0  0
   58.7890   33.2990   45.2860 C   0  0  0  0  0  0  0  0  0  0  0  0
   58.5230   34.5820   45.7910 C   0  0  0  0  0  0  0  0  0  0  0  0
   59.1160   34.9870   46.9870 C   0  0  0  0  0  0  0  0  0  0  0  0
   59.9610   34.1140   47.6720 C   0  0  0  0  0  0  0  0  0  0  0  0
   60.1970   32.8420   47.1510 C   0  0  0  0  0  0  0  0  0  0  0  0
   59.6110   32.4580   45.9830 N   0  0  0  0  0  0  0  0  0  0  0  0
   58.8700   29.1380   44.5030 C   0  0  0  0  0  0  0  0  0  0  0  0
   56.4940   24.8625   46.8362 H   0  0  0  0  0  0  0  0  0  0  0  0
   58.9722   24.9736   46.6151 H   0  0  0  0  0  0  0  0  0  0  0  0
   60.0489   26.9538   45.5585 H   0  0  0  0  0  0  0  0  0  0  0  0
   54.9864   28.6487   44.3449 H   0  0  0  0  0  0  0  0  0  0  0  0
   55.6165   29.6420   45.7367 H   0  0  0  0  0  0  0  0  0  0  0  0
   56.6934   29.5136   42.8917 H   0  0  0  0  0  0  0  0  0  0  0  0
   55.9790   30.9233   43.7567 H   0  0  0  0  0  0  0  0  0  0  0  0
   57.8340   30.7836   45.4232 H   0  0  0  0  0  0  0  0  0  0  0  0
   58.4430   31.3300   42.6290 H   0  0  0  0  0  0  0  0  0  0  0  0
   58.4376   33.5453   43.1918 H   0  0  0  0  0  0  0  0  0  0  0  0
   57.0598   32.8467   44.1191 H   0  0  0  0  0  0  0  0  0  0  0  0
   57.8517   35.2630   45.2473 H   0  0  0  0  0  0  0  0  0  0  0  0
   58.9178   35.9917   47.3886 H   0  0  0  0  0  0  0  0  0  0  0  0
   60.4365   34.4256   48.6137 H   0  0  0  0  0  0  0  0  0  0  0  0
   60.8595   32.1456   47.6859 H   0  0  0  0  0  0  0  0  0  0  0  0
   59.8040   31.4970   45.6230 H   0  0  0  0  0  0  0  0  0  0  0  0
   59.1539   28.8263   43.4870 H   0  0  0  0  0  0  0  0  0  0  0  0
   59.7534   29.4035   45.1023 H   0  0  0  0  0  0  0  0  0  0  0  0
  1  2  1  0
  2  3  2  0
  3  4  1  0
  4  5  2  0
  5  6  1  0
  6  7  2  0
  7  8  1  0
  8  9  1  0
  9 10  1  0
 10 11  1  0
 11 12  1  0
 12 13  1  0
 13 14  2  0
 14 15  1  0
 15 16  2  0
 16 17  1  0
 17 18  2  0
 10 19  1  0
  7  2  1  0
 18 13  1  0
 19  6  1  0
  3 20  1  0
  4 21  1  0
  5 22  1  0
  8 23  1  0
  8 24  1  0
  9 25  1  0
  9 26  1  0
 10 27  1  1
 11 28  1  0
 12 29  1  0
 12 30  1  0
 14 31  1  0
 15 32  1  0
 16 33  1  0
 17 34  1  0
 18 35  1  0
 19 36  1  0
 19 37  1  0
M  CHG  2   1  -1  18   1
M  END
>  <UniqueID>  (18) 
17

>  <SMILES>  (18) 
[O-]c1cccc2c1CC[C@H](NCc1cccc[nH+]1)C2

>  <Energy>  (18) 
43.97471337703107

>  <Genealogy>  (18) 
[O-]c1cccc2c1CCC(NCc1cccc[nH+]1)C2 (protonated)
[O-]c1cccc2c1CC[C@H](NCc1cccc[nH+]1)C2 (chirality)
[O-]c1cccc2c1CC[C@H](NCc1cccc[nH+]1)C2 (3D coordinates assigned)
[O-]c1cccc2c1CC[C@H](NCc1cccc[nH+]1)C2 (nonaromatic ring conformer: 43.97471337703107 kcal/mol)

>  <smiles>  (18) 
Oc1cccc2c1CCC(NCc1ccccn1)C2

>  <score_type>  (18) 
oracle

>  <origin>  (18) 
adg

>  <m_score__min__energy>  (18) 
-9.6099999999999994

>  <m_primary>  (18) 
energy

$$$$
18:0
     RDKit          3D

 53 56  0  0  0  0  0  0  0  0999 V2000
   60.1540   26.1580   46.7870 C   0  0  0  0  0  0  0  0  0  0  0  0
   59.3820   27.3500   46.3180 C   0  0  0  0  0  0  0  0  0  0  0  0
   59.3000   28.4960   47.1140 C   0  0  0  0  0  0  0  0  0  0  0  0
   58.5840   29.6070   46.6610 C   0  0  0  0  0  0  0  0  0  0  0  0
   58.4990   30.6180   47.4090 O   0  0  0  0  0  0  0  0  0  0  0  0
   57.9620   29.5780   45.3900 C   0  0  0  0  0  0  0  0  0  0  0  0
   57.2490   30.6820   44.8560 C   0  0  0  0  0  0  0  0  0  0  0  0
   57.1850   31.8840   45.5800 O   0  0  0  0  0  0  0  0  0  0  0  0
   58.2780   32.7750   45.7870 C   0  0  0  0  0  0  0  0  0  0  0  0
   58.2610   33.2870   47.1980 C   0  0  0  0  0  0  0  0  0  0  0  0
   57.2390   33.0870   47.9050 O   0  0  0  0  0  0  0  0  0  0  0  0
   59.3790   33.9720   47.7810 N   0  0  0  0  0  0  0  0  0  0  0  0
   60.7530   33.5510   47.7670 C   0  0  0  0  0  0  0  0  0  0  0  0
   61.5880   33.8740   46.6840 C   0  0  0  0  0  0  0  0  0  0  0  0
   62.8980   33.3980   46.6310 C   0  0  0  0  0  0  0  0  0  0  0  0
   63.3960   32.6080   47.6670 C   0  0  0  0  0  0  0  0  0  0  0  0
   62.5940   32.3160   48.7720 C   0  0  0  0  0  0  0  0  0  0  0  0
   61.2780   32.8060   48.8490 C   0  0  0  0  0  0  0  0  0  0  0  0
   60.4620   32.4630   50.0400 C   0  0  0  0  0  0  0  0  0  0  0  0
   60.9070   32.7620   51.1850 O   0  0  0  0  0  0  0  0  0  0  0  0
   59.1680   31.8220   49.9150 N   0  0  0  0  0  0  0  0  0  0  0  0
   59.3040   30.3420   49.9450 C   0  0  0  0  0  0  0  0  0  0  0  0
   58.8580   29.7500   51.2940 C   0  0  0  0  0  0  0  0  0  0  0  0
   57.5080   30.0530   51.6160 O   0  0  0  0  0  0  0  0  0  0  0  0
   57.0890   31.3430   51.1840 C   0  0  0  0  0  0  0  0  0  0  0  0
   58.2420   32.3350   50.9520 C   0  0  0  0  0  0  0  0  0  0  0  0
   56.6290   30.5550   43.5960 C   0  0  0  0  0  0  0  0  0  0  0  0
   56.7360   29.3710   42.8650 C   0  0  0  0  0  0  0  0  0  0  0  0
   57.4600   28.2950   43.3730 C   0  0  0  0  0  0  0  0  0  0  0  0
   58.0710   28.3880   44.6260 C   0  0  0  0  0  0  0  0  0  0  0  0
   58.7720   27.3260   45.1050 N   0  0  0  0  0  0  0  0  0  0  0  0
   60.1665   26.1387   47.8868 H   0  0  0  0  0  0  0  0  0  0  0  0
   59.6778   25.2410   46.4096 H   0  0  0  0  0  0  0  0  0  0  0  0
   61.1855   26.2175   46.4096 H   0  0  0  0  0  0  0  0  0  0  0  0
   59.7979   28.5231   48.0945 H   0  0  0  0  0  0  0  0  0  0  0  0
   59.2226   32.2419   45.6040 H   0  0  0  0  0  0  0  0  0  0  0  0
   58.1891   33.6239   45.0931 H   0  0  0  0  0  0  0  0  0  0  0  0
   61.2051   34.5080   45.8707 H   0  0  0  0  0  0  0  0  0  0  0  0
   63.5386   33.6457   45.7718 H   0  0  0  0  0  0  0  0  0  0  0  0
   64.4218   32.2145   47.6134 H   0  0  0  0  0  0  0  0  0  0  0  0
   62.9947   31.6978   49.5888 H   0  0  0  0  0  0  0  0  0  0  0  0
   58.7490   32.0870   48.9920 H   0  0  0  0  0  0  0  0  0  0  0  0
   58.6829   29.9119   49.1455 H   0  0  0  0  0  0  0  0  0  0  0  0
   60.3660   30.0950   49.7997 H   0  0  0  0  0  0  0  0  0  0  0  0
   58.9708   28.6566   51.2510 H   0  0  0  0  0  0  0  0  0  0  0  0
   59.4902   30.1987   52.0744 H   0  0  0  0  0  0  0  0  0  0  0  0
   56.5372   31.2282   50.2394 H   0  0  0  0  0  0  0  0  0  0  0  0
   56.4694   31.7611   51.9910 H   0  0  0  0  0  0  0  0  0  0  0  0
   57.8286   33.2997   50.6228 H   0  0  0  0  0  0  0  0  0  0  0  0
   58.7971   32.4613   51.8932 H   0  0  0  0  0  0  0  0  0  0  0  0
   56.0548   31.3983   43.1847 H   0  0  0  0  0  0  0  0  0  0  0  0
   56.2465   29.2872   41.8835 H   0  0  0  0  0  0  0  0  0  0  0  0
   57.5510   27.3692   42.7859 H   0  0  0  0  0  0  0  0  0  0  0  0
  1  2  1  0
  2  3  2  0
  3  4  1  0
  4  5  2  0
  4  6  1  0
  6  7  2  0
  7  8  1  0
  8  9  1  0
  9 10  1  0
 10 11  2  0
 10 12  1  0
 12 13  1  0
 13 14  2  0
 14 15  1  0
 15 16  2  0
 16 17  1  0
 17 18  2  0
 18 19  1  0
 19 20  2  0
 19 21  1  0
 21 22  1  0
 22 23  1  0
 23 24  1  0
 24 25  1  0
 25 26  1  0
  7 27  1  0
 27 28  2  0
 28 29  1  0
 29 30  2  0
 30 31  1  0
 31  2  1  0
 30  6  1  0
 18 13  1  0
 26 21  1  0
  1 32  1  0
  1 33  1  0
  1 34  1  0
  3 35  1  0
  9 36  1  0
  9 37  1  0
 14 38  1  0
 15 39  1  0
 16 40  1  0
 17 41  1  0
 21 42  1  0
 22 43  1  0
 22 44  1  0
 23 45  1  0
 23 46  1  0
 25 47  1  0
 25 48  1  0
 26 49  1  0
 26 50  1  0
 27 51  1  0
 28 52  1  0
 29 53  1  0
M  CHG  3  12  -1  21   1  31  -1
M  END
>  <UniqueID>  (19) 
18

>  <SMILES>  (19) 
Cc1cc(=O)c2c(OCC(=O)[N-]c3ccccc3C(=O)[NH+]3CCOCC3)cccc2[n-]1

>  <Energy>  (19) 
84.01690599550302

>  <Genealogy>  (19) 
Cc1cc(=O)c2c(OCC(=O)[N-]c3ccccc3C(=O)[NH+]3CCOCC3)cccc2[n-]1 (protonated)
Cc1cc(=O)c2c(OCC(=O)[N-]c3ccccc3C(=O)[NH+]3CCOCC3)cccc2[n-]1 (3D coordinates assigned)
Cc1cc(=O)c2c(OCC(=O)[N-]c3ccccc3C(=O)[NH+]3CCOCC3)cccc2[n-]1 (nonaromatic ring conformer: 84.01690599550302 kcal/mol)

>  <smiles>  (19) 
Cc1cc(=O)c2c(OCC(=O)Nc3ccccc3C(=O)N3CCOCC3)cccc2[nH]1

>  <score_type>  (19) 
oracle

>  <origin>  (19) 
adg

>  <m_score__min__energy>  (19) 
-10.16

>  <m_primary>  (19) 
energy

$$$$
19:0
     RDKit          3D

 48 51  0  0  0  0  0  0  0  0999 V2000
   58.0660   27.8250   45.3900 C   0  0  0  0  0  0  0  0  0  0  0  0
   56.5910   28.0610   45.2780 C   0  0  0  0  0  0  0  0  0  0  0  0
   55.7980   27.1680   45.6740 O   0  0  0  0  0  0  0  0  0  0  0  0
   56.0600   29.3200   44.8360 N   0  0  0  0  0  0  0  0  0  0  0  0
   56.7210   30.3840   44.4730 C   0  0  0  0  0  0  0  0  0  0  0  0
   57.0690   30.6450   43.1120 C   0  0  0  0  0  0  0  0  0  0  0  0
   57.7770   31.8140   42.7770 C   0  0  0  0  0  0  0  0  0  0  0  0
   58.0980   32.6850   43.8090 C   0  0  0  0  0  0  0  0  0  0  0  0
   58.7790   33.8450   43.7460 N   0  0  0  0  0  0  0  0  0  0  0  0
   58.7970   34.2420   45.0470 C   0  0  0  0  0  0  0  0  0  0  0  0
   59.3680   35.2980   45.4260 O   0  0  0  0  0  0  0  0  0  0  0  0
   58.1550   33.3980   45.8960 N   0  0  0  0  0  0  0  0  0  0  0  0
   58.0620   33.4690   47.3530 C   0  0  0  0  0  0  0  0  0  0  0  0
   59.3990   33.1570   47.9680 C   0  0  0  0  0  0  0  0  0  0  0  0
   60.1900   32.1190   47.4520 C   0  0  0  0  0  0  0  0  0  0  0  0
   61.4520   31.8590   47.9940 C   0  0  0  0  0  0  0  0  0  0  0  0
   61.9360   32.6320   49.0600 C   0  0  0  0  0  0  0  0  0  0  0  0
   63.2730   32.3600   49.6250 C   0  0  0  0  0  0  0  0  0  0  0  0
   64.3510   33.1570   49.2020 C   0  0  0  0  0  0  0  0  0  0  0  0
   65.6270   32.9580   49.7290 C   0  0  0  0  0  0  0  0  0  0  0  0
   65.8430   31.9630   50.6810 C   0  0  0  0  0  0  0  0  0  0  0  0
   64.7850   31.1540   51.1010 C   0  0  0  0  0  0  0  0  0  0  0  0
   63.4950   31.3330   50.5740 C   0  0  0  0  0  0  0  0  0  0  0  0
   62.2040   30.2390   51.1000 S   0  0  0  0  0  0  0  0  0  0  0  0
   62.8520   29.0430   52.1660 N   0  0  0  0  0  0  0  0  0  0  0  0
   61.5930   29.5580   49.9070 O   0  0  0  0  0  0  0  0  0  0  0  0
   61.1260   31.0150   51.8050 O   0  0  0  0  0  0  0  0  0  0  0  0
   61.1570   33.6880   49.5570 C   0  0  0  0  0  0  0  0  0  0  0  0
   59.8960   33.9480   49.0160 C   0  0  0  0  0  0  0  0  0  0  0  0
   57.7320   32.4170   45.0890 C   0  0  0  0  0  0  0  0  0  0  0  0
   57.0550   31.2950   45.4380 N   0  0  0  0  0  0  0  0  0  0  0  0
   58.3505   27.7795   46.4516 H   0  0  0  0  0  0  0  0  0  0  0  0
   58.3234   26.8742   44.9003 H   0  0  0  0  0  0  0  0  0  0  0  0
   58.6072   28.6480   44.9003 H   0  0  0  0  0  0  0  0  0  0  0  0
   56.7831   29.9313   42.3253 H   0  0  0  0  0  0  0  0  0  0  0  0
   58.0650   32.0293   41.7374 H   0  0  0  0  0  0  0  0  0  0  0  0
   57.7517   34.4818   47.6496 H   0  0  0  0  0  0  0  0  0  0  0  0
   57.3219   32.7350   47.7045 H   0  0  0  0  0  0  0  0  0  0  0  0
   59.8155   31.5076   46.6178 H   0  0  0  0  0  0  0  0  0  0  0  0
   62.0678   31.0454   47.5832 H   0  0  0  0  0  0  0  0  0  0  0  0
   64.1871   33.9431   48.4502 H   0  0  0  0  0  0  0  0  0  0  0  0
   66.4642   33.5873   49.3928 H   0  0  0  0  0  0  0  0  0  0  0  0
   66.8484   31.8148   51.1021 H   0  0  0  0  0  0  0  0  0  0  0  0
   64.9633   30.3695   51.8512 H   0  0  0  0  0  0  0  0  0  0  0  0
   63.4990   29.5350   52.8220 H   0  0  0  0  0  0  0  0  0  0  0  0
   62.0580   28.6810   52.7390 H   0  0  0  0  0  0  0  0  0  0  0  0
   61.5412   34.3136   50.3761 H   0  0  0  0  0  0  0  0  0  0  0  0
   59.2898   34.7758   49.4126 H   0  0  0  0  0  0  0  0  0  0  0  0
  1  2  1  0
  2  3  2  0
  2  4  1  0
  4  5  2  3
  5  6  1  0
  6  7  2  0
  7  8  1  0
  8  9  1  0
  9 10  1  0
 10 11  2  0
 10 12  1  0
 12 13  1  0
 13 14  1  0
 14 15  2  0
 15 16  1  0
 16 17  2  0
 17 18  1  0
 18 19  2  0
 19 20  1  0
 20 21  2  0
 21 22  1  0
 22 23  2  0
 23 24  1  0
 24 25  1  0
 24 26  2  0
 24 27  2  0
 17 28  1  0
 28 29  2  0
 12 30  1  0
 30 31  1  0
 31  5  1  0
 30  8  2  0
 29 14  1  0
 23 18  1  0
  1 32  1  0
  1 33  1  0
  1 34  1  0
  6 35  1  0
  7 36  1  0
 13 37  1  0
 13 38  1  0
 15 39  1  0
 16 40  1  0
 19 41  1  0
 20 42  1  0
 21 43  1  0
 22 44  1  0
 25 45  1  0
 25 46  1  0
 28 47  1  0
 29 48  1  0
M  CHG  2   9  -1  31  -1
M  END
>  <UniqueID>  (20) 
19

>  <SMILES>  (20) 
CC(=O)N=c1ccc2[n-]c(=O)n(Cc3ccc(-c4ccccc4S(N)(=O)=O)cc3)c2[n-]1

>  <Energy>  (20) 
106.13108800632874

>  <Genealogy>  (20) 
CC(=O)N=c1ccc2[n-]c(=O)n(Cc3ccc(-c4ccccc4S(N)(=O)=O)cc3)c2[n-]1 (protonated)
CC(=O)N=c1ccc2[n-]c(=O)n(Cc3ccc(-c4ccccc4S(N)(=O)=O)cc3)c2[n-]1 (3D coordinates assigned)
CC(=O)N=c1ccc2[n-]c(=O)n(Cc3ccc(-c4ccccc4S(N)(=O)=O)cc3)c2[n-]1 (optimized conformer: 106.13108800632874 kcal/mol)

>  <smiles>  (20) 
CC(=O)N=c1ccc2[nH]c(=O)n(Cc3ccc(-c4ccccc4S(N)(=O)=O)cc3)c2[nH]1

>  <score_type>  (20) 
oracle

>  <origin>  (20) 
adg

>  <m_score__min__energy>  (20) 
-11.65

>  <m_primary>  (20) 
energy

$$$$
20:0
     RDKit          3D

 49 51  0  0  0  0  0  0  0  0999 V2000
   53.8160   23.6740   45.0130 C   0  0  0  0  0  0  0  0  0  0  0  0
   54.5710   24.8240   45.6040 C   0  0  0  0  0  0  0  0  0  0  0  0
   54.0160   25.9540   45.6580 O   0  0  0  0  0  0  0  0  0  0  0  0
   55.9200   24.6920   46.0680 N   0  0  0  0  0  0  0  0  0  0  0  0
   56.9430   25.6960   46.0270 C   0  0  0  0  0  0  0  0  0  0  0  0
   57.4000   26.2450   47.2300 C   0  0  0  0  0  0  0  0  0  0  0  0
   58.4150   27.2060   47.2290 C   0  0  0  0  0  0  0  0  0  0  0  0
   58.9930   27.6270   46.0250 C   0  0  0  0  0  0  0  0  0  0  0  0
   60.0440   28.6030   46.0740 N   0  0  0  0  0  0  0  0  0  0  0  0
   59.9110   30.0050   46.3370 C   0  0  0  0  0  0  0  0  0  0  0  0
   60.8440   30.8080   46.0650 O   0  0  0  0  0  0  0  0  0  0  0  0
   58.5990   30.5350   46.8190 C   0  0  0  0  0  0  0  0  0  0  0  0
   58.1550   31.6280   45.9530 N   0  0  0  0  0  0  0  0  0  0  0  0
   57.6550   31.3450   44.6380 C   0  0  0  0  0  0  0  0  0  0  0  0
   58.1240   32.0780   43.5390 C   0  0  0  0  0  0  0  0  0  0  0  0
   57.6220   31.8250   42.2580 C   0  0  0  0  0  0  0  0  0  0  0  0
   56.6470   30.8420   42.0700 C   0  0  0  0  0  0  0  0  0  0  0  0
   56.1710   30.1110   43.1620 C   0  0  0  0  0  0  0  0  0  0  0  0
   56.6670   30.3630   44.4460 C   0  0  0  0  0  0  0  0  0  0  0  0
   56.1610   29.6490   45.5260 O   0  0  0  0  0  0  0  0  0  0  0  0
   58.1620   33.2630   46.5440 S   0  0  0  0  0  0  0  0  0  0  0  0
   58.0050   34.2200   45.3940 O   0  0  0  0  0  0  0  0  0  0  0  0
   57.0060   33.4630   47.4820 O   0  0  0  0  0  0  0  0  0  0  0  0
   59.6770   33.5910   47.3820 C   0  0  0  0  0  0  0  0  0  0  0  0
   60.8890   33.6290   46.6760 C   0  0  0  0  0  0  0  0  0  0  0  0
   62.0890   33.8740   47.3500 C   0  0  0  0  0  0  0  0  0  0  0  0
   62.0850   34.0830   48.7330 C   0  0  0  0  0  0  0  0  0  0  0  0
   60.8800   34.0500   49.4410 C   0  0  0  0  0  0  0  0  0  0  0  0
   59.6800   33.8050   48.7680 C   0  0  0  0  0  0  0  0  0  0  0  0
   58.5730   27.0370   44.8180 C   0  0  0  0  0  0  0  0  0  0  0  0
   57.5560   26.0770   44.8210 C   0  0  0  0  0  0  0  0  0  0  0  0
   53.4064   23.0502   45.8212 H   0  0  0  0  0  0  0  0  0  0  0  0
   52.9926   24.0564   44.3918 H   0  0  0  0  0  0  0  0  0  0  0  0
   54.4942   23.0706   44.3918 H   0  0  0  0  0  0  0  0  0  0  0  0
   56.9577   25.9183   48.1827 H   0  0  0  0  0  0  0  0  0  0  0  0
   58.7622   27.6346   48.1807 H   0  0  0  0  0  0  0  0  0  0  0  0
   57.8511   29.7286   46.8011 H   0  0  0  0  0  0  0  0  0  0  0  0
   58.7156   30.9112   47.8461 H   0  0  0  0  0  0  0  0  0  0  0  0
   58.8893   32.8547   43.6844 H   0  0  0  0  0  0  0  0  0  0  0  0
   57.9952   32.4004   41.3980 H   0  0  0  0  0  0  0  0  0  0  0  0
   56.2538   30.6433   41.0620 H   0  0  0  0  0  0  0  0  0  0  0  0
   55.4049   29.3360   43.0118 H   0  0  0  0  0  0  0  0  0  0  0  0
   60.8949   33.4654   45.5882 H   0  0  0  0  0  0  0  0  0  0  0  0
   63.0368   33.9024   46.7924 H   0  0  0  0  0  0  0  0  0  0  0  0
   63.0297   34.2733   49.2634 H   0  0  0  0  0  0  0  0  0  0  0  0
   60.8764   34.2169   50.5283 H   0  0  0  0  0  0  0  0  0  0  0  0
   58.7335   33.7799   49.3279 H   0  0  0  0  0  0  0  0  0  0  0  0
   59.0460   27.3319   43.8697 H   0  0  0  0  0  0  0  0  0  0  0  0
   57.2342   25.6178   43.8747 H   0  0  0  0  0  0  0  0  0  0  0  0
  1  2  1  0
  2  3  2  0
  2  4  1  0
  4  5  1  0
  5  6  2  0
  6  7  1  0
  7  8  2  0
  8  9  1  0
  9 10  1  0
 10 11  2  0
 10 12  1  0
 12 13  1  0
 13 14  1  0
 14 15  2  0
 15 16  1  0
 16 17  2  0
 17 18  1  0
 18 19  2  0
 19 20  1  0
 13 21  1  0
 21 22  2  0
 21 23  2  0
 21 24  1  0
 24 25  2  0
 25 26  1  0
 26 27  2  0
 27 28  1  0
 28 29  2  0
  8 30  1  0
 30 31  2  0
 31  5  1  0
 19 14  1  0
 29 24  1  0
  1 32  1  0
  1 33  1  0
  1 34  1  0
  6 35  1  0
  7 36  1  0
 12 37  1  0
 12 38  1  0
 15 39  1  0
 16 40  1  0
 17 41  1  0
 18 42  1  0
 25 43  1  0
 26 44  1  0
 27 45  1  0
 28 46  1  0
 29 47  1  0
 30 48  1  0
 31 49  1  0
M  CHG  3   4  -1   9  -1  20  -1
M  END
>  <UniqueID>  (21) 
20

>  <SMILES>  (21) 
CC(=O)[N-]c1ccc([N-]C(=O)CN(c2ccccc2[O-])S(=O)(=O)c2ccccc2)cc1

>  <Energy>  (21) 
61.85316588502728

>  <Genealogy>  (21) 
CC(=O)[N-]c1ccc([N-]C(=O)CN(c2ccccc2[O-])S(=O)(=O)c2ccccc2)cc1 (protonated)
CC(=O)[N-]c1ccc([N-]C(=O)CN(c2ccccc2[O-])S(=O)(=O)c2ccccc2)cc1 (3D coordinates assigned)
CC(=O)[N-]c1ccc([N-]C(=O)CN(c2ccccc2[O-])S(=O)(=O)c2ccccc2)cc1 (optimized conformer: 61.85316588502728 kcal/mol)

>  <smiles>  (21) 
CC(=O)Nc1ccc(NC(=O)CN(c2ccccc2O)S(=O)(=O)c2ccccc2)cc1

>  <score_type>  (21) 
oracle

>  <origin>  (21) 
adg

>  <m_score__min__energy>  (21) 
-14.01

>  <m_primary>  (21) 
energy

$$$$
21:0
     RDKit          3D

 46 48  0  0  0  0  0  0  0  0999 V2000
   55.9720   27.8910   45.5610 O   0  0  0  0  0  0  0  0  0  0  0  0
   56.5820   28.7510   44.8700 C   0  0  0  0  0  0  0  0  0  0  0  0
   56.1280   30.1100   44.8330 N   0  0  0  0  0  0  0  0  0  0  0  0
   56.9190   31.2550   44.4850 C   0  0  0  0  0  0  0  0  0  0  0  0
   57.4120   31.3630   43.1790 C   0  0  0  0  0  0  0  0  0  0  0  0
   58.1930   32.4610   42.8080 C   0  0  0  0  0  0  0  0  0  0  0  0
   58.4880   33.4580   43.7420 C   0  0  0  0  0  0  0  0  0  0  0  0
   58.0000   33.3690   45.0500 C   0  0  0  0  0  0  0  0  0  0  0  0
   58.3080   34.4180   45.9800 N   0  0  0  0  0  0  0  0  0  0  0  0
   59.6050   34.9790   46.2280 C   0  0  0  0  0  0  0  0  0  0  0  0
   59.8840   36.0980   45.7220 O   0  0  0  0  0  0  0  0  0  0  0  0
   60.6350   34.2680   47.0210 C   0  0  0  0  0  0  0  0  0  0  0  0
   61.8330   33.8310   46.4240 C   0  0  0  0  0  0  0  0  0  0  0  0
   62.7920   33.1500   47.1800 C   0  0  0  0  0  0  0  0  0  0  0  0
   62.5700   32.9060   48.5380 C   0  0  0  0  0  0  0  0  0  0  0  0
   61.3920   33.3490   49.1430 C   0  0  0  0  0  0  0  0  0  0  0  0
   60.4310   34.0320   48.3920 C   0  0  0  0  0  0  0  0  0  0  0  0
   57.1790   32.2850   45.4070 C   0  0  0  0  0  0  0  0  0  0  0  0
   57.7790   28.3940   44.1700 N   0  0  0  0  0  0  0  0  0  0  0  0
   58.4390   27.1000   44.3420 C   0  0  0  0  0  0  0  0  0  0  0  0
   59.6570   27.2270   45.2650 C   0  0  0  0  0  0  0  0  0  0  0  0
   59.6000   28.4850   46.0930 C   0  0  0  0  0  0  0  0  0  0  0  0
   58.9590   28.4800   47.3430 C   0  0  0  0  0  0  0  0  0  0  0  0
   58.8720   29.6580   48.0940 C   0  0  0  0  0  0  0  0  0  0  0  0
   59.4070   30.8480   47.5960 C   0  0  0  0  0  0  0  0  0  0  0  0
   60.0370   30.8630   46.3480 C   0  0  0  0  0  0  0  0  0  0  0  0
   60.1360   29.6880   45.5990 C   0  0  0  0  0  0  0  0  0  0  0  0
   57.1835   30.5797   42.4413 H   0  0  0  0  0  0  0  0  0  0  0  0
   58.5759   32.5406   41.7799 H   0  0  0  0  0  0  0  0  0  0  0  0
   59.1075   34.3177   43.4469 H   0  0  0  0  0  0  0  0  0  0  0  0
   62.0154   34.0264   45.3570 H   0  0  0  0  0  0  0  0  0  0  0  0
   63.7226   32.8058   46.7051 H   0  0  0  0  0  0  0  0  0  0  0  0
   63.3229   32.3652   49.1301 H   0  0  0  0  0  0  0  0  0  0  0  0
   61.2199   33.1601   50.2129 H   0  0  0  0  0  0  0  0  0  0  0  0
   59.5095   34.3870   48.8766 H   0  0  0  0  0  0  0  0  0  0  0  0
   56.7373   32.2421   46.4135 H   0  0  0  0  0  0  0  0  0  0  0  0
   58.2790   29.1350   43.6290 H   0  0  0  0  0  0  0  0  0  0  0  0
   57.7259   26.3874   44.7822 H   0  0  0  0  0  0  0  0  0  0  0  0
   58.7785   26.7444   43.3580 H   0  0  0  0  0  0  0  0  0  0  0  0
   59.6860   26.3579   45.9386 H   0  0  0  0  0  0  0  0  0  0  0  0
   60.5596   27.2698   44.6378 H   0  0  0  0  0  0  0  0  0  0  0  0
   58.5242   27.5477   47.7327 H   0  0  0  0  0  0  0  0  0  0  0  0
   58.3813   29.6464   49.0784 H   0  0  0  0  0  0  0  0  0  0  0  0
   59.3327   31.7736   48.1857 H   0  0  0  0  0  0  0  0  0  0  0  0
   60.4554   31.8015   45.9553 H   0  0  0  0  0  0  0  0  0  0  0  0
   60.6352   29.7036   44.6189 H   0  0  0  0  0  0  0  0  0  0  0  0
  1  2  2  0
  2  3  1  0
  3  4  1  0
  4  5  2  0
  5  6  1  0
  6  7  2  0
  7  8  1  0
  8  9  1  0
  9 10  1  0
 10 11  2  0
 10 12  1  0
 12 13  2  0
 13 14  1  0
 14 15  2  0
 15 16  1  0
 16 17  2  0
  8 18  2  0
  2 19  1  0
 19 20  1  0
 20 21  1  0
 21 22  1  0
 22 23  2  0
 23 24  1  0
 24 25  2  0
 25 26  1  0
 26 27  2  0
 18  4  1  0
 27 22  1  0
 17 12  1  0
  5 28  1  0
  6 29  1  0
  7 30  1  0
 13 31  1  0
 14 32  1  0
 15 33  1  0
 16 34  1  0
 17 35  1  0
 18 36  1  0
 19 37  1  0
 20 38  1  0
 20 39  1  0
 21 40  1  0
 21 41  1  0
 23 42  1  0
 24 43  1  0
 25 44  1  0
 26 45  1  0
 27 46  1  0
M  CHG  2   3  -1   9  -1
M  END
>  <UniqueID>  (22) 
21

>  <SMILES>  (22) 
O=C([N-]c1cccc([N-]C(=O)c2ccccc2)c1)NCCc1ccccc1

>  <Energy>  (22) 
50.362827568738865

>  <Genealogy>  (22) 
O=C([N-]c1cccc([N-]C(=O)c2ccccc2)c1)NCCc1ccccc1 (protonated)
O=C([N-]c1cccc([N-]C(=O)c2ccccc2)c1)NCCc1ccccc1 (3D coordinates assigned)
O=C([N-]c1cccc([N-]C(=O)c2ccccc2)c1)NCCc1ccccc1 (optimized conformer: 50.362827568738865 kcal/mol)

>  <smiles>  (22) 
O=C(NCCc1ccccc1)Nc1cccc(NC(=O)c2ccccc2)c1

>  <score_type>  (22) 
oracle

>  <origin>  (22) 
adg

>  <m_score__min__energy>  (22) 
-12.44

>  <m_primary>  (22) 
energy

$$$$
22:0
     RDKit          3D

 47 50  0  0  0  0  0  0  0  0999 V2000
   60.0070   36.5610   45.6270 C   0  0  0  0  0  0  0  0  0  0  0  0
   59.6890   35.1210   45.8540 C   0  0  0  0  0  0  0  0  0  0  0  0
   59.9980   34.5350   47.0420 N   0  0  0  0  0  0  0  0  0  0  0  0
   59.7540   33.2180   47.2660 C   0  0  0  0  0  0  0  0  0  0  0  0
   60.0480   32.7150   48.3840 O   0  0  0  0  0  0  0  0  0  0  0  0
   59.1810   32.4360   46.2500 C   0  0  0  0  0  0  0  0  0  0  0  0
   58.8990   31.0700   46.4040 C   0  0  0  0  0  0  0  0  0  0  0  0
   58.3270   30.3440   45.3450 C   0  0  0  0  0  0  0  0  0  0  0  0
   58.0230   28.8980   45.4930 C   0  0  0  0  0  0  0  0  0  0  0  0
   56.7010   28.4530   45.6230 C   0  0  0  0  0  0  0  0  0  0  0  0
   56.4300   27.0900   45.7670 C   0  0  0  0  0  0  0  0  0  0  0  0
   55.1050   26.6890   45.9020 O   0  0  0  0  0  0  0  0  0  0  0  0
   57.4510   26.1710   45.7790 N   0  0  0  0  0  0  0  0  0  0  0  0
   57.1530   24.7350   45.9610 C   0  0  0  0  0  0  0  0  0  0  0  0
   56.4060   24.4820   47.2780 C   0  0  0  0  0  0  0  0  0  0  0  0
   56.2510   23.0110   47.5600 C   0  0  0  0  0  0  0  0  0  0  0  0
   57.0740   22.4480   48.3310 O   0  0  0  0  0  0  0  0  0  0  0  0
   55.1320   22.2560   47.0760 N   0  0  0  0  0  0  0  0  0  0  0  0
   53.9790   22.7950   46.4200 C   0  0  0  0  0  0  0  0  0  0  0  0
   54.1000   23.5710   45.2560 C   0  0  0  0  0  0  0  0  0  0  0  0
   52.9570   24.0610   44.6160 C   0  0  0  0  0  0  0  0  0  0  0  0
   51.6890   23.7640   45.1250 C   0  0  0  0  0  0  0  0  0  0  0  0
   51.5630   22.9670   46.2660 C   0  0  0  0  0  0  0  0  0  0  0  0
   52.7050   22.4750   46.9060 C   0  0  0  0  0  0  0  0  0  0  0  0
   58.7530   26.5910   45.6520 C   0  0  0  0  0  0  0  0  0  0  0  0
   59.7020   25.7570   45.6600 O   0  0  0  0  0  0  0  0  0  0  0  0
   59.0530   27.9480   45.5080 C   0  0  0  0  0  0  0  0  0  0  0  0
   58.0480   31.0170   44.1430 C   0  0  0  0  0  0  0  0  0  0  0  0
   58.3290   32.3420   44.0120 N   0  0  0  0  0  0  0  0  0  0  0  0
   58.8820   33.0600   45.0240 C   0  0  0  0  0  0  0  0  0  0  0  0
   59.1460   34.3800   44.8520 N   0  0  0  0  0  0  0  0  0  0  0  0
   60.1192   37.0689   46.5962 H   0  0  0  0  0  0  0  0  0  0  0  0
   60.9452   36.6442   45.0587 H   0  0  0  0  0  0  0  0  0  0  0  0
   59.1911   37.0315   45.0587 H   0  0  0  0  0  0  0  0  0  0  0  0
   59.1260   30.5664   47.3553 H   0  0  0  0  0  0  0  0  0  0  0  0
   55.8743   29.1785   45.6117 H   0  0  0  0  0  0  0  0  0  0  0  0
   56.5292   24.3897   45.1234 H   0  0  0  0  0  0  0  0  0  0  0  0
   58.1048   24.1843   45.9908 H   0  0  0  0  0  0  0  0  0  0  0  0
   56.9696   24.9448   48.1015 H   0  0  0  0  0  0  0  0  0  0  0  0
   55.4011   24.9208   47.1906 H   0  0  0  0  0  0  0  0  0  0  0  0
   55.0963   23.7941   44.8465 H   0  0  0  0  0  0  0  0  0  0  0  0
   53.0556   24.6801   43.7121 H   0  0  0  0  0  0  0  0  0  0  0  0
   50.7905   24.1577   44.6273 H   0  0  0  0  0  0  0  0  0  0  0  0
   50.5649   22.7265   46.6610 H   0  0  0  0  0  0  0  0  0  0  0  0
   52.6023   21.8344   47.7943 H   0  0  0  0  0  0  0  0  0  0  0  0
   60.0995   28.2712   45.4062 H   0  0  0  0  0  0  0  0  0  0  0  0
   57.5991   30.4685   43.3018 H   0  0  0  0  0  0  0  0  0  0  0  0
  1  2  1  0
  2  3  2  0
  3  4  1  0
  4  5  2  0
  4  6  1  0
  6  7  2  0
  7  8  1  0
  8  9  1  0
  9 10  1  0
 10 11  2  0
 11 12  1  0
 11 13  1  0
 13 14  1  0
 14 15  1  0
 15 16  1  0
 16 17  2  0
 16 18  1  0
 18 19  1  0
 19 20  2  0
 20 21  1  0
 21 22  2  0
 22 23  1  0
 23 24  2  0
 13 25  1  0
 25 26  2  0
 25 27  1  0
  8 28  2  0
 28 29  1  0
 29 30  2  0
 30 31  1  0
 31  2  1  0
 30  6  1  0
 27  9  2  0
 24 19  1  0
  1 32  1  0
  1 33  1  0
  1 34  1  0
  7 35  1  0
 10 36  1  0
 14 37  1  0
 14 38  1  0
 15 39  1  0
 15 40  1  0
 20 41  1  0
 21 42  1  0
 22 43  1  0
 23 44  1  0
 24 45  1  0
 27 46  1  0
 28 47  1  0
M  CHG  3  12  -1  18  -1  31  -1
M  END
>  <UniqueID>  (23) 
22

>  <SMILES>  (23) 
Cc1nc(=O)c2cc(-c3cc([O-])n(CCC(=O)[N-]c4ccccc4)c(=O)c3)cnc2[n-]1

>  <Energy>  (23) 
67.166310007376

>  <Genealogy>  (23) 
Cc1nc(=O)c2cc(-c3cc([O-])n(CCC(=O)[N-]c4ccccc4)c(=O)c3)cnc2[n-]1 (protonated)
Cc1nc(=O)c2cc(-c3cc([O-])n(CCC(=O)[N-]c4ccccc4)c(=O)c3)cnc2[n-]1 (3D coordinates assigned)
Cc1nc(=O)c2cc(-c3cc([O-])n(CCC(=O)[N-]c4ccccc4)c(=O)c3)cnc2[n-]1 (optimized conformer: 67.166310007376 kcal/mol)

>  <smiles>  (23) 
Cc1nc(=O)c2cc(-c3cc(O)n(CCC(=O)Nc4ccccc4)c(=O)c3)cnc2[nH]1

>  <score_type>  (23) 
oracle

>  <origin>  (23) 
adg

>  <m_score__min__energy>  (23) 
-13.44

>  <m_primary>  (23) 
energy

$$$$
23:0
     RDKit          3D

 64 67  0  0  0  0  0  0  0  0999 V2000
   59.2070   34.9570   44.8790 C   0  0  0  0  0  0  0  0  0  0  0  0
   59.1530   34.3610   46.2610 C   0  0  0  0  0  0  0  0  0  0  0  0
   60.1320   34.7380   47.1980 C   0  0  0  0  0  0  0  0  0  0  0  0
   60.1380   34.1900   48.4800 C   0  0  0  0  0  0  0  0  0  0  0  0
   59.1620   33.2670   48.8510 C   0  0  0  0  0  0  0  0  0  0  0  0
   58.1850   32.8740   47.9350 C   0  0  0  0  0  0  0  0  0  0  0  0
   58.1570   33.4200   46.6360 C   0  0  0  0  0  0  0  0  0  0  0  0
   57.0730   32.9520   45.6880 C   0  0  0  0  0  0  0  0  0  0  0  0
   57.6300   32.0490   44.6850 N   0  0  0  0  0  0  0  0  0  0  0  0
   58.1670   30.7580   45.0010 C   0  0  0  0  0  0  0  0  0  0  0  0
   58.8280   30.1240   44.1350 O   0  0  0  0  0  0  0  0  0  0  0  0
   57.9660   30.2120   46.3130 N   0  0  0  0  0  0  0  0  0  0  0  0
   58.3750   28.8820   46.6850 C   0  0  0  0  0  0  0  0  0  0  0  0
   57.5640   27.7720   46.3800 C   0  0  0  0  0  0  0  0  0  0  0  0
   57.9630   26.4770   46.7350 C   0  0  0  0  0  0  0  0  0  0  0  0
   56.9230   25.1030   46.3620 S   0  0  0  0  0  0  0  0  0  0  0  0
   55.5390   25.5860   46.0190 O   0  0  0  0  0  0  0  0  0  0  0  0
   56.8350   24.2200   47.5760 O   0  0  0  0  0  0  0  0  0  0  0  0
   57.5950   24.2030   45.0210 N   0  0  0  0  0  0  0  0  0  0  0  0
   56.8450   24.4680   43.7660 C   0  0  0  0  0  0  0  0  0  0  0  0
   55.8520   23.3480   43.4200 C   0  0  0  0  0  0  0  0  0  0  0  0
   56.5670   21.9970   43.2640 C   0  0  0  0  0  0  0  0  0  0  0  0
   57.8350   21.8900   44.1310 C   0  0  0  0  0  0  0  0  0  0  0  0
   57.7180   22.7730   45.3790 C   0  0  0  0  0  0  0  0  0  0  0  0
   59.1770   26.2840   47.4090 C   0  0  0  0  0  0  0  0  0  0  0  0
   59.9700   27.3800   47.7490 C   0  0  0  0  0  0  0  0  0  0  0  0
   59.5730   28.6790   47.4030 C   0  0  0  0  0  0  0  0  0  0  0  0
   60.4030   29.7870   47.7780 N   0  0  0  0  0  0  0  0  0  0  0  0
   61.1200   30.4910   46.7080 C   0  0  0  0  0  0  0  0  0  0  0  0
   61.8780   31.7100   47.2430 C   0  0  0  0  0  0  0  0  0  0  0  0
   62.5690   31.3780   48.4250 O   0  0  0  0  0  0  0  0  0  0  0  0
   61.6290   31.1630   49.4590 C   0  0  0  0  0  0  0  0  0  0  0  0
   60.7780   29.9150   49.1920 C   0  0  0  0  0  0  0  0  0  0  0  0
   59.3060   36.0499   44.9546 H   0  0  0  0  0  0  0  0  0  0  0  0
   60.0717   34.5472   44.3365 H   0  0  0  0  0  0  0  0  0  0  0  0
   58.2827   34.7092   44.3365 H   0  0  0  0  0  0  0  0  0  0  0  0
   60.9007   35.4727   46.9164 H   0  0  0  0  0  0  0  0  0  0  0  0
   60.9147   34.4868   49.2001 H   0  0  0  0  0  0  0  0  0  0  0  0
   59.1616   32.8473   49.8678 H   0  0  0  0  0  0  0  0  0  0  0  0
   57.4295   32.1309   48.2298 H   0  0  0  0  0  0  0  0  0  0  0  0
   56.2951   32.4241   46.2590 H   0  0  0  0  0  0  0  0  0  0  0  0
   56.6406   33.8267   45.1802 H   0  0  0  0  0  0  0  0  0  0  0  0
   57.6360   30.8610   47.0580 H   0  0  0  0  0  0  0  0  0  0  0  0
   56.6077   27.9233   45.8578 H   0  0  0  0  0  0  0  0  0  0  0  0
   56.2874   25.4092   43.8815 H   0  0  0  0  0  0  0  0  0  0  0  0
   57.5776   24.5265   42.9476 H   0  0  0  0  0  0  0  0  0  0  0  0
   55.1069   23.2683   44.2253 H   0  0  0  0  0  0  0  0  0  0  0  0
   55.3670   23.5967   42.4645 H   0  0  0  0  0  0  0  0  0  0  0  0
   55.8724   21.1958   43.5566 H   0  0  0  0  0  0  0  0  0  0  0  0
   56.8759   21.9050   42.2123 H   0  0  0  0  0  0  0  0  0  0  0  0
   57.9724   20.8436   44.4413 H   0  0  0  0  0  0  0  0  0  0  0  0
   58.6969   22.2302   43.5382 H   0  0  0  0  0  0  0  0  0  0  0  0
   56.8279   22.4694   45.9496 H   0  0  0  0  0  0  0  0  0  0  0  0
   58.6305   22.6446   45.9797 H   0  0  0  0  0  0  0  0  0  0  0  0
   59.5046   25.2669   47.6701 H   0  0  0  0  0  0  0  0  0  0  0  0
   60.9135   27.2238   48.2925 H   0  0  0  0  0  0  0  0  0  0  0  0
   61.8387   29.7990   46.2448 H   0  0  0  0  0  0  0  0  0  0  0  0
   60.3813   30.8415   45.9722 H   0  0  0  0  0  0  0  0  0  0  0  0
   62.5989   32.0501   46.4849 H   0  0  0  0  0  0  0  0  0  0  0  0
   61.1565   32.5104   47.4640 H   0  0  0  0  0  0  0  0  0  0  0  0
   62.1666   31.0328   50.4098 H   0  0  0  0  0  0  0  0  0  0  0  0
   60.9597   32.0348   49.5048 H   0  0  0  0  0  0  0  0  0  0  0  0
   61.3532   29.0251   49.4872 H   0  0  0  0  0  0  0  0  0  0  0  0
   59.8519   30.0080   49.7782 H   0  0  0  0  0  0  0  0  0  0  0  0
  1  2  1  0
  2  3  2  0
  3  4  1  0
  4  5  2  0
  5  6  1  0
  6  7  2  0
  7  8  1  0
  8  9  1  0
  9 10  1  0
 10 11  2  0
 10 12  1  0
 12 13  1  0
 13 14  2  0
 14 15  1  0
 15 16  1  0
 16 17  2  0
 16 18  2  0
 16 19  1  0
 19 20  1  0
 20 21  1  0
 21 22  1  0
 22 23  1  0
 23 24  1  0
 15 25  2  0
 25 26  1  0
 26 27  2  0
 27 28  1  0
 28 29  1  0
 29 30  1  0
 30 31  1  0
 31 32  1  0
 32 33  1  0
  7  2  1  0
 27 13  1  0
 33 28  1  0
 24 19  1  0
  1 34  1  0
  1 35  1  0
  1 36  1  0
  3 37  1  0
  4 38  1  0
  5 39  1  0
  6 40  1  0
  8 41  1  0
  8 42  1  0
 12 43  1  0
 14 44  1  0
 20 45  1  0
 20 46  1  0
 21 47  1  0
 21 48  1  0
 22 49  1  0
 22 50  1  0
 23 51  1  0
 23 52  1  0
 24 53  1  0
 24 54  1  0
 25 55  1  0
 26 56  1  0
 29 57  1  0
 29 58  1  0
 30 59  1  0
 30 60  1  0
 32 61  1  0
 32 62  1  0
 33 63  1  0
 33 64  1  0
M  CHG  1   9  -1
M  END
>  <UniqueID>  (24) 
23

>  <SMILES>  (24) 
Cc1ccccc1C[N-]C(=O)Nc1cc(S(=O)(=O)N2CCCCC2)ccc1N1CCOCC1

>  <Energy>  (24) 
81.75102118472799

>  <Genealogy>  (24) 
Cc1ccccc1C[N-]C(=O)Nc1cc(S(=O)(=O)N2CCCCC2)ccc1N1CCOCC1 (protonated)
Cc1ccccc1C[N-]C(=O)Nc1cc(S(=O)(=O)N2CCCCC2)ccc1N1CCOCC1 (3D coordinates assigned)
Cc1ccccc1C[N-]C(=O)Nc1cc(S(=O)(=O)N2CCCCC2)ccc1N1CCOCC1 (nonaromatic ring conformer: 81.75102118472799 kcal/mol)

>  <smiles>  (24) 
Cc1ccccc1CNC(=O)Nc1cc(S(=O)(=O)N2CCCCC2)ccc1N1CCOCC1

>  <score_type>  (24) 
oracle

>  <origin>  (24) 
adg

>  <m_score__min__energy>  (24) 
-11.449999999999999

>  <m_primary>  (24) 
energy

$$$$
24:0
     RDKit          3D

 37 38  0  0  0  0  0  0  0  0999 V2000
   59.5020   34.7880   47.3230 C   0  0  0  0  0  0  0  0  0  0  0  0
   58.8670   33.8320   46.3570 C   0  0  0  0  0  0  0  0  0  0  0  0
   58.0720   34.3080   45.3030 C   0  0  0  0  0  0  0  0  0  0  0  0
   57.4400   33.4110   44.4360 C   0  0  0  0  0  0  0  0  0  0  0  0
   57.5690   32.0320   44.6370 C   0  0  0  0  0  0  0  0  0  0  0  0
   56.7450   30.8770   43.5350 S   0  0  0  0  0  0  0  0  0  0  0  0
   56.4490   29.5820   44.7970 C   0  0  0  0  0  0  0  0  0  0  0  0
   57.5590   28.5270   44.8220 C   0  0  0  0  0  0  0  0  0  0  0  0
   57.1780   27.3600   45.6150 N   0  0  0  0  0  0  0  0  0  0  0  0
   57.4830   26.0150   45.2130 C   0  0  0  0  0  0  0  0  0  0  0  0
   58.1420   25.7970   44.1620 O   0  0  0  0  0  0  0  0  0  0  0  0
   57.0540   24.8580   46.0640 C   0  0  0  0  0  0  0  0  0  0  0  0
   55.6660   24.4100   45.6740 C   0  0  0  0  0  0  0  0  0  0  0  0
   54.5930   25.3180   45.6480 C   0  0  0  0  0  0  0  0  0  0  0  0
   54.7770   26.6470   46.0080 O   0  0  0  0  0  0  0  0  0  0  0  0
   53.3590   24.8990   45.2660 N   0  0  0  0  0  0  0  0  0  0  0  0
   53.1360   23.6130   44.8970 C   0  0  0  0  0  0  0  0  0  0  0  0
   51.9830   23.2490   44.5490 O   0  0  0  0  0  0  0  0  0  0  0  0
   54.1580   22.7200   44.8980 N   0  0  0  0  0  0  0  0  0  0  0  0
   55.4120   23.0860   45.2710 C   0  0  0  0  0  0  0  0  0  0  0  0
   56.3360   22.2290   45.2500 O   0  0  0  0  0  0  0  0  0  0  0  0
   58.3680   31.5530   45.6810 C   0  0  0  0  0  0  0  0  0  0  0  0
   59.0090   32.4480   46.5430 C   0  0  0  0  0  0  0  0  0  0  0  0
   59.2877   34.4654   48.3526 H   0  0  0  0  0  0  0  0  0  0  0  0
   60.5901   34.8029   47.1624 H   0  0  0  0  0  0  0  0  0  0  0  0
   59.0938   35.7968   47.1624 H   0  0  0  0  0  0  0  0  0  0  0  0
   57.9455   35.3911   45.1582 H   0  0  0  0  0  0  0  0  0  0  0  0
   56.8407   33.7898   43.5950 H   0  0  0  0  0  0  0  0  0  0  0  0
   56.3928   30.0592   45.7865 H   0  0  0  0  0  0  0  0  0  0  0  0
   55.5080   29.0730   44.5411 H   0  0  0  0  0  0  0  0  0  0  0  0
   57.7678   28.2048   43.7912 H   0  0  0  0  0  0  0  0  0  0  0  0
   58.4504   28.9781   45.2823 H   0  0  0  0  0  0  0  0  0  0  0  0
   56.7300   27.5200   46.5440 H   0  0  0  0  0  0  0  0  0  0  0  0
   57.7575   24.0240   45.9246 H   0  0  0  0  0  0  0  0  0  0  0  0
   57.0469   25.1713   47.1184 H   0  0  0  0  0  0  0  0  0  0  0  0
   58.4922   30.4694   45.8240 H   0  0  0  0  0  0  0  0  0  0  0  0
   59.6265   32.0663   47.3695 H   0  0  0  0  0  0  0  0  0  0  0  0
  1  2  1  0
  2  3  2  0
  3  4  1  0
  4  5  2  0
  5  6  1  0
  6  7  1  0
  7  8  1  0
  8  9  1  0
  9 10  1  0
 10 11  2  0
 10 12  1  0
 12 13  1  0
 13 14  2  0
 14 15  1  0
 14 16  1  0
 16 17  1  0
 17 18  2  0
 17 19  1  0
 19 20  1  0
 20 21  2  0
  5 22  1  0
 22 23  2  0
 23  2  1  0
 20 13  1  0
  1 24  1  0
  1 25  1  0
  1 26  1  0
  3 27  1  0
  4 28  1  0
  7 29  1  0
  7 30  1  0
  8 31  1  0
  8 32  1  0
  9 33  1  0
 12 34  1  0
 12 35  1  0
 22 36  1  0
 23 37  1  0
M  CHG  3  15  -1  16  -1  19  -1
M  END
>  <UniqueID>  (25) 
24

>  <SMILES>  (25) 
Cc1ccc(SCCNC(=O)Cc2c([O-])[n-]c(=O)[n-]c2=O)cc1

>  <Energy>  (25) 
28.463966398122963

>  <Genealogy>  (25) 
Cc1ccc(SCCNC(=O)Cc2c([O-])[n-]c(=O)[n-]c2=O)cc1 (protonated)
Cc1ccc(SCCNC(=O)Cc2c([O-])[n-]c(=O)[n-]c2=O)cc1 (3D coordinates assigned)
Cc1ccc(SCCNC(=O)Cc2c([O-])[n-]c(=O)[n-]c2=O)cc1 (optimized conformer: 28.463966398122963 kcal/mol)

>  <smiles>  (25) 
Cc1ccc(SCCNC(=O)Cc2c(O)[nH]c(=O)[nH]c2=O)cc1

>  <score_type>  (25) 
oracle

>  <origin>  (25) 
adg

>  <m_score__min__energy>  (25) 
-14.85

>  <m_primary>  (25) 
energy

$$$$
25:0
     RDKit          3D

 55 57  0  0  0  0  0  0  0  0999 V2000
   63.4420   33.3100   47.1280 C   0  0  0  0  0  0  0  0  0  0  0  0
   62.1750   33.8530   46.4730 C   0  0  0  0  0  0  0  0  0  0  0  0
   61.0100   33.6330   47.3500 N   0  0  0  0  0  0  0  0  0  0  0  0
   61.2030   34.2290   48.6890 C   0  0  0  0  0  0  0  0  0  0  0  0
   60.3400   33.4960   49.7110 C   0  0  0  0  0  0  0  0  0  0  0  0
   59.5700   34.2790   46.5930 S   0  0  0  0  0  0  0  0  0  0  0  0
   58.6430   34.8560   47.6260 O   0  0  0  0  0  0  0  0  0  0  0  0
   59.9560   35.3610   45.6210 O   0  0  0  0  0  0  0  0  0  0  0  0
   58.7340   32.9760   45.7540 C   0  0  0  0  0  0  0  0  0  0  0  0
   58.1000   33.2020   44.5280 C   0  0  0  0  0  0  0  0  0  0  0  0
   57.4410   32.1590   43.8760 C   0  0  0  0  0  0  0  0  0  0  0  0
   57.4130   30.8680   44.4410 C   0  0  0  0  0  0  0  0  0  0  0  0
   56.7610   29.7970   43.8090 O   0  0  0  0  0  0  0  0  0  0  0  0
   57.3920   28.5820   43.4200 C   0  0  0  0  0  0  0  0  0  0  0  0
   58.0620   30.6370   45.6690 C   0  0  0  0  0  0  0  0  0  0  0  0
   58.0110   29.3310   46.2680 N   0  0  0  0  0  0  0  0  0  0  0  0
   59.0830   28.7640   47.0410 C   0  0  0  0  0  0  0  0  0  0  0  0
   60.2080   29.3330   47.0920 O   0  0  0  0  0  0  0  0  0  0  0  0
   58.9000   27.4430   47.7240 C   0  0  0  0  0  0  0  0  0  0  0  0
   58.0880   26.5520   46.8880 N   0  0  0  0  0  0  0  0  0  0  0  0
   56.7810   26.8110   46.7820 N   0  0  0  0  0  0  0  0  0  0  0  0
   55.9380   26.0360   46.0560 C   0  0  0  0  0  0  0  0  0  0  0  0
   54.7160   26.3410   45.9930 O   0  0  0  0  0  0  0  0  0  0  0  0
   56.4390   24.9070   45.3900 C   0  0  0  0  0  0  0  0  0  0  0  0
   55.6060   24.0700   44.6230 C   0  0  0  0  0  0  0  0  0  0  0  0
   56.1350   22.9490   43.9800 C   0  0  0  0  0  0  0  0  0  0  0  0
   57.4950   22.6510   44.0940 C   0  0  0  0  0  0  0  0  0  0  0  0
   58.3340   23.4730   44.8490 C   0  0  0  0  0  0  0  0  0  0  0  0
   57.8160   24.6090   45.5020 C   0  0  0  0  0  0  0  0  0  0  0  0
   58.6360   25.4580   46.2680 C   0  0  0  0  0  0  0  0  0  0  0  0
   59.8710   25.2120   46.3830 O   0  0  0  0  0  0  0  0  0  0  0  0
   58.7060   31.7010   46.3250 C   0  0  0  0  0  0  0  0  0  0  0  0
   63.3373   33.3549   48.2221 H   0  0  0  0  0  0  0  0  0  0  0  0
   63.5972   32.2664   46.8170 H   0  0  0  0  0  0  0  0  0  0  0  0
   64.3048   33.9174   46.8170 H   0  0  0  0  0  0  0  0  0  0  0  0
   62.2940   34.9314   46.2916 H   0  0  0  0  0  0  0  0  0  0  0  0
   62.0106   33.3263   45.5214 H   0  0  0  0  0  0  0  0  0  0  0  0
   62.2612   34.1444   48.9771 H   0  0  0  0  0  0  0  0  0  0  0  0
   60.9099   35.2888   48.6601 H   0  0  0  0  0  0  0  0  0  0  0  0
   60.6622   33.7696   50.7265 H   0  0  0  0  0  0  0  0  0  0  0  0
   59.2863   33.7794   49.5717 H   0  0  0  0  0  0  0  0  0  0  0  0
   60.4492   32.4103   49.5717 H   0  0  0  0  0  0  0  0  0  0  0  0
   58.1209   34.2048   44.0764 H   0  0  0  0  0  0  0  0  0  0  0  0
   56.9400   32.3456   42.9146 H   0  0  0  0  0  0  0  0  0  0  0  0
   57.6852   28.0174   44.3174 H   0  0  0  0  0  0  0  0  0  0  0  0
   56.6922   27.9808   42.8210 H   0  0  0  0  0  0  0  0  0  0  0  0
   58.2863   28.8087   42.8210 H   0  0  0  0  0  0  0  0  0  0  0  0
   57.1740   28.7350   46.0770 H   0  0  0  0  0  0  0  0  0  0  0  0
   59.8842   26.9832   47.8967 H   0  0  0  0  0  0  0  0  0  0  0  0
   58.3877   27.6019   48.6844 H   0  0  0  0  0  0  0  0  0  0  0  0
   54.5344   24.3001   44.5300 H   0  0  0  0  0  0  0  0  0  0  0  0
   55.4792   22.2990   43.3822 H   0  0  0  0  0  0  0  0  0  0  0  0
   57.9064   21.7656   43.5872 H   0  0  0  0  0  0  0  0  0  0  0  0
   59.4040   23.2326   44.9344 H   0  0  0  0  0  0  0  0  0  0  0  0
   59.1921   31.5281   47.2965 H   0  0  0  0  0  0  0  0  0  0  0  0
  1  2  1  0
  2  3  1  0
  3  4  1  0
  4  5  1  0
  3  6  1  0
  6  7  2  0
  6  8  2  0
  6  9  1  0
  9 10  2  0
 10 11  1  0
 11 12  2  0
 12 13  1  0
 13 14  1  0
 12 15  1  0
 15 16  1  0
 16 17  1  0
 17 18  2  0
 17 19  1  0
 19 20  1  0
 20 21  1  0
 21 22  1  0
 22 23  2  0
 22 24  1  0
 24 25  2  0
 25 26  1  0
 26 27  2  0
 27 28  1  0
 28 29  2  0
 29 30  1  0
 30 31  2  0
 15 32  2  0
 32  9  1  0
 30 20  1  0
 29 24  1  0
  1 33  1  0
  1 34  1  0
  1 35  1  0
  2 36  1  0
  2 37  1  0
  4 38  1  0
  4 39  1  0
  5 40  1  0
  5 41  1  0
  5 42  1  0
 10 43  1  0
 11 44  1  0
 14 45  1  0
 14 46  1  0
 14 47  1  0
 16 48  1  0
 19 49  1  0
 19 50  1  0
 25 51  1  0
 26 52  1  0
 27 53  1  0
 28 54  1  0
 32 55  1  0
M  CHG  1  21  -1
M  END
>  <UniqueID>  (26) 
25

>  <SMILES>  (26) 
CCN(CC)S(=O)(=O)c1ccc(OC)c(NC(=O)Cn2[n-]c(=O)c3ccccc3c2=O)c1

>  <Energy>  (26) 
62.02819324337082

>  <Genealogy>  (26) 
CCN(CC)S(=O)(=O)c1ccc(OC)c(NC(=O)Cn2[n-]c(=O)c3ccccc3c2=O)c1 (protonated)
CCN(CC)S(=O)(=O)c1ccc(OC)c(NC(=O)Cn2[n-]c(=O)c3ccccc3c2=O)c1 (3D coordinates assigned)
CCN(CC)S(=O)(=O)c1ccc(OC)c(NC(=O)Cn2[n-]c(=O)c3ccccc3c2=O)c1 (optimized conformer: 62.02819324337082 kcal/mol)

>  <smiles>  (26) 
CCN(CC)S(=O)(=O)c1ccc(OC)c(NC(=O)Cn2[nH]c(=O)c3ccccc3c2=O)c1

>  <score_type>  (26) 
oracle

>  <origin>  (26) 
adg

>  <m_score__min__energy>  (26) 
-11.06

>  <m_primary>  (26) 
energy

$$$$
26:0
     RDKit          3D

 53 56  0  0  0  0  0  0  0  0999 V2000
   59.0623   35.6764   44.1367 H   0  0  0  0  0  0  0  0  0  0  0  0
   58.8670   34.8810   44.8710 C   0  0  0  0  0  0  0  0  0  0  0  0
   57.9570   33.9100   44.5930 N   0  0  0  0  0  0  0  0  0  0  0  0
   57.6860   32.8990   45.4610 C   0  0  0  0  0  0  0  0  0  0  0  0
   56.7890   32.0160   45.1270 N   0  0  0  0  0  0  0  0  0  0  0  0
   57.0030   30.6220   44.8560 C   0  0  0  0  0  0  0  0  0  0  0  0
   56.0040   29.8600   44.7680 O   0  0  0  0  0  0  0  0  0  0  0  0
   58.3690   30.1180   44.4550 C   0  0  0  0  0  0  0  0  0  0  0  0
   58.4115   30.0595   43.3574 H   0  0  0  0  0  0  0  0  0  0  0  0
   59.1092   30.8233   44.8607 H   0  0  0  0  0  0  0  0  0  0  0  0
   58.6970   28.7310   45.0310 C   0  0  0  0  0  0  0  0  0  0  0  0
   58.1717   27.9666   44.4396 H   0  0  0  0  0  0  0  0  0  0  0  0
   59.7867   28.5895   44.9817 H   0  0  0  0  0  0  0  0  0  0  0  0
   58.2750   28.6090   46.4680 C   0  0  0  0  0  0  0  0  0  0  0  0
   58.5910   29.5110   47.2880 O   0  0  0  0  0  0  0  0  0  0  0  0
   57.3810   27.5700   46.8800 N   0  0  0  0  0  0  0  0  0  0  0  0
   57.1960   26.4020   46.3250 C   0  0  0  0  0  0  0  0  0  0  0  0
   55.9230   25.9310   45.9090 C   0  0  0  0  0  0  0  0  0  0  0  0
   54.7730   26.7070   46.0080 O   0  0  0  0  0  0  0  0  0  0  0  0
   55.8180   24.6590   45.3420 C   0  0  0  0  0  0  0  0  0  0  0  0
   54.8341   24.2759   45.0334 H   0  0  0  0  0  0  0  0  0  0  0  0
   56.9550   23.8740   45.1660 C   0  0  0  0  0  0  0  0  0  0  0  0
   56.8748   22.8699   44.7241 H   0  0  0  0  0  0  0  0  0  0  0  0
   58.1950   24.3750   45.5560 C   0  0  0  0  0  0  0  0  0  0  0  0
   59.1009   23.7676   45.4128 H   0  0  0  0  0  0  0  0  0  0  0  0
   58.2900   25.6120   46.1130 N   0  0  0  0  0  0  0  0  0  0  0  0
   59.2360   25.9540   46.3980 H   0  0  0  0  0  0  0  0  0  0  0  0
   58.3520   32.8680   46.7030 C   0  0  0  0  0  0  0  0  0  0  0  0
   58.1315   32.0676   47.4247 H   0  0  0  0  0  0  0  0  0  0  0  0
   59.2960   33.8570   47.0200 C   0  0  0  0  0  0  0  0  0  0  0  0
   60.0020   33.8320   48.3280 C   0  0  0  0  0  0  0  0  0  0  0  0
   61.3620   34.1690   48.4110 C   0  0  0  0  0  0  0  0  0  0  0  0
   61.9150   34.4617   47.5063 H   0  0  0  0  0  0  0  0  0  0  0  0
   62.0090   34.1310   49.6460 C   0  0  0  0  0  0  0  0  0  0  0  0
   63.0766   34.3871   49.7140 H   0  0  0  0  0  0  0  0  0  0  0  0
   61.3250   33.7790   50.7640 N   0  0  0  0  0  0  0  0  0  0  0  0
   60.0020   33.4620   50.7390 C   0  0  0  0  0  0  0  0  0  0  0  0
   59.4250   33.1280   51.8600 N   0  0  0  0  0  0  0  0  0  0  0  0
   58.4320   32.1120   52.0640 C   0  0  0  0  0  0  0  0  0  0  0  0
   58.7560   30.7470   51.9650 C   0  0  0  0  0  0  0  0  0  0  0  0
   59.7949   30.4428   51.7698 H   0  0  0  0  0  0  0  0  0  0  0  0
   57.7610   29.7750   52.1140 C   0  0  0  0  0  0  0  0  0  0  0  0
   58.0212   28.7078   52.0566 H   0  0  0  0  0  0  0  0  0  0  0  0
   56.4350   30.1610   52.3360 C   0  0  0  0  0  0  0  0  0  0  0  0
   55.6537   29.3968   52.4611 H   0  0  0  0  0  0  0  0  0  0  0  0
   56.1020   31.5170   52.3990 C   0  0  0  0  0  0  0  0  0  0  0  0
   55.0575   31.8195   52.5651 H   0  0  0  0  0  0  0  0  0  0  0  0
   57.0960   32.4890   52.2510 C   0  0  0  0  0  0  0  0  0  0  0  0
   56.8275   33.5553   52.2816 H   0  0  0  0  0  0  0  0  0  0  0  0
   59.3200   33.4710   49.5040 C   0  0  0  0  0  0  0  0  0  0  0  0
   58.2558   33.1959   49.4608 H   0  0  0  0  0  0  0  0  0  0  0  0
   59.5530   34.8710   46.0840 C   0  0  0  0  0  0  0  0  0  0  0  0
   60.2925   35.6542   46.3070 H   0  0  0  0  0  0  0  0  0  0  0  0
  1  2  1  0
  2  3  1  0
  3  4  1  0
  4  5  2  3
  5  6  1  0
  6  7  2  0
  6  8  1  0
  8  9  1  0
  8 10  1  0
  8 11  1  0
 11 12  1  0
 11 13  1  0
 11 14  1  0
 14 15  2  0
 14 16  1  0
 16 17  2  0
 17 18  1  0
 18 19  1  0
 18 20  2  0
 20 21  1  0
 20 22  1  0
 22 23  1  0
 22 24  2  0
 24 25  1  0
 24 26  1  0
 26 27  1  0
  4 28  1  0
 28 29  1  0
 28 30  2  0
 30 31  1  0
 31 32  1  0
 32 33  1  0
 32 34  2  0
 34 35  1  0
 34 36  1  0
 36 37  1  0
 37 38  2  3
 38 39  1  0
 39 40  2  0
 40 41  1  0
 40 42  1  0
 42 43  1  0
 42 44  2  0
 44 45  1  0
 44 46  1  0
 46 47  1  0
 46 48  2  0
 48 49  1  0
 37 50  1  0
 50 51  1  0
 30 52  1  0
 52 53  1  0
 52  2  2  0
 26 17  1  0
 50 31  2  0
 48 39  1  0
M  CHG  3   3  -1  19  -1  36  -1
M  END
>  <UniqueID>  (27) 
26

>  <SMILES>  (27) 
O=C(CCC(=O)/N=c1/[nH]cccc1[O-])N=c1cc(-c2cc[n-]c(=Nc3ccccc3)c2)cc[n-]1

>  <Energy>  (27) 
93.08119518962087

>  <Genealogy>  (27) 
O=C(CCC(=O)N=c1[nH]cccc1[O-])N=c1cc(-c2cc[n-]c(=Nc3ccccc3)c2)cc[n-]1 (protonated)
O=C(CCC(=O)/N=c1/[nH]cccc1[O-])N=c1cc(-c2cc[n-]c(=Nc3ccccc3)c2)cc[n-]1 (cis-trans isomerization)
O=C(CCC(=O)/N=c1/[nH]cccc1[O-])N=c1cc(-c2cc[n-]c(=Nc3ccccc3)c2)cc[n-]1 (3D coordinates assigned)
O=C(CCC(=O)/N=c1/[nH]cccc1[O-])N=c1cc(-c2cc[n-]c(=Nc3ccccc3)c2)cc[n-]1 (optimized conformer: 93.08119518962087 kcal/mol)

>  <smiles>  (27) 
O=C(CCC(=O)N=c1[nH]cccc1O)N=c1cc(-c2cc[nH]c(=Nc3ccccc3)c2)cc[nH]1

>  <score_type>  (27) 
oracle

>  <origin>  (27) 
adg

>  <m_score__min__energy>  (27) 
-16.050000000000001

>  <m_primary>  (27) 
energy

$$$$
27:0
     RDKit          3D

 38 39  0  0  0  0  0  0  0  0999 V2000
   58.9390   32.5220   50.0100 C   0  0  0  0  0  0  0  0  0  0  0  0
   59.6100   33.6360   49.4310 O   0  0  0  0  0  0  0  0  0  0  0  0
   60.8670   33.5710   48.8100 C   0  0  0  0  0  0  0  0  0  0  0  0
   62.0560   33.9090   49.4850 C   0  0  0  0  0  0  0  0  0  0  0  0
   63.2870   33.8380   48.8260 C   0  0  0  0  0  0  0  0  0  0  0  0
   63.3460   33.4290   47.4930 C   0  0  0  0  0  0  0  0  0  0  0  0
   62.1740   33.0890   46.8130 C   0  0  0  0  0  0  0  0  0  0  0  0
   60.9340   33.1600   47.4650 C   0  0  0  0  0  0  0  0  0  0  0  0
   59.7310   32.8060   46.7530 N   0  0  0  0  0  0  0  0  0  0  0  0
   59.3320   31.4940   46.6690 C   0  0  0  0  0  0  0  0  0  0  0  0
   60.1880   30.3900   47.2540 C   0  0  0  0  0  0  0  0  0  0  0  0
   58.1110   31.1880   46.0410 C   0  0  0  0  0  0  0  0  0  0  0  0
   57.6060   29.8470   45.9940 N   0  0  0  0  0  0  0  0  0  0  0  0
   56.7900   29.3430   44.9320 C   0  0  0  0  0  0  0  0  0  0  0  0
   57.3820   28.9210   43.6220 C   0  0  0  0  0  0  0  0  0  0  0  0
   55.5450   29.2630   45.1010 O   0  0  0  0  0  0  0  0  0  0  0  0
   57.3840   32.2160   45.4400 C   0  0  0  0  0  0  0  0  0  0  0  0
   56.2940   31.9400   44.8650 O   0  0  0  0  0  0  0  0  0  0  0  0
   57.8410   33.5050   45.4810 N   0  0  0  0  0  0  0  0  0  0  0  0
   57.0510   34.5870   44.8660 C   0  0  0  0  0  0  0  0  0  0  0  0
   58.9890   33.8020   46.1700 C   0  0  0  0  0  0  0  0  0  0  0  0
   59.3660   35.0040   46.2750 O   0  0  0  0  0  0  0  0  0  0  0  0
   58.9838   32.5964   51.1066 H   0  0  0  0  0  0  0  0  0  0  0  0
   57.8880   32.5178   49.6854 H   0  0  0  0  0  0  0  0  0  0  0  0
   59.4267   31.5910   49.6854 H   0  0  0  0  0  0  0  0  0  0  0  0
   62.0159   34.2305   50.5362 H   0  0  0  0  0  0  0  0  0  0  0  0
   64.2112   34.1051   49.3594 H   0  0  0  0  0  0  0  0  0  0  0  0
   64.3161   33.3743   46.9774 H   0  0  0  0  0  0  0  0  0  0  0  0
   62.2237   32.7646   45.7631 H   0  0  0  0  0  0  0  0  0  0  0  0
   60.1498   30.4393   48.3522 H   0  0  0  0  0  0  0  0  0  0  0  0
   59.8082   29.4141   46.9173 H   0  0  0  0  0  0  0  0  0  0  0  0
   61.2278   30.5148   46.9173 H   0  0  0  0  0  0  0  0  0  0  0  0
   58.2653   28.2914   43.8047 H   0  0  0  0  0  0  0  0  0  0  0  0
   56.6363   28.3496   43.0498 H   0  0  0  0  0  0  0  0  0  0  0  0
   57.6790   29.8123   43.0498 H   0  0  0  0  0  0  0  0  0  0  0  0
   56.5994   35.2056   45.6556 H   0  0  0  0  0  0  0  0  0  0  0  0
   57.7074   35.2110   44.2418 H   0  0  0  0  0  0  0  0  0  0  0  0
   56.2567   34.1518   44.2418 H   0  0  0  0  0  0  0  0  0  0  0  0
  1  2  1  0
  2  3  1  0
  3  4  2  0
  4  5  1  0
  5  6  2  0
  6  7  1  0
  7  8  2  0
  8  9  1  0
  9 10  1  0
 10 11  1  0
 10 12  2  0
 12 13  1  0
 13 14  1  0
 14 15  1  0
 14 16  2  0
 12 17  1  0
 17 18  2  0
 17 19  1  0
 19 20  1  0
 19 21  1  0
 21 22  2  0
  8  3  1  0
 21  9  1  0
  1 23  1  0
  1 24  1  0
  1 25  1  0
  4 26  1  0
  5 27  1  0
  6 28  1  0
  7 29  1  0
 11 30  1  0
 11 31  1  0
 11 32  1  0
 15 33  1  0
 15 34  1  0
 15 35  1  0
 20 36  1  0
 20 37  1  0
 20 38  1  0
M  CHG  1  13  -1
M  END
>  <UniqueID>  (28) 
27

>  <SMILES>  (28) 
COc1ccccc1-n1c(C)c([N-]C(C)=O)c(=O)n(C)c1=O

>  <Energy>  (28) 
58.81338575445066

>  <Genealogy>  (28) 
COc1ccccc1-n1c(C)c([N-]C(C)=O)c(=O)n(C)c1=O (protonated)
COc1ccccc1-n1c(C)c([N-]C(C)=O)c(=O)n(C)c1=O (3D coordinates assigned)
COc1ccccc1-n1c(C)c([N-]C(C)=O)c(=O)n(C)c1=O (optimized conformer: 58.81338575445066 kcal/mol)

>  <smiles>  (28) 
COc1ccccc1-n1c(C)c(NC(C)=O)c(=O)n(C)c1=O

>  <score_type>  (28) 
oracle

>  <origin>  (28) 
adg

>  <m_score__min__energy>  (28) 
-8.6699999999999999

>  <m_primary>  (28) 
energy

$$$$
28:0
     RDKit          3D

 44 46  0  0  0  0  0  0  0  0999 V2000
   59.6507   33.8613   44.2951 H   0  0  0  0  0  0  0  0  0  0  0  0
   59.0030   34.0020   45.1730 C   0  0  0  0  0  0  0  0  0  0  0  0
   57.5890   33.5650   45.0450 C   0  0  0  0  0  0  0  0  0  0  0  0
   56.6530   34.2600   45.5180 O   0  0  0  0  0  0  0  0  0  0  0  0
   57.2580   32.3300   44.3980 N   0  0  0  0  0  0  0  0  0  0  0  0
   57.6180   31.0170   44.8510 C   0  0  0  0  0  0  0  0  0  0  0  0
   58.6780   30.8780   45.7540 C   0  0  0  0  0  0  0  0  0  0  0  0
   59.2355   31.7667   46.0848 H   0  0  0  0  0  0  0  0  0  0  0  0
   59.0320   29.6140   46.2380 C   0  0  0  0  0  0  0  0  0  0  0  0
   59.8804   29.5102   46.9305 H   0  0  0  0  0  0  0  0  0  0  0  0
   58.3100   28.4800   45.8440 C   0  0  0  0  0  0  0  0  0  0  0  0
   58.7730   26.8910   46.4440 S   0  0  0  0  0  0  0  0  0  0  0  0
   59.8910   27.0070   47.4410 O   0  0  0  0  0  0  0  0  0  0  0  0
   59.2500   26.0470   45.2940 O   0  0  0  0  0  0  0  0  0  0  0  0
   57.4060   26.1220   47.1820 N   0  0  0  0  0  0  0  0  0  0  0  0
   56.3310   25.8050   46.5300 C   0  0  0  0  0  0  0  0  0  0  0  0
   55.3040   26.6460   46.2940 N   0  0  0  0  0  0  0  0  0  0  0  0
   54.4250   25.9640   45.6180 O   0  0  0  0  0  0  0  0  0  0  0  0
   54.8370   24.7320   45.4140 C   0  0  0  0  0  0  0  0  0  0  0  0
   54.0750   23.7020   44.6510 C   0  0  0  0  0  0  0  0  0  0  0  0
   53.5720   23.0221   45.3544 H   0  0  0  0  0  0  0  0  0  0  0  0
   53.3234   24.1962   44.0179 H   0  0  0  0  0  0  0  0  0  0  0  0
   54.7675   23.1279   44.0179 H   0  0  0  0  0  0  0  0  0  0  0  0
   56.0830   24.5670   45.9830 C   0  0  0  0  0  0  0  0  0  0  0  0
   56.7193   23.6698   45.9961 H   0  0  0  0  0  0  0  0  0  0  0  0
   57.2320   28.6200   44.9610 C   0  0  0  0  0  0  0  0  0  0  0  0
   56.6594   27.7337   44.6502 H   0  0  0  0  0  0  0  0  0  0  0  0
   56.8810   29.8830   44.4730 C   0  0  0  0  0  0  0  0  0  0  0  0
   56.0246   29.9883   43.7907 H   0  0  0  0  0  0  0  0  0  0  0  0
   59.5630   34.5530   46.2620 C   0  0  0  0  0  0  0  0  0  0  0  0
   59.1215   35.4885   46.6362 H   0  0  0  0  0  0  0  0  0  0  0  0
   60.7210   34.0100   47.0000 C   0  0  0  0  0  0  0  0  0  0  0  0
   61.9690   33.8540   46.3770 C   0  0  0  0  0  0  0  0  0  0  0  0
   62.0835   34.1039   45.3119 H   0  0  0  0  0  0  0  0  0  0  0  0
   63.0670   33.3830   47.1020 C   0  0  0  0  0  0  0  0  0  0  0  0
   64.0354   33.2442   46.5991 H   0  0  0  0  0  0  0  0  0  0  0  0
   62.9410   33.0850   48.4730 C   0  0  0  0  0  0  0  0  0  0  0  0
   64.0680   32.5960   49.2240 N   0  0  0  0  0  0  0  0  0  0  0  0
   65.1320   33.2480   49.2740 O   0  0  0  0  0  0  0  0  0  0  0  0
   63.9950   31.3950   49.8910 O   0  0  0  0  0  0  0  0  0  0  0  0
   61.6980   33.2780   49.1000 C   0  0  0  0  0  0  0  0  0  0  0  0
   61.5872   33.0587   50.1722 H   0  0  0  0  0  0  0  0  0  0  0  0
   60.6010   33.7470   48.3700 C   0  0  0  0  0  0  0  0  0  0  0  0
   59.6377   33.9103   48.8755 H   0  0  0  0  0  0  0  0  0  0  0  0
  1  2  1  0
  2  3  1  0
  3  4  2  0
  3  5  1  0
  5  6  1  0
  6  7  2  0
  7  8  1  0
  7  9  1  0
  9 10  1  0
  9 11  2  0
 11 12  1  0
 12 13  2  0
 12 14  2  0
 12 15  1  0
 15 16  2  3
 16 17  1  0
 17 18  1  0
 18 19  1  0
 19 20  1  0
 20 21  1  0
 20 22  1  0
 20 23  1  0
 19 24  2  0
 24 25  1  0
 11 26  1  0
 26 27  1  0
 26 28  2  0
 28 29  1  0
  2 30  2  0
 30 31  1  0
 30 32  1  0
 32 33  2  0
 33 34  1  0
 33 35  1  0
 35 36  1  0
 35 37  2  0
 37 38  1  0
 38 39  2  0
 38 40  1  0
 37 41  1  0
 41 42  1  0
 41 43  2  0
 43 44  1  0
 28  6  1  0
 43 32  1  0
 24 16  1  0
M  CHG  4   5  -1  17  -1  38   1  40  -1
M  END
>  <UniqueID>  (29) 
28

>  <SMILES>  (29) 
Cc1cc(=NS(=O)(=O)c2ccc([N-]C(=O)/C=C\c3ccc([N+](=O)[O-])cc3)cc2)[n-]o1

>  <Energy>  (29) 
93.90152115203162

>  <Genealogy>  (29) 
Cc1cc(=NS(=O)(=O)c2ccc([N-]C(=O)C=Cc3ccc([N+](=O)[O-])cc3)cc2)[n-]o1 (protonated)
Cc1cc(=NS(=O)(=O)c2ccc([N-]C(=O)/C=C\c3ccc([N+](=O)[O-])cc3)cc2)[n-]o1 (cis-trans isomerization)
Cc1cc(=NS(=O)(=O)c2ccc([N-]C(=O)/C=C\c3ccc([N+](=O)[O-])cc3)cc2)[n-]o1 (3D coordinates assigned)
Cc1cc(=NS(=O)(=O)c2ccc([N-]C(=O)/C=C\c3ccc([N+](=O)[O-])cc3)cc2)[n-]o1 (optimized conformer: 93.90152115203162 kcal/mol)

>  <smiles>  (29) 
Cc1cc(=NS(=O)(=O)c2ccc(NC(=O)C=Cc3ccc([N+](=O)[O-])cc3)cc2)[nH]o1

>  <score_type>  (29) 
oracle

>  <origin>  (29) 
adg

>  <m_score__min__energy>  (29) 
-12.49

>  <m_primary>  (29) 
energy

$$$$
29:0
     RDKit          3D

 35 37  0  0  0  0  0  0  0  0999 V2000
   55.4380   29.6190   43.8970 O   0  0  0  0  0  0  0  0  0  0  0  0
   56.4420   30.2050   44.3850 C   0  0  0  0  0  0  0  0  0  0  0  0
   57.0060   31.4030   43.6950 C   0  0  0  0  0  0  0  0  0  0  0  0
   57.8570   32.1480   44.6180 N   0  0  0  0  0  0  0  0  0  0  0  0
   59.0220   31.7200   45.0740 N   0  0  0  0  0  0  0  0  0  0  0  0
   59.4260   32.6580   45.9610 C   0  0  0  0  0  0  0  0  0  0  0  0
   60.6890   32.5940   46.7200 C   0  0  0  0  0  0  0  0  0  0  0  0
   61.3820   33.7740   47.0420 C   0  0  0  0  0  0  0  0  0  0  0  0
   62.5780   33.7170   47.7620 C   0  0  0  0  0  0  0  0  0  0  0  0
   63.0940   32.4820   48.1690 C   0  0  0  0  0  0  0  0  0  0  0  0
   64.2540   32.4290   48.8670 F   0  0  0  0  0  0  0  0  0  0  0  0
   62.4120   31.3040   47.8540 C   0  0  0  0  0  0  0  0  0  0  0  0
   61.2150   31.3570   47.1330 C   0  0  0  0  0  0  0  0  0  0  0  0
   58.5430   33.6330   46.0700 O   0  0  0  0  0  0  0  0  0  0  0  0
   57.5810   33.3030   45.2440 C   0  0  0  0  0  0  0  0  0  0  0  0
   56.5320   33.9780   45.0730 O   0  0  0  0  0  0  0  0  0  0  0  0
   56.9850   29.8040   45.6490 N   0  0  0  0  0  0  0  0  0  0  0  0
   57.6370   28.5600   45.9470 C   0  0  0  0  0  0  0  0  0  0  0  0
   59.0000   28.5090   46.2940 C   0  0  0  0  0  0  0  0  0  0  0  0
   59.6050   27.2880   46.6040 C   0  0  0  0  0  0  0  0  0  0  0  0
   58.8560   26.1110   46.5840 C   0  0  0  0  0  0  0  0  0  0  0  0
   57.4970   26.1510   46.2620 C   0  0  0  0  0  0  0  0  0  0  0  0
   56.7750   25.0020   46.2570 F   0  0  0  0  0  0  0  0  0  0  0  0
   56.8810   27.3690   45.9500 C   0  0  0  0  0  0  0  0  0  0  0  0
   55.5200   27.3750   45.6380 O   0  0  0  0  0  0  0  0  0  0  0  0
   57.6018   31.0792   42.8289 H   0  0  0  0  0  0  0  0  0  0  0  0
   56.1828   32.0493   43.3566 H   0  0  0  0  0  0  0  0  0  0  0  0
   60.9803   34.7478   46.7253 H   0  0  0  0  0  0  0  0  0  0  0  0
   63.1148   34.6447   48.0093 H   0  0  0  0  0  0  0  0  0  0  0  0
   62.8175   30.3328   48.1738 H   0  0  0  0  0  0  0  0  0  0  0  0
   60.6822   30.4264   46.8877 H   0  0  0  0  0  0  0  0  0  0  0  0
   59.5924   29.4354   46.3214 H   0  0  0  0  0  0  0  0  0  0  0  0
   60.6733   27.2548   46.8642 H   0  0  0  0  0  0  0  0  0  0  0  0
   59.3360   25.1503   46.8220 H   0  0  0  0  0  0  0  0  0  0  0  0
   55.1400   27.9190   44.8720 H   0  0  0  0  0  0  0  0  0  0  0  0
  1  2  2  0
  2  3  1  0
  3  4  1  0
  4  5  1  0
  5  6  2  0
  6  7  1  0
  7  8  2  0
  8  9  1  0
  9 10  2  0
 10 11  1  0
 10 12  1  0
 12 13  2  0
  6 14  1  0
 14 15  1  0
 15 16  2  0
  2 17  1  0
 17 18  1  0
 18 19  2  0
 19 20  1  0
 20 21  2  0
 21 22  1  0
 22 23  1  0
 22 24  2  0
 24 25  1  0
 15  4  1  0
 24 18  1  0
 13  7  1  0
  3 26  1  0
  3 27  1  0
  8 28  1  0
  9 29  1  0
 12 30  1  0
 13 31  1  0
 19 32  1  0
 20 33  1  0
 21 34  1  0
 25 35  1  0
M  CHG  1  17  -1
M  END
>  <UniqueID>  (30) 
29

>  <SMILES>  (30) 
O=C(Cn1nc(-c2ccc(F)cc2)oc1=O)[N-]c1cccc(F)c1O

>  <Energy>  (30) 
77.10631823912514

>  <Genealogy>  (30) 
O=C(Cn1nc(-c2ccc(F)cc2)oc1=O)[N-]c1cccc(F)c1O (protonated)
O=C(Cn1nc(-c2ccc(F)cc2)oc1=O)[N-]c1cccc(F)c1O (3D coordinates assigned)
O=C(Cn1nc(-c2ccc(F)cc2)oc1=O)[N-]c1cccc(F)c1O (optimized conformer: 77.10631823912514 kcal/mol)

>  <smiles>  (30) 
O=C(Cn1nc(-c2ccc(F)cc2)oc1=O)Nc1cccc(F)c1O

>  <score_type>  (30) 
oracle

>  <origin>  (30) 
adg

>  <m_score__min__energy>  (30) 
-10.720000000000001

>  <m_primary>  (30) 
energy

$$$$
30:0
     RDKit          3D

 44 46  0  0  0  0  0  0  0  0999 V2000
   59.7130   34.5830   49.6190 O   0  0  0  0  0  0  0  0  0  0  0  0
   60.0080   33.7180   48.7490 C   0  0  0  0  0  0  0  0  0  0  0  0
   61.3580   33.6770   48.1600 C   0  0  0  0  0  0  0  0  0  0  0  0
   62.0840   32.5530   48.1150 C   0  0  0  0  0  0  0  0  0  0  0  0
   61.4920   31.1930   48.0600 C   0  0  0  0  0  0  0  0  0  0  0  0
   61.1880   30.5500   46.8420 C   0  0  0  0  0  0  0  0  0  0  0  0
   60.6080   29.2760   46.8400 C   0  0  0  0  0  0  0  0  0  0  0  0
   60.3180   28.6360   48.0460 C   0  0  0  0  0  0  0  0  0  0  0  0
   60.6040   29.2680   49.2590 C   0  0  0  0  0  0  0  0  0  0  0  0
   61.1830   30.5410   49.2670 C   0  0  0  0  0  0  0  0  0  0  0  0
   59.0220   32.7850   48.2890 N   0  0  0  0  0  0  0  0  0  0  0  0
   58.4660   32.7300   46.9670 C   0  0  0  0  0  0  0  0  0  0  0  0
   58.1280   31.5010   46.3740 C   0  0  0  0  0  0  0  0  0  0  0  0
   57.5750   31.4590   45.0870 C   0  0  0  0  0  0  0  0  0  0  0  0
   57.1100   29.9150   44.3760 S   0  0  0  0  0  0  0  0  0  0  0  0
   56.0120   30.1100   43.3660 O   0  0  0  0  0  0  0  0  0  0  0  0
   58.3100   29.3180   43.6940 O   0  0  0  0  0  0  0  0  0  0  0  0
   56.5610   28.8260   45.6110 N   0  0  0  0  0  0  0  0  0  0  0  0
   57.0580   27.4970   45.8230 C   0  0  0  0  0  0  0  0  0  0  0  0
   58.4370   27.2090   45.8370 C   0  0  0  0  0  0  0  0  0  0  0  0
   58.8810   25.8970   46.0260 C   0  0  0  0  0  0  0  0  0  0  0  0
   57.9600   24.8640   46.2130 C   0  0  0  0  0  0  0  0  0  0  0  0
   56.5900   25.1410   46.2030 C   0  0  0  0  0  0  0  0  0  0  0  0
   56.1390   26.4510   46.0110 C   0  0  0  0  0  0  0  0  0  0  0  0
   54.7730   26.7130   46.0060 O   0  0  0  0  0  0  0  0  0  0  0  0
   57.3930   32.6480   44.3720 C   0  0  0  0  0  0  0  0  0  0  0  0
   57.7630   33.8700   44.9380 C   0  0  0  0  0  0  0  0  0  0  0  0
   58.3030   33.9190   46.2290 C   0  0  0  0  0  0  0  0  0  0  0  0
   58.6600   35.1590   46.7600 O   0  0  0  0  0  0  0  0  0  0  0  0
   61.7839   34.6015   47.7430 H   0  0  0  0  0  0  0  0  0  0  0  0
   63.1804   32.6424   48.1190 H   0  0  0  0  0  0  0  0  0  0  0  0
   61.4079   31.0524   45.8885 H   0  0  0  0  0  0  0  0  0  0  0  0
   60.3803   28.7782   45.8859 H   0  0  0  0  0  0  0  0  0  0  0  0
   59.8642   27.6340   48.0416 H   0  0  0  0  0  0  0  0  0  0  0  0
   60.3734   28.7635   50.2089 H   0  0  0  0  0  0  0  0  0  0  0  0
   61.3985   31.0363   50.2253 H   0  0  0  0  0  0  0  0  0  0  0  0
   58.2990   30.5644   46.9249 H   0  0  0  0  0  0  0  0  0  0  0  0
   59.1673   28.0198   45.6986 H   0  0  0  0  0  0  0  0  0  0  0  0
   59.9589   25.6776   46.0274 H   0  0  0  0  0  0  0  0  0  0  0  0
   58.3123   23.8335   46.3680 H   0  0  0  0  0  0  0  0  0  0  0  0
   55.8646   24.3266   46.3465 H   0  0  0  0  0  0  0  0  0  0  0  0
   56.9577   32.6202   43.3622 H   0  0  0  0  0  0  0  0  0  0  0  0
   57.6293   34.8000   44.3659 H   0  0  0  0  0  0  0  0  0  0  0  0
   58.8950   35.2810   47.7380 H   0  0  0  0  0  0  0  0  0  0  0  0
  1  2  2  0
  2  3  1  0
  3  4  2  3
  4  5  1  0
  5  6  2  0
  6  7  1  0
  7  8  2  0
  8  9  1  0
  9 10  2  0
  2 11  1  0
 11 12  1  0
 12 13  2  0
 13 14  1  0
 14 15  1  0
 15 16  2  0
 15 17  2  0
 15 18  1  0
 18 19  1  0
 19 20  2  0
 20 21  1  0
 21 22  2  0
 22 23  1  0
 23 24  2  0
 24 25  1  0
 14 26  2  0
 26 27  1  0
 27 28  2  0
 28 29  1  0
 10  5  1  0
 28 12  1  0
 24 19  1  0
  3 30  1  0
  4 31  1  0
  6 32  1  0
  7 33  1  0
  8 34  1  0
  9 35  1  0
 10 36  1  0
 13 37  1  0
 20 38  1  0
 21 39  1  0
 22 40  1  0
 23 41  1  0
 26 42  1  0
 27 43  1  0
 29 44  1  0
M  CHG  3  11  -1  18  -1  25  -1
M  END
>  <UniqueID>  (31) 
30

>  <SMILES>  (31) 
O=C(C=Cc1ccccc1)[N-]c1cc(S(=O)(=O)[N-]c2ccccc2[O-])ccc1O

>  <Energy>  (31) 
54.82306823519968

>  <Genealogy>  (31) 
O=C(C=Cc1ccccc1)[N-]c1cc(S(=O)(=O)[N-]c2ccccc2[O-])ccc1O (protonated)
O=C(C=Cc1ccccc1)[N-]c1cc(S(=O)(=O)[N-]c2ccccc2[O-])ccc1O (3D coordinates assigned)
O=C(C=Cc1ccccc1)[N-]c1cc(S(=O)(=O)[N-]c2ccccc2[O-])ccc1O (optimized conformer: 54.82306823519968 kcal/mol)

>  <smiles>  (31) 
O=C(C=Cc1ccccc1)Nc1cc(S(=O)(=O)Nc2ccccc2O)ccc1O

>  <score_type>  (31) 
oracle

>  <origin>  (31) 
adg

>  <m_score__min__energy>  (31) 
-15.390000000000001

>  <m_primary>  (31) 
energy

$$$$
31:0
     RDKit          3D

 48 51  0  0  0  0  0  0  0  0999 V2000
   63.6730   31.9660   48.9040 C   0  0  0  0  0  0  0  0  0  0  0  0
   62.5730   32.8000   48.3170 C   0  0  0  0  0  0  0  0  0  0  0  0
   62.5820   33.1230   46.9520 C   0  0  0  0  0  0  0  0  0  0  0  0
   61.5750   33.9280   46.4110 C   0  0  0  0  0  0  0  0  0  0  0  0
   60.5580   34.4390   47.2330 C   0  0  0  0  0  0  0  0  0  0  0  0
   59.4460   35.2580   46.6400 C   0  0  0  0  0  0  0  0  0  0  0  0
   58.5810   34.3900   45.7850 C   0  0  0  0  0  0  0  0  0  0  0  0
   57.2560   34.2420   45.9700 N   0  0  0  0  0  0  0  0  0  0  0  0
   56.8970   33.3470   45.1010 O   0  0  0  0  0  0  0  0  0  0  0  0
   57.9460   32.9520   44.4210 C   0  0  0  0  0  0  0  0  0  0  0  0
   57.9130   31.9050   43.3540 C   0  0  0  0  0  0  0  0  0  0  0  0
   57.8140   30.5630   43.9620 N   0  0  0  0  0  0  0  0  0  0  0  0
   56.3960   30.2070   44.2000 C   0  0  0  0  0  0  0  0  0  0  0  0
   56.2410   28.9560   45.0960 C   0  0  0  0  0  0  0  0  0  0  0  0
   57.5450   28.1470   45.1590 C   0  0  0  0  0  0  0  0  0  0  0  0
   57.3830   26.9370   45.9800 N   0  0  0  0  0  0  0  0  0  0  0  0
   56.2490   26.3090   46.3460 C   0  0  0  0  0  0  0  0  0  0  0  0
   54.9660   26.7090   45.9930 O   0  0  0  0  0  0  0  0  0  0  0  0
   56.5570   25.2210   47.1260 C   0  0  0  0  0  0  0  0  0  0  0  0
   57.8970   25.1480   47.2670 N   0  0  0  0  0  0  0  0  0  0  0  0
   58.3570   26.2030   46.5610 C   0  0  0  0  0  0  0  0  0  0  0  0
   59.5840   26.4710   46.4600 O   0  0  0  0  0  0  0  0  0  0  0  0
   58.7140   29.0160   45.6740 C   0  0  0  0  0  0  0  0  0  0  0  0
   58.5900   30.4810   45.2160 C   0  0  0  0  0  0  0  0  0  0  0  0
   59.0660   33.5860   44.8170 N   0  0  0  0  0  0  0  0  0  0  0  0
   60.5530   34.1200   48.6000 C   0  0  0  0  0  0  0  0  0  0  0  0
   61.5600   33.3150   49.1410 C   0  0  0  0  0  0  0  0  0  0  0  0
   63.6185   32.0073   50.0019 H   0  0  0  0  0  0  0  0  0  0  0  0
   63.5610   30.9238   48.5703 H   0  0  0  0  0  0  0  0  0  0  0  0
   64.6462   32.3552   48.5703 H   0  0  0  0  0  0  0  0  0  0  0  0
   63.3850   32.7412   46.3043 H   0  0  0  0  0  0  0  0  0  0  0  0
   61.5796   34.1621   45.3362 H   0  0  0  0  0  0  0  0  0  0  0  0
   58.8410   35.6932   47.4491 H   0  0  0  0  0  0  0  0  0  0  0  0
   59.8748   36.0629   46.0250 H   0  0  0  0  0  0  0  0  0  0  0  0
   57.0418   32.0751   42.7043 H   0  0  0  0  0  0  0  0  0  0  0  0
   58.8386   31.9647   42.7626 H   0  0  0  0  0  0  0  0  0  0  0  0
   55.8968   31.0559   44.6902 H   0  0  0  0  0  0  0  0  0  0  0  0
   55.9411   29.9779   43.2250 H   0  0  0  0  0  0  0  0  0  0  0  0
   55.9685   29.2755   46.1127 H   0  0  0  0  0  0  0  0  0  0  0  0
   55.4570   28.3162   44.6647 H   0  0  0  0  0  0  0  0  0  0  0  0
   57.7887   27.8260   44.1355 H   0  0  0  0  0  0  0  0  0  0  0  0
   55.8292   24.5225   47.5646 H   0  0  0  0  0  0  0  0  0  0  0  0
   58.7202   28.9871   46.7736 H   0  0  0  0  0  0  0  0  0  0  0  0
   59.6480   28.6087   45.2596 H   0  0  0  0  0  0  0  0  0  0  0  0
   58.0795   31.0633   45.9972 H   0  0  0  0  0  0  0  0  0  0  0  0
   59.5971   30.8870   45.0403 H   0  0  0  0  0  0  0  0  0  0  0  0
   59.7527   34.5053   49.2489 H   0  0  0  0  0  0  0  0  0  0  0  0
   61.5584   33.0843   50.2165 H   0  0  0  0  0  0  0  0  0  0  0  0
  1  2  1  0
  2  3  2  0
  3  4  1  0
  4  5  2  0
  5  6  1  0
  6  7  1  0
  7  8  2  0
  8  9  1  0
  9 10  1  0
 10 11  1  0
 11 12  1  0
 12 13  1  0
 13 14  1  0
 14 15  1  0
 15 16  1  0
 16 17  1  0
 17 18  1  0
 17 19  2  0
 19 20  1  0
 20 21  1  0
 21 22  2  0
 15 23  1  0
 23 24  1  0
 10 25  2  0
  5 26  1  0
 26 27  2  0
 27  2  1  0
 25  7  1  0
 24 12  1  0
 21 16  1  0
  1 28  1  0
  1 29  1  0
  1 30  1  0
  3 31  1  0
  4 32  1  0
  6 33  1  0
  6 34  1  0
 11 35  1  0
 11 36  1  0
 13 37  1  0
 13 38  1  0
 14 39  1  0
 14 40  1  0
 15 41  1  0
 19 42  1  0
 23 43  1  0
 23 44  1  0
 24 45  1  0
 24 46  1  0
 26 47  1  0
 27 48  1  0
M  CHG  2  18  -1  20  -1
M  END
>  <UniqueID>  (32) 
31

>  <SMILES>  (32) 
Cc1ccc(Cc2noc(CN3CCC(n4c([O-])c[n-]c4=O)CC3)n2)cc1

>  <Energy>  (32) 
118.41096934652437

>  <Genealogy>  (32) 
Cc1ccc(Cc2noc(CN3CCC(n4c([O-])c[n-]c4=O)CC3)n2)cc1 (protonated)
Cc1ccc(Cc2noc(CN3CCC(n4c([O-])c[n-]c4=O)CC3)n2)cc1 (3D coordinates assigned)
Cc1ccc(Cc2noc(CN3CCC(n4c([O-])c[n-]c4=O)CC3)n2)cc1 (nonaromatic ring conformer: 118.41096934652437 kcal/mol)

>  <smiles>  (32) 
Cc1ccc(Cc2noc(CN3CCC(n4c(O)c[nH]c4=O)CC3)n2)cc1

>  <score_type>  (32) 
oracle

>  <origin>  (32) 
adg

>  <m_score__min__energy>  (32) 
-14.84

>  <m_primary>  (32) 
energy

$$$$
32:0
     RDKit          3D

 35 36  0  0  0  0  0  0  0  0999 V2000
   63.3860   33.8310   46.7140 C   0  0  0  0  0  0  0  0  0  0  0  0
   63.1290   32.4980   47.0900 O   0  0  0  0  0  0  0  0  0  0  0  0
   61.9150   32.4360   47.8110 C   0  0  0  0  0  0  0  0  0  0  0  0
   61.1910   33.7780   47.7050 C   0  0  0  0  0  0  0  0  0  0  0  0
   60.0800   33.6920   46.7630 N   0  0  0  0  0  0  0  0  0  0  0  0
   59.1130   32.7550   46.7630 C   0  0  0  0  0  0  0  0  0  0  0  0
   58.2350   33.0680   45.7460 C   0  0  0  0  0  0  0  0  0  0  0  0
   57.0390   32.3840   45.3490 N   0  0  0  0  0  0  0  0  0  0  0  0
   56.9600   31.1630   44.6040 C   0  0  0  0  0  0  0  0  0  0  0  0
   55.8800   30.7990   44.0660 O   0  0  0  0  0  0  0  0  0  0  0  0
   58.1730   30.2950   44.4810 C   0  0  0  0  0  0  0  0  0  0  0  0
   57.9320   28.9670   45.1470 C   0  0  0  0  0  0  0  0  0  0  0  0
   59.0030   28.2510   45.7070 C   0  0  0  0  0  0  0  0  0  0  0  0
   58.7730   27.0270   46.3420 C   0  0  0  0  0  0  0  0  0  0  0  0
   57.4760   26.5110   46.4280 C   0  0  0  0  0  0  0  0  0  0  0  0
   56.4020   27.2250   45.8870 C   0  0  0  0  0  0  0  0  0  0  0  0
   55.1120   26.7200   45.9900 O   0  0  0  0  0  0  0  0  0  0  0  0
   56.6280   28.4510   45.2520 C   0  0  0  0  0  0  0  0  0  0  0  0
   58.7270   34.2160   45.1640 C   0  0  0  0  0  0  0  0  0  0  0  0
   59.8510   34.5840   45.8090 N   0  0  0  0  0  0  0  0  0  0  0  0
   63.5053   34.4498   47.6156 H   0  0  0  0  0  0  0  0  0  0  0  0
   64.3086   33.8720   46.1164 H   0  0  0  0  0  0  0  0  0  0  0  0
   62.5448   34.2121   46.1164 H   0  0  0  0  0  0  0  0  0  0  0  0
   61.2794   31.6422   47.3915 H   0  0  0  0  0  0  0  0  0  0  0  0
   62.1267   32.2158   48.8677 H   0  0  0  0  0  0  0  0  0  0  0  0
   60.8036   34.0584   48.6956 H   0  0  0  0  0  0  0  0  0  0  0  0
   61.9022   34.5359   47.3446 H   0  0  0  0  0  0  0  0  0  0  0  0
   59.0371   31.8976   47.4480 H   0  0  0  0  0  0  0  0  0  0  0  0
   58.3968   30.1322   43.4164 H   0  0  0  0  0  0  0  0  0  0  0  0
   59.0221   30.7935   44.9715 H   0  0  0  0  0  0  0  0  0  0  0  0
   60.0246   28.6542   45.6457 H   0  0  0  0  0  0  0  0  0  0  0  0
   59.6152   26.4677   46.7756 H   0  0  0  0  0  0  0  0  0  0  0  0
   57.3006   25.5435   46.9212 H   0  0  0  0  0  0  0  0  0  0  0  0
   55.7813   29.0143   44.8327 H   0  0  0  0  0  0  0  0  0  0  0  0
   58.2757   34.7455   44.3119 H   0  0  0  0  0  0  0  0  0  0  0  0
  1  2  1  0
  2  3  1  0
  3  4  1  0
  4  5  1  0
  5  6  1  0
  6  7  2  0
  7  8  1  0
  8  9  1  0
  9 10  2  0
  9 11  1  0
 11 12  1  0
 12 13  2  0
 13 14  1  0
 14 15  2  0
 15 16  1  0
 16 17  1  0
 16 18  2  0
  7 19  1  0
 19 20  2  0
 20  5  1  0
 18 12  1  0
  1 21  1  0
  1 22  1  0
  1 23  1  0
  3 24  1  0
  3 25  1  0
  4 26  1  0
  4 27  1  0
  6 28  1  0
 11 29  1  0
 11 30  1  0
 13 31  1  0
 14 32  1  0
 15 33  1  0
 18 34  1  0
 19 35  1  0
M  CHG  2   8  -1  17  -1
M  END
>  <UniqueID>  (33) 
32

>  <SMILES>  (33) 
COCCn1cc([N-]C(=O)Cc2cccc([O-])c2)cn1

>  <Energy>  (33) 
63.07960729694419

>  <Genealogy>  (33) 
COCCn1cc([N-]C(=O)Cc2cccc([O-])c2)cn1 (protonated)
COCCn1cc([N-]C(=O)Cc2cccc([O-])c2)cn1 (3D coordinates assigned)
COCCn1cc([N-]C(=O)Cc2cccc([O-])c2)cn1 (optimized conformer: 63.07960729694419 kcal/mol)

>  <smiles>  (33) 
COCCn1cc(NC(=O)Cc2cccc(O)c2)cn1

>  <score_type>  (33) 
oracle

>  <origin>  (33) 
adg

>  <m_score__min__energy>  (33) 
-11.449999999999999

>  <m_primary>  (33) 
energy

$$$$
33:0
     RDKit          3D

 51 54  0  0  0  0  0  0  0  0999 V2000
   56.2420   29.9620   44.8350 O   0  0  0  0  0  0  0  0  0  0  0  0
   57.2750   29.8000   44.1390 C   0  0  0  0  0  0  0  0  0  0  0  0
   57.3970   28.5790   43.2830 C   0  0  0  0  0  0  0  0  0  0  0  0
   57.8690   27.4920   44.1950 C   0  0  0  0  0  0  0  0  0  0  0  0
   58.8130   27.8910   45.1000 N   0  0  0  0  0  0  0  0  0  0  0  0
   59.2690   26.9710   45.9480 C   0  0  0  0  0  0  0  0  0  0  0  0
   60.1480   27.3120   46.8000 O   0  0  0  0  0  0  0  0  0  0  0  0
   58.8060   25.6640   45.9150 C   0  0  0  0  0  0  0  0  0  0  0  0
   57.8550   25.2900   44.9930 C   0  0  0  0  0  0  0  0  0  0  0  0
   57.3880   23.9660   44.9690 N   0  0  0  0  0  0  0  0  0  0  0  0
   56.0820   23.5530   45.5030 C   0  0  0  0  0  0  0  0  0  0  0  0
   55.2610   23.3360   44.2170 C   0  0  0  0  0  0  0  0  0  0  0  0
   55.9610   22.5990   43.3120 O   0  0  0  0  0  0  0  0  0  0  0  0
   57.0870   21.9490   43.7230 C   0  0  0  0  0  0  0  0  0  0  0  0
   58.1390   22.8430   44.3740 C   0  0  0  0  0  0  0  0  0  0  0  0
   57.4080   26.2330   44.1440 N   0  0  0  0  0  0  0  0  0  0  0  0
   58.3590   30.7160   44.1010 N   0  0  0  0  0  0  0  0  0  0  0  0
   58.4300   31.9190   44.8340 C   0  0  0  0  0  0  0  0  0  0  0  0
   57.7300   33.0050   44.2860 C   0  0  0  0  0  0  0  0  0  0  0  0
   57.8010   34.2240   44.9800 C   0  0  0  0  0  0  0  0  0  0  0  0
   58.5350   34.3240   46.1510 C   0  0  0  0  0  0  0  0  0  0  0  0
   59.2050   33.2590   46.6640 N   0  0  0  0  0  0  0  0  0  0  0  0
   59.9560   33.4150   47.8740 C   0  0  0  0  0  0  0  0  0  0  0  0
   59.3020   33.3000   49.0950 C   0  0  0  0  0  0  0  0  0  0  0  0
   60.0050   33.4460   50.2640 C   0  0  0  0  0  0  0  0  0  0  0  0
   61.3800   33.7110   50.2860 C   0  0  0  0  0  0  0  0  0  0  0  0
   62.0150   33.8220   49.0640 C   0  0  0  0  0  0  0  0  0  0  0  0
   61.3110   33.6760   47.8840 C   0  0  0  0  0  0  0  0  0  0  0  0
   62.1820   33.8330   46.3870 Cl  0  0  0  0  0  0  0  0  0  0  0  0
   59.1460   32.0740   46.0040 C   0  0  0  0  0  0  0  0  0  0  0  0
   59.7500   31.0940   46.4580 O   0  0  0  0  0  0  0  0  0  0  0  0
   56.4217   28.3173   42.8467 H   0  0  0  0  0  0  0  0  0  0  0  0
   58.0926   28.7376   42.4457 H   0  0  0  0  0  0  0  0  0  0  0  0
   59.1999   24.9244   46.6276 H   0  0  0  0  0  0  0  0  0  0  0  0
   56.1647   22.6235   46.0855 H   0  0  0  0  0  0  0  0  0  0  0  0
   55.6360   24.2827   46.1948 H   0  0  0  0  0  0  0  0  0  0  0  0
   54.3300   22.8071   44.4691 H   0  0  0  0  0  0  0  0  0  0  0  0
   55.0375   24.3174   43.7732 H   0  0  0  0  0  0  0  0  0  0  0  0
   56.7918   21.1805   44.4525 H   0  0  0  0  0  0  0  0  0  0  0  0
   57.5520   21.5313   42.8178 H   0  0  0  0  0  0  0  0  0  0  0  0
   58.6849   22.2901   45.1526 H   0  0  0  0  0  0  0  0  0  0  0  0
   58.8858   23.1917   43.6455 H   0  0  0  0  0  0  0  0  0  0  0  0
   56.6880   26.0160   43.4190 H   0  0  0  0  0  0  0  0  0  0  0  0
   59.2010   30.5100   43.4810 H   0  0  0  0  0  0  0  0  0  0  0  0
   57.1521   32.9060   43.3553 H   0  0  0  0  0  0  0  0  0  0  0  0
   57.2702   35.1055   44.5912 H   0  0  0  0  0  0  0  0  0  0  0  0
   58.5763   35.2887   46.6779 H   0  0  0  0  0  0  0  0  0  0  0  0
   58.2222   33.0922   49.1240 H   0  0  0  0  0  0  0  0  0  0  0  0
   59.4687   33.3514   51.2197 H   0  0  0  0  0  0  0  0  0  0  0  0
   61.9290   33.8255   51.2323 H   0  0  0  0  0  0  0  0  0  0  0  0
   63.0948   34.0292   49.0300 H   0  0  0  0  0  0  0  0  0  0  0  0
  1  2  2  0
  2  3  1  0
  3  4  1  0
  4  5  2  0
  5  6  1  0
  6  7  2  0
  6  8  1  0
  8  9  2  0
  9 10  1  0
 10 11  1  0
 11 12  1  0
 12 13  1  0
 13 14  1  0
 14 15  1  0
  9 16  1  0
  2 17  1  0
 17 18  1  0
 18 19  2  0
 19 20  1  0
 20 21  2  0
 21 22  1  0
 22 23  1  0
 23 24  2  0
 24 25  1  0
 25 26  2  0
 26 27  1  0
 27 28  2  0
 28 29  1  0
 22 30  1  0
 30 31  2  0
 16  4  1  0
 30 18  1  0
 15 10  1  0
 28 23  1  0
  3 32  1  0
  3 33  1  0
  8 34  1  0
 11 35  1  0
 11 36  1  0
 12 37  1  0
 12 38  1  0
 14 39  1  0
 14 40  1  0
 15 41  1  0
 15 42  1  0
 16 43  1  0
 17 44  1  0
 19 45  1  0
 20 46  1  0
 21 47  1  0
 24 48  1  0
 25 49  1  0
 26 50  1  0
 27 51  1  0
M  END
>  <smiles>  (34) 
O=C(Cc1nc(=O)cc(N2CCOCC2)[nH]1)Nc1cccn(-c2ccccc2Cl)c1=O

>  <score_type>  (34) 
oracle

>  <origin>  (34) 
adg

>  <m_score__min__energy>  (34) 
-9.4700000000000006

>  <m_primary>  (34) 
energy

$$$$
34:0
     RDKit          3D

 51 53  0  0  0  0  0  0  0  0999 V2000
   57.9050   34.1570   45.4270 C   0  0  0  0  0  0  0  0  0  0  0  0
   59.2250   34.7700   45.9230 C   0  0  1  0  0  0  0  0  0  0  0  0
   59.0080   35.4280   47.1470 O   0  0  0  0  0  0  0  0  0  0  0  0
   60.3630   33.7290   46.0750 C   0  0  0  0  0  0  0  0  0  0  0  0
   60.4870   33.2200   47.4550 N   0  0  0  0  0  0  0  0  0  0  0  0
   59.4420   32.3990   48.0120 C   0  0  0  0  0  0  0  0  0  0  0  0
   58.6210   32.9140   48.8200 O   0  0  0  0  0  0  0  0  0  0  0  0
   59.2810   30.9800   47.6190 C   0  0  0  0  0  0  0  0  0  0  0  0
   58.4560   30.6530   46.5310 C   0  0  0  0  0  0  0  0  0  0  0  0
   58.2480   29.3180   46.1650 C   0  0  0  0  0  0  0  0  0  0  0  0
   57.2040   28.9110   44.8060 S   0  0  0  0  0  0  0  0  0  0  0  0
   57.5660   29.7860   43.6370 O   0  0  0  0  0  0  0  0  0  0  0  0
   55.7590   29.1510   45.1450 O   0  0  0  0  0  0  0  0  0  0  0  0
   57.4340   27.2520   44.3610 N   0  0  0  0  0  0  0  0  0  0  0  0
   57.4180   26.1290   45.2560 C   0  0  0  0  0  0  0  0  0  0  0  0
   58.5220   25.2640   45.3830 C   0  0  0  0  0  0  0  0  0  0  0  0
   58.4810   24.1880   46.2720 C   0  0  0  0  0  0  0  0  0  0  0  0
   57.3340   23.9530   47.0330 C   0  0  0  0  0  0  0  0  0  0  0  0
   56.2330   24.8010   46.9140 C   0  0  0  0  0  0  0  0  0  0  0  0
   56.2680   25.8890   46.0340 C   0  0  0  0  0  0  0  0  0  0  0  0
   55.1490   26.7170   45.9470 O   0  0  0  0  0  0  0  0  0  0  0  0
   58.8620   28.2970   46.8980 C   0  0  0  0  0  0  0  0  0  0  0  0
   59.6800   28.6080   47.9850 C   0  0  0  0  0  0  0  0  0  0  0  0
   59.8930   29.9420   48.3500 C   0  0  0  0  0  0  0  0  0  0  0  0
   60.7200   30.2230   49.4320 O   0  0  0  0  0  0  0  0  0  0  0  0
   61.7320   33.3050   48.1720 C   0  0  0  0  0  0  0  0  0  0  0  0
   62.8800   32.6300   47.7180 C   0  0  0  0  0  0  0  0  0  0  0  0
   64.0770   32.7140   48.4380 C   0  0  0  0  0  0  0  0  0  0  0  0
   64.1350   33.4660   49.6150 C   0  0  0  0  0  0  0  0  0  0  0  0
   62.9950   34.1330   50.0760 C   0  0  0  0  0  0  0  0  0  0  0  0
   61.7980   34.0530   49.3600 C   0  0  0  0  0  0  0  0  0  0  0  0
   57.2868   33.8699   46.2904 H   0  0  0  0  0  0  0  0  0  0  0  0
   57.3636   34.8959   44.8179 H   0  0  0  0  0  0  0  0  0  0  0  0
   58.1202   33.2667   44.8179 H   0  0  0  0  0  0  0  0  0  0  0  0
   59.5558   35.4857   45.1560 H   0  0  0  0  0  0  0  0  0  0  0  0
   58.9080   34.7280   47.8470 H   0  0  0  0  0  0  0  0  0  0  0  0
   60.1572   32.8818   45.4043 H   0  0  0  0  0  0  0  0  0  0  0  0
   61.3084   34.2295   45.8186 H   0  0  0  0  0  0  0  0  0  0  0  0
   57.9672   31.4556   45.9593 H   0  0  0  0  0  0  0  0  0  0  0  0
   59.4236   25.4373   44.7772 H   0  0  0  0  0  0  0  0  0  0  0  0
   59.3529   23.5250   46.3729 H   0  0  0  0  0  0  0  0  0  0  0  0
   57.2988   23.0995   47.7260 H   0  0  0  0  0  0  0  0  0  0  0  0
   55.3314   24.6136   47.5156 H   0  0  0  0  0  0  0  0  0  0  0  0
   55.1440   27.5640   45.3930 H   0  0  0  0  0  0  0  0  0  0  0  0
   58.6996   27.2460   46.6168 H   0  0  0  0  0  0  0  0  0  0  0  0
   60.1597   27.8006   48.5577 H   0  0  0  0  0  0  0  0  0  0  0  0
   62.8365   32.0344   46.7942 H   0  0  0  0  0  0  0  0  0  0  0  0
   64.9732   32.1878   48.0775 H   0  0  0  0  0  0  0  0  0  0  0  0
   65.0772   33.5333   50.1787 H   0  0  0  0  0  0  0  0  0  0  0  0
   63.0412   34.7216   51.0041 H   0  0  0  0  0  0  0  0  0  0  0  0
   60.9037   34.5775   49.7275 H   0  0  0  0  0  0  0  0  0  0  0  0
  1  2  1  0
  2  3  1  0
  2  4  1  0
  4  5  1  0
  5  6  1  0
  6  7  2  0
  6  8  1  0
  8  9  2  0
  9 10  1  0
 10 11  1  0
 11 12  2  0
 11 13  2  0
 11 14  1  0
 14 15  1  0
 15 16  2  0
 16 17  1  0
 17 18  2  0
 18 19  1  0
 19 20  2  0
 20 21  1  0
 10 22  2  0
 22 23  1  0
 23 24  2  0
 24 25  1  0
  5 26  1  0
 26 27  2  0
 27 28  1  0
 28 29  2  0
 29 30  1  0
 30 31  2  0
 24  8  1  0
 31 26  1  0
 20 15  1  0
  1 32  1  0
  1 33  1  0
  1 34  1  0
  2 35  1  6
  3 36  1  0
  4 37  1  0
  4 38  1  0
  9 39  1  0
 16 40  1  0
 17 41  1  0
 18 42  1  0
 19 43  1  0
 21 44  1  0
 22 45  1  0
 23 46  1  0
 27 47  1  0
 28 48  1  0
 29 49  1  0
 30 50  1  0
 31 51  1  0
M  CHG  2  14  -1  25  -1
M  END
>  <UniqueID>  (35) 
33

>  <SMILES>  (35) 
C[C@@H](O)CN(C(=O)c1cc(S(=O)(=O)[N-]c2ccccc2O)ccc1[O-])c1ccccc1

>  <Energy>  (35) 
67.54674035813875

>  <Genealogy>  (35) 
CC(O)CN(C(=O)c1cc(S(=O)(=O)[N-]c2ccccc2O)ccc1[O-])c1ccccc1 (protonated)
C[C@@H](O)CN(C(=O)c1cc(S(=O)(=O)[N-]c2ccccc2O)ccc1[O-])c1ccccc1 (chirality)
C[C@@H](O)CN(C(=O)c1cc(S(=O)(=O)[N-]c2ccccc2O)ccc1[O-])c1ccccc1 (3D coordinates assigned)
C[C@@H](O)CN(C(=O)c1cc(S(=O)(=O)[N-]c2ccccc2O)ccc1[O-])c1ccccc1 (optimized conformer: 67.54674035813875 kcal/mol)

>  <smiles>  (35) 
CC(O)CN(C(=O)c1cc(S(=O)(=O)Nc2ccccc2O)ccc1O)c1ccccc1

>  <score_type>  (35) 
oracle

>  <origin>  (35) 
adg

>  <m_score__min__energy>  (35) 
-12.85

>  <m_primary>  (35) 
energy

$$$$
35:0
     RDKit          3D

 40 42  0  0  0  0  0  0  0  0999 V2000
   67.0190   32.5530   50.5180 C   0  0  0  0  0  0  0  0  0  0  0  0
   65.5560   32.2590   50.1980 C   0  0  0  0  0  0  0  0  0  0  0  0
   65.1570   32.9200   48.9970 O   0  0  0  0  0  0  0  0  0  0  0  0
   63.8860   32.8460   48.4040 C   0  0  0  0  0  0  0  0  0  0  0  0
   63.5270   33.8450   47.4970 C   0  0  0  0  0  0  0  0  0  0  0  0
   62.2760   33.8290   46.8820 C   0  0  0  0  0  0  0  0  0  0  0  0
   61.3590   32.8090   47.1580 C   0  0  0  0  0  0  0  0  0  0  0  0
   59.6300   32.9420   46.3350 Br  0  0  0  0  0  0  0  0  0  0  0  0
   61.7070   31.7790   48.0630 C   0  0  0  0  0  0  0  0  0  0  0  0
   60.7890   30.6610   48.3800 C   0  0  0  0  0  0  0  0  0  0  0  0
   60.0970   30.7050   49.4330 O   0  0  0  0  0  0  0  0  0  0  0  0
   60.7640   29.4900   47.5530 N   0  0  0  0  0  0  0  0  0  0  0  0
   59.5970   28.8110   47.0670 C   0  0  0  0  0  0  0  0  0  0  0  0
   58.6530   29.5490   46.3150 C   0  0  0  0  0  0  0  0  0  0  0  0
   57.4680   28.9440   45.8280 C   0  0  0  0  0  0  0  0  0  0  0  0
   56.4900   29.7260   45.0320 C   0  0  0  0  0  0  0  0  0  0  0  0
   55.2300   29.1660   44.6680 N   0  0  0  0  0  0  0  0  0  0  0  0
   56.7660   30.9010   44.6680 O   0  0  0  0  0  0  0  0  0  0  0  0
   57.2750   27.5910   46.1410 C   0  0  0  0  0  0  0  0  0  0  0  0
   56.2370   26.8020   45.8180 N   0  0  0  0  0  0  0  0  0  0  0  0
   56.5710   25.6150   46.3870 C   0  0  0  0  0  0  0  0  0  0  0  0
   55.6800   24.4210   46.3400 C   0  0  0  0  0  0  0  0  0  0  0  0
   57.7470   25.6260   47.0640 N   0  0  0  0  0  0  0  0  0  0  0  0
   58.1740   26.8850   46.8840 C   0  0  0  0  0  0  0  0  0  0  0  0
   59.3430   27.4550   47.3740 C   0  0  0  0  0  0  0  0  0  0  0  0
   62.9670   31.8180   48.6900 C   0  0  0  0  0  0  0  0  0  0  0  0
   67.1573   32.5808   51.6089 H   0  0  0  0  0  0  0  0  0  0  0  0
   67.6540   31.7645   50.0879 H   0  0  0  0  0  0  0  0  0  0  0  0
   67.3001   33.5256   50.0879 H   0  0  0  0  0  0  0  0  0  0  0  0
   65.4252   31.1740   50.0730 H   0  0  0  0  0  0  0  0  0  0  0  0
   64.9330   32.6268   51.0266 H   0  0  0  0  0  0  0  0  0  0  0  0
   64.2378   34.6520   47.2656 H   0  0  0  0  0  0  0  0  0  0  0  0
   62.0073   34.6259   46.1730 H   0  0  0  0  0  0  0  0  0  0  0  0
   58.8424   30.6119   46.1045 H   0  0  0  0  0  0  0  0  0  0  0  0
   55.1260   28.1410   44.4970 H   0  0  0  0  0  0  0  0  0  0  0  0
   55.4413   24.1011   47.3650 H   0  0  0  0  0  0  0  0  0  0  0  0
   54.7508   24.6775   45.8102 H   0  0  0  0  0  0  0  0  0  0  0  0
   56.1904   23.6032   45.8102 H   0  0  0  0  0  0  0  0  0  0  0  0
   60.0484   26.8692   47.9817 H   0  0  0  0  0  0  0  0  0  0  0  0
   63.2373   31.0346   49.4133 H   0  0  0  0  0  0  0  0  0  0  0  0
  1  2  1  0
  2  3  1  0
  3  4  1  0
  4  5  2  0
  5  6  1  0
  6  7  2  0
  7  8  1  0
  7  9  1  0
  9 10  1  0
 10 11  2  0
 10 12  1  0
 12 13  1  0
 13 14  2  0
 14 15  1  0
 15 16  1  0
 16 17  1  0
 16 18  2  0
 15 19  2  0
 19 20  1  0
 20 21  2  0
 21 22  1  0
 21 23  1  0
 23 24  1  0
 24 25  2  0
  9 26  2  0
 26  4  1  0
 25 13  1  0
 24 19  1  0
  1 27  1  0
  1 28  1  0
  1 29  1  0
  2 30  1  0
  2 31  1  0
  5 32  1  0
  6 33  1  0
 14 34  1  0
 17 35  1  0
 22 36  1  0
 22 37  1  0
 22 38  1  0
 25 39  1  0
 26 40  1  0
M  CHG  3  12  -1  17  -1  23  -1
M  END
>  <UniqueID>  (36) 
34

>  <SMILES>  (36) 
CCOc1ccc(Br)c(C(=O)[N-]c2cc(C([NH-])=O)c3nc(C)[n-]c3c2)c1

>  <Energy>  (36) 
82.71995328928755

>  <Genealogy>  (36) 
CCOc1ccc(Br)c(C(=O)[N-]c2cc(C([NH-])=O)c3nc(C)[n-]c3c2)c1 (protonated)
CCOc1ccc(Br)c(C(=O)[N-]c2cc(C([NH-])=O)c3nc(C)[n-]c3c2)c1 (3D coordinates assigned)
CCOc1ccc(Br)c(C(=O)[N-]c2cc(C([NH-])=O)c3nc(C)[n-]c3c2)c1 (optimized conformer: 82.71995328928755 kcal/mol)

>  <smiles>  (36) 
CCOc1ccc(Br)c(C(=O)Nc2cc(C(N)=O)c3nc(C)[nH]c3c2)c1

>  <score_type>  (36) 
oracle

>  <origin>  (36) 
adg

>  <m_score__min__energy>  (36) 
-13.550000000000001

>  <m_primary>  (36) 
energy

$$$$
36:0
     RDKit          3D

 50 53  0  0  1  0  0  0  0  0999 V2000
   55.9450   29.3750   42.8790 N   0  0  0  0  0  0  0  0  0  0  0  0
   56.6560   30.2770   43.7640 C   0  0  0  0  0  0  0  0  0  0  0  0
   56.3880   30.1030   44.9570 O   0  0  0  0  0  0  0  0  0  0  0  0
   57.5310   31.2020   43.1270 C   0  0  0  0  0  0  0  0  0  0  0  0
   57.7640   32.4420   43.4150 C   0  0  0  0  0  0  0  0  0  0  0  0
   58.3410   33.0090   44.5920 C   0  0  0  0  0  0  0  0  0  0  0  0
   58.9670   34.2020   44.7800 C   0  0  0  0  0  0  0  0  0  0  0  0
   59.6220   34.5630   45.9570 C   0  0  0  0  0  0  0  0  0  0  0  0
   59.6640   33.6980   47.0280 C   0  0  0  0  0  0  0  0  0  0  0  0
   59.0320   32.4840   46.8610 C   0  0  0  0  0  0  0  0  0  0  0  0
   57.4370   27.5240   46.6250 N   0  0  0  0  0  0  0  0  0  0  0  0
   58.3740   28.2350   47.1210 C   0  0  0  0  0  0  0  0  0  0  0  0
   60.3330   29.7380   48.1600 N   0  0  0  0  0  0  0  0  0  0  0  0
   60.5500   28.4140   48.0260 C   0  0  0  0  0  0  0  0  0  0  0  0
   59.5540   27.6230   47.4940 C   0  0  0  0  0  0  0  0  0  0  0  0
   59.1510   30.2890   47.7760 C   0  0  0  0  0  0  0  0  0  0  0  0
   59.0610   31.5740   47.9540 N   0  0  0  0  0  0  0  0  0  0  0  0
   57.5410   26.7760   45.4110 C   0  0  0  0  0  0  0  0  0  0  0  0
   57.9950   27.3760   44.2420 C   0  0  0  0  0  0  0  0  0  0  0  0
   58.1060   26.6780   43.0520 C   0  0  0  0  0  0  0  0  0  0  0  0
   57.7590   25.3380   43.0000 C   0  0  0  0  0  0  0  0  0  0  0  0
   57.3030   24.7170   44.1520 C   0  0  0  0  0  0  0  0  0  0  0  0
   56.8900   23.4130   44.4000 C   0  0  0  0  0  0  0  0  0  0  0  0
   56.8250   22.2920   43.4600 C   0  0  0  0  0  0  0  0  0  0  0  0
   57.8050   21.2710   43.5150 N   0  0  0  0  0  0  0  0  0  0  0  0
   55.8950   22.2290   42.5940 O   0  0  0  0  0  0  0  0  0  0  0  0
   56.5470   23.3830   45.7360 C   0  0  0  0  0  0  0  0  0  0  0  0
   56.7260   24.5820   46.3080 N   0  0  0  0  0  0  0  0  0  0  0  0
   57.1910   25.4250   45.3560 C   0  0  0  0  0  0  0  0  0  0  0  0
   58.1530   29.5550   47.2510 N   0  0  0  0  0  0  0  0  0  0  0  0
   58.3920   32.1380   45.7000 C   0  0  0  0  0  0  0  0  0  0  0  0
   55.1440   29.7610   42.3500 H   0  0  0  0  0  0  0  0  0  0  0  0
   56.3080   28.4060   42.8520 H   0  0  0  0  0  0  0  0  0  0  0  0
   58.0894   30.8056   42.2661 H   0  0  0  0  0  0  0  0  0  0  0  0
   57.4751   33.1660   42.6389 H   0  0  0  0  0  0  0  0  0  0  0  0
   58.9558   34.9267   43.9525 H   0  0  0  0  0  0  0  0  0  0  0  0
   60.1091   35.5465   46.0307 H   0  0  0  0  0  0  0  0  0  0  0  0
   60.1743   33.9615   47.9662 H   0  0  0  0  0  0  0  0  0  0  0  0
   61.1090   30.3090   48.5680 H   0  0  0  0  0  0  0  0  0  0  0  0
   61.5079   27.9714   48.3367 H   0  0  0  0  0  0  0  0  0  0  0  0
   59.6950   26.5391   47.3707 H   0  0  0  0  0  0  0  0  0  0  0  0
   58.2750   28.4396   44.2635 H   0  0  0  0  0  0  0  0  0  0  0  0
   58.4698   27.1874   42.1475 H   0  0  0  0  0  0  0  0  0  0  0  0
   57.8441   24.7753   42.0586 H   0  0  0  0  0  0  0  0  0  0  0  0
   58.7320   21.4220   43.0320 H   0  0  0  0  0  0  0  0  0  0  0  0
   57.6210   20.3700   44.0280 H   0  0  0  0  0  0  0  0  0  0  0  0
   56.1753   22.4918   46.2629 H   0  0  0  0  0  0  0  0  0  0  0  0
   56.5570   24.8800   47.3010 H   0  0  0  0  0  0  0  0  0  0  0  0
   57.2590   30.0140   46.9690 H   0  0  0  0  0  0  0  0  0  0  0  0
   57.9048   31.1543   45.6302 H   0  0  0  0  0  0  0  0  0  0  0  0
  1  2  1  0
  2  3  2  0
  2  4  1  0
  4  5  2  0
  5  6  1  0
  6  7  2  0
  7  8  1  0
  8  9  2  0
  9 10  1  0
 10 11  1  0
 11 12  2  0
 12 13  1  0
 13 14  1  0
 14 15  2  0
 15 16  1  0
 16 17  2  0
 17 18  1  0
 18 19  2  0
 19 20  1  0
 20 21  2  0
 21 22  1  0
 22 23  1  0
 23 24  1  0
 24 25  1  0
 24 26  2  0
 23 27  2  0
 27 28  1  0
 28 29  1  0
 16 30  1  0
 10 31  2  0
 31  6  1  0
 30 12  1  0
 29 18  1  0
 29 22  2  0
  1 32  1  0
  1 33  1  0
  4 34  1  0
  5 35  1  0
  7 36  1  0
  8 37  1  0
  9 38  1  0
 13 39  1  0
 14 40  1  0
 15 41  1  0
 19 42  1  0
 20 43  1  0
 21 44  1  0
 25 45  1  0
 25 46  1  0
 27 47  1  0
 28 48  1  0
 30 49  1  0
 31 50  1  0
M  END
>  <smiles>  (37) 
NC(=O)C=Cc1cccc(N=c2[nH]ccc(=Nc3cccc4c(C(N)=O)c[nH]c34)[nH]2)c1

>  <score_type>  (37) 
oracle

>  <origin>  (37) 
adg

>  <m_score__min__energy>  (37) 
-9.8800000000000008

>  <m_primary>  (37) 
energy

$$$$
37:0
     RDKit          3D

 47 49  0  0  0  0  0  0  0  0999 V2000
   58.2430   34.4650   44.9440 C   0  0  0  0  0  0  0  0  0  0  0  0
   58.0370   33.0050   44.6280 C   0  0  0  0  0  0  0  0  0  0  0  0
   57.6660   32.6420   43.3220 C   0  0  0  0  0  0  0  0  0  0  0  0
   57.4440   31.3050   42.9900 C   0  0  0  0  0  0  0  0  0  0  0  0
   57.5950   30.3120   43.9540 C   0  0  0  0  0  0  0  0  0  0  0  0
   57.9690   30.6410   45.2640 C   0  0  0  0  0  0  0  0  0  0  0  0
   58.1250   29.5820   46.2180 N   0  0  0  0  0  0  0  0  0  0  0  0
   59.3840   29.3070   46.8510 C   0  0  0  0  0  0  0  0  0  0  0  0
   60.4240   29.9220   46.4880 O   0  0  0  0  0  0  0  0  0  0  0  0
   59.4670   28.2200   47.8850 C   0  0  0  0  0  0  0  0  0  0  0  0
   60.0820   26.6380   47.2050 S   0  0  0  0  0  0  0  0  0  0  0  0
   58.4550   25.9310   46.9580 C   0  0  0  0  0  0  0  0  0  0  0  0
   58.2440   24.6120   47.2030 N   0  0  0  0  0  0  0  0  0  0  0  0
   57.0120   24.0600   47.0430 C   0  0  0  0  0  0  0  0  0  0  0  0
   56.8490   22.8410   47.3100 O   0  0  0  0  0  0  0  0  0  0  0  0
   55.9380   24.8570   46.6080 C   0  0  0  0  0  0  0  0  0  0  0  0
   54.6160   24.3280   46.4130 N   0  0  0  0  0  0  0  0  0  0  0  0
   54.2500   23.3340   45.4450 C   0  0  0  0  0  0  0  0  0  0  0  0
   53.0280   23.0710   45.2820 O   0  0  0  0  0  0  0  0  0  0  0  0
   55.2620   22.6510   44.6020 C   0  0  0  0  0  0  0  0  0  0  0  0
   55.8220   21.4270   45.0120 C   0  0  0  0  0  0  0  0  0  0  0  0
   56.7840   20.7880   44.2210 C   0  0  0  0  0  0  0  0  0  0  0  0
   57.1940   21.3600   43.0120 C   0  0  0  0  0  0  0  0  0  0  0  0
   56.6260   22.5640   42.5860 C   0  0  0  0  0  0  0  0  0  0  0  0
   55.6600   23.2030   43.3700 C   0  0  0  0  0  0  0  0  0  0  0  0
   56.1770   26.2170   46.3930 C   0  0  0  0  0  0  0  0  0  0  0  0
   55.1450   27.0570   45.9880 O   0  0  0  0  0  0  0  0  0  0  0  0
   57.4240   26.7250   46.5690 N   0  0  0  0  0  0  0  0  0  0  0  0
   58.1470   32.0010   45.6280 C   0  0  0  0  0  0  0  0  0  0  0  0
   58.4560   32.3790   47.0600 C   0  0  0  0  0  0  0  0  0  0  0  0
   58.2627   34.6048   46.0349 H   0  0  0  0  0  0  0  0  0  0  0  0
   59.1976   34.8021   44.5138 H   0  0  0  0  0  0  0  0  0  0  0  0
   57.4189   35.0531   44.5138 H   0  0  0  0  0  0  0  0  0  0  0  0
   57.5494   33.4201   42.5533 H   0  0  0  0  0  0  0  0  0  0  0  0
   57.1493   31.0352   41.9651 H   0  0  0  0  0  0  0  0  0  0  0  0
   57.4192   29.2599   43.6851 H   0  0  0  0  0  0  0  0  0  0  0  0
   57.3550   28.8760   46.3090 H   0  0  0  0  0  0  0  0  0  0  0  0
   60.1482   28.5471   48.6844 H   0  0  0  0  0  0  0  0  0  0  0  0
   58.4487   28.0441   48.2620 H   0  0  0  0  0  0  0  0  0  0  0  0
   55.5019   20.9695   45.9598 H   0  0  0  0  0  0  0  0  0  0  0  0
   57.2189   19.8331   44.5511 H   0  0  0  0  0  0  0  0  0  0  0  0
   57.9607   20.8640   42.3987 H   0  0  0  0  0  0  0  0  0  0  0  0
   56.9398   23.0105   41.6309 H   0  0  0  0  0  0  0  0  0  0  0  0
   55.2082   24.1434   43.0214 H   0  0  0  0  0  0  0  0  0  0  0  0
   57.9096   31.7106   47.7417 H   0  0  0  0  0  0  0  0  0  0  0  0
   59.5369   32.2822   47.2397 H   0  0  0  0  0  0  0  0  0  0  0  0
   58.1461   33.4190   47.2397 H   0  0  0  0  0  0  0  0  0  0  0  0
  1  2  1  0
  2  3  2  0
  3  4  1  0
  4  5  2  0
  5  6  1  0
  6  7  1  0
  7  8  1  0
  8  9  2  0
  8 10  1  0
 10 11  1  0
 11 12  1  0
 12 13  2  0
 13 14  1  0
 14 15  2  0
 14 16  1  0
 16 17  1  0
 17 18  1  0
 18 19  2  0
 18 20  1  0
 20 21  2  0
 21 22  1  0
 22 23  2  0
 23 24  1  0
 24 25  2  0
 16 26  2  0
 26 27  1  0
 26 28  1  0
  6 29  2  0
 29 30  1  0
 29  2  1  0
 28 12  1  0
 25 20  1  0
  1 31  1  0
  1 32  1  0
  1 33  1  0
  3 34  1  0
  4 35  1  0
  5 36  1  0
  7 37  1  0
 10 38  1  0
 10 39  1  0
 21 40  1  0
 22 41  1  0
 23 42  1  0
 24 43  1  0
 25 44  1  0
 30 45  1  0
 30 46  1  0
 30 47  1  0
M  CHG  3  17  -1  27  -1  28  -1
M  END
>  <UniqueID>  (38) 
35

>  <SMILES>  (38) 
Cc1cccc(NC(=O)CSc2nc(=O)c([N-]C(=O)c3ccccc3)c([O-])[n-]2)c1C

>  <Energy>  (38) 
60.431422099430385

>  <Genealogy>  (38) 
Cc1cccc(NC(=O)CSc2nc(=O)c([N-]C(=O)c3ccccc3)c([O-])[n-]2)c1C (protonated)
Cc1cccc(NC(=O)CSc2nc(=O)c([N-]C(=O)c3ccccc3)c([O-])[n-]2)c1C (3D coordinates assigned)
Cc1cccc(NC(=O)CSc2nc(=O)c([N-]C(=O)c3ccccc3)c([O-])[n-]2)c1C (optimized conformer: 60.431422099430385 kcal/mol)

>  <smiles>  (38) 
Cc1cccc(NC(=O)CSc2nc(=O)c(NC(=O)c3ccccc3)c(O)[nH]2)c1C

>  <score_type>  (38) 
oracle

>  <origin>  (38) 
adg

>  <m_score__min__energy>  (38) 
-15.949999999999999

>  <m_primary>  (38) 
energy

$$$$
38:0
     RDKit          3D

 58 61  0  0  0  0  0  0  0  0999 V2000
   59.3560   28.2580   49.0600 C   0  0  0  0  0  0  0  0  0  0  0  0
   59.7830   28.5120   47.6390 C   0  0  0  0  0  0  0  0  0  0  0  0
   60.3900   27.4670   46.9220 C   0  0  0  0  0  0  0  0  0  0  0  0
   60.8010   27.6580   45.6020 C   0  0  0  0  0  0  0  0  0  0  0  0
   60.6160   28.8950   44.9830 C   0  0  0  0  0  0  0  0  0  0  0  0
   60.0300   29.9480   45.6870 C   0  0  0  0  0  0  0  0  0  0  0  0
   59.6320   29.7770   47.0200 C   0  0  0  0  0  0  0  0  0  0  0  0
   58.8970   31.1780   47.8800 S   0  0  0  0  0  0  0  0  0  0  0  0
   58.8470   32.2260   46.4190 C   0  0  0  0  0  0  0  0  0  0  0  0
   59.6790   33.3500   46.3530 C   0  0  0  0  0  0  0  0  0  0  0  0
   59.6070   34.2180   45.2620 C   0  0  0  0  0  0  0  0  0  0  0  0
   58.6920   33.9740   44.2370 C   0  0  0  0  0  0  0  0  0  0  0  0
   57.8430   32.8670   44.3020 C   0  0  0  0  0  0  0  0  0  0  0  0
   57.9130   31.9830   45.3940 C   0  0  0  0  0  0  0  0  0  0  0  0
   57.0360   30.8550   45.4970 N   0  0  0  0  0  0  0  0  0  0  0  0
   56.4780   29.9060   44.1580 S   0  0  0  0  0  0  0  0  0  0  0  0
   56.3060   30.8090   42.9700 O   0  0  0  0  0  0  0  0  0  0  0  0
   55.1530   29.2770   44.4830 O   0  0  0  0  0  0  0  0  0  0  0  0
   57.6820   28.6470   43.7530 C   0  0  0  0  0  0  0  0  0  0  0  0
   57.5380   27.4710   44.6810 C   0  0  0  0  0  0  0  0  0  0  0  0
   58.0030   26.2050   44.2940 C   0  0  0  0  0  0  0  0  0  0  0  0
   57.9630   25.1320   45.1890 C   0  0  0  0  0  0  0  0  0  0  0  0
   57.4790   25.3150   46.4940 C   0  0  0  0  0  0  0  0  0  0  0  0
   57.4630   24.2050   47.4720 C   0  0  0  0  0  0  0  0  0  0  0  0
   57.5020   24.4770   48.7020 O   0  0  0  0  0  0  0  0  0  0  0  0
   57.4730   22.8260   47.0750 N   0  0  0  0  0  0  0  0  0  0  0  0
   56.3220   22.0670   46.5970 C   0  0  0  0  0  0  0  0  0  0  0  0
   56.3090   22.0700   45.0960 C   0  0  0  0  0  0  0  0  0  0  0  0
   55.5810   23.0470   44.3990 C   0  0  0  0  0  0  0  0  0  0  0  0
   55.5630   23.0250   43.0020 C   0  0  0  0  0  0  0  0  0  0  0  0
   56.2440   22.0610   42.3250 N   0  0  0  0  0  0  0  0  0  0  0  0
   56.9520   21.0980   42.9750 C   0  0  0  0  0  0  0  0  0  0  0  0
   56.9940   21.0810   44.3710 C   0  0  0  0  0  0  0  0  0  0  0  0
   56.9770   26.5720   46.8670 C   0  0  0  0  0  0  0  0  0  0  0  0
   57.0100   27.6430   45.9690 C   0  0  0  0  0  0  0  0  0  0  0  0
   60.0934   28.6966   49.7484 H   0  0  0  0  0  0  0  0  0  0  0  0
   58.3721   28.7178   49.2350 H   0  0  0  0  0  0  0  0  0  0  0  0
   59.2905   27.1740   49.2350 H   0  0  0  0  0  0  0  0  0  0  0  0
   60.5425   26.4905   47.4050 H   0  0  0  0  0  0  0  0  0  0  0  0
   61.2716   26.8320   45.0485 H   0  0  0  0  0  0  0  0  0  0  0  0
   60.9323   29.0402   43.9395 H   0  0  0  0  0  0  0  0  0  0  0  0
   59.8794   30.9189   45.1923 H   0  0  0  0  0  0  0  0  0  0  0  0
   60.3933   33.5503   47.1652 H   0  0  0  0  0  0  0  0  0  0  0  0
   60.2709   35.0935   45.2104 H   0  0  0  0  0  0  0  0  0  0  0  0
   58.6393   34.6556   43.3752 H   0  0  0  0  0  0  0  0  0  0  0  0
   57.1167   32.6856   43.4961 H   0  0  0  0  0  0  0  0  0  0  0  0
   57.5240   28.3134   42.7168 H   0  0  0  0  0  0  0  0  0  0  0  0
   58.6921   29.0685   43.8625 H   0  0  0  0  0  0  0  0  0  0  0  0
   58.4016   26.0559   43.2797 H   0  0  0  0  0  0  0  0  0  0  0  0
   58.3125   24.1393   44.8691 H   0  0  0  0  0  0  0  0  0  0  0  0
   56.3890   21.0311   46.9610 H   0  0  0  0  0  0  0  0  0  0  0  0
   55.3968   22.5285   46.9726 H   0  0  0  0  0  0  0  0  0  0  0  0
   55.0290   23.8239   44.9483 H   0  0  0  0  0  0  0  0  0  0  0  0
   54.9971   23.7887   42.4483 H   0  0  0  0  0  0  0  0  0  0  0  0
   57.4923   20.3315   42.4001 H   0  0  0  0  0  0  0  0  0  0  0  0
   57.5594   20.2988   44.8988 H   0  0  0  0  0  0  0  0  0  0  0  0
   56.5549   26.7151   47.8726 H   0  0  0  0  0  0  0  0  0  0  0  0
   56.6200   28.6253   46.2740 H   0  0  0  0  0  0  0  0  0  0  0  0
  1  2  1  0
  2  3  2  0
  3  4  1  0
  4  5  2  0
  5  6  1  0
  6  7  2  0
  7  8  1  0
  8  9  1  0
  9 10  2  0
 10 11  1  0
 11 12  2  0
 12 13  1  0
 13 14  2  0
 14 15  1  0
 15 16  1  0
 16 17  2  0
 16 18  2  0
 16 19  1  0
 19 20  1  0
 20 21  2  0
 21 22  1  0
 22 23  2  0
 23 24  1  0
 24 25  2  0
 24 26  1  0
 26 27  1  0
 27 28  1  0
 28 29  2  0
 29 30  1  0
 30 31  2  0
 31 32  1  0
 32 33  2  0
 23 34  1  0
 34 35  2  0
  7  2  1  0
 14  9  1  0
 35 20  1  0
 33 28  1  0
  1 36  1  0
  1 37  1  0
  1 38  1  0
  3 39  1  0
  4 40  1  0
  5 41  1  0
  6 42  1  0
 10 43  1  0
 11 44  1  0
 12 45  1  0
 13 46  1  0
 19 47  1  0
 19 48  1  0
 21 49  1  0
 22 50  1  0
 27 51  1  0
 27 52  1  0
 29 53  1  0
 30 54  1  0
 32 55  1  0
 33 56  1  0
 34 57  1  0
 35 58  1  0
M  CHG  2  15  -1  26  -1
M  END
>  <UniqueID>  (39) 
36

>  <SMILES>  (39) 
Cc1ccccc1Sc1ccccc1[N-]S(=O)(=O)Cc1ccc(C(=O)[N-]Cc2ccncc2)cc1

>  <Energy>  (39) 
59.02423738224016

>  <Genealogy>  (39) 
Cc1ccccc1Sc1ccccc1[N-]S(=O)(=O)Cc1ccc(C(=O)[N-]Cc2ccncc2)cc1 (protonated)
Cc1ccccc1Sc1ccccc1[N-]S(=O)(=O)Cc1ccc(C(=O)[N-]Cc2ccncc2)cc1 (3D coordinates assigned)
Cc1ccccc1Sc1ccccc1[N-]S(=O)(=O)Cc1ccc(C(=O)[N-]Cc2ccncc2)cc1 (optimized conformer: 59.02423738224016 kcal/mol)

>  <smiles>  (39) 
Cc1ccccc1Sc1ccccc1NS(=O)(=O)Cc1ccc(C(=O)NCc2ccncc2)cc1

>  <score_type>  (39) 
oracle

>  <origin>  (39) 
adg

>  <m_score__min__energy>  (39) 
-13.99

>  <m_primary>  (39) 
energy

$$$$
39:0
     RDKit          3D

 82 86  0  0  0  0  0  0  0  0999 V2000
   65.4120   31.8770   50.4960 C   0  0  0  0  0  0  0  0  0  0  0  0
   64.2240   31.4100   51.1350 O   0  0  0  0  0  0  0  0  0  0  0  0
   63.3840   32.2550   51.8640 C   0  0  0  0  0  0  0  0  0  0  0  0
   63.8340   32.9130   52.8440 O   0  0  0  0  0  0  0  0  0  0  0  0
   62.0020   32.3440   51.5000 N   0  0  0  0  0  0  0  0  0  0  0  0
   61.4950   33.2670   50.4900 C   0  0  2  0  0  0  0  0  0  0  0  0
   60.0230   33.0590   50.2930 C   0  0  0  0  0  0  0  0  0  0  0  0
   59.2590   34.0600   50.2470 O   0  0  0  0  0  0  0  0  0  0  0  0
   59.5000   31.7330   50.1520 N   0  0  0  0  0  0  0  0  0  0  0  0
   58.9330   30.7750   51.4780 S   0  0  0  0  0  0  0  0  0  0  0  0
   58.0510   31.6310   52.3420 O   0  0  0  0  0  0  0  0  0  0  0  0
   58.1210   29.6070   50.9890 O   0  0  0  0  0  0  0  0  0  0  0  0
   60.3120   30.1800   52.4100 C   0  0  0  0  0  0  0  0  0  0  0  0
   60.5900   30.7550   53.6580 C   0  0  0  0  0  0  0  0  0  0  0  0
   61.6530   30.2930   54.4340 C   0  0  0  0  0  0  0  0  0  0  0  0
   62.4730   29.2580   53.9680 C   0  0  0  0  0  0  0  0  0  0  0  0
   63.5740   28.7160   54.8330 C   0  0  0  0  0  0  0  0  0  0  0  0
   62.2150   28.6850   52.7180 C   0  0  0  0  0  0  0  0  0  0  0  0
   61.1420   29.1400   51.9320 C   0  0  0  0  0  0  0  0  0  0  0  0
   60.9250   28.4920   50.6290 C   0  0  0  0  0  0  0  0  0  0  0  0
   60.7120   29.2680   49.4850 C   0  0  0  0  0  0  0  0  0  0  0  0
   60.3510   28.6580   48.2820 C   0  0  0  0  0  0  0  0  0  0  0  0
   60.1610   27.2700   48.2170 C   0  0  0  0  0  0  0  0  0  0  0  0
   59.6700   26.6290   46.9470 C   0  0  0  0  0  0  0  0  0  0  0  0
   58.6910   27.5030   46.2860 N   0  0  0  0  0  0  0  0  0  0  0  0
   57.3470   27.3370   46.1590 C   0  0  0  0  0  0  0  0  0  0  0  0
   56.5150   26.2260   46.7590 C   0  0  0  0  0  0  0  0  0  0  0  0
   55.3570   26.0330   45.9990 O   0  0  0  0  0  0  0  0  0  0  0  0
   57.2540   25.0330   46.8110 O   0  0  0  0  0  0  0  0  0  0  0  0
   56.8530   28.4030   45.4290 C   0  0  0  0  0  0  0  0  0  0  0  0
   55.5220   28.6160   45.0860 O   0  0  0  0  0  0  0  0  0  0  0  0
   57.8670   29.2160   45.0820 N   0  0  0  0  0  0  0  0  0  0  0  0
   57.7900   30.4060   44.2840 C   0  0  0  0  0  0  0  0  0  0  0  0
   57.2320   30.3160   43.0000 C   0  0  0  0  0  0  0  0  0  0  0  0
   57.0630   31.4610   42.2220 C   0  0  0  0  0  0  0  0  0  0  0  0
   57.4450   32.7060   42.7190 C   0  0  0  0  0  0  0  0  0  0  0  0
   58.0100   32.8100   43.9910 C   0  0  0  0  0  0  0  0  0  0  0  0
   58.1960   31.6660   44.7950 C   0  0  0  0  0  0  0  0  0  0  0  0
   58.8510   31.7950   46.1280 C   0  0  0  0  0  0  0  0  0  0  0  0
   58.1110   32.3400   47.3160 C   0  0  0  0  0  0  0  0  0  0  0  0
   60.0720   31.5090   46.2680 O   0  0  0  0  0  0  0  0  0  0  0  0
   58.9690   28.6380   45.6000 C   0  0  0  0  0  0  0  0  0  0  0  0
   60.1330   29.1090   45.4660 O   0  0  0  0  0  0  0  0  0  0  0  0
   60.3920   26.4900   49.3620 C   0  0  0  0  0  0  0  0  0  0  0  0
   60.7690   27.1010   50.5620 C   0  0  0  0  0  0  0  0  0  0  0  0
   62.2420   33.0750   49.1930 C   0  0  0  0  0  0  0  0  0  0  0  0
   62.2870   31.8150   48.5680 C   0  0  0  0  0  0  0  0  0  0  0  0
   63.0080   31.6440   47.3800 C   0  0  0  0  0  0  0  0  0  0  0  0
   63.6860   32.7220   46.8070 C   0  0  0  0  0  0  0  0  0  0  0  0
   63.6500   33.9730   47.4220 C   0  0  0  0  0  0  0  0  0  0  0  0
   62.9300   34.1520   48.6070 C   0  0  0  0  0  0  0  0  0  0  0  0
   66.1492   32.1668   51.2593 H   0  0  0  0  0  0  0  0  0  0  0  0
   65.8297   31.0762   49.8682 H   0  0  0  0  0  0  0  0  0  0  0  0
   65.1725   32.7479   49.8682 H   0  0  0  0  0  0  0  0  0  0  0  0
   61.6549   34.2998   50.8333 H   0  0  0  0  0  0  0  0  0  0  0  0
   59.9632   31.5792   54.0292 H   0  0  0  0  0  0  0  0  0  0  0  0
   61.8483   30.7444   55.4179 H   0  0  0  0  0  0  0  0  0  0  0  0
   63.3068   28.8475   55.8919 H   0  0  0  0  0  0  0  0  0  0  0  0
   63.7142   27.6459   54.6204 H   0  0  0  0  0  0  0  0  0  0  0  0
   64.5076   29.2575   54.6204 H   0  0  0  0  0  0  0  0  0  0  0  0
   62.8568   27.8721   52.3474 H   0  0  0  0  0  0  0  0  0  0  0  0
   60.8291   30.3607   49.5331 H   0  0  0  0  0  0  0  0  0  0  0  0
   60.2146   29.2706   47.3786 H   0  0  0  0  0  0  0  0  0  0  0  0
   60.5217   26.4606   46.2716 H   0  0  0  0  0  0  0  0  0  0  0  0
   59.1898   25.6697   47.1902 H   0  0  0  0  0  0  0  0  0  0  0  0
   56.2334   26.5126   47.7830 H   0  0  0  0  0  0  0  0  0  0  0  0
   55.5100   26.4480   45.1110 H   0  0  0  0  0  0  0  0  0  0  0  0
   56.6630   24.3490   47.2270 H   0  0  0  0  0  0  0  0  0  0  0  0
   56.9259   29.3363   42.6045 H   0  0  0  0  0  0  0  0  0  0  0  0
   56.6277   31.3815   41.2149 H   0  0  0  0  0  0  0  0  0  0  0  0
   57.3008   33.6087   42.1072 H   0  0  0  0  0  0  0  0  0  0  0  0
   58.3140   33.7964   44.3713 H   0  0  0  0  0  0  0  0  0  0  0  0
   58.5908   31.9866   48.2406 H   0  0  0  0  0  0  0  0  0  0  0  0
   58.1327   33.4394   47.2887 H   0  0  0  0  0  0  0  0  0  0  0  0
   57.0675   31.9931   47.2887 H   0  0  0  0  0  0  0  0  0  0  0  0
   60.2762   25.3971   49.3147 H   0  0  0  0  0  0  0  0  0  0  0  0
   60.9439   26.4868   51.4576 H   0  0  0  0  0  0  0  0  0  0  0  0
   61.7543   30.9621   49.0140 H   0  0  0  0  0  0  0  0  0  0  0  0
   63.0405   30.6567   46.8961 H   0  0  0  0  0  0  0  0  0  0  0  0
   64.2479   32.5844   45.8714 H   0  0  0  0  0  0  0  0  0  0  0  0
   64.1892   34.8207   46.9739 H   0  0  0  0  0  0  0  0  0  0  0  0
   62.9016   35.1426   49.0843 H   0  0  0  0  0  0  0  0  0  0  0  0
  1  2  1  0
  2  3  1  0
  3  4  2  0
  3  5  1  0
  5  6  1  0
  6  7  1  0
  7  8  2  0
  7  9  1  0
  9 10  1  0
 10 11  2  0
 10 12  2  0
 10 13  1  0
 13 14  2  0
 14 15  1  0
 15 16  2  0
 16 17  1  0
 16 18  1  0
 18 19  2  0
 19 20  1  0
 20 21  2  0
 21 22  1  0
 22 23  2  0
 23 24  1  0
 24 25  1  0
 25 26  1  0
 26 27  1  0
 27 28  1  0
 27 29  1  0
 26 30  2  0
 30 31  1  0
 30 32  1  0
 32 33  1  0
 33 34  2  0
 34 35  1  0
 35 36  2  0
 36 37  1  0
 37 38  2  0
 38 39  1  0
 39 40  1  0
 39 41  2  0
 32 42  1  0
 42 43  2  0
 23 44  1  0
 44 45  2  0
  6 46  1  0
 46 47  2  0
 47 48  1  0
 48 49  2  0
 49 50  1  0
 50 51  2  0
 19 13  1  0
 45 20  1  0
 51 46  1  0
 42 25  1  0
 38 33  1  0
  1 52  1  0
  1 53  1  0
  1 54  1  0
  6 55  1  1
 14 56  1  0
 15 57  1  0
 17 58  1  0
 17 59  1  0
 17 60  1  0
 18 61  1  0
 21 62  1  0
 22 63  1  0
 24 64  1  0
 24 65  1  0
 27 66  1  0
 28 67  1  0
 29 68  1  0
 34 69  1  0
 35 70  1  0
 36 71  1  0
 37 72  1  0
 40 73  1  0
 40 74  1  0
 40 75  1  0
 44 76  1  0
 45 77  1  0
 47 78  1  0
 48 79  1  0
 49 80  1  0
 50 81  1  0
 51 82  1  0
M  CHG  3   5  -1   9  -1  31  -1
M  END
>  <UniqueID>  (40) 
37

>  <SMILES>  (40) 
COC(=O)[N-][C@H](C(=O)[N-]S(=O)(=O)c1ccc(C)cc1-c1ccc(Cn2c(C(O)O)c([O-])n(-c3ccccc3C(C)=O)c2=O)cc1)c1ccccc1

>  <Energy>  (40) 
137.578784419446

>  <Genealogy>  (40) 
COC(=O)[N-]C(C(=O)[N-]S(=O)(=O)c1ccc(C)cc1-c1ccc(Cn2c(C(O)O)c([O-])n(-c3ccccc3C(C)=O)c2=O)cc1)c1ccccc1 (protonated)
COC(=O)[N-][C@H](C(=O)[N-]S(=O)(=O)c1ccc(C)cc1-c1ccc(Cn2c(C(O)O)c([O-])n(-c3ccccc3C(C)=O)c2=O)cc1)c1ccccc1 (chirality)
COC(=O)[N-][C@H](C(=O)[N-]S(=O)(=O)c1ccc(C)cc1-c1ccc(Cn2c(C(O)O)c([O-])n(-c3ccccc3C(C)=O)c2=O)cc1)c1ccccc1 (3D coordinates assigned)
COC(=O)[N-][C@H](C(=O)[N-]S(=O)(=O)c1ccc(C)cc1-c1ccc(Cn2c(C(O)O)c([O-])n(-c3ccccc3C(C)=O)c2=O)cc1)c1ccccc1 (optimized conformer: 137.578784419446 kcal/mol)

>  <smiles>  (40) 
COC(=O)NC(C(=O)NS(=O)(=O)c1ccc(C)cc1-c1ccc(Cn2c(C(O)O)c(O)n(-c3ccccc3C(C)=O)c2=O)cc1)c1ccccc1

>  <score_type>  (40) 
oracle

>  <origin>  (40) 
adg

>  <m_score__min__energy>  (40) 
-17.02

>  <m_primary>  (40) 
energy

$$$$
40:0
     RDKit          3D

 58 61  0  0  1  0  0  0  0  0999 V2000
   59.6460   35.5560   45.9810 C   0  0  0  0  0  0  0  0  0  0  0  0
   59.6230   34.1010   46.2220 C   0  0  0  0  0  0  0  0  0  0  0  0
   60.3140   33.6120   47.2700 N   0  0  0  0  0  0  0  0  0  0  0  0
   60.3310   32.3000   47.5400 C   0  0  0  0  0  0  0  0  0  0  0  0
   60.9920   31.8110   48.5480 N   0  0  0  0  0  0  0  0  0  0  0  0
   60.5830   32.1240   49.8960 C   0  0  0  0  0  0  0  0  0  0  0  0
   60.8860   31.3280   50.8270 O   0  0  0  0  0  0  0  0  0  0  0  0
   59.8450   33.3270   50.1600 N   0  0  0  0  0  0  0  0  0  0  0  0
   59.4190   33.6790   51.4880 C   0  0  0  0  0  0  0  0  0  0  0  0
   58.3160   32.8180   51.9770 C   0  0  0  0  0  0  0  0  0  0  0  0
   57.5650   33.1250   52.9360 O   0  0  0  0  0  0  0  0  0  0  0  0
   58.1180   31.5770   51.3050 N   0  0  0  0  0  0  0  0  0  0  0  0
   57.0730   30.7320   51.7470 C   0  0  0  0  0  0  0  0  0  0  0  0
   55.7880   31.2100   51.9920 C   0  0  0  0  0  0  0  0  0  0  0  0
   55.0010   30.1430   52.4090 C   0  0  0  0  0  0  0  0  0  0  0  0
   55.8330   29.0840   52.3970 N   0  0  0  0  0  0  0  0  0  0  0  0
   57.0400   29.4290   52.0110 N   0  0  0  0  0  0  0  0  0  0  0  0
   59.6050   31.4500   46.6950 C   0  0  0  0  0  0  0  0  0  0  0  0
   58.8910   31.9270   45.6170 C   0  0  0  0  0  0  0  0  0  0  0  0
   58.1380   31.0380   44.7410 C   0  0  0  0  0  0  0  0  0  0  0  0
   57.3840   31.5350   43.6950 C   0  0  0  0  0  0  0  0  0  0  0  0
   56.6560   30.6900   42.8470 C   0  0  0  0  0  0  0  0  0  0  0  0
   56.6800   29.3350   43.0460 C   0  0  0  0  0  0  0  0  0  0  0  0
   57.4280   28.8060   44.0890 C   0  0  0  0  0  0  0  0  0  0  0  0
   57.4130   27.4070   44.2400 N   0  0  0  0  0  0  0  0  0  0  0  0
   57.3800   26.5130   45.6900 S   0  0  0  0  0  0  0  0  0  0  0  0
   57.5940   25.0400   45.3880 O   0  0  0  0  0  0  0  0  0  0  0  0
   55.9890   26.6120   46.3270 O   0  0  0  0  0  0  0  0  0  0  0  0
   58.5810   27.0940   46.8020 C   0  0  0  0  0  0  0  0  0  0  0  0
   58.2350   28.1820   47.5960 C   0  0  0  0  0  0  0  0  0  0  0  0
   59.0930   28.7200   48.5260 C   0  0  0  0  0  0  0  0  0  0  0  0
   60.3400   28.1800   48.6930 C   0  0  0  0  0  0  0  0  0  0  0  0
   60.6980   27.1040   47.9150 C   0  0  0  0  0  0  0  0  0  0  0  0
   59.8270   26.5750   46.9860 C   0  0  0  0  0  0  0  0  0  0  0  0
   60.2480   25.5400   46.2520 F   0  0  0  0  0  0  0  0  0  0  0  0
   58.1340   29.6720   44.9060 C   0  0  0  0  0  0  0  0  0  0  0  0
   58.9220   33.2540   45.4110 N   0  0  0  0  0  0  0  0  0  0  0  0
   59.6544   36.0871   46.9442 H   0  0  0  0  0  0  0  0  0  0  0  0
   60.5484   35.8188   45.4095 H   0  0  0  0  0  0  0  0  0  0  0  0
   58.7523   35.8472   45.4095 H   0  0  0  0  0  0  0  0  0  0  0  0
   59.6310   33.9460   49.3200 H   0  0  0  0  0  0  0  0  0  0  0  0
   60.2750   33.5780   52.1715 H   0  0  0  0  0  0  0  0  0  0  0  0
   59.0467   34.7136   51.4564 H   0  0  0  0  0  0  0  0  0  0  0  0
   58.7170   31.2770   50.5020 H   0  0  0  0  0  0  0  0  0  0  0  0
   55.4538   32.2515   51.8756 H   0  0  0  0  0  0  0  0  0  0  0  0
   53.9368   30.1597   52.6867 H   0  0  0  0  0  0  0  0  0  0  0  0
   55.5270   28.1200   52.6660 H   0  0  0  0  0  0  0  0  0  0  0  0
   59.6050   30.3690   46.8983 H   0  0  0  0  0  0  0  0  0  0  0  0
   57.3546   32.6212   43.5238 H   0  0  0  0  0  0  0  0  0  0  0  0
   56.0654   31.1146   42.0218 H   0  0  0  0  0  0  0  0  0  0  0  0
   56.1091   28.6690   42.3823 H   0  0  0  0  0  0  0  0  0  0  0  0
   57.4220   26.8530   43.3320 H   0  0  0  0  0  0  0  0  0  0  0  0
   57.2372   28.6291   47.4755 H   0  0  0  0  0  0  0  0  0  0  0  0
   58.7786   29.5813   49.1337 H   0  0  0  0  0  0  0  0  0  0  0  0
   61.0394   28.5972   49.4324 H   0  0  0  0  0  0  0  0  0  0  0  0
   61.6961   26.6577   48.0358 H   0  0  0  0  0  0  0  0  0  0  0  0
   58.7232   29.2454   45.7311 H   0  0  0  0  0  0  0  0  0  0  0  0
   58.4220   33.7280   44.6290 H   0  0  0  0  0  0  0  0  0  0  0  0
  1  2  1  0
  2  3  2  0
  3  4  1  0
  4  5  2  0
  5  6  1  0
  6  7  2  0
  6  8  1  0
  8  9  1  0
  9 10  1  0
 10 11  2  0
 10 12  1  0
 12 13  1  0
 13 14  1  0
 14 15  2  0
 15 16  1  0
 16 17  1  0
  4 18  1  0
 18 19  2  0
 19 20  1  0
 20 21  2  0
 21 22  1  0
 22 23  2  0
 23 24  1  0
 24 25  1  0
 25 26  1  0
 26 27  2  0
 26 28  2  0
 26 29  1  0
 29 30  2  0
 30 31  1  0
 31 32  2  0
 32 33  1  0
 33 34  2  0
 34 35  1  0
 24 36  2  0
 19 37  1  0
 37  2  1  0
 17 13  2  0
 36 20  1  0
 34 29  1  0
  1 38  1  0
  1 39  1  0
  1 40  1  0
  8 41  1  0
  9 42  1  0
  9 43  1  0
 12 44  1  0
 14 45  1  0
 15 46  1  0
 16 47  1  0
 18 48  1  0
 21 49  1  0
 22 50  1  0
 23 51  1  0
 25 52  1  0
 30 53  1  0
 31 54  1  0
 32 55  1  0
 33 56  1  0
 36 57  1  0
 37 58  1  0
M  END
>  <smiles>  (41) 
Cc1nc(=NC(=O)NCC(=O)Nc2cc[nH]n2)cc(-c2cccc(NS(=O)(=O)c3ccccc3F)c2)[nH]1

>  <score_type>  (41) 
oracle

>  <origin>  (41) 
adg

>  <m_score__min__energy>  (41) 
-10.630000000000001

>  <m_primary>  (41) 
energy

$$$$
41:0
     RDKit          3D

 48 51  0  0  0  0  0  0  0  0999 V2000
   56.9148   22.0039   44.9189 H   0  0  0  0  0  0  0  0  0  0  0  0
   56.4590   22.9860   45.1130 C   0  0  0  0  0  0  0  0  0  0  0  0
   57.2160   24.1120   45.0420 N   0  0  0  0  0  0  0  0  0  0  0  0
   56.7090   25.3560   45.2700 C   0  0  0  0  0  0  0  0  0  0  0  0
   57.5250   26.3700   45.1660 N   0  0  0  0  0  0  0  0  0  0  0  0
   57.5510   27.5860   45.9260 C   0  0  0  0  0  0  0  0  0  0  0  0
   57.5040   27.5380   47.1850 O   0  0  0  0  0  0  0  0  0  0  0  0
   57.5110   28.8970   45.2340 C   0  0  0  0  0  0  0  0  0  0  0  0
   56.8700   29.0270   43.9890 C   0  0  0  0  0  0  0  0  0  0  0  0
   56.3815   28.1539   43.5316 H   0  0  0  0  0  0  0  0  0  0  0  0
   56.8500   30.2580   43.3300 C   0  0  0  0  0  0  0  0  0  0  0  0
   56.3529   30.3482   42.3529 H   0  0  0  0  0  0  0  0  0  0  0  0
   57.4580   31.3740   43.9060 C   0  0  0  0  0  0  0  0  0  0  0  0
   57.4466   32.3379   43.3761 H   0  0  0  0  0  0  0  0  0  0  0  0
   58.0840   31.2730   45.1580 C   0  0  0  0  0  0  0  0  0  0  0  0
   58.7230   32.4700   45.7510 C   0  0  0  0  0  0  0  0  0  0  0  0
   59.9350   32.4400   46.3340 N   0  0  0  0  0  0  0  0  0  0  0  0
   60.1520   33.7170   46.7160 C   0  0  0  0  0  0  0  0  0  0  0  0
   61.4370   34.1610   47.3700 C   0  0  0  0  0  0  0  0  0  0  0  0
   61.4068   35.2579   47.4466 H   0  0  0  0  0  0  0  0  0  0  0  0
   62.6860   33.8270   46.5130 C   0  0  0  0  0  0  0  0  0  0  0  0
   62.3509   33.4888   45.5214 H   0  0  0  0  0  0  0  0  0  0  0  0
   63.2964   34.7399   46.4499 H   0  0  0  0  0  0  0  0  0  0  0  0
   63.5640   32.7270   47.1360 C   0  0  0  0  0  0  0  0  0  0  0  0
   64.2307   32.3192   46.3619 H   0  0  0  0  0  0  0  0  0  0  0  0
   64.1466   33.1708   47.9567 H   0  0  0  0  0  0  0  0  0  0  0  0
   62.7460   31.6390   47.6840 N   0  0  0  0  0  0  0  0  0  0  0  0
   62.1640   31.2370   46.9130 H   0  0  0  0  0  0  0  0  0  0  0  0
   61.8680   32.0730   48.7900 C   0  0  0  0  0  0  0  0  0  0  0  0
   60.9206   31.5190   48.7154 H   0  0  0  0  0  0  0  0  0  0  0  0
   62.4119   31.8663   49.7235 H   0  0  0  0  0  0  0  0  0  0  0  0
   61.5460   33.5840   48.7910 C   0  0  0  0  0  0  0  0  0  0  0  0
   60.5891   33.7409   49.3104 H   0  0  0  0  0  0  0  0  0  0  0  0
   62.3712   34.1024   49.3011 H   0  0  0  0  0  0  0  0  0  0  0  0
   59.1540   34.5600   46.3760 N   0  0  0  0  0  0  0  0  0  0  0  0
   58.2530   33.7730   45.7650 C   0  0  0  0  0  0  0  0  0  0  0  0
   56.9820   34.2960   45.1770 C   0  0  0  0  0  0  0  0  0  0  0  0
   56.2930   34.5795   45.9863 H   0  0  0  0  0  0  0  0  0  0  0  0
   57.2006   35.1772   44.5560 H   0  0  0  0  0  0  0  0  0  0  0  0
   56.5171   33.5161   44.5560 H   0  0  0  0  0  0  0  0  0  0  0  0
   58.1220   30.0270   45.8080 C   0  0  0  0  0  0  0  0  0  0  0  0
   58.6353   29.9345   46.7765 H   0  0  0  0  0  0  0  0  0  0  0  0
   55.3430   25.4760   45.6400 C   0  0  0  0  0  0  0  0  0  0  0  0
   54.7690   26.6900   45.9970 O   0  0  0  0  0  0  0  0  0  0  0  0
   54.5500   24.3250   45.6990 C   0  0  0  0  0  0  0  0  0  0  0  0
   53.4840   24.4074   45.9574 H   0  0  0  0  0  0  0  0  0  0  0  0
   55.1040   23.0750   45.4320 C   0  0  0  0  0  0  0  0  0  0  0  0
   54.4807   22.1695   45.4722 H   0  0  0  0  0  0  0  0  0  0  0  0
  1  2  1  0
  2  3  1  0
  3  4  1  0
  4  5  2  0
  5  6  1  0
  6  7  2  0
  6  8  1  0
  8  9  2  0
  9 10  1  0
  9 11  1  0
 11 12  1  0
 11 13  2  0
 13 14  1  0
 13 15  1  0
 15 16  1  0
 16 17  1  0
 17 18  1  0
 18 19  1  0
 19 20  1  0
 19 21  1  0
 21 22  1  0
 21 23  1  0
 21 24  1  0
 24 25  1  0
 24 26  1  0
 24 27  1  0
 27 28  1  0
 27 29  1  0
 29 30  1  0
 29 31  1  0
 29 32  1  0
 32 33  1  0
 32 34  1  0
 18 35  2  0
 35 36  1  0
 36 37  1  0
 37 38  1  0
 37 39  1  0
 37 40  1  0
 15 41  2  0
 41 42  1  0
  4 43  1  0
 43 44  1  0
 43 45  2  0
 45 46  1  0
 45 47  1  0
 47 48  1  0
 47  2  2  0
 41  8  1  0
 36 16  2  0
 32 19  1  0
M  CHG  3   3  -1  17  -1  44  -1
M  END
>  <UniqueID>  (42) 
38

>  <SMILES>  (42) 
Cc1nc(C2CCNCC2)[n-]c1-c1cccc(C(=O)/N=c2/[n-]cccc2[O-])c1

>  <Energy>  (42) 
101.54297621954666

>  <Genealogy>  (42) 
Cc1nc(C2CCNCC2)[n-]c1-c1cccc(C(=O)N=c2[n-]cccc2[O-])c1 (protonated)
Cc1nc(C2CCNCC2)[n-]c1-c1cccc(C(=O)/N=c2/[n-]cccc2[O-])c1 (cis-trans isomerization)
Cc1nc(C2CCNCC2)[n-]c1-c1cccc(C(=O)/N=c2/[n-]cccc2[O-])c1 (3D coordinates assigned)
Cc1nc(C2CCNCC2)[n-]c1-c1cccc(C(=O)/N=c2/[n-]cccc2[O-])c1 (nonaromatic ring conformer: 101.54297621954666 kcal/mol)

>  <smiles>  (42) 
Cc1nc(C2CCNCC2)[nH]c1-c1cccc(C(=O)N=c2[nH]cccc2O)c1

>  <score_type>  (42) 
oracle

>  <origin>  (42) 
adg

>  <m_score__min__energy>  (42) 
-15.57

>  <m_primary>  (42) 
energy

$$$$
42:0
     RDKit          3D

 46 48  0  0  0  0  0  0  0  0999 V2000
   59.9910   20.8790   45.2560 H   0  0  0  0  0  0  0  0  0  0  0  0
   59.9150   21.8490   45.5380 O   0  0  0  0  0  0  0  0  0  0  0  0
   58.7110   22.5310   45.4020 C   0  0  0  0  0  0  0  0  0  0  0  0
   58.1220   23.2240   46.3990 N   0  0  0  0  0  0  0  0  0  0  0  0
   57.0030   23.7080   45.8130 C   0  0  0  0  0  0  0  0  0  0  0  0
   56.1300   24.4610   46.4190 N   0  0  0  0  0  0  0  0  0  0  0  0
   55.9360   25.8710   46.2220 C   0  0  0  0  0  0  0  0  0  0  0  0
   54.7820   26.3320   45.9940 O   0  0  0  0  0  0  0  0  0  0  0  0
   57.0860   26.8010   46.3300 C   0  0  0  0  0  0  0  0  0  0  0  0
   58.2120   26.4130   47.0800 C   0  0  0  0  0  0  0  0  0  0  0  0
   58.2031   25.4541   47.6188 H   0  0  0  0  0  0  0  0  0  0  0  0
   59.3390   27.2320   47.1470 C   0  0  0  0  0  0  0  0  0  0  0  0
   60.2153   26.9142   47.7311 H   0  0  0  0  0  0  0  0  0  0  0  0
   59.3560   28.4520   46.4750 C   0  0  0  0  0  0  0  0  0  0  0  0
   60.2495   29.0919   46.5215 H   0  0  0  0  0  0  0  0  0  0  0  0
   58.2420   28.8640   45.7430 C   0  0  0  0  0  0  0  0  0  0  0  0
   58.2605   29.8322   45.2212 H   0  0  0  0  0  0  0  0  0  0  0  0
   57.0930   28.0510   45.6660 C   0  0  0  0  0  0  0  0  0  0  0  0
   55.9480   28.4660   44.9600 O   0  0  0  0  0  0  0  0  0  0  0  0
   55.6010   29.8210   44.6730 C   0  0  0  0  0  0  0  0  0  0  0  0
   54.5869   29.8570   44.2485 H   0  0  0  0  0  0  0  0  0  0  0  0
   55.6332   30.4104   45.6012 H   0  0  0  0  0  0  0  0  0  0  0  0
   56.5710   30.3900   43.6910 C   0  0  0  0  0  0  0  0  0  0  0  0
   56.5650   29.9950   42.4930 O   0  0  0  0  0  0  0  0  0  0  0  0
   57.4480   31.4410   44.1040 N   0  0  0  0  0  0  0  0  0  0  0  0
   57.0070   32.5640   44.9190 C   0  0  0  0  0  0  0  0  0  0  0  0
   56.5566   33.3324   44.2734 H   0  0  0  0  0  0  0  0  0  0  0  0
   56.2604   32.2191   45.6495 H   0  0  0  0  0  0  0  0  0  0  0  0
   58.1900   33.1460   45.6430 C   0  0  0  0  0  0  0  0  0  0  0  0
   58.5830   34.4720   45.3930 C   0  0  0  0  0  0  0  0  0  0  0  0
   57.9891   35.1007   44.7133 H   0  0  0  0  0  0  0  0  0  0  0  0
   59.7260   34.9950   46.0050 C   0  0  0  0  0  0  0  0  0  0  0  0
   60.0245   36.0361   45.8129 H   0  0  0  0  0  0  0  0  0  0  0  0
   60.4900   34.1960   46.8610 C   0  0  0  0  0  0  0  0  0  0  0  0
   61.3871   34.6097   47.3448 H   0  0  0  0  0  0  0  0  0  0  0  0
   60.1140   32.8720   47.1020 C   0  0  0  0  0  0  0  0  0  0  0  0
   60.7185   32.2425   47.7716 H   0  0  0  0  0  0  0  0  0  0  0  0
   58.9700   32.3460   46.4930 C   0  0  0  0  0  0  0  0  0  0  0  0
   58.6804   31.3016   46.6808 H   0  0  0  0  0  0  0  0  0  0  0  0
   56.8780   23.3390   44.5200 N   0  0  0  0  0  0  0  0  0  0  0  0
   55.8340   23.7340   43.5790 C   0  0  0  0  0  0  0  0  0  0  0  0
   54.9466   24.0697   44.1356 H   0  0  0  0  0  0  0  0  0  0  0  0
   56.2022   24.5550   42.9462 H   0  0  0  0  0  0  0  0  0  0  0  0
   55.5666   22.8749   42.9462 H   0  0  0  0  0  0  0  0  0  0  0  0
   57.9650   22.6000   44.2490 C   0  0  0  0  0  0  0  0  0  0  0  0
   58.2132   22.1355   43.2833 H   0  0  0  0  0  0  0  0  0  0  0  0
  1  2  1  0
  2  3  1  0
  3  4  1  0
  4  5  1  0
  5  6  2  0
  6  7  1  0
  7  8  2  0
  7  9  1  0
  9 10  2  0
 10 11  1  0
 10 12  1  0
 12 13  1  0
 12 14  2  0
 14 15  1  0
 14 16  1  0
 16 17  1  0
 16 18  2  0
 18 19  1  0
 19 20  1  0
 20 21  1  0
 20 22  1  0
 20 23  1  0
 23 24  2  0
 23 25  1  0
 25 26  1  0
 26 27  1  0
 26 28  1  0
 26 29  1  0
 29 30  2  0
 30 31  1  0
 30 32  1  0
 32 33  1  0
 32 34  2  0
 34 35  1  0
 34 36  1  0
 36 37  1  0
 36 38  2  0
 38 39  1  0
  5 40  1  0
 40 41  1  0
 41 42  1  0
 41 43  1  0
 41 44  1  0
 40 45  1  0
 45 46  1  0
 45  3  2  0
 18  9  1  0
 38 29  1  0
M  CHG  2   4  -1  25  -1
M  END
>  <UniqueID>  (43) 
39

>  <SMILES>  (43) 
Cn1cc(O)[n-]/c1=N\C(=O)c1ccccc1OCC(=O)[N-]Cc1ccccc1

>  <Energy>  (43) 
73.86628711508273

>  <Genealogy>  (43) 
Cn1cc(O)[n-]c1=NC(=O)c1ccccc1OCC(=O)[N-]Cc1ccccc1 (protonated)
Cn1cc(O)[n-]/c1=N\C(=O)c1ccccc1OCC(=O)[N-]Cc1ccccc1 (cis-trans isomerization)
Cn1cc(O)[n-]/c1=N\C(=O)c1ccccc1OCC(=O)[N-]Cc1ccccc1 (3D coordinates assigned)
Cn1cc(O)[n-]/c1=N\C(=O)c1ccccc1OCC(=O)[N-]Cc1ccccc1 (optimized conformer: 73.86628711508273 kcal/mol)

>  <smiles>  (43) 
Cn1cc(O)[nH]c1=NC(=O)c1ccccc1OCC(=O)NCc1ccccc1

>  <score_type>  (43) 
oracle

>  <origin>  (43) 
adg

>  <m_score__min__energy>  (43) 
-12.880000000000001

>  <m_primary>  (43) 
energy

$$$$
43:0
     RDKit          3D

 56 59  0  0  0  0  0  0  0  0999 V2000
   55.1320   26.7110   46.0040 N   0  0  0  0  0  0  0  0  0  0  0  0
   55.4810   25.3270   45.9890 C   0  0  0  0  0  0  0  0  0  0  0  0
   54.5650   24.4620   46.0580 O   0  0  0  0  0  0  0  0  0  0  0  0
   56.9000   24.9110   45.8850 C   0  0  0  0  0  0  0  0  0  0  0  0
   57.2460   23.6990   45.2610 C   0  0  0  0  0  0  0  0  0  0  0  0
   58.5820   23.3040   45.1740 C   0  0  0  0  0  0  0  0  0  0  0  0
   59.5900   24.1100   45.7060 C   0  0  0  0  0  0  0  0  0  0  0  0
   59.2700   25.3310   46.3280 C   0  0  0  0  0  0  0  0  0  0  0  0
   60.2880   26.1740   46.8990 N   0  0  0  0  0  0  0  0  0  0  0  0
   60.0150   27.4630   47.4670 C   0  0  0  0  0  0  0  0  0  0  0  0
   60.2790   27.6710   48.8290 C   0  0  0  0  0  0  0  0  0  0  0  0
   60.0090   28.9030   49.4240 C   0  0  0  0  0  0  0  0  0  0  0  0
   59.4650   29.9390   48.6660 C   0  0  0  0  0  0  0  0  0  0  0  0
   59.1950   29.7480   47.3090 C   0  0  0  0  0  0  0  0  0  0  0  0
   59.4660   28.5130   46.6870 C   0  0  0  0  0  0  0  0  0  0  0  0
   59.1360   28.3450   45.2480 C   0  0  0  0  0  0  0  0  0  0  0  0
   60.0420   28.3880   44.3710 O   0  0  0  0  0  0  0  0  0  0  0  0
   57.7790   28.1170   44.8480 N   0  0  0  0  0  0  0  0  0  0  0  0
   57.1030   28.8820   43.8040 C   0  0  0  0  0  0  0  0  0  0  0  0
   56.1630   29.8830   44.4030 C   0  0  0  0  0  0  0  0  0  0  0  0
   55.2310   29.4980   45.1620 O   0  0  0  0  0  0  0  0  0  0  0  0
   56.4260   31.2810   44.2160 N   0  0  0  0  0  0  0  0  0  0  0  0
   57.2200   32.0510   44.9080 C   0  0  0  0  0  0  0  0  0  0  0  0
   58.6230   31.8940   44.9200 C   0  0  0  0  0  0  0  0  0  0  0  0
   59.4040   32.7430   45.7080 C   0  0  0  0  0  0  0  0  0  0  0  0
   58.7950   33.7310   46.4830 C   0  0  0  0  0  0  0  0  0  0  0  0
   59.7850   34.8170   47.5110 S   0  0  0  0  0  0  0  0  0  0  0  0
   61.1670   33.6740   47.5560 C   0  0  0  0  0  0  0  0  0  0  0  0
   61.1480   32.5840   48.4380 C   0  0  0  0  0  0  0  0  0  0  0  0
   62.2290   31.6960   48.4770 C   0  0  0  0  0  0  0  0  0  0  0  0
   63.3320   31.8980   47.6400 C   0  0  0  0  0  0  0  0  0  0  0  0
   63.3500   32.9830   46.7560 C   0  0  0  0  0  0  0  0  0  0  0  0
   62.2730   33.8770   46.7200 C   0  0  0  0  0  0  0  0  0  0  0  0
   57.4030   33.8550   46.4570 C   0  0  0  0  0  0  0  0  0  0  0  0
   56.6610   33.0190   45.6850 N   0  0  0  0  0  0  0  0  0  0  0  0
   57.9230   25.7200   46.4170 C   0  0  0  0  0  0  0  0  0  0  0  0
   55.5650   27.3860   45.3320 H   0  0  0  0  0  0  0  0  0  0  0  0
   56.4583   23.0579   44.8386 H   0  0  0  0  0  0  0  0  0  0  0  0
   58.8416   22.3538   44.6843 H   0  0  0  0  0  0  0  0  0  0  0  0
   60.6399   23.7890   45.6386 H   0  0  0  0  0  0  0  0  0  0  0  0
   61.2720   25.8260   46.9430 H   0  0  0  0  0  0  0  0  0  0  0  0
   60.7027   26.8551   49.4330 H   0  0  0  0  0  0  0  0  0  0  0  0
   60.2252   29.0574   50.4914 H   0  0  0  0  0  0  0  0  0  0  0  0
   59.2480   30.9088   49.1376 H   0  0  0  0  0  0  0  0  0  0  0  0
   58.7658   30.5712   46.7190 H   0  0  0  0  0  0  0  0  0  0  0  0
   57.8551   29.4101   43.1994 H   0  0  0  0  0  0  0  0  0  0  0  0
   56.5257   28.1878   43.1756 H   0  0  0  0  0  0  0  0  0  0  0  0
   59.0978   31.1088   44.3133 H   0  0  0  0  0  0  0  0  0  0  0  0
   60.4984   32.6328   45.7176 H   0  0  0  0  0  0  0  0  0  0  0  0
   60.2832   32.4269   49.0994 H   0  0  0  0  0  0  0  0  0  0  0  0
   62.2116   30.8387   49.1660 H   0  0  0  0  0  0  0  0  0  0  0  0
   64.1848   31.2042   47.6768 H   0  0  0  0  0  0  0  0  0  0  0  0
   64.2114   33.1336   46.0887 H   0  0  0  0  0  0  0  0  0  0  0  0
   62.2951   34.7381   46.0359 H   0  0  0  0  0  0  0  0  0  0  0  0
   56.9084   34.6295   47.0616 H   0  0  0  0  0  0  0  0  0  0  0  0
   57.6637   26.6692   46.9088 H   0  0  0  0  0  0  0  0  0  0  0  0
  1  2  1  0
  2  3  2  0
  2  4  1  0
  4  5  2  0
  5  6  1  0
  6  7  2  0
  7  8  1  0
  8  9  1  0
  9 10  1  0
 10 11  2  0
 11 12  1  0
 12 13  2  0
 13 14  1  0
 14 15  2  0
 15 16  1  0
 16 17  2  0
 16 18  1  0
 18 19  1  0
 19 20  1  0
 20 21  2  0
 20 22  1  0
 22 23  2  3
 23 24  1  0
 24 25  2  0
 25 26  1  0
 26 27  1  0
 27 28  1  0
 28 29  2  0
 29 30  1  0
 30 31  2  0
 31 32  1  0
 32 33  2  0
 26 34  2  0
 34 35  1  0
  8 36  2  0
 36  4  1  0
 15 10  1  0
 35 23  1  0
 33 28  1  0
  1 37  1  0
  5 38  1  0
  6 39  1  0
  7 40  1  0
  9 41  1  0
 11 42  1  0
 12 43  1  0
 13 44  1  0
 14 45  1  0
 19 46  1  0
 19 47  1  0
 24 48  1  0
 25 49  1  0
 29 50  1  0
 30 51  1  0
 31 52  1  0
 32 53  1  0
 33 54  1  0
 34 55  1  0
 36 56  1  0
M  CHG  3   1  -1  18  -1  35  -1
M  END
>  <UniqueID>  (44) 
40

>  <SMILES>  (44) 
[NH-]C(=O)c1cccc(Nc2ccccc2C(=O)[N-]CC(=O)N=c2ccc(Sc3ccccc3)c[n-]2)c1

>  <Energy>  (44) 
73.8305294310625

>  <Genealogy>  (44) 
[NH-]C(=O)c1cccc(Nc2ccccc2C(=O)[N-]CC(=O)N=c2ccc(Sc3ccccc3)c[n-]2)c1 (protonated)
[NH-]C(=O)c1cccc(Nc2ccccc2C(=O)[N-]CC(=O)N=c2ccc(Sc3ccccc3)c[n-]2)c1 (3D coordinates assigned)
[NH-]C(=O)c1cccc(Nc2ccccc2C(=O)[N-]CC(=O)N=c2ccc(Sc3ccccc3)c[n-]2)c1 (optimized conformer: 73.8305294310625 kcal/mol)

>  <smiles>  (44) 
NC(=O)c1cccc(Nc2ccccc2C(=O)NCC(=O)N=c2ccc(Sc3ccccc3)c[nH]2)c1

>  <score_type>  (44) 
oracle

>  <origin>  (44) 
adg

>  <m_score__min__energy>  (44) 
-16.079999999999998

>  <m_primary>  (44) 
energy

$$$$
44:0
     RDKit          3D

 55 58  0  0  0  0  0  0  0  0999 V2000
   56.0798   19.8796   45.6588 H   0  0  0  0  0  0  0  0  0  0  0  0
   56.2760   20.8290   45.1390 C   0  0  0  0  0  0  0  0  0  0  0  0
   55.2910   21.7540   45.0210 N   0  0  0  0  0  0  0  0  0  0  0  0
   55.4660   22.9520   44.3950 C   0  0  0  0  0  0  0  0  0  0  0  0
   54.4140   23.7220   44.3040 N   0  0  0  0  0  0  0  0  0  0  0  0
   53.8080   24.5880   45.2720 C   0  0  0  0  0  0  0  0  0  0  0  0
   52.6530   24.3360   45.7020 O   0  0  0  0  0  0  0  0  0  0  0  0
   54.4990   25.7450   45.7700 N   0  0  0  0  0  0  0  0  0  0  0  0
   55.7390   25.8610   46.1590 C   0  0  0  0  0  0  0  0  0  0  0  0
   56.1850   25.0220   47.1330 N   0  0  0  0  0  0  0  0  0  0  0  0
   57.4580   25.0650   47.6060 C   0  0  0  0  0  0  0  0  0  0  0  0
   57.7720   24.3729   48.4012 H   0  0  0  0  0  0  0  0  0  0  0  0
   58.3670   25.9850   47.0850 C   0  0  0  0  0  0  0  0  0  0  0  0
   59.3926   26.0367   47.4794 H   0  0  0  0  0  0  0  0  0  0  0  0
   57.9610   26.8440   46.0530 C   0  0  0  0  0  0  0  0  0  0  0  0
   58.8300   27.7930   45.4940 O   0  0  0  0  0  0  0  0  0  0  0  0
   58.5700   29.1680   45.3810 C   0  0  0  0  0  0  0  0  0  0  0  0
   59.4280   30.0670   46.0240 C   0  0  0  0  0  0  0  0  0  0  0  0
   60.2908   29.6881   46.5915 H   0  0  0  0  0  0  0  0  0  0  0  0
   59.1960   31.4430   45.9500 C   0  0  0  0  0  0  0  0  0  0  0  0
   59.8757   32.1415   46.4600 H   0  0  0  0  0  0  0  0  0  0  0  0
   58.0970   31.9380   45.2260 C   0  0  0  0  0  0  0  0  0  0  0  0
   57.8110   33.3420   45.1430 N   0  0  0  0  0  0  0  0  0  0  0  0
   58.6120   34.4100   45.6690 C   0  0  0  0  0  0  0  0  0  0  0  0
   59.1270   35.2610   44.8960 O   0  0  0  0  0  0  0  0  0  0  0  0
   58.8890   34.4970   47.0730 N   0  0  0  0  0  0  0  0  0  0  0  0
   60.0150   34.2690   47.6930 C   0  0  0  0  0  0  0  0  0  0  0  0
   61.1260   33.8870   46.9300 C   0  0  0  0  0  0  0  0  0  0  0  0
   61.0359   33.7903   45.8380 H   0  0  0  0  0  0  0  0  0  0  0  0
   62.3520   33.6280   47.5570 C   0  0  0  0  0  0  0  0  0  0  0  0
   63.5540   33.2510   46.7440 C   0  0  0  0  0  0  0  0  0  0  0  0
   64.3845   32.9905   47.4166 H   0  0  0  0  0  0  0  0  0  0  0  0
   63.3109   32.3860   46.1095 H   0  0  0  0  0  0  0  0  0  0  0  0
   63.8485   34.0999   46.1095 H   0  0  0  0  0  0  0  0  0  0  0  0
   62.4590   33.7990   48.9410 C   0  0  0  0  0  0  0  0  0  0  0  0
   63.4172   33.6162   49.4493 H   0  0  0  0  0  0  0  0  0  0  0  0
   61.3420   34.2030   49.6720 C   0  0  0  0  0  0  0  0  0  0  0  0
   61.4206   34.3343   50.7613 H   0  0  0  0  0  0  0  0  0  0  0  0
   60.1550   34.4360   49.0470 N   0  0  0  0  0  0  0  0  0  0  0  0
   59.3770   34.7970   49.6380 H   0  0  0  0  0  0  0  0  0  0  0  0
   57.2160   31.0360   44.6190 C   0  0  0  0  0  0  0  0  0  0  0  0
   56.3336   31.4129   44.0812 H   0  0  0  0  0  0  0  0  0  0  0  0
   57.4490   29.6590   44.6910 C   0  0  0  0  0  0  0  0  0  0  0  0
   56.7529   28.9586   44.2063 H   0  0  0  0  0  0  0  0  0  0  0  0
   56.6410   26.7880   45.5940 C   0  0  0  0  0  0  0  0  0  0  0  0
   56.3065   27.4651   44.7942 H   0  0  0  0  0  0  0  0  0  0  0  0
   56.7690   23.2840   43.9070 C   0  0  0  0  0  0  0  0  0  0  0  0
   57.1730   24.6450   43.3960 C   0  0  0  0  0  0  0  0  0  0  0  0
   57.3711   25.3124   44.2476 H   0  0  0  0  0  0  0  0  0  0  0  0
   58.0822   24.5518   42.7839 H   0  0  0  0  0  0  0  0  0  0  0  0
   56.3602   25.0630   42.7839 H   0  0  0  0  0  0  0  0  0  0  0  0
   57.7780   22.3070   43.9930 C   0  0  0  0  0  0  0  0  0  0  0  0
   58.7729   22.5153   43.5726 H   0  0  0  0  0  0  0  0  0  0  0  0
   57.5330   21.0810   44.6030 C   0  0  0  0  0  0  0  0  0  0  0  0
   58.3251   20.3199   44.6604 H   0  0  0  0  0  0  0  0  0  0  0  0
  1  2  1  0
  2  3  1  0
  3  4  1  0
  4  5  2  3
  5  6  1  0
  6  7  2  0
  6  8  1  0
  8  9  2  3
  9 10  1  0
 10 11  1  0
 11 12  1  0
 11 13  2  0
 13 14  1  0
 13 15  1  0
 15 16  1  0
 16 17  1  0
 17 18  2  0
 18 19  1  0
 18 20  1  0
 20 21  1  0
 20 22  2  0
 22 23  1  0
 23 24  1  0
 24 25  2  0
 24 26  1  0
 26 27  2  0
 27 28  1  0
 28 29  1  0
 28 30  2  0
 30 31  1  0
 31 32  1  0
 31 33  1  0
 31 34  1  0
 30 35  1  0
 35 36  1  0
 35 37  2  0
 37 38  1  0
 37 39  1  0
 39 40  1  0
 22 41  1  0
 41 42  1  0
 41 43  2  0
 43 44  1  0
 15 45  2  0
 45 46  1  0
  4 47  1  0
 47 48  1  0
 48 49  1  0
 48 50  1  0
 48 51  1  0
 47 52  2  0
 52 53  1  0
 52 54  1  0
 54 55  1  0
 54  2  2  0
 45  9  1  0
 43 17  1  0
 39 27  1  0
M  CHG  3   3  -1  10  -1  23  -1
M  END
>  <UniqueID>  (45) 
41

>  <SMILES>  (45) 
Cc1cc[nH]/c(=N\C(=O)[N-]c2ccc(Oc3cc[n-]c(=NC(=O)N=c4[n-]cccc4C)c3)cc2)c1

>  <Energy>  (45) 
102.96155092722493

>  <Genealogy>  (45) 
Cc1cc[nH]c(=NC(=O)[N-]c2ccc(Oc3cc[n-]c(=NC(=O)N=c4[n-]cccc4C)c3)cc2)c1 (protonated)
Cc1cc[nH]/c(=N\C(=O)[N-]c2ccc(Oc3cc[n-]c(=NC(=O)N=c4[n-]cccc4C)c3)cc2)c1 (cis-trans isomerization)
Cc1cc[nH]/c(=N\C(=O)[N-]c2ccc(Oc3cc[n-]c(=NC(=O)N=c4[n-]cccc4C)c3)cc2)c1 (3D coordinates assigned)
Cc1cc[nH]/c(=N\C(=O)[N-]c2ccc(Oc3cc[n-]c(=NC(=O)N=c4[n-]cccc4C)c3)cc2)c1 (optimized conformer: 102.96155092722493 kcal/mol)

>  <smiles>  (45) 
Cc1cc[nH]c(=NC(=O)Nc2ccc(Oc3cc[nH]c(=NC(=O)N=c4[nH]cccc4C)c3)cc2)c1

>  <score_type>  (45) 
oracle

>  <origin>  (45) 
adg

>  <m_score__min__energy>  (45) 
-13.07

>  <m_primary>  (45) 
energy

$$$$
45:0
     RDKit          3D

 37 39  0  0  0  0  0  0  0  0999 V2000
   58.1130   31.2540   46.6470 C   0  0  0  0  0  0  0  0  0  0  0  0
   57.8370   31.4700   45.1750 C   0  0  0  0  0  0  0  0  0  0  0  0
   57.1350   30.4850   44.4220 C   0  0  0  0  0  0  0  0  0  0  0  0
   56.5160   29.2890   45.0450 C   0  0  0  0  0  0  0  0  0  0  0  0
   57.2240   28.4740   45.6930 O   0  0  0  0  0  0  0  0  0  0  0  0
   55.1630   29.0160   44.8770 O   0  0  0  0  0  0  0  0  0  0  0  0
   56.9950   30.6500   43.0340 C   0  0  0  0  0  0  0  0  0  0  0  0
   57.4870   31.7840   42.3990 C   0  0  0  0  0  0  0  0  0  0  0  0
   58.1100   32.7850   43.1370 C   0  0  0  0  0  0  0  0  0  0  0  0
   58.2780   32.6550   44.5220 C   0  0  0  0  0  0  0  0  0  0  0  0
   59.0390   33.9960   45.3990 S   0  0  0  0  0  0  0  0  0  0  0  0
   58.2960   34.2290   46.6840 O   0  0  0  0  0  0  0  0  0  0  0  0
   59.0080   35.2340   44.5460 O   0  0  0  0  0  0  0  0  0  0  0  0
   60.6930   33.6090   45.7540 N   0  0  0  0  0  0  0  0  0  0  0  0
   61.2910   33.6500   47.0560 C   0  0  0  0  0  0  0  0  0  0  0  0
   60.6150   34.1770   48.1740 C   0  0  0  0  0  0  0  0  0  0  0  0
   61.2340   34.1930   49.4290 C   0  0  0  0  0  0  0  0  0  0  0  0
   62.5260   33.6820   49.5760 C   0  0  0  0  0  0  0  0  0  0  0  0
   63.2140   33.1830   48.4630 C   0  0  0  0  0  0  0  0  0  0  0  0
   62.5930   33.1530   47.2110 C   0  0  0  0  0  0  0  0  0  0  0  0
   64.5220   32.7180   48.6240 O   0  0  0  0  0  0  0  0  0  0  0  0
   65.2600   32.9930   49.8180 C   0  0  0  0  0  0  0  0  0  0  0  0
   64.3420   32.9010   51.0430 C   0  0  0  0  0  0  0  0  0  0  0  0
   63.1500   33.6610   50.8280 O   0  0  0  0  0  0  0  0  0  0  0  0
   57.3854   31.8234   47.2439 H   0  0  0  0  0  0  0  0  0  0  0  0
   58.0236   30.1835   46.8836 H   0  0  0  0  0  0  0  0  0  0  0  0
   59.1307   31.5981   46.8836 H   0  0  0  0  0  0  0  0  0  0  0  0
   56.4898   29.8722   42.4426 H   0  0  0  0  0  0  0  0  0  0  0  0
   57.3834   31.8904   41.3091 H   0  0  0  0  0  0  0  0  0  0  0  0
   58.4750   33.6890   42.6275 H   0  0  0  0  0  0  0  0  0  0  0  0
   59.5968   34.5774   48.0601 H   0  0  0  0  0  0  0  0  0  0  0  0
   60.7038   34.6076   50.2990 H   0  0  0  0  0  0  0  0  0  0  0  0
   63.1278   32.7379   46.3440 H   0  0  0  0  0  0  0  0  0  0  0  0
   66.0741   32.2601   49.9185 H   0  0  0  0  0  0  0  0  0  0  0  0
   65.6746   34.0100   49.7566 H   0  0  0  0  0  0  0  0  0  0  0  0
   64.0747   31.8484   51.2179 H   0  0  0  0  0  0  0  0  0  0  0  0
   64.8715   33.3057   51.9181 H   0  0  0  0  0  0  0  0  0  0  0  0
  1  2  1  0
  2  3  2  0
  3  4  1  0
  4  5  2  0
  4  6  1  0
  3  7  1  0
  7  8  2  0
  8  9  1  0
  9 10  2  0
 10 11  1  0
 11 12  2  0
 11 13  2  0
 11 14  1  0
 14 15  1  0
 15 16  2  0
 16 17  1  0
 17 18  2  0
 18 19  1  0
 19 20  2  0
 19 21  1  0
 21 22  1  0
 22 23  1  0
 23 24  1  0
 10  2  1  0
 20 15  1  0
 24 18  1  0
  1 25  1  0
  1 26  1  0
  1 27  1  0
  7 28  1  0
  8 29  1  0
  9 30  1  0
 16 31  1  0
 17 32  1  0
 20 33  1  0
 22 34  1  0
 22 35  1  0
 23 36  1  0
 23 37  1  0
M  CHG  2   6  -1  14  -1
M  END
>  <UniqueID>  (46) 
42

>  <SMILES>  (46) 
Cc1c(C(=O)[O-])cccc1S(=O)(=O)[N-]c1ccc2c(c1)OCCO2

>  <Energy>  (46) 
52.618929961301134

>  <Genealogy>  (46) 
Cc1c(C(=O)[O-])cccc1S(=O)(=O)[N-]c1ccc2c(c1)OCCO2 (protonated)
Cc1c(C(=O)[O-])cccc1S(=O)(=O)[N-]c1ccc2c(c1)OCCO2 (3D coordinates assigned)
Cc1c(C(=O)[O-])cccc1S(=O)(=O)[N-]c1ccc2c(c1)OCCO2 (nonaromatic ring conformer: 52.618929961301134 kcal/mol)

>  <smiles>  (46) 
Cc1c(C(=O)O)cccc1S(=O)(=O)Nc1ccc2c(c1)OCCO2

>  <score_type>  (46) 
oracle

>  <origin>  (46) 
adg

>  <m_score__min__energy>  (46) 
-10.94

>  <m_primary>  (46) 
energy

$$$$
46:0
     RDKit          3D

 70 73  0  0  0  0  0  0  0  0999 V2000
   62.6190   30.8420   50.0510 C   0  0  0  0  0  0  0  0  0  0  0  0
   62.7470   31.8360   48.9250 C   0  0  0  0  0  0  0  0  0  0  0  0
   63.6860   32.8770   49.0540 C   0  0  0  0  0  0  0  0  0  0  0  0
   63.8310   33.8330   48.0500 C   0  0  0  0  0  0  0  0  0  0  0  0
   63.0360   33.7720   46.9070 C   0  0  0  0  0  0  0  0  0  0  0  0
   62.0840   32.7590   46.7670 C   0  0  0  0  0  0  0  0  0  0  0  0
   61.9290   31.7760   47.7630 C   0  0  0  0  0  0  0  0  0  0  0  0
   60.9090   30.6700   47.5320 C   0  0  0  0  0  0  0  0  0  0  0  0
   59.8530   30.6620   48.5710 N   0  0  2  0  0  0  0  0  0  0  0  0
   59.0370   29.4410   48.4650 C   0  0  0  0  0  0  0  0  0  0  0  0
   59.0120   31.8400   48.4610 C   0  0  0  0  0  0  0  0  0  0  0  0
   58.5930   32.4100   49.5070 O   0  0  0  0  0  0  0  0  0  0  0  0
   58.5730   32.3460   47.1380 C   0  0  0  0  0  0  0  0  0  0  0  0
   58.9840   33.6050   46.6760 C   0  0  0  0  0  0  0  0  0  0  0  0
   58.5290   34.0640   45.4410 C   0  0  0  0  0  0  0  0  0  0  0  0
   57.6910   33.2660   44.6630 C   0  0  0  0  0  0  0  0  0  0  0  0
   57.3170   31.9890   45.1330 C   0  0  0  0  0  0  0  0  0  0  0  0
   56.5570   31.1680   44.4610 N   0  0  0  0  0  0  0  0  0  0  0  0
   56.5090   29.7310   44.4650 C   0  0  0  0  0  0  0  0  0  0  0  0
   55.5030   29.1070   44.9010 O   0  0  0  0  0  0  0  0  0  0  0  0
   57.6490   28.9850   43.8300 C   0  0  0  0  0  0  0  0  0  0  0  0
   58.3110   28.0120   44.7750 C   0  0  0  0  0  0  0  0  0  0  0  0
   59.6630   28.1680   45.1150 C   0  0  0  0  0  0  0  0  0  0  0  0
   60.2780   27.2640   45.9810 C   0  0  0  0  0  0  0  0  0  0  0  0
   59.5530   26.1980   46.5160 C   0  0  0  0  0  0  0  0  0  0  0  0
   58.1900   26.0370   46.2100 C   0  0  0  0  0  0  0  0  0  0  0  0
   57.4180   24.8880   46.7510 C   0  0  0  0  0  0  0  0  0  0  0  0
   56.9860   24.9380   47.9350 O   0  0  0  0  0  0  0  0  0  0  0  0
   57.1130   23.7370   45.9440 N   0  0  0  0  0  0  0  0  0  0  0  0
   58.1840   22.9860   45.2800 C   0  0  0  0  0  0  0  0  0  0  0  0
   57.7470   22.5370   43.8710 C   0  0  0  0  0  0  0  0  0  0  0  0
   56.2890   22.2780   43.7380 N   0  0  0  0  0  0  0  0  0  0  0  0
   55.6040   23.3510   42.9940 C   0  0  0  0  0  0  0  0  0  0  0  0
   55.6240   21.9890   45.0250 C   0  0  0  0  0  0  0  0  0  0  0  0
   55.7730   23.1520   46.0190 C   0  0  0  0  0  0  0  0  0  0  0  0
   57.5770   26.9530   45.3360 C   0  0  0  0  0  0  0  0  0  0  0  0
   57.7550   31.5880   46.3570 N   0  0  0  0  0  0  0  0  0  0  0  0
   62.6868   31.3686   51.0144 H   0  0  0  0  0  0  0  0  0  0  0  0
   61.6476   30.3308   49.9801 H   0  0  0  0  0  0  0  0  0  0  0  0
   63.4292   30.1013   49.9801 H   0  0  0  0  0  0  0  0  0  0  0  0
   64.3119   32.9366   49.9566 H   0  0  0  0  0  0  0  0  0  0  0  0
   64.5740   34.6367   48.1600 H   0  0  0  0  0  0  0  0  0  0  0  0
   63.1583   34.5234   46.1130 H   0  0  0  0  0  0  0  0  0  0  0  0
   61.4490   32.7291   45.8693 H   0  0  0  0  0  0  0  0  0  0  0  0
   60.4387   30.8204   46.5490 H   0  0  0  0  0  0  0  0  0  0  0  0
   61.4372   29.7062   47.5775 H   0  0  0  0  0  0  0  0  0  0  0  0
   60.3090   30.6280   49.5100 H   0  0  0  0  0  0  0  0  0  0  0  0
   58.7923   29.0749   49.4730 H   0  0  0  0  0  0  0  0  0  0  0  0
   58.1078   29.6670   47.9214 H   0  0  0  0  0  0  0  0  0  0  0  0
   59.6013   28.6689   47.9214 H   0  0  0  0  0  0  0  0  0  0  0  0
   59.6598   34.2250   47.2833 H   0  0  0  0  0  0  0  0  0  0  0  0
   58.8316   35.0578   45.0794 H   0  0  0  0  0  0  0  0  0  0  0  0
   57.3246   33.6287   43.6913 H   0  0  0  0  0  0  0  0  0  0  0  0
   57.2644   28.4268   42.9637 H   0  0  0  0  0  0  0  0  0  0  0  0
   58.4060   29.7265   43.5349 H   0  0  0  0  0  0  0  0  0  0  0  0
   60.2401   29.0061   44.6972 H   0  0  0  0  0  0  0  0  0  0  0  0
   61.3386   27.3917   46.2434 H   0  0  0  0  0  0  0  0  0  0  0  0
   60.0516   25.4784   47.1820 H   0  0  0  0  0  0  0  0  0  0  0  0
   59.0739   23.6269   45.1943 H   0  0  0  0  0  0  0  0  0  0  0  0
   58.4114   22.0923   45.8796 H   0  0  0  0  0  0  0  0  0  0  0  0
   58.0237   23.3261   43.1563 H   0  0  0  0  0  0  0  0  0  0  0  0
   58.2567   21.5829   43.6714 H   0  0  0  0  0  0  0  0  0  0  0  0
   55.1521   24.0589   43.7044 H   0  0  0  0  0  0  0  0  0  0  0  0
   56.3315   23.8806   42.3613 H   0  0  0  0  0  0  0  0  0  0  0  0
   54.8174   22.9140   42.3613 H   0  0  0  0  0  0  0  0  0  0  0  0
   54.5539   21.8128   44.8411 H   0  0  0  0  0  0  0  0  0  0  0  0
   56.1014   21.1007   45.4644 H   0  0  0  0  0  0  0  0  0  0  0  0
   55.0286   23.9262   45.7813 H   0  0  0  0  0  0  0  0  0  0  0  0
   55.6153   22.7658   47.0369 H   0  0  0  0  0  0  0  0  0  0  0  0
   56.5112   26.8391   45.0889 H   0  0  0  0  0  0  0  0  0  0  0  0
  1  2  1  0
  2  3  2  0
  3  4  1  0
  4  5  2  0
  5  6  1  0
  6  7  2  0
  7  8  1  0
  8  9  1  0
  9 10  1  0
  9 11  1  0
 11 12  2  0
 11 13  1  0
 13 14  2  0
 14 15  1  0
 15 16  2  0
 16 17  1  0
 17 18  2  3
 18 19  1  0
 19 20  2  0
 19 21  1  0
 21 22  1  0
 22 23  2  0
 23 24  1  0
 24 25  2  0
 25 26  1  0
 26 27  1  0
 27 28  2  0
 27 29  1  0
 29 30  1  0
 30 31  1  0
 31 32  1  0
 32 33  1  0
 32 34  1  0
 34 35  1  0
 26 36  2  0
 17 37  1  0
  7  2  1  0
 37 13  1  0
 36 22  1  0
 35 29  1  0
  1 38  1  0
  1 39  1  0
  1 40  1  0
  3 41  1  0
  4 42  1  0
  5 43  1  0
  6 44  1  0
  8 45  1  0
  8 46  1  0
  9 47  1  1
 10 48  1  0
 10 49  1  0
 10 50  1  0
 14 51  1  0
 15 52  1  0
 16 53  1  0
 21 54  1  0
 21 55  1  0
 23 56  1  0
 24 57  1  0
 25 58  1  0
 30 59  1  0
 30 60  1  0
 31 61  1  0
 31 62  1  0
 33 63  1  0
 33 64  1  0
 33 65  1  0
 34 66  1  0
 34 67  1  0
 35 68  1  0
 35 69  1  0
 36 70  1  0
M  CHG  2   9   1  37  -1
M  END
>  <UniqueID>  (47) 
43

>  <SMILES>  (47) 
Cc1ccccc1C[N@H+](C)C(=O)c1cccc(=NC(=O)Cc2cccc(C(=O)N3CCN(C)CC3)c2)[n-]1

>  <Energy>  (47) 
95.9062896878817

>  <Genealogy>  (47) 
Cc1ccccc1C[NH+](C)C(=O)c1cccc(=NC(=O)Cc2cccc(C(=O)N3CCN(C)CC3)c2)[n-]1 (protonated)
Cc1ccccc1C[N@H+](C)C(=O)c1cccc(=NC(=O)Cc2cccc(C(=O)N3CCN(C)CC3)c2)[n-]1 (chirality)
Cc1ccccc1C[N@H+](C)C(=O)c1cccc(=NC(=O)Cc2cccc(C(=O)N3CCN(C)CC3)c2)[n-]1 (3D coordinates assigned)
Cc1ccccc1C[N@H+](C)C(=O)c1cccc(=NC(=O)Cc2cccc(C(=O)N3CCN(C)CC3)c2)[n-]1 (nonaromatic ring conformer: 95.9062896878817 kcal/mol)

>  <smiles>  (47) 
Cc1ccccc1CN(C)C(=O)c1cccc(=NC(=O)Cc2cccc(C(=O)N3CCN(C)CC3)c2)[nH]1

>  <score_type>  (47) 
oracle

>  <origin>  (47) 
adg

>  <m_score__min__energy>  (47) 
-11.01

>  <m_primary>  (47) 
energy

$$$$
47:0
     RDKit          3D

 58 60  0  0  0  0  0  0  0  0999 V2000
   62.7670   34.0800   46.6570 O   0  0  0  0  0  0  0  0  0  0  0  0
   62.2100   33.7380   47.7400 C   0  0  0  0  0  0  0  0  0  0  0  0
   62.4800   32.3800   48.3220 C   0  0  0  0  0  0  0  0  0  0  0  0
   62.4860   31.2590   47.2590 C   0  0  0  0  0  0  0  0  0  0  0  0
   61.3920   30.2820   47.4780 N   0  0  0  0  0  0  0  0  0  0  0  0
   60.2280   30.5490   46.6010 C   0  0  0  0  0  0  0  0  0  0  0  0
   60.1310   29.4880   45.4940 C   0  0  0  0  0  0  0  0  0  0  0  0
   58.8140   28.7490   45.5270 C   0  0  0  0  0  0  0  0  0  0  0  0
   58.7450   27.4530   46.0640 C   0  0  0  0  0  0  0  0  0  0  0  0
   57.5200   26.7850   46.1350 C   0  0  0  0  0  0  0  0  0  0  0  0
   56.3510   27.4020   45.6810 C   0  0  0  0  0  0  0  0  0  0  0  0
   55.1410   26.7180   45.7490 O   0  0  0  0  0  0  0  0  0  0  0  0
   56.4050   28.7030   45.1560 C   0  0  0  0  0  0  0  0  0  0  0  0
   55.2450   29.3570   44.7380 O   0  0  0  0  0  0  0  0  0  0  0  0
   57.6380   29.3620   45.0590 C   0  0  0  0  0  0  0  0  0  0  0  0
   60.9920   30.2750   48.9050 C   0  0  0  0  0  0  0  0  0  0  0  0
   59.5930   29.6570   49.0810 C   0  0  0  0  0  0  0  0  0  0  0  0
   58.7780   30.3970   50.1080 C   0  0  0  0  0  0  0  0  0  0  0  0
   59.0140   31.7590   50.3620 C   0  0  0  0  0  0  0  0  0  0  0  0
   58.2430   32.4210   51.3220 C   0  0  0  0  0  0  0  0  0  0  0  0
   57.2470   31.7300   52.0120 C   0  0  0  0  0  0  0  0  0  0  0  0
   57.0390   30.3740   51.7370 C   0  0  0  0  0  0  0  0  0  0  0  0
   56.1430   29.7330   52.3480 O   0  0  0  0  0  0  0  0  0  0  0  0
   57.8060   29.7430   50.8040 N   0  0  0  0  0  0  0  0  0  0  0  0
   61.2360   34.5900   48.3440 N   0  0  0  0  0  0  0  0  0  0  0  0
   59.8450   34.2040   48.5660 C   0  0  0  0  0  0  0  0  0  0  0  0
   59.1370   34.0170   47.2490 C   0  0  0  0  0  0  0  0  0  0  0  0
   58.0840   33.0960   47.1210 C   0  0  0  0  0  0  0  0  0  0  0  0
   57.4440   32.9220   45.8880 C   0  0  0  0  0  0  0  0  0  0  0  0
   57.8490   33.6670   44.7790 C   0  0  0  0  0  0  0  0  0  0  0  0
   58.8890   34.5870   44.8980 C   0  0  0  0  0  0  0  0  0  0  0  0
   59.5370   34.7550   46.1250 C   0  0  0  0  0  0  0  0  0  0  0  0
   63.4623   32.3995   48.8167 H   0  0  0  0  0  0  0  0  0  0  0  0
   61.6683   32.1579   49.0304 H   0  0  0  0  0  0  0  0  0  0  0  0
   62.3641   31.7120   46.2640 H   0  0  0  0  0  0  0  0  0  0  0  0
   63.4428   30.7217   47.3362 H   0  0  0  0  0  0  0  0  0  0  0  0
   59.3083   30.5274   47.2041 H   0  0  0  0  0  0  0  0  0  0  0  0
   60.3541   31.5374   46.1351 H   0  0  0  0  0  0  0  0  0  0  0  0
   60.2347   29.9840   44.5177 H   0  0  0  0  0  0  0  0  0  0  0  0
   60.9344   28.7546   45.6573 H   0  0  0  0  0  0  0  0  0  0  0  0
   59.6588   26.9621   46.4300 H   0  0  0  0  0  0  0  0  0  0  0  0
   57.4753   25.7675   46.5506 H   0  0  0  0  0  0  0  0  0  0  0  0
   54.4000   28.8550   44.5130 H   0  0  0  0  0  0  0  0  0  0  0  0
   57.6863   30.3665   44.6133 H   0  0  0  0  0  0  0  0  0  0  0  0
   61.7210   29.6855   49.4804 H   0  0  0  0  0  0  0  0  0  0  0  0
   60.9654   31.3133   49.2674 H   0  0  0  0  0  0  0  0  0  0  0  0
   59.0653   29.6908   48.1164 H   0  0  0  0  0  0  0  0  0  0  0  0
   59.7190   28.6207   49.4277 H   0  0  0  0  0  0  0  0  0  0  0  0
   59.7979   32.2989   49.8107 H   0  0  0  0  0  0  0  0  0  0  0  0
   58.4216   33.4857   51.5330 H   0  0  0  0  0  0  0  0  0  0  0  0
   56.6318   32.2455   52.7642 H   0  0  0  0  0  0  0  0  0  0  0  0
   59.8161   33.2604   49.1306 H   0  0  0  0  0  0  0  0  0  0  0  0
   59.3396   34.9990   49.1340 H   0  0  0  0  0  0  0  0  0  0  0  0
   57.7609   32.5090   47.9933 H   0  0  0  0  0  0  0  0  0  0  0  0
   56.6215   32.1978   45.7930 H   0  0  0  0  0  0  0  0  0  0  0  0
   57.3467   33.5277   43.8103 H   0  0  0  0  0  0  0  0  0  0  0  0
   59.2000   35.1811   44.0260 H   0  0  0  0  0  0  0  0  0  0  0  0
   60.3672   35.4716   46.2100 H   0  0  0  0  0  0  0  0  0  0  0  0
  1  2  2  0
  2  3  1  0
  3  4  1  0
  4  5  1  0
  5  6  1  0
  6  7  1  0
  7  8  1  0
  8  9  2  0
  9 10  1  0
 10 11  2  0
 11 12  1  0
 11 13  1  0
 13 14  1  0
 13 15  2  0
  5 16  1  0
 16 17  1  0
 17 18  1  0
 18 19  2  0
 19 20  1  0
 20 21  2  0
 21 22  1  0
 22 23  2  0
 22 24  1  0
  2 25  1  0
 25 26  1  0
 26 27  1  0
 27 28  2  0
 28 29  1  0
 29 30  2  0
 30 31  1  0
 31 32  2  0
 15  8  1  0
 24 18  1  0
 32 27  1  0
  3 33  1  0
  3 34  1  0
  4 35  1  0
  4 36  1  0
  6 37  1  0
  6 38  1  0
  7 39  1  0
  7 40  1  0
  9 41  1  0
 10 42  1  0
 14 43  1  0
 15 44  1  0
 16 45  1  0
 16 46  1  0
 17 47  1  0
 17 48  1  0
 19 49  1  0
 20 50  1  0
 21 51  1  0
 26 52  1  0
 26 53  1  0
 28 54  1  0
 29 55  1  0
 30 56  1  0
 31 57  1  0
 32 58  1  0
M  CHG  3  12  -1  24  -1  25  -1
M  END
>  <UniqueID>  (48) 
44

>  <SMILES>  (48) 
O=C(CCN(CCc1ccc([O-])c(O)c1)CCc1cccc(=O)[n-]1)[N-]Cc1ccccc1

>  <Energy>  (48) 
54.82191444024905

>  <Genealogy>  (48) 
O=C(CCN(CCc1ccc([O-])c(O)c1)CCc1cccc(=O)[n-]1)[N-]Cc1ccccc1 (protonated)
O=C(CCN(CCc1ccc([O-])c(O)c1)CCc1cccc(=O)[n-]1)[N-]Cc1ccccc1 (3D coordinates assigned)
O=C(CCN(CCc1ccc([O-])c(O)c1)CCc1cccc(=O)[n-]1)[N-]Cc1ccccc1 (optimized conformer: 54.82191444024905 kcal/mol)

>  <smiles>  (48) 
O=C(CCN(CCc1ccc(O)c(O)c1)CCc1cccc(=O)[nH]1)NCc1ccccc1

>  <score_type>  (48) 
oracle

>  <origin>  (48) 
adg

>  <m_score__min__energy>  (48) 
-15.49

>  <m_primary>  (48) 
energy

$$$$
48:0
     RDKit          3D

 45 46  0  0  0  0  0  0  0  0999 V2000
   59.2760   35.0200   44.8690 C   0  0  0  0  0  0  0  0  0  0  0  0
   59.1960   34.3550   46.2180 C   0  0  0  0  0  0  0  0  0  0  0  0
   60.1970   34.6300   47.1650 C   0  0  0  0  0  0  0  0  0  0  0  0
   60.1820   34.0040   48.4140 C   0  0  0  0  0  0  0  0  0  0  0  0
   59.1710   33.0960   48.7310 C   0  0  0  0  0  0  0  0  0  0  0  0
   58.1590   32.8280   47.8070 C   0  0  0  0  0  0  0  0  0  0  0  0
   58.1410   33.4740   46.5630 C   0  0  0  0  0  0  0  0  0  0  0  0
   57.0690   33.1800   45.6590 N   0  0  0  0  0  0  0  0  0  0  0  0
   57.1830   32.2850   44.5500 C   0  0  0  0  0  0  0  0  0  0  0  0
   57.5940   32.7310   43.4460 O   0  0  0  0  0  0  0  0  0  0  0  0
   56.7950   30.9120   44.6880 N   0  0  0  0  0  0  0  0  0  0  0  0
   57.4910   29.8910   45.4180 C   0  0  0  0  0  0  0  0  0  0  0  0
   58.6520   30.1640   46.1620 C   0  0  0  0  0  0  0  0  0  0  0  0
   59.2890   29.1410   46.8740 C   0  0  0  0  0  0  0  0  0  0  0  0
   58.7610   27.8410   46.8710 C   0  0  0  0  0  0  0  0  0  0  0  0
   59.4630   26.7330   47.6090 C   0  0  0  0  0  0  0  0  0  0  0  0
   59.9720   25.7140   46.6400 C   0  0  0  0  0  0  0  0  0  0  0  0
   61.0630   25.9150   46.0360 O   0  0  0  0  0  0  0  0  0  0  0  0
   59.1930   24.5450   46.3660 N   0  0  0  0  0  0  0  0  0  0  0  0
   57.9050   24.5760   45.6790 C   0  0  0  0  0  0  0  0  0  0  0  0
   56.7670   24.2910   46.6600 C   0  0  0  0  0  0  0  0  0  0  0  0
   55.1750   24.5840   45.9040 S   0  0  0  0  0  0  0  0  0  0  0  0
   54.7630   26.2630   45.9920 N   0  0  0  0  0  0  0  0  0  0  0  0
   54.1250   23.7720   46.6110 O   0  0  0  0  0  0  0  0  0  0  0  0
   55.2340   24.1690   44.4620 O   0  0  0  0  0  0  0  0  0  0  0  0
   57.5930   27.5730   46.1400 C   0  0  0  0  0  0  0  0  0  0  0  0
   56.9580   28.5950   45.4280 C   0  0  0  0  0  0  0  0  0  0  0  0
   59.4064   36.1041   45.0018 H   0  0  0  0  0  0  0  0  0  0  0  0
   60.1317   34.6135   44.3100 H   0  0  0  0  0  0  0  0  0  0  0  0
   58.3483   34.8280   44.3100 H   0  0  0  0  0  0  0  0  0  0  0  0
   60.9982   35.3432   46.9213 H   0  0  0  0  0  0  0  0  0  0  0  0
   60.9691   34.2275   49.1492 H   0  0  0  0  0  0  0  0  0  0  0  0
   59.1712   32.5915   49.7085 H   0  0  0  0  0  0  0  0  0  0  0  0
   57.3695   32.1041   48.0573 H   0  0  0  0  0  0  0  0  0  0  0  0
   59.0612   31.1848   46.1847 H   0  0  0  0  0  0  0  0  0  0  0  0
   60.2079   29.3572   47.4386 H   0  0  0  0  0  0  0  0  0  0  0  0
   60.3083   27.1511   48.1752 H   0  0  0  0  0  0  0  0  0  0  0  0
   58.7531   26.2523   48.2982 H   0  0  0  0  0  0  0  0  0  0  0  0
   57.7571   25.5702   45.2321 H   0  0  0  0  0  0  0  0  0  0  0  0
   57.9011   23.8035   44.8959 H   0  0  0  0  0  0  0  0  0  0  0  0
   56.8242   23.2403   46.9807 H   0  0  0  0  0  0  0  0  0  0  0  0
   56.8729   24.9656   47.5224 H   0  0  0  0  0  0  0  0  0  0  0  0
   53.7230   26.3310   45.9140 H   0  0  0  0  0  0  0  0  0  0  0  0
   57.1758   26.5553   46.1273 H   0  0  0  0  0  0  0  0  0  0  0  0
   56.0336   28.3803   44.8718 H   0  0  0  0  0  0  0  0  0  0  0  0
  1  2  1  0
  2  3  2  0
  3  4  1  0
  4  5  2  0
  5  6  1  0
  6  7  2  0
  7  8  1  0
  8  9  1  0
  9 10  2  0
  9 11  1  0
 11 12  1  0
 12 13  2  0
 13 14  1  0
 14 15  2  0
 15 16  1  0
 16 17  1  0
 17 18  2  0
 17 19  1  0
 19 20  1  0
 20 21  1  0
 21 22  1  0
 22 23  1  0
 22 24  2  0
 22 25  2  0
 15 26  1  0
 26 27  2  0
  7  2  1  0
 27 12  1  0
  1 28  1  0
  1 29  1  0
  1 30  1  0
  3 31  1  0
  4 32  1  0
  5 33  1  0
  6 34  1  0
 13 35  1  0
 14 36  1  0
 16 37  1  0
 16 38  1  0
 20 39  1  0
 20 40  1  0
 21 41  1  0
 21 42  1  0
 23 43  1  0
 26 44  1  0
 27 45  1  0
M  CHG  4   8  -1  11  -1  19  -1  23  -1
M  END
>  <UniqueID>  (49) 
45

>  <SMILES>  (49) 
Cc1ccccc1[N-]C(=O)[N-]c1ccc(CC(=O)[N-]CCS([NH-])(=O)=O)cc1

>  <Energy>  (49) 
44.046756689873135

>  <Genealogy>  (49) 
Cc1ccccc1[N-]C(=O)[N-]c1ccc(CC(=O)[N-]CCS([NH-])(=O)=O)cc1 (protonated)
Cc1ccccc1[N-]C(=O)[N-]c1ccc(CC(=O)[N-]CCS([NH-])(=O)=O)cc1 (3D coordinates assigned)
Cc1ccccc1[N-]C(=O)[N-]c1ccc(CC(=O)[N-]CCS([NH-])(=O)=O)cc1 (optimized conformer: 44.046756689873135 kcal/mol)

>  <smiles>  (49) 
Cc1ccccc1NC(=O)Nc1ccc(CC(=O)NCCS(N)(=O)=O)cc1

>  <score_type>  (49) 
oracle

>  <origin>  (49) 
adg

>  <m_score__min__energy>  (49) 
-15.02

>  <m_primary>  (49) 
energy

$$$$
49:0
     RDKit          3D

 36 37  0  0  0  0  0  0  0  0999 V2000
   59.3750   34.9880   45.9880 C   0  0  0  0  0  0  0  0  0  0  0  0
   59.1020   33.5570   45.9810 N   0  0  0  0  0  0  0  0  0  0  0  0
   57.9330   33.0200   45.3420 C   0  0  0  0  0  0  0  0  0  0  0  0
   56.9870   33.7960   45.0340 O   0  0  0  0  0  0  0  0  0  0  0  0
   57.8210   31.5740   45.0230 C   0  0  0  0  0  0  0  0  0  0  0  0
   56.8780   31.1310   44.0770 C   0  0  0  0  0  0  0  0  0  0  0  0
   56.8240   29.7850   43.7030 C   0  0  0  0  0  0  0  0  0  0  0  0
   57.7200   28.8670   44.2530 C   0  0  0  0  0  0  0  0  0  0  0  0
   58.6640   29.2840   45.2010 C   0  0  0  0  0  0  0  0  0  0  0  0
   59.6910   28.3170   45.7260 C   0  0  0  0  0  0  0  0  0  0  0  0
   59.1430   27.5450   47.2940 S   0  0  0  0  0  0  0  0  0  0  0  0
   57.9530   26.4510   46.5210 C   0  0  0  0  0  0  0  0  0  0  0  0
   58.3570   25.2510   46.0380 N   0  0  0  0  0  0  0  0  0  0  0  0
   57.4680   24.3570   45.5330 C   0  0  0  0  0  0  0  0  0  0  0  0
   57.8910   23.2400   45.1330 O   0  0  0  0  0  0  0  0  0  0  0  0
   56.0920   24.6730   45.4970 C   0  0  0  0  0  0  0  0  0  0  0  0
   55.0700   23.7170   44.9920 C   0  0  0  0  0  0  0  0  0  0  0  0
   53.7850   23.4640   45.7200 C   0  0  0  0  0  0  0  0  0  0  0  0
   55.2680   23.1100   43.9050 O   0  0  0  0  0  0  0  0  0  0  0  0
   55.7080   25.9370   45.9910 C   0  0  0  0  0  0  0  0  0  0  0  0
   54.3760   26.3370   45.9710 O   0  0  0  0  0  0  0  0  0  0  0  0
   56.6400   26.7880   46.4900 N   0  0  0  0  0  0  0  0  0  0  0  0
   58.6980   30.6330   45.5940 C   0  0  0  0  0  0  0  0  0  0  0  0
   59.4428   35.3433   47.0268 H   0  0  0  0  0  0  0  0  0  0  0  0
   60.3264   35.1823   45.4712 H   0  0  0  0  0  0  0  0  0  0  0  0
   58.5619   35.5189   45.4712 H   0  0  0  0  0  0  0  0  0  0  0  0
   59.7720   32.9260   46.4750 H   0  0  0  0  0  0  0  0  0  0  0  0
   56.1772   31.8501   43.6279 H   0  0  0  0  0  0  0  0  0  0  0  0
   56.0731   29.4484   42.9730 H   0  0  0  0  0  0  0  0  0  0  0  0
   57.6850   27.8127   43.9413 H   0  0  0  0  0  0  0  0  0  0  0  0
   59.8554   27.5282   44.9772 H   0  0  0  0  0  0  0  0  0  0  0  0
   60.6210   28.8715   45.9199 H   0  0  0  0  0  0  0  0  0  0  0  0
   53.9649   23.4994   46.8046 H   0  0  0  0  0  0  0  0  0  0  0  0
   53.0499   24.2346   45.4449 H   0  0  0  0  0  0  0  0  0  0  0  0
   53.3969   22.4722   45.4449 H   0  0  0  0  0  0  0  0  0  0  0  0
   59.4197   30.9576   46.3581 H   0  0  0  0  0  0  0  0  0  0  0  0
  1  2  1  0
  2  3  1  0
  3  4  2  0
  3  5  1  0
  5  6  2  0
  6  7  1  0
  7  8  2  0
  8  9  1  0
  9 10  1  0
 10 11  1  0
 11 12  1  0
 12 13  2  0
 13 14  1  0
 14 15  2  0
 14 16  1  0
 16 17  1  0
 17 18  1  0
 17 19  2  0
 16 20  2  0
 20 21  1  0
 20 22  1  0
  9 23  2  0
 23  5  1  0
 22 12  1  0
  1 24  1  0
  1 25  1  0
  1 26  1  0
  2 27  1  0
  6 28  1  0
  7 29  1  0
  8 30  1  0
 10 31  1  0
 10 32  1  0
 18 33  1  0
 18 34  1  0
 18 35  1  0
 23 36  1  0
M  CHG  2  21  -1  22  -1
M  END
>  <UniqueID>  (50) 
46

>  <SMILES>  (50) 
CNC(=O)c1cccc(CSc2nc(=O)c(C(C)=O)c([O-])[n-]2)c1

>  <Energy>  (50) 
35.31636916516028

>  <Genealogy>  (50) 
CNC(=O)c1cccc(CSc2nc(=O)c(C(C)=O)c([O-])[n-]2)c1 (protonated)
CNC(=O)c1cccc(CSc2nc(=O)c(C(C)=O)c([O-])[n-]2)c1 (3D coordinates assigned)
CNC(=O)c1cccc(CSc2nc(=O)c(C(C)=O)c([O-])[n-]2)c1 (optimized conformer: 35.31636916516028 kcal/mol)

>  <smiles>  (50) 
CNC(=O)c1cccc(CSc2nc(=O)c(C(C)=O)c(O)[nH]2)c1

>  <score_type>  (50) 
oracle

>  <origin>  (50) 
adg

>  <m_score__min__energy>  (50) 
-12.91

>  <m_primary>  (50) 
energy

$$$$
50:0
     RDKit          3D

 49 51  0  0  0  0  0  0  0  0999 V2000
   58.3620   22.6880   44.7840 C   0  0  0  0  0  0  0  0  0  0  0  0
   57.3420   23.4180   44.0140 N   0  0  0  0  0  0  0  0  0  0  0  0
   56.5760   22.5160   43.1420 C   0  0  0  0  0  0  0  0  0  0  0  0
   56.4790   24.2750   44.8540 C   0  0  0  0  0  0  0  0  0  0  0  0
   57.0930   24.6670   46.2140 C   0  0  0  0  0  0  0  0  0  0  0  0
   56.6210   26.0510   46.7020 C   0  0  0  0  0  0  0  0  0  0  0  0
   57.6340   27.1030   46.4920 N   0  0  0  0  0  0  0  0  0  0  0  0
   57.6500   27.8160   45.2400 C   0  0  0  0  0  0  0  0  0  0  0  0
   57.9350   27.0120   43.8360 S   0  0  0  0  0  0  0  0  0  0  0  0
   57.4290   29.2780   45.2140 C   0  0  0  0  0  0  0  0  0  0  0  0
   56.1810   29.8030   44.8580 C   0  0  0  0  0  0  0  0  0  0  0  0
   55.1400   28.9680   44.4700 O   0  0  0  0  0  0  0  0  0  0  0  0
   55.9830   31.1450   44.8690 N   0  0  0  0  0  0  0  0  0  0  0  0
   56.9690   32.0060   45.2220 C   0  0  0  0  0  0  0  0  0  0  0  0
   56.7290   33.2460   45.2300 O   0  0  0  0  0  0  0  0  0  0  0  0
   58.2050   31.5270   45.5800 N   0  0  0  0  0  0  0  0  0  0  0  0
   59.2410   32.4400   45.9960 C   0  0  0  0  0  0  0  0  0  0  0  0
   60.2130   32.0370   46.9240 C   0  0  0  0  0  0  0  0  0  0  0  0
   61.2190   32.9270   47.3150 C   0  0  0  0  0  0  0  0  0  0  0  0
   61.2640   34.2160   46.7740 C   0  0  0  0  0  0  0  0  0  0  0  0
   60.2940   34.6230   45.8550 C   0  0  0  0  0  0  0  0  0  0  0  0
   59.2820   33.7400   45.4690 C   0  0  0  0  0  0  0  0  0  0  0  0
   58.4510   30.1770   45.5650 C   0  0  0  0  0  0  0  0  0  0  0  0
   59.6020   29.7370   45.8570 O   0  0  0  0  0  0  0  0  0  0  0  0
   58.5980   27.4280   47.5230 C   0  0  0  0  0  0  0  0  0  0  0  0
   58.8110   28.6870   47.9780 N   0  0  0  0  0  0  0  0  0  0  0  0
   59.9030   28.7800   48.7820 C   0  0  0  0  0  0  0  0  0  0  0  0
   60.5560   27.5730   49.0150 C   0  0  0  0  0  0  0  0  0  0  0  0
   59.7490   26.3680   48.1610 S   0  0  0  0  0  0  0  0  0  0  0  0
   58.1749   22.8219   45.8597 H   0  0  0  0  0  0  0  0  0  0  0  0
   58.3140   21.6179   44.5339 H   0  0  0  0  0  0  0  0  0  0  0  0
   59.3594   23.0786   44.5339 H   0  0  0  0  0  0  0  0  0  0  0  0
   55.9867   21.8221   43.7594 H   0  0  0  0  0  0  0  0  0  0  0  0
   55.8995   23.1068   42.5070 H   0  0  0  0  0  0  0  0  0  0  0  0
   57.2686   21.9441   42.5070 H   0  0  0  0  0  0  0  0  0  0  0  0
   56.2642   25.1981   44.2956 H   0  0  0  0  0  0  0  0  0  0  0  0
   55.5770   23.6862   45.0770 H   0  0  0  0  0  0  0  0  0  0  0  0
   56.8043   23.9130   46.9611 H   0  0  0  0  0  0  0  0  0  0  0  0
   58.1844   24.7142   46.0850 H   0  0  0  0  0  0  0  0  0  0  0  0
   55.7086   26.3259   46.1525 H   0  0  0  0  0  0  0  0  0  0  0  0
   56.4367   25.9775   47.7840 H   0  0  0  0  0  0  0  0  0  0  0  0
   60.1840   31.0209   47.3443 H   0  0  0  0  0  0  0  0  0  0  0  0
   61.9757   32.6126   48.0489 H   0  0  0  0  0  0  0  0  0  0  0  0
   62.0638   34.9097   47.0724 H   0  0  0  0  0  0  0  0  0  0  0  0
   60.3267   35.6391   45.4349 H   0  0  0  0  0  0  0  0  0  0  0  0
   58.5154   34.0648   44.7501 H   0  0  0  0  0  0  0  0  0  0  0  0
   58.2570   29.5250   47.6850 H   0  0  0  0  0  0  0  0  0  0  0  0
   60.2434   29.7327   49.2139 H   0  0  0  0  0  0  0  0  0  0  0  0
   61.4449   27.4314   49.6473 H   0  0  0  0  0  0  0  0  0  0  0  0
  1  2  1  0
  2  3  1  0
  2  4  1  0
  4  5  1  0
  5  6  1  0
  6  7  1  0
  7  8  1  0
  8  9  2  0
  8 10  1  0
 10 11  2  0
 11 12  1  0
 11 13  1  0
 13 14  1  0
 14 15  2  0
 14 16  1  0
 16 17  1  0
 17 18  2  0
 18 19  1  0
 19 20  2  0
 20 21  1  0
 21 22  2  0
 16 23  1  0
 23 24  2  0
  7 25  1  0
 25 26  2  0
 26 27  1  0
 27 28  2  0
 28 29  1  0
 23 10  1  0
 29 25  1  0
 22 17  1  0
  1 30  1  0
  1 31  1  0
  1 32  1  0
  3 33  1  0
  3 34  1  0
  3 35  1  0
  4 36  1  0
  4 37  1  0
  5 38  1  0
  5 39  1  0
  6 40  1  0
  6 41  1  0
 18 42  1  0
 19 43  1  0
 20 44  1  0
 21 45  1  0
 22 46  1  0
 26 47  1  0
 27 48  1  0
 28 49  1  0
M  CHG  3  12  -1  13  -1  26   1
M  END
>  <UniqueID>  (51) 
47

>  <SMILES>  (51) 
CN(C)CCCN(C(=S)c1c([O-])[n-]c(=O)n(-c2ccccc2)c1=O)c1[nH+]ccs1

>  <Energy>  (51) 
103.62203142614383

>  <Genealogy>  (51) 
CN(C)CCCN(C(=S)c1c([O-])[n-]c(=O)n(-c2ccccc2)c1=O)c1[nH+]ccs1 (protonated)
CN(C)CCCN(C(=S)c1c([O-])[n-]c(=O)n(-c2ccccc2)c1=O)c1[nH+]ccs1 (3D coordinates assigned)
CN(C)CCCN(C(=S)c1c([O-])[n-]c(=O)n(-c2ccccc2)c1=O)c1[nH+]ccs1 (optimized conformer: 103.62203142614383 kcal/mol)

>  <smiles>  (51) 
CN(C)CCCN(C(=S)c1c(O)[nH]c(=O)n(-c2ccccc2)c1=O)c1nccs1

>  <score_type>  (51) 
oracle

>  <origin>  (51) 
adg

>  <m_score__min__energy>  (51) 
-10.24

>  <m_primary>  (51) 
energy

$$$$
51:0
     RDKit          3D

 48 50  0  0  0  0  0  0  0  0999 V2000
   62.9890   33.8190   47.1880 C   0  0  0  0  0  0  0  0  0  0  0  0
   61.5200   33.5250   47.3570 C   0  0  0  0  0  0  0  0  0  0  0  0
   60.6410   34.5950   47.5780 C   0  0  0  0  0  0  0  0  0  0  0  0
   59.2760   34.3730   47.7360 C   0  0  0  0  0  0  0  0  0  0  0  0
   58.7680   33.0780   47.6810 C   0  0  0  0  0  0  0  0  0  0  0  0
   59.6220   31.9810   47.4900 C   0  0  0  0  0  0  0  0  0  0  0  0
   59.0630   30.6490   47.4580 N   0  0  0  0  0  0  0  0  0  0  0  0
   59.0550   29.8290   48.6830 C   0  0  0  0  0  0  0  0  0  0  0  0
   59.9230   30.4450   49.7940 C   0  0  0  0  0  0  0  0  0  0  0  0
   59.1570   31.4100   50.6680 C   0  0  0  0  0  0  0  0  0  0  0  0
   57.8890   31.0640   51.1680 C   0  0  0  0  0  0  0  0  0  0  0  0
   57.2040   31.9350   52.0200 C   0  0  0  0  0  0  0  0  0  0  0  0
   57.7670   33.1670   52.3620 C   0  0  0  0  0  0  0  0  0  0  0  0
   59.0110   33.5360   51.8420 C   0  0  0  0  0  0  0  0  0  0  0  0
   59.7000   32.6670   50.9900 C   0  0  0  0  0  0  0  0  0  0  0  0
   58.3710   30.2170   46.2690 C   0  0  0  0  0  0  0  0  0  0  0  0
   57.4760   30.9530   45.7710 O   0  0  0  0  0  0  0  0  0  0  0  0
   58.6950   28.9100   45.5940 C   0  0  0  0  0  0  0  0  0  0  0  0
   57.6110   27.9060   45.8460 C   0  0  0  0  0  0  0  0  0  0  0  0
   57.8380   26.6570   46.2920 N   0  0  0  0  0  0  0  0  0  0  0  0
   56.6070   26.1020   46.3090 C   0  0  0  0  0  0  0  0  0  0  0  0
   56.4030   24.9170   46.6800 O   0  0  0  0  0  0  0  0  0  0  0  0
   55.6120   26.9160   45.8950 N   0  0  0  0  0  0  0  0  0  0  0  0
   56.2620   28.0530   45.5990 C   0  0  0  0  0  0  0  0  0  0  0  0
   55.6280   29.1920   45.1080 O   0  0  0  0  0  0  0  0  0  0  0  0
   61.0180   32.1960   47.3400 C   0  0  0  0  0  0  0  0  0  0  0  0
   61.9560   31.0280   47.1310 C   0  0  0  0  0  0  0  0  0  0  0  0
   63.4603   33.9133   48.1775 H   0  0  0  0  0  0  0  0  0  0  0  0
   63.4655   32.9984   46.6316 H   0  0  0  0  0  0  0  0  0  0  0  0
   63.1130   34.7598   46.6316 H   0  0  0  0  0  0  0  0  0  0  0  0
   61.0345   35.6210   47.6270 H   0  0  0  0  0  0  0  0  0  0  0  0
   58.5975   35.2222   47.9046 H   0  0  0  0  0  0  0  0  0  0  0  0
   57.6858   32.9129   47.7884 H   0  0  0  0  0  0  0  0  0  0  0  0
   58.0204   29.7438   49.0467 H   0  0  0  0  0  0  0  0  0  0  0  0
   59.4716   28.8418   48.4340 H   0  0  0  0  0  0  0  0  0  0  0  0
   60.3139   29.6334   50.4253 H   0  0  0  0  0  0  0  0  0  0  0  0
   60.7322   31.0094   49.3075 H   0  0  0  0  0  0  0  0  0  0  0  0
   57.4338   30.1028   50.8871 H   0  0  0  0  0  0  0  0  0  0  0  0
   56.2204   31.6501   52.4217 H   0  0  0  0  0  0  0  0  0  0  0  0
   57.2312   33.8469   53.0407 H   0  0  0  0  0  0  0  0  0  0  0  0
   59.4484   34.5109   52.1032 H   0  0  0  0  0  0  0  0  0  0  0  0
   60.6710   32.9678   50.5697 H   0  0  0  0  0  0  0  0  0  0  0  0
   58.7900   29.0759   44.5107 H   0  0  0  0  0  0  0  0  0  0  0  0
   59.6401   28.5232   46.0028 H   0  0  0  0  0  0  0  0  0  0  0  0
   55.6440   30.0690   45.6130 H   0  0  0  0  0  0  0  0  0  0  0  0
   62.2731   30.6331   48.1075 H   0  0  0  0  0  0  0  0  0  0  0  0
   61.4382   30.2383   46.5668 H   0  0  0  0  0  0  0  0  0  0  0  0
   62.8388   31.3631   46.5668 H   0  0  0  0  0  0  0  0  0  0  0  0
  1  2  1  0
  2  3  2  0
  3  4  1  0
  4  5  2  0
  5  6  1  0
  6  7  1  0
  7  8  1  0
  8  9  1  0
  9 10  1  0
 10 11  2  0
 11 12  1  0
 12 13  2  0
 13 14  1  0
 14 15  2  0
  7 16  1  0
 16 17  2  0
 16 18  1  0
 18 19  1  0
 19 20  1  0
 20 21  1  0
 21 22  2  0
 21 23  1  0
 23 24  1  0
 24 25  1  0
  6 26  2  0
 26 27  1  0
 26  2  1  0
 15 10  1  0
 24 19  2  0
  1 28  1  0
  1 29  1  0
  1 30  1  0
  3 31  1  0
  4 32  1  0
  5 33  1  0
  8 34  1  0
  8 35  1  0
  9 36  1  0
  9 37  1  0
 11 38  1  0
 12 39  1  0
 13 40  1  0
 14 41  1  0
 15 42  1  0
 18 43  1  0
 18 44  1  0
 25 45  1  0
 27 46  1  0
 27 47  1  0
 27 48  1  0
M  CHG  2  20  -1  23  -1
M  END
>  <UniqueID>  (52) 
48

>  <SMILES>  (52) 
Cc1cccc(N(CCc2ccccc2)C(=O)Cc2[n-]c(=O)[n-]c2O)c1C

>  <Energy>  (52) 
81.24053864742704

>  <Genealogy>  (52) 
Cc1cccc(N(CCc2ccccc2)C(=O)Cc2[n-]c(=O)[n-]c2O)c1C (protonated)
Cc1cccc(N(CCc2ccccc2)C(=O)Cc2[n-]c(=O)[n-]c2O)c1C (3D coordinates assigned)
Cc1cccc(N(CCc2ccccc2)C(=O)Cc2[n-]c(=O)[n-]c2O)c1C (optimized conformer: 81.24053864742704 kcal/mol)

>  <smiles>  (52) 
Cc1cccc(N(CCc2ccccc2)C(=O)Cc2[nH]c(=O)[nH]c2O)c1C

>  <score_type>  (52) 
oracle

>  <origin>  (52) 
adg

>  <m_score__min__energy>  (52) 
-12.050000000000001

>  <m_primary>  (52) 
energy

$$$$
52:0
     RDKit          3D

 45 48  0  0  0  0  0  0  0  0999 V2000
   56.3840   25.8130   47.1150 O   0  0  0  0  0  0  0  0  0  0  0  0
   56.0460   26.4420   46.0780 C   0  0  0  0  0  0  0  0  0  0  0  0
   54.7360   26.3350   45.6250 O   0  0  0  0  0  0  0  0  0  0  0  0
   57.0240   27.3000   45.3600 C   0  0  0  0  0  0  0  0  0  0  0  0
   58.3470   26.8610   45.1200 C   0  0  0  0  0  0  0  0  0  0  0  0
   58.7800   25.5330   45.4510 N   0  0  0  0  0  0  0  0  0  0  0  0
   58.0910   24.3400   45.0310 C   0  0  0  0  0  0  0  0  0  0  0  0
   57.3970   24.2800   43.8050 C   0  0  0  0  0  0  0  0  0  0  0  0
   56.7330   23.1090   43.4230 C   0  0  0  0  0  0  0  0  0  0  0  0
   56.7620   21.9890   44.2560 C   0  0  0  0  0  0  0  0  0  0  0  0
   57.4820   22.0260   45.4570 C   0  0  0  0  0  0  0  0  0  0  0  0
   58.1350   23.1980   45.8490 C   0  0  0  0  0  0  0  0  0  0  0  0
   57.5370   20.8760   46.2520 O   0  0  0  0  0  0  0  0  0  0  0  0
   57.1150   19.6080   45.7450 C   0  0  0  0  0  0  0  0  0  0  0  0
   55.8720   19.7740   44.8610 C   0  0  0  0  0  0  0  0  0  0  0  0
   56.0790   20.8200   43.9080 O   0  0  0  0  0  0  0  0  0  0  0  0
   59.2650   27.7320   44.5360 C   0  0  0  0  0  0  0  0  0  0  0  0
   58.8640   29.0050   44.1440 C   0  0  0  0  0  0  0  0  0  0  0  0
   57.5760   29.4220   44.3290 N   0  0  0  0  0  0  0  0  0  0  0  0
   57.2100   30.7880   43.9160 C   0  0  0  0  0  0  0  0  0  0  0  0
   57.6530   31.7850   44.9530 C   0  0  0  0  0  0  0  0  0  0  0  0
   58.1580   31.3430   46.1880 C   0  0  0  0  0  0  0  0  0  0  0  0
   58.5400   32.2660   47.1650 C   0  0  0  0  0  0  0  0  0  0  0  0
   58.4160   33.6360   46.9200 C   0  0  0  0  0  0  0  0  0  0  0  0
   57.9080   34.0850   45.6980 C   0  0  0  0  0  0  0  0  0  0  0  0
   57.5240   33.1650   44.7170 C   0  0  0  0  0  0  0  0  0  0  0  0
   56.6600   28.6010   44.9410 C   0  0  0  0  0  0  0  0  0  0  0  0
   55.4850   29.0170   45.1470 O   0  0  0  0  0  0  0  0  0  0  0  0
   59.7140   25.4310   45.9090 H   0  0  0  0  0  0  0  0  0  0  0  0
   57.3775   25.1595   43.1446 H   0  0  0  0  0  0  0  0  0  0  0  0
   56.1889   23.0710   42.4677 H   0  0  0  0  0  0  0  0  0  0  0  0
   58.6853   23.2266   46.8010 H   0  0  0  0  0  0  0  0  0  0  0  0
   57.9276   19.1669   45.1491 H   0  0  0  0  0  0  0  0  0  0  0  0
   56.8670   18.9495   46.5905 H   0  0  0  0  0  0  0  0  0  0  0  0
   55.6762   18.8314   44.3289 H   0  0  0  0  0  0  0  0  0  0  0  0
   55.0121   20.0327   45.4963 H   0  0  0  0  0  0  0  0  0  0  0  0
   60.3068   27.4128   44.3850 H   0  0  0  0  0  0  0  0  0  0  0  0
   59.5932   29.6848   43.6791 H   0  0  0  0  0  0  0  0  0  0  0  0
   57.6980   31.0202   42.9579 H   0  0  0  0  0  0  0  0  0  0  0  0
   56.1170   30.8475   43.8071 H   0  0  0  0  0  0  0  0  0  0  0  0
   58.2530   30.2652   46.3863 H   0  0  0  0  0  0  0  0  0  0  0  0
   58.9387   31.9138   48.1278 H   0  0  0  0  0  0  0  0  0  0  0  0
   58.7184   34.3616   47.6895 H   0  0  0  0  0  0  0  0  0  0  0  0
   57.8100   35.1639   45.5073 H   0  0  0  0  0  0  0  0  0  0  0  0
   57.1200   33.5221   43.7582 H   0  0  0  0  0  0  0  0  0  0  0  0
  1  2  2  0
  2  3  1  0
  2  4  1  0
  4  5  2  0
  5  6  1  0
  6  7  1  0
  7  8  2  0
  8  9  1  0
  9 10  2  0
 10 11  1  0
 11 12  2  0
 11 13  1  0
 13 14  1  0
 14 15  1  0
 15 16  1  0
  5 17  1  0
 17 18  2  0
 18 19  1  0
 19 20  1  0
 20 21  1  0
 21 22  2  0
 22 23  1  0
 23 24  2  0
 24 25  1  0
 25 26  2  0
 19 27  1  0
 27 28  2  0
 27  4  1  0
 12  7  1  0
 26 21  1  0
 16 10  1  0
  6 29  1  0
  8 30  1  0
  9 31  1  0
 12 32  1  0
 14 33  1  0
 14 34  1  0
 15 35  1  0
 15 36  1  0
 17 37  1  0
 18 38  1  0
 20 39  1  0
 20 40  1  0
 22 41  1  0
 23 42  1  0
 24 43  1  0
 25 44  1  0
 26 45  1  0
M  CHG  1   3  -1
M  END
>  <UniqueID>  (53) 
49

>  <SMILES>  (53) 
O=C([O-])c1c(Nc2ccc3c(c2)OCCO3)ccn(Cc2ccccc2)c1=O

>  <Energy>  (53) 
63.760451547385465

>  <Genealogy>  (53) 
O=C([O-])c1c(Nc2ccc3c(c2)OCCO3)ccn(Cc2ccccc2)c1=O (protonated)
O=C([O-])c1c(Nc2ccc3c(c2)OCCO3)ccn(Cc2ccccc2)c1=O (3D coordinates assigned)
O=C([O-])c1c(Nc2ccc3c(c2)OCCO3)ccn(Cc2ccccc2)c1=O (nonaromatic ring conformer: 63.760451547385465 kcal/mol)

>  <smiles>  (53) 
O=C(O)c1c(Nc2ccc3c(c2)OCCO3)ccn(Cc2ccccc2)c1=O

>  <score_type>  (53) 
oracle

>  <origin>  (53) 
adg

>  <m_score__min__energy>  (53) 
-11.609999999999999

>  <m_primary>  (53) 
energy

$$$$
53:0
     RDKit          3D

 39 42  0  0  0  0  0  0  0  0999 V2000
   56.6330   33.9050   47.7200 H   0  0  0  0  0  0  0  0  0  0  0  0
   57.2860   33.4190   47.1530 O   0  0  0  0  0  0  0  0  0  0  0  0
   58.4750   33.3650   47.8890 C   0  0  0  0  0  0  0  0  0  0  0  0
   58.4958   34.1911   48.6151 H   0  0  0  0  0  0  0  0  0  0  0  0
   59.3345   33.4566   47.2087 H   0  0  0  0  0  0  0  0  0  0  0  0
   58.5470   32.0540   48.6180 C   0  0  0  0  0  0  0  0  0  0  0  0
   59.1150   30.9310   47.9980 C   0  0  0  0  0  0  0  0  0  0  0  0
   59.4858   31.0038   46.9649 H   0  0  0  0  0  0  0  0  0  0  0  0
   59.2110   29.7220   48.6880 C   0  0  0  0  0  0  0  0  0  0  0  0
   59.6483   28.8421   48.1935 H   0  0  0  0  0  0  0  0  0  0  0  0
   58.7540   29.6250   50.0040 C   0  0  0  0  0  0  0  0  0  0  0  0
   58.8287   28.6663   50.5381 H   0  0  0  0  0  0  0  0  0  0  0  0
   58.1990   30.7430   50.6520 C   0  0  0  0  0  0  0  0  0  0  0  0
   57.7380   30.6250   52.0560 C   0  0  0  0  0  0  0  0  0  0  0  0
   56.8760   29.6800   52.4780 N   0  0  0  0  0  0  0  0  0  0  0  0
   56.7680   29.9280   53.7990 C   0  0  0  0  0  0  0  0  0  0  0  0
   56.0340   29.2270   54.6080 N   0  0  0  0  0  0  0  0  0  0  0  0
   54.5270   28.5050   54.1390 S   0  0  0  0  0  0  0  0  0  0  0  0
   54.7870   27.4360   53.1170 O   0  0  0  0  0  0  0  0  0  0  0  0
   53.8800   27.8750   55.3420 O   0  0  0  0  0  0  0  0  0  0  0  0
   53.4670   29.7230   53.4350 C   0  0  0  0  0  0  0  0  0  0  0  0
   52.7740   30.6220   54.2800 C   0  0  0  0  0  0  0  0  0  0  0  0
   52.9415   30.5877   55.3666 H   0  0  0  0  0  0  0  0  0  0  0  0
   51.8730   31.5590   53.7430 C   0  0  0  0  0  0  0  0  0  0  0  0
   51.3357   32.2648   54.3934 H   0  0  0  0  0  0  0  0  0  0  0  0
   51.6810   31.5670   52.3630 C   0  0  0  0  0  0  0  0  0  0  0  0
   50.8500   32.3670   51.6700 N   0  0  0  0  0  0  0  0  0  0  0  0
   51.0190   31.9700   50.3860 C   0  0  0  0  0  0  0  0  0  0  0  0
   50.3350   32.5440   49.3220 O   0  0  0  0  0  0  0  0  0  0  0  0
   51.9380   30.9390   50.2570 C   0  0  0  0  0  0  0  0  0  0  0  0
   52.2606   30.4322   49.3355 H   0  0  0  0  0  0  0  0  0  0  0  0
   52.3530   30.6960   51.5440 C   0  0  0  0  0  0  0  0  0  0  0  0
   53.2570   29.7620   52.0400 C   0  0  0  0  0  0  0  0  0  0  0  0
   53.7911   29.0758   51.3663 H   0  0  0  0  0  0  0  0  0  0  0  0
   57.4920   30.9470   54.1950 O   0  0  0  0  0  0  0  0  0  0  0  0
   58.1110   31.4080   53.1360 C   0  0  0  0  0  0  0  0  0  0  0  0
   58.8025   32.2631   53.1095 H   0  0  0  0  0  0  0  0  0  0  0  0
   58.1050   31.9600   49.9490 C   0  0  0  0  0  0  0  0  0  0  0  0
   57.6817   32.8452   50.4463 H   0  0  0  0  0  0  0  0  0  0  0  0
  1  2  1  0
  2  3  1  0
  3  4  1  0
  3  5  1  0
  3  6  1  0
  6  7  2  0
  7  8  1  0
  7  9  1  0
  9 10  1  0
  9 11  2  0
 11 12  1  0
 11 13  1  0
 13 14  1  0
 14 15  1  0
 15 16  1  0
 16 17  2  0
 17 18  1  0
 18 19  2  0
 18 20  2  0
 18 21  1  0
 21 22  2  0
 22 23  1  0
 22 24  1  0
 24 25  1  0
 24 26  2  0
 26 27  1  0
 27 28  1  0
 28 29  1  0
 28 30  2  0
 30 31  1  0
 30 32  1  0
 32 33  2  0
 33 34  1  0
 16 35  1  0
 35 36  1  0
 36 37  1  0
 13 38  2  0
 38 39  1  0
 38  6  1  0
 36 14  2  0
 33 21  1  0
 32 26  1  0
M  CHG  3  15  -1  27  -1  29  -1
M  END
>  <UniqueID>  (54) 
50

>  <SMILES>  (54) 
O=S(=O)(/N=c1\[n-]c(-c2cccc(CO)c2)co1)c1ccc2[n-]c([O-])cc2c1

>  <Energy>  (54) 
107.49859956680139

>  <Genealogy>  (54) 
O=S(=O)(N=c1[n-]c(-c2cccc(CO)c2)co1)c1ccc2[n-]c([O-])cc2c1 (protonated)
O=S(=O)(/N=c1\[n-]c(-c2cccc(CO)c2)co1)c1ccc2[n-]c([O-])cc2c1 (cis-trans isomerization)
O=S(=O)(/N=c1\[n-]c(-c2cccc(CO)c2)co1)c1ccc2[n-]c([O-])cc2c1 (3D coordinates assigned)
O=S(=O)(/N=c1\[n-]c(-c2cccc(CO)c2)co1)c1ccc2[n-]c([O-])cc2c1 (optimized conformer: 107.49859956680139 kcal/mol)

>  <smiles>  (54) 
O=S(=O)(N=c1[nH]c(-c2cccc(CO)c2)co1)c1ccc2[nH]c(O)cc2c1

>  <score_type>  (54) 
oracle

>  <origin>  (54) 
adg

>  <m_score__min__energy>  (54) 
-14.5

>  <m_primary>  (54) 
energy

$$$$
54:0
     RDKit          3D

 19 20  0  0  0  0  0  0  0  0999 V2000
   55.2520   30.1110   44.2760 O   0  0  0  0  0  0  0  0  0  0  0  0
   56.2100   29.3970   44.6750 C   0  0  0  0  0  0  0  0  0  0  0  0
   57.4830   29.8940   44.4650 C   0  0  0  0  0  0  0  0  0  0  0  0
   58.6990   29.3320   44.7940 C   0  0  0  0  0  0  0  0  0  0  0  0
   58.9770   28.1160   45.4250 C   0  0  0  0  0  0  0  0  0  0  0  0
   60.3550   27.8470   45.6110 C   0  0  0  0  0  0  0  0  0  0  0  0
   60.7980   26.6820   46.2220 C   0  0  0  0  0  0  0  0  0  0  0  0
   59.8810   25.7490   46.6650 C   0  0  0  0  0  0  0  0  0  0  0  0
   58.5210   25.9790   46.5010 C   0  0  0  0  0  0  0  0  0  0  0  0
   58.0180   27.1600   45.8800 C   0  0  0  0  0  0  0  0  0  0  0  0
   56.6010   27.2660   45.7760 C   0  0  0  0  0  0  0  0  0  0  0  0
   55.9040   26.3190   46.2350 O   0  0  0  0  0  0  0  0  0  0  0  0
   55.8940   28.2530   45.2480 O   0  0  0  0  0  0  0  0  0  0  0  0
   57.5330   30.8733   43.9665 H   0  0  0  0  0  0  0  0  0  0  0  0
   59.5808   29.9293   44.5190 H   0  0  0  0  0  0  0  0  0  0  0  0
   61.0950   28.5820   45.2614 H   0  0  0  0  0  0  0  0  0  0  0  0
   61.8753   26.5025   46.3529 H   0  0  0  0  0  0  0  0  0  0  0  0
   60.2278   24.8235   47.1479 H   0  0  0  0  0  0  0  0  0  0  0  0
   57.8074   25.2241   46.8626 H   0  0  0  0  0  0  0  0  0  0  0  0
  1  2  2  0
  2  3  1  0
  3  4  2  0
  4  5  1  0
  5  6  2  0
  6  7  1  0
  7  8  2  0
  8  9  1  0
  9 10  2  0
 10 11  1  0
 11 12  2  0
 11 13  1  0
 13  2  1  0
 10  5  1  0
  3 14  1  0
  4 15  1  0
  6 16  1  0
  7 17  1  0
  8 18  1  0
  9 19  1  0
M  END
>  <UniqueID>  (55) 
51

>  <SMILES>  (55) 
O=c1ccc2ccccc2c(=O)o1

>  <Energy>  (55) 
53.042582596774686

>  <Genealogy>  (55) 
O=c1ccc2ccccc2c(=O)o1 (3D coordinates assigned)
O=c1ccc2ccccc2c(=O)o1 (optimized conformer: 53.042582596774686 kcal/mol)

>  <smiles>  (55) 
O=c1ccc2ccccc2c(=O)o1

>  <score_type>  (55) 
oracle

>  <origin>  (55) 
adg

>  <m_score__min__energy>  (55) 
-5.6100000000000003

>  <m_primary>  (55) 
energy

$$$$
55:0
     RDKit          3D

 56 58  0  0  0  0  0  0  0  0999 V2000
   63.2010   33.8570   46.2520 C   0  0  0  0  0  0  0  0  0  0  0  0
   62.9990   33.6070   47.7170 C   0  0  0  0  0  0  0  0  0  0  0  0
   64.1240   33.4130   48.4580 N   0  0  0  0  0  0  0  0  0  0  0  0
   64.0930   33.1150   49.7750 C   0  0  0  0  0  0  0  0  0  0  0  0
   62.8770   32.9430   50.4140 C   0  0  0  0  0  0  0  0  0  0  0  0
   61.6820   33.1260   49.7050 C   0  0  0  0  0  0  0  0  0  0  0  0
   60.4490   32.7810   50.3560 N   0  0  0  0  0  0  0  0  0  0  0  0
   60.3320   31.4270   50.9070 C   0  0  0  0  0  0  0  0  0  0  0  0
   59.6530   33.8330   50.9880 C   0  0  0  0  0  0  0  0  0  0  0  0
   61.7190   33.5380   48.3450 C   0  0  0  0  0  0  0  0  0  0  0  0
   60.2030   34.0040   47.4930 S   0  0  0  0  0  0  0  0  0  0  0  0
   59.3170   34.8040   48.4060 O   0  0  0  0  0  0  0  0  0  0  0  0
   60.5210   34.8980   46.3260 O   0  0  0  0  0  0  0  0  0  0  0  0
   59.2960   32.6340   46.8810 N   0  0  2  0  0  0  0  0  0  0  0  0
   58.0150   33.0600   46.2900 C   0  0  0  0  0  0  0  0  0  0  0  0
   57.7800   32.4040   44.9470 C   0  0  0  0  0  0  0  0  0  0  0  0
   57.0140   31.2330   44.8590 C   0  0  0  0  0  0  0  0  0  0  0  0
   56.7650   30.6430   43.6150 C   0  0  0  0  0  0  0  0  0  0  0  0
   57.2780   31.2200   42.4530 C   0  0  0  0  0  0  0  0  0  0  0  0
   58.0430   32.3900   42.5300 C   0  0  0  0  0  0  0  0  0  0  0  0
   58.2900   32.9830   43.7720 C   0  0  0  0  0  0  0  0  0  0  0  0
   59.0810   31.6490   47.9210 C   0  0  0  0  0  0  0  0  0  0  0  0
   58.2040   31.8170   48.7570 O   0  0  0  0  0  0  0  0  0  0  0  0
   59.8510   30.3530   47.9250 C   0  0  0  0  0  0  0  0  0  0  0  0
   59.4940   29.5080   46.7340 C   0  0  0  0  0  0  0  0  0  0  0  0
   58.3070   28.7570   46.7310 C   0  0  0  0  0  0  0  0  0  0  0  0
   57.9770   27.9650   45.6260 C   0  0  0  0  0  0  0  0  0  0  0  0
   58.8270   27.9200   44.5170 C   0  0  0  0  0  0  0  0  0  0  0  0
   60.0050   28.6730   44.5080 C   0  0  0  0  0  0  0  0  0  0  0  0
   60.3370   29.4700   45.6090 C   0  0  0  0  0  0  0  0  0  0  0  0
   63.8870   34.7061   46.1161 H   0  0  0  0  0  0  0  0  0  0  0  0
   63.6307   32.9597   45.7827 H   0  0  0  0  0  0  0  0  0  0  0  0
   62.2335   34.0886   45.7827 H   0  0  0  0  0  0  0  0  0  0  0  0
   65.0317   33.0092   50.3385 H   0  0  0  0  0  0  0  0  0  0  0  0
   62.8488   32.6629   51.4774 H   0  0  0  0  0  0  0  0  0  0  0  0
   60.3363   31.4767   52.0059 H   0  0  0  0  0  0  0  0  0  0  0  0
   59.3912   30.9717   50.5642 H   0  0  0  0  0  0  0  0  0  0  0  0
   61.1808   30.8170   50.5642 H   0  0  0  0  0  0  0  0  0  0  0  0
   59.7238   33.7394   52.0817 H   0  0  0  0  0  0  0  0  0  0  0  0
   60.0345   34.8173   50.6788 H   0  0  0  0  0  0  0  0  0  0  0  0
   58.6021   33.7334   50.6788 H   0  0  0  0  0  0  0  0  0  0  0  0
   59.8820   32.2210   46.1220 H   0  0  0  0  0  0  0  0  0  0  0  0
   57.1971   32.7830   46.9714 H   0  0  0  0  0  0  0  0  0  0  0  0
   58.0481   34.1494   46.1415 H   0  0  0  0  0  0  0  0  0  0  0  0
   56.6066   30.7757   45.7728 H   0  0  0  0  0  0  0  0  0  0  0  0
   56.1643   29.7236   43.5531 H   0  0  0  0  0  0  0  0  0  0  0  0
   57.0813   30.7553   41.4756 H   0  0  0  0  0  0  0  0  0  0  0  0
   58.4497   32.8427   41.6136 H   0  0  0  0  0  0  0  0  0  0  0  0
   58.8856   33.9060   43.8298 H   0  0  0  0  0  0  0  0  0  0  0  0
   60.9281   30.5749   47.8982 H   0  0  0  0  0  0  0  0  0  0  0  0
   59.5936   29.7964   48.8382 H   0  0  0  0  0  0  0  0  0  0  0  0
   57.6344   28.7917   47.6007 H   0  0  0  0  0  0  0  0  0  0  0  0
   57.0474   27.3769   45.6298 H   0  0  0  0  0  0  0  0  0  0  0  0
   58.5690   27.2921   43.6514 H   0  0  0  0  0  0  0  0  0  0  0  0
   60.6719   28.6388   43.6339 H   0  0  0  0  0  0  0  0  0  0  0  0
   61.2598   30.0685   45.5946 H   0  0  0  0  0  0  0  0  0  0  0  0
  1  2  1  0
  2  3  2  0
  3  4  1  0
  4  5  2  0
  5  6  1  0
  6  7  1  0
  7  8  1  0
  7  9  1  0
  6 10  2  0
 10 11  1  0
 11 12  2  0
 11 13  2  0
 11 14  1  0
 14 15  1  0
 15 16  1  0
 16 17  2  0
 17 18  1  0
 18 19  2  0
 19 20  1  0
 20 21  2  0
 14 22  1  0
 22 23  2  0
 22 24  1  0
 24 25  1  0
 25 26  2  0
 26 27  1  0
 27 28  2  0
 28 29  1  0
 29 30  2  0
 10  2  1  0
 21 16  1  0
 30 25  1  0
  1 31  1  0
  1 32  1  0
  1 33  1  0
  4 34  1  0
  5 35  1  0
  8 36  1  0
  8 37  1  0
  8 38  1  0
  9 39  1  0
  9 40  1  0
  9 41  1  0
 14 42  1  6
 15 43  1  0
 15 44  1  0
 17 45  1  0
 18 46  1  0
 19 47  1  0
 20 48  1  0
 21 49  1  0
 24 50  1  0
 24 51  1  0
 26 52  1  0
 27 53  1  0
 28 54  1  0
 29 55  1  0
 30 56  1  0
M  CHG  1  14   1
M  END
>  <UniqueID>  (56) 
52

>  <SMILES>  (56) 
Cc1nccc(N(C)C)c1S(=O)(=O)[N@H+](Cc1ccccc1)C(=O)Cc1ccccc1

>  <Energy>  (56) 
65.10253054449333

>  <Genealogy>  (56) 
Cc1nccc(N(C)C)c1S(=O)(=O)[NH+](Cc1ccccc1)C(=O)Cc1ccccc1 (protonated)
Cc1nccc(N(C)C)c1S(=O)(=O)[N@H+](Cc1ccccc1)C(=O)Cc1ccccc1 (chirality)
Cc1nccc(N(C)C)c1S(=O)(=O)[N@H+](Cc1ccccc1)C(=O)Cc1ccccc1 (3D coordinates assigned)
Cc1nccc(N(C)C)c1S(=O)(=O)[N@H+](Cc1ccccc1)C(=O)Cc1ccccc1 (optimized conformer: 65.10253054449333 kcal/mol)

>  <smiles>  (56) 
Cc1nccc(N(C)C)c1S(=O)(=O)N(Cc1ccccc1)C(=O)Cc1ccccc1

>  <score_type>  (56) 
oracle

>  <origin>  (56) 
adg

>  <m_score__min__energy>  (56) 
-6.9199999999999999

>  <m_primary>  (56) 
energy

$$$$
56:0
     RDKit          3D

 46 49  0  0  0  0  0  0  0  0999 V2000
   57.3910   20.0810   43.6980 H   0  0  0  0  0  0  0  0  0  0  0  0
   56.8690   20.7350   43.1270 O   0  0  0  0  0  0  0  0  0  0  0  0
   56.2640   21.8520   43.6940 C   0  0  0  0  0  0  0  0  0  0  0  0
   55.4990   22.7090   42.9900 N   0  0  0  0  0  0  0  0  0  0  0  0
   55.1070   23.6440   43.8790 C   0  0  0  0  0  0  0  0  0  0  0  0
   54.4708   24.5086   43.6386 H   0  0  0  0  0  0  0  0  0  0  0  0
   55.6150   23.3660   45.1340 C   0  0  0  0  0  0  0  0  0  0  0  0
   55.4590   24.2070   46.3590 C   0  0  0  0  0  0  0  0  0  0  0  0
   54.4849   23.9988   46.8257 H   0  0  0  0  0  0  0  0  0  0  0  0
   56.2633   23.9717   47.0716 H   0  0  0  0  0  0  0  0  0  0  0  0
   55.5310   25.6180   45.9900 N   0  0  0  0  0  0  0  0  0  0  0  0
   56.6410   26.2890   45.9120 C   0  0  0  0  0  0  0  0  0  0  0  0
   56.6270   27.6470   45.8000 N   0  0  0  0  0  0  0  0  0  0  0  0
   57.7690   28.3830   45.7020 C   0  0  0  0  0  0  0  0  0  0  0  0
   57.6630   29.8510   45.5230 C   0  0  0  0  0  0  0  0  0  0  0  0
   57.1120   30.4400   44.3670 C   0  0  0  0  0  0  0  0  0  0  0  0
   56.5900   29.4960   42.9750 Cl  0  0  0  0  0  0  0  0  0  0  0  0
   57.0440   31.8330   44.2830 C   0  0  0  0  0  0  0  0  0  0  0  0
   56.5981   32.3061   43.3957 H   0  0  0  0  0  0  0  0  0  0  0  0
   57.5250   32.6060   45.2900 N   0  0  0  0  0  0  0  0  0  0  0  0
   58.0890   32.0810   46.4090 C   0  0  0  0  0  0  0  0  0  0  0  0
   58.5430   32.9070   47.3150 N   0  0  0  0  0  0  0  0  0  0  0  0
   59.8980   33.4360   47.5390 C   0  0  0  0  0  0  0  0  0  0  0  0
   59.7490   34.1711   48.3436 H   0  0  0  0  0  0  0  0  0  0  0  0
   60.9050   32.3770   48.0040 C   0  0  0  0  0  0  0  0  0  0  0  0
   61.1614   32.5353   49.0619 H   0  0  0  0  0  0  0  0  0  0  0  0
   60.4872   31.3636   47.9115 H   0  0  0  0  0  0  0  0  0  0  0  0
   62.1460   32.5440   47.1300 C   0  0  0  0  0  0  0  0  0  0  0  0
   63.0488   32.5791   47.7574 H   0  0  0  0  0  0  0  0  0  0  0  0
   62.2539   31.6996   46.4333 H   0  0  0  0  0  0  0  0  0  0  0  0
   61.9810   33.8570   46.3750 C   0  0  0  0  0  0  0  0  0  0  0  0
   62.4934   34.6705   46.9095 H   0  0  0  0  0  0  0  0  0  0  0  0
   62.4193   33.7964   45.3679 H   0  0  0  0  0  0  0  0  0  0  0  0
   60.4860   34.1290   46.3110 C   0  0  0  0  0  0  0  0  0  0  0  0
   60.2891   35.2106   46.3476 H   0  0  0  0  0  0  0  0  0  0  0  0
   60.0407   33.7562   45.3768 H   0  0  0  0  0  0  0  0  0  0  0  0
   58.1650   30.6820   46.5370 C   0  0  0  0  0  0  0  0  0  0  0  0
   58.6194   30.2377   47.4348 H   0  0  0  0  0  0  0  0  0  0  0  0
   59.0090   27.7260   45.6810 C   0  0  0  0  0  0  0  0  0  0  0  0
   59.9402   28.3006   45.5680 H   0  0  0  0  0  0  0  0  0  0  0  0
   59.0490   26.3360   45.8050 C   0  0  0  0  0  0  0  0  0  0  0  0
   60.0162   25.8120   45.8073 H   0  0  0  0  0  0  0  0  0  0  0  0
   57.8630   25.6110   45.9260 C   0  0  0  0  0  0  0  0  0  0  0  0
   57.8896   24.5164   46.0314 H   0  0  0  0  0  0  0  0  0  0  0  0
   56.3700   22.2200   45.0190 C   0  0  0  0  0  0  0  0  0  0  0  0
   56.9352   21.7088   45.8122 H   0  0  0  0  0  0  0  0  0  0  0  0
  1  2  1  0
  2  3  1  0
  3  4  1  0
  4  5  1  0
  5  6  1  0
  5  7  2  0
  7  8  1  0
  8  9  1  0
  8 10  1  0
  8 11  1  0
 11 12  2  0
 12 13  1  0
 13 14  1  0
 14 15  1  0
 15 16  1  0
 16 17  1  0
 16 18  2  0
 18 19  1  0
 18 20  1  0
 20 21  1  0
 21 22  2  0
 22 23  1  0
 23 24  1  0
 23 25  1  0
 25 26  1  0
 25 27  1  0
 25 28  1  0
 28 29  1  0
 28 30  1  0
 28 31  1  0
 31 32  1  0
 31 33  1  0
 31 34  1  0
 34 35  1  0
 34 36  1  0
 21 37  1  0
 37 38  1  0
 14 39  2  0
 39 40  1  0
 39 41  1  0
 41 42  1  0
 41 43  2  0
 43 44  1  0
  7 45  1  0
 45 46  1  0
 45  3  2  0
 43 12  1  0
 37 15  2  0
 34 23  1  0
M  CHG  3   4  -1  13  -1  20  -1
M  END
>  <UniqueID>  (57) 
53

>  <SMILES>  (57) 
Oc1cc(C/N=c2/cccc(-c3c/c(=N\C4CCCC4)[n-]cc3Cl)[n-]2)c[n-]1

>  <Energy>  (57) 
85.47240646585547

>  <Genealogy>  (57) 
Oc1cc(CN=c2cccc(-c3cc(=NC4CCCC4)[n-]cc3Cl)[n-]2)c[n-]1 (protonated)
Oc1cc(C/N=c2/cccc(-c3c/c(=N\C4CCCC4)[n-]cc3Cl)[n-]2)c[n-]1 (cis-trans isomerization)
Oc1cc(C/N=c2/cccc(-c3c/c(=N\C4CCCC4)[n-]cc3Cl)[n-]2)c[n-]1 (3D coordinates assigned)
Oc1cc(C/N=c2/cccc(-c3c/c(=N\C4CCCC4)[n-]cc3Cl)[n-]2)c[n-]1 (nonaromatic ring conformer: 85.47240646585547 kcal/mol)

>  <smiles>  (57) 
Oc1cc(CN=c2cccc(-c3cc(=NC4CCCC4)[nH]cc3Cl)[nH]2)c[nH]1

>  <score_type>  (57) 
oracle

>  <origin>  (57) 
adg

>  <m_score__min__energy>  (57) 
-14.460000000000001

>  <m_primary>  (57) 
energy

$$$$
57:0
     RDKit          3D

 63 66  0  0  0  0  0  0  0  0999 V2000
   56.3959   22.9952   43.4315 H   0  0  0  0  0  0  0  0  0  0  0  0
   55.6860   23.7580   43.7840 C   0  0  0  0  0  0  0  0  0  0  0  0
   54.9580   24.1964   43.0856 H   0  0  0  0  0  0  0  0  0  0  0  0
   55.7080   24.1510   45.0570 C   0  0  0  0  0  0  0  0  0  0  0  0
   56.4454   23.6977   45.7359 H   0  0  0  0  0  0  0  0  0  0  0  0
   54.7880   25.1650   45.5920 C   0  0  0  0  0  0  0  0  0  0  0  0
   53.5550   24.9120   45.6150 O   0  0  0  0  0  0  0  0  0  0  0  0
   55.2780   26.4410   46.0290 N   0  0  0  0  0  0  0  0  0  0  0  0
   56.6520   26.8220   46.1920 C   0  0  0  0  0  0  0  0  0  0  0  0
   57.4390   26.1130   47.1070 C   0  0  0  0  0  0  0  0  0  0  0  0
   56.9999   25.2797   47.6752 H   0  0  0  0  0  0  0  0  0  0  0  0
   58.7780   26.4570   47.3030 C   0  0  0  0  0  0  0  0  0  0  0  0
   59.3920   25.8881   48.0167 H   0  0  0  0  0  0  0  0  0  0  0  0
   59.3400   27.5230   46.5940 C   0  0  0  0  0  0  0  0  0  0  0  0
   60.3968   27.7873   46.7467 H   0  0  0  0  0  0  0  0  0  0  0  0
   58.5570   28.2580   45.6860 C   0  0  0  0  0  0  0  0  0  0  0  0
   59.0740   29.3500   44.9720 O   0  0  0  0  0  0  0  0  0  0  0  0
   58.6970   30.6760   45.2060 C   0  0  0  0  0  0  0  0  0  0  0  0
   59.3850   31.3980   46.1280 N   0  0  0  0  0  0  0  0  0  0  0  0
   59.0970   32.7020   46.3770 C   0  0  0  0  0  0  0  0  0  0  0  0
   59.7540   33.4000   47.2590 N   0  0  0  0  0  0  0  0  0  0  0  0
   61.0170   33.1830   47.9270 C   0  0  0  0  0  0  0  0  0  0  0  0
   62.1800   32.7090   47.2820 C   0  0  0  0  0  0  0  0  0  0  0  0
   62.1622   32.5108   46.2002 H   0  0  0  0  0  0  0  0  0  0  0  0
   63.3530   32.4900   48.0080 C   0  0  0  0  0  0  0  0  0  0  0  0
   64.2517   32.1205   47.4924 H   0  0  0  0  0  0  0  0  0  0  0  0
   63.3960   32.7360   49.3840 C   0  0  0  0  0  0  0  0  0  0  0  0
   64.5960   32.4410   50.1200 N   0  0  0  0  0  0  0  0  0  0  0  0
   64.5850   31.3520   51.0980 C   0  0  0  0  0  0  0  0  0  0  0  0
   64.3482   31.7585   52.0923 H   0  0  0  0  0  0  0  0  0  0  0  0
   63.8250   30.6128   50.8048 H   0  0  0  0  0  0  0  0  0  0  0  0
   65.9580   30.6690   51.1430 C   0  0  0  0  0  0  0  0  0  0  0  0
   65.9792   29.9770   51.9978 H   0  0  0  0  0  0  0  0  0  0  0  0
   66.0980   30.1401   50.1887 H   0  0  0  0  0  0  0  0  0  0  0  0
   67.0690   31.6330   51.2870 N   0  0  0  0  0  0  0  0  0  0  0  0
   67.1460   32.2050   52.6440 C   0  0  0  0  0  0  0  0  0  0  0  0
   67.0378   31.4014   53.3873 H   0  0  0  0  0  0  0  0  0  0  0  0
   68.1189   32.7003   52.7785 H   0  0  0  0  0  0  0  0  0  0  0  0
   66.3387   32.9400   52.7785 H   0  0  0  0  0  0  0  0  0  0  0  0
   67.0420   32.6680   50.2320 C   0  0  0  0  0  0  0  0  0  0  0  0
   67.8354   33.4016   50.4381 H   0  0  0  0  0  0  0  0  0  0  0  0
   67.1960   32.1633   49.2668 H   0  0  0  0  0  0  0  0  0  0  0  0
   65.6980   33.4050   50.1610 C   0  0  0  0  0  0  0  0  0  0  0  0
   65.5875   34.0461   51.0480 H   0  0  0  0  0  0  0  0  0  0  0  0
   65.6725   34.0195   49.2490 H   0  0  0  0  0  0  0  0  0  0  0  0
   62.2550   33.2340   50.0310 C   0  0  0  0  0  0  0  0  0  0  0  0
   62.2660   33.3890   51.3750 F   0  0  0  0  0  0  0  0  0  0  0  0
   61.0730   33.4720   49.3030 C   0  0  0  0  0  0  0  0  0  0  0  0
   59.9220   33.9720   49.9300 O   0  0  0  0  0  0  0  0  0  0  0  0
   59.1530   33.2190   50.8640 C   0  0  0  0  0  0  0  0  0  0  0  0
   59.4408   33.5008   51.8876 H   0  0  0  0  0  0  0  0  0  0  0  0
   58.0839   33.4292   50.7127 H   0  0  0  0  0  0  0  0  0  0  0  0
   59.3407   32.1457   50.7127 H   0  0  0  0  0  0  0  0  0  0  0  0
   58.0980   33.3040   45.6840 N   0  0  0  0  0  0  0  0  0  0  0  0
   57.3660   32.6260   44.7640 C   0  0  0  0  0  0  0  0  0  0  0  0
   56.5684   33.1432   44.2105 H   0  0  0  0  0  0  0  0  0  0  0  0
   57.6210   31.2690   44.5150 C   0  0  0  0  0  0  0  0  0  0  0  0
   56.7810   30.4990   43.5220 C   0  0  0  0  0  0  0  0  0  0  0  0
   55.5500   30.2090   44.0800 F   0  0  0  0  0  0  0  0  0  0  0  0
   56.5930   31.2390   42.3690 F   0  0  0  0  0  0  0  0  0  0  0  0
   57.3970   29.3100   43.1700 F   0  0  0  0  0  0  0  0  0  0  0  0
   57.2110   27.9120   45.5010 C   0  0  0  0  0  0  0  0  0  0  0  0
   56.5871   28.4978   44.8098 H   0  0  0  0  0  0  0  0  0  0  0  0
  1  2  1  0
  2  3  1  0
  2  4  2  0
  4  5  1  0
  4  6  1  0
  6  7  2  0
  6  8  1  0
  8  9  1  0
  9 10  2  0
 10 11  1  0
 10 12  1  0
 12 13  1  0
 12 14  2  0
 14 15  1  0
 14 16  1  0
 16 17  1  0
 17 18  1  0
 18 19  2  0
 19 20  1  0
 20 21  2  0
 21 22  1  0
 22 23  2  0
 23 24  1  0
 23 25  1  0
 25 26  1  0
 25 27  2  0
 27 28  1  0
 28 29  1  0
 29 30  1  0
 29 31  1  0
 29 32  1  0
 32 33  1  0
 32 34  1  0
 32 35  1  0
 35 36  1  0
 36 37  1  0
 36 38  1  0
 36 39  1  0
 35 40  1  0
 40 41  1  0
 40 42  1  0
 40 43  1  0
 43 44  1  0
 43 45  1  0
 27 46  1  0
 46 47  1  0
 46 48  2  0
 48 49  1  0
 49 50  1  0
 50 51  1  0
 50 52  1  0
 50 53  1  0
 20 54  1  0
 54 55  1  0
 55 56  1  0
 55 57  2  0
 57 58  1  0
 58 59  1  0
 58 60  1  0
 58 61  1  0
 16 62  2  0
 62 63  1  0
 62  9  1  0
 57 18  1  0
 48 22  1  0
 43 28  1  0
M  CHG  2   8  -1  54  -1
M  END
>  <UniqueID>  (58) 
54

>  <SMILES>  (58) 
C=CC(=O)[N-]c1cccc(Oc2n/c(=N\c3ccc(N4CCN(C)CC4)c(F)c3OC)[n-]cc2C(F)(F)F)c1

>  <Energy>  (58) 
99.30899775072373

>  <Genealogy>  (58) 
C=CC(=O)[N-]c1cccc(Oc2nc(=Nc3ccc(N4CCN(C)CC4)c(F)c3OC)[n-]cc2C(F)(F)F)c1 (protonated)
C=CC(=O)[N-]c1cccc(Oc2n/c(=N\c3ccc(N4CCN(C)CC4)c(F)c3OC)[n-]cc2C(F)(F)F)c1 (cis-trans isomerization)
C=CC(=O)[N-]c1cccc(Oc2n/c(=N\c3ccc(N4CCN(C)CC4)c(F)c3OC)[n-]cc2C(F)(F)F)c1 (3D coordinates assigned)
C=CC(=O)[N-]c1cccc(Oc2n/c(=N\c3ccc(N4CCN(C)CC4)c(F)c3OC)[n-]cc2C(F)(F)F)c1 (nonaromatic ring conformer: 99.30899775072373 kcal/mol)

>  <smiles>  (58) 
C=CC(=O)Nc1cccc(Oc2nc(=Nc3ccc(N4CCN(C)CC4)c(F)c3OC)[nH]cc2C(F)(F)F)c1

>  <score_type>  (58) 
oracle

>  <origin>  (58) 
adg

>  <m_score__min__energy>  (58) 
-11.52

>  <m_primary>  (58) 
energy

$$$$
58:0
     RDKit          3D

 57 61  0  0  1  0  0  0  0  0999 V2000
   58.3010   27.9910   45.5630 O   0  0  0  0  0  0  0  0  0  0  0  0
   57.1140   27.5720   45.5370 C   0  0  0  0  0  0  0  0  0  0  0  0
   56.7510   26.3230   46.0460 N   0  0  0  0  0  0  0  0  0  0  0  0
   57.6620   25.3630   46.6450 C   0  0  0  0  0  0  0  0  0  0  0  0
   57.8910   24.1880   45.7660 C   0  0  0  0  0  0  0  0  0  0  0  0
   58.9670   23.3380   45.8890 C   0  0  0  0  0  0  0  0  0  0  0  0
   59.0630   22.2920   45.0060 C   0  0  0  0  0  0  0  0  0  0  0  0
   58.1340   22.0580   44.0110 C   0  0  0  0  0  0  0  0  0  0  0  0
   57.0560   22.9170   43.8940 C   0  0  0  0  0  0  0  0  0  0  0  0
   55.8530   22.6590   42.6480 Cl  0  0  0  0  0  0  0  0  0  0  0  0
   56.9400   23.9750   44.7720 C   0  0  0  0  0  0  0  0  0  0  0  0
   56.1610   28.4760   44.9420 N   0  0  0  0  0  0  0  0  0  0  0  0
   56.6840   29.7100   44.4740 C   0  0  0  0  0  0  0  0  0  0  0  0
   56.4710   30.0150   43.1440 C   0  0  0  0  0  0  0  0  0  0  0  0
   56.9340   31.2000   42.5830 C   0  0  0  0  0  0  0  0  0  0  0  0
   57.6140   32.0480   43.4320 C   0  0  0  0  0  0  0  0  0  0  0  0
   57.8320   31.7510   44.7700 C   0  0  0  0  0  0  0  0  0  0  0  0
   58.5680   32.7390   45.6050 C   0  0  0  0  0  0  0  0  0  0  0  0
   59.0240   33.9130   44.9610 C   0  0  0  0  0  0  0  0  0  0  0  0
   59.8540   34.8620   46.3200 S   0  0  0  0  0  0  0  0  0  0  0  0
   59.5080   33.6020   47.5880 C   0  0  0  0  0  0  0  0  0  0  0  0
   59.8270   33.5880   48.8960 C   0  0  0  0  0  0  0  0  0  0  0  0
   60.4490   34.5720   49.4130 N   0  0  0  0  0  0  0  0  0  0  0  0
   61.8370   34.5810   49.7950 C   0  0  0  0  0  0  0  0  0  0  0  0
   62.5090   33.6560   48.8080 C   0  0  0  0  0  0  0  0  0  0  0  0
   62.9320   34.1100   47.5750 C   0  0  0  0  0  0  0  0  0  0  0  0
   63.5490   33.3020   46.6400 C   0  0  0  0  0  0  0  0  0  0  0  0
   63.7590   31.9830   46.9320 C   0  0  0  0  0  0  0  0  0  0  0  0
   63.3450   31.4930   48.1650 C   0  0  0  0  0  0  0  0  0  0  0  0
   62.7260   32.3270   49.0910 C   0  0  0  0  0  0  0  0  0  0  0  0
   59.4600   32.5190   49.6520 N   0  0  0  0  0  0  0  0  0  0  0  0
   58.7940   31.5510   49.0040 C   0  0  0  0  0  0  0  0  0  0  0  0
   58.4740   31.5510   47.7200 N   0  0  0  0  0  0  0  0  0  0  0  0
   58.8230   32.6170   46.8990 C   0  0  0  0  0  0  0  0  0  0  0  0
   57.3680   30.5710   45.3120 C   0  0  0  0  0  0  0  0  0  0  0  0
   55.7460   26.0420   46.0000 H   0  0  0  0  0  0  0  0  0  0  0  0
   58.6259   25.8583   46.8336 H   0  0  0  0  0  0  0  0  0  0  0  0
   57.2088   25.0035   47.5806 H   0  0  0  0  0  0  0  0  0  0  0  0
   59.7257   23.4925   46.6703 H   0  0  0  0  0  0  0  0  0  0  0  0
   59.9198   21.6079   45.0947 H   0  0  0  0  0  0  0  0  0  0  0  0
   58.2491   21.2056   43.3253 H   0  0  0  0  0  0  0  0  0  0  0  0
   56.0837   24.6600   44.6853 H   0  0  0  0  0  0  0  0  0  0  0  0
   55.1530   28.2100   44.8750 H   0  0  0  0  0  0  0  0  0  0  0  0
   55.9209   29.3021   42.5122 H   0  0  0  0  0  0  0  0  0  0  0  0
   56.7677   31.4467   41.5240 H   0  0  0  0  0  0  0  0  0  0  0  0
   57.9990   32.9979   43.0325 H   0  0  0  0  0  0  0  0  0  0  0  0
   58.9125   34.1959   43.9039 H   0  0  0  0  0  0  0  0  0  0  0  0
   62.2536   35.5964   49.7215 H   0  0  0  0  0  0  0  0  0  0  0  0
   61.9855   34.2594   50.8364 H   0  0  0  0  0  0  0  0  0  0  0  0
   62.7695   35.1687   47.3244 H   0  0  0  0  0  0  0  0  0  0  0  0
   63.8677   33.7150   45.6716 H   0  0  0  0  0  0  0  0  0  0  0  0
   64.2478   31.3202   46.2028 H   0  0  0  0  0  0  0  0  0  0  0  0
   63.5086   30.4336   48.4117 H   0  0  0  0  0  0  0  0  0  0  0  0
   62.4062   31.9189   50.0611 H   0  0  0  0  0  0  0  0  0  0  0  0
   59.6920   32.4870   50.6520 H   0  0  0  0  0  0  0  0  0  0  0  0
   58.4853   30.6761   49.5951 H   0  0  0  0  0  0  0  0  0  0  0  0
   57.5357   30.3241   46.3707 H   0  0  0  0  0  0  0  0  0  0  0  0
  1  2  2  0
  2  3  1  0
  3  4  1  0
  4  5  1  0
  5  6  2  0
  6  7  1  0
  7  8  2  0
  8  9  1  0
  9 10  1  0
  9 11  2  0
  2 12  1  0
 12 13  1  0
 13 14  2  0
 14 15  1  0
 15 16  2  0
 16 17  1  0
 17 18  1  0
 18 19  2  0
 19 20  1  0
 20 21  1  0
 21 22  1  0
 22 23  2  0
 23 24  1  0
 24 25  1  0
 25 26  2  0
 26 27  1  0
 27 28  2  0
 28 29  1  0
 29 30  2  0
 22 31  1  0
 31 32  1  0
 32 33  2  0
 33 34  1  0
 17 35  2  0
 11  5  1  0
 35 13  1  0
 34 18  1  0
 34 21  2  0
 30 25  1  0
  3 36  1  0
  4 37  1  0
  4 38  1  0
  6 39  1  0
  7 40  1  0
  8 41  1  0
 11 42  1  0
 12 43  1  0
 14 44  1  0
 15 45  1  0
 16 46  1  0
 19 47  1  0
 24 48  1  0
 24 49  1  0
 26 50  1  0
 27 51  1  0
 28 52  1  0
 29 53  1  0
 30 54  1  0
 31 55  1  0
 32 56  1  0
 35 57  1  0
M  END
>  <smiles>  (59) 
O=C(NCc1cccc(Cl)c1)Nc1cccc(-c2csc3c(=NCc4ccccc4)[nH]cnc23)c1

>  <score_type>  (59) 
oracle

>  <origin>  (59) 
adg

>  <m_score__min__energy>  (59) 
-10.35

>  <m_primary>  (59) 
energy

$$$$
59:0
     RDKit          3D

 47 48  0  0  0  0  0  0  0  0999 V2000
   59.2940   35.3290   47.4060 N   0  0  0  0  0  0  0  0  0  0  0  0
   58.8610   34.2510   46.5650 C   0  0  0  0  0  0  0  0  0  0  0  0
   58.1560   34.5360   45.3840 C   0  0  0  0  0  0  0  0  0  0  0  0
   57.7230   33.5020   44.5510 C   0  0  0  0  0  0  0  0  0  0  0  0
   57.9880   32.1750   44.8910 C   0  0  0  0  0  0  0  0  0  0  0  0
   58.6950   31.8790   46.0590 C   0  0  0  0  0  0  0  0  0  0  0  0
   59.1550   32.9120   46.8940 C   0  0  0  0  0  0  0  0  0  0  0  0
   59.8740   32.6110   48.1010 N   0  0  0  0  0  0  0  0  0  0  0  0
   59.3630   32.7340   49.4360 C   0  0  0  0  0  0  0  0  0  0  0  0
   59.4670   33.8410   50.0250 O   0  0  0  0  0  0  0  0  0  0  0  0
   58.7210   31.5740   50.1530 C   0  0  0  0  0  0  0  0  0  0  0  0
   57.4240   31.9660   50.8820 C   0  0  0  0  0  0  0  0  0  0  0  0
   56.9830   30.9690   51.9700 C   0  0  0  0  0  0  0  0  0  0  0  0
   55.4490   30.8830   52.1380 C   0  0  0  0  0  0  0  0  0  0  0  0
   54.9860   29.4410   52.4080 C   0  0  0  0  0  0  0  0  0  0  0  0
   54.8230   29.1440   53.8980 C   0  0  0  0  0  0  0  0  0  0  0  0
   53.4190   28.9360   54.2280 N   0  0  0  0  0  0  0  0  0  0  0  0
   52.3240   29.6080   53.5930 C   0  0  0  0  0  0  0  0  0  0  0  0
   51.2450   28.9800   53.4240 O   0  0  0  0  0  0  0  0  0  0  0  0
   52.4100   31.0410   53.1460 C   0  0  0  0  0  0  0  0  0  0  0  0
   51.8670   31.1850   51.7570 C   0  0  0  0  0  0  0  0  0  0  0  0
   52.0800   30.2920   50.7730 N   0  0  0  0  0  0  0  0  0  0  0  0
   51.4020   30.8160   49.7290 C   0  0  0  0  0  0  0  0  0  0  0  0
   51.3630   30.2590   48.6010 O   0  0  0  0  0  0  0  0  0  0  0  0
   50.7690   31.9800   49.9900 N   0  0  0  0  0  0  0  0  0  0  0  0
   51.0710   32.1980   51.2790 C   0  0  0  0  0  0  0  0  0  0  0  0
   50.6360   33.3040   51.9970 O   0  0  0  0  0  0  0  0  0  0  0  0
   59.7470   35.1330   48.3260 H   0  0  0  0  0  0  0  0  0  0  0  0
   59.1590   36.3280   47.1320 H   0  0  0  0  0  0  0  0  0  0  0  0
   57.9435   35.5808   45.1134 H   0  0  0  0  0  0  0  0  0  0  0  0
   57.1731   33.7338   43.6269 H   0  0  0  0  0  0  0  0  0  0  0  0
   57.6398   31.3608   44.2385 H   0  0  0  0  0  0  0  0  0  0  0  0
   58.8930   30.8307   46.3270 H   0  0  0  0  0  0  0  0  0  0  0  0
   58.4869   30.7917   49.4160 H   0  0  0  0  0  0  0  0  0  0  0  0
   59.4332   31.2199   50.9128 H   0  0  0  0  0  0  0  0  0  0  0  0
   57.5778   32.9470   51.3554 H   0  0  0  0  0  0  0  0  0  0  0  0
   56.6273   31.9778   50.1236 H   0  0  0  0  0  0  0  0  0  0  0  0
   57.3610   29.9712   51.7025 H   0  0  0  0  0  0  0  0  0  0  0  0
   57.3948   31.3272   52.9250 H   0  0  0  0  0  0  0  0  0  0  0  0
   55.1468   31.5186   52.9834 H   0  0  0  0  0  0  0  0  0  0  0  0
   54.9820   31.2235   51.2021 H   0  0  0  0  0  0  0  0  0  0  0  0
   54.0182   29.2828   51.9096 H   0  0  0  0  0  0  0  0  0  0  0  0
   55.7600   28.7644   52.0168 H   0  0  0  0  0  0  0  0  0  0  0  0
   55.3921   28.2371   54.1504 H   0  0  0  0  0  0  0  0  0  0  0  0
   55.1998   30.0018   54.4743 H   0  0  0  0  0  0  0  0  0  0  0  0
   51.8245   31.6710   53.8318 H   0  0  0  0  0  0  0  0  0  0  0  0
   53.4640   31.3558   53.1530 H   0  0  0  0  0  0  0  0  0  0  0  0
  1  2  1  0
  2  3  2  0
  3  4  1  0
  4  5  2  0
  5  6  1  0
  6  7  2  0
  7  8  1  0
  8  9  1  0
  9 10  2  0
  9 11  1  0
 11 12  1  0
 12 13  1  0
 13 14  1  0
 14 15  1  0
 15 16  1  0
 16 17  1  0
 17 18  1  0
 18 19  2  0
 18 20  1  0
 20 21  1  0
 21 22  1  0
 22 23  1  0
 23 24  2  0
 23 25  1  0
 25 26  1  0
 26 27  1  0
  7  2  1  0
 26 21  2  0
  1 28  1  0
  1 29  1  0
  3 30  1  0
  4 31  1  0
  5 32  1  0
  6 33  1  0
 11 34  1  0
 11 35  1  0
 12 36  1  0
 12 37  1  0
 13 38  1  0
 13 39  1  0
 14 40  1  0
 14 41  1  0
 15 42  1  0
 15 43  1  0
 16 44  1  0
 16 45  1  0
 20 46  1  0
 20 47  1  0
M  CHG  5   8  -1  17  -1  22  -1  25  -1  27  -1
M  END
>  <UniqueID>  (60) 
55

>  <SMILES>  (60) 
Nc1ccccc1[N-]C(=O)CCCCCC[N-]C(=O)Cc1[n-]c(=O)[n-]c1[O-]

>  <Energy>  (60) 
68.42557937111174

>  <Genealogy>  (60) 
Nc1ccccc1[N-]C(=O)CCCCCC[N-]C(=O)Cc1[n-]c(=O)[n-]c1[O-] (protonated)
Nc1ccccc1[N-]C(=O)CCCCCC[N-]C(=O)Cc1[n-]c(=O)[n-]c1[O-] (3D coordinates assigned)
Nc1ccccc1[N-]C(=O)CCCCCC[N-]C(=O)Cc1[n-]c(=O)[n-]c1[O-] (optimized conformer: 68.42557937111174 kcal/mol)

>  <smiles>  (60) 
Nc1ccccc1NC(=O)CCCCCCNC(=O)Cc1[nH]c(=O)[nH]c1O

>  <score_type>  (60) 
oracle

>  <origin>  (60) 
adg

>  <m_score__min__energy>  (60) 
-19.859999999999999

>  <m_primary>  (60) 
energy

$$$$
60:0
     RDKit          3D

 41 43  0  0  0  0  0  0  0  0999 V2000
   58.8960   30.2750   47.3820 C   0  0  0  0  0  0  0  0  0  0  0  0
   58.2870   30.5280   46.2130 C   0  0  0  0  0  0  0  0  0  0  0  0
   58.1410   29.6550   45.1270 C   0  0  0  0  0  0  0  0  0  0  0  0
   58.3730   28.3350   44.9970 C   0  0  0  0  0  0  0  0  0  0  0  0
   57.5140   27.2590   45.5330 C   0  0  0  0  0  0  0  0  0  0  0  0
   56.1260   27.4190   45.6140 C   0  0  0  0  0  0  0  0  0  0  0  0
   55.5220   28.6120   45.2320 O   0  0  0  0  0  0  0  0  0  0  0  0
   55.3570   26.3980   46.0600 N   0  0  0  0  0  0  0  0  0  0  0  0
   55.8960   25.2080   46.4270 C   0  0  0  0  0  0  0  0  0  0  0  0
   55.1300   24.2890   46.8230 O   0  0  0  0  0  0  0  0  0  0  0  0
   57.2530   25.0120   46.3610 N   0  0  0  0  0  0  0  0  0  0  0  0
   57.8300   23.7060   46.7210 C   0  0  0  0  0  0  0  0  0  0  0  0
   58.0620   26.0160   45.8850 C   0  0  0  0  0  0  0  0  0  0  0  0
   59.3050   25.8290   45.7660 O   0  0  0  0  0  0  0  0  0  0  0  0
   57.6700   30.4540   44.0990 C   0  0  0  0  0  0  0  0  0  0  0  0
   57.4940   31.7100   44.5460 N   0  0  0  0  0  0  0  0  0  0  0  0
   57.8490   31.7540   45.8220 N   0  0  0  0  0  0  0  0  0  0  0  0
   57.7340   32.9610   46.5920 C   0  0  0  0  0  0  0  0  0  0  0  0
   56.5910   33.3780   46.9220 O   0  0  0  0  0  0  0  0  0  0  0  0
   58.9040   33.6510   47.0490 N   0  0  0  0  0  0  0  0  0  0  0  0
   60.0810   33.8840   46.2210 C   0  0  0  0  0  0  0  0  0  0  0  0
   61.3350   33.7220   47.0380 C   0  0  0  0  0  0  0  0  0  0  0  0
   61.2730   33.6650   48.4400 C   0  0  0  0  0  0  0  0  0  0  0  0
   62.4400   33.4930   49.1900 C   0  0  0  0  0  0  0  0  0  0  0  0
   63.6750   33.3740   48.5460 C   0  0  0  0  0  0  0  0  0  0  0  0
   63.7440   33.4250   47.1510 C   0  0  0  0  0  0  0  0  0  0  0  0
   62.5790   33.5960   46.3980 C   0  0  0  0  0  0  0  0  0  0  0  0
   58.9418   31.0532   48.1580 H   0  0  0  0  0  0  0  0  0  0  0  0
   59.3493   29.2894   47.5640 H   0  0  0  0  0  0  0  0  0  0  0  0
   59.2762   28.0330   44.4466 H   0  0  0  0  0  0  0  0  0  0  0  0
   57.8712   23.6127   47.8163 H   0  0  0  0  0  0  0  0  0  0  0  0
   57.2034   22.9019   46.3078 H   0  0  0  0  0  0  0  0  0  0  0  0
   58.8465   23.6278   46.3078 H   0  0  0  0  0  0  0  0  0  0  0  0
   57.4701   30.1131   43.0724 H   0  0  0  0  0  0  0  0  0  0  0  0
   60.0913   33.1599   45.3930 H   0  0  0  0  0  0  0  0  0  0  0  0
   60.0423   34.9093   45.8245 H   0  0  0  0  0  0  0  0  0  0  0  0
   60.3025   33.7561   48.9497 H   0  0  0  0  0  0  0  0  0  0  0  0
   62.3865   33.4513   50.2879 H   0  0  0  0  0  0  0  0  0  0  0  0
   64.5928   33.2402   49.1374 H   0  0  0  0  0  0  0  0  0  0  0  0
   64.7162   33.3305   46.6452 H   0  0  0  0  0  0  0  0  0  0  0  0
   62.6365   33.6320   45.3001 H   0  0  0  0  0  0  0  0  0  0  0  0
  1  2  2  0
  2  3  1  0
  3  4  2  3
  4  5  1  0
  5  6  2  0
  6  7  1  0
  6  8  1  0
  8  9  1  0
  9 10  2  0
  9 11  1  0
 11 12  1  0
 11 13  1  0
 13 14  2  0
  3 15  1  0
 15 16  2  0
 16 17  1  0
 17 18  1  0
 18 19  2  0
 18 20  1  0
 20 21  1  0
 21 22  1  0
 22 23  2  0
 23 24  1  0
 24 25  2  0
 25 26  1  0
 26 27  2  0
 17  2  1  0
 27 22  1  0
 13  5  1  0
  1 28  1  0
  1 29  1  0
  4 30  1  0
 12 31  1  0
 12 32  1  0
 12 33  1  0
 15 34  1  0
 21 35  1  0
 21 36  1  0
 23 37  1  0
 24 38  1  0
 25 39  1  0
 26 40  1  0
 27 41  1  0
M  CHG  3   7  -1   8  -1  20  -1
M  END
>  <UniqueID>  (61) 
56

>  <SMILES>  (61) 
C=c1c(=Cc2c([O-])[n-]c(=O)n(C)c2=O)cnn1C(=O)[N-]Cc1ccccc1

>  <Energy>  (61) 
94.82963391698499

>  <Genealogy>  (61) 
C=c1c(=Cc2c([O-])[n-]c(=O)n(C)c2=O)cnn1C(=O)[N-]Cc1ccccc1 (protonated)
C=c1c(=Cc2c([O-])[n-]c(=O)n(C)c2=O)cnn1C(=O)[N-]Cc1ccccc1 (3D coordinates assigned)
C=c1c(=Cc2c([O-])[n-]c(=O)n(C)c2=O)cnn1C(=O)[N-]Cc1ccccc1 (optimized conformer: 94.82963391698499 kcal/mol)

>  <smiles>  (61) 
C=c1c(=Cc2c(O)[nH]c(=O)n(C)c2=O)cnn1C(=O)NCc1ccccc1

>  <score_type>  (61) 
oracle

>  <origin>  (61) 
adg

>  <m_score__min__energy>  (61) 
-14.91

>  <m_primary>  (61) 
energy

$$$$
61:0
     RDKit          3D

 39 41  0  0  0  0  0  0  0  0999 V2000
   55.1550   28.9570   45.6080 H   0  0  0  0  0  0  0  0  0  0  0  0
   55.1480   29.6600   44.8370 N   0  0  0  0  0  0  0  0  0  0  0  0
   56.3650   30.1960   44.3230 C   0  0  0  0  0  0  0  0  0  0  0  0
   56.5200   30.2950   43.0760 O   0  0  0  0  0  0  0  0  0  0  0  0
   57.4110   30.7010   45.2340 C   0  0  0  0  0  0  0  0  0  0  0  0
   58.0400   29.9610   46.2500 C   0  0  0  0  0  0  0  0  0  0  0  0
   57.9610   28.5130   46.5060 C   0  0  0  0  0  0  0  0  0  0  0  0
   58.9000   27.9430   47.1240 O   0  0  0  0  0  0  0  0  0  0  0  0
   56.8890   27.7380   45.9560 N   0  0  0  0  0  0  0  0  0  0  0  0
   56.7980   26.3080   45.9790 C   0  0  0  0  0  0  0  0  0  0  0  0
   57.9820   25.5610   45.9080 C   0  0  0  0  0  0  0  0  0  0  0  0
   58.9513   26.0772   45.8441 H   0  0  0  0  0  0  0  0  0  0  0  0
   57.9380   24.1640   45.9180 C   0  0  0  0  0  0  0  0  0  0  0  0
   58.8725   23.5852   45.8777 H   0  0  0  0  0  0  0  0  0  0  0  0
   56.7110   23.5020   45.9790 C   0  0  0  0  0  0  0  0  0  0  0  0
   56.6792   22.4026   45.9980 H   0  0  0  0  0  0  0  0  0  0  0  0
   55.5220   24.2370   46.0160 C   0  0  0  0  0  0  0  0  0  0  0  0
   54.5552   23.7139   46.0570 H   0  0  0  0  0  0  0  0  0  0  0  0
   55.5580   25.6350   46.0010 C   0  0  0  0  0  0  0  0  0  0  0  0
   54.3600   26.3410   45.9720 O   0  0  0  0  0  0  0  0  0  0  0  0
   59.0570   30.9940   47.1110 S   0  0  0  0  0  0  0  0  0  0  0  0
   58.7280   32.3650   46.2040 C   0  0  0  0  0  0  0  0  0  0  0  0
   59.4360   33.9450   46.4730 S   0  0  0  0  0  0  0  0  0  0  0  0
   58.3330   34.9660   46.5230 O   0  0  0  0  0  0  0  0  0  0  0  0
   60.3840   34.2500   45.3470 O   0  0  0  0  0  0  0  0  0  0  0  0
   60.3020   33.9140   47.9790 N   0  0  0  0  0  0  0  0  0  0  0  0
   61.4250   33.3210   48.2810 C   0  0  0  0  0  0  0  0  0  0  0  0
   61.4370   32.5430   49.3990 N   0  0  0  0  0  0  0  0  0  0  0  0
   62.5420   31.8750   49.8200 C   0  0  0  0  0  0  0  0  0  0  0  0
   62.4987   31.2583   50.7298 H   0  0  0  0  0  0  0  0  0  0  0  0
   63.7290   31.9710   49.1000 C   0  0  0  0  0  0  0  0  0  0  0  0
   64.6283   31.4337   49.4355 H   0  0  0  0  0  0  0  0  0  0  0  0
   63.7650   32.7550   47.9500 C   0  0  0  0  0  0  0  0  0  0  0  0
   64.6981   32.8363   47.3732 H   0  0  0  0  0  0  0  0  0  0  0  0
   62.6190   33.4420   47.5220 C   0  0  0  0  0  0  0  0  0  0  0  0
   62.6930   34.2170   46.3670 O   0  0  0  0  0  0  0  0  0  0  0  0
   61.9030   34.7550   46.0320 H   0  0  0  0  0  0  0  0  0  0  0  0
   57.8170   32.0460   45.2090 C   0  0  0  0  0  0  0  0  0  0  0  0
   57.4480   32.7745   44.4720 H   0  0  0  0  0  0  0  0  0  0  0  0
  1  2  1  0
  2  3  1  0
  3  4  2  0
  3  5  1  0
  5  6  2  0
  6  7  1  0
  7  8  2  0
  7  9  1  0
  9 10  1  0
 10 11  2  0
 11 12  1  0
 11 13  1  0
 13 14  1  0
 13 15  2  0
 15 16  1  0
 15 17  1  0
 17 18  1  0
 17 19  2  0
 19 20  1  0
  6 21  1  0
 21 22  1  0
 22 23  1  0
 23 24  2  0
 23 25  2  0
 23 26  1  0
 26 27  2  0
 27 28  1  0
 28 29  1  0
 29 30  1  0
 29 31  2  0
 31 32  1  0
 31 33  1  0
 33 34  1  0
 33 35  2  0
 35 36  1  0
 36 37  1  0
 22 38  2  0
 38 39  1  0
 38  5  1  0
 19 10  1  0
 35 27  1  0
M  CHG  4   2  -1   9  -1  20  -1  28  -1
M  END
>  <UniqueID>  (62) 
57

>  <SMILES>  (62) 
[NH-]C(=O)c1cc(S(=O)(=O)/N=c2/[n-]cccc2O)sc1C(=O)[N-]c1ccccc1[O-]

>  <Energy>  (62) 
88.78807440647742

>  <Genealogy>  (62) 
[NH-]C(=O)c1cc(S(=O)(=O)N=c2[n-]cccc2O)sc1C(=O)[N-]c1ccccc1[O-] (protonated)
[NH-]C(=O)c1cc(S(=O)(=O)/N=c2/[n-]cccc2O)sc1C(=O)[N-]c1ccccc1[O-] (cis-trans isomerization)
[NH-]C(=O)c1cc(S(=O)(=O)/N=c2/[n-]cccc2O)sc1C(=O)[N-]c1ccccc1[O-] (3D coordinates assigned)
[NH-]C(=O)c1cc(S(=O)(=O)/N=c2/[n-]cccc2O)sc1C(=O)[N-]c1ccccc1[O-] (optimized conformer: 88.78807440647742 kcal/mol)

>  <smiles>  (62) 
NC(=O)c1cc(S(=O)(=O)N=c2[nH]cccc2O)sc1C(=O)Nc1ccccc1O

>  <score_type>  (62) 
oracle

>  <origin>  (62) 
adg

>  <m_score__min__energy>  (62) 
-17.719999999999999

>  <m_primary>  (62) 
energy

$$$$
62:0
     RDKit          3D

 60 64  0  0  0  0  0  0  0  0999 V2000
   63.0920   31.1760   47.0260 O   0  0  0  0  0  0  0  0  0  0  0  0
   62.7040   31.9560   47.9370 C   0  0  0  0  0  0  0  0  0  0  0  0
   62.7700   33.4380   47.7070 C   0  0  0  0  0  0  0  0  0  0  0  0
   61.3990   34.0400   47.5540 C   0  0  0  0  0  0  0  0  0  0  0  0
   60.8130   34.3990   46.3590 C   0  0  0  0  0  0  0  0  0  0  0  0
   59.5880   34.9100   46.5960 N   0  0  0  0  0  0  0  0  0  0  0  0
   59.4510   34.8510   47.9370 C   0  0  0  0  0  0  0  0  0  0  0  0
   60.5310   34.3260   48.5500 N   0  0  0  0  0  0  0  0  0  0  0  0
   60.6920   34.1450   49.9940 C   0  0  0  0  0  0  0  0  0  0  0  0
   59.5400   33.3710   50.5740 C   0  0  0  0  0  0  0  0  0  0  0  0
   58.9690   33.7640   51.7950 C   0  0  0  0  0  0  0  0  0  0  0  0
   57.9120   33.0320   52.3460 C   0  0  0  0  0  0  0  0  0  0  0  0
   57.4250   31.9000   51.6870 C   0  0  0  0  0  0  0  0  0  0  0  0
   57.9990   31.4940   50.4790 C   0  0  0  0  0  0  0  0  0  0  0  0
   59.0550   32.2220   49.9250 C   0  0  0  0  0  0  0  0  0  0  0  0
   62.2020   31.4300   49.1740 N   0  0  0  0  0  0  0  0  0  0  0  0
   61.4440   30.2150   49.2000 C   0  0  0  0  0  0  0  0  0  0  0  0
   61.1300   29.5840   50.4120 C   0  0  0  0  0  0  0  0  0  0  0  0
   60.4440   28.3670   50.4090 C   0  0  0  0  0  0  0  0  0  0  0  0
   60.0900   27.7620   49.2000 C   0  0  0  0  0  0  0  0  0  0  0  0
   60.4150   28.3750   47.9790 C   0  0  0  0  0  0  0  0  0  0  0  0
   60.0760   27.7000   46.6710 C   0  0  0  0  0  0  0  0  0  0  0  0
   58.7780   28.2160   46.1000 C   0  0  0  0  0  0  0  0  0  0  0  0
   57.7110   27.3730   46.0730 N   0  0  0  0  0  0  0  0  0  0  0  0
   56.5160   27.7550   45.6240 N   0  0  0  0  0  0  0  0  0  0  0  0
   56.2950   29.0150   45.1760 C   0  0  0  0  0  0  0  0  0  0  0  0
   55.1510   29.3310   44.7530 O   0  0  0  0  0  0  0  0  0  0  0  0
   57.3420   29.9480   45.1920 C   0  0  0  0  0  0  0  0  0  0  0  0
   58.6060   29.5460   45.6510 C   0  0  0  0  0  0  0  0  0  0  0  0
   59.7160   30.5720   45.6160 C   0  0  0  0  0  0  0  0  0  0  0  0
   59.2130   31.8980   46.2000 C   0  0  0  0  0  0  0  0  0  0  0  0
   57.8880   32.3910   45.5680 C   0  0  0  0  0  0  0  0  0  0  0  0
   57.1700   31.3580   44.6750 C   0  0  0  0  0  0  0  0  0  0  0  0
   61.0530   29.6270   47.9900 C   0  0  0  0  0  0  0  0  0  0  0  0
   63.2726   33.9096   48.5643 H   0  0  0  0  0  0  0  0  0  0  0  0
   63.3280   33.6156   46.7758 H   0  0  0  0  0  0  0  0  0  0  0  0
   61.2733   34.2861   45.3663 H   0  0  0  0  0  0  0  0  0  0  0  0
   58.5539   35.1946   48.4729 H   0  0  0  0  0  0  0  0  0  0  0  0
   61.6261   33.5966   50.1855 H   0  0  0  0  0  0  0  0  0  0  0  0
   60.7217   35.1365   50.4695 H   0  0  0  0  0  0  0  0  0  0  0  0
   59.3542   34.6505   52.3201 H   0  0  0  0  0  0  0  0  0  0  0  0
   57.4635   33.3479   53.2994 H   0  0  0  0  0  0  0  0  0  0  0  0
   56.5901   31.3286   52.1189 H   0  0  0  0  0  0  0  0  0  0  0  0
   57.6187   30.5997   49.9636 H   0  0  0  0  0  0  0  0  0  0  0  0
   59.5085   31.8950   48.9777 H   0  0  0  0  0  0  0  0  0  0  0  0
   62.0630   32.0980   49.9660 H   0  0  0  0  0  0  0  0  0  0  0  0
   61.4238   30.0473   51.3654 H   0  0  0  0  0  0  0  0  0  0  0  0
   60.1816   27.8833   51.3615 H   0  0  0  0  0  0  0  0  0  0  0  0
   59.5543   26.8012   49.2048 H   0  0  0  0  0  0  0  0  0  0  0  0
   60.8844   27.8919   45.9502 H   0  0  0  0  0  0  0  0  0  0  0  0
   59.9649   26.6218   46.8587 H   0  0  0  0  0  0  0  0  0  0  0  0
   60.5674   30.2100   46.2110 H   0  0  0  0  0  0  0  0  0  0  0  0
   60.0335   30.7297   44.5747 H   0  0  0  0  0  0  0  0  0  0  0  0
   59.0544   31.7643   47.2803 H   0  0  0  0  0  0  0  0  0  0  0  0
   59.9775   32.6578   45.9802 H   0  0  0  0  0  0  0  0  0  0  0  0
   57.2045   32.6718   46.3829 H   0  0  0  0  0  0  0  0  0  0  0  0
   58.1537   33.2334   44.9125 H   0  0  0  0  0  0  0  0  0  0  0  0
   56.0968   31.5977   44.6466 H   0  0  0  0  0  0  0  0  0  0  0  0
   57.6150   31.4088   43.6703 H   0  0  0  0  0  0  0  0  0  0  0  0
   61.2469   30.1493   47.0415 H   0  0  0  0  0  0  0  0  0  0  0  0
  1  2  2  0
  2  3  1  0
  3  4  1  0
  4  5  2  0
  5  6  1  0
  6  7  2  0
  7  8  1  0
  8  9  1  0
  9 10  1  0
 10 11  2  0
 11 12  1  0
 12 13  2  0
 13 14  1  0
 14 15  2  0
  2 16  1  0
 16 17  1  0
 17 18  2  0
 18 19  1  0
 19 20  2  0
 20 21  1  0
 21 22  1  0
 22 23  1  0
 23 24  2  0
 24 25  1  0
 25 26  1  0
 26 27  2  0
 26 28  1  0
 28 29  2  0
 29 30  1  0
 30 31  1  0
 31 32  1  0
 32 33  1  0
 21 34  2  0
  8  4  1  0
 15 10  1  0
 34 17  1  0
 29 23  1  0
 33 28  1  0
  3 35  1  0
  3 36  1  0
  5 37  1  0
  7 38  1  0
  9 39  1  0
  9 40  1  0
 11 41  1  0
 12 42  1  0
 13 43  1  0
 14 44  1  0
 15 45  1  0
 16 46  1  0
 18 47  1  0
 19 48  1  0
 20 49  1  0
 22 50  1  0
 22 51  1  0
 30 52  1  0
 30 53  1  0
 31 54  1  0
 31 55  1  0
 32 56  1  0
 32 57  1  0
 33 58  1  0
 33 59  1  0
 34 60  1  0
M  CHG  1  25  -1
M  END
>  <UniqueID>  (63) 
58

>  <SMILES>  (63) 
O=C(Cc1cncn1Cc1ccccc1)Nc1cccc(Cc2n[n-]c(=O)c3c2CCCC3)c1

>  <Energy>  (63) 
98.78590366032152

>  <Genealogy>  (63) 
O=C(Cc1cncn1Cc1ccccc1)Nc1cccc(Cc2n[n-]c(=O)c3c2CCCC3)c1 (protonated)
O=C(Cc1cncn1Cc1ccccc1)Nc1cccc(Cc2n[n-]c(=O)c3c2CCCC3)c1 (3D coordinates assigned)
O=C(Cc1cncn1Cc1ccccc1)Nc1cccc(Cc2n[n-]c(=O)c3c2CCCC3)c1 (nonaromatic ring conformer: 98.78590366032152 kcal/mol)

>  <smiles>  (63) 
O=C(Cc1cncn1Cc1ccccc1)Nc1cccc(Cc2n[nH]c(=O)c3c2CCCC3)c1

>  <score_type>  (63) 
oracle

>  <origin>  (63) 
adg

>  <m_score__min__energy>  (63) 
-13.26

>  <m_primary>  (63) 
energy

$$$$
63:0
     RDKit          3D

 56 59  0  0  0  0  0  0  0  0999 V2000
   60.6188   29.9249   45.5904 H   0  0  0  0  0  0  0  0  0  0  0  0
   60.7670   30.0750   46.6700 C   0  0  0  0  0  0  0  0  0  0  0  0
   60.0990   29.2550   47.5980 C   0  0  0  0  0  0  0  0  0  0  0  0
   59.1240   28.2090   47.1770 C   0  0  0  0  0  0  0  0  0  0  0  0
   59.3810   26.8330   47.3370 C   0  0  0  0  0  0  0  0  0  0  0  0
   60.2849   26.5049   47.8712 H   0  0  0  0  0  0  0  0  0  0  0  0
   58.4960   25.8820   46.8220 C   0  0  0  0  0  0  0  0  0  0  0  0
   58.7060   24.8104   46.9543 H   0  0  0  0  0  0  0  0  0  0  0  0
   57.3460   26.2860   46.1400 C   0  0  0  0  0  0  0  0  0  0  0  0
   56.6762   25.5331   45.6990 H   0  0  0  0  0  0  0  0  0  0  0  0
   57.0450   27.6450   46.0170 C   0  0  0  0  0  0  0  0  0  0  0  0
   55.9070   28.0450   45.2440 N   0  0  0  0  0  0  0  0  0  0  0  0
   55.7190   29.3730   44.7490 C   0  0  0  0  0  0  0  0  0  0  0  0
   54.7760   29.6180   43.9510 O   0  0  0  0  0  0  0  0  0  0  0  0
   56.5870   30.4320   45.1600 N   0  0  0  0  0  0  0  0  0  0  0  0
   57.4780   31.1320   44.2410 C   0  0  0  0  0  0  0  0  0  0  0  0
   56.9021   31.4857   43.3731 H   0  0  0  0  0  0  0  0  0  0  0  0
   58.2680   30.4431   43.9075 H   0  0  0  0  0  0  0  0  0  0  0  0
   58.1090   32.3110   44.9360 C   0  0  0  0  0  0  0  0  0  0  0  0
   58.5020   33.4330   44.1900 C   0  0  0  0  0  0  0  0  0  0  0  0
   58.4068   33.4225   43.0942 H   0  0  0  0  0  0  0  0  0  0  0  0
   59.0130   34.5620   44.8320 C   0  0  0  0  0  0  0  0  0  0  0  0
   59.3256   35.4346   44.2398 H   0  0  0  0  0  0  0  0  0  0  0  0
   59.1290   34.5880   46.2250 C   0  0  0  0  0  0  0  0  0  0  0  0
   59.6280   35.7230   46.8510 O   0  0  0  0  0  0  0  0  0  0  0  0
   58.7370   33.4790   46.9880 C   0  0  0  0  0  0  0  0  0  0  0  0
   58.8420   33.5590   48.3850 O   0  0  0  0  0  0  0  0  0  0  0  0
   60.0040   33.9950   49.0820 C   0  0  0  0  0  0  0  0  0  0  0  0
   59.8279   33.9289   50.1658 H   0  0  0  0  0  0  0  0  0  0  0  0
   60.8566   33.3556   48.8094 H   0  0  0  0  0  0  0  0  0  0  0  0
   60.2255   35.0374   48.8094 H   0  0  0  0  0  0  0  0  0  0  0  0
   58.2390   32.3340   46.3340 C   0  0  0  0  0  0  0  0  0  0  0  0
   57.9499   31.4514   46.9234 H   0  0  0  0  0  0  0  0  0  0  0  0
   57.9240   28.6000   46.5530 C   0  0  0  0  0  0  0  0  0  0  0  0
   57.6715   29.6684   46.4844 H   0  0  0  0  0  0  0  0  0  0  0  0
   60.2890   29.4830   48.9280 N   0  0  0  0  0  0  0  0  0  0  0  0
   61.1000   30.4630   49.4070 C   0  0  0  0  0  0  0  0  0  0  0  0
   61.1830   30.6220   50.6970 N   0  0  0  0  0  0  0  0  0  0  0  0
   60.4840   29.8400   51.7130 C   0  0  0  0  0  0  0  0  0  0  0  0
   60.4918   28.7771   51.4299 H   0  0  0  0  0  0  0  0  0  0  0  0
   60.9868   29.9594   52.6841 H   0  0  0  0  0  0  0  0  0  0  0  0
   59.0670   30.3230   51.8140 C   0  0  0  0  0  0  0  0  0  0  0  0
   58.7160   31.5860   51.3100 C   0  0  0  0  0  0  0  0  0  0  0  0
   59.4884   32.2347   50.8710 H   0  0  0  0  0  0  0  0  0  0  0  0
   57.3890   32.0220   51.3640 C   0  0  0  0  0  0  0  0  0  0  0  0
   57.1209   33.0153   50.9749 H   0  0  0  0  0  0  0  0  0  0  0  0
   56.4020   31.1970   51.9120 C   0  0  0  0  0  0  0  0  0  0  0  0
   55.3589   31.5433   51.9579 H   0  0  0  0  0  0  0  0  0  0  0  0
   56.7410   29.9310   52.4020 C   0  0  0  0  0  0  0  0  0  0  0  0
   55.7820   29.1280   52.9240 F   0  0  0  0  0  0  0  0  0  0  0  0
   58.0680   29.4920   52.3480 C   0  0  0  0  0  0  0  0  0  0  0  0
   58.3303   28.4925   52.7250 H   0  0  0  0  0  0  0  0  0  0  0  0
   61.7920   31.2820   48.4980 C   0  0  0  0  0  0  0  0  0  0  0  0
   62.4630   32.0739   48.8621 H   0  0  0  0  0  0  0  0  0  0  0  0
   61.6180   31.0790   47.1290 C   0  0  0  0  0  0  0  0  0  0  0  0
   62.1546   31.7139   46.4086 H   0  0  0  0  0  0  0  0  0  0  0  0
  1  2  1  0
  2  3  2  0
  3  4  1  0
  4  5  2  0
  5  6  1  0
  5  7  1  0
  7  8  1  0
  7  9  2  0
  9 10  1  0
  9 11  1  0
 11 12  1  0
 12 13  1  0
 13 14  2  0
 13 15  1  0
 15 16  1  0
 16 17  1  0
 16 18  1  0
 16 19  1  0
 19 20  2  0
 20 21  1  0
 20 22  1  0
 22 23  1  0
 22 24  2  0
 24 25  1  0
 24 26  1  0
 26 27  1  0
 27 28  1  0
 28 29  1  0
 28 30  1  0
 28 31  1  0
 26 32  2  0
 32 33  1  0
 11 34  2  0
 34 35  1  0
  3 36  1  0
 36 37  1  0
 37 38  2  0
 38 39  1  0
 39 40  1  0
 39 41  1  0
 39 42  1  0
 42 43  2  0
 43 44  1  0
 43 45  1  0
 45 46  1  0
 45 47  2  0
 47 48  1  0
 47 49  1  0
 49 50  1  0
 49 51  2  0
 51 52  1  0
 37 53  1  0
 53 54  1  0
 53 55  2  0
 55 56  1  0
 55  2  1  0
 34  4  1  0
 51 42  1  0
 32 19  1  0
M  CHG  4  12  -1  15  -1  25  -1  36  -1
M  END
>  <UniqueID>  (64) 
59

>  <SMILES>  (64) 
COc1cc(C[N-]C(=O)[N-]c2cccc(-c3ccc/c(=N\Cc4cccc(F)c4)[n-]3)c2)ccc1[O-]

>  <Energy>  (64) 
64.22263224840813

>  <Genealogy>  (64) 
COc1cc(C[N-]C(=O)[N-]c2cccc(-c3cccc(=NCc4cccc(F)c4)[n-]3)c2)ccc1[O-] (protonated)
COc1cc(C[N-]C(=O)[N-]c2cccc(-c3ccc/c(=N\Cc4cccc(F)c4)[n-]3)c2)ccc1[O-] (cis-trans isomerization)
COc1cc(C[N-]C(=O)[N-]c2cccc(-c3ccc/c(=N\Cc4cccc(F)c4)[n-]3)c2)ccc1[O-] (3D coordinates assigned)
COc1cc(C[N-]C(=O)[N-]c2cccc(-c3ccc/c(=N\Cc4cccc(F)c4)[n-]3)c2)ccc1[O-] (optimized conformer: 64.22263224840813 kcal/mol)

>  <smiles>  (64) 
COc1cc(CNC(=O)Nc2cccc(-c3cccc(=NCc4cccc(F)c4)[nH]3)c2)ccc1O

>  <score_type>  (64) 
oracle

>  <origin>  (64) 
adg

>  <m_score__min__energy>  (64) 
-15.710000000000001

>  <m_primary>  (64) 
energy

$$$$
64:0
     RDKit          3D

 42 45  0  0  0  0  0  0  0  0999 V2000
   56.2690   29.6960   44.6660 O   0  0  0  0  0  0  0  0  0  0  0  0
   56.9390   29.1610   45.5890 C   0  0  0  0  0  0  0  0  0  0  0  0
   57.9220   29.9240   46.3100 N   0  0  0  0  0  0  0  0  0  0  0  0
   58.1170   31.3380   46.1470 C   0  0  0  0  0  0  0  0  0  0  0  0
   58.1580   32.2050   47.2550 C   0  0  0  0  0  0  0  0  0  0  0  0
   58.3210   33.5810   47.0650 C   0  0  0  0  0  0  0  0  0  0  0  0
   58.4300   34.1040   45.7740 C   0  0  0  0  0  0  0  0  0  0  0  0
   58.3660   33.2520   44.6690 C   0  0  0  0  0  0  0  0  0  0  0  0
   58.2030   31.8750   44.8540 C   0  0  0  0  0  0  0  0  0  0  0  0
   56.7030   27.7370   45.8930 C   0  0  0  0  0  0  0  0  0  0  0  0
   55.5360   27.1230   45.6250 N   0  0  0  0  0  0  0  0  0  0  0  0
   55.7260   25.8680   46.0760 C   0  0  0  0  0  0  0  0  0  0  0  0
   54.8440   24.9750   45.9920 O   0  0  0  0  0  0  0  0  0  0  0  0
   56.9350   25.6460   46.6290 N   0  0  0  0  0  0  0  0  0  0  0  0
   57.5530   26.8370   46.5200 C   0  0  0  0  0  0  0  0  0  0  0  0
   58.9210   27.0910   47.0740 C   0  0  0  0  0  0  0  0  0  0  0  0
   60.0160   27.6820   45.7420 S   0  0  0  0  0  0  0  0  0  0  0  0
   60.5750   29.1010   46.6760 C   0  0  0  0  0  0  0  0  0  0  0  0
   60.3990   29.2120   48.0170 N   0  0  0  0  0  0  0  0  0  0  0  0
   60.9430   30.4100   48.2780 C   0  0  0  0  0  0  0  0  0  0  0  0
   61.0390   31.0510   49.5100 C   0  0  0  0  0  0  0  0  0  0  0  0
   61.6550   32.3280   49.5450 C   0  0  0  0  0  0  0  0  0  0  0  0
   61.8030   33.0570   50.7360 O   0  0  0  0  0  0  0  0  0  0  0  0
   62.9810   33.7630   51.1120 C   0  0  0  0  0  0  0  0  0  0  0  0
   64.0880   33.0250   50.7390 F   0  0  0  0  0  0  0  0  0  0  0  0
   63.0220   34.9880   50.4740 F   0  0  0  0  0  0  0  0  0  0  0  0
   62.1440   32.9010   48.3460 C   0  0  0  0  0  0  0  0  0  0  0  0
   62.0260   32.2200   47.1210 C   0  0  0  0  0  0  0  0  0  0  0  0
   61.4160   30.9700   47.1330 C   0  0  0  0  0  0  0  0  0  0  0  0
   61.1970   30.1570   46.0910 N   0  0  0  0  0  0  0  0  0  0  0  0
   58.4880   29.4480   47.0450 H   0  0  0  0  0  0  0  0  0  0  0  0
   58.0616   31.7993   48.2729 H   0  0  0  0  0  0  0  0  0  0  0  0
   58.3635   34.2534   47.9345 H   0  0  0  0  0  0  0  0  0  0  0  0
   58.5661   35.1857   45.6279 H   0  0  0  0  0  0  0  0  0  0  0  0
   58.4439   33.6643   43.6522 H   0  0  0  0  0  0  0  0  0  0  0  0
   58.1419   31.2094   43.9804 H   0  0  0  0  0  0  0  0  0  0  0  0
   58.8607   27.8536   47.8645 H   0  0  0  0  0  0  0  0  0  0  0  0
   59.3253   26.1583   47.4943 H   0  0  0  0  0  0  0  0  0  0  0  0
   60.6499   30.5825   50.4261 H   0  0  0  0  0  0  0  0  0  0  0  0
   62.9771   33.9198   52.2008 H   0  0  0  0  0  0  0  0  0  0  0  0
   62.6222   33.8912   48.3730 H   0  0  0  0  0  0  0  0  0  0  0  0
   62.4029   32.6605   46.1862 H   0  0  0  0  0  0  0  0  0  0  0  0
  1  2  2  0
  2  3  1  0
  3  4  1  0
  4  5  2  0
  5  6  1  0
  6  7  2  0
  7  8  1  0
  8  9  2  0
  2 10  1  0
 10 11  1  0
 11 12  1  0
 12 13  2  0
 12 14  1  0
 14 15  1  0
 15 16  1  0
 16 17  1  0
 17 18  1  0
 18 19  2  0
 19 20  1  0
 20 21  2  0
 21 22  1  0
 22 23  1  0
 23 24  1  0
 24 25  1  0
 24 26  1  0
 22 27  2  0
 27 28  1  0
 28 29  2  0
 29 30  1  0
  9  4  1  0
 15 10  2  0
 30 18  1  0
 29 20  1  0
  3 31  1  0
  5 32  1  0
  6 33  1  0
  7 34  1  0
  8 35  1  0
  9 36  1  0
 16 37  1  0
 16 38  1  0
 21 39  1  0
 24 40  1  0
 27 41  1  0
 28 42  1  0
M  CHG  3  11  -1  14  -1  30  -1
M  END
>  <UniqueID>  (65) 
60

>  <SMILES>  (65) 
O=C(Nc1ccccc1)c1[n-]c(=O)[n-]c1CSc1nc2cc(OC(F)F)ccc2[n-]1

>  <Energy>  (65) 
110.89211029766916

>  <Genealogy>  (65) 
O=C(Nc1ccccc1)c1[n-]c(=O)[n-]c1CSc1nc2cc(OC(F)F)ccc2[n-]1 (protonated)
O=C(Nc1ccccc1)c1[n-]c(=O)[n-]c1CSc1nc2cc(OC(F)F)ccc2[n-]1 (3D coordinates assigned)
O=C(Nc1ccccc1)c1[n-]c(=O)[n-]c1CSc1nc2cc(OC(F)F)ccc2[n-]1 (optimized conformer: 110.89211029766916 kcal/mol)

>  <smiles>  (65) 
O=C(Nc1ccccc1)c1[nH]c(=O)[nH]c1CSc1nc2cc(OC(F)F)ccc2[nH]1

>  <score_type>  (65) 
oracle

>  <origin>  (65) 
adg

>  <m_score__min__energy>  (65) 
-12.51

>  <m_primary>  (65) 
energy

$$$$
65:0
     RDKit          3D

 32 33  0  0  0  0  0  0  0  0999 V2000
   56.9080   27.5190   43.1620 H   0  0  0  0  0  0  0  0  0  0  0  0
   57.8050   27.1890   43.5810 N   0  0  0  0  0  0  0  0  0  0  0  0
   57.9170   26.8430   44.8280 C   0  0  0  0  0  0  0  0  0  0  0  0
   58.3630   25.4690   45.1780 C   0  0  0  0  0  0  0  0  0  0  0  0
   59.4780   25.3060   45.7480 O   0  0  0  0  0  0  0  0  0  0  0  0
   57.5170   24.2820   44.9180 C   0  0  0  0  0  0  0  0  0  0  0  0
   58.0800   23.2030   44.2190 C   0  0  0  0  0  0  0  0  0  0  0  0
   59.1481   23.2226   43.9567 H   0  0  0  0  0  0  0  0  0  0  0  0
   57.2990   22.1050   43.8530 C   0  0  0  0  0  0  0  0  0  0  0  0
   57.7549   21.2636   43.3106 H   0  0  0  0  0  0  0  0  0  0  0  0
   55.9450   22.0730   44.1730 C   0  0  0  0  0  0  0  0  0  0  0  0
   55.3318   21.2081   43.8798 H   0  0  0  0  0  0  0  0  0  0  0  0
   55.3640   23.1360   44.8650 C   0  0  0  0  0  0  0  0  0  0  0  0
   54.2913   23.1061   45.1069 H   0  0  0  0  0  0  0  0  0  0  0  0
   56.1350   24.2460   45.2570 C   0  0  0  0  0  0  0  0  0  0  0  0
   55.4720   25.3220   46.0340 C   0  0  0  0  0  0  0  0  0  0  0  0
   55.9930   25.7730   47.0880 O   0  0  0  0  0  0  0  0  0  0  0  0
   54.2420   25.8250   45.6210 O   0  0  0  0  0  0  0  0  0  0  0  0
   57.6630   27.8710   45.9060 C   0  0  0  0  0  0  0  0  0  0  0  0
   56.7225   27.6224   46.4194 H   0  0  0  0  0  0  0  0  0  0  0  0
   58.5138   27.8503   46.6029 H   0  0  0  0  0  0  0  0  0  0  0  0
   57.5560   29.2680   45.3410 C   0  0  0  0  0  0  0  0  0  0  0  0
   58.6820   30.1100   45.3360 C   0  0  0  0  0  0  0  0  0  0  0  0
   59.6443   29.7390   45.7186 H   0  0  0  0  0  0  0  0  0  0  0  0
   58.5850   31.4170   44.8470 C   0  0  0  0  0  0  0  0  0  0  0  0
   59.4718   32.0678   44.8370 H   0  0  0  0  0  0  0  0  0  0  0  0
   57.3610   31.8960   44.3710 C   0  0  0  0  0  0  0  0  0  0  0  0
   57.2859   32.9245   43.9883 H   0  0  0  0  0  0  0  0  0  0  0  0
   56.2330   31.0720   44.3800 C   0  0  0  0  0  0  0  0  0  0  0  0
   55.2716   31.4540   44.0062 H   0  0  0  0  0  0  0  0  0  0  0  0
   56.3230   29.7630   44.8630 C   0  0  0  0  0  0  0  0  0  0  0  0
   55.1850   28.9610   44.8700 O   0  0  0  0  0  0  0  0  0  0  0  0
  1  2  1  0
  2  3  2  0
  3  4  1  0
  4  5  2  0
  4  6  1  0
  6  7  2  0
  7  8  1  0
  7  9  1  0
  9 10  1  0
  9 11  2  0
 11 12  1  0
 11 13  1  0
 13 14  1  0
 13 15  2  0
 15 16  1  0
 16 17  2  0
 16 18  1  0
  3 19  1  0
 19 20  1  0
 19 21  1  0
 19 22  1  0
 22 23  2  0
 23 24  1  0
 23 25  1  0
 25 26  1  0
 25 27  2  0
 27 28  1  0
 27 29  1  0
 29 30  1  0
 29 31  2  0
 31 32  1  0
 15  6  1  0
 31 22  1  0
M  CHG  2  18  -1  32  -1
M  END
>  <UniqueID>  (66) 
61

>  <SMILES>  (66) 
[H]/N=C(/Cc1ccccc1[O-])C(=O)c1ccccc1C(=O)[O-]

>  <Energy>  (66) 
44.107718351533464

>  <Genealogy>  (66) 
N=C(Cc1ccccc1[O-])C(=O)c1ccccc1C(=O)[O-] (protonated)
[H]/N=C(/Cc1ccccc1[O-])C(=O)c1ccccc1C(=O)[O-] (cis-trans isomerization)
[H]/N=C(/Cc1ccccc1[O-])C(=O)c1ccccc1C(=O)[O-] (3D coordinates assigned)
[H]/N=C(/Cc1ccccc1[O-])C(=O)c1ccccc1C(=O)[O-] (optimized conformer: 44.107718351533464 kcal/mol)

>  <smiles>  (66) 
N=C(Cc1ccccc1O)C(=O)c1ccccc1C(=O)O

>  <score_type>  (66) 
oracle

>  <origin>  (66) 
adg

>  <m_score__min__energy>  (66) 
-12.859999999999999

>  <m_primary>  (66) 
energy

$$$$
66:0
     RDKit          3D

 27 28  0  0  0  0  0  0  0  0999 V2000
   57.8475   32.0980   55.7653 H   0  0  0  0  0  0  0  0  0  0  0  0
   58.1690   32.3500   54.7440 C   0  0  0  0  0  0  0  0  0  0  0  0
   58.9715   33.0854   54.5857 H   0  0  0  0  0  0  0  0  0  0  0  0
   57.5810   31.7590   53.6890 C   0  0  0  0  0  0  0  0  0  0  0  0
   57.9910   32.0800   52.3800 C   0  0  0  0  0  0  0  0  0  0  0  0
   59.0090   32.9990   52.1440 O   0  0  0  0  0  0  0  0  0  0  0  0
   57.3660   31.4720   51.2960 C   0  0  0  0  0  0  0  0  0  0  0  0
   57.6728   31.7304   50.2717 H   0  0  0  0  0  0  0  0  0  0  0  0
   56.3800   30.5620   51.4960 N   0  0  0  0  0  0  0  0  0  0  0  0
   55.9530   30.1940   52.7350 C   0  0  0  0  0  0  0  0  0  0  0  0
   54.9730   29.2700   52.7940 C   0  0  0  0  0  0  0  0  0  0  0  0
   55.0993   28.4295   53.4922 H   0  0  0  0  0  0  0  0  0  0  0  0
   53.7740   29.3130   52.0030 N   0  0  0  0  0  0  0  0  0  0  0  0
   53.6930   28.6680   51.1850 H   0  0  0  0  0  0  0  0  0  0  0  0
   52.8150   30.3800   52.1110 C   0  0  0  0  0  0  0  0  0  0  0  0
   52.2750   30.7580   53.3560 C   0  0  0  0  0  0  0  0  0  0  0  0
   52.5967   30.2403   54.2717 H   0  0  0  0  0  0  0  0  0  0  0  0
   51.3320   31.7880   53.4340 C   0  0  0  0  0  0  0  0  0  0  0  0
   50.8100   32.1550   54.6700 O   0  0  0  0  0  0  0  0  0  0  0  0
   50.9140   32.4470   52.2720 C   0  0  0  0  0  0  0  0  0  0  0  0
   49.9790   33.4730   52.3520 O   0  0  0  0  0  0  0  0  0  0  0  0
   51.4360   32.0700   51.0300 C   0  0  0  0  0  0  0  0  0  0  0  0
   51.0210   32.7160   49.8710 O   0  0  0  0  0  0  0  0  0  0  0  0
   52.3780   31.0380   50.9510 C   0  0  0  0  0  0  0  0  0  0  0  0
   52.7794   30.7400   49.9712 H   0  0  0  0  0  0  0  0  0  0  0  0
   56.5370   30.8170   53.8710 C   0  0  0  0  0  0  0  0  0  0  0  0
   56.1160   30.5700   55.0350 O   0  0  0  0  0  0  0  0  0  0  0  0
  1  2  1  0
  2  3  1  0
  2  4  2  0
  4  5  1  0
  5  6  1  0
  5  7  2  0
  7  8  1  0
  7  9  1  0
  9 10  1  0
 10 11  2  0
 11 12  1  0
 11 13  1  0
 13 14  1  0
 13 15  1  0
 15 16  2  0
 16 17  1  0
 16 18  1  0
 18 19  1  0
 18 20  2  0
 20 21  1  0
 20 22  1  0
 22 23  1  0
 22 24  2  0
 24 25  1  0
 10 26  1  0
 26 27  2  0
 26  4  1  0
 24 15  1  0
M  CHG  5   6  -1   9  -1  19  -1  21  -1  23  -1
M  END
>  <UniqueID>  (67) 
62

>  <SMILES>  (67) 
C=c1c([O-])c[n-]/c(=C/Nc2cc([O-])c([O-])c([O-])c2)c1=O

>  <Energy>  (67) 
42.28121833317284

>  <Genealogy>  (67) 
C=c1c([O-])c[n-]c(=CNc2cc([O-])c([O-])c([O-])c2)c1=O (protonated)
C=c1c([O-])c[n-]/c(=C/Nc2cc([O-])c([O-])c([O-])c2)c1=O (cis-trans isomerization)
C=c1c([O-])c[n-]/c(=C/Nc2cc([O-])c([O-])c([O-])c2)c1=O (3D coordinates assigned)
C=c1c([O-])c[n-]/c(=C/Nc2cc([O-])c([O-])c([O-])c2)c1=O (optimized conformer: 42.28121833317284 kcal/mol)

>  <smiles>  (67) 
C=c1c(O)c[nH]c(=CNc2cc(O)c(O)c(O)c2)c1=O

>  <score_type>  (67) 
oracle

>  <origin>  (67) 
adg

>  <m_score__min__energy>  (67) 
-18.629999999999999

>  <m_primary>  (67) 
energy

$$$$
67:0
     RDKit          3D

 51 54  0  0  0  0  0  0  0  0999 V2000
   56.4890   30.4230   44.8670 O   0  0  0  0  0  0  0  0  0  0  0  0
   57.6690   30.0590   44.6140 C   0  0  0  0  0  0  0  0  0  0  0  0
   58.8100   30.9120   45.0920 C   0  0  0  0  0  0  0  0  0  0  0  0
   58.6770   31.2540   46.5100 N   0  0  0  0  0  0  0  0  0  0  0  0
   58.1030   32.3490   47.0800 C   0  0  0  0  0  0  0  0  0  0  0  0
   57.4150   33.7260   46.1550 S   0  0  0  0  0  0  0  0  0  0  0  0
   59.0220   34.3940   45.5960 C   0  0  0  0  0  0  0  0  0  0  0  0
   60.0890   34.2230   46.6440 C   0  0  0  0  0  0  0  0  0  0  0  0
   61.2610   33.4960   46.3600 C   0  0  0  0  0  0  0  0  0  0  0  0
   62.2200   33.2860   47.3560 C   0  0  0  0  0  0  0  0  0  0  0  0
   62.0070   33.7750   48.6470 C   0  0  0  0  0  0  0  0  0  0  0  0
   60.8330   34.4720   48.9450 C   0  0  0  0  0  0  0  0  0  0  0  0
   59.8790   34.6980   47.9480 C   0  0  0  0  0  0  0  0  0  0  0  0
   58.2110   32.3780   48.4360 N   0  0  0  0  0  0  0  0  0  0  0  0
   58.8850   31.2470   48.7060 C   0  0  0  0  0  0  0  0  0  0  0  0
   59.3070   30.7640   49.9400 C   0  0  0  0  0  0  0  0  0  0  0  0
   60.0430   29.5660   49.9450 C   0  0  0  0  0  0  0  0  0  0  0  0
   60.3300   28.9110   48.7220 C   0  0  0  0  0  0  0  0  0  0  0  0
   59.8920   29.4320   47.5370 N   0  0  0  0  0  0  0  0  0  0  0  0
   59.1730   30.5820   47.5590 C   0  0  0  0  0  0  0  0  0  0  0  0
   57.9030   28.8850   43.8270 N   0  0  0  0  0  0  0  0  0  0  0  0
   58.9260   27.9050   44.1690 C   0  0  0  0  0  0  0  0  0  0  0  0
   58.8610   27.5410   45.6550 C   0  0  0  0  0  0  0  0  0  0  0  0
   57.8690   26.4270   45.9180 C   0  0  0  0  0  0  0  0  0  0  0  0
   58.3670   25.1730   46.3200 C   0  0  0  0  0  0  0  0  0  0  0  0
   57.5010   24.1060   46.5600 C   0  0  0  0  0  0  0  0  0  0  0  0
   56.1260   24.2710   46.4000 C   0  0  0  0  0  0  0  0  0  0  0  0
   55.6150   25.5040   45.9920 C   0  0  0  0  0  0  0  0  0  0  0  0
   56.4700   26.5850   45.7450 C   0  0  0  0  0  0  0  0  0  0  0  0
   55.8910   27.7860   45.3330 O   0  0  0  0  0  0  0  0  0  0  0  0
   59.7514   30.3622   44.9452 H   0  0  0  0  0  0  0  0  0  0  0  0
   58.8037   31.8472   44.5128 H   0  0  0  0  0  0  0  0  0  0  0  0
   59.3305   33.8639   44.6829 H   0  0  0  0  0  0  0  0  0  0  0  0
   58.8987   35.4700   45.4035 H   0  0  0  0  0  0  0  0  0  0  0  0
   61.4230   33.0914   45.3500 H   0  0  0  0  0  0  0  0  0  0  0  0
   63.1431   32.7351   47.1225 H   0  0  0  0  0  0  0  0  0  0  0  0
   62.7632   33.6115   49.4289 H   0  0  0  0  0  0  0  0  0  0  0  0
   60.6591   34.8435   49.9657 H   0  0  0  0  0  0  0  0  0  0  0  0
   58.9587   35.2512   48.1870 H   0  0  0  0  0  0  0  0  0  0  0  0
   59.0746   31.2972   50.8736 H   0  0  0  0  0  0  0  0  0  0  0  0
   60.3949   29.1386   50.8956 H   0  0  0  0  0  0  0  0  0  0  0  0
   60.9097   27.9762   48.7263 H   0  0  0  0  0  0  0  0  0  0  0  0
   58.7692   26.9966   43.5688 H   0  0  0  0  0  0  0  0  0  0  0  0
   59.9137   28.3405   43.9573 H   0  0  0  0  0  0  0  0  0  0  0  0
   59.8582   27.2153   45.9858 H   0  0  0  0  0  0  0  0  0  0  0  0
   58.5313   28.4310   46.2111 H   0  0  0  0  0  0  0  0  0  0  0  0
   59.4507   25.0331   46.4462 H   0  0  0  0  0  0  0  0  0  0  0  0
   57.9039   23.1325   46.8761 H   0  0  0  0  0  0  0  0  0  0  0  0
   55.4443   23.4300   46.5952 H   0  0  0  0  0  0  0  0  0  0  0  0
   54.5296   25.6278   45.8632 H   0  0  0  0  0  0  0  0  0  0  0  0
   56.1920   28.3040   44.5220 H   0  0  0  0  0  0  0  0  0  0  0  0
  1  2  2  0
  2  3  1  0
  3  4  1  0
  4  5  1  0
  5  6  1  0
  6  7  1  0
  7  8  1  0
  8  9  2  0
  9 10  1  0
 10 11  2  0
 11 12  1  0
 12 13  2  0
  5 14  2  0
 14 15  1  0
 15 16  2  0
 16 17  1  0
 17 18  2  0
 18 19  1  0
 19 20  2  0
  2 21  1  0
 21 22  1  0
 22 23  1  0
 23 24  1  0
 24 25  2  0
 25 26  1  0
 26 27  2  0
 27 28  1  0
 28 29  2  0
 29 30  1  0
 20  4  1  0
 29 24  1  0
 13  8  1  0
 20 15  1  0
  3 31  1  0
  3 32  1  0
  7 33  1  0
  7 34  1  0
  9 35  1  0
 10 36  1  0
 11 37  1  0
 12 38  1  0
 13 39  1  0
 16 40  1  0
 17 41  1  0
 18 42  1  0
 22 43  1  0
 22 44  1  0
 23 45  1  0
 23 46  1  0
 25 47  1  0
 26 48  1  0
 27 49  1  0
 28 50  1  0
 30 51  1  0
M  CHG  1  21  -1
M  END
>  <UniqueID>  (68) 
63

>  <SMILES>  (68) 
O=C(Cn1c(SCc2ccccc2)nc2cccnc21)[N-]CCc1ccccc1O

>  <Energy>  (68) 
81.4898761013726

>  <Genealogy>  (68) 
O=C(Cn1c(SCc2ccccc2)nc2cccnc21)[N-]CCc1ccccc1O (protonated)
O=C(Cn1c(SCc2ccccc2)nc2cccnc21)[N-]CCc1ccccc1O (3D coordinates assigned)
O=C(Cn1c(SCc2ccccc2)nc2cccnc21)[N-]CCc1ccccc1O (optimized conformer: 81.4898761013726 kcal/mol)

>  <smiles>  (68) 
O=C(Cn1c(SCc2ccccc2)nc2cccnc21)NCCc1ccccc1O

>  <score_type>  (68) 
oracle

>  <origin>  (68) 
adg

>  <m_score__min__energy>  (68) 
-11.43

>  <m_primary>  (68) 
energy

$$$$
68:0
     RDKit          3D

 53 56  0  0  1  0  0  0  0  0999 V2000
   56.1310   30.4670   43.9070 C   0  0  0  0  0  0  0  0  0  0  0  0
   55.9570   29.3270   44.6740 C   0  0  0  0  0  0  0  0  0  0  0  0
   57.1020   28.7350   45.1820 C   0  0  0  0  0  0  0  0  0  0  0  0
   58.3590   29.2340   44.9530 C   0  0  0  0  0  0  0  0  0  0  0  0
   59.6060   28.6080   45.4910 C   0  0  0  0  0  0  0  0  0  0  0  0
   59.5130   28.4160   46.9060 N   0  0  0  0  0  0  0  0  0  0  0  0
   59.7490   29.3240   47.7680 C   0  0  0  0  0  0  0  0  0  0  0  0
   58.9290   30.4540   47.7240 C   0  0  0  0  0  0  0  0  0  0  0  0
   59.1520   31.4620   48.6450 C   0  0  0  0  0  0  0  0  0  0  0  0
   58.2710   32.6550   48.5850 C   0  0  0  0  0  0  0  0  0  0  0  0
   58.4320   33.3840   47.2920 C   0  0  0  0  0  0  0  0  0  0  0  0
   57.3840   33.3030   46.3960 C   0  0  0  0  0  0  0  0  0  0  0  0
   57.4220   33.9360   45.1710 C   0  0  0  0  0  0  0  0  0  0  0  0
   58.5600   34.6600   44.8720 C   0  0  0  0  0  0  0  0  0  0  0  0
   59.6220   34.7460   45.7690 C   0  0  0  0  0  0  0  0  0  0  0  0
   59.5760   34.1050   47.0030 C   0  0  0  0  0  0  0  0  0  0  0  0
   60.1370   31.2950   49.5180 N   0  0  0  0  0  0  0  0  0  0  0  0
   60.9110   30.2000   49.5390 C   0  0  0  0  0  0  0  0  0  0  0  0
   61.8350   30.1260   50.4140 N   0  0  0  0  0  0  0  0  0  0  0  0
   63.0710   30.8270   50.4500 C   0  0  0  0  0  0  0  0  0  0  0  0
   63.0610   31.8740   49.3740 C   0  0  0  0  0  0  0  0  0  0  0  0
   63.3840   31.5900   48.0660 C   0  0  0  0  0  0  0  0  0  0  0  0
   63.3770   32.5570   47.0680 C   0  0  0  0  0  0  0  0  0  0  0  0
   63.0350   33.8560   47.3770 C   0  0  0  0  0  0  0  0  0  0  0  0
   62.7040   34.1740   48.6780 C   0  0  0  0  0  0  0  0  0  0  0  0
   62.7200   33.1940   49.6480 C   0  0  0  0  0  0  0  0  0  0  0  0
   60.7240   29.2060   48.6650 N   0  0  0  0  0  0  0  0  0  0  0  0
   58.5180   30.3790   44.1800 C   0  0  0  0  0  0  0  0  0  0  0  0
   57.3890   30.9830   43.6650 C   0  0  0  0  0  0  0  0  0  0  0  0
   55.2503   30.9711   43.4824 H   0  0  0  0  0  0  0  0  0  0  0  0
   54.9576   28.9115   44.8704 H   0  0  0  0  0  0  0  0  0  0  0  0
   56.9987   27.8271   45.7944 H   0  0  0  0  0  0  0  0  0  0  0  0
   59.7580   27.6331   45.0047 H   0  0  0  0  0  0  0  0  0  0  0  0
   60.4531   29.2782   45.2828 H   0  0  0  0  0  0  0  0  0  0  0  0
   58.1267   30.5402   46.9764 H   0  0  0  0  0  0  0  0  0  0  0  0
   57.2242   32.3328   48.6867 H   0  0  0  0  0  0  0  0  0  0  0  0
   58.5505   33.3344   49.4037 H   0  0  0  0  0  0  0  0  0  0  0  0
   56.4935   32.7169   46.6671 H   0  0  0  0  0  0  0  0  0  0  0  0
   56.5828   33.8673   44.4631 H   0  0  0  0  0  0  0  0  0  0  0  0
   58.6288   35.1796   43.9049 H   0  0  0  0  0  0  0  0  0  0  0  0
   60.5129   35.3311   45.4970 H   0  0  0  0  0  0  0  0  0  0  0  0
   60.4113   34.1688   47.7159 H   0  0  0  0  0  0  0  0  0  0  0  0
   60.3120   32.0450   50.2110 H   0  0  0  0  0  0  0  0  0  0  0  0
   63.1964   31.3064   51.4321 H   0  0  0  0  0  0  0  0  0  0  0  0
   63.9039   30.1276   50.2853 H   0  0  0  0  0  0  0  0  0  0  0  0
   63.6581   30.5582   47.8009 H   0  0  0  0  0  0  0  0  0  0  0  0
   63.6433   32.2868   46.0355 H   0  0  0  0  0  0  0  0  0  0  0  0
   63.0261   34.6300   46.5955 H   0  0  0  0  0  0  0  0  0  0  0  0
   62.4282   35.2060   48.9407 H   0  0  0  0  0  0  0  0  0  0  0  0
   62.4524   33.4672   50.6794 H   0  0  0  0  0  0  0  0  0  0  0  0
   61.3360   28.3770   48.7060 H   0  0  0  0  0  0  0  0  0  0  0  0
   59.5182   30.7928   43.9840 H   0  0  0  0  0  0  0  0  0  0  0  0
   57.4928   31.8903   43.0517 H   0  0  0  0  0  0  0  0  0  0  0  0
  1  2  2  0
  2  3  1  0
  3  4  2  0
  4  5  1  0
  5  6  1  0
  6  7  2  0
  7  8  1  0
  8  9  2  0
  9 10  1  0
 10 11  1  0
 11 12  2  0
 12 13  1  0
 13 14  2  0
 14 15  1  0
 15 16  2  0
  9 17  1  0
 17 18  1  0
 18 19  2  0
 19 20  1  0
 20 21  1  0
 21 22  2  0
 22 23  1  0
 23 24  2  0
 24 25  1  0
 25 26  2  0
 18 27  1  0
  4 28  1  0
 28 29  2  0
 29  1  1  0
 27  7  1  0
 16 11  1  0
 26 21  1  0
  1 30  1  0
  2 31  1  0
  3 32  1  0
  5 33  1  0
  5 34  1  0
  8 35  1  0
 10 36  1  0
 10 37  1  0
 12 38  1  0
 13 39  1  0
 14 40  1  0
 15 41  1  0
 16 42  1  0
 17 43  1  0
 20 44  1  0
 20 45  1  0
 22 46  1  0
 23 47  1  0
 24 48  1  0
 25 49  1  0
 26 50  1  0
 27 51  1  0
 28 52  1  0
 29 53  1  0
M  END
>  <smiles>  (69) 
c1ccc(CN=c2cc(Cc3ccccc3)[nH]c(=NCc3ccccc3)[nH]2)cc1

>  <score_type>  (69) 
oracle

>  <origin>  (69) 
adg

>  <m_score__min__energy>  (69) 
-9.3800000000000008

>  <m_primary>  (69) 
energy

$$$$
69:0
     RDKit          3D

 54 57  0  0  1  0  0  0  0  0999 V2000
   56.9210   22.7620   43.4270 C   0  0  0  0  0  0  0  0  0  0  0  0
   56.1830   23.7040   44.3080 C   0  0  0  0  0  0  0  0  0  0  0  0
   56.7720   24.7990   44.9040 C   0  0  0  0  0  0  0  0  0  0  0  0
   56.0410   25.6430   45.7140 C   0  0  0  0  0  0  0  0  0  0  0  0
   56.5400   26.6820   46.2960 N   0  0  0  0  0  0  0  0  0  0  0  0
   57.1100   27.9540   45.2720 S   0  0  0  0  0  0  0  0  0  0  0  0
   57.4270   27.4030   43.9100 O   0  0  0  0  0  0  0  0  0  0  0  0
   56.0640   29.0380   45.2020 O   0  0  0  0  0  0  0  0  0  0  0  0
   58.5370   28.7140   45.9610 C   0  0  0  0  0  0  0  0  0  0  0  0
   59.5950   29.0910   45.1410 C   0  0  0  0  0  0  0  0  0  0  0  0
   60.7080   29.6860   45.6960 C   0  0  0  0  0  0  0  0  0  0  0  0
   60.8000   29.9210   47.0660 C   0  0  0  0  0  0  0  0  0  0  0  0
   61.9490   30.5170   47.5200 O   0  0  0  0  0  0  0  0  0  0  0  0
   62.0880   31.7790   48.0160 C   0  0  0  0  0  0  0  0  0  0  0  0
   63.1780   32.1890   48.7190 C   0  0  0  0  0  0  0  0  0  0  0  0
   63.2620   33.4720   49.1920 C   0  0  0  0  0  0  0  0  0  0  0  0
   62.2460   34.3490   48.9580 C   0  0  0  0  0  0  0  0  0  0  0  0
   61.0870   33.9840   48.2360 C   0  0  0  0  0  0  0  0  0  0  0  0
   60.1570   34.9390   48.0740 O   0  0  0  0  0  0  0  0  0  0  0  0
   59.3010   35.3480   47.0980 C   0  0  0  0  0  0  0  0  0  0  0  0
   58.7720   34.3420   46.1750 C   0  0  0  0  0  0  0  0  0  0  0  0
   57.9600   33.3440   46.7150 C   0  0  0  0  0  0  0  0  0  0  0  0
   57.4390   32.3450   45.9020 C   0  0  0  0  0  0  0  0  0  0  0  0
   57.6920   32.2980   44.5550 C   0  0  0  0  0  0  0  0  0  0  0  0
   58.4880   33.2740   44.0130 C   0  0  0  0  0  0  0  0  0  0  0  0
   59.0080   34.2670   44.8280 C   0  0  0  0  0  0  0  0  0  0  0  0
   61.0700   32.6910   47.7940 C   0  0  0  0  0  0  0  0  0  0  0  0
   59.7450   29.5470   47.8950 C   0  0  0  0  0  0  0  0  0  0  0  0
   59.8350   29.7760   49.3150 C   0  0  0  0  0  0  0  0  0  0  0  0
   59.8950   29.9760   50.4550 N   0  0  0  0  0  0  0  0  0  0  0  0
   58.6510   28.9570   47.3140 C   0  0  0  0  0  0  0  0  0  0  0  0
   54.7240   25.3730   45.9130 N   0  0  0  0  0  0  0  0  0  0  0  0
   54.1430   24.2910   45.3230 C   0  0  0  0  0  0  0  0  0  0  0  0
   54.8790   23.4730   44.5300 N   0  0  0  0  0  0  0  0  0  0  0  0
   57.4823   22.0456   44.0448 H   0  0  0  0  0  0  0  0  0  0  0  0
   56.2065   22.2177   42.7920 H   0  0  0  0  0  0  0  0  0  0  0  0
   57.6205   23.3255   42.7920 H   0  0  0  0  0  0  0  0  0  0  0  0
   57.8392   25.0023   44.7312 H   0  0  0  0  0  0  0  0  0  0  0  0
   59.5442   28.9156   44.0563 H   0  0  0  0  0  0  0  0  0  0  0  0
   61.5419   29.9817   45.0425 H   0  0  0  0  0  0  0  0  0  0  0  0
   64.0001   31.4834   48.9096 H   0  0  0  0  0  0  0  0  0  0  0  0
   64.1478   33.7934   49.7595 H   0  0  0  0  0  0  0  0  0  0  0  0
   62.3305   35.3756   49.3439 H   0  0  0  0  0  0  0  0  0  0  0  0
   58.4402   35.8188   47.5955 H   0  0  0  0  0  0  0  0  0  0  0  0
   59.9087   36.0084   46.4620 H   0  0  0  0  0  0  0  0  0  0  0  0
   57.7310   33.3482   47.7909 H   0  0  0  0  0  0  0  0  0  0  0  0
   56.8041   31.5679   46.3526 H   0  0  0  0  0  0  0  0  0  0  0  0
   57.2685   31.5001   43.9273 H   0  0  0  0  0  0  0  0  0  0  0  0
   58.7128   33.2689   42.9362 H   0  0  0  0  0  0  0  0  0  0  0  0
   59.6450   35.0368   44.3680 H   0  0  0  0  0  0  0  0  0  0  0  0
   60.1912   32.3530   47.2253 H   0  0  0  0  0  0  0  0  0  0  0  0
   57.8158   28.6603   47.9654 H   0  0  0  0  0  0  0  0  0  0  0  0
   53.0763   24.0807   45.4899 H   0  0  0  0  0  0  0  0  0  0  0  0
   54.3670   22.6680   44.1160 H   0  0  0  0  0  0  0  0  0  0  0  0
  1  2  1  0
  2  3  2  0
  3  4  1  0
  4  5  2  0
  5  6  1  0
  6  7  2  0
  6  8  2  0
  6  9  1  0
  9 10  2  0
 10 11  1  0
 11 12  2  0
 12 13  1  0
 13 14  1  0
 14 15  2  0
 15 16  1  0
 16 17  2  0
 17 18  1  0
 18 19  1  0
 19 20  1  0
 20 21  1  0
 21 22  2  0
 22 23  1  0
 23 24  2  0
 24 25  1  0
 25 26  2  0
 18 27  2  0
 12 28  1  0
 28 29  1  0
 29 30  3  0
 28 31  2  0
  4 32  1  0
 32 33  2  0
 33 34  1  0
 34  2  1  0
 31  9  1  0
 27 14  1  0
 26 21  1  0
  1 35  1  0
  1 36  1  0
  1 37  1  0
  3 38  1  0
 10 39  1  0
 11 40  1  0
 15 41  1  0
 16 42  1  0
 17 43  1  0
 20 44  1  0
 20 45  1  0
 22 46  1  0
 23 47  1  0
 24 48  1  0
 25 49  1  0
 26 50  1  0
 27 51  1  0
 31 52  1  0
 33 53  1  0
 34 54  1  0
M  END
>  <smiles>  (70) 
Cc1cc(=NS(=O)(=O)c2ccc(Oc3cccc(OCc4ccccc4)c3)c(C#N)c2)nc[nH]1

>  <score_type>  (70) 
oracle

>  <origin>  (70) 
adg

>  <m_score__min__energy>  (70) 
-9.9800000000000004

>  <m_primary>  (70) 
energy

$$$$
70:0
     RDKit          3D

 52 54  0  0  0  0  0  0  0  0999 V2000
   55.1420   27.6390   45.5720 H   0  0  0  0  0  0  0  0  0  0  0  0
   55.0630   26.7190   45.9860 O   0  0  0  0  0  0  0  0  0  0  0  0
   56.1730   25.9630   46.3630 C   0  0  0  0  0  0  0  0  0  0  0  0
   55.9850   24.6630   46.7070 N   0  0  0  0  0  0  0  0  0  0  0  0
   57.0230   23.8700   47.0700 C   0  0  0  0  0  0  0  0  0  0  0  0
   56.8190   22.6650   47.3690 O   0  0  0  0  0  0  0  0  0  0  0  0
   58.2810   24.3740   47.1140 N   0  0  0  0  0  0  0  0  0  0  0  0
   58.5340   25.6730   46.8050 C   0  0  0  0  0  0  0  0  0  0  0  0
   59.8840   26.1550   46.9060 N   0  0  0  0  0  0  0  0  0  0  0  0
   60.6520   25.4440   46.9110 H   0  0  0  0  0  0  0  0  0  0  0  0
   60.2310   27.5320   47.1380 C   0  0  0  0  0  0  0  0  0  0  0  0
   60.1360   28.0610   48.4320 C   0  0  0  0  0  0  0  0  0  0  0  0
   59.8178   27.4153   49.2638 H   0  0  0  0  0  0  0  0  0  0  0  0
   60.4430   29.4050   48.6740 C   0  0  0  0  0  0  0  0  0  0  0  0
   60.3731   29.8079   49.6952 H   0  0  0  0  0  0  0  0  0  0  0  0
   60.8410   30.2430   47.6150 C   0  0  0  0  0  0  0  0  0  0  0  0
   61.1330   31.6020   47.7950 O   0  0  0  0  0  0  0  0  0  0  0  0
   62.3830   32.2070   47.4760 C   0  0  0  0  0  0  0  0  0  0  0  0
   62.9136   32.4638   48.4047 H   0  0  0  0  0  0  0  0  0  0  0  0
   62.9915   31.5037   46.8885 H   0  0  0  0  0  0  0  0  0  0  0  0
   62.2089   33.1205   46.8885 H   0  0  0  0  0  0  0  0  0  0  0  0
   60.9400   29.7110   46.3250 C   0  0  0  0  0  0  0  0  0  0  0  0
   61.2642   30.3542   45.4937 H   0  0  0  0  0  0  0  0  0  0  0  0
   60.6310   28.3710   46.0830 C   0  0  0  0  0  0  0  0  0  0  0  0
   60.7009   27.9695   45.0613 H   0  0  0  0  0  0  0  0  0  0  0  0
   57.4740   26.5050   46.3790 C   0  0  0  0  0  0  0  0  0  0  0  0
   57.7120   27.9030   45.9490 C   0  0  0  0  0  0  0  0  0  0  0  0
   58.2929   28.5610   46.6120 H   0  0  0  0  0  0  0  0  0  0  0  0
   57.2540   28.4090   44.7890 C   0  0  0  0  0  0  0  0  0  0  0  0
   57.6940   27.8710   43.5190 C   0  0  0  0  0  0  0  0  0  0  0  0
   58.0450   27.4450   42.5030 N   0  0  0  0  0  0  0  0  0  0  0  0
   56.2990   29.5370   44.7750 C   0  0  0  0  0  0  0  0  0  0  0  0
   55.0850   29.3490   44.4880 O   0  0  0  0  0  0  0  0  0  0  0  0
   56.7550   30.8510   45.1170 N   0  0  0  0  0  0  0  0  0  0  0  0
   57.8030   31.1110   46.0950 C   0  0  0  0  0  0  0  0  0  0  0  0
   57.3883   31.0057   47.1084 H   0  0  0  0  0  0  0  0  0  0  0  0
   58.6195   30.3891   45.9460 H   0  0  0  0  0  0  0  0  0  0  0  0
   58.3440   32.5080   45.9210 C   0  0  0  0  0  0  0  0  0  0  0  0
   58.4780   33.3500   47.0380 C   0  0  0  0  0  0  0  0  0  0  0  0
   58.2004   32.9813   48.0365 H   0  0  0  0  0  0  0  0  0  0  0  0
   58.9610   34.6510   46.8890 C   0  0  0  0  0  0  0  0  0  0  0  0
   59.0586   35.3052   47.7679 H   0  0  0  0  0  0  0  0  0  0  0  0
   59.3200   35.1220   45.6260 C   0  0  0  0  0  0  0  0  0  0  0  0
   59.6935   36.1502   45.5103 H   0  0  0  0  0  0  0  0  0  0  0  0
   59.2070   34.2930   44.5080 C   0  0  0  0  0  0  0  0  0  0  0  0
   59.5014   34.6685   43.5169 H   0  0  0  0  0  0  0  0  0  0  0  0
   58.7180   32.9780   44.6420 C   0  0  0  0  0  0  0  0  0  0  0  0
   58.5920   32.1180   43.5370 O   0  0  0  0  0  0  0  0  0  0  0  0
   57.6930   32.3240   42.4530 C   0  0  0  0  0  0  0  0  0  0  0  0
   56.6915   32.5535   42.8458 H   0  0  0  0  0  0  0  0  0  0  0  0
   58.0470   33.1643   41.8377 H   0  0  0  0  0  0  0  0  0  0  0  0
   57.6458   31.4134   41.8377 H   0  0  0  0  0  0  0  0  0  0  0  0
  1  2  1  0
  2  3  1  0
  3  4  1  0
  4  5  1  0
  5  6  2  0
  5  7  1  0
  7  8  2  0
  8  9  1  0
  9 10  1  0
  9 11  1  0
 11 12  2  0
 12 13  1  0
 12 14  1  0
 14 15  1  0
 14 16  2  0
 16 17  1  0
 17 18  1  0
 18 19  1  0
 18 20  1  0
 18 21  1  0
 16 22  1  0
 22 23  1  0
 22 24  2  0
 24 25  1  0
  8 26  1  0
 26 27  1  0
 27 28  1  0
 27 29  2  0
 29 30  1  0
 30 31  3  0
 29 32  1  0
 32 33  2  0
 32 34  1  0
 34 35  1  0
 35 36  1  0
 35 37  1  0
 35 38  1  0
 38 39  2  0
 39 40  1  0
 39 41  1  0
 41 42  1  0
 41 43  2  0
 43 44  1  0
 43 45  1  0
 45 46  1  0
 45 47  2  0
 47 48  1  0
 48 49  1  0
 49 50  1  0
 49 51  1  0
 49 52  1  0
 26  3  2  0
 47 38  1  0
 24 11  1  0
M  CHG  2   4  -1  34  -1
M  END
>  <UniqueID>  (71) 
64

>  <SMILES>  (71) 
COc1ccc(Nc2nc(=O)[n-]c(O)c2/C=C(\C#N)C(=O)[N-]Cc2ccccc2OC)cc1

>  <Energy>  (71) 
62.16544503663592

>  <Genealogy>  (71) 
COc1ccc(Nc2nc(=O)[n-]c(O)c2C=C(C#N)C(=O)[N-]Cc2ccccc2OC)cc1 (protonated)
COc1ccc(Nc2nc(=O)[n-]c(O)c2/C=C(\C#N)C(=O)[N-]Cc2ccccc2OC)cc1 (cis-trans isomerization)
COc1ccc(Nc2nc(=O)[n-]c(O)c2/C=C(\C#N)C(=O)[N-]Cc2ccccc2OC)cc1 (3D coordinates assigned)
COc1ccc(Nc2nc(=O)[n-]c(O)c2/C=C(\C#N)C(=O)[N-]Cc2ccccc2OC)cc1 (optimized conformer: 62.16544503663592 kcal/mol)

>  <smiles>  (71) 
COc1ccc(Nc2nc(=O)[nH]c(O)c2C=C(C#N)C(=O)NCc2ccccc2OC)cc1

>  <score_type>  (71) 
oracle

>  <origin>  (71) 
adg

>  <m_score__min__energy>  (71) 
-13.09

>  <m_primary>  (71) 
energy

$$$$
71:0
     RDKit          3D

 67 70  0  0  1  0  0  0  0  0999 V2000
   58.2530   32.7120   48.4520 C   0  0  0  0  0  0  0  0  0  0  0  0
   57.9180   33.5030   47.1940 C   0  0  0  0  0  0  0  0  0  0  0  0
   59.0160   33.6830   46.3350 N   0  0  0  0  0  0  0  0  0  0  0  0
   58.8540   33.7050   44.9520 C   0  0  0  0  0  0  0  0  0  0  0  0
   57.4630   33.4000   44.4630 C   0  0  0  0  0  0  0  0  0  0  0  0
   57.2390   31.8520   44.4950 C   0  0  0  0  0  0  0  0  0  0  0  0
   58.5790   31.3990   44.5230 N   0  0  0  0  0  0  0  0  0  0  0  0
   59.0380   30.5600   45.3200 C   0  0  0  0  0  0  0  0  0  0  0  0
   59.8250   31.0320   46.3280 N   0  0  0  0  0  0  0  0  0  0  0  0
   60.3640   30.2470   47.2620 C   0  0  0  0  0  0  0  0  0  0  0  0
   61.0870   30.7410   48.1730 O   0  0  0  0  0  0  0  0  0  0  0  0
   60.1250   28.9010   47.2170 N   0  0  0  0  0  0  0  0  0  0  0  0
   60.7410   28.1260   48.2520 C   0  0  0  0  0  0  0  0  0  0  0  0
   60.0980   28.2160   49.5970 C   0  0  0  0  0  0  0  0  0  0  0  0
   59.0560   29.1500   49.4930 O   0  0  0  0  0  0  0  0  0  0  0  0
   59.3500   28.4270   46.2290 C   0  0  0  0  0  0  0  0  0  0  0  0
   59.0990   27.0950   46.1880 C   0  0  0  0  0  0  0  0  0  0  0  0
   58.3110   26.5320   45.2150 C   0  0  0  0  0  0  0  0  0  0  0  0
   58.0350   25.2440   45.1400 O   0  0  0  0  0  0  0  0  0  0  0  0
   57.7360   24.1400   44.5630 C   0  0  0  0  0  0  0  0  0  0  0  0
   58.4250   22.9500   44.7850 C   0  0  0  0  0  0  0  0  0  0  0  0
   58.0690   21.7670   44.1410 C   0  0  0  0  0  0  0  0  0  0  0  0
   57.0160   21.8230   43.2830 C   0  0  0  0  0  0  0  0  0  0  0  0
   56.2820   22.9600   43.0100 C   0  0  0  0  0  0  0  0  0  0  0  0
   56.6540   24.1040   43.6550 C   0  0  0  0  0  0  0  0  0  0  0  0
   57.7670   27.3520   44.2550 C   0  0  0  0  0  0  0  0  0  0  0  0
   57.9970   28.7410   44.2560 C   0  0  0  0  0  0  0  0  0  0  0  0
   58.7810   29.2220   45.2480 C   0  0  0  0  0  0  0  0  0  0  0  0
   59.9260   34.6640   46.8480 C   0  0  0  0  0  0  0  0  0  0  0  0
   61.2280   34.1250   47.2960 C   0  0  0  0  0  0  0  0  0  0  0  0
   62.2530   33.7930   46.4160 C   0  0  0  0  0  0  0  0  0  0  0  0
   63.4600   33.2980   46.8860 C   0  0  0  0  0  0  0  0  0  0  0  0
   63.6980   33.1140   48.2300 C   0  0  0  0  0  0  0  0  0  0  0  0
   62.6740   33.4440   49.1250 C   0  0  0  0  0  0  0  0  0  0  0  0
   61.4680   33.9390   48.6510 C   0  0  0  0  0  0  0  0  0  0  0  0
   57.9996   33.3103   49.3396 H   0  0  0  0  0  0  0  0  0  0  0  0
   57.6736   31.7770   48.4624 H   0  0  0  0  0  0  0  0  0  0  0  0
   59.3277   32.4775   48.4624 H   0  0  0  0  0  0  0  0  0  0  0  0
   57.1307   32.9661   46.6446 H   0  0  0  0  0  0  0  0  0  0  0  0
   57.5936   34.5030   47.5178 H   0  0  0  0  0  0  0  0  0  0  0  0
   59.1281   34.7082   44.5935 H   0  0  0  0  0  0  0  0  0  0  0  0
   59.4978   32.9052   44.5572 H   0  0  0  0  0  0  0  0  0  0  0  0
   56.7267   33.8926   45.1151 H   0  0  0  0  0  0  0  0  0  0  0  0
   57.3410   33.7717   43.4349 H   0  0  0  0  0  0  0  0  0  0  0  0
   56.6858   31.5400   45.3932 H   0  0  0  0  0  0  0  0  0  0  0  0
   56.6389   31.4580   43.6616 H   0  0  0  0  0  0  0  0  0  0  0  0
   60.0260   32.0520   46.3910 H   0  0  0  0  0  0  0  0  0  0  0  0
   60.7253   27.0714   47.9396 H   0  0  0  0  0  0  0  0  0  0  0  0
   61.7530   28.5393   48.3747 H   0  0  0  0  0  0  0  0  0  0  0  0
   59.6974   27.2345   49.8904 H   0  0  0  0  0  0  0  0  0  0  0  0
   60.8272   28.5254   50.3603 H   0  0  0  0  0  0  0  0  0  0  0  0
   59.4110   30.0610   49.3480 H   0  0  0  0  0  0  0  0  0  0  0  0
   59.5405   26.4455   46.9582 H   0  0  0  0  0  0  0  0  0  0  0  0
   59.2720   22.9441   45.4868 H   0  0  0  0  0  0  0  0  0  0  0  0
   58.6157   20.8292   44.3189 H   0  0  0  0  0  0  0  0  0  0  0  0
   56.7277   20.8944   42.7686 H   0  0  0  0  0  0  0  0  0  0  0  0
   55.4371   22.9447   42.3058 H   0  0  0  0  0  0  0  0  0  0  0  0
   56.0922   25.0296   43.4613 H   0  0  0  0  0  0  0  0  0  0  0  0
   57.1372   26.9125   43.4675 H   0  0  0  0  0  0  0  0  0  0  0  0
   57.5621   29.4004   43.4905 H   0  0  0  0  0  0  0  0  0  0  0  0
   60.1155   35.4030   46.0556 H   0  0  0  0  0  0  0  0  0  0  0  0
   59.4463   35.0971   47.7381 H   0  0  0  0  0  0  0  0  0  0  0  0
   62.1042   33.9248   45.3341 H   0  0  0  0  0  0  0  0  0  0  0  0
   64.2506   33.0449   46.1643 H   0  0  0  0  0  0  0  0  0  0  0  0
   64.6609   32.7208   48.5880 H   0  0  0  0  0  0  0  0  0  0  0  0
   62.8258   33.3106   50.2063 H   0  0  0  0  0  0  0  0  0  0  0  0
   60.6764   34.1923   49.3716 H   0  0  0  0  0  0  0  0  0  0  0  0
  1  2  1  0
  2  3  1  0
  3  4  1  0
  4  5  1  0
  5  6  1  0
  6  7  1  0
  7  8  2  0
  8  9  1  0
  9 10  1  0
 10 11  2  0
 10 12  1  0
 12 13  1  0
 13 14  1  0
 14 15  1  0
 12 16  1  0
 16 17  2  0
 17 18  1  0
 18 19  1  0
 19 20  1  0
 20 21  2  0
 21 22  1  0
 22 23  2  0
 23 24  1  0
 24 25  2  0
 18 26  2  0
 26 27  1  0
 27 28  2  0
  3 29  1  0
 29 30  1  0
 30 31  2  0
 31 32  1  0
 32 33  2  0
 33 34  1  0
 34 35  2  0
 28  8  1  0
 35 30  1  0
 28 16  1  0
 25 20  1  0
  1 36  1  0
  1 37  1  0
  1 38  1  0
  2 39  1  0
  2 40  1  0
  4 41  1  0
  4 42  1  0
  5 43  1  0
  5 44  1  0
  6 45  1  0
  6 46  1  0
  9 47  1  0
 13 48  1  0
 13 49  1  0
 14 50  1  0
 14 51  1  0
 15 52  1  0
 17 53  1  0
 21 54  1  0
 22 55  1  0
 23 56  1  0
 24 57  1  0
 25 58  1  0
 26 59  1  0
 27 60  1  0
 29 61  1  0
 29 62  1  0
 31 63  1  0
 32 64  1  0
 33 65  1  0
 34 66  1  0
 35 67  1  0
M  END
>  <smiles>  (72) 
CCN(CCCN=c1[nH]c(=O)n(CCO)c2cc(Oc3ccccc3)ccc12)Cc1ccccc1

>  <score_type>  (72) 
oracle

>  <origin>  (72) 
adg

>  <m_score__min__energy>  (72) 
-10.039999999999999

>  <m_primary>  (72) 
energy

$$$$
72:0
     RDKit          3D

 66 70  0  0  0  0  0  0  0  0999 V2000
   58.4360   27.9290   48.0150 C   0  0  0  0  0  0  0  0  0  0  0  0
   58.3890   29.0700   47.0030 C   0  0  0  0  0  0  0  0  0  0  0  0
   57.6780   28.8510   45.8080 C   0  0  0  0  0  0  0  0  0  0  0  0
   57.1870   27.5100   45.4240 C   0  0  0  0  0  0  0  0  0  0  0  0
   55.9770   27.2140   45.6220 O   0  0  0  0  0  0  0  0  0  0  0  0
   58.0640   26.5960   44.7500 N   0  0  0  0  0  0  0  0  0  0  0  0
   57.7450   25.2160   44.5140 C   0  0  0  0  0  0  0  0  0  0  0  0
   56.9980   24.8230   43.3880 C   0  0  0  0  0  0  0  0  0  0  0  0
   56.6740   23.4770   43.1950 C   0  0  0  0  0  0  0  0  0  0  0  0
   57.0880   22.5160   44.1230 C   0  0  0  0  0  0  0  0  0  0  0  0
   57.8190   22.9010   45.2500 C   0  0  0  0  0  0  0  0  0  0  0  0
   58.1360   24.2470   45.4520 C   0  0  0  0  0  0  0  0  0  0  0  0
   57.4060   29.9210   44.9730 C   0  0  0  0  0  0  0  0  0  0  0  0
   56.7230   29.7310   43.9240 O   0  0  0  0  0  0  0  0  0  0  0  0
   57.8590   31.2020   45.3020 C   0  0  0  0  0  0  0  0  0  0  0  0
   57.3970   32.2860   44.5410 C   0  0  0  0  0  0  0  0  0  0  0  0
   57.7810   33.5730   44.8380 C   0  0  0  0  0  0  0  0  0  0  0  0
   58.7170   33.8110   45.8260 C   0  0  0  0  0  0  0  0  0  0  0  0
   59.0880   35.1370   46.0360 O   0  0  0  0  0  0  0  0  0  0  0  0
   59.2900   32.7470   46.5760 C   0  0  0  0  0  0  0  0  0  0  0  0
   60.5310   33.1450   47.3800 C   0  0  0  0  0  0  0  0  0  0  0  0
   61.7840   32.7780   46.6760 N   0  0  0  0  0  0  0  0  0  0  0  0
   62.8010   33.8550   46.6490 C   0  0  0  0  0  0  0  0  0  0  0  0
   63.4910   34.0610   48.0070 C   0  0  0  0  0  0  0  0  0  0  0  0
   64.0860   32.7490   48.5180 C   0  0  0  0  0  0  0  0  0  0  0  0
   63.0250   31.6480   48.5460 C   0  0  0  0  0  0  0  0  0  0  0  0
   62.3540   31.5030   47.1710 C   0  0  0  0  0  0  0  0  0  0  0  0
   58.7650   31.3920   46.3990 C   0  0  0  0  0  0  0  0  0  0  0  0
   59.0320   30.2860   47.2290 N   0  0  0  0  0  0  0  0  0  0  0  0
   59.9140   30.3550   48.4210 C   0  0  0  0  0  0  0  0  0  0  0  0
   59.2130   30.8710   49.6620 C   0  0  0  0  0  0  0  0  0  0  0  0
   59.1790   32.2400   49.9990 C   0  0  0  0  0  0  0  0  0  0  0  0
   58.5090   32.6670   51.1490 C   0  0  0  0  0  0  0  0  0  0  0  0
   57.8510   31.7420   51.9620 C   0  0  0  0  0  0  0  0  0  0  0  0
   57.8690   30.3850   51.6340 C   0  0  0  0  0  0  0  0  0  0  0  0
   58.5430   29.9510   50.4890 C   0  0  0  0  0  0  0  0  0  0  0  0
   58.4190   28.3421   49.0344 H   0  0  0  0  0  0  0  0  0  0  0  0
   57.5641   27.2742   47.8701 H   0  0  0  0  0  0  0  0  0  0  0  0
   59.3588   27.3482   47.8701 H   0  0  0  0  0  0  0  0  0  0  0  0
   58.9440   26.9780   44.3370 H   0  0  0  0  0  0  0  0  0  0  0  0
   56.6683   25.5768   42.6579 H   0  0  0  0  0  0  0  0  0  0  0  0
   56.0926   23.1732   42.3120 H   0  0  0  0  0  0  0  0  0  0  0  0
   56.8380   21.4564   43.9656 H   0  0  0  0  0  0  0  0  0  0  0  0
   58.1451   22.1442   45.9786 H   0  0  0  0  0  0  0  0  0  0  0  0
   58.6946   24.5489   46.3503 H   0  0  0  0  0  0  0  0  0  0  0  0
   56.7181   32.1043   43.6948 H   0  0  0  0  0  0  0  0  0  0  0  0
   57.3408   34.4167   44.2863 H   0  0  0  0  0  0  0  0  0  0  0  0
   60.5179   34.2333   47.5398 H   0  0  0  0  0  0  0  0  0  0  0  0
   60.5059   32.6047   48.3378 H   0  0  0  0  0  0  0  0  0  0  0  0
   63.5662   33.5964   45.9023 H   0  0  0  0  0  0  0  0  0  0  0  0
   62.2827   34.7919   46.3968 H   0  0  0  0  0  0  0  0  0  0  0  0
   64.2959   34.8021   47.8938 H   0  0  0  0  0  0  0  0  0  0  0  0
   62.7436   34.4153   48.7321 H   0  0  0  0  0  0  0  0  0  0  0  0
   64.9072   32.4421   47.8536 H   0  0  0  0  0  0  0  0  0  0  0  0
   64.4600   32.9053   49.5406 H   0  0  0  0  0  0  0  0  0  0  0  0
   63.5016   30.6944   48.8173 H   0  0  0  0  0  0  0  0  0  0  0  0
   62.2574   31.9162   49.2869 H   0  0  0  0  0  0  0  0  0  0  0  0
   63.1043   31.1490   46.4487 H   0  0  0  0  0  0  0  0  0  0  0  0
   61.5250   30.7881   47.2794 H   0  0  0  0  0  0  0  0  0  0  0  0
   60.2954   29.3448   48.6310 H   0  0  0  0  0  0  0  0  0  0  0  0
   60.7209   31.0647   48.1861 H   0  0  0  0  0  0  0  0  0  0  0  0
   59.6821   32.9752   49.3538 H   0  0  0  0  0  0  0  0  0  0  0  0
   58.5001   33.7345   51.4142 H   0  0  0  0  0  0  0  0  0  0  0  0
   57.3179   32.0827   52.8618 H   0  0  0  0  0  0  0  0  0  0  0  0
   57.3525   29.6571   52.2770 H   0  0  0  0  0  0  0  0  0  0  0  0
   58.5496   28.8814   50.2324 H   0  0  0  0  0  0  0  0  0  0  0  0
  1  2  1  0
  2  3  2  0
  3  4  1  0
  4  5  2  0
  4  6  1  0
  6  7  1  0
  7  8  2  0
  8  9  1  0
  9 10  2  0
 10 11  1  0
 11 12  2  0
  3 13  1  0
 13 14  2  0
 13 15  1  0
 15 16  2  0
 16 17  1  0
 17 18  2  0
 18 19  1  0
 18 20  1  0
 20 21  1  0
 21 22  1  0
 22 23  1  0
 23 24  1  0
 24 25  1  0
 25 26  1  0
 26 27  1  0
 20 28  2  0
 28 29  1  0
 29 30  1  0
 30 31  1  0
 31 32  2  0
 32 33  1  0
 33 34  2  0
 34 35  1  0
 35 36  2  0
 29  2  1  0
 36 31  1  0
 12  7  1  0
 28 15  1  0
 27 22  1  0
  1 37  1  0
  1 38  1  0
  1 39  1  0
  6 40  1  0
  8 41  1  0
  9 42  1  0
 10 43  1  0
 11 44  1  0
 12 45  1  0
 16 46  1  0
 17 47  1  0
 21 48  1  0
 21 49  1  0
 23 50  1  0
 23 51  1  0
 24 52  1  0
 24 53  1  0
 25 54  1  0
 25 55  1  0
 26 56  1  0
 26 57  1  0
 27 58  1  0
 27 59  1  0
 30 60  1  0
 30 61  1  0
 32 62  1  0
 33 63  1  0
 34 64  1  0
 35 65  1  0
 36 66  1  0
M  CHG  1  19  -1
M  END
>  <UniqueID>  (73) 
65

>  <SMILES>  (73) 
Cc1c(C(=O)Nc2ccccc2)c(=O)c2ccc([O-])c(CN3CCCCC3)c2n1Cc1ccccc1

>  <Energy>  (73) 
125.01950058389869

>  <Genealogy>  (73) 
Cc1c(C(=O)Nc2ccccc2)c(=O)c2ccc([O-])c(CN3CCCCC3)c2n1Cc1ccccc1 (protonated)
Cc1c(C(=O)Nc2ccccc2)c(=O)c2ccc([O-])c(CN3CCCCC3)c2n1Cc1ccccc1 (3D coordinates assigned)
Cc1c(C(=O)Nc2ccccc2)c(=O)c2ccc([O-])c(CN3CCCCC3)c2n1Cc1ccccc1 (nonaromatic ring conformer: 125.01950058389869 kcal/mol)

>  <smiles>  (73) 
Cc1c(C(=O)Nc2ccccc2)c(=O)c2ccc(O)c(CN3CCCCC3)c2n1Cc1ccccc1

>  <score_type>  (73) 
oracle

>  <origin>  (73) 
adg

>  <m_score__min__energy>  (73) 
-10.550000000000001

>  <m_primary>  (73) 
energy

$$$$
73:0
     RDKit          3D

 27 28  0  0  0  0  0  0  0  0999 V2000
   55.1410   28.0680   44.8720 H   0  0  0  0  0  0  0  0  0  0  0  0
   55.1270   29.0790   44.8400 O   0  0  0  0  0  0  0  0  0  0  0  0
   56.2910   29.7980   44.5920 C   0  0  0  0  0  0  0  0  0  0  0  0
   56.2850   31.1520   44.4570 N   0  0  0  0  0  0  0  0  0  0  0  0
   57.5300   31.6230   44.2200 C   0  0  0  0  0  0  0  0  0  0  0  0
   57.8230   32.8780   44.0530 N   0  0  0  0  0  0  0  0  0  0  0  0
   58.0170   33.8550   45.0860 C   0  0  0  0  0  0  0  0  0  0  0  0
   57.0290   34.1930   45.7910 O   0  0  0  0  0  0  0  0  0  0  0  0
   59.3180   34.3970   45.3580 N   0  0  0  0  0  0  0  0  0  0  0  0
   60.1170   34.1690   46.5270 C   0  0  0  0  0  0  0  0  0  0  0  0
   61.4460   33.7620   46.3620 C   0  0  0  0  0  0  0  0  0  0  0  0
   61.8482   33.6094   45.3496 H   0  0  0  0  0  0  0  0  0  0  0  0
   62.2660   33.5480   47.4730 C   0  0  0  0  0  0  0  0  0  0  0  0
   63.3049   33.2166   47.3286 H   0  0  0  0  0  0  0  0  0  0  0  0
   61.7760   33.7520   48.7680 C   0  0  0  0  0  0  0  0  0  0  0  0
   62.6370   33.5230   49.8510 O   0  0  0  0  0  0  0  0  0  0  0  0
   63.3800   32.3250   50.0470 C   0  0  0  0  0  0  0  0  0  0  0  0
   63.4961   32.1377   51.1247 H   0  0  0  0  0  0  0  0  0  0  0  0
   62.8458   31.4823   49.5839 H   0  0  0  0  0  0  0  0  0  0  0  0
   64.3723   32.4291   49.5839 H   0  0  0  0  0  0  0  0  0  0  0  0
   60.4470   34.1860   48.9360 C   0  0  0  0  0  0  0  0  0  0  0  0
   60.0520   34.3584   49.9481 H   0  0  0  0  0  0  0  0  0  0  0  0
   59.6270   34.3990   47.8250 C   0  0  0  0  0  0  0  0  0  0  0  0
   58.5935   34.7482   47.9662 H   0  0  0  0  0  0  0  0  0  0  0  0
   58.6700   30.3910   44.1730 S   0  0  0  0  0  0  0  0  0  0  0  0
   57.5330   29.1860   44.4650 C   0  0  0  0  0  0  0  0  0  0  0  0
   57.7357   28.1076   44.5417 H   0  0  0  0  0  0  0  0  0  0  0  0
  1  2  1  0
  2  3  1  0
  3  4  1  0
  4  5  1  0
  5  6  2  0
  6  7  1  0
  7  8  2  0
  7  9  1  0
  9 10  1  0
 10 11  2  0
 11 12  1  0
 11 13  1  0
 13 14  1  0
 13 15  2  0
 15 16  1  0
 16 17  1  0
 17 18  1  0
 17 19  1  0
 17 20  1  0
 15 21  1  0
 21 22  1  0
 21 23  2  0
 23 24  1  0
  5 25  1  0
 25 26  1  0
 26 27  1  0
 26  3  2  0
 23 10  1  0
M  CHG  2   4  -1   9  -1
M  END
>  <UniqueID>  (74) 
66

>  <SMILES>  (74) 
COc1ccc([N-]C(=O)/N=c2\[n-]c(O)cs2)cc1

>  <Energy>  (74) 
61.45078603570957

>  <Genealogy>  (74) 
COc1ccc([N-]C(=O)N=c2[n-]c(O)cs2)cc1 (protonated)
COc1ccc([N-]C(=O)/N=c2\[n-]c(O)cs2)cc1 (cis-trans isomerization)
COc1ccc([N-]C(=O)/N=c2\[n-]c(O)cs2)cc1 (3D coordinates assigned)
COc1ccc([N-]C(=O)/N=c2\[n-]c(O)cs2)cc1 (optimized conformer: 61.45078603570957 kcal/mol)

>  <smiles>  (74) 
COc1ccc(NC(=O)N=c2[nH]c(O)cs2)cc1

>  <score_type>  (74) 
oracle

>  <origin>  (74) 
adg

>  <m_score__min__energy>  (74) 
-9.2300000000000004

>  <m_primary>  (74) 
energy

$$$$
74:0
     RDKit          3D

 35 37  0  0  0  0  0  0  0  0999 V2000
   58.0120   28.6340   47.0160 O   0  0  0  0  0  0  0  0  0  0  0  0
   57.5180   28.2040   45.9380 C   0  0  0  0  0  0  0  0  0  0  0  0
   57.9750   26.8940   45.3830 C   0  0  0  0  0  0  0  0  0  0  0  0
   57.2730   25.7750   46.0890 C   0  0  0  0  0  0  0  0  0  0  0  0
   57.9090   24.7410   46.6690 N   0  0  0  0  0  0  0  0  0  0  0  0
   56.9080   24.0390   47.2390 C   0  0  0  0  0  0  0  0  0  0  0  0
   57.1080   22.9760   47.8840 O   0  0  0  0  0  0  0  0  0  0  0  0
   55.6770   24.5670   47.0720 N   0  0  0  0  0  0  0  0  0  0  0  0
   55.9230   25.6700   46.3480 C   0  0  0  0  0  0  0  0  0  0  0  0
   54.9280   26.5590   45.9460 O   0  0  0  0  0  0  0  0  0  0  0  0
   56.4740   28.9250   45.2820 N   0  0  0  0  0  0  0  0  0  0  0  0
   56.7560   30.4330   44.4810 S   0  0  0  0  0  0  0  0  0  0  0  0
   55.4710   31.2080   44.4130 O   0  0  0  0  0  0  0  0  0  0  0  0
   57.2550   30.1690   43.0880 O   0  0  0  0  0  0  0  0  0  0  0  0
   57.9420   31.3550   45.3840 C   0  0  0  0  0  0  0  0  0  0  0  0
   57.7410   32.6120   45.9330 C   0  0  0  0  0  0  0  0  0  0  0  0
   58.8620   33.1030   46.6100 C   0  0  0  0  0  0  0  0  0  0  0  0
   59.9540   32.2300   46.5940 C   0  0  0  0  0  0  0  0  0  0  0  0
   61.2830   32.4570   47.2200 C   0  0  0  0  0  0  0  0  0  0  0  0
   62.1260   33.4960   46.7810 C   0  0  0  0  0  0  0  0  0  0  0  0
   63.3740   33.7010   47.3780 C   0  0  0  0  0  0  0  0  0  0  0  0
   63.7970   32.8730   48.4200 C   0  0  0  0  0  0  0  0  0  0  0  0
   65.0370   33.0770   49.0120 O   0  0  0  0  0  0  0  0  0  0  0  0
   62.9710   31.8400   48.8680 C   0  0  0  0  0  0  0  0  0  0  0  0
   61.7220   31.6320   48.2740 C   0  0  0  0  0  0  0  0  0  0  0  0
   59.5020   30.8490   45.7310 S   0  0  0  0  0  0  0  0  0  0  0  0
   57.7432   26.8511   44.3085 H   0  0  0  0  0  0  0  0  0  0  0  0
   59.0605   26.7942   45.5306 H   0  0  0  0  0  0  0  0  0  0  0  0
   55.1520   27.4720   45.5750 H   0  0  0  0  0  0  0  0  0  0  0  0
   56.7954   33.1671   45.8450 H   0  0  0  0  0  0  0  0  0  0  0  0
   58.8826   34.0836   47.1081 H   0  0  0  0  0  0  0  0  0  0  0  0
   61.7999   34.1525   45.9609 H   0  0  0  0  0  0  0  0  0  0  0  0
   64.0236   34.5160   47.0261 H   0  0  0  0  0  0  0  0  0  0  0  0
   63.3033   31.1886   49.6897 H   0  0  0  0  0  0  0  0  0  0  0  0
   61.0766   30.8168   48.6331 H   0  0  0  0  0  0  0  0  0  0  0  0
  1  2  2  0
  2  3  1  0
  3  4  1  0
  4  5  1  0
  5  6  1  0
  6  7  2  0
  6  8  1  0
  8  9  1  0
  9 10  1  0
  2 11  1  0
 11 12  1  0
 12 13  2  0
 12 14  2  0
 12 15  1  0
 15 16  2  0
 16 17  1  0
 17 18  2  0
 18 19  1  0
 19 20  2  0
 20 21  1  0
 21 22  2  0
 22 23  1  0
 22 24  1  0
 24 25  2  0
 18 26  1  0
  9  4  2  0
 26 15  1  0
 25 19  1  0
  3 27  1  0
  3 28  1  0
 10 29  1  0
 16 30  1  0
 17 31  1  0
 20 32  1  0
 21 33  1  0
 24 34  1  0
 25 35  1  0
M  CHG  4   5  -1   8  -1  11  -1  23  -1
M  END
>  <UniqueID>  (75) 
67

>  <SMILES>  (75) 
O=C(Cc1[n-]c(=O)[n-]c1O)[N-]S(=O)(=O)c1ccc(-c2ccc([O-])cc2)s1

>  <Energy>  (75) 
93.56908586961718

>  <Genealogy>  (75) 
O=C(Cc1[n-]c(=O)[n-]c1O)[N-]S(=O)(=O)c1ccc(-c2ccc([O-])cc2)s1 (protonated)
O=C(Cc1[n-]c(=O)[n-]c1O)[N-]S(=O)(=O)c1ccc(-c2ccc([O-])cc2)s1 (3D coordinates assigned)
O=C(Cc1[n-]c(=O)[n-]c1O)[N-]S(=O)(=O)c1ccc(-c2ccc([O-])cc2)s1 (optimized conformer: 93.56908586961718 kcal/mol)

>  <smiles>  (75) 
O=C(Cc1[nH]c(=O)[nH]c1O)NS(=O)(=O)c1ccc(-c2ccc(O)cc2)s1

>  <score_type>  (75) 
oracle

>  <origin>  (75) 
adg

>  <m_score__min__energy>  (75) 
-15.4

>  <m_primary>  (75) 
energy

$$$$
75:0
     RDKit          3D

 44 46  0  0  1  0  0  0  0  0999 V2000
   54.8560   23.7500   44.5110 C   0  0  0  0  0  0  0  0  0  0  0  0
   55.4140   23.9870   45.9030 C   0  0  0  0  0  0  0  0  0  0  0  0
   55.3560   25.3840   46.2840 N   0  0  0  0  0  0  0  0  0  0  0  0
   56.2370   26.1770   45.7680 C   0  0  0  0  0  0  0  0  0  0  0  0
   57.3940   25.5920   45.3700 N   0  0  0  0  0  0  0  0  0  0  0  0
   58.3850   26.3240   44.8150 C   0  0  0  0  0  0  0  0  0  0  0  0
   58.1520   27.6760   44.6820 C   0  0  0  0  0  0  0  0  0  0  0  0
   56.9780   28.2780   45.0840 C   0  0  0  0  0  0  0  0  0  0  0  0
   56.7380   29.5190   44.9670 N   0  0  0  0  0  0  0  0  0  0  0  0
   57.5930   30.5170   44.3760 C   0  0  0  0  0  0  0  0  0  0  0  0
   56.9520   31.8760   44.5140 C   0  0  0  0  0  0  0  0  0  0  0  0
   57.9810   33.0030   44.4960 C   0  0  0  0  0  0  0  0  0  0  0  0
   58.7890   32.8520   45.6990 N   0  0  0  0  0  0  0  0  0  0  0  0
   59.5080   33.9750   46.1830 C   0  0  0  0  0  0  0  0  0  0  0  0
   59.3970   35.0430   45.5240 O   0  0  0  0  0  0  0  0  0  0  0  0
   60.3410   33.9870   47.3510 C   0  0  0  0  0  0  0  0  0  0  0  0
   61.7000   33.5700   47.4840 C   0  0  0  0  0  0  0  0  0  0  0  0
   62.2940   33.6630   48.6450 C   0  0  0  0  0  0  0  0  0  0  0  0
   64.1470   33.1140   48.9340 Br  0  0  0  0  0  0  0  0  0  0  0  0
   61.5990   34.1710   49.7610 C   0  0  0  0  0  0  0  0  0  0  0  0
   59.9090   34.5440   49.0050 S   0  0  0  0  0  0  0  0  0  0  0  0
   58.8120   31.5460   46.3320 C   0  0  0  0  0  0  0  0  0  0  0  0
   58.8650   30.5310   45.2050 C   0  0  0  0  0  0  0  0  0  0  0  0
   56.0290   27.4970   45.6290 N   0  0  0  0  0  0  0  0  0  0  0  0
   53.8461   23.3211   44.5889 H   0  0  0  0  0  0  0  0  0  0  0  0
   54.8077   24.7053   43.9678 H   0  0  0  0  0  0  0  0  0  0  0  0
   55.5099   23.0519   43.9678 H   0  0  0  0  0  0  0  0  0  0  0  0
   54.8287   23.3982   46.6246 H   0  0  0  0  0  0  0  0  0  0  0  0
   56.4704   23.6805   45.9007 H   0  0  0  0  0  0  0  0  0  0  0  0
   57.5780   24.5740   45.4650 H   0  0  0  0  0  0  0  0  0  0  0  0
   59.3289   25.8646   44.4863 H   0  0  0  0  0  0  0  0  0  0  0  0
   58.9376   28.3030   44.2352 H   0  0  0  0  0  0  0  0  0  0  0  0
   57.7759   30.2967   43.3139 H   0  0  0  0  0  0  0  0  0  0  0  0
   56.2506   32.0233   43.6795 H   0  0  0  0  0  0  0  0  0  0  0  0
   56.4330   31.9079   45.4834 H   0  0  0  0  0  0  0  0  0  0  0  0
   58.6153   32.9229   43.6009 H   0  0  0  0  0  0  0  0  0  0  0  0
   57.4896   33.9868   44.4705 H   0  0  0  0  0  0  0  0  0  0  0  0
   62.2442   33.1727   46.6145 H   0  0  0  0  0  0  0  0  0  0  0  0
   61.9474   34.3123   50.7948 H   0  0  0  0  0  0  0  0  0  0  0  0
   59.6995   31.4491   46.9746 H   0  0  0  0  0  0  0  0  0  0  0  0
   57.9279   31.3930   46.9684 H   0  0  0  0  0  0  0  0  0  0  0  0
   59.7119   30.7773   44.5477 H   0  0  0  0  0  0  0  0  0  0  0  0
   58.9808   29.5349   45.6570 H   0  0  0  0  0  0  0  0  0  0  0  0
   55.1450   27.9110   45.9400 H   0  0  0  0  0  0  0  0  0  0  0  0
  1  2  1  0
  2  3  1  0
  3  4  2  0
  4  5  1  0
  5  6  1  0
  6  7  2  0
  7  8  1  0
  8  9  2  0
  9 10  1  0
 10 11  1  0
 11 12  1  0
 12 13  1  0
 13 14  1  0
 14 15  2  0
 14 16  1  0
 16 17  2  0
 17 18  1  0
 18 19  1  0
 18 20  2  0
 20 21  1  0
 13 22  1  0
 22 23  1  0
  8 24  1  0
 24  4  1  0
 23 10  1  0
 21 16  1  0
  1 25  1  0
  1 26  1  0
  1 27  1  0
  2 28  1  0
  2 29  1  0
  5 30  1  0
  6 31  1  0
  7 32  1  0
 10 33  1  0
 11 34  1  0
 11 35  1  0
 12 36  1  0
 12 37  1  0
 17 38  1  0
 20 39  1  0
 22 40  1  0
 22 41  1  0
 23 42  1  0
 23 43  1  0
 24 44  1  0
M  END
>  <smiles>  (76) 
CCN=c1[nH]ccc(=NC2CCN(C(=O)c3cc(Br)cs3)CC2)[nH]1

>  <score_type>  (76) 
oracle

>  <origin>  (76) 
adg

>  <m_score__min__energy>  (76) 
-8.6899999999999995

>  <m_primary>  (76) 
energy

$$$$
76:0
     RDKit          3D

 56 59  0  0  0  0  0  0  0  0999 V2000
   56.3451   30.3962   41.4521 H   0  0  0  0  0  0  0  0  0  0  0  0
   56.6560   30.3730   42.5070 C   0  0  0  0  0  0  0  0  0  0  0  0
   56.6590   29.1640   43.2050 C   0  0  0  0  0  0  0  0  0  0  0  0
   56.3332   28.2410   42.7030 H   0  0  0  0  0  0  0  0  0  0  0  0
   57.0760   29.1210   44.5450 C   0  0  0  0  0  0  0  0  0  0  0  0
   57.0380   27.8470   45.2980 C   0  0  0  0  0  0  0  0  0  0  0  0
   55.9300   27.3490   45.6280 O   0  0  0  0  0  0  0  0  0  0  0  0
   58.2420   27.1890   45.7080 N   0  0  0  0  0  0  0  0  0  0  0  0
   58.8990   27.4760   46.7910 C   0  0  0  0  0  0  0  0  0  0  0  0
   59.1090   26.5710   47.7700 N   0  0  0  0  0  0  0  0  0  0  0  0
   59.8490   27.0480   48.7710 N   0  0  0  0  0  0  0  0  0  0  0  0
   60.2290   28.3350   48.6000 C   0  0  0  0  0  0  0  0  0  0  0  0
   61.1450   29.0440   49.5530 C   0  0  0  0  0  0  0  0  0  0  0  0
   62.1711   29.0010   49.1589 H   0  0  0  0  0  0  0  0  0  0  0  0
   61.0749   28.5436   50.5301 H   0  0  0  0  0  0  0  0  0  0  0  0
   60.7740   30.4130   49.7280 O   0  0  0  0  0  0  0  0  0  0  0  0
   61.5900   31.5310   49.4790 C   0  0  0  0  0  0  0  0  0  0  0  0
   62.2490   31.7200   48.2470 C   0  0  0  0  0  0  0  0  0  0  0  0
   62.1326   30.9728   47.4481 H   0  0  0  0  0  0  0  0  0  0  0  0
   63.0510   32.8490   48.0280 C   0  0  0  0  0  0  0  0  0  0  0  0
   63.7060   33.0650   46.6960 C   0  0  0  0  0  0  0  0  0  0  0  0
   64.7407   33.4062   46.8473 H   0  0  0  0  0  0  0  0  0  0  0  0
   63.7101   32.1206   46.1320 H   0  0  0  0  0  0  0  0  0  0  0  0
   63.1475   33.8266   46.1320 H   0  0  0  0  0  0  0  0  0  0  0  0
   63.1870   33.8060   49.0390 C   0  0  0  0  0  0  0  0  0  0  0  0
   63.7941   34.7064   48.8637 H   0  0  0  0  0  0  0  0  0  0  0  0
   62.5550   33.6220   50.2690 C   0  0  0  0  0  0  0  0  0  0  0  0
   62.6873   34.3675   51.0670 H   0  0  0  0  0  0  0  0  0  0  0  0
   61.7520   32.4940   50.4970 C   0  0  0  0  0  0  0  0  0  0  0  0
   61.1460   32.2880   51.8560 C   0  0  0  0  0  0  0  0  0  0  0  0
   61.8864   32.5397   52.6296 H   0  0  0  0  0  0  0  0  0  0  0  0
   60.2649   32.9371   51.9668 H   0  0  0  0  0  0  0  0  0  0  0  0
   60.8430   31.2364   51.9668 H   0  0  0  0  0  0  0  0  0  0  0  0
   59.6630   28.9440   47.1290 S   0  0  0  0  0  0  0  0  0  0  0  0
   57.4810   30.3100   45.1770 C   0  0  0  0  0  0  0  0  0  0  0  0
   57.8152   30.2848   46.2247 H   0  0  0  0  0  0  0  0  0  0  0  0
   57.4620   31.5290   44.4810 C   0  0  0  0  0  0  0  0  0  0  0  0
   57.8790   33.0360   45.3040 S   0  0  0  0  0  0  0  0  0  0  0  0
   57.9920   34.1230   44.2720 O   0  0  0  0  0  0  0  0  0  0  0  0
   56.7630   33.4100   46.2390 O   0  0  0  0  0  0  0  0  0  0  0  0
   59.3870   32.9540   46.1950 N   0  0  0  0  0  0  0  0  0  0  0  0
   60.3440   33.9990   45.7940 C   0  0  0  0  0  0  0  0  0  0  0  0
   61.3508   33.6983   46.1195 H   0  0  0  0  0  0  0  0  0  0  0  0
   60.2851   34.1027   44.7005 H   0  0  0  0  0  0  0  0  0  0  0  0
   60.0150   35.3740   46.4120 C   0  0  0  0  0  0  0  0  0  0  0  0
   60.9437   35.8071   46.8119 H   0  0  0  0  0  0  0  0  0  0  0  0
   59.5768   35.9909   45.6136 H   0  0  0  0  0  0  0  0  0  0  0  0
   59.0630   35.3100   47.4590 O   0  0  0  0  0  0  0  0  0  0  0  0
   59.3880   34.2590   48.3410 C   0  0  0  0  0  0  0  0  0  0  0  0
   60.4402   34.3557   48.6467 H   0  0  0  0  0  0  0  0  0  0  0  0
   58.7299   34.3172   49.2205 H   0  0  0  0  0  0  0  0  0  0  0  0
   59.1830   32.8950   47.6560 C   0  0  0  0  0  0  0  0  0  0  0  0
   59.8983   32.1762   48.0823 H   0  0  0  0  0  0  0  0  0  0  0  0
   58.1419   32.5875   47.8336 H   0  0  0  0  0  0  0  0  0  0  0  0
   57.0460   31.5520   43.1430 C   0  0  0  0  0  0  0  0  0  0  0  0
   57.0269   32.5037   42.5918 H   0  0  0  0  0  0  0  0  0  0  0  0
  1  2  1  0
  2  3  2  0
  3  4  1  0
  3  5  1  0
  5  6  1  0
  6  7  2  0
  6  8  1  0
  8  9  2  0
  9 10  1  0
 10 11  1  0
 11 12  2  0
 12 13  1  0
 13 14  1  0
 13 15  1  0
 13 16  1  0
 16 17  1  0
 17 18  2  0
 18 19  1  0
 18 20  1  0
 20 21  1  0
 21 22  1  0
 21 23  1  0
 21 24  1  0
 20 25  2  0
 25 26  1  0
 25 27  1  0
 27 28  1  0
 27 29  2  0
 29 30  1  0
 30 31  1  0
 30 32  1  0
 30 33  1  0
 12 34  1  0
  5 35  2  0
 35 36  1  0
 35 37  1  0
 37 38  1  0
 38 39  2  0
 38 40  2  0
 38 41  1  0
 41 42  1  0
 42 43  1  0
 42 44  1  0
 42 45  1  0
 45 46  1  0
 45 47  1  0
 45 48  1  0
 48 49  1  0
 49 50  1  0
 49 51  1  0
 49 52  1  0
 52 53  1  0
 52 54  1  0
 37 55  2  0
 55 56  1  0
 55  2  1  0
 34  9  1  0
 52 41  1  0
 29 17  1  0
M  CHG  1  10  -1
M  END
>  <UniqueID>  (77) 
68

>  <SMILES>  (77) 
Cc1ccc(C)c(OCc2n[n-]/c(=N/C(=O)c3cccc(S(=O)(=O)N4CCOCC4)c3)s2)c1

>  <Energy>  (77) 
108.251438141455

>  <Genealogy>  (77) 
Cc1ccc(C)c(OCc2n[n-]c(=NC(=O)c3cccc(S(=O)(=O)N4CCOCC4)c3)s2)c1 (protonated)
Cc1ccc(C)c(OCc2n[n-]/c(=N/C(=O)c3cccc(S(=O)(=O)N4CCOCC4)c3)s2)c1 (cis-trans isomerization)
Cc1ccc(C)c(OCc2n[n-]/c(=N/C(=O)c3cccc(S(=O)(=O)N4CCOCC4)c3)s2)c1 (3D coordinates assigned)
Cc1ccc(C)c(OCc2n[n-]/c(=N/C(=O)c3cccc(S(=O)(=O)N4CCOCC4)c3)s2)c1 (nonaromatic ring conformer: 108.251438141455 kcal/mol)

>  <smiles>  (77) 
Cc1ccc(C)c(OCc2n[nH]c(=NC(=O)c3cccc(S(=O)(=O)N4CCOCC4)c3)s2)c1

>  <score_type>  (77) 
oracle

>  <origin>  (77) 
adg

>  <m_score__min__energy>  (77) 
-10.99

>  <m_primary>  (77) 
energy

$$$$
77:0
     RDKit          3D

 42 44  0  0  0  0  0  0  0  0999 V2000
   61.3710   28.8680   44.7020 H   0  0  0  0  0  0  0  0  0  0  0  0
   60.6620   28.8350   45.4250 O   0  0  0  0  0  0  0  0  0  0  0  0
   59.6690   27.8580   45.4120 C   0  0  0  0  0  0  0  0  0  0  0  0
   59.1240   27.4860   44.2280 N   0  0  0  0  0  0  0  0  0  0  0  0
   58.1220   26.5730   44.1600 C   0  0  0  0  0  0  0  0  0  0  0  0
   57.6600   26.2530   43.0310 O   0  0  0  0  0  0  0  0  0  0  0  0
   57.6270   26.0090   45.3050 N   0  0  0  0  0  0  0  0  0  0  0  0
   56.5510   25.0520   45.2270 C   0  0  0  0  0  0  0  0  0  0  0  0
   56.8110   23.7370   44.8090 C   0  0  0  0  0  0  0  0  0  0  0  0
   57.8363   23.4392   44.5441 H   0  0  0  0  0  0  0  0  0  0  0  0
   55.7730   22.8050   44.7280 C   0  0  0  0  0  0  0  0  0  0  0  0
   55.9825   21.7766   44.3986 H   0  0  0  0  0  0  0  0  0  0  0  0
   54.4690   23.1780   45.0650 C   0  0  0  0  0  0  0  0  0  0  0  0
   53.6529   22.4433   44.9997 H   0  0  0  0  0  0  0  0  0  0  0  0
   54.2010   24.4840   45.4850 C   0  0  0  0  0  0  0  0  0  0  0  0
   53.1738   24.7758   45.7492 H   0  0  0  0  0  0  0  0  0  0  0  0
   55.2370   25.4210   45.5700 C   0  0  0  0  0  0  0  0  0  0  0  0
   54.9600   26.7130   46.0020 O   0  0  0  0  0  0  0  0  0  0  0  0
   58.1480   26.3580   46.5230 C   0  0  0  0  0  0  0  0  0  0  0  0
   57.6810   25.8490   47.5820 O   0  0  0  0  0  0  0  0  0  0  0  0
   59.2080   27.2800   46.6060 C   0  0  0  0  0  0  0  0  0  0  0  0
   59.7630   27.6550   47.9300 C   0  0  0  0  0  0  0  0  0  0  0  0
   60.5399   27.0178   48.3777 H   0  0  0  0  0  0  0  0  0  0  0  0
   59.3540   28.7400   48.6010 C   0  0  0  0  0  0  0  0  0  0  0  0
   58.9864   28.6040   49.6288 H   0  0  0  0  0  0  0  0  0  0  0  0
   59.3670   30.1150   48.0410 C   0  0  0  0  0  0  0  0  0  0  0  0
   58.4850   30.5310   47.0220 C   0  0  0  0  0  0  0  0  0  0  0  0
   57.7554   29.8201   46.6070 H   0  0  0  0  0  0  0  0  0  0  0  0
   58.5320   31.8410   46.5360 C   0  0  0  0  0  0  0  0  0  0  0  0
   57.8400   32.1551   45.7407 H   0  0  0  0  0  0  0  0  0  0  0  0
   59.4560   32.7550   47.0570 C   0  0  0  0  0  0  0  0  0  0  0  0
   59.5000   34.4080   46.4540 S   0  0  0  0  0  0  0  0  0  0  0  0
   60.9230   34.8260   46.2140 O   0  0  0  0  0  0  0  0  0  0  0  0
   58.8900   35.3360   47.4670 O   0  0  0  0  0  0  0  0  0  0  0  0
   58.5850   34.5060   44.9330 C   0  0  0  0  0  0  0  0  0  0  0  0
   57.5140   34.6207   45.1561 H   0  0  0  0  0  0  0  0  0  0  0  0
   58.9331   35.3720   44.3509 H   0  0  0  0  0  0  0  0  0  0  0  0
   58.7418   33.5859   44.3509 H   0  0  0  0  0  0  0  0  0  0  0  0
   60.3180   32.3550   48.0840 C   0  0  0  0  0  0  0  0  0  0  0  0
   61.0345   33.0737   48.5084 H   0  0  0  0  0  0  0  0  0  0  0  0
   60.2730   31.0470   48.5730 C   0  0  0  0  0  0  0  0  0  0  0  0
   60.9536   30.7443   49.3824 H   0  0  0  0  0  0  0  0  0  0  0  0
  1  2  1  0
  2  3  1  0
  3  4  1  0
  4  5  1  0
  5  6  2  0
  5  7  1  0
  7  8  1  0
  8  9  2  0
  9 10  1  0
  9 11  1  0
 11 12  1  0
 11 13  2  0
 13 14  1  0
 13 15  1  0
 15 16  1  0
 15 17  2  0
 17 18  1  0
  7 19  1  0
 19 20  2  0
 19 21  1  0
 21 22  1  0
 22 23  1  0
 22 24  2  0
 24 25  1  0
 24 26  1  0
 26 27  2  0
 27 28  1  0
 27 29  1  0
 29 30  1  0
 29 31  2  0
 31 32  1  0
 32 33  2  0
 32 34  2  0
 32 35  1  0
 35 36  1  0
 35 37  1  0
 35 38  1  0
 31 39  1  0
 39 40  1  0
 39 41  2  0
 41 42  1  0
 21  3  2  0
 41 26  1  0
 17  8  1  0
M  CHG  2   4  -1  18  -1
M  END
>  <UniqueID>  (78) 
69

>  <SMILES>  (78) 
CS(=O)(=O)c1ccc(/C=C/c2c(O)[n-]c(=O)n(-c3ccccc3[O-])c2=O)cc1

>  <Energy>  (78) 
61.09435127623677

>  <Genealogy>  (78) 
CS(=O)(=O)c1ccc(C=Cc2c(O)[n-]c(=O)n(-c3ccccc3[O-])c2=O)cc1 (protonated)
CS(=O)(=O)c1ccc(/C=C/c2c(O)[n-]c(=O)n(-c3ccccc3[O-])c2=O)cc1 (cis-trans isomerization)
CS(=O)(=O)c1ccc(/C=C/c2c(O)[n-]c(=O)n(-c3ccccc3[O-])c2=O)cc1 (3D coordinates assigned)
CS(=O)(=O)c1ccc(/C=C/c2c(O)[n-]c(=O)n(-c3ccccc3[O-])c2=O)cc1 (optimized conformer: 61.09435127623677 kcal/mol)

>  <smiles>  (78) 
CS(=O)(=O)c1ccc(C=Cc2c(O)[nH]c(=O)n(-c3ccccc3O)c2=O)cc1

>  <score_type>  (78) 
oracle

>  <origin>  (78) 
adg

>  <m_score__min__energy>  (78) 
-12.58

>  <m_primary>  (78) 
energy

$$$$
78:0
     RDKit          3D

 62 65  0  0  1  0  0  0  0  0999 V2000
   56.9160   29.8700   43.5100 C   0  0  0  0  0  0  0  0  0  0  0  0
   56.7160   30.1950   44.8710 O   0  0  0  0  0  0  0  0  0  0  0  0
   57.4030   31.2820   45.3960 C   0  0  0  0  0  0  0  0  0  0  0  0
   57.1400   32.5850   45.0550 C   0  0  0  0  0  0  0  0  0  0  0  0
   57.8580   33.6300   45.6100 C   0  0  0  0  0  0  0  0  0  0  0  0
   58.8580   33.3610   46.5260 C   0  0  0  0  0  0  0  0  0  0  0  0
   59.8060   34.6350   47.2610 S   0  0  0  0  0  0  0  0  0  0  0  0
   59.7120   35.9080   46.4470 O   0  0  0  0  0  0  0  0  0  0  0  0
   59.2690   34.9780   48.6270 O   0  0  0  0  0  0  0  0  0  0  0  0
   61.4530   34.1760   47.4840 N   0  0  0  0  0  0  0  0  0  0  0  0
   62.0080   33.5030   46.3260 C   0  0  0  0  0  0  0  0  0  0  0  0
   63.5100   33.4580   46.5070 C   0  0  0  0  0  0  0  0  0  0  0  0
   63.8610   33.5400   47.9940 C   0  0  0  0  0  0  0  0  0  0  0  0
   62.8920   32.6480   48.7690 C   0  0  0  0  0  0  0  0  0  0  0  0
   61.5160   33.2620   48.6090 C   0  0  0  0  0  0  0  0  0  0  0  0
   59.1130   32.0440   46.8610 C   0  0  0  0  0  0  0  0  0  0  0  0
   58.4020   30.9850   46.3120 C   0  0  0  0  0  0  0  0  0  0  0  0
   58.6930   29.6440   46.6850 N   0  0  0  0  0  0  0  0  0  0  0  0
   60.0530   29.2700   46.9140 C   0  0  0  0  0  0  0  0  0  0  0  0
   60.9040   30.2100   46.7550 O   0  0  0  0  0  0  0  0  0  0  0  0
   60.4640   27.9210   47.2990 C   0  0  0  0  0  0  0  0  0  0  0  0
   59.8880   26.6060   46.2370 S   0  0  0  0  0  0  0  0  0  0  0  0
   58.1110   26.6620   46.0120 C   0  0  0  0  0  0  0  0  0  0  0  0
   57.1630   27.2580   45.7620 N   0  0  0  0  0  0  0  0  0  0  0  0
   55.9230   26.9230   45.6890 N   0  0  0  0  0  0  0  0  0  0  0  0
   55.6650   25.6420   45.9490 C   0  0  0  0  0  0  0  0  0  0  0  0
   54.5870   24.9330   45.9790 N   0  0  0  0  0  0  0  0  0  0  0  0
   54.4710   23.7160   45.1530 C   0  0  0  0  0  0  0  0  0  0  0  0
   55.3180   23.8370   43.9280 C   0  0  0  0  0  0  0  0  0  0  0  0
   56.2670   22.6830   43.9250 C   0  0  0  0  0  0  0  0  0  0  0  0
   56.1140   21.9930   45.2510 C   0  0  0  0  0  0  0  0  0  0  0  0
   54.8610   22.4850   45.9030 C   0  0  0  0  0  0  0  0  0  0  0  0
   57.3360   24.9350   46.3110 S   0  0  0  0  0  0  0  0  0  0  0  0
   57.4912   28.9352   43.4369 H   0  0  0  0  0  0  0  0  0  0  0  0
   55.9413   29.7402   43.0170 H   0  0  0  0  0  0  0  0  0  0  0  0
   57.4711   30.6816   43.0170 H   0  0  0  0  0  0  0  0  0  0  0  0
   56.3442   32.8028   44.3275 H   0  0  0  0  0  0  0  0  0  0  0  0
   57.6343   34.6684   45.3240 H   0  0  0  0  0  0  0  0  0  0  0  0
   61.6067   32.4812   46.2565 H   0  0  0  0  0  0  0  0  0  0  0  0
   61.7435   34.0375   45.4017 H   0  0  0  0  0  0  0  0  0  0  0  0
   63.8987   32.5162   46.0924 H   0  0  0  0  0  0  0  0  0  0  0  0
   63.9626   34.3120   45.9817 H   0  0  0  0  0  0  0  0  0  0  0  0
   64.8927   33.1925   48.1518 H   0  0  0  0  0  0  0  0  0  0  0  0
   63.7799   34.5795   48.3444 H   0  0  0  0  0  0  0  0  0  0  0  0
   62.9028   31.6281   48.3570 H   0  0  0  0  0  0  0  0  0  0  0  0
   63.1759   32.5816   49.8297 H   0  0  0  0  0  0  0  0  0  0  0  0
   60.7841   32.4559   48.4524 H   0  0  0  0  0  0  0  0  0  0  0  0
   61.2920   33.8331   49.5220 H   0  0  0  0  0  0  0  0  0  0  0  0
   59.9084   31.8271   47.5892 H   0  0  0  0  0  0  0  0  0  0  0  0
   57.9650   28.9070   46.8050 H   0  0  0  0  0  0  0  0  0  0  0  0
   61.5636   27.8918   47.3077 H   0  0  0  0  0  0  0  0  0  0  0  0
   60.0062   27.7361   48.2820 H   0  0  0  0  0  0  0  0  0  0  0  0
   55.1430   27.6030   45.4420 H   0  0  0  0  0  0  0  0  0  0  0  0
   53.4123   23.6208   44.8701 H   0  0  0  0  0  0  0  0  0  0  0  0
   54.6852   23.8057   43.0288 H   0  0  0  0  0  0  0  0  0  0  0  0
   55.8663   24.7906   43.9276 H   0  0  0  0  0  0  0  0  0  0  0  0
   56.0191   21.9908   43.1069 H   0  0  0  0  0  0  0  0  0  0  0  0
   57.3021   23.0231   43.7736 H   0  0  0  0  0  0  0  0  0  0  0  0
   56.0497   20.9056   45.0977 H   0  0  0  0  0  0  0  0  0  0  0  0
   56.9816   22.2118   45.8909 H   0  0  0  0  0  0  0  0  0  0  0  0
   54.0683   21.7256   45.8322 H   0  0  0  0  0  0  0  0  0  0  0  0
   55.0147   22.6929   46.9722 H   0  0  0  0  0  0  0  0  0  0  0  0
  1  2  1  0
  2  3  1  0
  3  4  2  0
  4  5  1  0
  5  6  2  0
  6  7  1  0
  7  8  2  0
  7  9  2  0
  7 10  1  0
 10 11  1  0
 11 12  1  0
 12 13  1  0
 13 14  1  0
 14 15  1  0
  6 16  1  0
 16 17  2  0
 17 18  1  0
 18 19  1  0
 19 20  2  0
 19 21  1  0
 21 22  1  0
 22 23  1  0
 23 24  2  0
 24 25  1  0
 25 26  1  0
 26 27  2  0
 27 28  1  0
 28 29  1  0
 29 30  1  0
 30 31  1  0
 31 32  1  0
 26 33  1  0
 17  3  1  0
 33 23  1  0
 15 10  1  0
 32 28  1  0
  1 34  1  0
  1 35  1  0
  1 36  1  0
  4 37  1  0
  5 38  1  0
 11 39  1  0
 11 40  1  0
 12 41  1  0
 12 42  1  0
 13 43  1  0
 13 44  1  0
 14 45  1  0
 14 46  1  0
 15 47  1  0
 15 48  1  0
 16 49  1  0
 18 50  1  0
 21 51  1  0
 21 52  1  0
 25 53  1  0
 28 54  1  0
 29 55  1  0
 29 56  1  0
 30 57  1  0
 30 58  1  0
 31 59  1  0
 31 60  1  0
 32 61  1  0
 32 62  1  0
M  END
>  <smiles>  (79) 
COc1ccc(S(=O)(=O)N2CCCCC2)cc1NC(=O)CSc1n[nH]c(=NC2CCCC2)s1

>  <score_type>  (79) 
oracle

>  <origin>  (79) 
adg

>  <m_score__min__energy>  (79) 
-11.34

>  <m_primary>  (79) 
energy

$$$$
79:0
     RDKit          3D

 56 59  0  0  0  0  0  0  0  0999 V2000
   55.8610   27.5080   45.6100 N   0  0  0  0  0  0  0  0  0  0  0  0
   57.2390   27.9230   45.6000 C   0  0  0  0  0  0  0  0  0  0  0  0
   57.6610   29.0030   44.7790 C   0  0  0  0  0  0  0  0  0  0  0  0
   56.5280   29.9830   43.8290 S   0  0  0  0  0  0  0  0  0  0  0  0
   56.2520   29.2550   42.2840 N   0  0  0  0  0  0  0  0  0  0  0  0
   55.2080   30.0800   44.5430 O   0  0  0  0  0  0  0  0  0  0  0  0
   57.0680   31.3750   43.6570 O   0  0  0  0  0  0  0  0  0  0  0  0
   59.0230   29.3190   44.7070 C   0  0  0  0  0  0  0  0  0  0  0  0
   59.9650   28.5910   45.4240 C   0  0  0  0  0  0  0  0  0  0  0  0
   59.5680   27.5530   46.2680 C   0  0  0  0  0  0  0  0  0  0  0  0
   60.8490   26.6840   47.1870 S   0  0  0  0  0  0  0  0  0  0  0  0
   60.7650   27.7900   48.5980 C   0  0  0  0  0  0  0  0  0  0  0  0
   60.7940   27.2660   49.8930 C   0  0  0  0  0  0  0  0  0  0  0  0
   60.6550   28.1130   50.9940 C   0  0  0  0  0  0  0  0  0  0  0  0
   60.4670   29.4850   50.8010 C   0  0  0  0  0  0  0  0  0  0  0  0
   60.4270   30.0220   49.5100 C   0  0  0  0  0  0  0  0  0  0  0  0
   60.1660   31.4250   49.3630 N   0  0  0  0  0  0  0  0  0  0  0  0
   60.8900   32.4680   48.1820 S   0  0  0  0  0  0  0  0  0  0  0  0
   61.5550   33.6180   48.8790 O   0  0  0  0  0  0  0  0  0  0  0  0
   61.9230   31.6910   47.4200 O   0  0  0  0  0  0  0  0  0  0  0  0
   59.6640   33.1150   47.0920 C   0  0  0  0  0  0  0  0  0  0  0  0
   58.3510   32.6260   47.1530 C   0  0  0  0  0  0  0  0  0  0  0  0
   57.3850   33.0920   46.2550 C   0  0  0  0  0  0  0  0  0  0  0  0
   57.7250   34.0530   45.3020 C   0  0  0  0  0  0  0  0  0  0  0  0
   59.0290   34.5530   45.2470 C   0  0  0  0  0  0  0  0  0  0  0  0
   59.9990   34.0850   46.1400 C   0  0  0  0  0  0  0  0  0  0  0  0
   60.6000   29.1680   48.4040 C   0  0  0  0  0  0  0  0  0  0  0  0
   58.2000   27.2130   46.3720 C   0  0  0  0  0  0  0  0  0  0  0  0
   57.7720   26.1380   47.2950 C   0  0  0  0  0  0  0  0  0  0  0  0
   58.5220   25.8020   48.2510 O   0  0  0  0  0  0  0  0  0  0  0  0
   56.4650   25.5610   47.1390 N   0  0  0  0  0  0  0  0  0  0  0  0
   55.9900   24.8290   46.1710 C   0  0  0  0  0  0  0  0  0  0  0  0
   56.7980   24.0300   45.3360 C   0  0  0  0  0  0  0  0  0  0  0  0
   56.2010   23.2720   44.3250 C   0  0  0  0  0  0  0  0  0  0  0  0
   54.8200   23.3150   44.1420 C   0  0  0  0  0  0  0  0  0  0  0  0
   54.0520   24.1350   44.9670 C   0  0  0  0  0  0  0  0  0  0  0  0
   54.6480   24.8640   45.9430 N   0  0  0  0  0  0  0  0  0  0  0  0
   55.1550   27.9410   44.9790 H   0  0  0  0  0  0  0  0  0  0  0  0
   55.4710   26.8680   46.3330 H   0  0  0  0  0  0  0  0  0  0  0  0
   56.6140   28.2780   42.3180 H   0  0  0  0  0  0  0  0  0  0  0  0
   55.2170   29.1930   42.1530 H   0  0  0  0  0  0  0  0  0  0  0  0
   59.3524   30.1558   44.0736 H   0  0  0  0  0  0  0  0  0  0  0  0
   61.0330   28.8352   45.3253 H   0  0  0  0  0  0  0  0  0  0  0  0
   60.9265   26.1847   50.0451 H   0  0  0  0  0  0  0  0  0  0  0  0
   60.6934   27.7011   52.0132 H   0  0  0  0  0  0  0  0  0  0  0  0
   60.3496   30.1474   51.6713 H   0  0  0  0  0  0  0  0  0  0  0  0
   58.0801   31.8741   47.9089 H   0  0  0  0  0  0  0  0  0  0  0  0
   56.3578   32.7011   46.3000 H   0  0  0  0  0  0  0  0  0  0  0  0
   56.9663   34.4172   44.5937 H   0  0  0  0  0  0  0  0  0  0  0  0
   59.2932   35.3161   44.5001 H   0  0  0  0  0  0  0  0  0  0  0  0
   61.0249   34.4793   46.0940 H   0  0  0  0  0  0  0  0  0  0  0  0
   60.6056   29.5834   47.3855 H   0  0  0  0  0  0  0  0  0  0  0  0
   57.8883   24.0036   45.4791 H   0  0  0  0  0  0  0  0  0  0  0  0
   56.8220   22.6405   43.6727 H   0  0  0  0  0  0  0  0  0  0  0  0
   54.3426   22.7100   43.3571 H   0  0  0  0  0  0  0  0  0  0  0  0
   52.9624   24.1908   44.8264 H   0  0  0  0  0  0  0  0  0  0  0  0
  1  2  1  0
  2  3  2  0
  3  4  1  0
  4  5  1  0
  4  6  2  0
  4  7  2  0
  3  8  1  0
  8  9  2  0
  9 10  1  0
 10 11  1  0
 11 12  1  0
 12 13  2  0
 13 14  1  0
 14 15  2  0
 15 16  1  0
 16 17  1  0
 17 18  1  0
 18 19  2  0
 18 20  2  0
 18 21  1  0
 21 22  2  0
 22 23  1  0
 23 24  2  0
 24 25  1  0
 25 26  2  0
 16 27  2  0
 10 28  2  0
 28 29  1  0
 29 30  2  0
 29 31  1  0
 31 32  2  3
 32 33  1  0
 33 34  2  0
 34 35  1  0
 35 36  2  0
 36 37  1  0
 28  2  1  0
 37 32  1  0
 27 12  1  0
 26 21  1  0
  1 38  1  0
  1 39  1  0
  5 40  1  0
  5 41  1  0
  8 42  1  0
  9 43  1  0
 13 44  1  0
 14 45  1  0
 15 46  1  0
 22 47  1  0
 23 48  1  0
 24 49  1  0
 25 50  1  0
 26 51  1  0
 27 52  1  0
 33 53  1  0
 34 54  1  0
 35 55  1  0
 36 56  1  0
M  CHG  2  17  -1  37  -1
M  END
>  <UniqueID>  (80) 
70

>  <SMILES>  (80) 
Nc1c(S(N)(=O)=O)ccc(Sc2cccc([N-]S(=O)(=O)c3ccccc3)c2)c1C(=O)N=c1cccc[n-]1

>  <Energy>  (80) 
74.37932036190307

>  <Genealogy>  (80) 
Nc1c(S(N)(=O)=O)ccc(Sc2cccc([N-]S(=O)(=O)c3ccccc3)c2)c1C(=O)N=c1cccc[n-]1 (protonated)
Nc1c(S(N)(=O)=O)ccc(Sc2cccc([N-]S(=O)(=O)c3ccccc3)c2)c1C(=O)N=c1cccc[n-]1 (3D coordinates assigned)
Nc1c(S(N)(=O)=O)ccc(Sc2cccc([N-]S(=O)(=O)c3ccccc3)c2)c1C(=O)N=c1cccc[n-]1 (optimized conformer: 74.37932036190307 kcal/mol)

>  <smiles>  (80) 
Nc1c(S(N)(=O)=O)ccc(Sc2cccc(NS(=O)(=O)c3ccccc3)c2)c1C(=O)N=c1cccc[nH]1

>  <score_type>  (80) 
oracle

>  <origin>  (80) 
adg

>  <m_score__min__energy>  (80) 
-14.4

>  <m_primary>  (80) 
energy

$$$$
80:0
     RDKit          3D

 46 48  0  0  0  0  0  0  0  0999 V2000
   58.0750   26.1100   43.5410 N   0  0  0  0  0  0  0  0  0  0  0  0
   57.6260   26.2530   44.6000 C   0  0  0  0  0  0  0  0  0  0  0  0
   57.0700   26.4340   45.9200 C   0  0  0  0  0  0  0  0  0  0  0  0
   57.5210   27.4620   46.6630 C   0  0  0  0  0  0  0  0  0  0  0  0
   57.5120   28.8920   46.2680 C   0  0  0  0  0  0  0  0  0  0  0  0
   56.5540   29.4170   45.3830 C   0  0  0  0  0  0  0  0  0  0  0  0
   55.5220   28.6240   44.8900 O   0  0  0  0  0  0  0  0  0  0  0  0
   56.6510   30.7040   44.9660 N   0  0  0  0  0  0  0  0  0  0  0  0
   57.6700   31.5040   45.3670 C   0  0  0  0  0  0  0  0  0  0  0  0
   57.7250   32.6900   44.9360 O   0  0  0  0  0  0  0  0  0  0  0  0
   58.6270   31.0250   46.2210 N   0  0  0  0  0  0  0  0  0  0  0  0
   59.7140   31.8730   46.6300 C   0  0  0  0  0  0  0  0  0  0  0  0
   59.4850   33.2370   46.8900 C   0  0  0  0  0  0  0  0  0  0  0  0
   60.5470   34.0640   47.2670 C   0  0  0  0  0  0  0  0  0  0  0  0
   61.8390   33.5340   47.3880 C   0  0  0  0  0  0  0  0  0  0  0  0
   62.0710   32.1770   47.1330 C   0  0  0  0  0  0  0  0  0  0  0  0
   61.0130   31.3480   46.7450 C   0  0  0  0  0  0  0  0  0  0  0  0
   58.5640   29.7320   46.6710 C   0  0  0  0  0  0  0  0  0  0  0  0
   59.4580   29.2860   47.4480 O   0  0  0  0  0  0  0  0  0  0  0  0
   56.0540   25.4560   46.3700 C   0  0  0  0  0  0  0  0  0  0  0  0
   54.8660   25.5830   45.9610 O   0  0  0  0  0  0  0  0  0  0  0  0
   56.4060   24.3330   47.1950 N   0  0  0  0  0  0  0  0  0  0  0  0
   55.4070   23.3200   47.5450 C   0  0  0  0  0  0  0  0  0  0  0  0
   55.7180   21.9610   46.9060 C   0  0  0  0  0  0  0  0  0  0  0  0
   56.0160   22.0780   45.4310 C   0  0  0  0  0  0  0  0  0  0  0  0
   55.2510   22.9340   44.6190 C   0  0  0  0  0  0  0  0  0  0  0  0
   55.5420   23.0610   43.2570 C   0  0  0  0  0  0  0  0  0  0  0  0
   56.6160   22.3590   42.6980 C   0  0  0  0  0  0  0  0  0  0  0  0
   57.3920   21.5240   43.5000 C   0  0  0  0  0  0  0  0  0  0  0  0
   57.0880   21.3720   44.8590 C   0  0  0  0  0  0  0  0  0  0  0  0
   57.9339   27.2196   47.6533 H   0  0  0  0  0  0  0  0  0  0  0  0
   58.4707   33.6522   46.7966 H   0  0  0  0  0  0  0  0  0  0  0  0
   60.3689   35.1306   47.4687 H   0  0  0  0  0  0  0  0  0  0  0  0
   62.6735   34.1865   47.6843 H   0  0  0  0  0  0  0  0  0  0  0  0
   63.0847   31.7629   47.2377 H   0  0  0  0  0  0  0  0  0  0  0  0
   61.1976   30.2852   46.5299 H   0  0  0  0  0  0  0  0  0  0  0  0
   57.4050   24.1870   47.4680 H   0  0  0  0  0  0  0  0  0  0  0  0
   55.3887   23.2023   48.6385 H   0  0  0  0  0  0  0  0  0  0  0  0
   54.4321   23.6589   47.1647 H   0  0  0  0  0  0  0  0  0  0  0  0
   56.5927   21.5245   47.4104 H   0  0  0  0  0  0  0  0  0  0  0  0
   54.8292   21.3231   47.0209 H   0  0  0  0  0  0  0  0  0  0  0  0
   54.4200   23.5063   45.0570 H   0  0  0  0  0  0  0  0  0  0  0  0
   54.9248   23.7147   42.6231 H   0  0  0  0  0  0  0  0  0  0  0  0
   56.8472   22.4660   41.6279 H   0  0  0  0  0  0  0  0  0  0  0  0
   58.2452   20.9830   43.0648 H   0  0  0  0  0  0  0  0  0  0  0  0
   57.6920   20.6960   45.4821 H   0  0  0  0  0  0  0  0  0  0  0  0
  1  2  3  0
  2  3  1  0
  3  4  2  3
  4  5  1  0
  5  6  2  0
  6  7  1  0
  6  8  1  0
  8  9  1  0
  9 10  2  0
  9 11  1  0
 11 12  1  0
 12 13  2  0
 13 14  1  0
 14 15  2  0
 15 16  1  0
 16 17  2  0
 11 18  1  0
 18 19  2  0
  3 20  1  0
 20 21  2  0
 20 22  1  0
 22 23  1  0
 23 24  1  0
 24 25  1  0
 25 26  2  0
 26 27  1  0
 27 28  2  0
 28 29  1  0
 29 30  2  0
 18  5  1  0
 30 25  1  0
 17 12  1  0
  4 31  1  0
 13 32  1  0
 14 33  1  0
 15 34  1  0
 16 35  1  0
 17 36  1  0
 22 37  1  0
 23 38  1  0
 23 39  1  0
 24 40  1  0
 24 41  1  0
 26 42  1  0
 27 43  1  0
 28 44  1  0
 29 45  1  0
 30 46  1  0
M  CHG  2   7  -1   8  -1
M  END
>  <UniqueID>  (81) 
71

>  <SMILES>  (81) 
N#CC(=Cc1c([O-])[n-]c(=O)n(-c2ccccc2)c1=O)C(=O)NCCc1ccccc1

>  <Energy>  (81) 
62.86551279014235

>  <Genealogy>  (81) 
N#CC(=Cc1c([O-])[n-]c(=O)n(-c2ccccc2)c1=O)C(=O)NCCc1ccccc1 (protonated)
N#CC(=Cc1c([O-])[n-]c(=O)n(-c2ccccc2)c1=O)C(=O)NCCc1ccccc1 (3D coordinates assigned)
N#CC(=Cc1c([O-])[n-]c(=O)n(-c2ccccc2)c1=O)C(=O)NCCc1ccccc1 (optimized conformer: 62.86551279014235 kcal/mol)

>  <smiles>  (81) 
N#CC(=Cc1c(O)[nH]c(=O)n(-c2ccccc2)c1=O)C(=O)NCCc1ccccc1

>  <score_type>  (81) 
oracle

>  <origin>  (81) 
adg

>  <m_score__min__energy>  (81) 
-12.640000000000001

>  <m_primary>  (81) 
energy

$$$$
81:0
     RDKit          3D

 34 35  0  0  0  0  0  0  0  0999 V2000
   55.5890   29.6030   52.3360 O   0  0  0  0  0  0  0  0  0  0  0  0
   55.4520   30.8440   52.1600 C   0  0  0  0  0  0  0  0  0  0  0  0
   56.6470   31.7390   52.2950 C   0  0  0  0  0  0  0  0  0  0  0  0
   57.7320   31.0170   52.8690 O   0  0  0  0  0  0  0  0  0  0  0  0
   58.6900   30.3340   52.1090 C   0  0  0  0  0  0  0  0  0  0  0  0
   58.5850   29.0950   51.8980 O   0  0  0  0  0  0  0  0  0  0  0  0
   59.8180   31.0990   51.4960 C   0  0  0  0  0  0  0  0  0  0  0  0
   59.4680   31.4940   50.0870 C   0  0  0  0  0  0  0  0  0  0  0  0
   59.2420   30.4990   49.1200 C   0  0  0  0  0  0  0  0  0  0  0  0
   58.9350   30.8500   47.8020 C   0  0  0  0  0  0  0  0  0  0  0  0
   58.8490   32.1960   47.4380 C   0  0  0  0  0  0  0  0  0  0  0  0
   59.0830   33.1930   48.3890 C   0  0  0  0  0  0  0  0  0  0  0  0
   59.4010   32.8480   49.7070 C   0  0  0  0  0  0  0  0  0  0  0  0
   59.6440   33.8340   50.6080 F   0  0  0  0  0  0  0  0  0  0  0  0
   54.1600   31.3990   51.8790 N   0  0  0  0  0  0  0  0  0  0  0  0
   52.9330   30.6190   52.0060 C   0  0  0  0  0  0  0  0  0  0  0  0
   52.0180   30.9190   50.8590 C   0  0  0  0  0  0  0  0  0  0  0  0
   51.9090   30.1470   49.7640 N   0  0  0  0  0  0  0  0  0  0  0  0
   51.0250   30.8200   48.9970 C   0  0  0  0  0  0  0  0  0  0  0  0
   50.6510   30.4050   47.8690 O   0  0  0  0  0  0  0  0  0  0  0  0
   50.5720   31.9740   49.5320 N   0  0  0  0  0  0  0  0  0  0  0  0
   51.2180   32.0260   50.7080 C   0  0  0  0  0  0  0  0  0  0  0  0
   51.0780   33.0630   51.6210 O   0  0  0  0  0  0  0  0  0  0  0  0
   56.9400   32.1083   51.3011 H   0  0  0  0  0  0  0  0  0  0  0  0
   56.3918   32.5874   52.9470 H   0  0  0  0  0  0  0  0  0  0  0  0
   60.0097   32.0042   52.0909 H   0  0  0  0  0  0  0  0  0  0  0  0
   60.7168   30.4651   51.4800 H   0  0  0  0  0  0  0  0  0  0  0  0
   59.3071   29.4378   49.4021 H   0  0  0  0  0  0  0  0  0  0  0  0
   58.7610   30.0655   47.0508 H   0  0  0  0  0  0  0  0  0  0  0  0
   58.5972   32.4710   46.4031 H   0  0  0  0  0  0  0  0  0  0  0  0
   59.0169   34.2524   48.1003 H   0  0  0  0  0  0  0  0  0  0  0  0
   54.0790   32.4150   51.6500 H   0  0  0  0  0  0  0  0  0  0  0  0
   53.1803   29.5472   52.0048 H   0  0  0  0  0  0  0  0  0  0  0  0
   52.4313   30.8835   52.9485 H   0  0  0  0  0  0  0  0  0  0  0  0
  1  2  2  0
  2  3  1  0
  3  4  1  0
  4  5  1  0
  5  6  2  0
  5  7  1  0
  7  8  1  0
  8  9  2  0
  9 10  1  0
 10 11  2  0
 11 12  1  0
 12 13  2  0
 13 14  1  0
  2 15  1  0
 15 16  1  0
 16 17  1  0
 17 18  1  0
 18 19  1  0
 19 20  2  0
 19 21  1  0
 21 22  1  0
 22 23  1  0
 13  8  1  0
 22 17  2  0
  3 24  1  0
  3 25  1  0
  7 26  1  0
  7 27  1  0
  9 28  1  0
 10 29  1  0
 11 30  1  0
 12 31  1  0
 15 32  1  0
 16 33  1  0
 16 34  1  0
M  CHG  3  18  -1  21  -1  23  -1
M  END
>  <UniqueID>  (82) 
72

>  <SMILES>  (82) 
O=C(COC(=O)Cc1ccccc1F)NCc1[n-]c(=O)[n-]c1[O-]

>  <Energy>  (82) 
53.21847701655092

>  <Genealogy>  (82) 
O=C(COC(=O)Cc1ccccc1F)NCc1[n-]c(=O)[n-]c1[O-] (protonated)
O=C(COC(=O)Cc1ccccc1F)NCc1[n-]c(=O)[n-]c1[O-] (3D coordinates assigned)
O=C(COC(=O)Cc1ccccc1F)NCc1[n-]c(=O)[n-]c1[O-] (optimized conformer: 53.21847701655092 kcal/mol)

>  <smiles>  (82) 
O=C(COC(=O)Cc1ccccc1F)NCc1[nH]c(=O)[nH]c1O

>  <score_type>  (82) 
oracle

>  <origin>  (82) 
adg

>  <m_score__min__energy>  (82) 
-16.219999999999999

>  <m_primary>  (82) 
energy

$$$$
82:0
     RDKit          3D

 41 42  0  0  0  0  0  0  0  0999 V2000
   57.3550   24.8010   47.1960 C   0  0  0  0  0  0  0  0  0  0  0  0
   58.0050   24.9250   45.8150 C   0  0  0  0  0  0  0  0  0  0  0  0
   59.1480   25.9530   45.7760 C   0  0  0  0  0  0  0  0  0  0  0  0
   58.6600   27.3430   45.4630 C   0  0  0  0  0  0  0  0  0  0  0  0
   59.5760   28.3810   45.2160 C   0  0  0  0  0  0  0  0  0  0  0  0
   59.1240   29.6900   45.0270 C   0  0  0  0  0  0  0  0  0  0  0  0
   57.7440   29.9730   45.0330 C   0  0  0  0  0  0  0  0  0  0  0  0
   57.2480   31.2790   44.9430 O   0  0  0  0  0  0  0  0  0  0  0  0
   57.9100   32.4660   45.2980 C   0  0  0  0  0  0  0  0  0  0  0  0
   58.2860   32.8000   46.6170 C   0  0  0  0  0  0  0  0  0  0  0  0
   58.9600   33.9600   46.8750 N   0  0  0  0  0  0  0  0  0  0  0  0
   59.2900   34.3030   48.2760 C   0  0  0  0  0  0  0  0  0  0  0  0
   60.7970   34.1870   48.5480 C   0  0  0  0  0  0  0  0  0  0  0  0
   61.4490   33.0640   47.7500 C   0  0  0  0  0  0  0  0  0  0  0  0
   59.3470   34.7710   45.8360 C   0  0  0  0  0  0  0  0  0  0  0  0
   60.0120   35.8190   46.0400 O   0  0  0  0  0  0  0  0  0  0  0  0
   58.9960   34.4550   44.5590 N   0  0  0  0  0  0  0  0  0  0  0  0
   58.2770   33.3430   44.2790 C   0  0  0  0  0  0  0  0  0  0  0  0
   57.9490   33.0930   43.0860 O   0  0  0  0  0  0  0  0  0  0  0  0
   56.8320   28.9330   45.2400 C   0  0  0  0  0  0  0  0  0  0  0  0
   55.4640   29.2210   45.2430 O   0  0  0  0  0  0  0  0  0  0  0  0
   57.2830   27.6260   45.4600 C   0  0  0  0  0  0  0  0  0  0  0  0
   58.1181   24.9466   47.9748 H   0  0  0  0  0  0  0  0  0  0  0  0
   56.5717   25.5659   47.3026 H   0  0  0  0  0  0  0  0  0  0  0  0
   56.9083   23.8014   47.3026 H   0  0  0  0  0  0  0  0  0  0  0  0
   58.4080   23.9424   45.5283 H   0  0  0  0  0  0  0  0  0  0  0  0
   57.2285   25.2714   45.1171 H   0  0  0  0  0  0  0  0  0  0  0  0
   59.6452   25.9658   46.7572 H   0  0  0  0  0  0  0  0  0  0  0  0
   59.8414   25.6532   44.9765 H   0  0  0  0  0  0  0  0  0  0  0  0
   60.6530   28.1618   45.1713 H   0  0  0  0  0  0  0  0  0  0  0  0
   59.8490   30.5028   44.8729 H   0  0  0  0  0  0  0  0  0  0  0  0
   58.0341   32.1203   47.4444 H   0  0  0  0  0  0  0  0  0  0  0  0
   58.9701   35.3365   48.4751 H   0  0  0  0  0  0  0  0  0  0  0  0
   58.7665   33.5950   48.9354 H   0  0  0  0  0  0  0  0  0  0  0  0
   61.2787   35.1381   48.2770 H   0  0  0  0  0  0  0  0  0  0  0  0
   60.9274   33.9577   49.6159 H   0  0  0  0  0  0  0  0  0  0  0  0
   61.8785   32.3243   48.4416 H   0  0  0  0  0  0  0  0  0  0  0  0
   60.6928   32.5777   47.1162 H   0  0  0  0  0  0  0  0  0  0  0  0
   62.2463   33.4796   47.1162 H   0  0  0  0  0  0  0  0  0  0  0  0
   55.1110   30.0970   45.6100 H   0  0  0  0  0  0  0  0  0  0  0  0
   56.5571   26.8174   45.6312 H   0  0  0  0  0  0  0  0  0  0  0  0
  1  2  1  0
  2  3  1  0
  3  4  1  0
  4  5  2  0
  5  6  1  0
  6  7  2  0
  7  8  1  0
  8  9  1  0
  9 10  2  0
 10 11  1  0
 11 12  1  0
 12 13  1  0
 13 14  1  0
 11 15  1  0
 15 16  2  0
 15 17  1  0
 17 18  1  0
 18 19  2  0
  7 20  1  0
 20 21  1  0
 20 22  2  0
 22  4  1  0
 18  9  1  0
  1 23  1  0
  1 24  1  0
  1 25  1  0
  2 26  1  0
  2 27  1  0
  3 28  1  0
  3 29  1  0
  5 30  1  0
  6 31  1  0
 10 32  1  0
 12 33  1  0
 12 34  1  0
 13 35  1  0
 13 36  1  0
 14 37  1  0
 14 38  1  0
 14 39  1  0
 21 40  1  0
 22 41  1  0
M  CHG  1  17  -1
M  END
>  <UniqueID>  (83) 
73

>  <SMILES>  (83) 
CCCc1ccc(Oc2cn(CCC)c(=O)[n-]c2=O)c(O)c1

>  <Energy>  (83) 
43.37776529840085

>  <Genealogy>  (83) 
CCCc1ccc(Oc2cn(CCC)c(=O)[n-]c2=O)c(O)c1 (protonated)
CCCc1ccc(Oc2cn(CCC)c(=O)[n-]c2=O)c(O)c1 (3D coordinates assigned)
CCCc1ccc(Oc2cn(CCC)c(=O)[n-]c2=O)c(O)c1 (optimized conformer: 43.37776529840085 kcal/mol)

>  <smiles>  (83) 
CCCc1ccc(Oc2cn(CCC)c(=O)[nH]c2=O)c(O)c1

>  <score_type>  (83) 
oracle

>  <origin>  (83) 
adg

>  <m_score__min__energy>  (83) 
-9.3399999999999999

>  <m_primary>  (83) 
energy

$$$$
83:0
     RDKit          3D

 43 45  0  0  0  0  0  0  0  0999 V2000
   58.9610   22.6970   44.9550 C   0  0  0  0  0  0  0  0  0  0  0  0
   57.5170   22.4590   44.7810 N   0  0  0  0  0  0  0  0  0  0  0  0
   56.7750   22.6000   46.0640 C   0  0  0  0  0  0  0  0  0  0  0  0
   55.9440   23.8920   46.1640 C   0  0  0  0  0  0  0  0  0  0  0  0
   56.6110   24.9830   45.4480 N   0  0  0  0  0  0  0  0  0  0  0  0
   57.0870   26.1450   46.1600 C   0  0  0  0  0  0  0  0  0  0  0  0
   57.3960   26.0370   47.3800 O   0  0  0  0  0  0  0  0  0  0  0  0
   57.2230   27.4640   45.4990 C   0  0  0  0  0  0  0  0  0  0  0  0
   58.4770   27.9650   45.1460 C   0  0  0  0  0  0  0  0  0  0  0  0
   58.5610   29.2200   44.5420 C   0  0  0  0  0  0  0  0  0  0  0  0
   59.6970   29.6650   44.2210 O   0  0  0  0  0  0  0  0  0  0  0  0
   57.4250   29.9530   44.3010 N   0  0  0  0  0  0  0  0  0  0  0  0
   57.5180   31.2960   43.6920 C   0  0  0  0  0  0  0  0  0  0  0  0
   57.9720   32.3080   44.7130 C   0  0  0  0  0  0  0  0  0  0  0  0
   57.8000   32.0600   46.0840 C   0  0  0  0  0  0  0  0  0  0  0  0
   58.1930   33.0130   47.0290 C   0  0  0  0  0  0  0  0  0  0  0  0
   58.7570   34.2230   46.6120 C   0  0  0  0  0  0  0  0  0  0  0  0
   59.1370   35.1450   47.5280 F   0  0  0  0  0  0  0  0  0  0  0  0
   58.9280   34.4790   45.2480 C   0  0  0  0  0  0  0  0  0  0  0  0
   58.5370   33.5270   44.3000 C   0  0  0  0  0  0  0  0  0  0  0  0
   56.2050   29.4410   44.6690 C   0  0  0  0  0  0  0  0  0  0  0  0
   55.1440   30.0910   44.4700 O   0  0  0  0  0  0  0  0  0  0  0  0
   56.1230   28.2200   45.2570 N   0  0  0  0  0  0  0  0  0  0  0  0
   56.9470   24.7760   44.0330 C   0  0  0  0  0  0  0  0  0  0  0  0
   56.9540   23.2750   43.6850 C   0  0  0  0  0  0  0  0  0  0  0  0
   59.1994   22.7363   46.0281 H   0  0  0  0  0  0  0  0  0  0  0  0
   59.5267   21.8800   44.4834 H   0  0  0  0  0  0  0  0  0  0  0  0
   59.2346   23.6524   44.4834 H   0  0  0  0  0  0  0  0  0  0  0  0
   56.0949   21.7416   46.1671 H   0  0  0  0  0  0  0  0  0  0  0  0
   57.5272   22.6408   46.8656 H   0  0  0  0  0  0  0  0  0  0  0  0
   54.9519   23.7204   45.7210 H   0  0  0  0  0  0  0  0  0  0  0  0
   55.8410   24.1698   47.2233 H   0  0  0  0  0  0  0  0  0  0  0  0
   59.3868   27.3784   45.3413 H   0  0  0  0  0  0  0  0  0  0  0  0
   58.2408   31.2685   42.8633 H   0  0  0  0  0  0  0  0  0  0  0  0
   56.5249   31.5873   43.3193 H   0  0  0  0  0  0  0  0  0  0  0  0
   57.3538   31.1112   46.4167 H   0  0  0  0  0  0  0  0  0  0  0  0
   58.0584   32.8107   48.1018 H   0  0  0  0  0  0  0  0  0  0  0  0
   59.3709   35.4308   44.9195 H   0  0  0  0  0  0  0  0  0  0  0  0
   58.6722   33.7332   43.2280 H   0  0  0  0  0  0  0  0  0  0  0  0
   56.2012   25.2877   43.4069 H   0  0  0  0  0  0  0  0  0  0  0  0
   57.9506   25.1855   43.8459 H   0  0  0  0  0  0  0  0  0  0  0  0
   55.9209   22.9493   43.4934 H   0  0  0  0  0  0  0  0  0  0  0  0
   57.5852   23.1338   42.7952 H   0  0  0  0  0  0  0  0  0  0  0  0
  1  2  1  0
  2  3  1  0
  3  4  1  0
  4  5  1  0
  5  6  1  0
  6  7  2  0
  6  8  1  0
  8  9  2  0
  9 10  1  0
 10 11  2  0
 10 12  1  0
 12 13  1  0
 13 14  1  0
 14 15  2  0
 15 16  1  0
 16 17  2  0
 17 18  1  0
 17 19  1  0
 19 20  2  0
 12 21  1  0
 21 22  2  0
 21 23  1  0
  5 24  1  0
 24 25  1  0
 25  2  1  0
 23  8  1  0
 20 14  1  0
  1 26  1  0
  1 27  1  0
  1 28  1  0
  3 29  1  0
  3 30  1  0
  4 31  1  0
  4 32  1  0
  9 33  1  0
 13 34  1  0
 13 35  1  0
 15 36  1  0
 16 37  1  0
 19 38  1  0
 20 39  1  0
 24 40  1  0
 24 41  1  0
 25 42  1  0
 25 43  1  0
M  CHG  1  23  -1
M  END
>  <UniqueID>  (84) 
74

>  <SMILES>  (84) 
CN1CCN(C(=O)c2cc(=O)n(Cc3ccc(F)cc3)c(=O)[n-]2)CC1

>  <Energy>  (84) 
59.35412413894443

>  <Genealogy>  (84) 
CN1CCN(C(=O)c2cc(=O)n(Cc3ccc(F)cc3)c(=O)[n-]2)CC1 (protonated)
CN1CCN(C(=O)c2cc(=O)n(Cc3ccc(F)cc3)c(=O)[n-]2)CC1 (3D coordinates assigned)
CN1CCN(C(=O)c2cc(=O)n(Cc3ccc(F)cc3)c(=O)[n-]2)CC1 (nonaromatic ring conformer: 59.35412413894443 kcal/mol)

>  <smiles>  (84) 
CN1CCN(C(=O)c2cc(=O)n(Cc3ccc(F)cc3)c(=O)[nH]2)CC1

>  <score_type>  (84) 
oracle

>  <origin>  (84) 
adg

>  <m_score__min__energy>  (84) 
-9.3499999999999996

>  <m_primary>  (84) 
energy

$$$$
84:0
     RDKit          3D

 42 44  0  0  0  0  0  0  0  0999 V2000
   57.6170   30.7630   51.8510 C   0  0  0  0  0  0  0  0  0  0  0  0
   59.0070   30.5090   51.6710 O   0  0  0  0  0  0  0  0  0  0  0  0
   59.5870   30.0450   50.4800 C   0  0  0  0  0  0  0  0  0  0  0  0
   59.9930   28.7030   50.3310 C   0  0  0  0  0  0  0  0  0  0  0  0
   60.5750   28.2680   49.1400 C   0  0  0  0  0  0  0  0  0  0  0  0
   60.7560   29.1600   48.0840 C   0  0  0  0  0  0  0  0  0  0  0  0
   60.3570   30.4900   48.2150 C   0  0  0  0  0  0  0  0  0  0  0  0
   59.7750   30.9500   49.4130 C   0  0  0  0  0  0  0  0  0  0  0  0
   59.3610   32.3230   49.5610 N   0  0  0  0  0  0  0  0  0  0  0  0
   59.8480   33.5930   48.4820 S   0  0  0  0  0  0  0  0  0  0  0  0
   61.3100   33.4450   48.1690 O   0  0  0  0  0  0  0  0  0  0  0  0
   59.6210   34.9200   49.1510 O   0  0  0  0  0  0  0  0  0  0  0  0
   58.9350   33.4850   46.9800 C   0  0  0  0  0  0  0  0  0  0  0  0
   58.9870   34.5370   46.0570 C   0  0  0  0  0  0  0  0  0  0  0  0
   58.2910   34.4450   44.8500 C   0  0  0  0  0  0  0  0  0  0  0  0
   57.5280   33.3090   44.5630 C   0  0  0  0  0  0  0  0  0  0  0  0
   57.4440   32.2600   45.4960 C   0  0  0  0  0  0  0  0  0  0  0  0
   56.6910   31.0660   45.2340 N   0  0  0  0  0  0  0  0  0  0  0  0
   57.1770   29.8640   44.6230 C   0  0  0  0  0  0  0  0  0  0  0  0
   57.6350   29.8840   43.4480 O   0  0  0  0  0  0  0  0  0  0  0  0
   57.0870   28.5910   45.3610 C   0  0  0  0  0  0  0  0  0  0  0  0
   58.1760   28.0910   46.0900 C   0  0  0  0  0  0  0  0  0  0  0  0
   58.0260   26.8800   46.7690 C   0  0  0  0  0  0  0  0  0  0  0  0
   58.9840   26.4040   47.4330 O   0  0  0  0  0  0  0  0  0  0  0  0
   56.8440   26.2160   46.7170 N   0  0  0  0  0  0  0  0  0  0  0  0
   55.7960   26.7110   46.0100 C   0  0  0  0  0  0  0  0  0  0  0  0
   54.7080   26.0820   45.9740 O   0  0  0  0  0  0  0  0  0  0  0  0
   55.9220   27.8870   45.3410 N   0  0  0  0  0  0  0  0  0  0  0  0
   58.1650   32.3480   46.6930 C   0  0  0  0  0  0  0  0  0  0  0  0
   57.3881   30.8048   52.9261 H   0  0  0  0  0  0  0  0  0  0  0  0
   57.3562   31.7237   51.3829 H   0  0  0  0  0  0  0  0  0  0  0  0
   57.0333   29.9566   51.3829 H   0  0  0  0  0  0  0  0  0  0  0  0
   59.8498   27.9939   51.1597 H   0  0  0  0  0  0  0  0  0  0  0  0
   60.8915   27.2199   49.0340 H   0  0  0  0  0  0  0  0  0  0  0  0
   61.2144   28.8142   47.1457 H   0  0  0  0  0  0  0  0  0  0  0  0
   60.4980   31.1864   47.3752 H   0  0  0  0  0  0  0  0  0  0  0  0
   58.8290   32.6130   50.4110 H   0  0  0  0  0  0  0  0  0  0  0  0
   59.5771   35.4373   46.2833 H   0  0  0  0  0  0  0  0  0  0  0  0
   58.3431   35.2687   44.1228 H   0  0  0  0  0  0  0  0  0  0  0  0
   56.9921   33.2356   43.6052 H   0  0  0  0  0  0  0  0  0  0  0  0
   59.1279   28.6411   46.1261 H   0  0  0  0  0  0  0  0  0  0  0  0
   58.1274   31.5185   47.4145 H   0  0  0  0  0  0  0  0  0  0  0  0
  1  2  1  0
  2  3  1  0
  3  4  2  0
  4  5  1  0
  5  6  2  0
  6  7  1  0
  7  8  2  0
  8  9  1  0
  9 10  1  0
 10 11  2  0
 10 12  2  0
 10 13  1  0
 13 14  2  0
 14 15  1  0
 15 16  2  0
 16 17  1  0
 17 18  1  0
 18 19  1  0
 19 20  2  0
 19 21  1  0
 21 22  2  0
 22 23  1  0
 23 24  2  0
 23 25  1  0
 25 26  1  0
 26 27  2  0
 26 28  1  0
 17 29  2  0
  8  3  1  0
 29 13  1  0
 28 21  1  0
  1 30  1  0
  1 31  1  0
  1 32  1  0
  4 33  1  0
  5 34  1  0
  6 35  1  0
  7 36  1  0
  9 37  1  0
 14 38  1  0
 15 39  1  0
 16 40  1  0
 22 41  1  0
 29 42  1  0
M  CHG  3  18  -1  25  -1  28  -1
M  END
>  <UniqueID>  (85) 
75

>  <SMILES>  (85) 
COc1ccccc1NS(=O)(=O)c1cccc([N-]C(=O)c2cc(=O)[n-]c(=O)[n-]2)c1

>  <Energy>  (85) 
52.263597491198745

>  <Genealogy>  (85) 
COc1ccccc1NS(=O)(=O)c1cccc([N-]C(=O)c2cc(=O)[n-]c(=O)[n-]2)c1 (protonated)
COc1ccccc1NS(=O)(=O)c1cccc([N-]C(=O)c2cc(=O)[n-]c(=O)[n-]2)c1 (3D coordinates assigned)
COc1ccccc1NS(=O)(=O)c1cccc([N-]C(=O)c2cc(=O)[n-]c(=O)[n-]2)c1 (optimized conformer: 52.263597491198745 kcal/mol)

>  <smiles>  (85) 
COc1ccccc1NS(=O)(=O)c1cccc(NC(=O)c2cc(=O)[nH]c(=O)[nH]2)c1

>  <score_type>  (85) 
oracle

>  <origin>  (85) 
adg

>  <m_score__min__energy>  (85) 
-14.77

>  <m_primary>  (85) 
energy

$$$$
85:0
     RDKit          3D

 56 59  0  0  0  0  0  0  0  0999 V2000
   56.4950   32.9580   45.6030 O   0  0  0  0  0  0  0  0  0  0  0  0
   57.3470   32.3110   44.9390 C   0  0  0  0  0  0  0  0  0  0  0  0
   58.7250   32.8950   44.7520 C   0  0  0  0  0  0  0  0  0  0  0  0
   59.3820   33.1990   46.0750 C   0  0  0  0  0  0  0  0  0  0  0  0
   60.3410   32.3230   46.6140 C   0  0  0  0  0  0  0  0  0  0  0  0
   60.9150   32.5870   47.8610 C   0  0  0  0  0  0  0  0  0  0  0  0
   60.5490   33.7300   48.5740 C   0  0  0  0  0  0  0  0  0  0  0  0
   59.6120   34.6180   48.0370 C   0  0  0  0  0  0  0  0  0  0  0  0
   59.0300   34.3560   46.7920 C   0  0  0  0  0  0  0  0  0  0  0  0
   56.9900   31.0160   44.4350 N   0  0  0  0  0  0  0  0  0  0  0  0
   57.4160   29.7660   44.9890 C   0  0  0  0  0  0  0  0  0  0  0  0
   58.7600   29.5360   45.2890 C   0  0  0  0  0  0  0  0  0  0  0  0
   59.1420   28.3190   45.8550 C   0  0  0  0  0  0  0  0  0  0  0  0
   60.3570   28.1290   46.1340 O   0  0  0  0  0  0  0  0  0  0  0  0
   58.2120   27.3450   46.1020 N   0  0  0  0  0  0  0  0  0  0  0  0
   58.6010   26.1470   46.6730 O   0  0  0  0  0  0  0  0  0  0  0  0
   56.8900   27.5360   45.7870 C   0  0  0  0  0  0  0  0  0  0  0  0
   55.8850   26.4290   46.0210 C   0  0  0  0  0  0  0  0  0  0  0  0
   56.4800   25.0910   45.6670 C   0  0  0  0  0  0  0  0  0  0  0  0
   56.9400   24.8450   44.3650 C   0  0  0  0  0  0  0  0  0  0  0  0
   57.5380   23.6220   44.0490 C   0  0  0  0  0  0  0  0  0  0  0  0
   57.6750   22.6350   45.0260 C   0  0  0  0  0  0  0  0  0  0  0  0
   57.1990   22.8530   46.3240 C   0  0  0  0  0  0  0  0  0  0  0  0
   57.3800   21.8260   47.3090 N   0  0  0  0  0  0  0  0  0  0  0  0
   56.9030   21.8680   48.6580 C   0  0  0  0  0  0  0  0  0  0  0  0
   55.7390   22.2960   48.8810 O   0  0  0  0  0  0  0  0  0  0  0  0
   57.7710   21.5300   49.7460 N   0  0  0  0  0  0  0  0  0  0  0  0
   57.7250   22.0730   51.0730 C   0  0  0  0  0  0  0  0  0  0  0  0
   56.6480   21.7340   51.9030 C   0  0  0  0  0  0  0  0  0  0  0  0
   56.5530   22.2650   53.1930 C   0  0  0  0  0  0  0  0  0  0  0  0
   57.5260   23.1540   53.6560 C   0  0  0  0  0  0  0  0  0  0  0  0
   58.5920   23.5170   52.8280 C   0  0  0  0  0  0  0  0  0  0  0  0
   58.6920   22.9850   51.5390 C   0  0  0  0  0  0  0  0  0  0  0  0
   56.6210   24.0940   46.6470 C   0  0  0  0  0  0  0  0  0  0  0  0
   56.4790   28.7550   45.2100 C   0  0  0  0  0  0  0  0  0  0  0  0
   55.1460   28.9720   44.8780 O   0  0  0  0  0  0  0  0  0  0  0  0
   59.3470   32.1737   44.2017 H   0  0  0  0  0  0  0  0  0  0  0  0
   58.6271   33.8364   44.1915 H   0  0  0  0  0  0  0  0  0  0  0  0
   60.6408   31.4262   46.0520 H   0  0  0  0  0  0  0  0  0  0  0  0
   61.6570   31.8923   48.2815 H   0  0  0  0  0  0  0  0  0  0  0  0
   60.9976   33.9319   49.5579 H   0  0  0  0  0  0  0  0  0  0  0  0
   59.3320   35.5241   48.5943 H   0  0  0  0  0  0  0  0  0  0  0  0
   58.2942   35.0579   46.3725 H   0  0  0  0  0  0  0  0  0  0  0  0
   59.5135   30.3097   45.0804 H   0  0  0  0  0  0  0  0  0  0  0  0
   59.5690   25.9420   46.8950 H   0  0  0  0  0  0  0  0  0  0  0  0
   55.5912   26.4252   47.0810 H   0  0  0  0  0  0  0  0  0  0  0  0
   55.0061   26.6067   45.3839 H   0  0  0  0  0  0  0  0  0  0  0  0
   56.8297   25.6175   43.5898 H   0  0  0  0  0  0  0  0  0  0  0  0
   57.9016   23.4369   43.0275 H   0  0  0  0  0  0  0  0  0  0  0  0
   58.1599   21.6802   44.7745 H   0  0  0  0  0  0  0  0  0  0  0  0
   55.8720   21.0455   51.5372 H   0  0  0  0  0  0  0  0  0  0  0  0
   55.7120   21.9827   53.8434 H   0  0  0  0  0  0  0  0  0  0  0  0
   57.4533   23.5684   54.6723 H   0  0  0  0  0  0  0  0  0  0  0  0
   59.3537   24.2226   53.1913 H   0  0  0  0  0  0  0  0  0  0  0  0
   59.5278   23.2793   50.8872 H   0  0  0  0  0  0  0  0  0  0  0  0
   56.2769   24.2853   47.6741 H   0  0  0  0  0  0  0  0  0  0  0  0
  1  2  2  0
  2  3  1  0
  3  4  1  0
  4  5  2  0
  5  6  1  0
  6  7  2  0
  7  8  1  0
  8  9  2  0
  2 10  1  0
 10 11  1  0
 11 12  2  0
 12 13  1  0
 13 14  2  0
 13 15  1  0
 15 16  1  0
 15 17  1  0
 17 18  1  0
 18 19  1  0
 19 20  2  0
 20 21  1  0
 21 22  2  0
 22 23  1  0
 23 24  1  0
 24 25  1  0
 25 26  2  0
 25 27  1  0
 27 28  1  0
 28 29  2  0
 29 30  1  0
 30 31  2  0
 31 32  1  0
 32 33  2  0
 23 34  2  0
 17 35  2  0
 35 36  1  0
  9  4  1  0
 35 11  1  0
 34 19  1  0
 33 28  1  0
  3 37  1  0
  3 38  1  0
  5 39  1  0
  6 40  1  0
  7 41  1  0
  8 42  1  0
  9 43  1  0
 12 44  1  0
 16 45  1  0
 18 46  1  0
 18 47  1  0
 20 48  1  0
 21 49  1  0
 22 50  1  0
 29 51  1  0
 30 52  1  0
 31 53  1  0
 32 54  1  0
 33 55  1  0
 34 56  1  0
M  CHG  4  10  -1  24  -1  27  -1  36  -1
M  END
>  <UniqueID>  (86) 
76

>  <SMILES>  (86) 
O=C(Cc1ccccc1)[N-]c1cc(=O)n(O)c(Cc2cccc([N-]C(=O)[N-]c3ccccc3)c2)c1[O-]

>  <Energy>  (86) 
72.14401415521132

>  <Genealogy>  (86) 
O=C(Cc1ccccc1)[N-]c1cc(=O)n(O)c(Cc2cccc([N-]C(=O)[N-]c3ccccc3)c2)c1[O-] (protonated)
O=C(Cc1ccccc1)[N-]c1cc(=O)n(O)c(Cc2cccc([N-]C(=O)[N-]c3ccccc3)c2)c1[O-] (3D coordinates assigned)
O=C(Cc1ccccc1)[N-]c1cc(=O)n(O)c(Cc2cccc([N-]C(=O)[N-]c3ccccc3)c2)c1[O-] (optimized conformer: 72.14401415521132 kcal/mol)

>  <smiles>  (86) 
O=C(Cc1ccccc1)Nc1cc(=O)n(O)c(Cc2cccc(NC(=O)Nc3ccccc3)c2)c1O

>  <score_type>  (86) 
oracle

>  <origin>  (86) 
adg

>  <m_score__min__energy>  (86) 
-17.390000000000001

>  <m_primary>  (86) 
energy

$$$$
86:0
     RDKit          3D

 43 45  0  0  0  0  0  0  0  0999 V2000
   55.5110   29.3040   44.8930 N   0  0  0  0  0  0  0  0  0  0  0  0
   56.9430   29.8580   44.0980 S   0  0  0  0  0  0  0  0  0  0  0  0
   56.6030   30.3360   42.7150 O   0  0  0  0  0  0  0  0  0  0  0  0
   57.9160   28.7160   43.9910 O   0  0  0  0  0  0  0  0  0  0  0  0
   57.6540   31.1810   45.0160 C   0  0  0  0  0  0  0  0  0  0  0  0
   58.0940   32.3470   44.3720 C   0  0  0  0  0  0  0  0  0  0  0  0
   58.6350   33.3970   45.1160 C   0  0  0  0  0  0  0  0  0  0  0  0
   58.7500   33.2890   46.5050 C   0  0  0  0  0  0  0  0  0  0  0  0
   58.3380   32.1150   47.1610 C   0  0  0  0  0  0  0  0  0  0  0  0
   58.4210   31.9830   48.5900 N   0  0  0  0  0  0  0  0  0  0  0  0
   59.2610   32.7900   49.4320 C   0  0  0  0  0  0  0  0  0  0  0  0
   60.0910   33.5980   48.9310 O   0  0  0  0  0  0  0  0  0  0  0  0
   59.2360   32.5960   50.9170 C   0  0  0  0  0  0  0  0  0  0  0  0
   58.0720   31.7420   51.3120 C   0  0  0  0  0  0  0  0  0  0  0  0
   58.0630   30.3930   51.2000 N   0  0  0  0  0  0  0  0  0  0  0  0
   56.9370   29.8330   51.6420 N   0  0  0  0  0  0  0  0  0  0  0  0
   56.0420   30.7300   52.1050 C   0  0  0  0  0  0  0  0  0  0  0  0
   54.8920   30.3730   52.5970 N   0  0  0  0  0  0  0  0  0  0  0  0
   53.6030   30.8430   52.1730 C   0  0  0  0  0  0  0  0  0  0  0  0
   53.5370   31.6110   51.1760 O   0  0  0  0  0  0  0  0  0  0  0  0
   52.3720   30.5570   52.9490 C   0  0  0  0  0  0  0  0  0  0  0  0
   52.4310   29.5510   53.9300 C   0  0  0  0  0  0  0  0  0  0  0  0
   51.3300   29.2850   54.7430 C   0  0  0  0  0  0  0  0  0  0  0  0
   50.1580   30.0240   54.5970 C   0  0  0  0  0  0  0  0  0  0  0  0
   50.0780   31.0220   53.6230 C   0  0  0  0  0  0  0  0  0  0  0  0
   51.1690   31.2960   52.7780 C   0  0  0  0  0  0  0  0  0  0  0  0
   50.9910   32.3090   51.7090 C   0  0  0  0  0  0  0  0  0  0  0  0
   51.1020   31.9950   50.4940 O   0  0  0  0  0  0  0  0  0  0  0  0
   50.6480   33.6150   52.0360 O   0  0  0  0  0  0  0  0  0  0  0  0
   56.6450   32.3070   52.0110 S   0  0  0  0  0  0  0  0  0  0  0  0
   57.7750   31.0720   46.4080 C   0  0  0  0  0  0  0  0  0  0  0  0
   55.5280   28.2600   44.8560 H   0  0  0  0  0  0  0  0  0  0  0  0
   58.0126   32.4341   43.2785 H   0  0  0  0  0  0  0  0  0  0  0  0
   58.9719   34.3124   44.6076 H   0  0  0  0  0  0  0  0  0  0  0  0
   59.1643   34.1253   47.0872 H   0  0  0  0  0  0  0  0  0  0  0  0
   57.9320   31.1720   49.0330 H   0  0  0  0  0  0  0  0  0  0  0  0
   60.1687   32.1068   51.2344 H   0  0  0  0  0  0  0  0  0  0  0  0
   59.1397   33.5778   51.4036 H   0  0  0  0  0  0  0  0  0  0  0  0
   53.3552   28.9681   54.0572 H   0  0  0  0  0  0  0  0  0  0  0  0
   51.3868   28.4901   55.5012 H   0  0  0  0  0  0  0  0  0  0  0  0
   49.2954   29.8215   55.2489 H   0  0  0  0  0  0  0  0  0  0  0  0
   49.1493   31.6016   53.5152 H   0  0  0  0  0  0  0  0  0  0  0  0
   57.4256   30.1608   46.9155 H   0  0  0  0  0  0  0  0  0  0  0  0
  1  2  1  0
  2  3  2  0
  2  4  2  0
  2  5  1  0
  5  6  2  0
  6  7  1  0
  7  8  2  0
  8  9  1  0
  9 10  1  0
 10 11  1  0
 11 12  2  0
 11 13  1  0
 13 14  1  0
 14 15  2  0
 15 16  1  0
 16 17  1  0
 17 18  2  3
 18 19  1  0
 19 20  2  0
 19 21  1  0
 21 22  2  0
 22 23  1  0
 23 24  2  0
 24 25  1  0
 25 26  2  0
 26 27  1  0
 27 28  2  0
 27 29  1  0
 17 30  1  0
  9 31  2  0
 31  5  1  0
 30 14  1  0
 26 21  1  0
  1 32  1  0
  6 33  1  0
  7 34  1  0
  8 35  1  0
 10 36  1  0
 13 37  1  0
 13 38  1  0
 22 39  1  0
 23 40  1  0
 24 41  1  0
 25 42  1  0
 31 43  1  0
M  CHG  3   1  -1  16  -1  29  -1
M  END
>  <UniqueID>  (87) 
77

>  <SMILES>  (87) 
[NH-]S(=O)(=O)c1cccc(NC(=O)Cc2n[n-]c(=NC(=O)c3ccccc3C(=O)[O-])s2)c1

>  <Energy>  (87) 
93.43403147186635

>  <Genealogy>  (87) 
[NH-]S(=O)(=O)c1cccc(NC(=O)Cc2n[n-]c(=NC(=O)c3ccccc3C(=O)[O-])s2)c1 (protonated)
[NH-]S(=O)(=O)c1cccc(NC(=O)Cc2n[n-]c(=NC(=O)c3ccccc3C(=O)[O-])s2)c1 (3D coordinates assigned)
[NH-]S(=O)(=O)c1cccc(NC(=O)Cc2n[n-]c(=NC(=O)c3ccccc3C(=O)[O-])s2)c1 (optimized conformer: 93.43403147186635 kcal/mol)

>  <smiles>  (87) 
NS(=O)(=O)c1cccc(NC(=O)Cc2n[nH]c(=NC(=O)c3ccccc3C(=O)O)s2)c1

>  <score_type>  (87) 
oracle

>  <origin>  (87) 
adg

>  <m_score__min__energy>  (87) 
-16.809999999999999

>  <m_primary>  (87) 
energy

$$$$
87:0
     RDKit          3D

 49 51  0  0  0  0  0  0  0  0999 V2000
   59.3730   34.4610   45.0300 C   0  0  0  0  0  0  0  0  0  0  0  0
   58.5870   33.1950   45.1700 C   0  0  0  0  0  0  0  0  0  0  0  0
   58.0050   32.4970   44.1330 C   0  0  0  0  0  0  0  0  0  0  0  0
   57.2980   31.4870   44.7600 C   0  0  0  0  0  0  0  0  0  0  0  0
   56.4530   30.4850   44.0990 C   0  0  0  0  0  0  0  0  0  0  0  0
   55.4030   29.8490   44.8240 N   0  0  0  0  0  0  0  0  0  0  0  0
   56.6490   30.1880   42.8900 O   0  0  0  0  0  0  0  0  0  0  0  0
   57.4420   31.5820   46.0960 N   0  0  0  0  0  0  0  0  0  0  0  0
   58.2360   32.6140   46.3390 N   0  0  0  0  0  0  0  0  0  0  0  0
   58.5190   33.1030   47.6870 C   0  0  0  0  0  0  0  0  0  0  0  0
   59.8560   32.5990   48.1290 C   0  0  0  0  0  0  0  0  0  0  0  0
   60.0240   32.2310   49.3230 O   0  0  0  0  0  0  0  0  0  0  0  0
   60.9140   32.4570   47.1740 N   0  0  0  0  0  0  0  0  0  0  0  0
   61.8630   31.3520   47.2530 C   0  0  0  0  0  0  0  0  0  0  0  0
   61.1560   30.0630   46.9330 C   0  0  0  0  0  0  0  0  0  0  0  0
   60.9520   29.6740   45.6000 C   0  0  0  0  0  0  0  0  0  0  0  0
   60.3970   28.4250   45.3070 C   0  0  0  0  0  0  0  0  0  0  0  0
   60.0380   27.5500   46.3430 C   0  0  0  0  0  0  0  0  0  0  0  0
   59.4990   26.2110   46.0280 C   0  0  0  0  0  0  0  0  0  0  0  0
   60.3910   25.1240   46.0080 C   0  0  0  0  0  0  0  0  0  0  0  0
   59.9290   23.8300   45.7620 C   0  0  0  0  0  0  0  0  0  0  0  0
   58.5720   23.6060   45.5280 C   0  0  0  0  0  0  0  0  0  0  0  0
   57.6770   24.6770   45.5250 C   0  0  0  0  0  0  0  0  0  0  0  0
   58.1250   25.9880   45.7600 C   0  0  0  0  0  0  0  0  0  0  0  0
   56.9500   27.3100   45.6670 S   0  0  0  0  0  0  0  0  0  0  0  0
   55.3630   26.7000   45.9760 N   0  0  0  0  0  0  0  0  0  0  0  0
   57.2860   28.3790   46.6690 O   0  0  0  0  0  0  0  0  0  0  0  0
   56.9810   27.9230   44.2950 O   0  0  0  0  0  0  0  0  0  0  0  0
   60.2550   27.9320   47.6750 C   0  0  0  0  0  0  0  0  0  0  0  0
   60.8070   29.1820   47.9680 C   0  0  0  0  0  0  0  0  0  0  0  0
   59.6167   34.8536   46.0282 H   0  0  0  0  0  0  0  0  0  0  0  0
   60.3030   34.2562   44.4794 H   0  0  0  0  0  0  0  0  0  0  0  0
   58.7769   35.2037   44.4794 H   0  0  0  0  0  0  0  0  0  0  0  0
   58.0847   32.6975   43.0544 H   0  0  0  0  0  0  0  0  0  0  0  0
   55.6090   29.0830   45.5020 H   0  0  0  0  0  0  0  0  0  0  0  0
   58.5241   34.2030   47.6846 H   0  0  0  0  0  0  0  0  0  0  0  0
   57.7437   32.7418   48.3787 H   0  0  0  0  0  0  0  0  0  0  0  0
   60.8550   32.9910   46.2780 H   0  0  0  0  0  0  0  0  0  0  0  0
   62.6761   31.5140   46.5301 H   0  0  0  0  0  0  0  0  0  0  0  0
   62.2821   31.2992   48.2687 H   0  0  0  0  0  0  0  0  0  0  0  0
   61.2301   30.3551   44.7822 H   0  0  0  0  0  0  0  0  0  0  0  0
   60.2411   28.1270   44.2597 H   0  0  0  0  0  0  0  0  0  0  0  0
   61.4626   25.2951   46.1879 H   0  0  0  0  0  0  0  0  0  0  0  0
   60.6351   22.9866   45.7526 H   0  0  0  0  0  0  0  0  0  0  0  0
   58.2071   22.5844   45.3457 H   0  0  0  0  0  0  0  0  0  0  0  0
   56.6090   24.4928   45.3366 H   0  0  0  0  0  0  0  0  0  0  0  0
   54.8450   26.7230   45.0690 H   0  0  0  0  0  0  0  0  0  0  0  0
   59.9897   27.2451   48.4922 H   0  0  0  0  0  0  0  0  0  0  0  0
   60.9687   29.4768   49.0153 H   0  0  0  0  0  0  0  0  0  0  0  0
  1  2  1  0
  2  3  2  0
  3  4  1  0
  4  5  1  0
  5  6  1  0
  5  7  2  0
  4  8  2  0
  8  9  1  0
  9 10  1  0
 10 11  1  0
 11 12  2  0
 11 13  1  0
 13 14  1  0
 14 15  1  0
 15 16  2  0
 16 17  1  0
 17 18  2  0
 18 19  1  0
 19 20  2  0
 20 21  1  0
 21 22  2  0
 22 23  1  0
 23 24  2  0
 24 25  1  0
 25 26  1  0
 25 27  2  0
 25 28  2  0
 18 29  1  0
 29 30  2  0
  9  2  1  0
 30 15  1  0
 24 19  1  0
  1 31  1  0
  1 32  1  0
  1 33  1  0
  3 34  1  0
  6 35  1  0
 10 36  1  0
 10 37  1  0
 13 38  1  0
 14 39  1  0
 14 40  1  0
 16 41  1  0
 17 42  1  0
 20 43  1  0
 21 44  1  0
 22 45  1  0
 23 46  1  0
 26 47  1  0
 29 48  1  0
 30 49  1  0
M  CHG  2   6  -1  26  -1
M  END
>  <UniqueID>  (88) 
78

>  <SMILES>  (88) 
Cc1cc(C([NH-])=O)nn1CC(=O)NCc1ccc(-c2ccccc2S([NH-])(=O)=O)cc1

>  <Energy>  (88) 
77.0931755166923

>  <Genealogy>  (88) 
Cc1cc(C([NH-])=O)nn1CC(=O)NCc1ccc(-c2ccccc2S([NH-])(=O)=O)cc1 (protonated)
Cc1cc(C([NH-])=O)nn1CC(=O)NCc1ccc(-c2ccccc2S([NH-])(=O)=O)cc1 (3D coordinates assigned)
Cc1cc(C([NH-])=O)nn1CC(=O)NCc1ccc(-c2ccccc2S([NH-])(=O)=O)cc1 (optimized conformer: 77.0931755166923 kcal/mol)

>  <smiles>  (88) 
Cc1cc(C(N)=O)nn1CC(=O)NCc1ccc(-c2ccccc2S(N)(=O)=O)cc1

>  <score_type>  (88) 
oracle

>  <origin>  (88) 
adg

>  <m_score__min__energy>  (88) 
-14.800000000000001

>  <m_primary>  (88) 
energy

$$$$
88:0
     RDKit          3D

 29 30  0  0  0  0  0  0  0  0999 V2000
   58.9150   34.8520   46.8300 C   0  0  0  0  0  0  0  0  0  0  0  0
   58.3920   34.1270   45.2930 S   0  0  0  0  0  0  0  0  0  0  0  0
   57.0260   34.6400   44.9330 O   0  0  0  0  0  0  0  0  0  0  0  0
   59.3530   34.5090   44.2030 O   0  0  0  0  0  0  0  0  0  0  0  0
   58.3450   32.3750   45.4600 C   0  0  0  0  0  0  0  0  0  0  0  0
   57.7670   31.5870   44.4580 C   0  0  0  0  0  0  0  0  0  0  0  0
   57.7160   30.1960   44.5940 C   0  0  0  0  0  0  0  0  0  0  0  0
   58.2390   29.5710   45.7430 C   0  0  0  0  0  0  0  0  0  0  0  0
   58.1850   28.0960   45.8900 C   0  0  0  0  0  0  0  0  0  0  0  0
   59.3290   27.3630   45.8960 N   0  0  0  0  0  0  0  0  0  0  0  0
   59.3040   26.0140   46.0400 C   0  0  0  0  0  0  0  0  0  0  0  0
   60.3860   25.3710   46.0520 O   0  0  0  0  0  0  0  0  0  0  0  0
   58.0840   25.3440   46.1900 C   0  0  0  0  0  0  0  0  0  0  0  0
   58.0990   23.9650   46.4140 O   0  0  0  0  0  0  0  0  0  0  0  0
   56.8960   26.1100   46.1420 C   0  0  0  0  0  0  0  0  0  0  0  0
   55.5410   25.5240   46.1970 C   0  0  0  0  0  0  0  0  0  0  0  0
   55.3680   24.2890   46.3730 O   0  0  0  0  0  0  0  0  0  0  0  0
   54.4360   26.3340   45.9670 O   0  0  0  0  0  0  0  0  0  0  0  0
   56.9880   27.4600   46.0090 N   0  0  0  0  0  0  0  0  0  0  0  0
   58.8100   30.3720   46.7490 C   0  0  0  0  0  0  0  0  0  0  0  0
   58.8590   31.7620   46.6090 C   0  0  0  0  0  0  0  0  0  0  0  0
   58.4984   34.2745   47.6684 H   0  0  0  0  0  0  0  0  0  0  0  0
   60.0135   34.8396   46.8862 H   0  0  0  0  0  0  0  0  0  0  0  0
   58.5567   35.8905   46.8862 H   0  0  0  0  0  0  0  0  0  0  0  0
   57.3506   32.0643   43.5587 H   0  0  0  0  0  0  0  0  0  0  0  0
   57.2643   29.5857   43.7981 H   0  0  0  0  0  0  0  0  0  0  0  0
   57.2690   23.3920   46.4380 H   0  0  0  0  0  0  0  0  0  0  0  0
   59.2214   29.9003   47.6536 H   0  0  0  0  0  0  0  0  0  0  0  0
   59.3035   32.3771   47.4053 H   0  0  0  0  0  0  0  0  0  0  0  0
  1  2  1  0
  2  3  2  0
  2  4  2  0
  2  5  1  0
  5  6  2  0
  6  7  1  0
  7  8  2  0
  8  9  1  0
  9 10  2  0
 10 11  1  0
 11 12  2  0
 11 13  1  0
 13 14  1  0
 13 15  2  0
 15 16  1  0
 16 17  2  0
 16 18  1  0
 15 19  1  0
  8 20  1  0
 20 21  2  0
 21  5  1  0
 19  9  1  0
  1 22  1  0
  1 23  1  0
  1 24  1  0
  6 25  1  0
  7 26  1  0
 14 27  1  0
 20 28  1  0
 21 29  1  0
M  CHG  2  18  -1  19  -1
M  END
>  <UniqueID>  (89) 
79

>  <SMILES>  (89) 
CS(=O)(=O)c1ccc(-c2nc(=O)c(O)c(C(=O)[O-])[n-]2)cc1

>  <Energy>  (89) 
34.337580950025824

>  <Genealogy>  (89) 
CS(=O)(=O)c1ccc(-c2nc(=O)c(O)c(C(=O)[O-])[n-]2)cc1 (protonated)
CS(=O)(=O)c1ccc(-c2nc(=O)c(O)c(C(=O)[O-])[n-]2)cc1 (3D coordinates assigned)
CS(=O)(=O)c1ccc(-c2nc(=O)c(O)c(C(=O)[O-])[n-]2)cc1 (optimized conformer: 34.337580950025824 kcal/mol)

>  <smiles>  (89) 
CS(=O)(=O)c1ccc(-c2nc(=O)c(O)c(C(=O)O)[nH]2)cc1

>  <score_type>  (89) 
oracle

>  <origin>  (89) 
adg

>  <m_score__min__energy>  (89) 
-10.57

>  <m_primary>  (89) 
energy

$$$$
89:0
     RDKit          3D

 61 65  0  0  1  0  0  0  0  0999 V2000
   58.1490   32.9660   48.3260 O   0  0  0  0  0  0  0  0  0  0  0  0
   58.7960   33.5750   47.3170 C   0  0  0  0  0  0  0  0  0  0  0  0
   59.7140   34.5060   47.8310 C   0  0  0  0  0  0  0  0  0  0  0  0
   60.5150   34.5860   48.8410 C   0  0  0  0  0  0  0  0  0  0  0  0
   61.8960   34.0610   48.8710 C   0  0  0  0  0  0  0  0  0  0  0  0
   62.6410   33.9510   50.0110 C   0  0  0  0  0  0  0  0  0  0  0  0
   63.9360   33.4440   49.9470 C   0  0  0  0  0  0  0  0  0  0  0  0
   64.5220   33.0390   48.7730 C   0  0  0  0  0  0  0  0  0  0  0  0
   63.7730   33.1490   47.6220 C   0  0  0  0  0  0  0  0  0  0  0  0
   62.4940   33.6490   47.6880 C   0  0  0  0  0  0  0  0  0  0  0  0
   58.3530   33.0910   46.0500 C   0  0  0  0  0  0  0  0  0  0  0  0
   57.7780   31.7990   46.0100 C   0  0  0  0  0  0  0  0  0  0  0  0
   59.9510   28.5890   48.5550 C   0  0  0  0  0  0  0  0  0  0  0  0
   59.2050   27.5220   47.9580 N   0  0  0  0  0  0  0  0  0  0  0  0
   58.5990   27.6600   46.8270 C   0  0  0  0  0  0  0  0  0  0  0  0
   57.3960   27.7880   44.4610 N   0  0  0  0  0  0  0  0  0  0  0  0
   58.0100   26.6400   44.8000 C   0  0  0  0  0  0  0  0  0  0  0  0
   57.9880   25.5810   43.9030 O   0  0  0  0  0  0  0  0  0  0  0  0
   57.5450   24.3420   44.3450 C   0  0  0  0  0  0  0  0  0  0  0  0
   56.9600   23.5220   43.3940 C   0  0  0  0  0  0  0  0  0  0  0  0
   56.5120   22.2910   43.7950 C   0  0  0  0  0  0  0  0  0  0  0  0
   55.9760   21.5200   42.9580 O   0  0  0  0  0  0  0  0  0  0  0  0
   56.6620   21.9440   45.0890 N   0  0  0  0  0  0  0  0  0  0  0  0
   57.2370   22.7720   45.9860 C   0  0  0  0  0  0  0  0  0  0  0  0
   57.3620   22.4190   47.1770 O   0  0  0  0  0  0  0  0  0  0  0  0
   57.6910   23.9880   45.6310 N   0  0  0  0  0  0  0  0  0  0  0  0
   58.6160   26.5830   46.0000 N   0  0  0  0  0  0  0  0  0  0  0  0
   57.3850   28.8630   45.3030 C   0  0  0  0  0  0  0  0  0  0  0  0
   56.7640   29.9020   44.8650 N   0  0  0  0  0  0  0  0  0  0  0  0
   57.3360   31.2050   44.8550 C   0  0  0  0  0  0  0  0  0  0  0  0
   60.1250   28.6550   49.9360 C   0  0  0  0  0  0  0  0  0  0  0  0
   61.2430   30.6180   48.3280 C   0  0  0  0  0  0  0  0  0  0  0  0
   61.4080   30.6730   49.7060 C   0  0  0  0  0  0  0  0  0  0  0  0
   60.8450   29.6840   50.5130 C   0  0  0  0  0  0  0  0  0  0  0  0
   57.4360   31.8530   43.6620 C   0  0  0  0  0  0  0  0  0  0  0  0
   57.9900   28.8120   46.5040 N   0  0  0  0  0  0  0  0  0  0  0  0
   60.5240   29.5880   47.7660 C   0  0  0  0  0  0  0  0  0  0  0  0
   57.9820   33.1000   43.6380 C   0  0  0  0  0  0  0  0  0  0  0  0
   58.4310   33.7000   44.8270 C   0  0  0  0  0  0  0  0  0  0  0  0
   58.9510   34.9510   44.6580 O   0  0  0  0  0  0  0  0  0  0  0  0
   59.7640   35.4093   47.2053 H   0  0  0  0  0  0  0  0  0  0  0  0
   60.1406   35.0829   49.7482 H   0  0  0  0  0  0  0  0  0  0  0  0
   62.2184   34.2625   50.9776 H   0  0  0  0  0  0  0  0  0  0  0  0
   64.5157   33.3643   50.8785 H   0  0  0  0  0  0  0  0  0  0  0  0
   65.5480   32.6428   48.7524 H   0  0  0  0  0  0  0  0  0  0  0  0
   64.1960   32.8384   46.6553 H   0  0  0  0  0  0  0  0  0  0  0  0
   61.9151   33.7265   46.7559 H   0  0  0  0  0  0  0  0  0  0  0  0
   57.6803   31.2420   46.9535 H   0  0  0  0  0  0  0  0  0  0  0  0
   56.9240   27.8360   43.5340 H   0  0  0  0  0  0  0  0  0  0  0  0
   56.8583   23.8493   42.3488 H   0  0  0  0  0  0  0  0  0  0  0  0
   56.3140   21.0020   45.3770 H   0  0  0  0  0  0  0  0  0  0  0  0
   58.1390   24.6400   46.3180 H   0  0  0  0  0  0  0  0  0  0  0  0
   59.6831   27.8771   50.5760 H   0  0  0  0  0  0  0  0  0  0  0  0
   61.6857   31.3954   47.6879 H   0  0  0  0  0  0  0  0  0  0  0  0
   61.9814   31.4946   50.1601 H   0  0  0  0  0  0  0  0  0  0  0  0
   60.9737   29.7230   51.6047 H   0  0  0  0  0  0  0  0  0  0  0  0
   57.0824   31.3781   42.7349 H   0  0  0  0  0  0  0  0  0  0  0  0
   57.9730   29.6310   47.1270 H   0  0  0  0  0  0  0  0  0  0  0  0
   60.3983   29.5511   46.6738 H   0  0  0  0  0  0  0  0  0  0  0  0
   58.0721   33.6402   42.6840 H   0  0  0  0  0  0  0  0  0  0  0  0
   59.2290   35.5710   45.4320 H   0  0  0  0  0  0  0  0  0  0  0  0
  1  2  2  0
  2  3  1  0
  3  4  2  0
  4  5  1  0
  5  6  2  0
  6  7  1  0
  7  8  2  0
  8  9  1  0
  9 10  2  0
  2 11  1  0
 11 12  2  0
 12 13  1  0
 13 14  1  0
 14 15  2  0
 15 16  1  0
 16 17  1  0
 17 18  1  0
 18 19  1  0
 19 20  2  0
 20 21  1  0
 21 22  2  0
 21 23  1  0
 23 24  1  0
 24 25  2  0
 24 26  1  0
 17 27  2  0
 27 28  1  0
 28 29  2  0
 29 30  1  0
 30 31  2  0
 31 32  1  0
 32 33  2  0
 33 34  1  0
 34 35  2  0
 28 36  1  0
 13 37  2  0
 37 38  1  0
 38 39  2  0
 39 40  1  0
 10  5  1  0
 39 11  1  0
 36 15  1  0
 26 19  1  0
 35 30  1  0
  3 41  1  0
  4 42  1  0
  6 43  1  0
  7 44  1  0
  8 45  1  0
  9 46  1  0
 10 47  1  0
 12 48  1  0
 16 49  1  0
 20 50  1  0
 23 51  1  0
 26 52  1  0
 31 53  1  0
 32 54  1  0
 33 55  1  0
 34 56  1  0
 35 57  1  0
 36 58  1  0
 37 59  1  0
 38 60  1  0
 40 61  1  0
M  END
>  <smiles>  (90) 
O=C(C=Cc1ccccc1)c1cc(N=c2[nH]c(Oc3cc(=O)[nH]c(=O)[nH]3)nc(=Nc3ccccc3)[nH]2)ccc1O

>  <score_type>  (90) 
oracle

>  <origin>  (90) 
adg

>  <m_score__min__energy>  (90) 
-11.31

>  <m_primary>  (90) 
energy

$$$$
90:0
     RDKit          3D

 46 48  0  0  0  0  0  0  0  0999 V2000
   55.5330   29.0610   45.2180 N   0  0  0  0  0  0  0  0  0  0  0  0
   56.6450   29.6110   44.0160 S   0  0  0  0  0  0  0  0  0  0  0  0
   55.8970   29.8970   42.7440 O   0  0  0  0  0  0  0  0  0  0  0  0
   57.6690   28.5440   43.7470 O   0  0  0  0  0  0  0  0  0  0  0  0
   57.4530   31.0670   44.5890 C   0  0  0  0  0  0  0  0  0  0  0  0
   57.3990   32.2550   43.8460 C   0  0  0  0  0  0  0  0  0  0  0  0
   58.0360   33.4060   44.3190 C   0  0  0  0  0  0  0  0  0  0  0  0
   58.7140   33.3820   45.5410 C   0  0  0  0  0  0  0  0  0  0  0  0
   58.7550   32.2100   46.3030 C   0  0  0  0  0  0  0  0  0  0  0  0
   59.4400   32.2250   47.5280 O   0  0  0  0  0  0  0  0  0  0  0  0
   59.0060   31.5860   48.6990 C   0  0  0  0  0  0  0  0  0  0  0  0
   58.4950   32.3720   49.7380 C   0  0  0  0  0  0  0  0  0  0  0  0
   58.0690   31.7820   50.9290 C   0  0  0  0  0  0  0  0  0  0  0  0
   58.1480   30.3980   51.0900 C   0  0  0  0  0  0  0  0  0  0  0  0
   58.6320   29.5980   50.0520 C   0  0  0  0  0  0  0  0  0  0  0  0
   59.0310   30.1800   48.8350 C   0  0  0  0  0  0  0  0  0  0  0  0
   59.5040   29.3680   47.7490 N   0  0  0  0  0  0  0  0  0  0  0  0
   59.0690   28.0410   47.4310 C   0  0  0  0  0  0  0  0  0  0  0  0
   59.5950   27.0730   48.0420 O   0  0  0  0  0  0  0  0  0  0  0  0
   58.0790   27.8120   46.4130 N   0  0  0  0  0  0  0  0  0  0  0  0
   57.5670   26.5140   46.0690 C   0  0  0  0  0  0  0  0  0  0  0  0
   58.4650   25.4800   45.7670 C   0  0  0  0  0  0  0  0  0  0  0  0
   57.9940   24.2040   45.4470 C   0  0  0  0  0  0  0  0  0  0  0  0
   56.6190   23.9410   45.4520 C   0  0  0  0  0  0  0  0  0  0  0  0
   56.0130   22.3040   45.0300 S   0  0  0  0  0  0  0  0  0  0  0  0
   56.8670   22.2260   43.4210 C   0  0  0  0  0  0  0  0  0  0  0  0
   58.1940   21.9010   43.6310 F   0  0  0  0  0  0  0  0  0  0  0  0
   56.8010   23.4520   42.7850 F   0  0  0  0  0  0  0  0  0  0  0  0
   56.2880   21.2580   42.6210 F   0  0  0  0  0  0  0  0  0  0  0  0
   55.7170   24.9630   45.7700 C   0  0  0  0  0  0  0  0  0  0  0  0
   56.1870   26.2410   46.0870 C   0  0  0  0  0  0  0  0  0  0  0  0
   58.1360   31.0450   45.8120 C   0  0  0  0  0  0  0  0  0  0  0  0
   54.5780   29.3430   44.9040 H   0  0  0  0  0  0  0  0  0  0  0  0
   56.8550   32.2813   42.8903 H   0  0  0  0  0  0  0  0  0  0  0  0
   58.0035   34.3331   43.7278 H   0  0  0  0  0  0  0  0  0  0  0  0
   59.2179   34.2895   45.9052 H   0  0  0  0  0  0  0  0  0  0  0  0
   58.4286   33.4631   49.6151 H   0  0  0  0  0  0  0  0  0  0  0  0
   57.6708   32.4081   51.7411 H   0  0  0  0  0  0  0  0  0  0  0  0
   57.8286   29.9362   52.0359 H   0  0  0  0  0  0  0  0  0  0  0  0
   58.7014   28.5085   50.1869 H   0  0  0  0  0  0  0  0  0  0  0  0
   57.6460   28.6370   45.9410 H   0  0  0  0  0  0  0  0  0  0  0  0
   59.5475   25.6748   45.7821 H   0  0  0  0  0  0  0  0  0  0  0  0
   58.7049   23.4047   45.1907 H   0  0  0  0  0  0  0  0  0  0  0  0
   54.6359   24.7602   45.7705 H   0  0  0  0  0  0  0  0  0  0  0  0
   55.4748   27.0364   46.3516 H   0  0  0  0  0  0  0  0  0  0  0  0
   58.1889   30.1118   46.3920 H   0  0  0  0  0  0  0  0  0  0  0  0
  1  2  1  0
  2  3  2  0
  2  4  2  0
  2  5  1  0
  5  6  2  0
  6  7  1  0
  7  8  2  0
  8  9  1  0
  9 10  1  0
 10 11  1  0
 11 12  2  0
 12 13  1  0
 13 14  2  0
 14 15  1  0
 15 16  2  0
 16 17  1  0
 17 18  1  0
 18 19  2  0
 18 20  1  0
 20 21  1  0
 21 22  2  0
 22 23  1  0
 23 24  2  0
 24 25  1  0
 25 26  1  0
 26 27  1  0
 26 28  1  0
 26 29  1  0
 24 30  1  0
 30 31  2  0
  9 32  2  0
 32  5  1  0
 16 11  1  0
 31 21  1  0
  1 33  1  0
  6 34  1  0
  7 35  1  0
  8 36  1  0
 12 37  1  0
 13 38  1  0
 14 39  1  0
 15 40  1  0
 20 41  1  0
 22 42  1  0
 23 43  1  0
 30 44  1  0
 31 45  1  0
 32 46  1  0
M  CHG  2   1  -1  17  -1
M  END
>  <UniqueID>  (91) 
80

>  <SMILES>  (91) 
[NH-]S(=O)(=O)c1cccc(Oc2ccccc2[N-]C(=O)Nc2ccc(SC(F)(F)F)cc2)c1

>  <Energy>  (91) 
60.4049507220778

>  <Genealogy>  (91) 
[NH-]S(=O)(=O)c1cccc(Oc2ccccc2[N-]C(=O)Nc2ccc(SC(F)(F)F)cc2)c1 (protonated)
[NH-]S(=O)(=O)c1cccc(Oc2ccccc2[N-]C(=O)Nc2ccc(SC(F)(F)F)cc2)c1 (3D coordinates assigned)
[NH-]S(=O)(=O)c1cccc(Oc2ccccc2[N-]C(=O)Nc2ccc(SC(F)(F)F)cc2)c1 (optimized conformer: 60.4049507220778 kcal/mol)

>  <smiles>  (91) 
NS(=O)(=O)c1cccc(Oc2ccccc2NC(=O)Nc2ccc(SC(F)(F)F)cc2)c1

>  <score_type>  (91) 
oracle

>  <origin>  (91) 
adg

>  <m_score__min__energy>  (91) 
-12.4

>  <m_primary>  (91) 
energy

$$$$
91:0
     RDKit          3D

 37 39  0  0  0  0  0  0  0  0999 V2000
   55.3880   26.1690   46.2910 N   0  0  0  0  0  0  0  0  0  0  0  0
   56.7960   26.3450   46.1390 C   0  0  0  0  0  0  0  0  0  0  0  0
   57.5340   25.3290   46.0380 O   0  0  0  0  0  0  0  0  0  0  0  0
   57.3850   27.7030   46.0970 C   0  0  0  0  0  0  0  0  0  0  0  0
   58.1910   28.1670   47.1710 C   0  0  0  0  0  0  0  0  0  0  0  0
   58.7450   29.4590   47.1510 C   0  0  0  0  0  0  0  0  0  0  0  0
   58.4880   30.2640   46.0450 C   0  0  0  0  0  0  0  0  0  0  0  0
   58.9110   31.5220   45.8450 N   0  0  0  0  0  0  0  0  0  0  0  0
   58.4140   31.9010   44.6450 C   0  0  0  0  0  0  0  0  0  0  0  0
   58.7670   33.2120   44.0040 C   0  0  0  0  0  0  0  0  0  0  0  0
   58.2200   34.6130   45.0400 S   0  0  0  0  0  0  0  0  0  0  0  0
   59.4030   34.3130   46.3590 C   0  0  0  0  0  0  0  0  0  0  0  0
   60.7630   34.1620   46.0580 C   0  0  0  0  0  0  0  0  0  0  0  0
   61.6860   33.9360   47.0830 C   0  0  0  0  0  0  0  0  0  0  0  0
   61.2520   33.8580   48.4110 C   0  0  0  0  0  0  0  0  0  0  0  0
   62.1490   33.6470   49.4060 F   0  0  0  0  0  0  0  0  0  0  0  0
   59.8940   34.0000   48.7120 C   0  0  0  0  0  0  0  0  0  0  0  0
   58.9680   34.2230   47.6870 C   0  0  0  0  0  0  0  0  0  0  0  0
   57.6700   30.8590   44.0720 C   0  0  0  0  0  0  0  0  0  0  0  0
   56.9960   30.8470   42.7590 C   0  0  0  0  0  0  0  0  0  0  0  0
   56.2650   29.7010   42.3240 N   0  0  0  0  0  0  0  0  0  0  0  0
   57.0710   31.8530   42.0060 O   0  0  0  0  0  0  0  0  0  0  0  0
   57.7280   29.8230   44.9920 C   0  0  0  0  0  0  0  0  0  0  0  0
   57.1470   28.5540   44.9920 C   0  0  0  0  0  0  0  0  0  0  0  0
   54.7520   26.9920   46.3800 H   0  0  0  0  0  0  0  0  0  0  0  0
   58.3841   27.5068   48.0294 H   0  0  0  0  0  0  0  0  0  0  0  0
   59.3633   29.8229   47.9848 H   0  0  0  0  0  0  0  0  0  0  0  0
   59.5220   32.0860   46.4780 H   0  0  0  0  0  0  0  0  0  0  0  0
   59.8577   33.2661   43.8720 H   0  0  0  0  0  0  0  0  0  0  0  0
   58.2583   33.2753   43.0307 H   0  0  0  0  0  0  0  0  0  0  0  0
   61.1047   34.2214   45.0141 H   0  0  0  0  0  0  0  0  0  0  0  0
   62.7538   33.8194   46.8457 H   0  0  0  0  0  0  0  0  0  0  0  0
   59.5532   33.9363   49.7559 H   0  0  0  0  0  0  0  0  0  0  0  0
   57.8990   34.3275   47.9242 H   0  0  0  0  0  0  0  0  0  0  0  0
   55.7640   29.7140   41.4090 H   0  0  0  0  0  0  0  0  0  0  0  0
   56.2910   28.8090   42.8660 H   0  0  0  0  0  0  0  0  0  0  0  0
   56.5184   28.2230   44.1521 H   0  0  0  0  0  0  0  0  0  0  0  0
  1  2  1  0
  2  3  2  0
  2  4  1  0
  4  5  2  0
  5  6  1  0
  6  7  2  0
  7  8  1  0
  8  9  1  0
  9 10  1  0
 10 11  1  0
 11 12  1  0
 12 13  2  0
 13 14  1  0
 14 15  2  0
 15 16  1  0
 15 17  1  0
 17 18  2  0
  9 19  2  0
 19 20  1  0
 20 21  1  0
 20 22  2  0
 19 23  1  0
 23 24  2  0
 24  4  1  0
 23  7  1  0
 18 12  1  0
  1 25  1  0
  5 26  1  0
  6 27  1  0
  8 28  1  0
 10 29  1  0
 10 30  1  0
 13 31  1  0
 14 32  1  0
 17 33  1  0
 18 34  1  0
 21 35  1  0
 21 36  1  0
 24 37  1  0
M  CHG  1   1  -1
M  END
>  <UniqueID>  (92) 
81

>  <SMILES>  (92) 
[NH-]C(=O)c1ccc2[nH]c(CSc3ccc(F)cc3)c(C(N)=O)c2c1

>  <Energy>  (92) 
68.12462253816322

>  <Genealogy>  (92) 
[NH-]C(=O)c1ccc2[nH]c(CSc3ccc(F)cc3)c(C(N)=O)c2c1 (protonated)
[NH-]C(=O)c1ccc2[nH]c(CSc3ccc(F)cc3)c(C(N)=O)c2c1 (3D coordinates assigned)
[NH-]C(=O)c1ccc2[nH]c(CSc3ccc(F)cc3)c(C(N)=O)c2c1 (optimized conformer: 68.12462253816322 kcal/mol)

>  <smiles>  (92) 
NC(=O)c1ccc2[nH]c(CSc3ccc(F)cc3)c(C(N)=O)c2c1

>  <score_type>  (92) 
oracle

>  <origin>  (92) 
adg

>  <m_score__min__energy>  (92) 
-11.09

>  <m_primary>  (92) 
energy

$$$$
92:0
     RDKit          3D

 65 68  0  0  0  0  0  0  0  0999 V2000
   59.7040   35.3820   46.0410 C   0  0  0  0  0  0  0  0  0  0  0  0
   59.5470   34.0390   46.6050 N   0  0  0  0  0  0  0  0  0  0  0  0
   60.3490   33.4780   47.5390 C   0  0  0  0  0  0  0  0  0  0  0  0
   59.8670   32.2240   47.8560 C   0  0  0  0  0  0  0  0  0  0  0  0
   60.3680   31.4000   48.9220 N   0  0  0  0  0  0  0  0  0  0  0  0
   59.5700   30.5630   49.7730 C   0  0  0  0  0  0  0  0  0  0  0  0
   59.5420   29.3180   49.6000 O   0  0  0  0  0  0  0  0  0  0  0  0
   58.7180   31.1720   50.8250 C   0  0  0  0  0  0  0  0  0  0  0  0
   58.7770   32.5500   51.0970 C   0  0  0  0  0  0  0  0  0  0  0  0
   57.9320   33.1130   52.0620 C   0  0  0  0  0  0  0  0  0  0  0  0
   57.0090   32.3140   52.7410 C   0  0  0  0  0  0  0  0  0  0  0  0
   56.9300   30.9390   52.4780 C   0  0  0  0  0  0  0  0  0  0  0  0
   55.9490   30.1540   53.1800 N   0  0  0  0  0  0  0  0  0  0  0  0
   54.7350   29.6160   52.6280 C   0  0  0  0  0  0  0  0  0  0  0  0
   54.6710   28.3830   52.4110 O   0  0  0  0  0  0  0  0  0  0  0  0
   53.5190   30.4490   52.4460 C   0  0  0  0  0  0  0  0  0  0  0  0
   52.5770   30.5600   53.4910 C   0  0  0  0  0  0  0  0  0  0  0  0
   51.4310   31.3430   53.3290 C   0  0  0  0  0  0  0  0  0  0  0  0
   51.2070   32.0220   52.1230 C   0  0  0  0  0  0  0  0  0  0  0  0
   52.1400   31.9300   51.0800 C   0  0  0  0  0  0  0  0  0  0  0  0
   53.2960   31.1550   51.2450 C   0  0  0  0  0  0  0  0  0  0  0  0
   57.8070   30.3650   51.5440 C   0  0  0  0  0  0  0  0  0  0  0  0
   58.7480   31.9950   47.0700 C   0  0  0  0  0  0  0  0  0  0  0  0
   58.5740   33.1410   46.3190 C   0  0  0  0  0  0  0  0  0  0  0  0
   57.3720   33.4010   45.5190 C   0  0  0  0  0  0  0  0  0  0  0  0
   57.0630   34.5890   45.2320 O   0  0  0  0  0  0  0  0  0  0  0  0
   56.7070   32.3070   44.8820 N   0  0  0  0  0  0  0  0  0  0  0  0
   57.1360   31.7380   43.6040 C   0  0  0  0  0  0  0  0  0  0  0  0
   58.0600   30.5140   43.8190 C   0  0  0  0  0  0  0  0  0  0  0  0
   57.8030   29.8540   45.1120 N   0  0  0  0  0  0  0  0  0  0  0  0
   58.7730   28.7970   45.4390 C   0  0  0  0  0  0  0  0  0  0  0  0
   58.0210   27.5480   45.8240 C   0  0  0  0  0  0  0  0  0  0  0  0
   58.7010   26.4510   46.3860 C   0  0  0  0  0  0  0  0  0  0  0  0
   58.0050   25.3230   46.7960 C   0  0  0  0  0  0  0  0  0  0  0  0
   56.6040   25.2630   46.6690 C   0  0  0  0  0  0  0  0  0  0  0  0
   55.8990   24.0590   47.1690 C   0  0  0  0  0  0  0  0  0  0  0  0
   56.5040   23.1150   47.7400 O   0  0  0  0  0  0  0  0  0  0  0  0
   55.9120   26.3590   46.1120 C   0  0  0  0  0  0  0  0  0  0  0  0
   54.5180   26.3390   45.9730 O   0  0  0  0  0  0  0  0  0  0  0  0
   56.6230   27.4970   45.7050 C   0  0  0  0  0  0  0  0  0  0  0  0
   59.7896   36.1147   46.8570 H   0  0  0  0  0  0  0  0  0  0  0  0
   60.6122   35.4156   45.4213 H   0  0  0  0  0  0  0  0  0  0  0  0
   58.8280   35.6241   45.4213 H   0  0  0  0  0  0  0  0  0  0  0  0
   61.2430   33.9466   47.9762 H   0  0  0  0  0  0  0  0  0  0  0  0
   59.4881   33.1874   50.5510 H   0  0  0  0  0  0  0  0  0  0  0  0
   57.9955   34.1881   52.2859 H   0  0  0  0  0  0  0  0  0  0  0  0
   56.3395   32.7667   53.4872 H   0  0  0  0  0  0  0  0  0  0  0  0
   52.7458   30.0271   54.4384 H   0  0  0  0  0  0  0  0  0  0  0  0
   50.7031   31.4268   54.1494 H   0  0  0  0  0  0  0  0  0  0  0  0
   50.2979   32.6279   51.9947 H   0  0  0  0  0  0  0  0  0  0  0  0
   51.9649   32.4648   50.1348 H   0  0  0  0  0  0  0  0  0  0  0  0
   54.0349   31.0967   50.4322 H   0  0  0  0  0  0  0  0  0  0  0  0
   57.7851   29.2790   51.3704 H   0  0  0  0  0  0  0  0  0  0  0  0
   58.1267   31.0875   47.0489 H   0  0  0  0  0  0  0  0  0  0  0  0
   56.2487   31.4225   43.0356 H   0  0  0  0  0  0  0  0  0  0  0  0
   57.6973   32.5058   43.0513 H   0  0  0  0  0  0  0  0  0  0  0  0
   57.8863   29.7902   43.0091 H   0  0  0  0  0  0  0  0  0  0  0  0
   59.1016   30.8675   43.8168 H   0  0  0  0  0  0  0  0  0  0  0  0
   57.8480   30.5890   45.8500 H   0  0  0  0  0  0  0  0  0  0  0  0
   59.4056   28.5921   44.5628 H   0  0  0  0  0  0  0  0  0  0  0  0
   59.4108   29.1212   46.2745 H   0  0  0  0  0  0  0  0  0  0  0  0
   59.7943   26.4885   46.5012 H   0  0  0  0  0  0  0  0  0  0  0  0
   58.5516   24.4694   47.2234 H   0  0  0  0  0  0  0  0  0  0  0  0
   54.8093   23.9882   47.0363 H   0  0  0  0  0  0  0  0  0  0  0  0
   56.0801   28.3582   45.2884 H   0  0  0  0  0  0  0  0  0  0  0  0
  1  2  1  0
  2  3  1  0
  3  4  2  0
  4  5  1  0
  5  6  1  0
  6  7  2  0
  6  8  1  0
  8  9  2  0
  9 10  1  0
 10 11  2  0
 11 12  1  0
 12 13  1  0
 13 14  1  0
 14 15  2  0
 14 16  1  0
 16 17  2  0
 17 18  1  0
 18 19  2  0
 19 20  1  0
 20 21  2  0
 12 22  2  0
  4 23  1  0
 23 24  2  0
 24 25  1  0
 25 26  2  0
 25 27  1  0
 27 28  1  0
 28 29  1  0
 29 30  1  0
 30 31  1  0
 31 32  1  0
 32 33  2  0
 33 34  1  0
 34 35  2  0
 35 36  1  0
 36 37  2  0
 35 38  1  0
 38 39  1  0
 38 40  2  0
 24  2  1  0
 40 32  1  0
 22  8  1  0
 21 16  1  0
  1 41  1  0
  1 42  1  0
  1 43  1  0
  3 44  1  0
  9 45  1  0
 10 46  1  0
 11 47  1  0
 17 48  1  0
 18 49  1  0
 19 50  1  0
 20 51  1  0
 21 52  1  0
 22 53  1  0
 23 54  1  0
 28 55  1  0
 28 56  1  0
 29 57  1  0
 29 58  1  0
 30 59  1  0
 31 60  1  0
 31 61  1  0
 33 62  1  0
 34 63  1  0
 36 64  1  0
 40 65  1  0
M  CHG  4   5  -1  13  -1  27  -1  39  -1
M  END
>  <UniqueID>  (93) 
82

>  <SMILES>  (93) 
Cn1cc([N-]C(=O)c2cccc([N-]C(=O)c3ccccc3)c2)cc1C(=O)[N-]CCNCc1ccc(C=O)c([O-])c1

>  <Energy>  (93) 
106.85158361645242

>  <Genealogy>  (93) 
Cn1cc([N-]C(=O)c2cccc([N-]C(=O)c3ccccc3)c2)cc1C(=O)[N-]CCNCc1ccc(C=O)c([O-])c1 (protonated)
Cn1cc([N-]C(=O)c2cccc([N-]C(=O)c3ccccc3)c2)cc1C(=O)[N-]CCNCc1ccc(C=O)c([O-])c1 (3D coordinates assigned)
Cn1cc([N-]C(=O)c2cccc([N-]C(=O)c3ccccc3)c2)cc1C(=O)[N-]CCNCc1ccc(C=O)c([O-])c1 (optimized conformer: 106.85158361645242 kcal/mol)

>  <smiles>  (93) 
Cn1cc(NC(=O)c2cccc(NC(=O)c3ccccc3)c2)cc1C(=O)NCCNCc1ccc(C=O)c(O)c1

>  <score_type>  (93) 
oracle

>  <origin>  (93) 
adg

>  <m_score__min__energy>  (93) 
-18.190000000000001

>  <m_primary>  (93) 
energy

$$$$
93:0
     RDKit          3D

 61 64  0  0  0  0  0  0  0  0999 V2000
   49.9600   33.4830   53.1440 C   0  0  0  0  0  0  0  0  0  0  0  0
   49.9160   31.9690   53.3230 C   0  0  0  0  0  0  0  0  0  0  0  0
   51.2620   31.4410   53.7200 C   0  0  0  0  0  0  0  0  0  0  0  0
   51.5700   31.1010   54.9500 O   0  0  0  0  0  0  0  0  0  0  0  0
   52.8110   30.7230   55.0420 N   0  0  0  0  0  0  0  0  0  0  0  0
   53.3490   30.8170   53.8110 C   0  0  0  0  0  0  0  0  0  0  0  0
   54.7350   30.4180   53.5180 C   0  0  0  0  0  0  0  0  0  0  0  0
   55.1640   29.3300   53.9860 O   0  0  0  0  0  0  0  0  0  0  0  0
   55.5740   31.2400   52.6880 N   0  0  0  0  0  0  0  0  0  0  0  0
   56.9490   30.9480   52.3930 C   0  0  0  0  0  0  0  0  0  0  0  0
   57.3470   29.6800   51.9380 C   0  0  0  0  0  0  0  0  0  0  0  0
   58.6860   29.4330   51.6240 C   0  0  0  0  0  0  0  0  0  0  0  0
   59.6400   30.4470   51.7490 C   0  0  0  0  0  0  0  0  0  0  0  0
   60.9640   30.1750   51.4240 O   0  0  0  0  0  0  0  0  0  0  0  0
   59.2530   31.7280   52.1900 C   0  0  0  0  0  0  0  0  0  0  0  0
   60.2490   32.8580   52.3070 C   0  0  0  0  0  0  0  0  0  0  0  0
   60.4980   33.4820   50.9900 N   0  0  0  0  0  0  0  0  0  0  0  0
   61.0350   32.4970   50.0150 C   0  0  0  0  0  0  0  0  0  0  0  0
   59.9430   31.9420   49.0850 C   0  0  0  0  0  0  0  0  0  0  0  0
   59.2550   33.0110   48.3140 N   0  0  0  0  0  0  0  0  0  0  0  0
   59.7380   33.0950   46.9200 C   0  0  0  0  0  0  0  0  0  0  0  0
   58.8820   32.2480   46.0170 C   0  0  0  0  0  0  0  0  0  0  0  0
   58.1620   32.8290   44.9590 C   0  0  0  0  0  0  0  0  0  0  0  0
   57.3810   32.0320   44.1160 C   0  0  0  0  0  0  0  0  0  0  0  0
   57.3100   30.6510   44.3250 C   0  0  0  0  0  0  0  0  0  0  0  0
   56.3280   29.6530   43.2680 Cl  0  0  0  0  0  0  0  0  0  0  0  0
   58.0230   30.0660   45.3760 C   0  0  0  0  0  0  0  0  0  0  0  0
   58.8070   30.8600   46.2190 C   0  0  0  0  0  0  0  0  0  0  0  0
   59.3170   34.3380   48.9680 C   0  0  0  0  0  0  0  0  0  0  0  0
   59.2980   34.2020   50.4940 C   0  0  0  0  0  0  0  0  0  0  0  0
   57.9030   31.9690   52.4970 C   0  0  0  0  0  0  0  0  0  0  0  0
   52.3880   31.2860   52.9240 C   0  0  0  0  0  0  0  0  0  0  0  0
   52.5570   31.6830   51.5110 C   0  0  0  0  0  0  0  0  0  0  0  0
   51.4790   32.2850   50.7980 N   0  0  0  0  0  0  0  0  0  0  0  0
   53.6470   31.4710   50.9190 O   0  0  0  0  0  0  0  0  0  0  0  0
   49.9741   33.9686   54.1309 H   0  0  0  0  0  0  0  0  0  0  0  0
   50.8666   33.7601   52.5860 H   0  0  0  0  0  0  0  0  0  0  0  0
   49.0710   33.8122   52.5860 H   0  0  0  0  0  0  0  0  0  0  0  0
   49.1852   31.7195   54.1064 H   0  0  0  0  0  0  0  0  0  0  0  0
   49.6245   31.5091   52.3673 H   0  0  0  0  0  0  0  0  0  0  0  0
   55.1890   32.1440   52.3330 H   0  0  0  0  0  0  0  0  0  0  0  0
   56.6017   28.8784   51.8285 H   0  0  0  0  0  0  0  0  0  0  0  0
   58.9911   28.4349   51.2765 H   0  0  0  0  0  0  0  0  0  0  0  0
   59.8518   33.6180   52.9960 H   0  0  0  0  0  0  0  0  0  0  0  0
   61.1976   32.4516   52.6877 H   0  0  0  0  0  0  0  0  0  0  0  0
   61.8048   32.9891   49.4025 H   0  0  0  0  0  0  0  0  0  0  0  0
   61.4531   31.6536   50.5841 H   0  0  0  0  0  0  0  0  0  0  0  0
   60.4062   31.2389   48.3772 H   0  0  0  0  0  0  0  0  0  0  0  0
   59.1893   31.4451   49.7135 H   0  0  0  0  0  0  0  0  0  0  0  0
   59.6948   34.1415   46.5837 H   0  0  0  0  0  0  0  0  0  0  0  0
   60.7739   32.7274   46.8782 H   0  0  0  0  0  0  0  0  0  0  0  0
   58.2130   33.9153   44.7933 H   0  0  0  0  0  0  0  0  0  0  0  0
   56.8220   32.4918   43.2877 H   0  0  0  0  0  0  0  0  0  0  0  0
   57.9672   28.9797   45.5400 H   0  0  0  0  0  0  0  0  0  0  0  0
   59.3673   30.3956   47.0438 H   0  0  0  0  0  0  0  0  0  0  0  0
   60.2444   34.8454   48.6640 H   0  0  0  0  0  0  0  0  0  0  0  0
   58.4377   34.9218   48.6582 H   0  0  0  0  0  0  0  0  0  0  0  0
   59.2727   35.2062   50.9423 H   0  0  0  0  0  0  0  0  0  0  0  0
   58.4062   33.6243   50.7784 H   0  0  0  0  0  0  0  0  0  0  0  0
   57.5912   32.9722   52.8232 H   0  0  0  0  0  0  0  0  0  0  0  0
   51.6580   32.9500   50.0140 H   0  0  0  0  0  0  0  0  0  0  0  0
  1  2  1  0
  2  3  1  0
  3  4  1  0
  4  5  1  0
  5  6  2  0
  6  7  1  0
  7  8  2  0
  7  9  1  0
  9 10  1  0
 10 11  2  0
 11 12  1  0
 12 13  2  0
 13 14  1  0
 13 15  1  0
 15 16  1  0
 16 17  1  0
 17 18  1  0
 18 19  1  0
 19 20  1  0
 20 21  1  0
 21 22  1  0
 22 23  2  0
 23 24  1  0
 24 25  2  0
 25 26  1  0
 25 27  1  0
 27 28  2  0
 20 29  1  0
 29 30  1  0
 15 31  2  0
  6 32  1  0
 32 33  1  0
 33 34  1  0
 33 35  2  0
 32  3  2  0
 31 10  1  0
 30 17  1  0
 28 22  1  0
  1 36  1  0
  1 37  1  0
  1 38  1  0
  2 39  1  0
  2 40  1  0
  9 41  1  0
 11 42  1  0
 12 43  1  0
 16 44  1  0
 16 45  1  0
 18 46  1  0
 18 47  1  0
 19 48  1  0
 19 49  1  0
 21 50  1  0
 21 51  1  0
 23 52  1  0
 24 53  1  0
 27 54  1  0
 28 55  1  0
 29 56  1  0
 29 57  1  0
 30 58  1  0
 30 59  1  0
 31 60  1  0
 34 61  1  0
M  CHG  2  14  -1  34  -1
M  END
>  <UniqueID>  (94) 
83

>  <SMILES>  (94) 
CCc1onc(C(=O)Nc2ccc([O-])c(CN3CCN(Cc4ccc(Cl)cc4)CC3)c2)c1C([NH-])=O

>  <Energy>  (94) 
113.68645217513563

>  <Genealogy>  (94) 
CCc1onc(C(=O)Nc2ccc([O-])c(CN3CCN(Cc4ccc(Cl)cc4)CC3)c2)c1C([NH-])=O (protonated)
CCc1onc(C(=O)Nc2ccc([O-])c(CN3CCN(Cc4ccc(Cl)cc4)CC3)c2)c1C([NH-])=O (3D coordinates assigned)
CCc1onc(C(=O)Nc2ccc([O-])c(CN3CCN(Cc4ccc(Cl)cc4)CC3)c2)c1C([NH-])=O (nonaromatic ring conformer: 113.68645217513563 kcal/mol)

>  <smiles>  (94) 
CCc1onc(C(=O)Nc2ccc(O)c(CN3CCN(Cc4ccc(Cl)cc4)CC3)c2)c1C(N)=O

>  <score_type>  (94) 
oracle

>  <origin>  (94) 
adg

>  <m_score__min__energy>  (94) 
-13.06

>  <m_primary>  (94) 
energy

$$$$
94:0
     RDKit          3D

 57 60  0  0  0  0  0  0  0  0999 V2000
   56.9460   20.9060   42.9850 C   0  0  0  0  0  0  0  0  0  0  0  0
   55.9330   21.8000   43.4330 O   0  0  0  0  0  0  0  0  0  0  0  0
   56.1830   23.0440   44.0290 C   0  0  0  0  0  0  0  0  0  0  0  0
   55.2530   23.5390   44.9510 C   0  0  0  0  0  0  0  0  0  0  0  0
   55.4680   24.7640   45.5880 C   0  0  0  0  0  0  0  0  0  0  0  0
   56.6150   25.5200   45.3050 C   0  0  0  0  0  0  0  0  0  0  0  0
   56.8650   26.8110   46.0330 C   0  0  0  0  0  0  0  0  0  0  0  0
   55.9020   27.8200   45.6060 N   0  0  0  0  0  0  0  0  0  0  0  0
   56.2730   29.1080   45.1030 C   0  0  0  0  0  0  0  0  0  0  0  0
   55.5850   29.6510   44.1970 O   0  0  0  0  0  0  0  0  0  0  0  0
   57.4040   29.8530   45.6900 C   0  0  0  0  0  0  0  0  0  0  0  0
   58.1580   29.2240   46.6250 N   0  0  0  0  0  0  0  0  0  0  0  0
   59.2430   29.8020   47.1990 C   0  0  0  0  0  0  0  0  0  0  0  0
   60.0320   29.0120   48.1760 C   0  0  0  0  0  0  0  0  0  0  0  0
   60.6210   27.9720   47.7670 O   0  0  0  0  0  0  0  0  0  0  0  0
   60.1640   29.4110   49.5580 N   0  0  0  0  0  0  0  0  0  0  0  0
   61.1940   28.8000   50.4100 C   0  0  0  0  0  0  0  0  0  0  0  0
   61.9140   29.8730   51.2470 C   0  0  0  0  0  0  0  0  0  0  0  0
   61.0350   30.9460   51.7600 N   0  0  0  0  0  0  0  0  0  0  0  0
   59.6030   30.6500   51.6280 C   0  0  0  0  0  0  0  0  0  0  0  0
   59.2400   30.3810   50.1640 C   0  0  0  0  0  0  0  0  0  0  0  0
   59.6240   31.0670   46.8160 N   0  0  0  0  0  0  0  0  0  0  0  0
   60.7540   31.7180   47.4300 C   0  0  0  0  0  0  0  0  0  0  0  0
   60.5620   32.7970   48.3040 C   0  0  0  0  0  0  0  0  0  0  0  0
   61.6690   33.4090   48.8950 C   0  0  0  0  0  0  0  0  0  0  0  0
   62.9230   32.9560   48.6230 N   0  0  0  0  0  0  0  0  0  0  0  0
   63.1370   31.9100   47.7780 C   0  0  0  0  0  0  0  0  0  0  0  0
   62.0560   31.2750   47.1630 C   0  0  0  0  0  0  0  0  0  0  0  0
   58.8840   31.7470   45.8830 C   0  0  0  0  0  0  0  0  0  0  0  0
   59.2030   32.9230   45.5490 O   0  0  0  0  0  0  0  0  0  0  0  0
   57.7440   31.1660   45.3150 C   0  0  0  0  0  0  0  0  0  0  0  0
   56.9670   31.9310   44.4390 O   0  0  0  0  0  0  0  0  0  0  0  0
   57.5470   25.0300   44.3800 C   0  0  0  0  0  0  0  0  0  0  0  0
   57.3330   23.8030   43.7420 C   0  0  0  0  0  0  0  0  0  0  0  0
   57.4517   20.4597   43.8540 H   0  0  0  0  0  0  0  0  0  0  0  0
   56.4903   20.1103   42.3774 H   0  0  0  0  0  0  0  0  0  0  0  0
   57.6789   21.4571   42.3774 H   0  0  0  0  0  0  0  0  0  0  0  0
   54.3458   22.9590   45.1758 H   0  0  0  0  0  0  0  0  0  0  0  0
   54.7330   25.1378   46.3160 H   0  0  0  0  0  0  0  0  0  0  0  0
   56.7621   26.6445   47.1154 H   0  0  0  0  0  0  0  0  0  0  0  0
   57.8817   27.1631   45.8043 H   0  0  0  0  0  0  0  0  0  0  0  0
   60.7194   28.0732   51.0857 H   0  0  0  0  0  0  0  0  0  0  0  0
   61.9324   28.2979   49.7676 H   0  0  0  0  0  0  0  0  0  0  0  0
   62.3874   29.3768   52.1070 H   0  0  0  0  0  0  0  0  0  0  0  0
   62.6385   30.3576   50.5760 H   0  0  0  0  0  0  0  0  0  0  0  0
   61.2330   31.8270   51.2280 H   0  0  0  0  0  0  0  0  0  0  0  0
   59.3607   29.7615   52.2295 H   0  0  0  0  0  0  0  0  0  0  0  0
   59.0276   31.5181   51.9820 H   0  0  0  0  0  0  0  0  0  0  0  0
   58.2166   29.9806   50.1156 H   0  0  0  0  0  0  0  0  0  0  0  0
   59.3125   31.3268   49.6071 H   0  0  0  0  0  0  0  0  0  0  0  0
   59.5465   33.1589   48.5226 H   0  0  0  0  0  0  0  0  0  0  0  0
   61.5275   34.2575   49.5806 H   0  0  0  0  0  0  0  0  0  0  0  0
   64.1624   31.5648   47.5796 H   0  0  0  0  0  0  0  0  0  0  0  0
   62.2254   30.4339   46.4746 H   0  0  0  0  0  0  0  0  0  0  0  0
   56.3370   31.5300   43.7590 H   0  0  0  0  0  0  0  0  0  0  0  0
   58.4519   25.6133   44.1542 H   0  0  0  0  0  0  0  0  0  0  0  0
   58.0671   23.4299   43.0127 H   0  0  0  0  0  0  0  0  0  0  0  0
  1  2  1  0
  2  3  1  0
  3  4  2  0
  4  5  1  0
  5  6  2  0
  6  7  1  0
  7  8  1  0
  8  9  1  0
  9 10  2  0
  9 11  1  0
 11 12  1  0
 12 13  2  0
 13 14  1  0
 14 15  2  0
 14 16  1  0
 16 17  1  0
 17 18  1  0
 18 19  1  0
 19 20  1  0
 20 21  1  0
 13 22  1  0
 22 23  1  0
 23 24  2  0
 24 25  1  0
 25 26  2  0
 26 27  1  0
 27 28  2  0
 22 29  1  0
 29 30  2  0
 29 31  1  0
 31 32  1  0
  6 33  1  0
 33 34  2  0
 34  3  1  0
 31 11  2  0
 21 16  1  0
 28 23  1  0
  1 35  1  0
  1 36  1  0
  1 37  1  0
  4 38  1  0
  5 39  1  0
  7 40  1  0
  7 41  1  0
 17 42  1  0
 17 43  1  0
 18 44  1  0
 18 45  1  0
 19 46  1  0
 20 47  1  0
 20 48  1  0
 21 49  1  0
 21 50  1  0
 24 51  1  0
 25 52  1  0
 27 53  1  0
 28 54  1  0
 32 55  1  0
 33 56  1  0
 34 57  1  0
M  CHG  1   8  -1
M  END
>  <UniqueID>  (95) 
84

>  <SMILES>  (95) 
COc1ccc(C[N-]C(=O)c2nc(C(=O)N3CCNCC3)n(-c3ccncc3)c(=O)c2O)cc1

>  <Energy>  (95) 
84.26207464420536

>  <Genealogy>  (95) 
COc1ccc(C[N-]C(=O)c2nc(C(=O)N3CCNCC3)n(-c3ccncc3)c(=O)c2O)cc1 (protonated)
COc1ccc(C[N-]C(=O)c2nc(C(=O)N3CCNCC3)n(-c3ccncc3)c(=O)c2O)cc1 (3D coordinates assigned)
COc1ccc(C[N-]C(=O)c2nc(C(=O)N3CCNCC3)n(-c3ccncc3)c(=O)c2O)cc1 (nonaromatic ring conformer: 84.26207464420536 kcal/mol)

>  <smiles>  (95) 
COc1ccc(CNC(=O)c2nc(C(=O)N3CCNCC3)n(-c3ccncc3)c(=O)c2O)cc1

>  <score_type>  (95) 
oracle

>  <origin>  (95) 
adg

>  <m_score__min__energy>  (95) 
-10.16

>  <m_primary>  (95) 
energy

$$$$
95:0
     RDKit          3D

 39 41  0  0  0  0  0  0  0  0999 V2000
   55.9520   22.0700   43.2100 O   0  0  0  0  0  0  0  0  0  0  0  0
   57.1820   21.8660   43.3980 C   0  0  0  0  0  0  0  0  0  0  0  0
   57.9850   22.7800   44.1580 N   0  0  0  0  0  0  0  0  0  0  0  0
   57.4630   23.8860   44.9210 C   0  0  0  0  0  0  0  0  0  0  0  0
   56.7710   23.6910   46.1310 C   0  0  0  0  0  0  0  0  0  0  0  0
   56.2980   24.7870   46.8570 C   0  0  0  0  0  0  0  0  0  0  0  0
   56.5010   26.0840   46.3820 C   0  0  0  0  0  0  0  0  0  0  0  0
   57.2050   26.2940   45.1900 C   0  0  0  0  0  0  0  0  0  0  0  0
   57.3970   27.9290   44.5610 S   0  0  0  0  0  0  0  0  0  0  0  0
   57.4250   27.9210   43.0590 O   0  0  0  0  0  0  0  0  0  0  0  0
   58.6890   28.5080   45.0650 O   0  0  0  0  0  0  0  0  0  0  0  0
   56.0760   28.9090   45.1200 N   0  0  0  0  0  0  0  0  0  0  0  0
   55.5290   29.7240   44.0330 C   0  0  0  0  0  0  0  0  0  0  0  0
   56.6620   30.4470   43.3120 C   0  0  0  0  0  0  0  0  0  0  0  0
   57.2250   31.5410   44.1690 C   0  0  0  0  0  0  0  0  0  0  0  0
   57.8990   32.6600   43.7070 C   0  0  0  0  0  0  0  0  0  0  0  0
   58.2890   33.3530   44.7880 N   0  0  0  0  0  0  0  0  0  0  0  0
   59.0270   34.4920   44.8790 C   0  0  0  0  0  0  0  0  0  0  0  0
   59.3440   34.9720   46.1590 C   0  0  0  0  0  0  0  0  0  0  0  0
   58.8980   34.2630   47.2950 C   0  0  0  0  0  0  0  0  0  0  0  0
   58.1480   33.0840   47.1510 C   0  0  0  0  0  0  0  0  0  0  0  0
   57.8640   32.6540   45.8540 C   0  0  0  0  0  0  0  0  0  0  0  0
   57.2120   31.5180   45.5270 N   0  0  0  0  0  0  0  0  0  0  0  0
   57.6950   25.1940   44.4710 C   0  0  0  0  0  0  0  0  0  0  0  0
   57.6497   20.9672   42.9697 H   0  0  0  0  0  0  0  0  0  0  0  0
   59.0220   22.6860   44.0700 H   0  0  0  0  0  0  0  0  0  0  0  0
   56.6018   22.6711   46.5068 H   0  0  0  0  0  0  0  0  0  0  0  0
   55.7642   24.6275   47.8055 H   0  0  0  0  0  0  0  0  0  0  0  0
   56.1071   26.9427   46.9453 H   0  0  0  0  0  0  0  0  0  0  0  0
   54.9979   29.0751   43.3211 H   0  0  0  0  0  0  0  0  0  0  0  0
   54.8308   30.4651   44.4493 H   0  0  0  0  0  0  0  0  0  0  0  0
   57.4589   29.7258   43.0779 H   0  0  0  0  0  0  0  0  0  0  0  0
   56.2650   30.8918   42.3876 H   0  0  0  0  0  0  0  0  0  0  0  0
   58.0797   32.9288   42.6558 H   0  0  0  0  0  0  0  0  0  0  0  0
   59.3653   35.0212   43.9760 H   0  0  0  0  0  0  0  0  0  0  0  0
   59.9348   35.8925   46.2759 H   0  0  0  0  0  0  0  0  0  0  0  0
   59.1396   34.6366   48.3010 H   0  0  0  0  0  0  0  0  0  0  0  0
   57.7974   32.5204   48.0282 H   0  0  0  0  0  0  0  0  0  0  0  0
   58.2665   25.3586   43.5457 H   0  0  0  0  0  0  0  0  0  0  0  0
  1  2  2  0
  2  3  1  0
  3  4  1  0
  4  5  2  0
  5  6  1  0
  6  7  2  0
  7  8  1  0
  8  9  1  0
  9 10  2  0
  9 11  2  0
  9 12  1  0
 12 13  1  0
 13 14  1  0
 14 15  1  0
 15 16  2  0
 16 17  1  0
 17 18  1  0
 18 19  2  0
 19 20  1  0
 20 21  2  0
 21 22  1  0
 22 23  2  0
  8 24  2  0
 24  4  1  0
 23 15  1  0
 22 17  1  0
  2 25  1  0
  3 26  1  0
  5 27  1  0
  6 28  1  0
  7 29  1  0
 13 30  1  0
 13 31  1  0
 14 32  1  0
 14 33  1  0
 16 34  1  0
 18 35  1  0
 19 36  1  0
 20 37  1  0
 21 38  1  0
 24 39  1  0
M  CHG  1  12  -1
M  END
>  <UniqueID>  (96) 
85

>  <SMILES>  (96) 
O=CNc1cccc(S(=O)(=O)[N-]CCc2cn3ccccc3n2)c1

>  <Energy>  (96) 
69.90067105757144

>  <Genealogy>  (96) 
O=CNc1cccc(S(=O)(=O)[N-]CCc2cn3ccccc3n2)c1 (protonated)
O=CNc1cccc(S(=O)(=O)[N-]CCc2cn3ccccc3n2)c1 (3D coordinates assigned)
O=CNc1cccc(S(=O)(=O)[N-]CCc2cn3ccccc3n2)c1 (optimized conformer: 69.90067105757144 kcal/mol)

>  <smiles>  (96) 
O=CNc1cccc(S(=O)(=O)NCCc2cn3ccccc3n2)c1

>  <score_type>  (96) 
oracle

>  <origin>  (96) 
adg

>  <m_score__min__energy>  (96) 
-10.210000000000001

>  <m_primary>  (96) 
energy

$$$$
96:0
     RDKit          3D

 50 52  0  0  0  0  0  0  0  0999 V2000
   59.3950   28.7040   46.9350 C   0  0  0  0  0  0  0  0  0  0  0  0
   58.5290   28.9540   45.9410 C   0  0  0  0  0  0  0  0  0  0  0  0
   57.8920   28.0080   45.1310 C   0  0  0  0  0  0  0  0  0  0  0  0
   58.0800   26.6740   45.1380 C   0  0  0  0  0  0  0  0  0  0  0  0
   57.3870   25.7440   46.0500 C   0  0  0  0  0  0  0  0  0  0  0  0
   57.9200   24.6410   46.6030 N   0  0  0  0  0  0  0  0  0  0  0  0
   56.8960   24.0600   47.2580 C   0  0  0  0  0  0  0  0  0  0  0  0
   57.0150   22.9860   47.9050 O   0  0  0  0  0  0  0  0  0  0  0  0
   55.7240   24.7220   47.1480 N   0  0  0  0  0  0  0  0  0  0  0  0
   56.0480   25.7750   46.3730 C   0  0  0  0  0  0  0  0  0  0  0  0
   55.1390   26.7420   45.9650 O   0  0  0  0  0  0  0  0  0  0  0  0
   57.0560   28.7230   44.2800 C   0  0  0  0  0  0  0  0  0  0  0  0
   57.2120   30.0570   44.6010 C   0  0  0  0  0  0  0  0  0  0  0  0
   56.4870   31.1880   43.9410 C   0  0  0  0  0  0  0  0  0  0  0  0
   58.1020   30.1970   45.6070 N   0  0  0  0  0  0  0  0  0  0  0  0
   58.4950   31.4390   46.2130 C   0  0  0  0  0  0  0  0  0  0  0  0
   58.8810   32.5220   45.4150 C   0  0  0  0  0  0  0  0  0  0  0  0
   59.2950   33.7170   46.0080 C   0  0  0  0  0  0  0  0  0  0  0  0
   59.3530   33.8250   47.4010 C   0  0  0  0  0  0  0  0  0  0  0  0
   58.9980   32.7330   48.2100 C   0  0  0  0  0  0  0  0  0  0  0  0
   59.1410   32.8250   49.6730 C   0  0  0  0  0  0  0  0  0  0  0  0
   58.4460   32.0670   50.4000 O   0  0  0  0  0  0  0  0  0  0  0  0
   60.0260   33.7610   50.3030 N   0  0  0  0  0  0  0  0  0  0  0  0
   61.7630   33.6940   50.3060 S   0  0  0  0  0  0  0  0  0  0  0  0
   62.2700   34.6320   49.2460 O   0  0  0  0  0  0  0  0  0  0  0  0
   62.2910   34.1430   51.6400 O   0  0  0  0  0  0  0  0  0  0  0  0
   62.3580   32.0490   49.9260 C   0  0  0  0  0  0  0  0  0  0  0  0
   63.5770   32.1120   49.0030 C   0  0  0  0  0  0  0  0  0  0  0  0
   63.1640   31.9350   47.5400 C   0  0  0  0  0  0  0  0  0  0  0  0
   63.2790   33.2070   46.8170 C   0  0  0  0  0  0  0  0  0  0  0  0
   63.3700   34.2100   46.2480 N   0  0  0  0  0  0  0  0  0  0  0  0
   58.5270   31.5560   47.6080 C   0  0  0  0  0  0  0  0  0  0  0  0
   59.8333   29.5365   47.5050 H   0  0  0  0  0  0  0  0  0  0  0  0
   59.6666   27.6666   47.1799 H   0  0  0  0  0  0  0  0  0  0  0  0
   58.7959   26.2511   44.4178 H   0  0  0  0  0  0  0  0  0  0  0  0
   58.8910   24.2700   46.5010 H   0  0  0  0  0  0  0  0  0  0  0  0
   56.3985   28.3069   43.5025 H   0  0  0  0  0  0  0  0  0  0  0  0
   56.0626   31.8500   44.7102 H   0  0  0  0  0  0  0  0  0  0  0  0
   57.1889   31.7573   43.3139 H   0  0  0  0  0  0  0  0  0  0  0  0
   55.6767   30.7879   43.3139 H   0  0  0  0  0  0  0  0  0  0  0  0
   58.8583   32.4320   44.3189 H   0  0  0  0  0  0  0  0  0  0  0  0
   59.5758   34.5742   45.3784 H   0  0  0  0  0  0  0  0  0  0  0  0
   59.6777   34.7682   47.8647 H   0  0  0  0  0  0  0  0  0  0  0  0
   62.6393   31.5423   50.8609 H   0  0  0  0  0  0  0  0  0  0  0  0
   61.5574   31.4936   49.4155 H   0  0  0  0  0  0  0  0  0  0  0  0
   64.0693   33.0884   49.1227 H   0  0  0  0  0  0  0  0  0  0  0  0
   64.2659   31.2986   49.2746 H   0  0  0  0  0  0  0  0  0  0  0  0
   63.8189   31.1888   47.0665 H   0  0  0  0  0  0  0  0  0  0  0  0
   62.1176   31.5979   47.5036 H   0  0  0  0  0  0  0  0  0  0  0  0
   58.1812   30.7211   48.2352 H   0  0  0  0  0  0  0  0  0  0  0  0
  1  2  2  0
  2  3  1  0
  3  4  2  3
  4  5  1  0
  5  6  1  0
  6  7  1  0
  7  8  2  0
  7  9  1  0
  9 10  1  0
 10 11  1  0
  3 12  1  0
 12 13  2  0
 13 14  1  0
 13 15  1  0
 15 16  1  0
 16 17  2  0
 17 18  1  0
 18 19  2  0
 19 20  1  0
 20 21  1  0
 21 22  2  0
 21 23  1  0
 23 24  1  0
 24 25  2  0
 24 26  2  0
 24 27  1  0
 27 28  1  0
 28 29  1  0
 29 30  1  0
 30 31  3  0
 20 32  2  0
 15  2  1  0
 32 16  1  0
 10  5  2  0
  1 33  1  0
  1 34  1  0
  4 35  1  0
  6 36  1  0
 12 37  1  0
 14 38  1  0
 14 39  1  0
 14 40  1  0
 17 41  1  0
 18 42  1  0
 19 43  1  0
 27 44  1  0
 27 45  1  0
 28 46  1  0
 28 47  1  0
 29 48  1  0
 29 49  1  0
 32 50  1  0
M  CHG  3   9  -1  11  -1  23  -1
M  END
>  <UniqueID>  (97) 
86

>  <SMILES>  (97) 
C=c1c(=Cc2[nH]c(=O)[n-]c2[O-])cc(C)n1-c1cccc(C(=O)[N-]S(=O)(=O)CCCC#N)c1

>  <Energy>  (97) 
119.39212839366039

>  <Genealogy>  (97) 
C=c1c(=Cc2[nH]c(=O)[n-]c2[O-])cc(C)n1-c1cccc(C(=O)[N-]S(=O)(=O)CCCC#N)c1 (protonated)
C=c1c(=Cc2[nH]c(=O)[n-]c2[O-])cc(C)n1-c1cccc(C(=O)[N-]S(=O)(=O)CCCC#N)c1 (3D coordinates assigned)
C=c1c(=Cc2[nH]c(=O)[n-]c2[O-])cc(C)n1-c1cccc(C(=O)[N-]S(=O)(=O)CCCC#N)c1 (optimized conformer: 119.39212839366039 kcal/mol)

>  <smiles>  (97) 
C=c1c(=Cc2[nH]c(=O)[nH]c2O)cc(C)n1-c1cccc(C(=O)NS(=O)(=O)CCCC#N)c1

>  <score_type>  (97) 
oracle

>  <origin>  (97) 
adg

>  <m_score__min__energy>  (97) 
-16.41

>  <m_primary>  (97) 
energy

$$$$
