0:0
     RDKit          3D

 77 81  0  0  0  0  0  0  0  0999 V2000
   54.2840   21.7230   52.3170 H   0  0  0  0  0  0  0  0  0  0  0  0
   54.3200   21.2070   51.4440 O   0  0  0  0  0  0  0  0  0  0  0  0
   54.9240   21.7480   50.3130 C   0  0  0  0  0  0  0  0  0  0  0  0
   54.1270   22.2230   49.2660 C   0  0  0  0  0  0  0  0  0  0  0  0
   53.0309   22.1740   49.3452 H   0  0  0  0  0  0  0  0  0  0  0  0
   54.7200   22.7600   48.1190 C   0  0  0  0  0  0  0  0  0  0  0  0
   54.0877   23.1367   47.3015 H   0  0  0  0  0  0  0  0  0  0  0  0
   56.1200   22.8210   48.0050 C   0  0  0  0  0  0  0  0  0  0  0  0
   56.7580   23.3680   46.7510 C   0  0  0  0  0  0  0  0  0  0  0  0
   57.3940   22.5887   46.3058 H   0  0  0  0  0  0  0  0  0  0  0  0
   57.3514   24.2523   47.0266 H   0  0  0  0  0  0  0  0  0  0  0  0
   55.7060   23.8010   45.7190 C   0  0  1  0  0  0  0  0  0  0  0  0
   54.8789   23.0758   45.7276 H   0  0  0  0  0  0  0  0  0  0  0  0
   55.2130   25.1250   46.0730 N   0  0  0  0  0  0  0  0  0  0  0  0
   56.0160   26.3110   46.0350 C   0  0  0  0  0  0  0  0  0  0  0  0
   55.5290   27.4000   45.6240 O   0  0  0  0  0  0  0  0  0  0  0  0
   57.3740   26.2720   46.4720 N   0  0  0  0  0  0  0  0  0  0  0  0
   58.2260   27.4560   46.5520 C   0  0  1  0  0  0  0  0  0  0  0  0
   57.6034   28.3314   46.7890 H   0  0  0  0  0  0  0  0  0  0  0  0
   59.2480   27.2800   47.6400 C   0  0  0  0  0  0  0  0  0  0  0  0
   60.0370   26.2990   47.5940 O   0  0  0  0  0  0  0  0  0  0  0  0
   59.2920   28.2160   48.7300 N   0  0  0  0  0  0  0  0  0  0  0  0
   60.0710   29.2590   48.8270 C   0  0  0  0  0  0  0  0  0  0  0  0
   59.7660   30.3600   48.1040 N   0  0  0  0  0  0  0  0  0  0  0  0
   60.3070   31.5850   47.9090 C   0  0  0  0  0  0  0  0  0  0  0  0
   59.4600   32.4780   47.0800 C   0  0  0  0  0  0  0  0  0  0  0  0
   58.1120   32.6780   47.4200 C   0  0  0  0  0  0  0  0  0  0  0  0
   57.6786   32.1452   48.2793 H   0  0  0  0  0  0  0  0  0  0  0  0
   57.3190   33.5520   46.6700 C   0  0  0  0  0  0  0  0  0  0  0  0
   56.2599   33.6950   46.9304 H   0  0  0  0  0  0  0  0  0  0  0  0
   57.8730   34.2440   45.5890 C   0  0  0  0  0  0  0  0  0  0  0  0
   57.2488   34.9331   45.0012 H   0  0  0  0  0  0  0  0  0  0  0  0
   59.2170   34.0630   45.2530 C   0  0  0  0  0  0  0  0  0  0  0  0
   59.6481   34.6063   44.3992 H   0  0  0  0  0  0  0  0  0  0  0  0
   60.0140   33.1920   46.0010 C   0  0  0  0  0  0  0  0  0  0  0  0
   61.0764   33.0643   45.7459 H   0  0  0  0  0  0  0  0  0  0  0  0
   61.5560   32.0260   48.4180 C   0  0  0  0  0  0  0  0  0  0  0  0
   62.1010   33.2320   47.8980 C   0  0  0  0  0  0  0  0  0  0  0  0
   61.5854   33.7351   47.0667 H   0  0  0  0  0  0  0  0  0  0  0  0
   63.2680   33.7960   48.4090 C   0  0  0  0  0  0  0  0  0  0  0  0
   63.6578   34.7321   47.9827 H   0  0  0  0  0  0  0  0  0  0  0  0
   63.9370   33.1810   49.4510 C   0  0  0  0  0  0  0  0  0  0  0  0
   64.8412   33.6399   49.8775 H   0  0  0  0  0  0  0  0  0  0  0  0
   63.4580   31.9800   49.9540 C   0  0  0  0  0  0  0  0  0  0  0  0
   63.9963   31.4936   50.7808 H   0  0  0  0  0  0  0  0  0  0  0  0
   62.3040   31.3680   49.4360 C   0  0  0  0  0  0  0  0  0  0  0  0
   62.0290   30.1560   49.9670 N   0  0  0  0  0  0  0  0  0  0  0  0
   61.1150   29.1900   49.7510 C   0  0  0  0  0  0  0  0  0  0  0  0
   61.2240   28.1420   50.4440 O   0  0  0  0  0  0  0  0  0  0  0  0
   58.9190   27.6940   45.2070 C   0  0  0  0  0  0  0  0  0  0  0  0
   59.9778   27.9334   45.3847 H   0  0  0  0  0  0  0  0  0  0  0  0
   58.8283   26.7821   44.5986 H   0  0  0  0  0  0  0  0  0  0  0  0
   58.2730   28.8350   44.4640 C   0  0  0  0  0  0  0  0  0  0  0  0
   58.5830   30.1640   44.7980 C   0  0  0  0  0  0  0  0  0  0  0  0
   59.3364   30.3725   45.5719 H   0  0  0  0  0  0  0  0  0  0  0  0
   57.9370   31.2250   44.1500 C   0  0  0  0  0  0  0  0  0  0  0  0
   58.1818   32.2637   44.4169 H   0  0  0  0  0  0  0  0  0  0  0  0
   56.9810   30.9630   43.1640 C   0  0  0  0  0  0  0  0  0  0  0  0
   56.4771   31.7961   42.6522 H   0  0  0  0  0  0  0  0  0  0  0  0
   56.6650   29.6440   42.8280 C   0  0  0  0  0  0  0  0  0  0  0  0
   55.9141   29.4407   42.0503 H   0  0  0  0  0  0  0  0  0  0  0  0
   57.3010   28.5820   43.4780 C   0  0  0  0  0  0  0  0  0  0  0  0
   57.0409   27.5453   43.2179 H   0  0  0  0  0  0  0  0  0  0  0  0
   56.2860   23.8230   44.3310 C   0  0  0  0  0  0  0  0  0  0  0  0
   57.1230   24.7150   44.0220 O   0  0  0  0  0  0  0  0  0  0  0  0
   55.8870   22.8640   43.3930 O   0  0  0  0  0  0  0  0  0  0  0  0
   56.6840   21.7300   43.0480 C   0  0  0  0  0  0  0  0  0  0  0  0
   56.9609   21.7929   41.9853 H   0  0  0  0  0  0  0  0  0  0  0  0
   56.1006   20.8167   43.2364 H   0  0  0  0  0  0  0  0  0  0  0  0
   57.9530   21.6860   43.8950 C   0  0  0  0  0  0  0  0  0  0  0  0
   57.6827   21.6954   44.9612 H   0  0  0  0  0  0  0  0  0  0  0  0
   58.5143   20.7679   43.6671 H   0  0  0  0  0  0  0  0  0  0  0  0
   58.5766   22.5631   43.6671 H   0  0  0  0  0  0  0  0  0  0  0  0
   56.9150   22.3420   49.0580 C   0  0  0  0  0  0  0  0  0  0  0  0
   58.0113   22.3835   48.9786 H   0  0  0  0  0  0  0  0  0  0  0  0
   56.3200   21.8120   50.2080 C   0  0  0  0  0  0  0  0  0  0  0  0
   56.9495   21.4446   51.0318 H   0  0  0  0  0  0  0  0  0  0  0  0
  1  2  1  0
  2  3  1  0
  3  4  2  0
  4  5  1  0
  4  6  1  0
  6  7  1  0
  6  8  2  0
  8  9  1  0
  9 10  1  0
  9 11  1  0
  9 12  1  0
 12 13  1  6
 12 14  1  0
 14 15  1  0
 15 16  2  0
 15 17  1  0
 17 18  1  0
 18 19  1  1
 18 20  1  0
 20 21  2  0
 20 22  1  0
 22 23  2  0
 23 24  1  0
 24 25  1  0
 25 26  1  0
 26 27  2  0
 27 28  1  0
 27 29  1  0
 29 30  1  0
 29 31  2  0
 31 32  1  0
 31 33  1  0
 33 34  1  0
 33 35  2  0
 35 36  1  0
 25 37  2  0
 37 38  1  0
 38 39  1  0
 38 40  2  0
 40 41  1  0
 40 42  1  0
 42 43  1  0
 42 44  2  0
 44 45  1  0
 44 46  1  0
 46 47  2  0
 47 48  1  0
 48 49  2  0
 18 50  1  0
 50 51  1  0
 50 52  1  0
 50 53  1  0
 53 54  2  0
 54 55  1  0
 54 56  1  0
 56 57  1  0
 56 58  2  0
 58 59  1  0
 58 60  1  0
 60 61  1  0
 60 62  2  0
 62 63  1  0
 12 64  1  0
 64 65  2  0
 64 66  1  0
 66 67  1  0
 67 68  1  0
 67 69  1  0
 67 70  1  0
 70 71  1  0
 70 72  1  0
 70 73  1  0
  8 74  1  0
 74 75  1  0
 74 76  2  0
 76 77  1  0
 76  3  1  0
 48 23  1  0
 62 53  1  0
 35 26  1  0
 46 37  1  0
M  CHG  3  14  -1  17  -1  24  -1
M  END
>  <UniqueID>  (1) 
1

>  <SMILES>  (1) 
CCOC(=O)[C@@H](Cc1ccc(O)cc1)[N-]C(=O)[N-][C@H](Cc1ccccc1)C(=O)/N=c1\[n-]c(-c2ccccc2)c2ccccc2nc1=O

>  <Energy>  (1) 
105.75961912994065

>  <Genealogy>  (1) 
CCOC(=O)C(Cc1ccc(O)cc1)[N-]C(=O)[N-]C(Cc1ccccc1)C(=O)N=c1[n-]c(-c2ccccc2)c2ccccc2nc1=O (protonated)
CCOC(=O)[C@@H](Cc1ccc(O)cc1)[N-]C(=O)[N-][C@H](Cc1ccccc1)C(=O)N=c1[n-]c(-c2ccccc2)c2ccccc2nc1=O (chirality)
CCOC(=O)[C@@H](Cc1ccc(O)cc1)[N-]C(=O)[N-][C@H](Cc1ccccc1)C(=O)/N=c1\[n-]c(-c2ccccc2)c2ccccc2nc1=O (cis-trans isomerization)
CCOC(=O)[C@@H](Cc1ccc(O)cc1)[N-]C(=O)[N-][C@H](Cc1ccccc1)C(=O)/N=c1\[n-]c(-c2ccccc2)c2ccccc2nc1=O (3D coordinates assigned)
CCOC(=O)[C@@H](Cc1ccc(O)cc1)[N-]C(=O)[N-][C@H](Cc1ccccc1)C(=O)/N=c1\[n-]c(-c2ccccc2)c2ccccc2nc1=O (optimized conformer: 105.75961912994065 kcal/mol)

>  <smiles>  (1) 
CCOC(=O)C(Cc1ccc(O)cc1)NC(=O)NC(Cc1ccccc1)C(=O)N=c1[nH]c(-c2ccccc2)c2ccccc2nc1=O

>  <score_type>  (1) 
oracle

>  <origin>  (1) 
adg

>  <m_score__min__energy>  (1) 
-15.1

>  <m_primary>  (1) 
energy

$$$$
1:0
     RDKit          3D

 40 42  0  0  0  0  0  0  0  0999 V2000
   56.9730   28.5190   45.2460 C   0  0  0  0  0  0  0  0  0  0  0  0
   56.4160   29.8280   45.1710 O   0  0  0  0  0  0  0  0  0  0  0  0
   57.0660   30.9350   44.6080 C   0  0  0  0  0  0  0  0  0  0  0  0
   57.4150   30.8810   43.2540 C   0  0  0  0  0  0  0  0  0  0  0  0
   58.0760   31.9510   42.6480 C   0  0  0  0  0  0  0  0  0  0  0  0
   58.3830   33.0950   43.3880 C   0  0  0  0  0  0  0  0  0  0  0  0
   58.0220   33.1810   44.7440 C   0  0  0  0  0  0  0  0  0  0  0  0
   58.3910   34.3960   45.5660 C   0  0  2  0  0  0  0  0  0  0  0  0
   59.2380   35.2530   44.8450 O   0  0  0  0  0  0  0  0  0  0  0  0
   59.0830   33.9630   46.8250 C   0  0  0  0  0  0  0  0  0  0  0  0
   60.3930   34.1840   47.0640 N   0  0  0  0  0  0  0  0  0  0  0  0
   60.6080   33.6230   48.2730 C   0  0  0  0  0  0  0  0  0  0  0  0
   61.9300   33.5750   48.9530 C   0  0  0  0  0  0  0  0  0  0  0  0
   61.9880   33.7970   50.3420 C   0  0  0  0  0  0  0  0  0  0  0  0
   63.2030   33.7280   51.0280 C   0  0  0  0  0  0  0  0  0  0  0  0
   64.3790   33.4330   50.3440 C   0  0  0  0  0  0  0  0  0  0  0  0
   64.3460   33.2140   48.9690 C   0  0  0  0  0  0  0  0  0  0  0  0
   63.1370   33.2930   48.2540 C   0  0  0  0  0  0  0  0  0  0  0  0
   63.1710   33.0790   46.7630 C   0  0  0  0  0  0  0  0  0  0  0  0
   59.4270   33.0650   48.7320 C   0  0  0  0  0  0  0  0  0  0  0  0
   58.4740   33.2830   47.8150 N   0  0  0  0  0  0  0  0  0  0  0  0
   57.3800   32.0890   45.3540 C   0  0  0  0  0  0  0  0  0  0  0  0
   57.0950   28.2323   46.3010 H   0  0  0  0  0  0  0  0  0  0  0  0
   56.3006   27.8053   44.7475 H   0  0  0  0  0  0  0  0  0  0  0  0
   57.9535   28.5086   44.7475 H   0  0  0  0  0  0  0  0  0  0  0  0
   57.1664   29.9878   42.6620 H   0  0  0  0  0  0  0  0  0  0  0  0
   58.3555   31.8929   41.5857 H   0  0  0  0  0  0  0  0  0  0  0  0
   58.9097   33.9327   42.9076 H   0  0  0  0  0  0  0  0  0  0  0  0
   57.4662   34.9387   45.8115 H   0  0  0  0  0  0  0  0  0  0  0  0
   60.1250   35.2180   45.2910 H   0  0  0  0  0  0  0  0  0  0  0  0
   61.0650   34.0277   50.8941 H   0  0  0  0  0  0  0  0  0  0  0  0
   63.2305   33.9075   52.1129 H   0  0  0  0  0  0  0  0  0  0  0  0
   65.3328   33.3730   50.8886 H   0  0  0  0  0  0  0  0  0  0  0  0
   65.2777   32.9761   48.4349 H   0  0  0  0  0  0  0  0  0  0  0  0
   63.3403   32.0133   46.5493 H   0  0  0  0  0  0  0  0  0  0  0  0
   62.2117   33.3928   46.3256 H   0  0  0  0  0  0  0  0  0  0  0  0
   63.9858   33.6746   46.3256 H   0  0  0  0  0  0  0  0  0  0  0  0
   59.2936   32.5337   49.6859 H   0  0  0  0  0  0  0  0  0  0  0  0
   57.4740   32.9840   47.8640 H   0  0  0  0  0  0  0  0  0  0  0  0
   57.1207   32.1356   46.4220 H   0  0  0  0  0  0  0  0  0  0  0  0
  1  2  1  0
  2  3  1  0
  3  4  2  0
  4  5  1  0
  5  6  2  0
  6  7  1  0
  7  8  1  0
  8  9  1  0
  8 10  1  0
 10 11  2  0
 11 12  1  0
 12 13  1  0
 13 14  2  0
 14 15  1  0
 15 16  2  0
 16 17  1  0
 17 18  2  0
 18 19  1  0
 12 20  2  0
 20 21  1  0
  7 22  2  0
 22  3  1  0
 21 10  1  0
 18 13  1  0
  1 23  1  0
  1 24  1  0
  1 25  1  0
  4 26  1  0
  5 27  1  0
  6 28  1  0
  8 29  1  1
  9 30  1  0
 14 31  1  0
 15 32  1  0
 16 33  1  0
 17 34  1  0
 19 35  1  0
 19 36  1  0
 19 37  1  0
 20 38  1  0
 21 39  1  0
 22 40  1  0
M  END
>  <UniqueID>  (2) 
2

>  <SMILES>  (2) 
COc1cccc([C@H](O)c2nc(-c3ccccc3C)c[nH]2)c1

>  <Energy>  (2) 
74.03401188876516

>  <Genealogy>  (2) 
COc1cccc([C@H](O)c2nc(-c3ccccc3C)c[nH]2)c1 (chirality)
COc1cccc([C@H](O)c2nc(-c3ccccc3C)c[nH]2)c1 (3D coordinates assigned)
COc1cccc([C@H](O)c2nc(-c3ccccc3C)c[nH]2)c1 (optimized conformer: 74.03401188876516 kcal/mol)

>  <smiles>  (2) 
COc1cccc(C(O)c2nc(-c3ccccc3C)c[nH]2)c1

>  <score_type>  (2) 
oracle

>  <origin>  (2) 
adg

>  <m_score__min__energy>  (2) 
-8.3399999999999999

>  <m_primary>  (2) 
energy

$$$$
2:0
     RDKit          3D

 40 42  0  0  0  0  0  0  0  0999 V2000
   58.2050   27.7250   45.9220 O   0  0  0  0  0  0  0  0  0  0  0  0
   56.9900   27.4660   45.7090 C   0  0  0  0  0  0  0  0  0  0  0  0
   56.4540   26.1190   46.0950 C   0  0  0  0  0  0  0  0  0  0  0  0
   54.9980   26.0720   45.9500 N   0  0  0  0  0  0  0  0  0  0  0  0
   54.4290   24.4460   45.6940 S   0  0  0  0  0  0  0  0  0  0  0  0
   54.2520   23.7350   47.0070 O   0  0  0  0  0  0  0  0  0  0  0  0
   53.1000   24.4940   44.9930 O   0  0  0  0  0  0  0  0  0  0  0  0
   55.5620   23.5590   44.6870 C   0  0  0  0  0  0  0  0  0  0  0  0
   55.4440   23.3410   43.3230 C   0  0  0  0  0  0  0  0  0  0  0  0
   56.4840   22.5610   42.8030 C   0  0  0  0  0  0  0  0  0  0  0  0
   57.4180   22.1730   43.7550 C   0  0  0  0  0  0  0  0  0  0  0  0
   56.9480   22.7940   45.2470 S   0  0  0  0  0  0  0  0  0  0  0  0
   56.1320   28.4180   45.0590 N   0  0  0  0  0  0  0  0  0  0  0  0
   56.5940   29.6130   44.4050 C   0  0  0  0  0  0  0  0  0  0  0  0
   56.4860   29.7860   43.0150 C   0  0  0  0  0  0  0  0  0  0  0  0
   56.9310   30.9650   42.4150 C   0  0  0  0  0  0  0  0  0  0  0  0
   57.5060   31.9740   43.1890 C   0  0  0  0  0  0  0  0  0  0  0  0
   57.6600   31.8090   44.5770 C   0  0  0  0  0  0  0  0  0  0  0  0
   58.2880   32.8750   45.4000 C   0  0  0  0  0  0  0  0  0  0  0  0
   58.2860   32.7880   46.8060 C   0  0  0  0  0  0  0  0  0  0  0  0
   58.8800   33.7920   47.5800 C   0  0  0  0  0  0  0  0  0  0  0  0
   59.4800   34.8910   46.9610 C   0  0  0  0  0  0  0  0  0  0  0  0
   59.4860   34.9900   45.5680 C   0  0  0  0  0  0  0  0  0  0  0  0
   58.8930   33.9910   44.7900 C   0  0  0  0  0  0  0  0  0  0  0  0
   57.2090   30.6160   45.1720 C   0  0  0  0  0  0  0  0  0  0  0  0
   56.9049   25.3533   45.4467 H   0  0  0  0  0  0  0  0  0  0  0  0
   56.7073   25.9300   47.1486 H   0  0  0  0  0  0  0  0  0  0  0  0
   54.6196   23.7391   42.7131 H   0  0  0  0  0  0  0  0  0  0  0  0
   56.5547   22.2820   41.7413 H   0  0  0  0  0  0  0  0  0  0  0  0
   58.3135   21.5629   43.5658 H   0  0  0  0  0  0  0  0  0  0  0  0
   55.1450   28.1220   44.8780 H   0  0  0  0  0  0  0  0  0  0  0  0
   56.0486   28.9884   42.3965 H   0  0  0  0  0  0  0  0  0  0  0  0
   56.8281   31.0994   41.3281 H   0  0  0  0  0  0  0  0  0  0  0  0
   57.8413   32.9055   42.7096 H   0  0  0  0  0  0  0  0  0  0  0  0
   57.8144   31.9252   47.2992 H   0  0  0  0  0  0  0  0  0  0  0  0
   58.8742   33.7153   48.6773 H   0  0  0  0  0  0  0  0  0  0  0  0
   59.9476   35.6783   47.5705 H   0  0  0  0  0  0  0  0  0  0  0  0
   59.9585   35.8561   45.0816 H   0  0  0  0  0  0  0  0  0  0  0  0
   58.8990   34.0773   43.6934 H   0  0  0  0  0  0  0  0  0  0  0  0
   57.3401   30.4669   46.2539 H   0  0  0  0  0  0  0  0  0  0  0  0
  1  2  2  0
  2  3  1  0
  3  4  1  0
  4  5  1  0
  5  6  2  0
  5  7  2  0
  5  8  1  0
  8  9  2  0
  9 10  1  0
 10 11  2  0
 11 12  1  0
  2 13  1  0
 13 14  1  0
 14 15  2  0
 15 16  1  0
 16 17  2  0
 17 18  1  0
 18 19  1  0
 19 20  2  0
 20 21  1  0
 21 22  2  0
 22 23  1  0
 23 24  2  0
 18 25  2  0
 12  8  1  0
 25 14  1  0
 24 19  1  0
  3 26  1  0
  3 27  1  0
  9 28  1  0
 10 29  1  0
 11 30  1  0
 13 31  1  0
 15 32  1  0
 16 33  1  0
 17 34  1  0
 20 35  1  0
 21 36  1  0
 22 37  1  0
 23 38  1  0
 24 39  1  0
 25 40  1  0
M  CHG  1   4  -1
M  END
>  <UniqueID>  (3) 
3

>  <SMILES>  (3) 
O=C(C[N-]S(=O)(=O)c1cccs1)Nc1cccc(-c2ccccc2)c1

>  <Energy>  (3) 
71.82763638003242

>  <Genealogy>  (3) 
O=C(C[N-]S(=O)(=O)c1cccs1)Nc1cccc(-c2ccccc2)c1 (protonated)
O=C(C[N-]S(=O)(=O)c1cccs1)Nc1cccc(-c2ccccc2)c1 (3D coordinates assigned)
O=C(C[N-]S(=O)(=O)c1cccs1)Nc1cccc(-c2ccccc2)c1 (optimized conformer: 71.82763638003242 kcal/mol)

>  <smiles>  (3) 
O=C(CNS(=O)(=O)c1cccs1)Nc1cccc(-c2ccccc2)c1

>  <score_type>  (3) 
oracle

>  <origin>  (3) 
adg

>  <m_score__min__energy>  (3) 
-11.99

>  <m_primary>  (3) 
energy

$$$$
3:0
     RDKit          3D

 43 45  0  0  0  0  0  0  0  0999 V2000
   56.9590   32.9700   45.3670 O   0  0  0  0  0  0  0  0  0  0  0  0
   57.9700   32.2260   45.4970 C   0  0  0  0  0  0  0  0  0  0  0  0
   59.2730   32.8170   45.6330 N   0  0  0  0  0  0  0  0  0  0  0  0
   59.4960   34.2580   45.5250 C   0  0  0  0  0  0  0  0  0  0  0  0
   59.3210   34.9440   46.8820 C   0  0  0  0  0  0  0  0  0  0  0  0
   58.5250   34.1610   47.7300 O   0  0  0  0  0  0  0  0  0  0  0  0
   57.7870   30.7550   45.5230 C   0  0  0  0  0  0  0  0  0  0  0  0
   58.4660   29.9500   46.4550 C   0  0  0  0  0  0  0  0  0  0  0  0
   58.2860   28.5650   46.4620 C   0  0  0  0  0  0  0  0  0  0  0  0
   57.4240   27.9530   45.5380 C   0  0  0  0  0  0  0  0  0  0  0  0
   57.2440   26.4810   45.5430 C   0  0  0  0  0  0  0  0  0  0  0  0
   58.3520   25.6480   45.3200 C   0  0  0  0  0  0  0  0  0  0  0  0
   58.2030   24.2610   45.3010 C   0  0  0  0  0  0  0  0  0  0  0  0
   56.9500   23.6880   45.5120 C   0  0  0  0  0  0  0  0  0  0  0  0
   55.8270   24.4960   45.7560 C   0  0  0  0  0  0  0  0  0  0  0  0
   54.5100   23.8610   45.9990 C   0  0  0  0  0  0  0  0  0  0  0  0
   53.4160   24.1380   45.1610 C   0  0  0  0  0  0  0  0  0  0  0  0
   52.1730   23.5430   45.4020 C   0  0  0  0  0  0  0  0  0  0  0  0
   52.0110   22.6720   46.4820 C   0  0  0  0  0  0  0  0  0  0  0  0
   53.0900   22.3960   47.3260 C   0  0  0  0  0  0  0  0  0  0  0  0
   54.3340   22.9900   47.0890 C   0  0  0  0  0  0  0  0  0  0  0  0
   55.9770   25.9000   45.7660 C   0  0  0  0  0  0  0  0  0  0  0  0
   54.8710   26.7140   45.9970 O   0  0  0  0  0  0  0  0  0  0  0  0
   56.7610   28.7510   44.5920 C   0  0  0  0  0  0  0  0  0  0  0  0
   56.9420   30.1370   44.5840 C   0  0  0  0  0  0  0  0  0  0  0  0
   60.1020   32.2150   45.8310 H   0  0  0  0  0  0  0  0  0  0  0  0
   60.5183   34.4374   45.1606 H   0  0  0  0  0  0  0  0  0  0  0  0
   58.7579   34.6750   44.8240 H   0  0  0  0  0  0  0  0  0  0  0  0
   60.3086   35.0886   47.3443 H   0  0  0  0  0  0  0  0  0  0  0  0
   58.8278   35.9152   46.7283 H   0  0  0  0  0  0  0  0  0  0  0  0
   57.7450   33.8600   47.1930 H   0  0  0  0  0  0  0  0  0  0  0  0
   59.1448   30.4152   47.1849 H   0  0  0  0  0  0  0  0  0  0  0  0
   58.8239   27.9487   47.1974 H   0  0  0  0  0  0  0  0  0  0  0  0
   59.3453   26.0924   45.1590 H   0  0  0  0  0  0  0  0  0  0  0  0
   59.0767   23.6179   45.1190 H   0  0  0  0  0  0  0  0  0  0  0  0
   56.8396   22.5938   45.4873 H   0  0  0  0  0  0  0  0  0  0  0  0
   53.5378   24.8261   44.3115 H   0  0  0  0  0  0  0  0  0  0  0  0
   51.3220   23.7614   44.7401 H   0  0  0  0  0  0  0  0  0  0  0  0
   51.0335   22.2031   46.6682 H   0  0  0  0  0  0  0  0  0  0  0  0
   52.9610   21.7113   48.1772 H   0  0  0  0  0  0  0  0  0  0  0  0
   55.1794   22.7746   47.7590 H   0  0  0  0  0  0  0  0  0  0  0  0
   56.0949   28.2825   43.8525 H   0  0  0  0  0  0  0  0  0  0  0  0
   56.4184   30.7503   43.8359 H   0  0  0  0  0  0  0  0  0  0  0  0
  1  2  2  0
  2  3  1  0
  3  4  1  0
  4  5  1  0
  5  6  1  0
  2  7  1  0
  7  8  2  0
  8  9  1  0
  9 10  2  0
 10 11  1  0
 11 12  2  0
 12 13  1  0
 13 14  2  0
 14 15  1  0
 15 16  1  0
 16 17  2  0
 17 18  1  0
 18 19  2  0
 19 20  1  0
 20 21  2  0
 15 22  2  0
 22 23  1  0
 10 24  1  0
 24 25  2  0
 25  7  1  0
 22 11  1  0
 21 16  1  0
  3 26  1  0
  4 27  1  0
  4 28  1  0
  5 29  1  0
  5 30  1  0
  6 31  1  0
  8 32  1  0
  9 33  1  0
 12 34  1  0
 13 35  1  0
 14 36  1  0
 17 37  1  0
 18 38  1  0
 19 39  1  0
 20 40  1  0
 21 41  1  0
 24 42  1  0
 25 43  1  0
M  CHG  1  23  -1
M  END
>  <UniqueID>  (4) 
4

>  <SMILES>  (4) 
O=C(NCCO)c1ccc(-c2cccc(-c3ccccc3)c2[O-])cc1

>  <Energy>  (4) 
57.55956706369087

>  <Genealogy>  (4) 
O=C(NCCO)c1ccc(-c2cccc(-c3ccccc3)c2[O-])cc1 (protonated)
O=C(NCCO)c1ccc(-c2cccc(-c3ccccc3)c2[O-])cc1 (3D coordinates assigned)
O=C(NCCO)c1ccc(-c2cccc(-c3ccccc3)c2[O-])cc1 (optimized conformer: 57.55956706369087 kcal/mol)

>  <smiles>  (4) 
O=C(NCCO)c1ccc(-c2cccc(-c3ccccc3)c2O)cc1

>  <score_type>  (4) 
oracle

>  <origin>  (4) 
adg

>  <m_score__min__energy>  (4) 
-10.550000000000001

>  <m_primary>  (4) 
energy

$$$$
5:0
     RDKit          3D

 36 38  0  0  0  0  0  0  0  0999 V2000
   57.6237   34.2201   43.8449 H   0  0  0  0  0  0  0  0  0  0  0  0
   58.2230   33.7700   44.6500 C   0  0  0  0  0  0  0  0  0  0  0  0
   58.5010   32.4410   44.6290 N   0  0  0  0  0  0  0  0  0  0  0  0
   59.2360   31.8590   45.6160 C   0  0  0  0  0  0  0  0  0  0  0  0
   59.5290   30.5910   45.5850 N   0  0  0  0  0  0  0  0  0  0  0  0
   58.6150   29.4890   45.7180 C   0  0  0  0  0  0  0  0  0  0  0  0
   57.3740   29.4640   45.0550 C   0  0  0  0  0  0  0  0  0  0  0  0
   57.0923   30.2928   44.3889 H   0  0  0  0  0  0  0  0  0  0  0  0
   56.4980   28.3910   45.2390 C   0  0  0  0  0  0  0  0  0  0  0  0
   55.5368   28.3742   44.7044 H   0  0  0  0  0  0  0  0  0  0  0  0
   56.8340   27.3330   46.1010 C   0  0  0  0  0  0  0  0  0  0  0  0
   55.9040   26.1990   46.2920 C   0  0  0  0  0  0  0  0  0  0  0  0
   56.3070   25.1190   46.8020 O   0  0  0  0  0  0  0  0  0  0  0  0
   54.5720   26.3080   45.9110 O   0  0  0  0  0  0  0  0  0  0  0  0
   58.0620   27.3790   46.7870 C   0  0  0  0  0  0  0  0  0  0  0  0
   58.3354   26.5636   47.4728 H   0  0  0  0  0  0  0  0  0  0  0  0
   58.9360   28.4530   46.6030 C   0  0  0  0  0  0  0  0  0  0  0  0
   59.8849   28.4849   47.1585 H   0  0  0  0  0  0  0  0  0  0  0  0
   59.7140   32.6220   46.6340 N   0  0  0  0  0  0  0  0  0  0  0  0
   59.4540   33.9560   46.7030 C   0  0  0  0  0  0  0  0  0  0  0  0
   60.0320   34.7660   47.8260 C   0  0  0  0  0  0  0  0  0  0  0  0
   60.2397   35.7856   47.4694 H   0  0  0  0  0  0  0  0  0  0  0  0
   59.3094   34.7985   48.6547 H   0  0  0  0  0  0  0  0  0  0  0  0
   61.3110   34.1390   48.3130 C   0  0  0  0  0  0  0  0  0  0  0  0
   62.3380   33.8460   47.4010 C   0  0  0  0  0  0  0  0  0  0  0  0
   62.1927   34.0505   46.3300 H   0  0  0  0  0  0  0  0  0  0  0  0
   63.5440   33.2960   47.8460 C   0  0  0  0  0  0  0  0  0  0  0  0
   64.3408   33.0622   47.1245 H   0  0  0  0  0  0  0  0  0  0  0  0
   63.7380   33.0430   49.2070 C   0  0  0  0  0  0  0  0  0  0  0  0
   65.2520   32.3550   49.7640 Cl  0  0  0  0  0  0  0  0  0  0  0  0
   62.7260   33.3430   50.1250 C   0  0  0  0  0  0  0  0  0  0  0  0
   62.8804   33.1452   51.1960 H   0  0  0  0  0  0  0  0  0  0  0  0
   61.5180   33.8940   49.6840 C   0  0  0  0  0  0  0  0  0  0  0  0
   60.5540   34.1870   50.5940 F   0  0  0  0  0  0  0  0  0  0  0  0
   58.6980   34.5630   45.6930 C   0  0  0  0  0  0  0  0  0  0  0  0
   58.4837   35.6415   45.7220 H   0  0  0  0  0  0  0  0  0  0  0  0
  1  2  1  0
  2  3  1  0
  3  4  1  0
  4  5  2  0
  5  6  1  0
  6  7  2  0
  7  8  1  0
  7  9  1  0
  9 10  1  0
  9 11  2  0
 11 12  1  0
 12 13  2  0
 12 14  1  0
 11 15  1  0
 15 16  1  0
 15 17  2  0
 17 18  1  0
  4 19  1  0
 19 20  2  0
 20 21  1  0
 21 22  1  0
 21 23  1  0
 21 24  1  0
 24 25  2  0
 25 26  1  0
 25 27  1  0
 27 28  1  0
 27 29  2  0
 29 30  1  0
 29 31  1  0
 31 32  1  0
 31 33  2  0
 33 34  1  0
 20 35  1  0
 35 36  1  0
 35  2  2  0
 17  6  1  0
 33 24  1  0
M  CHG  2   3  -1  14  -1
M  END
>  <UniqueID>  (5) 
5

>  <SMILES>  (5) 
O=C([O-])c1ccc(/N=c2/nc(Cc3ccc(Cl)cc3F)cc[n-]2)cc1

>  <Energy>  (5) 
45.64132057736457

>  <Genealogy>  (5) 
O=C([O-])c1ccc(N=c2nc(Cc3ccc(Cl)cc3F)cc[n-]2)cc1 (protonated)
O=C([O-])c1ccc(/N=c2/nc(Cc3ccc(Cl)cc3F)cc[n-]2)cc1 (cis-trans isomerization)
O=C([O-])c1ccc(/N=c2/nc(Cc3ccc(Cl)cc3F)cc[n-]2)cc1 (3D coordinates assigned)
O=C([O-])c1ccc(/N=c2/nc(Cc3ccc(Cl)cc3F)cc[n-]2)cc1 (optimized conformer: 45.64132057736457 kcal/mol)

>  <smiles>  (5) 
O=C(O)c1ccc(N=c2nc(Cc3ccc(Cl)cc3F)cc[nH]2)cc1

>  <score_type>  (5) 
oracle

>  <origin>  (5) 
adg

>  <m_score__min__energy>  (5) 
-11.529999999999999

>  <m_primary>  (5) 
energy

$$$$
6:0
     RDKit          3D

 28 31  0  0  0  0  0  0  0  0999 V2000
   56.5970   31.2290   43.5510 O   0  0  0  0  0  0  0  0  0  0  0  0
   57.3650   31.4450   44.5240 C   0  0  0  0  0  0  0  0  0  0  0  0
   57.6820   30.5430   45.6390 C   0  0  0  0  0  0  0  0  0  0  0  0
   57.2210   29.1530   45.7950 C   0  0  0  0  0  0  0  0  0  0  0  0
   56.0490   28.6100   45.2840 C   0  0  0  0  0  0  0  0  0  0  0  0
   55.1180   29.3090   44.5260 O   0  0  0  0  0  0  0  0  0  0  0  0
   55.9080   27.3000   45.5930 N   0  0  0  0  0  0  0  0  0  0  0  0
   57.0050   27.0170   46.3220 C   0  0  0  0  0  0  0  0  0  0  0  0
   57.3110   25.7900   46.9060 C   0  0  0  0  0  0  0  0  0  0  0  0
   58.4840   25.6980   47.6770 C   0  0  0  0  0  0  0  0  0  0  0  0
   59.3100   26.8280   47.8590 C   0  0  0  0  0  0  0  0  0  0  0  0
   60.7520   26.7050   48.8500 Cl  0  0  0  0  0  0  0  0  0  0  0  0
   58.9760   28.0570   47.2600 C   0  0  0  0  0  0  0  0  0  0  0  0
   57.8220   28.1110   46.4740 C   0  0  0  0  0  0  0  0  0  0  0  0
   58.3960   31.1480   46.5440 N   0  0  0  0  0  0  0  0  0  0  0  0
   58.6190   32.4760   46.0660 C   0  0  0  0  0  0  0  0  0  0  0  0
   59.3350   33.4870   46.7050 C   0  0  0  0  0  0  0  0  0  0  0  0
   59.4220   34.7400   46.0690 C   0  0  0  0  0  0  0  0  0  0  0  0
   58.7950   34.9550   44.8210 C   0  0  0  0  0  0  0  0  0  0  0  0
   58.0760   33.9190   44.1990 C   0  0  0  0  0  0  0  0  0  0  0  0
   58.0160   32.6910   44.8520 C   0  0  0  0  0  0  0  0  0  0  0  0
   56.6544   24.9182   46.7683 H   0  0  0  0  0  0  0  0  0  0  0  0
   58.7593   24.7394   48.1410 H   0  0  0  0  0  0  0  0  0  0  0  0
   59.6043   28.9480   47.4062 H   0  0  0  0  0  0  0  0  0  0  0  0
   59.8178   33.3110   47.6776 H   0  0  0  0  0  0  0  0  0  0  0  0
   59.9820   35.5574   46.5469 H   0  0  0  0  0  0  0  0  0  0  0  0
   58.8698   35.9382   44.3334 H   0  0  0  0  0  0  0  0  0  0  0  0
   57.5783   34.0735   43.2303 H   0  0  0  0  0  0  0  0  0  0  0  0
  1  2  2  0
  2  3  1  0
  3  4  1  0
  4  5  2  0
  5  6  1  0
  5  7  1  0
  7  8  1  0
  8  9  2  0
  9 10  1  0
 10 11  2  0
 11 12  1  0
 11 13  1  0
 13 14  2  0
  3 15  2  0
 15 16  1  0
 16 17  2  0
 17 18  1  0
 18 19  2  0
 19 20  1  0
 20 21  2  0
 21  2  1  0
 14  4  1  0
 21 16  1  0
 14  8  1  0
  9 22  1  0
 10 23  1  0
 13 24  1  0
 17 25  1  0
 18 26  1  0
 19 27  1  0
 20 28  1  0
M  CHG  2   6  -1   7  -1
M  END
>  <UniqueID>  (6) 
6

>  <SMILES>  (6) 
O=C1C(c2c([O-])[n-]c3ccc(Cl)cc23)=Nc2ccccc21

>  <Energy>  (6) 
102.07757035368309

>  <Genealogy>  (6) 
O=C1C(c2c([O-])[n-]c3ccc(Cl)cc23)=Nc2ccccc21 (protonated)
O=C1C(c2c([O-])[n-]c3ccc(Cl)cc23)=Nc2ccccc21 (3D coordinates assigned)
O=C1C(c2c([O-])[n-]c3ccc(Cl)cc23)=Nc2ccccc21 (nonaromatic ring conformer: 102.07757035368309 kcal/mol)

>  <smiles>  (6) 
O=C1C(c2c(O)[nH]c3ccc(Cl)cc23)=Nc2ccccc21

>  <score_type>  (6) 
oracle

>  <origin>  (6) 
adg

>  <m_score__min__energy>  (6) 
-11.93

>  <m_primary>  (6) 
energy

$$$$
7:0
     RDKit          3D

 41 43  0  0  0  0  0  0  0  0999 V2000
   61.4370   30.5320   48.0700 O   0  0  0  0  0  0  0  0  0  0  0  0
   60.3470   30.5250   47.4400 C   0  0  0  0  0  0  0  0  0  0  0  0
   60.1010   29.5460   46.4210 N   0  0  0  0  0  0  0  0  0  0  0  0
   58.9610   28.6820   46.3220 C   0  0  0  0  0  0  0  0  0  0  0  0
   59.0670   27.3740   46.8010 C   0  0  0  0  0  0  0  0  0  0  0  0
   57.9870   26.4940   46.7060 C   0  0  0  0  0  0  0  0  0  0  0  0
   56.7780   26.9000   46.1130 C   0  0  0  0  0  0  0  0  0  0  0  0
   55.6490   25.9380   46.0310 C   0  0  0  0  0  0  0  0  0  0  0  0
   54.4590   26.3410   45.9470 O   0  0  0  0  0  0  0  0  0  0  0  0
   55.8900   24.5690   46.0470 O   0  0  0  0  0  0  0  0  0  0  0  0
   56.6800   28.2140   45.6040 C   0  0  0  0  0  0  0  0  0  0  0  0
   55.5170   28.6630   44.9890 O   0  0  0  0  0  0  0  0  0  0  0  0
   57.7670   29.0920   45.7050 C   0  0  0  0  0  0  0  0  0  0  0  0
   59.4040   31.5750   47.6790 N   0  0  0  0  0  0  0  0  0  0  0  0
   58.9870   32.5720   46.7330 C   0  0  0  0  0  0  0  0  0  0  0  0
   58.2440   32.2200   45.5910 C   0  0  0  0  0  0  0  0  0  0  0  0
   57.8160   33.2030   44.6940 C   0  0  0  0  0  0  0  0  0  0  0  0
   58.1080   34.5450   44.9350 C   0  0  0  0  0  0  0  0  0  0  0  0
   58.8220   34.9110   46.0770 C   0  0  0  0  0  0  0  0  0  0  0  0
   59.2680   33.9350   46.9850 C   0  0  0  0  0  0  0  0  0  0  0  0
   60.0060   34.3660   48.2300 C   0  0  0  0  0  0  0  0  0  0  0  0
   61.4510   33.9470   48.1590 C   0  0  0  0  0  0  0  0  0  0  0  0
   62.0990   33.8280   46.9170 C   0  0  0  0  0  0  0  0  0  0  0  0
   63.4320   33.4120   46.8570 C   0  0  0  0  0  0  0  0  0  0  0  0
   64.1260   33.1090   48.0310 C   0  0  0  0  0  0  0  0  0  0  0  0
   63.4880   33.2210   49.2690 C   0  0  0  0  0  0  0  0  0  0  0  0
   62.1540   33.6360   49.3350 C   0  0  0  0  0  0  0  0  0  0  0  0
   60.0089   27.0345   47.2567 H   0  0  0  0  0  0  0  0  0  0  0  0
   58.0829   25.4713   47.0995 H   0  0  0  0  0  0  0  0  0  0  0  0
   57.6851   30.1106   45.2980 H   0  0  0  0  0  0  0  0  0  0  0  0
   57.9984   31.1644   45.4029 H   0  0  0  0  0  0  0  0  0  0  0  0
   57.2479   32.9173   43.7964 H   0  0  0  0  0  0  0  0  0  0  0  0
   57.7753   35.3159   44.2244 H   0  0  0  0  0  0  0  0  0  0  0  0
   59.0376   35.9726   46.2682 H   0  0  0  0  0  0  0  0  0  0  0  0
   59.9508   35.4607   48.3227 H   0  0  0  0  0  0  0  0  0  0  0  0
   59.5395   33.8871   49.1035 H   0  0  0  0  0  0  0  0  0  0  0  0
   61.5554   34.0629   45.9900 H   0  0  0  0  0  0  0  0  0  0  0  0
   63.9358   33.3230   45.8832 H   0  0  0  0  0  0  0  0  0  0  0  0
   65.1751   32.7821   47.9807 H   0  0  0  0  0  0  0  0  0  0  0  0
   64.0355   32.9825   50.1928 H   0  0  0  0  0  0  0  0  0  0  0  0
   61.6535   33.7192   50.3110 H   0  0  0  0  0  0  0  0  0  0  0  0
  1  2  2  0
  2  3  1  0
  3  4  1  0
  4  5  2  0
  5  6  1  0
  6  7  2  0
  7  8  1  0
  8  9  2  0
  8 10  1  0
  7 11  1  0
 11 12  1  0
 11 13  2  0
  2 14  1  0
 14 15  1  0
 15 16  2  0
 16 17  1  0
 17 18  2  0
 18 19  1  0
 19 20  2  0
 20 21  1  0
 21 22  1  0
 22 23  2  0
 23 24  1  0
 24 25  2  0
 25 26  1  0
 26 27  2  0
 13  4  1  0
 20 15  1  0
 27 22  1  0
  5 28  1  0
  6 29  1  0
 13 30  1  0
 16 31  1  0
 17 32  1  0
 18 33  1  0
 19 34  1  0
 21 35  1  0
 21 36  1  0
 23 37  1  0
 24 38  1  0
 25 39  1  0
 26 40  1  0
 27 41  1  0
M  CHG  4   3  -1  10  -1  12  -1  14  -1
M  END
>  <UniqueID>  (7) 
7

>  <SMILES>  (7) 
O=C([N-]c1ccc(C(=O)[O-])c([O-])c1)[N-]c1ccccc1Cc1ccccc1

>  <Energy>  (7) 
52.41623526974994

>  <Genealogy>  (7) 
O=C([N-]c1ccc(C(=O)[O-])c([O-])c1)[N-]c1ccccc1Cc1ccccc1 (protonated)
O=C([N-]c1ccc(C(=O)[O-])c([O-])c1)[N-]c1ccccc1Cc1ccccc1 (3D coordinates assigned)
O=C([N-]c1ccc(C(=O)[O-])c([O-])c1)[N-]c1ccccc1Cc1ccccc1 (optimized conformer: 52.41623526974994 kcal/mol)

>  <smiles>  (7) 
O=C(Nc1ccc(C(=O)O)c(O)c1)Nc1ccccc1Cc1ccccc1

>  <score_type>  (7) 
oracle

>  <origin>  (7) 
adg

>  <m_score__min__energy>  (7) 
-16.629999999999999

>  <m_primary>  (7) 
energy

$$$$
8:0
     RDKit          3D

 35 37  0  0  0  0  0  0  0  0999 V2000
   60.4288   34.9572   47.8246 H   0  0  0  0  0  0  0  0  0  0  0  0
   60.0440   33.9470   47.6210 C   0  0  0  0  0  0  0  0  0  0  0  0
   58.6670   33.7290   47.5290 C   0  0  0  0  0  0  0  0  0  0  0  0
   57.9681   34.5674   47.6654 H   0  0  0  0  0  0  0  0  0  0  0  0
   58.1760   32.4480   47.2640 C   0  0  0  0  0  0  0  0  0  0  0  0
   57.0907   32.2796   47.2021 H   0  0  0  0  0  0  0  0  0  0  0  0
   59.0630   31.3730   47.0760 C   0  0  0  0  0  0  0  0  0  0  0  0
   58.5560   30.0100   46.8080 C   0  0  0  0  0  0  0  0  0  0  0  0
   58.6110   28.7510   47.9300 S   0  0  0  0  0  0  0  0  0  0  0  0
   57.7570   27.7020   46.9430 C   0  0  0  0  0  0  0  0  0  0  0  0
   57.4530   26.4860   47.2750 N   0  0  0  0  0  0  0  0  0  0  0  0
   56.3140   25.5180   46.3970 S   0  0  0  0  0  0  0  0  0  0  0  0
   55.8430   24.3980   47.2790 O   0  0  0  0  0  0  0  0  0  0  0  0
   55.1320   26.3590   45.9990 O   0  0  0  0  0  0  0  0  0  0  0  0
   57.0880   24.8300   44.9500 C   0  0  0  0  0  0  0  0  0  0  0  0
   57.8778   24.1279   45.2554 H   0  0  0  0  0  0  0  0  0  0  0  0
   56.3356   24.2971   44.3500 H   0  0  0  0  0  0  0  0  0  0  0  0
   57.5290   25.6397   44.3500 H   0  0  0  0  0  0  0  0  0  0  0  0
   57.4240   28.2660   45.7630 N   0  0  0  0  0  0  0  0  0  0  0  0
   57.8690   29.5500   45.6690 C   0  0  0  0  0  0  0  0  0  0  0  0
   57.6700   30.3210   44.4230 C   0  0  0  0  0  0  0  0  0  0  0  0
   56.7940   29.8370   43.4370 C   0  0  0  0  0  0  0  0  0  0  0  0
   56.2514   28.8946   43.6024 H   0  0  0  0  0  0  0  0  0  0  0  0
   56.6080   30.5470   42.2460 C   0  0  0  0  0  0  0  0  0  0  0  0
   55.9133   30.1668   41.4826 H   0  0  0  0  0  0  0  0  0  0  0  0
   57.3040   31.7390   42.0250 C   0  0  0  0  0  0  0  0  0  0  0  0
   57.0480   32.7070   40.3990 Br  0  0  0  0  0  0  0  0  0  0  0  0
   58.1940   32.2160   42.9910 C   0  0  0  0  0  0  0  0  0  0  0  0
   58.7470   33.1503   42.8142 H   0  0  0  0  0  0  0  0  0  0  0  0
   58.3830   31.5080   44.1820 C   0  0  0  0  0  0  0  0  0  0  0  0
   59.0933   31.8820   44.9341 H   0  0  0  0  0  0  0  0  0  0  0  0
   60.4450   31.5970   47.1890 C   0  0  0  0  0  0  0  0  0  0  0  0
   61.1469   30.7587   47.0684 H   0  0  0  0  0  0  0  0  0  0  0  0
   60.9330   32.8800   47.4540 C   0  0  0  0  0  0  0  0  0  0  0  0
   62.0169   33.0506   47.5312 H   0  0  0  0  0  0  0  0  0  0  0  0
  1  2  1  0
  2  3  2  0
  3  4  1  0
  3  5  1  0
  5  6  1  0
  5  7  2  0
  7  8  1  0
  8  9  1  0
  9 10  1  0
 10 11  2  0
 11 12  1  0
 12 13  2  0
 12 14  2  0
 12 15  1  0
 15 16  1  0
 15 17  1  0
 15 18  1  0
 10 19  1  0
 19 20  1  0
 20 21  1  0
 21 22  2  0
 22 23  1  0
 22 24  1  0
 24 25  1  0
 24 26  2  0
 26 27  1  0
 26 28  1  0
 28 29  1  0
 28 30  2  0
 30 31  1  0
  7 32  1  0
 32 33  1  0
 32 34  2  0
 34 35  1  0
 34  2  1  0
 20  8  2  0
 30 21  1  0
M  CHG  1  19  -1
M  END
>  <UniqueID>  (8) 
8

>  <SMILES>  (8) 
CS(=O)(=O)/N=c1\[n-]c(-c2ccc(Br)cc2)c(-c2ccccc2)s1

>  <Energy>  (8) 
73.99151457531924

>  <Genealogy>  (8) 
CS(=O)(=O)N=c1[n-]c(-c2ccc(Br)cc2)c(-c2ccccc2)s1 (protonated)
CS(=O)(=O)/N=c1\[n-]c(-c2ccc(Br)cc2)c(-c2ccccc2)s1 (cis-trans isomerization)
CS(=O)(=O)/N=c1\[n-]c(-c2ccc(Br)cc2)c(-c2ccccc2)s1 (3D coordinates assigned)
CS(=O)(=O)/N=c1\[n-]c(-c2ccc(Br)cc2)c(-c2ccccc2)s1 (optimized conformer: 73.99151457531924 kcal/mol)

>  <smiles>  (8) 
CS(=O)(=O)N=c1[nH]c(-c2ccc(Br)cc2)c(-c2ccccc2)s1

>  <score_type>  (8) 
oracle

>  <origin>  (8) 
adg

>  <m_score__min__energy>  (8) 
-9.9000000000000004

>  <m_primary>  (8) 
energy

$$$$
9:0
     RDKit          3D

 43 46  0  0  0  0  0  0  0  0999 V2000
   51.5572   31.9082   53.8090 H   0  0  0  0  0  0  0  0  0  0  0  0
   52.1590   31.2600   53.1550 C   0  0  0  0  0  0  0  0  0  0  0  0
   53.1870   30.6510   53.6770 N   0  0  0  0  0  0  0  0  0  0  0  0
   54.4850   30.4710   53.0890 C   0  0  0  0  0  0  0  0  0  0  0  0
   54.9920   31.3650   52.1290 C   0  0  0  0  0  0  0  0  0  0  0  0
   54.3800   32.2160   51.7955 H   0  0  0  0  0  0  0  0  0  0  0  0
   56.2710   31.1760   51.5970 C   0  0  0  0  0  0  0  0  0  0  0  0
   56.6490   31.8612   50.8239 H   0  0  0  0  0  0  0  0  0  0  0  0
   57.0760   30.1150   52.0450 C   0  0  0  0  0  0  0  0  0  0  0  0
   58.3570   29.8830   51.5200 O   0  0  0  0  0  0  0  0  0  0  0  0
   58.7900   30.2520   50.2360 C   0  0  0  0  0  0  0  0  0  0  0  0
   58.7940   29.3270   49.1800 C   0  0  0  0  0  0  0  0  0  0  0  0
   58.4690   28.2904   49.3527 H   0  0  0  0  0  0  0  0  0  0  0  0
   59.2110   29.7270   47.9130 C   0  0  0  0  0  0  0  0  0  0  0  0
   59.2249   29.0020   47.0859 H   0  0  0  0  0  0  0  0  0  0  0  0
   59.6000   31.0080   47.6960 N   0  0  0  0  0  0  0  0  0  0  0  0
   59.6000   31.9490   48.6780 C   0  0  0  0  0  0  0  0  0  0  0  0
   60.0070   33.2850   48.4160 C   0  0  0  0  0  0  0  0  0  0  0  0
   60.4400   33.7570   47.1630 O   0  0  0  0  0  0  0  0  0  0  0  0
   59.7080   34.5930   46.2710 C   0  0  0  0  0  0  0  0  0  0  0  0
   59.0920   35.2966   46.8502 H   0  0  0  0  0  0  0  0  0  0  0  0
   60.4092   35.1556   45.6371 H   0  0  0  0  0  0  0  0  0  0  0  0
   59.0578   33.9722   45.6371 H   0  0  0  0  0  0  0  0  0  0  0  0
   59.9850   34.2160   49.4620 C   0  0  0  0  0  0  0  0  0  0  0  0
   60.2975   35.2529   49.2689 H   0  0  0  0  0  0  0  0  0  0  0  0
   59.5740   33.8520   50.7440 C   0  0  0  0  0  0  0  0  0  0  0  0
   59.5649   34.6008   51.5497 H   0  0  0  0  0  0  0  0  0  0  0  0
   59.1750   32.5440   51.0080 C   0  0  0  0  0  0  0  0  0  0  0  0
   58.8531   32.2634   52.0217 H   0  0  0  0  0  0  0  0  0  0  0  0
   59.1820   31.5820   49.9850 C   0  0  0  0  0  0  0  0  0  0  0  0
   56.5750   29.2350   53.0120 C   0  0  0  0  0  0  0  0  0  0  0  0
   57.3350   28.2000   53.4490 F   0  0  0  0  0  0  0  0  0  0  0  0
   55.2940   29.4230   53.5430 C   0  0  0  0  0  0  0  0  0  0  0  0
   54.9204   28.7426   54.3224 H   0  0  0  0  0  0  0  0  0  0  0  0
   51.7510   31.1340   51.7380 C   0  0  0  0  0  0  0  0  0  0  0  0
   51.1970   32.2140   51.0280 C   0  0  0  0  0  0  0  0  0  0  0  0
   51.0220   33.4520   51.6350 O   0  0  0  0  0  0  0  0  0  0  0  0
   50.8450   32.0600   49.7250 N   0  0  0  0  0  0  0  0  0  0  0  0
   51.0360   30.8810   49.0820 C   0  0  0  0  0  0  0  0  0  0  0  0
   50.6990   30.7600   47.8760 O   0  0  0  0  0  0  0  0  0  0  0  0
   51.5990   29.8320   49.7360 N   0  0  0  0  0  0  0  0  0  0  0  0
   51.9660   29.9350   51.0400 C   0  0  0  0  0  0  0  0  0  0  0  0
   52.4870   28.9410   51.6140 O   0  0  0  0  0  0  0  0  0  0  0  0
  1  2  1  0
  2  3  2  0
  3  4  1  0
  4  5  2  0
  5  6  1  0
  5  7  1  0
  7  8  1  0
  7  9  2  0
  9 10  1  0
 10 11  1  0
 11 12  2  0
 12 13  1  0
 12 14  1  0
 14 15  1  0
 14 16  2  0
 16 17  1  0
 17 18  2  0
 18 19  1  0
 19 20  1  0
 20 21  1  0
 20 22  1  0
 20 23  1  0
 18 24  1  0
 24 25  1  0
 24 26  2  0
 26 27  1  0
 26 28  1  0
 28 29  1  0
 28 30  2  0
  9 31  1  0
 31 32  1  0
 31 33  2  0
 33 34  1  0
  2 35  1  0
 35 36  2  0
 36 37  1  0
 36 38  1  0
 38 39  1  0
 39 40  2  0
 39 41  1  0
 41 42  1  0
 42 43  2  0
 33  4  1  0
 42 35  1  0
 30 11  1  0
 30 17  1  0
M  CHG  3  37  -1  38  -1  41  -1
M  END
>  <UniqueID>  (9) 
9

>  <SMILES>  (9) 
COc1cccc2c(Oc3ccc(/N=C\c4c([O-])[n-]c(=O)[n-]c4=O)cc3F)ccnc12

>  <Energy>  (9) 
76.21526224633432

>  <Genealogy>  (9) 
COc1cccc2c(Oc3ccc(N=Cc4c([O-])[n-]c(=O)[n-]c4=O)cc3F)ccnc12 (protonated)
COc1cccc2c(Oc3ccc(/N=C\c4c([O-])[n-]c(=O)[n-]c4=O)cc3F)ccnc12 (cis-trans isomerization)
COc1cccc2c(Oc3ccc(/N=C\c4c([O-])[n-]c(=O)[n-]c4=O)cc3F)ccnc12 (3D coordinates assigned)
COc1cccc2c(Oc3ccc(/N=C\c4c([O-])[n-]c(=O)[n-]c4=O)cc3F)ccnc12 (optimized conformer: 76.21526224633432 kcal/mol)

>  <smiles>  (9) 
COc1cccc2c(Oc3ccc(N=Cc4c(O)[nH]c(=O)[nH]c4=O)cc3F)ccnc12

>  <score_type>  (9) 
oracle

>  <origin>  (9) 
adg

>  <m_score__min__energy>  (9) 
-16.039999999999999

>  <m_primary>  (9) 
energy

$$$$
10:0
     RDKit          3D

 17 17  0  0  0  0  0  0  0  0999 V2000
   55.9696   28.3765   53.5817 H   0  0  0  0  0  0  0  0  0  0  0  0
   55.4480   29.1820   53.0440 C   0  0  0  0  0  0  0  0  0  0  0  0
   56.0500   30.4290   52.9050 C   0  0  0  0  0  0  0  0  0  0  0  0
   57.0503   30.6134   53.3237 H   0  0  0  0  0  0  0  0  0  0  0  0
   55.3710   31.4420   52.2290 C   0  0  0  0  0  0  0  0  0  0  0  0
   55.8343   32.4336   52.1189 H   0  0  0  0  0  0  0  0  0  0  0  0
   54.1370   31.2080   51.7050 N   0  0  0  0  0  0  0  0  0  0  0  0
   53.6550   31.9900   51.2050 H   0  0  0  0  0  0  0  0  0  0  0  0
   53.5250   29.9910   51.8030 C   0  0  0  0  0  0  0  0  0  0  0  0
   52.3390   29.8490   51.2740 N   0  0  0  0  0  0  0  0  0  0  0  0
   51.7570   30.5210   50.1430 C   0  0  0  0  0  0  0  0  0  0  0  0
   51.7080   29.9710   49.0110 O   0  0  0  0  0  0  0  0  0  0  0  0
   51.2980   31.9060   50.2880 C   0  0  0  0  0  0  0  0  0  0  0  0
   50.6480   32.4600   49.3620 O   0  0  0  0  0  0  0  0  0  0  0  0
   51.5780   32.6160   51.4480 O   0  0  0  0  0  0  0  0  0  0  0  0
   54.1820   28.9530   52.5010 C   0  0  0  0  0  0  0  0  0  0  0  0
   53.6995   27.9712   52.6159 H   0  0  0  0  0  0  0  0  0  0  0  0
  1  2  1  0
  2  3  1  0
  3  4  1  0
  3  5  2  0
  5  6  1  0
  5  7  1  0
  7  8  1  0
  7  9  1  0
  9 10  2  0
 10 11  1  0
 11 12  2  0
 11 13  1  0
 13 14  2  0
 13 15  1  0
  9 16  1  0
 16 17  1  0
 16  2  2  0
M  CHG  1  15  -1
M  END
>  <UniqueID>  (10) 
10

>  <SMILES>  (10) 
O=C([O-])C(=O)/N=c1\cccc[nH]1

>  <Energy>  (10) 
22.138945276197244

>  <Genealogy>  (10) 
O=C([O-])C(=O)N=c1cccc[nH]1 (protonated)
O=C([O-])C(=O)/N=c1\cccc[nH]1 (cis-trans isomerization)
O=C([O-])C(=O)/N=c1\cccc[nH]1 (3D coordinates assigned)
O=C([O-])C(=O)/N=c1\cccc[nH]1 (optimized conformer: 22.138945276197244 kcal/mol)

>  <smiles>  (10) 
O=C(O)C(=O)N=c1cccc[nH]1

>  <score_type>  (10) 
oracle

>  <origin>  (10) 
adg

>  <m_score__min__energy>  (10) 
-8.8200000000000003

>  <m_primary>  (10) 
energy

$$$$
11:0
     RDKit          3D

 48 50  0  0  0  0  0  0  0  0999 V2000
   59.8570   25.8090   46.3720 C   0  0  0  0  0  0  0  0  0  0  0  0
   58.7820   26.7380   45.9950 N   0  0  0  0  0  0  0  0  0  0  0  0
   57.4840   26.3240   46.1470 C   0  0  0  0  0  0  0  0  0  0  0  0
   56.4180   27.1630   45.8220 C   0  0  0  0  0  0  0  0  0  0  0  0
   55.1100   26.7210   45.9850 O   0  0  0  0  0  0  0  0  0  0  0  0
   56.6790   28.4420   45.3350 C   0  0  0  0  0  0  0  0  0  0  0  0
   55.7300   29.2170   45.0400 O   0  0  0  0  0  0  0  0  0  0  0  0
   57.9970   28.8630   45.1770 C   0  0  0  0  0  0  0  0  0  0  0  0
   59.0560   27.9950   45.4980 C   0  0  0  0  0  0  0  0  0  0  0  0
   60.4670   28.5130   45.2970 C   0  0  0  0  0  0  0  0  0  0  0  0
   61.0550   28.8550   46.5500 O   0  0  0  0  0  0  0  0  0  0  0  0
   60.5820   29.8910   47.3650 C   0  0  0  0  0  0  0  0  0  0  0  0
   59.7240   29.6500   48.2600 O   0  0  0  0  0  0  0  0  0  0  0  0
   61.0930   31.2660   47.1790 C   0  0  0  0  0  0  0  0  0  0  0  0
   62.4750   31.5220   47.1480 C   0  0  0  0  0  0  0  0  0  0  0  0
   62.9500   32.8220   46.9560 C   0  0  0  0  0  0  0  0  0  0  0  0
   62.0520   33.8790   46.7920 C   0  0  0  0  0  0  0  0  0  0  0  0
   60.6730   33.6420   46.8260 C   0  0  0  0  0  0  0  0  0  0  0  0
   59.5260   34.9600   46.5880 S   0  0  0  0  0  0  0  0  0  0  0  0
   60.2330   36.1650   46.0300 O   0  0  0  0  0  0  0  0  0  0  0  0
   58.9310   35.3260   47.9190 O   0  0  0  0  0  0  0  0  0  0  0  0
   58.2610   34.4540   45.4950 N   0  0  0  0  0  0  0  0  0  0  0  0
   58.8270   33.7870   44.2960 C   0  0  0  0  0  0  0  0  0  0  0  0
   58.6800   32.2570   44.3650 C   0  0  0  0  0  0  0  0  0  0  0  0
   57.3300   31.8280   44.4790 O   0  0  0  0  0  0  0  0  0  0  0  0
   56.5080   32.7130   45.2310 C   0  0  0  0  0  0  0  0  0  0  0  0
   57.2830   33.6070   46.2130 C   0  0  0  0  0  0  0  0  0  0  0  0
   60.1970   32.3380   47.0160 C   0  0  0  0  0  0  0  0  0  0  0  0
   59.9239   25.7512   47.4684 H   0  0  0  0  0  0  0  0  0  0  0  0
   59.6385   24.8108   45.9648 H   0  0  0  0  0  0  0  0  0  0  0  0
   60.8130   26.1699   45.9648 H   0  0  0  0  0  0  0  0  0  0  0  0
   57.2798   25.3138   46.5315 H   0  0  0  0  0  0  0  0  0  0  0  0
   58.2098   29.8746   44.8011 H   0  0  0  0  0  0  0  0  0  0  0  0
   61.0736   27.7334   44.8129 H   0  0  0  0  0  0  0  0  0  0  0  0
   60.4300   29.4115   44.6636 H   0  0  0  0  0  0  0  0  0  0  0  0
   63.1871   30.6934   47.2757 H   0  0  0  0  0  0  0  0  0  0  0  0
   64.0330   33.0132   46.9340 H   0  0  0  0  0  0  0  0  0  0  0  0
   62.4294   34.9003   46.6357 H   0  0  0  0  0  0  0  0  0  0  0  0
   57.7680   35.3230   45.1810 H   0  0  0  0  0  0  0  0  0  0  0  0
   58.3002   34.1546   43.4031 H   0  0  0  0  0  0  0  0  0  0  0  0
   59.9002   34.0237   44.2500 H   0  0  0  0  0  0  0  0  0  0  0  0
   59.1084   31.8232   43.4494 H   0  0  0  0  0  0  0  0  0  0  0  0
   59.2075   31.9188   45.2691 H   0  0  0  0  0  0  0  0  0  0  0  0
   55.9651   33.3617   44.5278 H   0  0  0  0  0  0  0  0  0  0  0  0
   55.8362   32.0858   45.8353 H   0  0  0  0  0  0  0  0  0  0  0  0
   56.5726   34.2528   46.7499 H   0  0  0  0  0  0  0  0  0  0  0  0
   57.8269   32.9638   46.9204 H   0  0  0  0  0  0  0  0  0  0  0  0
   59.1132   32.1509   47.0379 H   0  0  0  0  0  0  0  0  0  0  0  0
  1  2  1  0
  2  3  1  0
  3  4  2  0
  4  5  1  0
  4  6  1  0
  6  7  2  0
  6  8  1  0
  8  9  2  0
  9 10  1  0
 10 11  1  0
 11 12  1  0
 12 13  2  0
 12 14  1  0
 14 15  2  0
 15 16  1  0
 16 17  2  0
 17 18  1  0
 18 19  1  0
 19 20  2  0
 19 21  2  0
 19 22  1  0
 22 23  1  0
 23 24  1  0
 24 25  1  0
 25 26  1  0
 26 27  1  0
 18 28  2  0
  9  2  1  0
 28 14  1  0
 27 22  1  0
  1 29  1  0
  1 30  1  0
  1 31  1  0
  3 32  1  0
  8 33  1  0
 10 34  1  0
 10 35  1  0
 15 36  1  0
 16 37  1  0
 17 38  1  0
 22 39  1  0
 23 40  1  0
 23 41  1  0
 24 42  1  0
 24 43  1  0
 26 44  1  0
 26 45  1  0
 27 46  1  0
 27 47  1  0
 28 48  1  0
M  CHG  2   5  -1  22   1
M  END
>  <UniqueID>  (11) 
11

>  <SMILES>  (11) 
Cn1cc([O-])c(=O)cc1COC(=O)c1cccc(S(=O)(=O)[NH+]2CCOCC2)c1

>  <Energy>  (11) 
64.3598782581168

>  <Genealogy>  (11) 
Cn1cc([O-])c(=O)cc1COC(=O)c1cccc(S(=O)(=O)[NH+]2CCOCC2)c1 (protonated)
Cn1cc([O-])c(=O)cc1COC(=O)c1cccc(S(=O)(=O)[NH+]2CCOCC2)c1 (3D coordinates assigned)
Cn1cc([O-])c(=O)cc1COC(=O)c1cccc(S(=O)(=O)[NH+]2CCOCC2)c1 (nonaromatic ring conformer: 64.3598782581168 kcal/mol)

>  <smiles>  (11) 
Cn1cc(O)c(=O)cc1COC(=O)c1cccc(S(=O)(=O)N2CCOCC2)c1

>  <score_type>  (11) 
oracle

>  <origin>  (11) 
adg

>  <m_score__min__energy>  (11) 
-11.460000000000001

>  <m_primary>  (11) 
energy

$$$$
12:0
     RDKit          3D

 38 40  0  0  0  0  0  0  0  0999 V2000
   65.8870   32.9260   49.9200 N   0  0  0  0  0  0  0  0  0  0  0  0
   64.8620   33.0560   49.3970 C   0  0  0  0  0  0  0  0  0  0  0  0
   63.5890   33.2190   48.7470 C   0  0  0  0  0  0  0  0  0  0  0  0
   63.3540   32.6220   47.5030 C   0  0  0  0  0  0  0  0  0  0  0  0
   62.1170   32.7790   46.8710 C   0  0  0  0  0  0  0  0  0  0  0  0
   61.1010   33.5410   47.4750 C   0  0  0  0  0  0  0  0  0  0  0  0
   59.7840   33.7030   46.8140 C   0  0  0  0  0  0  0  0  0  0  0  0
   59.7110   34.3560   45.5710 C   0  0  0  0  0  0  0  0  0  0  0  0
   58.4820   34.5400   44.9360 C   0  0  0  0  0  0  0  0  0  0  0  0
   57.3120   34.0640   45.5260 C   0  0  0  0  0  0  0  0  0  0  0  0
   57.3670   33.4060   46.7560 C   0  0  0  0  0  0  0  0  0  0  0  0
   58.5950   33.2330   47.4190 C   0  0  0  0  0  0  0  0  0  0  0  0
   58.6620   32.4840   48.6430 N   0  0  0  0  0  0  0  0  0  0  0  0
   59.2110   31.1700   48.8000 C   0  0  0  0  0  0  0  0  0  0  0  0
   59.9940   30.9520   49.7620 O   0  0  0  0  0  0  0  0  0  0  0  0
   58.8410   30.0410   47.8780 C   0  0  0  0  0  0  0  0  0  0  0  0
   59.8710   30.0760   46.3670 S   0  0  0  0  0  0  0  0  0  0  0  0
   58.4960   30.2700   45.2360 C   0  0  0  0  0  0  0  0  0  0  0  0
   58.5940   31.1360   44.1930 N   0  0  0  0  0  0  0  0  0  0  0  0
   57.5610   31.3020   43.3260 C   0  0  0  0  0  0  0  0  0  0  0  0
   57.6740   32.1070   42.3640 O   0  0  0  0  0  0  0  0  0  0  0  0
   56.3800   30.5800   43.5030 C   0  0  0  0  0  0  0  0  0  0  0  0
   56.2970   29.7000   44.5830 C   0  0  0  0  0  0  0  0  0  0  0  0
   55.1390   28.9650   44.7970 O   0  0  0  0  0  0  0  0  0  0  0  0
   57.3510   29.5630   45.4280 N   0  0  0  0  0  0  0  0  0  0  0  0
   61.3410   34.1300   48.7290 C   0  0  0  0  0  0  0  0  0  0  0  0
   62.5790   33.9710   49.3590 C   0  0  0  0  0  0  0  0  0  0  0  0
   64.1446   32.0278   47.0215 H   0  0  0  0  0  0  0  0  0  0  0  0
   61.9373   32.3037   45.8954 H   0  0  0  0  0  0  0  0  0  0  0  0
   60.6312   34.7253   45.0946 H   0  0  0  0  0  0  0  0  0  0  0  0
   58.4364   35.0614   43.9685 H   0  0  0  0  0  0  0  0  0  0  0  0
   56.3448   34.2070   45.0220 H   0  0  0  0  0  0  0  0  0  0  0  0
   56.4425   33.0198   47.2101 H   0  0  0  0  0  0  0  0  0  0  0  0
   58.9958   29.0843   48.3984 H   0  0  0  0  0  0  0  0  0  0  0  0
   57.7854   30.1519   47.5890 H   0  0  0  0  0  0  0  0  0  0  0  0
   55.5356   30.7015   42.8086 H   0  0  0  0  0  0  0  0  0  0  0  0
   60.5505   34.7190   49.2170 H   0  0  0  0  0  0  0  0  0  0  0  0
   62.7600   34.4381   50.3383 H   0  0  0  0  0  0  0  0  0  0  0  0
  1  2  3  0
  2  3  1  0
  3  4  2  0
  4  5  1  0
  5  6  2  0
  6  7  1  0
  7  8  2  0
  8  9  1  0
  9 10  2  0
 10 11  1  0
 11 12  2  0
 12 13  1  0
 13 14  1  0
 14 15  2  0
 14 16  1  0
 16 17  1  0
 17 18  1  0
 18 19  2  0
 19 20  1  0
 20 21  2  0
 20 22  1  0
 22 23  2  0
 23 24  1  0
 23 25  1  0
  6 26  1  0
 26 27  2  0
 27  3  1  0
 12  7  1  0
 25 18  1  0
  4 28  1  0
  5 29  1  0
  8 30  1  0
  9 31  1  0
 10 32  1  0
 11 33  1  0
 16 34  1  0
 16 35  1  0
 22 36  1  0
 26 37  1  0
 27 38  1  0
M  CHG  3  13  -1  24  -1  25  -1
M  END
>  <UniqueID>  (12) 
12

>  <SMILES>  (12) 
N#Cc1ccc(-c2ccccc2[N-]C(=O)CSc2nc(=O)cc([O-])[n-]2)cc1

>  <Energy>  (12) 
49.64791312268363

>  <Genealogy>  (12) 
N#Cc1ccc(-c2ccccc2[N-]C(=O)CSc2nc(=O)cc([O-])[n-]2)cc1 (protonated)
N#Cc1ccc(-c2ccccc2[N-]C(=O)CSc2nc(=O)cc([O-])[n-]2)cc1 (3D coordinates assigned)
N#Cc1ccc(-c2ccccc2[N-]C(=O)CSc2nc(=O)cc([O-])[n-]2)cc1 (optimized conformer: 49.64791312268363 kcal/mol)

>  <smiles>  (12) 
N#Cc1ccc(-c2ccccc2NC(=O)CSc2nc(=O)cc(O)[nH]2)cc1

>  <score_type>  (12) 
oracle

>  <origin>  (12) 
adg

>  <m_score__min__energy>  (12) 
-15.18

>  <m_primary>  (12) 
energy

$$$$
13:0
     RDKit          3D

 44 48  0  0  0  0  0  0  0  0999 V2000
   55.9524   26.6694   54.7835 H   0  0  0  0  0  0  0  0  0  0  0  0
   56.0360   27.5320   54.1060 C   0  0  0  0  0  0  0  0  0  0  0  0
   57.2350   27.8470   53.5540 N   0  0  0  0  0  0  0  0  0  0  0  0
   57.3660   28.9170   52.7220 C   0  0  0  0  0  0  0  0  0  0  0  0
   58.5080   29.2130   52.1750 N   0  0  0  0  0  0  0  0  0  0  0  0
   58.8570   30.4400   51.5120 C   0  0  0  0  0  0  0  0  0  0  0  0
   60.1930   30.8620   51.5370 C   0  0  0  0  0  0  0  0  0  0  0  0
   60.9427   30.2692   52.0815 H   0  0  0  0  0  0  0  0  0  0  0  0
   60.5800   32.0310   50.8750 C   0  0  0  0  0  0  0  0  0  0  0  0
   61.6276   32.3639   50.9156 H   0  0  0  0  0  0  0  0  0  0  0  0
   59.6370   32.7780   50.1610 C   0  0  0  0  0  0  0  0  0  0  0  0
   60.1360   34.2710   49.3050 S   0  0  0  0  0  0  0  0  0  0  0  0
   59.5050   33.6830   47.7400 C   0  0  0  0  0  0  0  0  0  0  0  0
   59.4400   32.3620   47.4280 N   0  0  0  0  0  0  0  0  0  0  0  0
   58.9040   32.3840   46.2000 C   0  0  0  0  0  0  0  0  0  0  0  0
   58.6040   31.2980   45.3810 C   0  0  0  0  0  0  0  0  0  0  0  0
   58.8023   30.2664   45.7073 H   0  0  0  0  0  0  0  0  0  0  0  0
   58.0380   31.5680   44.1210 C   0  0  0  0  0  0  0  0  0  0  0  0
   57.7855   30.7372   43.4457 H   0  0  0  0  0  0  0  0  0  0  0  0
   57.7920   32.9010   43.7180 C   0  0  0  0  0  0  0  0  0  0  0  0
   57.3504   33.1014   42.7307 H   0  0  0  0  0  0  0  0  0  0  0  0
   58.1090   33.9720   44.5730 C   0  0  0  0  0  0  0  0  0  0  0  0
   57.9221   35.0139   44.2738 H   0  0  0  0  0  0  0  0  0  0  0  0
   58.6680   33.6670   45.8120 C   0  0  0  0  0  0  0  0  0  0  0  0
   59.0410   34.5210   46.7770 N   0  0  0  0  0  0  0  0  0  0  0  0
   58.3070   32.3490   50.1070 C   0  0  0  0  0  0  0  0  0  0  0  0
   57.5652   32.9327   49.5422 H   0  0  0  0  0  0  0  0  0  0  0  0
   57.9170   31.1800   50.7690 C   0  0  0  0  0  0  0  0  0  0  0  0
   56.8733   30.8379   50.7090 H   0  0  0  0  0  0  0  0  0  0  0  0
   56.2740   29.6680   52.4210 N   0  0  0  0  0  0  0  0  0  0  0  0
   55.0450   29.3910   52.9400 C   0  0  0  0  0  0  0  0  0  0  0  0
   53.8920   30.2550   52.5810 C   0  0  0  0  0  0  0  0  0  0  0  0
   53.7710   30.8240   51.2970 C   0  0  0  0  0  0  0  0  0  0  0  0
   54.5402   30.6240   50.5365 H   0  0  0  0  0  0  0  0  0  0  0  0
   52.6800   31.6410   50.9830 C   0  0  0  0  0  0  0  0  0  0  0  0
   52.5921   32.0759   49.9765 H   0  0  0  0  0  0  0  0  0  0  0  0
   51.7020   31.9060   51.9440 C   0  0  0  0  0  0  0  0  0  0  0  0
   50.6190   32.7180   51.6290 O   0  0  0  0  0  0  0  0  0  0  0  0
   51.8150   31.3570   53.2230 C   0  0  0  0  0  0  0  0  0  0  0  0
   51.0460   31.5682   53.9807 H   0  0  0  0  0  0  0  0  0  0  0  0
   52.9040   30.5390   53.5430 C   0  0  0  0  0  0  0  0  0  0  0  0
   52.9890   30.1144   54.5542 H   0  0  0  0  0  0  0  0  0  0  0  0
   54.9100   28.3010   53.8150 C   0  0  0  0  0  0  0  0  0  0  0  0
   53.9347   28.0586   54.2622 H   0  0  0  0  0  0  0  0  0  0  0  0
  1  2  1  0
  2  3  1  0
  3  4  1  0
  4  5  2  0
  5  6  1  0
  6  7  2  0
  7  8  1  0
  7  9  1  0
  9 10  1  0
  9 11  2  0
 11 12  1  0
 12 13  1  0
 13 14  2  0
 14 15  1  0
 15 16  2  0
 16 17  1  0
 16 18  1  0
 18 19  1  0
 18 20  2  0
 20 21  1  0
 20 22  1  0
 22 23  1  0
 22 24  2  0
 24 25  1  0
 11 26  1  0
 26 27  1  0
 26 28  2  0
 28 29  1  0
  4 30  1  0
 30 31  2  0
 31 32  1  0
 32 33  2  0
 33 34  1  0
 33 35  1  0
 35 36  1  0
 35 37  2  0
 37 38  1  0
 37 39  1  0
 39 40  1  0
 39 41  2  0
 41 42  1  0
 31 43  1  0
 43 44  1  0
 43  2  2  0
 28  6  1  0
 41 32  1  0
 25 13  1  0
 24 15  1  0
M  CHG  3   3  -1  25  -1  38  -1
M  END
>  <UniqueID>  (13) 
13

>  <SMILES>  (13) 
[O-]c1ccc(-c2cc[n-]/c(=N\c3ccc(Sc4nc5ccccc5[n-]4)cc3)n2)cc1

>  <Energy>  (13) 
93.10053211840491

>  <Genealogy>  (13) 
[O-]c1ccc(-c2cc[n-]c(=Nc3ccc(Sc4nc5ccccc5[n-]4)cc3)n2)cc1 (protonated)
[O-]c1ccc(-c2cc[n-]/c(=N\c3ccc(Sc4nc5ccccc5[n-]4)cc3)n2)cc1 (cis-trans isomerization)
[O-]c1ccc(-c2cc[n-]/c(=N\c3ccc(Sc4nc5ccccc5[n-]4)cc3)n2)cc1 (3D coordinates assigned)
[O-]c1ccc(-c2cc[n-]/c(=N\c3ccc(Sc4nc5ccccc5[n-]4)cc3)n2)cc1 (optimized conformer: 93.10053211840491 kcal/mol)

>  <smiles>  (13) 
Oc1ccc(-c2cc[nH]c(=Nc3ccc(Sc4nc5ccccc5[nH]4)cc3)n2)cc1

>  <score_type>  (13) 
oracle

>  <origin>  (13) 
adg

>  <m_score__min__energy>  (13) 
-15.17

>  <m_primary>  (13) 
energy

$$$$
14:0
     RDKit          3D

 58 61  0  0  0  0  0  0  0  0999 V2000
   60.6910   27.6622   47.6005 H   0  0  0  0  0  0  0  0  0  0  0  0
   60.0020   28.2300   46.9580 C   0  0  0  0  0  0  0  0  0  0  0  0
   58.6210   28.0610   47.0930 C   0  0  0  0  0  0  0  0  0  0  0  0
   58.2243   27.3490   47.8317 H   0  0  0  0  0  0  0  0  0  0  0  0
   57.7430   28.7960   46.2900 C   0  0  0  0  0  0  0  0  0  0  0  0
   56.6567   28.6662   46.4046 H   0  0  0  0  0  0  0  0  0  0  0  0
   58.2430   29.6990   45.3380 C   0  0  0  0  0  0  0  0  0  0  0  0
   57.3060   30.4870   44.4650 C   0  0  0  0  0  0  0  0  0  0  0  0
   56.3746   29.9184   44.3266 H   0  0  0  0  0  0  0  0  0  0  0  0
   57.7876   30.6643   43.4920 H   0  0  0  0  0  0  0  0  0  0  0  0
   56.9980   31.7720   45.0830 N   0  0  0  0  0  0  0  0  0  0  0  0
   57.8960   32.8860   45.0760 C   0  0  0  0  0  0  0  0  0  0  0  0
   58.8760   32.9140   44.2820 O   0  0  0  0  0  0  0  0  0  0  0  0
   57.6490   34.0460   45.9920 C   0  0  0  0  0  0  0  0  0  0  0  0
   56.9029   33.7518   46.7449 H   0  0  0  0  0  0  0  0  0  0  0  0
   57.2887   34.8890   45.3842 H   0  0  0  0  0  0  0  0  0  0  0  0
   58.9300   34.4920   46.7110 C   0  0  0  0  0  0  0  0  0  0  0  0
   58.6663   35.2236   47.4890 H   0  0  0  0  0  0  0  0  0  0  0  0
   59.6055   34.9371   45.9656 H   0  0  0  0  0  0  0  0  0  0  0  0
   59.6280   33.3470   47.3440 N   0  0  0  0  0  0  0  0  0  0  0  0
   58.8940   32.4480   48.0850 C   0  0  0  0  0  0  0  0  0  0  0  0
   57.6510   32.6130   48.2460 O   0  0  0  0  0  0  0  0  0  0  0  0
   59.5090   31.3330   48.6740 C   0  0  0  0  0  0  0  0  0  0  0  0
   58.7780   30.5020   49.3680 N   0  0  0  0  0  0  0  0  0  0  0  0
   59.1410   29.7720   50.5510 C   0  0  0  0  0  0  0  0  0  0  0  0
   60.4220   29.2060   50.6870 C   0  0  0  0  0  0  0  0  0  0  0  0
   61.1352   29.2591   49.8513 H   0  0  0  0  0  0  0  0  0  0  0  0
   60.7920   28.5780   51.8760 C   0  0  0  0  0  0  0  0  0  0  0  0
   61.7874   28.1189   51.9678 H   0  0  0  0  0  0  0  0  0  0  0  0
   59.9020   28.5310   52.9490 C   0  0  0  0  0  0  0  0  0  0  0  0
   60.1931   28.0269   53.8823 H   0  0  0  0  0  0  0  0  0  0  0  0
   58.6420   29.1230   52.8400 C   0  0  0  0  0  0  0  0  0  0  0  0
   57.9483   29.0939   53.6932 H   0  0  0  0  0  0  0  0  0  0  0  0
   58.2540   29.7580   51.6420 C   0  0  0  0  0  0  0  0  0  0  0  0
   57.0070   30.3910   51.4930 O   0  0  0  0  0  0  0  0  0  0  0  0
   56.6470   31.6590   52.0380 C   0  0  0  0  0  0  0  0  0  0  0  0
   56.3278   31.5252   53.0821 H   0  0  0  0  0  0  0  0  0  0  0  0
   55.8272   32.0807   51.4379 H   0  0  0  0  0  0  0  0  0  0  0  0
   57.8290   32.6220   51.9960 C   0  0  0  0  0  0  0  0  0  0  0  0
   58.1353   32.8715   53.0226 H   0  0  0  0  0  0  0  0  0  0  0  0
   58.6694   32.1482   51.4676 H   0  0  0  0  0  0  0  0  0  0  0  0
   57.5348   33.5408   51.4676 H   0  0  0  0  0  0  0  0  0  0  0  0
   60.8410   31.1240   48.4710 N   0  0  0  0  0  0  0  0  0  0  0  0
   61.2990   30.2530   48.8190 H   0  0  0  0  0  0  0  0  0  0  0  0
   61.5970   32.0140   47.7760 C   0  0  0  0  0  0  0  0  0  0  0  0
   62.9750   31.7880   47.6210 C   0  0  0  0  0  0  0  0  0  0  0  0
   63.4325   30.8857   48.0529 H   0  0  0  0  0  0  0  0  0  0  0  0
   63.7660   32.6990   46.9240 C   0  0  0  0  0  0  0  0  0  0  0  0
   64.8446   32.5163   46.8090 H   0  0  0  0  0  0  0  0  0  0  0  0
   63.1900   33.8410   46.3730 C   0  0  0  0  0  0  0  0  0  0  0  0
   63.8172   34.5609   45.8269 H   0  0  0  0  0  0  0  0  0  0  0  0
   61.8210   34.0770   46.5100 C   0  0  0  0  0  0  0  0  0  0  0  0
   61.3799   34.9842   46.0713 H   0  0  0  0  0  0  0  0  0  0  0  0
   60.9920   33.1630   47.2070 C   0  0  0  0  0  0  0  0  0  0  0  0
   59.6320   29.8440   45.1900 C   0  0  0  0  0  0  0  0  0  0  0  0
   60.0334   30.5293   44.4289 H   0  0  0  0  0  0  0  0  0  0  0  0
   60.5070   29.1200   46.0070 C   0  0  0  0  0  0  0  0  0  0  0  0
   61.5939   29.2517   45.9004 H   0  0  0  0  0  0  0  0  0  0  0  0
  1  2  1  0
  2  3  2  0
  3  4  1  0
  3  5  1  0
  5  6  1  0
  5  7  2  0
  7  8  1  0
  8  9  1  0
  8 10  1  0
  8 11  1  0
 11 12  1  0
 12 13  2  0
 12 14  1  0
 14 15  1  0
 14 16  1  0
 14 17  1  0
 17 18  1  0
 17 19  1  0
 17 20  1  0
 20 21  1  0
 21 22  2  0
 21 23  1  0
 23 24  2  0
 24 25  1  0
 25 26  2  0
 26 27  1  0
 26 28  1  0
 28 29  1  0
 28 30  2  0
 30 31  1  0
 30 32  1  0
 32 33  1  0
 32 34  2  0
 34 35  1  0
 35 36  1  0
 36 37  1  0
 36 38  1  0
 36 39  1  0
 39 40  1  0
 39 41  1  0
 39 42  1  0
 23 43  1  0
 43 44  1  0
 43 45  1  0
 45 46  2  0
 46 47  1  0
 46 48  1  0
 48 49  1  0
 48 50  2  0
 50 51  1  0
 50 52  1  0
 52 53  1  0
 52 54  2  0
  7 55  1  0
 55 56  1  0
 55 57  2  0
 57 58  1  0
 57  2  1  0
 54 20  1  0
 34 25  1  0
 54 45  1  0
M  CHG  1  11  -1
M  END
>  <UniqueID>  (14) 
14

>  <SMILES>  (14) 
CCOc1ccccc1/N=c1\[nH]c2ccccc2n(CCC(=O)[N-]Cc2ccccc2)c1=O

>  <Energy>  (14) 
71.06919995238104

>  <Genealogy>  (14) 
CCOc1ccccc1N=c1[nH]c2ccccc2n(CCC(=O)[N-]Cc2ccccc2)c1=O (protonated)
CCOc1ccccc1/N=c1\[nH]c2ccccc2n(CCC(=O)[N-]Cc2ccccc2)c1=O (cis-trans isomerization)
CCOc1ccccc1/N=c1\[nH]c2ccccc2n(CCC(=O)[N-]Cc2ccccc2)c1=O (3D coordinates assigned)
CCOc1ccccc1/N=c1\[nH]c2ccccc2n(CCC(=O)[N-]Cc2ccccc2)c1=O (optimized conformer: 71.06919995238104 kcal/mol)

>  <smiles>  (14) 
CCOc1ccccc1N=c1[nH]c2ccccc2n(CCC(=O)NCc2ccccc2)c1=O

>  <score_type>  (14) 
oracle

>  <origin>  (14) 
adg

>  <m_score__min__energy>  (14) 
-10.960000000000001

>  <m_primary>  (14) 
energy

$$$$
15:0
     RDKit          3D

 39 41  0  0  0  0  0  0  0  0999 V2000
   62.3820   33.8440   47.2390 C   0  0  0  0  0  0  0  0  0  0  0  0
   61.1460   33.0390   46.9680 C   0  0  0  0  0  0  0  0  0  0  0  0
   61.0860   31.6880   47.3390 C   0  0  0  0  0  0  0  0  0  0  0  0
   59.9490   30.9260   47.0550 C   0  0  0  0  0  0  0  0  0  0  0  0
   58.8520   31.5040   46.3890 C   0  0  0  0  0  0  0  0  0  0  0  0
   57.6650   30.7520   46.0810 N   0  0  0  0  0  0  0  0  0  0  0  0
   57.0770   30.4770   44.4700 S   0  0  0  0  0  0  0  0  0  0  0  0
   57.3740   31.6710   43.6080 O   0  0  0  0  0  0  0  0  0  0  0  0
   55.5880   30.2860   44.5290 O   0  0  0  0  0  0  0  0  0  0  0  0
   57.8250   29.0120   43.7700 C   0  0  0  0  0  0  0  0  0  0  0  0
   59.0180   28.5920   44.5790 C   0  0  0  0  0  0  0  0  0  0  0  0
   60.2130   29.2130   44.4970 N   0  0  0  0  0  0  0  0  0  0  0  0
   61.0630   28.5410   45.2600 N   0  0  0  0  0  0  0  0  0  0  0  0
   60.3690   27.5160   45.7860 C   0  0  0  0  0  0  0  0  0  0  0  0
   60.8720   26.6680   46.5700 O   0  0  0  0  0  0  0  0  0  0  0  0
   59.0840   27.5100   45.3870 N   0  0  0  0  0  0  0  0  0  0  0  0
   58.0660   26.5500   45.7220 C   0  0  0  0  0  0  0  0  0  0  0  0
   58.4240   25.2510   46.1170 C   0  0  0  0  0  0  0  0  0  0  0  0
   57.4390   24.3190   46.4540 C   0  0  0  0  0  0  0  0  0  0  0  0
   56.0890   24.6800   46.4090 C   0  0  0  0  0  0  0  0  0  0  0  0
   55.7230   25.9740   46.0290 C   0  0  0  0  0  0  0  0  0  0  0  0
   54.3820   26.3350   45.9910 O   0  0  0  0  0  0  0  0  0  0  0  0
   56.7090   26.9090   45.6900 C   0  0  0  0  0  0  0  0  0  0  0  0
   58.9290   32.8490   45.9960 C   0  0  0  0  0  0  0  0  0  0  0  0
   60.0670   33.6100   46.2790 C   0  0  0  0  0  0  0  0  0  0  0  0
   62.5272   33.9385   48.3253 H   0  0  0  0  0  0  0  0  0  0  0  0
   63.2529   33.3394   46.7952 H   0  0  0  0  0  0  0  0  0  0  0  0
   62.2725   34.8446   46.7952 H   0  0  0  0  0  0  0  0  0  0  0  0
   61.9390   31.2250   47.8567 H   0  0  0  0  0  0  0  0  0  0  0  0
   59.9114   29.8681   47.3539 H   0  0  0  0  0  0  0  0  0  0  0  0
   57.1860   30.2320   46.8480 H   0  0  0  0  0  0  0  0  0  0  0  0
   57.0868   28.1965   43.7637 H   0  0  0  0  0  0  0  0  0  0  0  0
   58.1523   29.2357   42.7439 H   0  0  0  0  0  0  0  0  0  0  0  0
   59.4854   24.9656   46.1614 H   0  0  0  0  0  0  0  0  0  0  0  0
   57.7259   23.3006   46.7549 H   0  0  0  0  0  0  0  0  0  0  0  0
   55.3144   23.9449   46.6729 H   0  0  0  0  0  0  0  0  0  0  0  0
   56.4191   27.9290   45.3974 H   0  0  0  0  0  0  0  0  0  0  0  0
   58.0857   33.3089   45.4600 H   0  0  0  0  0  0  0  0  0  0  0  0
   60.1160   34.6615   45.9596 H   0  0  0  0  0  0  0  0  0  0  0  0
  1  2  1  0
  2  3  2  0
  3  4  1  0
  4  5  2  0
  5  6  1  0
  6  7  1  0
  7  8  2  0
  7  9  2  0
  7 10  1  0
 10 11  1  0
 11 12  2  0
 12 13  1  0
 13 14  1  0
 14 15  2  0
 14 16  1  0
 16 17  1  0
 17 18  2  0
 18 19  1  0
 19 20  2  0
 20 21  1  0
 21 22  1  0
 21 23  2  0
  5 24  1  0
 24 25  2  0
 25  2  1  0
 16 11  1  0
 23 17  1  0
  1 26  1  0
  1 27  1  0
  1 28  1  0
  3 29  1  0
  4 30  1  0
  6 31  1  0
 10 32  1  0
 10 33  1  0
 18 34  1  0
 19 35  1  0
 20 36  1  0
 23 37  1  0
 24 38  1  0
 25 39  1  0
M  CHG  2  13  -1  22  -1
M  END
>  <UniqueID>  (15) 
15

>  <SMILES>  (15) 
Cc1ccc(NS(=O)(=O)Cc2n[n-]c(=O)n2-c2cccc([O-])c2)cc1

>  <Energy>  (15) 
80.77315205082837

>  <Genealogy>  (15) 
Cc1ccc(NS(=O)(=O)Cc2n[n-]c(=O)n2-c2cccc([O-])c2)cc1 (protonated)
Cc1ccc(NS(=O)(=O)Cc2n[n-]c(=O)n2-c2cccc([O-])c2)cc1 (3D coordinates assigned)
Cc1ccc(NS(=O)(=O)Cc2n[n-]c(=O)n2-c2cccc([O-])c2)cc1 (optimized conformer: 80.77315205082837 kcal/mol)

>  <smiles>  (15) 
Cc1ccc(NS(=O)(=O)Cc2n[nH]c(=O)n2-c2cccc(O)c2)cc1

>  <score_type>  (15) 
oracle

>  <origin>  (15) 
adg

>  <m_score__min__energy>  (15) 
-13.01

>  <m_primary>  (15) 
energy

$$$$
16:0
     RDKit          3D

 28 30  0  0  0  0  0  0  0  0999 V2000
   58.7520   32.7420   48.8960 O   0  0  0  0  0  0  0  0  0  0  0  0
   59.7080   33.4960   49.2150 C   0  0  0  0  0  0  0  0  0  0  0  0
   60.9650   33.5350   48.4350 C   0  0  0  0  0  0  0  0  0  0  0  0
   62.1720   33.2610   49.1020 C   0  0  0  0  0  0  0  0  0  0  0  0
   63.3860   33.2830   48.4130 C   0  0  0  0  0  0  0  0  0  0  0  0
   63.4100   33.5720   47.0490 C   0  0  0  0  0  0  0  0  0  0  0  0
   62.2210   33.8460   46.3710 C   0  0  0  0  0  0  0  0  0  0  0  0
   60.9910   33.8470   47.0560 C   0  0  0  0  0  0  0  0  0  0  0  0
   59.7930   34.1050   46.3730 O   0  0  0  0  0  0  0  0  0  0  0  0
   59.0370   33.1440   45.6920 C   0  0  0  0  0  0  0  0  0  0  0  0
   58.7260   31.9170   46.1850 N   0  0  0  0  0  0  0  0  0  0  0  0
   58.0120   31.1900   45.2890 C   0  0  0  0  0  0  0  0  0  0  0  0
   57.5480   29.8900   45.5050 C   0  0  0  0  0  0  0  0  0  0  0  0
   56.8240   29.2530   44.4820 C   0  0  0  0  0  0  0  0  0  0  0  0
   56.5750   29.9170   43.2630 C   0  0  0  0  0  0  0  0  0  0  0  0
   57.0490   31.2220   43.0560 C   0  0  0  0  0  0  0  0  0  0  0  0
   57.7620   31.8310   44.0840 C   0  0  0  0  0  0  0  0  0  0  0  0
   58.4550   33.3640   44.1190 S   0  0  0  0  0  0  0  0  0  0  0  0
   59.6063   34.1439   50.0981 H   0  0  0  0  0  0  0  0  0  0  0  0
   62.1597   33.0271   50.1768 H   0  0  0  0  0  0  0  0  0  0  0  0
   64.3245   33.0722   48.9466 H   0  0  0  0  0  0  0  0  0  0  0  0
   64.3670   33.5841   46.5067 H   0  0  0  0  0  0  0  0  0  0  0  0
   62.2452   34.0629   45.2929 H   0  0  0  0  0  0  0  0  0  0  0  0
   59.0240   31.5600   47.1200 H   0  0  0  0  0  0  0  0  0  0  0  0
   57.7453   29.3750   46.4568 H   0  0  0  0  0  0  0  0  0  0  0  0
   56.4493   28.2299   44.6334 H   0  0  0  0  0  0  0  0  0  0  0  0
   56.0062   29.4095   42.4700 H   0  0  0  0  0  0  0  0  0  0  0  0
   56.8621   31.7481   42.1082 H   0  0  0  0  0  0  0  0  0  0  0  0
  1  2  2  0
  2  3  1  0
  3  4  2  0
  4  5  1  0
  5  6  2  0
  6  7  1  0
  7  8  2  0
  8  9  1  0
  9 10  1  0
 10 11  2  0
 11 12  1  0
 12 13  2  0
 13 14  1  0
 14 15  2  0
 15 16  1  0
 16 17  2  0
 17 18  1  0
  8  3  1  0
 18 10  1  0
 17 12  1  0
  2 19  1  0
  4 20  1  0
  5 21  1  0
  6 22  1  0
  7 23  1  0
 11 24  1  0
 13 25  1  0
 14 26  1  0
 15 27  1  0
 16 28  1  0
M  CHG  1  11   1
M  END
>  <UniqueID>  (16) 
16

>  <SMILES>  (16) 
O=Cc1ccccc1Oc1[nH+]c2ccccc2s1

>  <Energy>  (16) 
71.7793999667246

>  <Genealogy>  (16) 
O=Cc1ccccc1Oc1[nH+]c2ccccc2s1 (protonated)
O=Cc1ccccc1Oc1[nH+]c2ccccc2s1 (3D coordinates assigned)
O=Cc1ccccc1Oc1[nH+]c2ccccc2s1 (optimized conformer: 71.7793999667246 kcal/mol)

>  <smiles>  (16) 
O=Cc1ccccc1Oc1nc2ccccc2s1

>  <score_type>  (16) 
oracle

>  <origin>  (16) 
adg

>  <m_score__min__energy>  (16) 
-5.71

>  <m_primary>  (16) 
energy

$$$$
17:0
     RDKit          3D

 50 53  0  0  0  0  0  0  0  0999 V2000
   60.7680   26.7200   48.7830 C   0  0  0  0  0  0  0  0  0  0  0  0
   59.4430   26.6700   48.2670 O   0  0  0  0  0  0  0  0  0  0  0  0
   59.0230   27.3000   47.0830 C   0  0  0  0  0  0  0  0  0  0  0  0
   58.2410   26.6270   46.1230 C   0  0  0  0  0  0  0  0  0  0  0  0
   57.7760   27.2970   44.9900 C   0  0  0  0  0  0  0  0  0  0  0  0
   58.0940   28.6460   44.7870 C   0  0  0  0  0  0  0  0  0  0  0  0
   57.5210   29.3920   43.6110 C   0  0  0  0  0  0  0  0  0  0  0  0
   56.1370   30.4740   44.1220 S   0  0  0  0  0  0  0  0  0  0  0  0
   57.1850   31.7330   44.8450 C   0  0  0  0  0  0  0  0  0  0  0  0
   57.4120   31.8190   46.1810 N   0  0  0  0  0  0  0  0  0  0  0  0
   58.1650   32.9250   46.2710 C   0  0  0  0  0  0  0  0  0  0  0  0
   58.6790   33.5170   47.4230 C   0  0  0  0  0  0  0  0  0  0  0  0
   58.4690   32.9720   48.6460 F   0  0  0  0  0  0  0  0  0  0  0  0
   59.4200   34.7060   47.2740 C   0  0  0  0  0  0  0  0  0  0  0  0
   59.6250   35.2630   45.9910 C   0  0  0  0  0  0  0  0  0  0  0  0
   59.0910   34.6350   44.8490 C   0  0  0  0  0  0  0  0  0  0  0  0
   58.3670   33.4610   45.0360 C   0  0  0  0  0  0  0  0  0  0  0  0
   57.7540   32.7190   44.1040 N   0  0  0  0  0  0  0  0  0  0  0  0
   58.8910   29.3140   45.7280 C   0  0  0  0  0  0  0  0  0  0  0  0
   59.3650   28.6510   46.8670 C   0  0  0  0  0  0  0  0  0  0  0  0
   60.1210   29.3930   47.8350 N   0  0  0  0  0  0  0  0  0  0  0  0
   59.5460   29.9500   49.0250 C   0  0  0  0  0  0  0  0  0  0  0  0
   58.3620   29.6690   49.3590 O   0  0  0  0  0  0  0  0  0  0  0  0
   60.3790   30.8110   49.9180 C   0  0  0  0  0  0  0  0  0  0  0  0
   61.7270   30.7930   49.4620 O   0  0  0  0  0  0  0  0  0  0  0  0
   62.3150   31.8040   48.6860 C   0  0  0  0  0  0  0  0  0  0  0  0
   63.5060   32.3850   49.1420 C   0  0  0  0  0  0  0  0  0  0  0  0
   64.1310   33.3940   48.4030 C   0  0  0  0  0  0  0  0  0  0  0  0
   63.5690   33.8310   47.2000 C   0  0  0  0  0  0  0  0  0  0  0  0
   62.3810   33.2590   46.7370 C   0  0  0  0  0  0  0  0  0  0  0  0
   61.7530   32.2490   47.4730 C   0  0  0  0  0  0  0  0  0  0  0  0
   60.7336   26.7187   49.8825 H   0  0  0  0  0  0  0  0  0  0  0  0
   61.3313   25.8425   48.4327 H   0  0  0  0  0  0  0  0  0  0  0  0
   61.2635   27.6375   48.4327 H   0  0  0  0  0  0  0  0  0  0  0  0
   57.9949   25.5647   46.2677 H   0  0  0  0  0  0  0  0  0  0  0  0
   57.1573   26.7633   44.2535 H   0  0  0  0  0  0  0  0  0  0  0  0
   58.3109   30.0097   43.1589 H   0  0  0  0  0  0  0  0  0  0  0  0
   57.1390   28.6579   42.8863 H   0  0  0  0  0  0  0  0  0  0  0  0
   59.8410   35.2033   48.1603 H   0  0  0  0  0  0  0  0  0  0  0  0
   60.2046   36.1918   45.8840 H   0  0  0  0  0  0  0  0  0  0  0  0
   59.2409   35.0575   43.8445 H   0  0  0  0  0  0  0  0  0  0  0  0
   59.1471   30.3720   45.5695 H   0  0  0  0  0  0  0  0  0  0  0  0
   61.1610   29.4080   47.7390 H   0  0  0  0  0  0  0  0  0  0  0  0
   59.9969   31.8423   49.8955 H   0  0  0  0  0  0  0  0  0  0  0  0
   60.3325   30.4283   50.9482 H   0  0  0  0  0  0  0  0  0  0  0  0
   63.9523   32.0448   50.0881 H   0  0  0  0  0  0  0  0  0  0  0  0
   65.0657   33.8443   48.7685 H   0  0  0  0  0  0  0  0  0  0  0  0
   64.0614   34.6243   46.6184 H   0  0  0  0  0  0  0  0  0  0  0  0
   61.9385   33.6041   45.7909 H   0  0  0  0  0  0  0  0  0  0  0  0
   60.8185   31.8012   47.1041 H   0  0  0  0  0  0  0  0  0  0  0  0
  1  2  1  0
  2  3  1  0
  3  4  2  0
  4  5  1  0
  5  6  2  0
  6  7  1  0
  7  8  1  0
  8  9  1  0
  9 10  2  0
 10 11  1  0
 11 12  2  0
 12 13  1  0
 12 14  1  0
 14 15  2  0
 15 16  1  0
 16 17  2  0
 17 18  1  0
  6 19  1  0
 19 20  2  0
 20 21  1  0
 21 22  1  0
 22 23  2  0
 22 24  1  0
 24 25  1  0
 25 26  1  0
 26 27  2  0
 27 28  1  0
 28 29  2  0
 29 30  1  0
 30 31  2  0
 20  3  1  0
 31 26  1  0
 18  9  1  0
 17 11  1  0
  1 32  1  0
  1 33  1  0
  1 34  1  0
  4 35  1  0
  5 36  1  0
  7 37  1  0
  7 38  1  0
 14 39  1  0
 15 40  1  0
 16 41  1  0
 19 42  1  0
 21 43  1  0
 24 44  1  0
 24 45  1  0
 27 46  1  0
 28 47  1  0
 29 48  1  0
 30 49  1  0
 31 50  1  0
M  CHG  1  18  -1
M  END
>  <UniqueID>  (17) 
17

>  <SMILES>  (17) 
COc1ccc(CSc2nc3c(F)cccc3[n-]2)cc1NC(=O)COc1ccccc1

>  <Energy>  (17) 
86.02653412845007

>  <Genealogy>  (17) 
COc1ccc(CSc2nc3c(F)cccc3[n-]2)cc1NC(=O)COc1ccccc1 (protonated)
COc1ccc(CSc2nc3c(F)cccc3[n-]2)cc1NC(=O)COc1ccccc1 (3D coordinates assigned)
COc1ccc(CSc2nc3c(F)cccc3[n-]2)cc1NC(=O)COc1ccccc1 (optimized conformer: 86.02653412845007 kcal/mol)

>  <smiles>  (17) 
COc1ccc(CSc2nc3c(F)cccc3[nH]2)cc1NC(=O)COc1ccccc1

>  <score_type>  (17) 
oracle

>  <origin>  (17) 
adg

>  <m_score__min__energy>  (17) 
-9.9399999999999995

>  <m_primary>  (17) 
energy

$$$$
18:0
     RDKit          3D

 50 52  0  0  0  0  0  0  0  0999 V2000
   60.4770   29.7850   48.7120 C   0  0  0  0  0  0  0  0  0  0  0  0
   59.0360   29.3400   48.4810 C   0  0  0  0  0  0  0  0  0  0  0  0
   58.9390   28.3890   47.2800 C   0  0  0  0  0  0  0  0  0  0  0  0
   60.2500   28.3130   46.4790 C   0  0  0  0  0  0  0  0  0  0  0  0
   60.2370   29.1320   45.1750 C   0  0  0  0  0  0  0  0  0  0  0  0
   59.0090   29.9470   45.0490 N   0  0  0  0  0  0  0  0  0  0  0  0
   57.9040   29.4520   44.3930 C   0  0  0  0  0  0  0  0  0  0  0  0
   57.9260   28.3010   43.8740 O   0  0  0  0  0  0  0  0  0  0  0  0
   56.7340   30.2280   44.2980 C   0  0  0  0  0  0  0  0  0  0  0  0
   55.5130   29.7130   43.5960 C   0  0  0  0  0  0  0  0  0  0  0  0
   56.7060   31.4660   44.8550 N   0  0  0  0  0  0  0  0  0  0  0  0
   57.7860   31.9670   45.5000 C   0  0  0  0  0  0  0  0  0  0  0  0
   57.7570   33.2370   46.0730 C   0  0  0  0  0  0  0  0  0  0  0  0
   58.8560   33.7110   46.7160 N   0  0  0  0  0  0  0  0  0  0  0  0
   59.9950   32.9710   46.8120 C   0  0  0  0  0  0  0  0  0  0  0  0
   61.1450   33.4940   47.5090 N   0  0  0  0  0  0  0  0  0  0  0  0
   61.0490   33.7630   48.9540 C   0  0  0  0  0  0  0  0  0  0  0  0
   62.3700   34.2920   49.5240 C   0  0  0  0  0  0  0  0  0  0  0  0
   63.5350   33.4100   49.0650 C   0  0  0  0  0  0  0  0  0  0  0  0
   63.6150   33.2660   47.5180 C   0  0  1  0  0  0  0  0  0  0  0  0
   63.8110   31.8670   47.1290 N   0  0  0  0  0  0  0  0  0  0  0  0
   62.3830   33.8380   46.7890 C   0  0  0  0  0  0  0  0  0  0  0  0
   60.0330   31.7300   46.2520 N   0  0  0  0  0  0  0  0  0  0  0  0
   58.9600   31.2040   45.6010 C   0  0  0  0  0  0  0  0  0  0  0  0
   60.6733   29.8456   49.7927 H   0  0  0  0  0  0  0  0  0  0  0  0
   61.1633   29.0570   48.2549 H   0  0  0  0  0  0  0  0  0  0  0  0
   60.6333   30.7733   48.2549 H   0  0  0  0  0  0  0  0  0  0  0  0
   58.6711   28.8220   49.3802 H   0  0  0  0  0  0  0  0  0  0  0  0
   58.4237   30.2299   48.2733 H   0  0  0  0  0  0  0  0  0  0  0  0
   58.6913   27.3820   47.6470 H   0  0  0  0  0  0  0  0  0  0  0  0
   58.1600   28.7787   46.6082 H   0  0  0  0  0  0  0  0  0  0  0  0
   61.0657   28.6880   47.1146 H   0  0  0  0  0  0  0  0  0  0  0  0
   60.3861   27.2600   46.1915 H   0  0  0  0  0  0  0  0  0  0  0  0
   61.1103   29.8007   45.1661 H   0  0  0  0  0  0  0  0  0  0  0  0
   60.2682   28.4287   44.3298 H   0  0  0  0  0  0  0  0  0  0  0  0
   54.7671   29.3984   44.3408 H   0  0  0  0  0  0  0  0  0  0  0  0
   55.0891   30.5090   42.9661 H   0  0  0  0  0  0  0  0  0  0  0  0
   55.7872   28.8539   42.9661 H   0  0  0  0  0  0  0  0  0  0  0  0
   56.8482   33.8530   46.0050 H   0  0  0  0  0  0  0  0  0  0  0  0
   60.2620   34.5123   49.1251 H   0  0  0  0  0  0  0  0  0  0  0  0
   60.8118   32.8170   49.4627 H   0  0  0  0  0  0  0  0  0  0  0  0
   62.5321   35.3210   49.1706 H   0  0  0  0  0  0  0  0  0  0  0  0
   62.3189   34.2760   50.6227 H   0  0  0  0  0  0  0  0  0  0  0  0
   64.4745   33.8549   49.4248 H   0  0  0  0  0  0  0  0  0  0  0  0
   63.3710   32.4051   49.4812 H   0  0  0  0  0  0  0  0  0  0  0  0
   64.4854   33.8624   47.2071 H   0  0  0  0  0  0  0  0  0  0  0  0
   64.5070   31.8310   46.3470 H   0  0  0  0  0  0  0  0  0  0  0  0
   64.2140   31.3370   47.9360 H   0  0  0  0  0  0  0  0  0  0  0  0
   62.4742   34.9326   46.7304 H   0  0  0  0  0  0  0  0  0  0  0  0
   62.3368   33.4040   45.7793 H   0  0  0  0  0  0  0  0  0  0  0  0
  1  2  1  0
  2  3  1  0
  3  4  1  0
  4  5  1  0
  5  6  1  0
  6  7  1  0
  7  8  2  0
  7  9  1  0
  9 10  1  0
  9 11  2  0
 11 12  1  0
 12 13  2  0
 13 14  1  0
 14 15  2  0
 15 16  1  0
 16 17  1  0
 17 18  1  0
 18 19  1  0
 19 20  1  0
 20 21  1  0
 20 22  1  0
 15 23  1  0
 23 24  2  0
 24  6  1  0
 24 12  1  0
 22 16  1  0
  1 25  1  0
  1 26  1  0
  1 27  1  0
  2 28  1  0
  2 29  1  0
  3 30  1  0
  3 31  1  0
  4 32  1  0
  4 33  1  0
  5 34  1  0
  5 35  1  0
 10 36  1  0
 10 37  1  0
 10 38  1  0
 13 39  1  0
 17 40  1  0
 17 41  1  0
 18 42  1  0
 18 43  1  0
 19 44  1  0
 19 45  1  0
 20 46  1  6
 21 47  1  0
 21 48  1  0
 22 49  1  0
 22 50  1  0
M  END
>  <UniqueID>  (18) 
18

>  <SMILES>  (18) 
CCCCCn1c(=O)c(C)nc2cnc(N3CCC[C@@H](N)C3)nc21

>  <Energy>  (18) 
51.24877092531392

>  <Genealogy>  (18) 
CCCCCn1c(=O)c(C)nc2cnc(N3CCC[C@@H](N)C3)nc21 (chirality)
CCCCCn1c(=O)c(C)nc2cnc(N3CCC[C@@H](N)C3)nc21 (3D coordinates assigned)
CCCCCn1c(=O)c(C)nc2cnc(N3CCC[C@@H](N)C3)nc21 (nonaromatic ring conformer: 51.24877092531392 kcal/mol)

>  <smiles>  (18) 
CCCCCn1c(=O)c(C)nc2cnc(N3CCCC(N)C3)nc21

>  <score_type>  (18) 
oracle

>  <origin>  (18) 
adg

>  <m_score__min__energy>  (18) 
-7.6500000000000004

>  <m_primary>  (18) 
energy

$$$$
19:0
     RDKit          3D

 46 48  0  0  0  0  0  0  0  0999 V2000
   55.0100   26.2200   45.9710 O   0  0  0  0  0  0  0  0  0  0  0  0
   54.7420   25.0780   45.5430 N   0  0  0  0  0  0  0  0  0  0  0  0
   53.5440   24.5020   45.8950 O   0  0  0  0  0  0  0  0  0  0  0  0
   55.7810   24.2680   44.9830 C   0  0  0  0  0  0  0  0  0  0  0  0
   55.8000   24.0570   43.5960 C   0  0  0  0  0  0  0  0  0  0  0  0
   56.7710   23.2420   43.0130 C   0  0  0  0  0  0  0  0  0  0  0  0
   57.7390   22.6330   43.8100 C   0  0  0  0  0  0  0  0  0  0  0  0
   57.7490   22.8480   45.1890 C   0  0  0  0  0  0  0  0  0  0  0  0
   56.7800   23.6690   45.7930 C   0  0  0  0  0  0  0  0  0  0  0  0
   56.9100   24.0150   47.5260 S   0  0  0  0  0  0  0  0  0  0  0  0
   55.5740   24.4250   48.0740 O   0  0  0  0  0  0  0  0  0  0  0  0
   57.3410   22.7750   48.2600 O   0  0  0  0  0  0  0  0  0  0  0  0
   58.1300   25.2270   47.7780 N   0  0  0  0  0  0  0  0  0  0  0  0
   58.5390   26.2540   46.8650 C   0  0  0  0  0  0  0  0  0  0  0  0
   59.9030   26.3710   46.5660 C   0  0  0  0  0  0  0  0  0  0  0  0
   60.3540   27.3520   45.6790 C   0  0  0  0  0  0  0  0  0  0  0  0
   59.4450   28.2360   45.0950 C   0  0  0  0  0  0  0  0  0  0  0  0
   58.0820   28.1510   45.4070 C   0  0  0  0  0  0  0  0  0  0  0  0
   56.9210   29.2530   44.6680 S   0  0  0  0  0  0  0  0  0  0  0  0
   55.5180   28.7700   44.9130 O   0  0  0  0  0  0  0  0  0  0  0  0
   57.1590   29.2790   43.1850 O   0  0  0  0  0  0  0  0  0  0  0  0
   57.1030   30.8640   45.3030 N   0  0  0  0  0  0  0  0  0  0  0  0
   58.0620   31.6460   44.5140 C   0  0  0  0  0  0  0  0  0  0  0  0
   58.5390   32.8520   45.2780 C   0  0  0  0  0  0  0  0  0  0  0  0
   58.7090   32.7800   46.6710 C   0  0  0  0  0  0  0  0  0  0  0  0
   59.1600   33.8970   47.3820 C   0  0  0  0  0  0  0  0  0  0  0  0
   59.4420   35.0890   46.7110 C   0  0  0  0  0  0  0  0  0  0  0  0
   59.2700   35.1690   45.3260 C   0  0  0  0  0  0  0  0  0  0  0  0
   58.8180   34.0560   44.6110 C   0  0  0  0  0  0  0  0  0  0  0  0
   57.6330   27.1670   46.2990 C   0  0  0  0  0  0  0  0  0  0  0  0
   55.0416   24.5391   42.9617 H   0  0  0  0  0  0  0  0  0  0  0  0
   56.7726   23.0802   41.9250 H   0  0  0  0  0  0  0  0  0  0  0  0
   58.4969   21.9813   43.3509 H   0  0  0  0  0  0  0  0  0  0  0  0
   58.5221   22.3708   45.8092 H   0  0  0  0  0  0  0  0  0  0  0  0
   60.6247   25.6849   47.0334 H   0  0  0  0  0  0  0  0  0  0  0  0
   61.4253   27.4277   45.4409 H   0  0  0  0  0  0  0  0  0  0  0  0
   59.7997   29.0008   44.3884 H   0  0  0  0  0  0  0  0  0  0  0  0
   56.1690   31.3280   45.2140 H   0  0  0  0  0  0  0  0  0  0  0  0
   58.9265   31.0117   44.2684 H   0  0  0  0  0  0  0  0  0  0  0  0
   57.5608   31.9899   43.5972 H   0  0  0  0  0  0  0  0  0  0  0  0
   58.4870   31.8434   47.2034 H   0  0  0  0  0  0  0  0  0  0  0  0
   59.2929   33.8364   48.4723 H   0  0  0  0  0  0  0  0  0  0  0  0
   59.7994   35.9649   47.2723 H   0  0  0  0  0  0  0  0  0  0  0  0
   59.4905   36.1086   44.7983 H   0  0  0  0  0  0  0  0  0  0  0  0
   58.6803   34.1235   43.5217 H   0  0  0  0  0  0  0  0  0  0  0  0
   56.5653   27.1093   46.5573 H   0  0  0  0  0  0  0  0  0  0  0  0
  1  2  2  0
  2  3  1  0
  2  4  1  0
  4  5  2  0
  5  6  1  0
  6  7  2  0
  7  8  1  0
  8  9  2  0
  9 10  1  0
 10 11  2  0
 10 12  2  0
 10 13  1  0
 13 14  1  0
 14 15  2  0
 15 16  1  0
 16 17  2  0
 17 18  1  0
 18 19  1  0
 19 20  2  0
 19 21  2  0
 19 22  1  0
 22 23  1  0
 23 24  1  0
 24 25  2  0
 25 26  1  0
 26 27  2  0
 27 28  1  0
 28 29  2  0
 18 30  2  0
  9  4  1  0
 30 14  1  0
 29 24  1  0
  5 31  1  0
  6 32  1  0
  7 33  1  0
  8 34  1  0
 15 35  1  0
 16 36  1  0
 17 37  1  0
 22 38  1  0
 23 39  1  0
 23 40  1  0
 25 41  1  0
 26 42  1  0
 27 43  1  0
 28 44  1  0
 29 45  1  0
 30 46  1  0
M  CHG  3   2   1   3  -1  13  -1
M  END
>  <UniqueID>  (19) 
19

>  <SMILES>  (19) 
O=[N+]([O-])c1ccccc1S(=O)(=O)[N-]c1cccc(S(=O)(=O)NCc2ccccc2)c1

>  <Energy>  (19) 
59.675743216376006

>  <Genealogy>  (19) 
O=[N+]([O-])c1ccccc1S(=O)(=O)[N-]c1cccc(S(=O)(=O)NCc2ccccc2)c1 (protonated)
O=[N+]([O-])c1ccccc1S(=O)(=O)[N-]c1cccc(S(=O)(=O)NCc2ccccc2)c1 (3D coordinates assigned)
O=[N+]([O-])c1ccccc1S(=O)(=O)[N-]c1cccc(S(=O)(=O)NCc2ccccc2)c1 (optimized conformer: 59.675743216376006 kcal/mol)

>  <smiles>  (19) 
O=[N+]([O-])c1ccccc1S(=O)(=O)Nc1cccc(S(=O)(=O)NCc2ccccc2)c1

>  <score_type>  (19) 
oracle

>  <origin>  (19) 
adg

>  <m_score__min__energy>  (19) 
-12.720000000000001

>  <m_primary>  (19) 
energy

$$$$
20:0
     RDKit          3D

 43 44  0  0  0  0  0  0  0  0999 V2000
   56.9161   33.9049   46.0523 H   0  0  0  0  0  0  0  0  0  0  0  0
   57.6310   33.6840   45.2460 C   0  0  0  0  0  0  0  0  0  0  0  0
   57.4400   32.4250   44.5000 C   0  0  0  0  0  0  0  0  0  0  0  0
   57.6900   32.4060   43.2650 O   0  0  0  0  0  0  0  0  0  0  0  0
   57.0240   31.2270   45.1650 N   0  0  0  0  0  0  0  0  0  0  0  0
   57.6470   29.9480   44.9840 C   0  0  0  0  0  0  0  0  0  0  0  0
   58.6520   29.5410   45.8860 C   0  0  0  0  0  0  0  0  0  0  0  0
   59.0600   30.4350   47.0250 C   0  0  0  0  0  0  0  0  0  0  0  0
   58.8334   29.9385   47.9801 H   0  0  0  0  0  0  0  0  0  0  0  0
   60.1395   30.6372   46.9639 H   0  0  0  0  0  0  0  0  0  0  0  0
   58.5054   31.3830   46.9639 H   0  0  0  0  0  0  0  0  0  0  0  0
   59.2620   28.2880   45.7270 C   0  0  0  0  0  0  0  0  0  0  0  0
   60.0410   27.9655   46.4336 H   0  0  0  0  0  0  0  0  0  0  0  0
   58.8870   27.4490   44.6790 C   0  0  0  0  0  0  0  0  0  0  0  0
   59.3573   26.4603   44.5730 H   0  0  0  0  0  0  0  0  0  0  0  0
   57.9180   27.8590   43.7650 C   0  0  0  0  0  0  0  0  0  0  0  0
   57.6297   27.1912   42.9399 H   0  0  0  0  0  0  0  0  0  0  0  0
   57.3070   29.1160   43.8880 C   0  0  0  0  0  0  0  0  0  0  0  0
   56.3030   29.5420   42.8500 C   0  0  0  0  0  0  0  0  0  0  0  0
   55.4003   29.9250   43.3485 H   0  0  0  0  0  0  0  0  0  0  0  0
   56.7384   30.3329   42.2216 H   0  0  0  0  0  0  0  0  0  0  0  0
   56.0368   28.6793   42.2216 H   0  0  0  0  0  0  0  0  0  0  0  0
   58.6020   34.5810   45.0240 C   0  0  0  0  0  0  0  0  0  0  0  0
   58.6360   35.0674   44.0380 H   0  0  0  0  0  0  0  0  0  0  0  0
   59.6300   34.9600   46.0160 C   0  0  0  0  0  0  0  0  0  0  0  0
   60.2385   35.8555   45.8214 H   0  0  0  0  0  0  0  0  0  0  0  0
   59.8580   34.2680   47.1400 C   0  0  0  0  0  0  0  0  0  0  0  0
   58.9927   33.9994   47.7637 H   0  0  0  0  0  0  0  0  0  0  0  0
   61.1990   33.8420   47.5960 C   0  0  0  0  0  0  0  0  0  0  0  0
   62.1750   33.5440   46.6330 C   0  0  0  0  0  0  0  0  0  0  0  0
   61.9302   33.6252   45.5637 H   0  0  0  0  0  0  0  0  0  0  0  0
   63.4550   33.1450   47.0230 C   0  0  0  0  0  0  0  0  0  0  0  0
   64.2107   32.9015   46.2617 H   0  0  0  0  0  0  0  0  0  0  0  0
   63.7760   33.0550   48.3780 C   0  0  0  0  0  0  0  0  0  0  0  0
   64.7813   32.7289   48.6831 H   0  0  0  0  0  0  0  0  0  0  0  0
   62.8240   33.3780   49.3480 C   0  0  0  0  0  0  0  0  0  0  0  0
   63.0855   33.3103   50.4143 H   0  0  0  0  0  0  0  0  0  0  0  0
   61.5310   33.7900   48.9690 C   0  0  0  0  0  0  0  0  0  0  0  0
   60.5680   34.1710   49.9190 O   0  0  0  0  0  0  0  0  0  0  0  0
   59.6230   33.2890   50.5130 C   0  0  0  0  0  0  0  0  0  0  0  0
   59.6960   33.3571   51.6085 H   0  0  0  0  0  0  0  0  0  0  0  0
   58.6083   33.5705   50.1949 H   0  0  0  0  0  0  0  0  0  0  0  0
   59.8340   32.2573   50.1949 H   0  0  0  0  0  0  0  0  0  0  0  0
  1  2  1  0
  2  3  1  0
  3  4  2  0
  3  5  1  0
  5  6  1  0
  6  7  2  0
  7  8  1  0
  8  9  1  0
  8 10  1  0
  8 11  1  0
  7 12  1  0
 12 13  1  0
 12 14  2  0
 14 15  1  0
 14 16  1  0
 16 17  1  0
 16 18  2  0
 18 19  1  0
 19 20  1  0
 19 21  1  0
 19 22  1  0
  2 23  2  0
 23 24  1  0
 23 25  1  0
 25 26  1  0
 25 27  2  0
 27 28  1  0
 27 29  1  0
 29 30  2  0
 30 31  1  0
 30 32  1  0
 32 33  1  0
 32 34  2  0
 34 35  1  0
 34 36  1  0
 36 37  1  0
 36 38  2  0
 38 39  1  0
 39 40  1  0
 40 41  1  0
 40 42  1  0
 40 43  1  0
 18  6  1  0
 38 29  1  0
M  CHG  1   5  -1
M  END
>  <UniqueID>  (20) 
20

>  <SMILES>  (20) 
COc1ccccc1/C=C\C=C/C(=O)[N-]c1c(C)cccc1C

>  <Energy>  (20) 
58.043837566639404

>  <Genealogy>  (20) 
COc1ccccc1C=CC=CC(=O)[N-]c1c(C)cccc1C (protonated)
COc1ccccc1/C=C\C=C/C(=O)[N-]c1c(C)cccc1C (cis-trans isomerization)
COc1ccccc1/C=C\C=C/C(=O)[N-]c1c(C)cccc1C (3D coordinates assigned)
COc1ccccc1/C=C\C=C/C(=O)[N-]c1c(C)cccc1C (optimized conformer: 58.043837566639404 kcal/mol)

>  <smiles>  (20) 
COc1ccccc1C=CC=CC(=O)Nc1c(C)cccc1C

>  <score_type>  (20) 
oracle

>  <origin>  (20) 
adg

>  <m_score__min__energy>  (20) 
-9.3200000000000003

>  <m_primary>  (20) 
energy

$$$$
21:0
     RDKit          3D

 49 52  0  0  0  0  0  0  0  0999 V2000
   61.2740   34.5840   46.9150 O   0  0  0  0  0  0  0  0  0  0  0  0
   60.1340   34.0470   46.9420 C   0  0  0  0  0  0  0  0  0  0  0  0
   59.3080   34.1660   48.1060 N   0  0  0  0  0  0  0  0  0  0  0  0
   59.1120   33.0880   49.0660 C   0  0  0  0  0  0  0  0  0  0  0  0
   60.4430   32.5860   49.5570 C   0  0  0  0  0  0  0  0  0  0  0  0
   60.5180   31.4280   50.3440 C   0  0  0  0  0  0  0  0  0  0  0  0
   61.7600   30.9600   50.7710 C   0  0  0  0  0  0  0  0  0  0  0  0
   62.9240   31.6470   50.4090 C   0  0  0  0  0  0  0  0  0  0  0  0
   64.1870   31.1950   50.8200 C   0  0  0  0  0  0  0  0  0  0  0  0
   65.3370   31.8960   50.4410 C   0  0  0  0  0  0  0  0  0  0  0  0
   65.2310   33.0470   49.6550 C   0  0  0  0  0  0  0  0  0  0  0  0
   63.9770   33.5050   49.2410 C   0  0  0  0  0  0  0  0  0  0  0  0
   62.8150   32.8120   49.6150 C   0  0  0  0  0  0  0  0  0  0  0  0
   61.5850   33.2490   49.2140 N   0  0  0  0  0  0  0  0  0  0  0  0
   59.6200   33.3250   45.7250 C   0  0  0  0  0  0  0  0  0  0  0  0
   58.2650   33.9250   45.2870 C   0  0  0  0  0  0  0  0  0  0  0  0
   57.4530   32.8940   44.4990 C   0  0  0  0  0  0  0  0  0  0  0  0
   57.0930   31.7290   45.3380 N   0  0  0  0  0  0  0  0  0  0  0  0
   56.6810   30.3680   44.3230 S   0  0  0  0  0  0  0  0  0  0  0  0
   55.2200   30.0430   44.4590 O   0  0  0  0  0  0  0  0  0  0  0  0
   56.9720   30.7000   42.8860 O   0  0  0  0  0  0  0  0  0  0  0  0
   57.6350   28.9680   44.7780 C   0  0  0  0  0  0  0  0  0  0  0  0
   58.9840   28.7830   44.5140 C   0  0  0  0  0  0  0  0  0  0  0  0
   59.4630   27.5480   44.9670 C   0  0  0  0  0  0  0  0  0  0  0  0
   58.4940   26.7660   45.5840 C   0  0  0  0  0  0  0  0  0  0  0  0
   57.0370   27.6090   45.5620 S   0  0  0  0  0  0  0  0  0  0  0  0
   58.1170   31.3530   46.3460 C   0  0  0  0  0  0  0  0  0  0  0  0
   59.5370   31.7960   45.9570 C   0  0  0  0  0  0  0  0  0  0  0  0
   58.5268   33.4621   49.9190 H   0  0  0  0  0  0  0  0  0  0  0  0
   58.5737   32.2629   48.5767 H   0  0  0  0  0  0  0  0  0  0  0  0
   59.5999   30.8905   50.6236 H   0  0  0  0  0  0  0  0  0  0  0  0
   61.8246   30.0534   51.3906 H   0  0  0  0  0  0  0  0  0  0  0  0
   64.2730   30.2902   51.4397 H   0  0  0  0  0  0  0  0  0  0  0  0
   66.3271   31.5404   50.7624 H   0  0  0  0  0  0  0  0  0  0  0  0
   66.1385   33.5948   49.3610 H   0  0  0  0  0  0  0  0  0  0  0  0
   63.9006   34.4103   48.6209 H   0  0  0  0  0  0  0  0  0  0  0  0
   61.5140   34.1100   48.6240 H   0  0  0  0  0  0  0  0  0  0  0  0
   60.3371   33.4704   44.9036 H   0  0  0  0  0  0  0  0  0  0  0  0
   57.6975   34.2276   46.1794 H   0  0  0  0  0  0  0  0  0  0  0  0
   58.4530   34.7974   44.6439 H   0  0  0  0  0  0  0  0  0  0  0  0
   56.5309   33.3694   44.1333 H   0  0  0  0  0  0  0  0  0  0  0  0
   58.0696   32.5375   43.6607 H   0  0  0  0  0  0  0  0  0  0  0  0
   59.6113   29.5280   44.0027 H   0  0  0  0  0  0  0  0  0  0  0  0
   60.5081   27.2268   44.8459 H   0  0  0  0  0  0  0  0  0  0  0  0
   58.6522   25.7659   46.0138 H   0  0  0  0  0  0  0  0  0  0  0  0
   57.8538   31.8235   47.3048 H   0  0  0  0  0  0  0  0  0  0  0  0
   58.1229   30.2551   46.4140 H   0  0  0  0  0  0  0  0  0  0  0  0
   60.2298   31.5206   46.7658 H   0  0  0  0  0  0  0  0  0  0  0  0
   59.8063   31.2927   45.0167 H   0  0  0  0  0  0  0  0  0  0  0  0
  1  2  2  0
  2  3  1  0
  3  4  1  0
  4  5  1  0
  5  6  2  0
  6  7  1  0
  7  8  2  0
  8  9  1  0
  9 10  2  0
 10 11  1  0
 11 12  2  0
 12 13  1  0
 13 14  2  0
  2 15  1  0
 15 16  1  0
 16 17  1  0
 17 18  1  0
 18 19  1  0
 19 20  2  0
 19 21  2  0
 19 22  1  0
 22 23  2  0
 23 24  1  0
 24 25  2  0
 25 26  1  0
 18 27  1  0
 27 28  1  0
 14  5  1  0
 28 15  1  0
 13  8  1  0
 26 22  1  0
  4 29  1  0
  4 30  1  0
  6 31  1  0
  7 32  1  0
  9 33  1  0
 10 34  1  0
 11 35  1  0
 12 36  1  0
 14 37  1  0
 15 38  1  0
 16 39  1  0
 16 40  1  0
 17 41  1  0
 17 42  1  0
 23 43  1  0
 24 44  1  0
 25 45  1  0
 27 46  1  0
 27 47  1  0
 28 48  1  0
 28 49  1  0
M  CHG  2   3  -1  14   1
M  END
>  <UniqueID>  (21) 
21

>  <SMILES>  (21) 
O=C([N-]Cc1ccc2ccccc2[nH+]1)C1CCN(S(=O)(=O)c2cccs2)CC1

>  <Energy>  (21) 
84.15662875975309

>  <Genealogy>  (21) 
O=C([N-]Cc1ccc2ccccc2[nH+]1)C1CCN(S(=O)(=O)c2cccs2)CC1 (protonated)
O=C([N-]Cc1ccc2ccccc2[nH+]1)C1CCN(S(=O)(=O)c2cccs2)CC1 (3D coordinates assigned)
O=C([N-]Cc1ccc2ccccc2[nH+]1)C1CCN(S(=O)(=O)c2cccs2)CC1 (nonaromatic ring conformer: 84.15662875975309 kcal/mol)

>  <smiles>  (21) 
O=C(NCc1ccc2ccccc2n1)C1CCN(S(=O)(=O)c2cccs2)CC1

>  <score_type>  (21) 
oracle

>  <origin>  (21) 
adg

>  <m_score__min__energy>  (21) 
-10.32

>  <m_primary>  (21) 
energy

$$$$
22:0
     RDKit          3D

 42 43  0  0  0  0  0  0  0  0999 V2000
   56.6390   22.0440   49.0810 C   0  0  0  0  0  0  0  0  0  0  0  0
   57.0310   22.7280   47.8960 O   0  0  0  0  0  0  0  0  0  0  0  0
   56.1350   23.4740   47.1250 C   0  0  0  0  0  0  0  0  0  0  0  0
   55.0240   22.8450   46.5610 C   0  0  0  0  0  0  0  0  0  0  0  0
   54.1470   23.6030   45.7860 C   0  0  0  0  0  0  0  0  0  0  0  0
   53.0340   22.9890   45.2060 O   0  0  0  0  0  0  0  0  0  0  0  0
   51.8220   23.6870   44.9430 C   0  0  0  0  0  0  0  0  0  0  0  0
   54.3870   24.9300   45.6020 N   0  0  0  0  0  0  0  0  0  0  0  0
   55.4700   25.5370   46.1630 C   0  0  0  0  0  0  0  0  0  0  0  0
   55.6980   26.8060   45.9940 N   0  0  0  0  0  0  0  0  0  0  0  0
   56.9610   27.4280   45.7040 C   0  0  0  0  0  0  0  0  0  0  0  0
   57.8960   26.7840   45.1590 O   0  0  0  0  0  0  0  0  0  0  0  0
   57.1780   28.7960   46.0530 N   0  0  0  0  0  0  0  0  0  0  0  0
   58.7270   29.5630   45.9220 S   0  0  0  0  0  0  0  0  0  0  0  0
   59.5000   29.2780   47.1770 O   0  0  0  0  0  0  0  0  0  0  0  0
   59.4500   28.9650   44.7470 O   0  0  0  0  0  0  0  0  0  0  0  0
   58.5590   31.3190   45.7230 C   0  0  0  0  0  0  0  0  0  0  0  0
   59.5700   32.1550   46.2300 C   0  0  0  0  0  0  0  0  0  0  0  0
   59.4820   33.5410   46.1040 C   0  0  0  0  0  0  0  0  0  0  0  0
   58.3910   34.1170   45.4590 C   0  0  0  0  0  0  0  0  0  0  0  0
   57.3840   33.3070   44.9320 C   0  0  0  0  0  0  0  0  0  0  0  0
   57.4460   31.9060   45.0570 C   0  0  0  0  0  0  0  0  0  0  0  0
   56.3520   31.0870   44.4070 C   0  0  0  0  0  0  0  0  0  0  0  0
   56.8260   30.4620   43.1270 C   0  0  0  0  0  0  0  0  0  0  0  0
   57.3550   29.1360   43.1220 N   0  0  0  0  0  0  0  0  0  0  0  0
   56.7140   31.0900   42.0390 O   0  0  0  0  0  0  0  0  0  0  0  0
   56.3320   24.8050   46.9150 N   0  0  0  0  0  0  0  0  0  0  0  0
   56.9674   22.6169   49.9607 H   0  0  0  0  0  0  0  0  0  0  0  0
   55.5441   21.9398   49.0991 H   0  0  0  0  0  0  0  0  0  0  0  0
   57.1026   21.0466   49.0991 H   0  0  0  0  0  0  0  0  0  0  0  0
   54.8438   21.7723   46.7247 H   0  0  0  0  0  0  0  0  0  0  0  0
   51.3436   23.9625   45.8945 H   0  0  0  0  0  0  0  0  0  0  0  0
   52.0410   24.5973   44.3656 H   0  0  0  0  0  0  0  0  0  0  0  0
   51.1445   23.0407   44.3656 H   0  0  0  0  0  0  0  0  0  0  0  0
   60.4414   31.7098   46.7324 H   0  0  0  0  0  0  0  0  0  0  0  0
   60.2767   34.1808   46.5153 H   0  0  0  0  0  0  0  0  0  0  0  0
   58.3226   35.2108   45.3647 H   0  0  0  0  0  0  0  0  0  0  0  0
   56.5314   33.7689   44.4126 H   0  0  0  0  0  0  0  0  0  0  0  0
   56.0399   30.2918   45.1000 H   0  0  0  0  0  0  0  0  0  0  0  0
   55.5090   31.7548   44.1760 H   0  0  0  0  0  0  0  0  0  0  0  0
   57.4300   28.5860   44.0060 H   0  0  0  0  0  0  0  0  0  0  0  0
   57.6730   28.6990   42.2280 H   0  0  0  0  0  0  0  0  0  0  0  0
  1  2  1  0
  2  3  1  0
  3  4  1  0
  4  5  2  0
  5  6  1  0
  6  7  1  0
  5  8  1  0
  8  9  1  0
  9 10  2  3
 10 11  1  0
 11 12  2  0
 11 13  1  0
 13 14  1  0
 14 15  2  0
 14 16  2  0
 14 17  1  0
 17 18  2  0
 18 19  1  0
 19 20  2  0
 20 21  1  0
 21 22  2  0
 22 23  1  0
 23 24  1  0
 24 25  1  0
 24 26  2  0
  9 27  1  0
 27  3  2  0
 22 17  1  0
  1 28  1  0
  1 29  1  0
  1 30  1  0
  4 31  1  0
  7 32  1  0
  7 33  1  0
  7 34  1  0
 18 35  1  0
 19 36  1  0
 20 37  1  0
 21 38  1  0
 23 39  1  0
 23 40  1  0
 25 41  1  0
 25 42  1  0
M  CHG  2   8  -1  13  -1
M  END
>  <UniqueID>  (22) 
22

>  <SMILES>  (22) 
COc1cc(OC)[n-]c(=NC(=O)[N-]S(=O)(=O)c2ccccc2CC(N)=O)n1

>  <Energy>  (22) 
42.74342783673051

>  <Genealogy>  (22) 
COc1cc(OC)[n-]c(=NC(=O)[N-]S(=O)(=O)c2ccccc2CC(N)=O)n1 (protonated)
COc1cc(OC)[n-]c(=NC(=O)[N-]S(=O)(=O)c2ccccc2CC(N)=O)n1 (3D coordinates assigned)
COc1cc(OC)[n-]c(=NC(=O)[N-]S(=O)(=O)c2ccccc2CC(N)=O)n1 (optimized conformer: 42.74342783673051 kcal/mol)

>  <smiles>  (22) 
COc1cc(OC)[nH]c(=NC(=O)NS(=O)(=O)c2ccccc2CC(N)=O)n1

>  <score_type>  (22) 
oracle

>  <origin>  (22) 
adg

>  <m_score__min__energy>  (22) 
-10.470000000000001

>  <m_primary>  (22) 
energy

$$$$
23:0
     RDKit          3D

 28 30  0  0  0  0  0  0  0  0999 V2000
   54.3380   23.3430   46.7210 O   0  0  0  0  0  0  0  0  0  0  0  0
   55.4880   23.5180   46.2360 C   0  0  0  0  0  0  0  0  0  0  0  0
   56.4520   24.3320   46.9160 N   0  0  0  0  0  0  0  0  0  0  0  0
   57.0150   25.5670   46.4440 C   0  0  0  0  0  0  0  0  0  0  0  0
   58.4010   25.8050   46.4740 C   0  0  0  0  0  0  0  0  0  0  0  0
   58.9210   27.0290   46.0280 C   0  0  0  0  0  0  0  0  0  0  0  0
   60.3040   27.2680   46.0470 C   0  0  0  0  0  0  0  0  0  0  0  0
   60.8110   28.4920   45.6010 C   0  0  0  0  0  0  0  0  0  0  0  0
   59.9450   29.4840   45.1340 C   0  0  0  0  0  0  0  0  0  0  0  0
   58.5650   29.2590   45.1130 C   0  0  0  0  0  0  0  0  0  0  0  0
   58.0440   28.0350   45.5590 C   0  0  0  0  0  0  0  0  0  0  0  0
   56.6620   27.8020   45.5540 C   0  0  0  0  0  0  0  0  0  0  0  0
   56.1490   26.5770   46.0010 C   0  0  0  0  0  0  0  0  0  0  0  0
   54.7710   26.3540   46.0010 O   0  0  0  0  0  0  0  0  0  0  0  0
   55.8640   22.8390   44.9900 C   0  0  0  0  0  0  0  0  0  0  0  0
   55.9450   21.4630   44.7950 C   0  0  0  0  0  0  0  0  0  0  0  0
   56.3170   21.0890   43.5420 N   0  0  0  0  0  0  0  0  0  0  0  0
   56.5330   22.1480   42.7320 C   0  0  0  0  0  0  0  0  0  0  0  0
   56.2710   23.5970   43.5440 S   0  0  0  0  0  0  0  0  0  0  0  0
   59.0813   25.0264   46.8495 H   0  0  0  0  0  0  0  0  0  0  0  0
   60.9903   26.4905   46.4136 H   0  0  0  0  0  0  0  0  0  0  0  0
   61.8956   28.6748   45.6178 H   0  0  0  0  0  0  0  0  0  0  0  0
   60.3497   30.4444   44.7820 H   0  0  0  0  0  0  0  0  0  0  0  0
   57.8865   30.0432   44.7461 H   0  0  0  0  0  0  0  0  0  0  0  0
   55.9764   28.5848   45.1973 H   0  0  0  0  0  0  0  0  0  0  0  0
   54.3710   25.5010   46.3720 H   0  0  0  0  0  0  0  0  0  0  0  0
   55.7255   20.7364   45.5911 H   0  0  0  0  0  0  0  0  0  0  0  0
   56.8402   22.0724   41.6785 H   0  0  0  0  0  0  0  0  0  0  0  0
  1  2  2  0
  2  3  1  0
  3  4  1  0
  4  5  2  0
  5  6  1  0
  6  7  2  0
  7  8  1  0
  8  9  2  0
  9 10  1  0
 10 11  2  0
 11 12  1  0
 12 13  2  0
 13 14  1  0
  2 15  1  0
 15 16  2  0
 16 17  1  0
 17 18  2  0
 18 19  1  0
 13  4  1  0
 19 15  1  0
 11  6  1  0
  5 20  1  0
  7 21  1  0
  8 22  1  0
  9 23  1  0
 10 24  1  0
 12 25  1  0
 14 26  1  0
 16 27  1  0
 18 28  1  0
M  CHG  1   3  -1
M  END
>  <UniqueID>  (23) 
23

>  <SMILES>  (23) 
O=C([N-]c1cc2ccccc2cc1O)c1cncs1

>  <Energy>  (23) 
66.23025343251918

>  <Genealogy>  (23) 
O=C([N-]c1cc2ccccc2cc1O)c1cncs1 (protonated)
O=C([N-]c1cc2ccccc2cc1O)c1cncs1 (3D coordinates assigned)
O=C([N-]c1cc2ccccc2cc1O)c1cncs1 (optimized conformer: 66.23025343251918 kcal/mol)

>  <smiles>  (23) 
O=C(Nc1cc2ccccc2cc1O)c1cncs1

>  <score_type>  (23) 
oracle

>  <origin>  (23) 
adg

>  <m_score__min__energy>  (23) 
-9.1799999999999997

>  <m_primary>  (23) 
energy

$$$$
24:0
     RDKit          3D

 46 48  0  0  0  0  0  0  0  0999 V2000
   58.4650   22.3010   45.2840 C   0  0  0  0  0  0  0  0  0  0  0  0
   57.8210   23.6480   45.4230 C   0  0  0  0  0  0  0  0  0  0  0  0
   58.6100   24.7890   45.6290 C   0  0  0  0  0  0  0  0  0  0  0  0
   58.0180   26.0530   45.7040 C   0  0  0  0  0  0  0  0  0  0  0  0
   56.6250   26.1940   45.5630 C   0  0  0  0  0  0  0  0  0  0  0  0
   55.9770   27.4720   45.6260 N   0  0  0  0  0  0  0  0  0  0  0  0
   56.5510   28.9220   44.8700 S   0  0  0  0  0  0  0  0  0  0  0  0
   57.0310   28.6010   43.4830 O   0  0  0  0  0  0  0  0  0  0  0  0
   55.4300   29.9180   44.7730 O   0  0  0  0  0  0  0  0  0  0  0  0
   57.8980   29.5710   45.8020 C   0  0  0  0  0  0  0  0  0  0  0  0
   58.6590   30.6210   45.2750 C   0  0  0  0  0  0  0  0  0  0  0  0
   59.7650   31.1110   45.9750 C   0  0  0  0  0  0  0  0  0  0  0  0
   60.1340   30.5370   47.2040 C   0  0  0  0  0  0  0  0  0  0  0  0
   61.3020   30.9570   47.9210 N   0  0  0  0  0  0  0  0  0  0  0  0
   61.8730   32.5900   48.0550 S   0  0  0  0  0  0  0  0  0  0  0  0
   62.9700   32.6570   49.0790 O   0  0  0  0  0  0  0  0  0  0  0  0
   62.4300   33.0070   46.7230 O   0  0  0  0  0  0  0  0  0  0  0  0
   60.5520   33.7220   48.4960 C   0  0  0  0  0  0  0  0  0  0  0  0
   59.5790   33.9120   47.3630 C   0  0  0  0  0  0  0  0  0  0  0  0
   58.2590   33.4440   47.4720 C   0  0  0  0  0  0  0  0  0  0  0  0
   57.3640   33.6010   46.4100 C   0  0  0  0  0  0  0  0  0  0  0  0
   57.7780   34.2270   45.2320 C   0  0  0  0  0  0  0  0  0  0  0  0
   59.0860   34.7060   45.1190 C   0  0  0  0  0  0  0  0  0  0  0  0
   59.9830   34.5540   46.1800 C   0  0  0  0  0  0  0  0  0  0  0  0
   59.3550   29.5040   47.7380 C   0  0  0  0  0  0  0  0  0  0  0  0
   58.2430   29.0240   47.0440 C   0  0  0  0  0  0  0  0  0  0  0  0
   55.8410   25.0530   45.3540 C   0  0  0  0  0  0  0  0  0  0  0  0
   56.4330   23.7900   45.2730 C   0  0  0  0  0  0  0  0  0  0  0  0
   58.6639   21.8849   46.2826 H   0  0  0  0  0  0  0  0  0  0  0  0
   57.7914   21.6276   44.7337 H   0  0  0  0  0  0  0  0  0  0  0  0
   59.4120   22.4024   44.7337 H   0  0  0  0  0  0  0  0  0  0  0  0
   59.7006   24.6887   45.7321 H   0  0  0  0  0  0  0  0  0  0  0  0
   58.6438   26.9415   45.8740 H   0  0  0  0  0  0  0  0  0  0  0  0
   58.3853   31.0625   44.3054 H   0  0  0  0  0  0  0  0  0  0  0  0
   60.3482   31.9479   45.5632 H   0  0  0  0  0  0  0  0  0  0  0  0
   60.0122   33.3184   49.3653 H   0  0  0  0  0  0  0  0  0  0  0  0
   61.0013   34.6986   48.7291 H   0  0  0  0  0  0  0  0  0  0  0  0
   57.9280   32.9513   48.3981 H   0  0  0  0  0  0  0  0  0  0  0  0
   56.3322   33.2311   46.5020 H   0  0  0  0  0  0  0  0  0  0  0  0
   57.0751   34.3429   44.3939 H   0  0  0  0  0  0  0  0  0  0  0  0
   59.4102   35.2037   44.1931 H   0  0  0  0  0  0  0  0  0  0  0  0
   61.0095   34.9385   46.0887 H   0  0  0  0  0  0  0  0  0  0  0  0
   59.6210   29.0671   48.7118 H   0  0  0  0  0  0  0  0  0  0  0  0
   57.6360   28.2137   47.4740 H   0  0  0  0  0  0  0  0  0  0  0  0
   54.7501   25.1517   45.2527 H   0  0  0  0  0  0  0  0  0  0  0  0
   55.8083   22.9031   45.0908 H   0  0  0  0  0  0  0  0  0  0  0  0
  1  2  1  0
  2  3  2  0
  3  4  1  0
  4  5  2  0
  5  6  1  0
  6  7  1  0
  7  8  2  0
  7  9  2  0
  7 10  1  0
 10 11  2  0
 11 12  1  0
 12 13  2  0
 13 14  1  0
 14 15  1  0
 15 16  2  0
 15 17  2  0
 15 18  1  0
 18 19  1  0
 19 20  2  0
 20 21  1  0
 21 22  2  0
 22 23  1  0
 23 24  2  0
 13 25  1  0
 25 26  2  0
  5 27  1  0
 27 28  2  0
 28  2  1  0
 26 10  1  0
 24 19  1  0
  1 29  1  0
  1 30  1  0
  1 31  1  0
  3 32  1  0
  4 33  1  0
 11 34  1  0
 12 35  1  0
 18 36  1  0
 18 37  1  0
 20 38  1  0
 21 39  1  0
 22 40  1  0
 23 41  1  0
 24 42  1  0
 25 43  1  0
 26 44  1  0
 27 45  1  0
 28 46  1  0
M  CHG  2   6  -1  14  -1
M  END
>  <UniqueID>  (24) 
24

>  <SMILES>  (24) 
Cc1ccc([N-]S(=O)(=O)c2ccc([N-]S(=O)(=O)Cc3ccccc3)cc2)cc1

>  <Energy>  (24) 
45.73279383121446

>  <Genealogy>  (24) 
Cc1ccc([N-]S(=O)(=O)c2ccc([N-]S(=O)(=O)Cc3ccccc3)cc2)cc1 (protonated)
Cc1ccc([N-]S(=O)(=O)c2ccc([N-]S(=O)(=O)Cc3ccccc3)cc2)cc1 (3D coordinates assigned)
Cc1ccc([N-]S(=O)(=O)c2ccc([N-]S(=O)(=O)Cc3ccccc3)cc2)cc1 (optimized conformer: 45.73279383121446 kcal/mol)

>  <smiles>  (24) 
Cc1ccc(NS(=O)(=O)c2ccc(NS(=O)(=O)Cc3ccccc3)cc2)cc1

>  <score_type>  (24) 
oracle

>  <origin>  (24) 
adg

>  <m_score__min__energy>  (24) 
-11.98

>  <m_primary>  (24) 
energy

$$$$
25:0
     RDKit          3D

 36 37  0  0  0  0  0  0  0  0999 V2000
   58.0840   31.7500   43.5870 C   0  0  0  0  0  0  0  0  0  0  0  0
   57.1870   31.2920   44.6570 N   0  0  0  0  0  0  0  0  0  0  0  0
   57.9630   31.0660   45.8940 C   0  0  0  0  0  0  0  0  0  0  0  0
   58.7450   32.2950   46.2780 C   0  0  0  0  0  0  0  0  0  0  0  0
   58.1500   33.5670   46.2090 C   0  0  0  0  0  0  0  0  0  0  0  0
   58.8840   34.7080   46.5410 C   0  0  0  0  0  0  0  0  0  0  0  0
   60.2150   34.5910   46.9480 C   0  0  0  0  0  0  0  0  0  0  0  0
   60.8140   33.3310   47.0280 C   0  0  0  0  0  0  0  0  0  0  0  0
   60.0840   32.1850   46.6970 C   0  0  0  0  0  0  0  0  0  0  0  0
   60.6840   30.9690   46.7730 F   0  0  0  0  0  0  0  0  0  0  0  0
   56.3620   29.8290   44.1430 S   0  0  0  0  0  0  0  0  0  0  0  0
   55.4680   29.3200   45.2400 O   0  0  0  0  0  0  0  0  0  0  0  0
   55.5250   30.0900   42.9210 O   0  0  0  0  0  0  0  0  0  0  0  0
   57.5710   28.5620   43.7820 C   0  0  0  0  0  0  0  0  0  0  0  0
   58.1850   28.0400   45.0550 C   0  0  0  0  0  0  0  0  0  0  0  0
   59.5430   28.2800   45.3390 C   0  0  0  0  0  0  0  0  0  0  0  0
   60.3110   29.0060   44.4860 F   0  0  0  0  0  0  0  0  0  0  0  0
   60.1190   27.7700   46.5060 C   0  0  0  0  0  0  0  0  0  0  0  0
   59.3520   27.0110   47.3930 C   0  0  0  0  0  0  0  0  0  0  0  0
   58.0080   26.7560   47.1140 C   0  0  0  0  0  0  0  0  0  0  0  0
   57.4230   27.2640   45.9490 C   0  0  0  0  0  0  0  0  0  0  0  0
   56.1170   26.9940   45.6940 F   0  0  0  0  0  0  0  0  0  0  0  0
   58.9804   32.2077   44.0308 H   0  0  0  0  0  0  0  0  0  0  0  0
   58.3800   30.8927   42.9646 H   0  0  0  0  0  0  0  0  0  0  0  0
   57.5631   32.4925   42.9646 H   0  0  0  0  0  0  0  0  0  0  0  0
   57.2710   30.8113   46.7103 H   0  0  0  0  0  0  0  0  0  0  0  0
   58.6715   30.2436   45.7157 H   0  0  0  0  0  0  0  0  0  0  0  0
   57.1012   33.6641   45.8920 H   0  0  0  0  0  0  0  0  0  0  0  0
   58.4131   35.7003   46.4818 H   0  0  0  0  0  0  0  0  0  0  0  0
   60.7921   35.4913   47.2057 H   0  0  0  0  0  0  0  0  0  0  0  0
   61.8613   33.2404   47.3518 H   0  0  0  0  0  0  0  0  0  0  0  0
   57.0795   27.7335   43.2510 H   0  0  0  0  0  0  0  0  0  0  0  0
   58.3648   28.9959   43.1562 H   0  0  0  0  0  0  0  0  0  0  0  0
   61.1786   27.9668   46.7264 H   0  0  0  0  0  0  0  0  0  0  0  0
   59.8073   26.6138   48.3122 H   0  0  0  0  0  0  0  0  0  0  0  0
   57.4075   26.1541   47.8119 H   0  0  0  0  0  0  0  0  0  0  0  0
  1  2  1  0
  2  3  1  0
  3  4  1  0
  4  5  2  0
  5  6  1  0
  6  7  2  0
  7  8  1  0
  8  9  2  0
  9 10  1  0
  2 11  1  0
 11 12  2  0
 11 13  2  0
 11 14  1  0
 14 15  1  0
 15 16  2  0
 16 17  1  0
 16 18  1  0
 18 19  2  0
 19 20  1  0
 20 21  2  0
 21 22  1  0
  9  4  1  0
 21 15  1  0
  1 23  1  0
  1 24  1  0
  1 25  1  0
  3 26  1  0
  3 27  1  0
  5 28  1  0
  6 29  1  0
  7 30  1  0
  8 31  1  0
 14 32  1  0
 14 33  1  0
 18 34  1  0
 19 35  1  0
 20 36  1  0
M  END
>  <UniqueID>  (25) 
25

>  <SMILES>  (25) 
CN(Cc1ccccc1F)S(=O)(=O)Cc1c(F)cccc1F

>  <Energy>  (25) 
31.41167263364142

>  <Genealogy>  (25) 
CN(Cc1ccccc1F)S(=O)(=O)Cc1c(F)cccc1F (3D coordinates assigned)
CN(Cc1ccccc1F)S(=O)(=O)Cc1c(F)cccc1F (optimized conformer: 31.41167263364142 kcal/mol)

>  <smiles>  (25) 
CN(Cc1ccccc1F)S(=O)(=O)Cc1c(F)cccc1F

>  <score_type>  (25) 
oracle

>  <origin>  (25) 
adg

>  <m_score__min__energy>  (25) 
-7.7199999999999998

>  <m_primary>  (25) 
energy

$$$$
26:0
     RDKit          3D

 62 65  0  0  0  0  0  0  0  0999 V2000
   55.1790   29.0270   44.5450 O   0  0  0  0  0  0  0  0  0  0  0  0
   56.3500   29.4550   44.3580 C   0  0  0  0  0  0  0  0  0  0  0  0
   57.3440   28.6120   43.6240 C   0  0  0  0  0  0  0  0  0  0  0  0
   58.2230   27.8670   44.5910 C   0  0  0  0  0  0  0  0  0  0  0  0
   57.6710   26.8930   45.4400 C   0  0  0  0  0  0  0  0  0  0  0  0
   58.4800   26.2240   46.3650 C   0  0  0  0  0  0  0  0  0  0  0  0
   59.8390   26.5320   46.4580 C   0  0  0  0  0  0  0  0  0  0  0  0
   60.3950   27.5080   45.6250 C   0  0  0  0  0  0  0  0  0  0  0  0
   59.5900   28.1770   44.6960 C   0  0  0  0  0  0  0  0  0  0  0  0
   56.7370   30.7420   44.8450 N   0  0  0  0  0  0  0  0  0  0  0  0
   57.9960   30.9890   45.5400 C   0  0  0  0  0  0  0  0  0  0  0  0
   58.1510   30.0290   46.7200 C   0  0  0  0  0  0  0  0  0  0  0  0
   59.3620   30.3880   47.5390 C   0  0  0  0  0  0  0  0  0  0  0  0
   59.4050   30.0980   48.9110 C   0  0  0  0  0  0  0  0  0  0  0  0
   60.5460   30.3990   49.6600 C   0  0  0  0  0  0  0  0  0  0  0  0
   61.6650   30.9730   49.0430 C   0  0  0  0  0  0  0  0  0  0  0  0
   63.1110   31.3090   49.9950 S   0  0  0  0  0  0  0  0  0  0  0  0
   64.2210   31.6780   49.0510 O   0  0  0  0  0  0  0  0  0  0  0  0
   63.5220   30.0720   50.7460 O   0  0  0  0  0  0  0  0  0  0  0  0
   62.8400   32.6320   51.1160 N   0  0  0  0  0  0  0  0  0  0  0  0
   63.3400   33.9200   50.5840 C   0  0  0  0  0  0  0  0  0  0  0  0
   62.5270   34.3970   49.3690 C   0  0  0  0  0  0  0  0  0  0  0  0
   61.1020   34.1030   49.5460 N   0  0  0  0  0  0  0  0  0  0  0  0
   60.2230   34.0560   48.4030 C   0  0  0  0  0  0  0  0  0  0  0  0
   60.6430   34.5540   47.1560 C   0  0  0  0  0  0  0  0  0  0  0  0
   59.7760   34.5340   46.0590 C   0  0  0  0  0  0  0  0  0  0  0  0
   58.4850   34.0240   46.1960 C   0  0  0  0  0  0  0  0  0  0  0  0
   58.0550   33.5320   47.4290 C   0  0  0  0  0  0  0  0  0  0  0  0
   58.9160   33.5510   48.5300 C   0  0  0  0  0  0  0  0  0  0  0  0
   60.6120   33.8360   50.9030 C   0  0  0  0  0  0  0  0  0  0  0  0
   61.4140   32.6870   51.5460 C   0  0  0  0  0  0  0  0  0  0  0  0
   61.6300   31.2520   47.6700 C   0  0  0  0  0  0  0  0  0  0  0  0
   60.4860   30.9620   46.9230 C   0  0  0  0  0  0  0  0  0  0  0  0
   56.8079   27.8888   42.9918 H   0  0  0  0  0  0  0  0  0  0  0  0
   57.9742   29.2661   43.0035 H   0  0  0  0  0  0  0  0  0  0  0  0
   56.5988   26.6555   45.3772 H   0  0  0  0  0  0  0  0  0  0  0  0
   58.0451   25.4545   47.0198 H   0  0  0  0  0  0  0  0  0  0  0  0
   60.4728   26.0063   47.1873 H   0  0  0  0  0  0  0  0  0  0  0  0
   61.4654   27.7500   45.7000 H   0  0  0  0  0  0  0  0  0  0  0  0
   60.0286   28.9482   44.0457 H   0  0  0  0  0  0  0  0  0  0  0  0
   58.8315   30.8407   44.8400 H   0  0  0  0  0  0  0  0  0  0  0  0
   57.9981   32.0220   45.9179 H   0  0  0  0  0  0  0  0  0  0  0  0
   57.2546   30.0885   47.3547 H   0  0  0  0  0  0  0  0  0  0  0  0
   58.2752   29.0072   46.3321 H   0  0  0  0  0  0  0  0  0  0  0  0
   58.5367   29.6316   49.3995 H   0  0  0  0  0  0  0  0  0  0  0  0
   60.5654   30.1842   50.7387 H   0  0  0  0  0  0  0  0  0  0  0  0
   63.4170   32.4100   51.9620 H   0  0  0  0  0  0  0  0  0  0  0  0
   63.2742   34.6806   51.3759 H   0  0  0  0  0  0  0  0  0  0  0  0
   64.3805   33.7720   50.2592 H   0  0  0  0  0  0  0  0  0  0  0  0
   62.6589   35.4827   49.2510 H   0  0  0  0  0  0  0  0  0  0  0  0
   62.8871   33.8671   48.4748 H   0  0  0  0  0  0  0  0  0  0  0  0
   61.6586   34.9612   47.0434 H   0  0  0  0  0  0  0  0  0  0  0  0
   60.1128   34.9213   45.0861 H   0  0  0  0  0  0  0  0  0  0  0  0
   57.8052   34.0096   45.3313 H   0  0  0  0  0  0  0  0  0  0  0  0
   57.0371   33.1287   47.5347 H   0  0  0  0  0  0  0  0  0  0  0  0
   58.5696   33.1688   49.5016 H   0  0  0  0  0  0  0  0  0  0  0  0
   60.7246   34.7435   51.5144 H   0  0  0  0  0  0  0  0  0  0  0  0
   59.5522   33.5461   50.8498 H   0  0  0  0  0  0  0  0  0  0  0  0
   61.3862   32.8140   52.6383 H   0  0  0  0  0  0  0  0  0  0  0  0
   60.9450   31.7475   51.2183 H   0  0  0  0  0  0  0  0  0  0  0  0
   62.5062   31.7008   47.1792 H   0  0  0  0  0  0  0  0  0  0  0  0
   60.4653   31.1845   45.8459 H   0  0  0  0  0  0  0  0  0  0  0  0
  1  2  2  0
  2  3  1  0
  3  4  1  0
  4  5  2  0
  5  6  1  0
  6  7  2  0
  7  8  1  0
  8  9  2  0
  2 10  1  0
 10 11  1  0
 11 12  1  0
 12 13  1  0
 13 14  2  0
 14 15  1  0
 15 16  2  0
 16 17  1  0
 17 18  2  0
 17 19  2  0
 17 20  1  0
 20 21  1  0
 21 22  1  0
 22 23  1  0
 23 24  1  0
 24 25  2  0
 25 26  1  0
 26 27  2  0
 27 28  1  0
 28 29  2  0
 23 30  1  0
 30 31  1  0
 16 32  1  0
 32 33  2  0
  9  4  1  0
 33 13  1  0
 31 20  1  0
 29 24  1  0
  3 34  1  0
  3 35  1  0
  5 36  1  0
  6 37  1  0
  7 38  1  0
  8 39  1  0
  9 40  1  0
 11 41  1  0
 11 42  1  0
 12 43  1  0
 12 44  1  0
 14 45  1  0
 15 46  1  0
 20 47  1  0
 21 48  1  0
 21 49  1  0
 22 50  1  0
 22 51  1  0
 25 52  1  0
 26 53  1  0
 27 54  1  0
 28 55  1  0
 29 56  1  0
 30 57  1  0
 30 58  1  0
 31 59  1  0
 31 60  1  0
 32 61  1  0
 33 62  1  0
M  CHG  2  10  -1  20   1
M  END
>  <UniqueID>  (26) 
26

>  <SMILES>  (26) 
O=C(Cc1ccccc1)[N-]CCc1ccc(S(=O)(=O)[NH+]2CCN(c3ccccc3)CC2)cc1

>  <Energy>  (26) 
69.45780978475852

>  <Genealogy>  (26) 
O=C(Cc1ccccc1)[N-]CCc1ccc(S(=O)(=O)[NH+]2CCN(c3ccccc3)CC2)cc1 (protonated)
O=C(Cc1ccccc1)[N-]CCc1ccc(S(=O)(=O)[NH+]2CCN(c3ccccc3)CC2)cc1 (3D coordinates assigned)
O=C(Cc1ccccc1)[N-]CCc1ccc(S(=O)(=O)[NH+]2CCN(c3ccccc3)CC2)cc1 (nonaromatic ring conformer: 69.45780978475852 kcal/mol)

>  <smiles>  (26) 
O=C(Cc1ccccc1)NCCc1ccc(S(=O)(=O)N2CCN(c3ccccc3)CC2)cc1

>  <score_type>  (26) 
oracle

>  <origin>  (26) 
adg

>  <m_score__min__energy>  (26) 
-10.35

>  <m_primary>  (26) 
energy

$$$$
27:0
     RDKit          3D

 49 51  0  0  0  0  0  0  0  0999 V2000
   56.5020   22.9910   42.8480 C   0  0  0  0  0  0  0  0  0  0  0  0
   56.5890   23.7240   44.1550 C   0  0  0  0  0  0  0  0  0  0  0  0
   55.8990   23.2440   45.2780 C   0  0  0  0  0  0  0  0  0  0  0  0
   55.9520   23.9440   46.4840 C   0  0  0  0  0  0  0  0  0  0  0  0
   56.6790   25.1330   46.5780 C   0  0  0  0  0  0  0  0  0  0  0  0
   57.3630   25.6400   45.4570 C   0  0  0  0  0  0  0  0  0  0  0  0
   58.1260   26.9060   45.5510 C   0  0  0  0  0  0  0  0  0  0  0  0
   59.2680   26.9980   45.0210 O   0  0  0  0  0  0  0  0  0  0  0  0
   57.5830   28.0250   46.2650 N   0  0  0  0  0  0  0  0  0  0  0  0
   57.5920   29.3750   45.7810 C   0  0  0  0  0  0  0  0  0  0  0  0
   56.5190   29.9250   45.0490 C   0  0  0  0  0  0  0  0  0  0  0  0
   55.3060   29.1990   44.8300 N   0  0  0  0  0  0  0  0  0  0  0  0
   56.6100   31.2020   44.5900 N   0  0  0  0  0  0  0  0  0  0  0  0
   57.7020   31.9680   44.8420 C   0  0  0  0  0  0  0  0  0  0  0  0
   57.7790   33.6450   44.2250 S   0  0  0  0  0  0  0  0  0  0  0  0
   59.5200   33.8660   44.7100 C   0  0  0  0  0  0  0  0  0  0  0  0
   59.6020   34.0480   46.1920 C   0  0  0  0  0  0  0  0  0  0  0  0
   59.0440   35.0440   46.7250 O   0  0  0  0  0  0  0  0  0  0  0  0
   60.2440   33.0500   47.0000 N   0  0  0  0  0  0  0  0  0  0  0  0
   60.4720   33.1990   48.4140 C   0  0  0  0  0  0  0  0  0  0  0  0
   61.7270   33.6290   48.8840 C   0  0  0  0  0  0  0  0  0  0  0  0
   61.9710   33.7410   50.2550 C   0  0  0  0  0  0  0  0  0  0  0  0
   63.5420   34.2770   50.8260 Cl  0  0  0  0  0  0  0  0  0  0  0  0
   60.9710   33.4130   51.1710 C   0  0  0  0  0  0  0  0  0  0  0  0
   59.7260   32.9710   50.7200 C   0  0  0  0  0  0  0  0  0  0  0  0
   59.4610   32.8660   49.3440 C   0  0  0  0  0  0  0  0  0  0  0  0
   58.1120   32.3830   48.8850 C   0  0  0  0  0  0  0  0  0  0  0  0
   58.7280   31.4680   45.5780 N   0  0  0  0  0  0  0  0  0  0  0  0
   58.6930   30.1980   46.0560 C   0  0  0  0  0  0  0  0  0  0  0  0
   59.6610   29.7620   46.7320 O   0  0  0  0  0  0  0  0  0  0  0  0
   57.3040   24.9290   44.2440 C   0  0  0  0  0  0  0  0  0  0  0  0
   56.3743   21.9152   43.0387 H   0  0  0  0  0  0  0  0  0  0  0  0
   55.6421   23.3662   42.2737 H   0  0  0  0  0  0  0  0  0  0  0  0
   57.4258   23.1545   42.2737 H   0  0  0  0  0  0  0  0  0  0  0  0
   55.3152   22.3143   45.2079 H   0  0  0  0  0  0  0  0  0  0  0  0
   55.4186   23.5575   47.3650 H   0  0  0  0  0  0  0  0  0  0  0  0
   56.7172   25.6764   47.5337 H   0  0  0  0  0  0  0  0  0  0  0  0
   54.4080   29.7160   44.6940 H   0  0  0  0  0  0  0  0  0  0  0  0
   55.2650   28.1590   44.8970 H   0  0  0  0  0  0  0  0  0  0  0  0
   60.0986   32.9777   44.4165 H   0  0  0  0  0  0  0  0  0  0  0  0
   59.9325   34.7530   44.2069 H   0  0  0  0  0  0  0  0  0  0  0  0
   60.4980   32.1430   46.5450 H   0  0  0  0  0  0  0  0  0  0  0  0
   62.5221   33.8789   48.1661 H   0  0  0  0  0  0  0  0  0  0  0  0
   61.1639   33.5028   52.2502 H   0  0  0  0  0  0  0  0  0  0  0  0
   58.9460   32.7027   51.4477 H   0  0  0  0  0  0  0  0  0  0  0  0
   57.4854   32.1586   49.7608 H   0  0  0  0  0  0  0  0  0  0  0  0
   57.6294   33.1642   48.2793 H   0  0  0  0  0  0  0  0  0  0  0  0
   58.2349   31.4730   48.2793 H   0  0  0  0  0  0  0  0  0  0  0  0
   57.8231   25.3211   43.3570 H   0  0  0  0  0  0  0  0  0  0  0  0
  1  2  1  0
  2  3  2  0
  3  4  1  0
  4  5  2  0
  5  6  1  0
  6  7  1  0
  7  8  2  0
  7  9  1  0
  9 10  1  0
 10 11  2  0
 11 12  1  0
 11 13  1  0
 13 14  1  0
 14 15  1  0
 15 16  1  0
 16 17  1  0
 17 18  2  0
 17 19  1  0
 19 20  1  0
 20 21  2  0
 21 22  1  0
 22 23  1  0
 22 24  2  0
 24 25  1  0
 25 26  2  0
 26 27  1  0
 14 28  2  0
 28 29  1  0
 29 30  2  0
  6 31  2  0
 31  2  1  0
 29 10  1  0
 26 20  1  0
  1 32  1  0
  1 33  1  0
  1 34  1  0
  3 35  1  0
  4 36  1  0
  5 37  1  0
 12 38  1  0
 12 39  1  0
 16 40  1  0
 16 41  1  0
 19 42  1  0
 21 43  1  0
 24 44  1  0
 25 45  1  0
 27 46  1  0
 27 47  1  0
 27 48  1  0
 31 49  1  0
M  CHG  2   9  -1  13  -1
M  END
>  <UniqueID>  (27) 
27

>  <SMILES>  (27) 
Cc1cccc(C(=O)[N-]c2c(N)[n-]c(SCC(=O)Nc3cc(Cl)ccc3C)nc2=O)c1

>  <Energy>  (27) 
57.48247943875932

>  <Genealogy>  (27) 
Cc1cccc(C(=O)[N-]c2c(N)[n-]c(SCC(=O)Nc3cc(Cl)ccc3C)nc2=O)c1 (protonated)
Cc1cccc(C(=O)[N-]c2c(N)[n-]c(SCC(=O)Nc3cc(Cl)ccc3C)nc2=O)c1 (3D coordinates assigned)
Cc1cccc(C(=O)[N-]c2c(N)[n-]c(SCC(=O)Nc3cc(Cl)ccc3C)nc2=O)c1 (optimized conformer: 57.48247943875932 kcal/mol)

>  <smiles>  (27) 
Cc1cccc(C(=O)Nc2c(N)[nH]c(SCC(=O)Nc3cc(Cl)ccc3C)nc2=O)c1

>  <score_type>  (27) 
oracle

>  <origin>  (27) 
adg

>  <m_score__min__energy>  (27) 
-12.98

>  <m_primary>  (27) 
energy

$$$$
28:0
     RDKit          3D

 57 59  0  0  0  0  0  0  0  0999 V2000
   59.6530   35.2570   46.0190 C   0  0  0  0  0  0  0  0  0  0  0  0
   58.8440   34.0680   46.3170 N   0  0  0  0  0  0  0  0  0  0  0  0
   57.9210   33.5650   45.2940 C   0  0  0  0  0  0  0  0  0  0  0  0
   58.9360   33.4210   47.6140 C   0  0  0  0  0  0  0  0  0  0  0  0
   59.5470   34.0720   48.7050 C   0  0  0  0  0  0  0  0  0  0  0  0
   59.6360   33.4440   49.9510 C   0  0  0  0  0  0  0  0  0  0  0  0
   59.0990   32.1640   50.1430 C   0  0  0  0  0  0  0  0  0  0  0  0
   59.2180   31.4860   51.4000 N   0  0  0  0  0  0  0  0  0  0  0  0
   58.5670   30.2660   51.7790 C   0  0  0  0  0  0  0  0  0  0  0  0
   57.3110   30.2030   51.6940 O   0  0  0  0  0  0  0  0  0  0  0  0
   59.3210   29.1410   52.4480 C   0  0  0  0  0  0  0  0  0  0  0  0
   60.2670   28.3960   51.4930 C   0  0  0  0  0  0  0  0  0  0  0  0
   60.2340   28.9580   50.1410 N   0  0  0  0  0  0  0  0  0  0  0  0
   59.9970   28.1330   48.9930 C   0  0  0  0  0  0  0  0  0  0  0  0
   60.0300   26.8780   49.1080 O   0  0  0  0  0  0  0  0  0  0  0  0
   59.7320   28.7400   47.6700 C   0  0  0  0  0  0  0  0  0  0  0  0
   60.7350   29.4830   47.0210 C   0  0  0  0  0  0  0  0  0  0  0  0
   60.4910   30.0560   45.7700 C   0  0  0  0  0  0  0  0  0  0  0  0
   59.2560   29.8820   45.1460 C   0  0  0  0  0  0  0  0  0  0  0  0
   58.2540   29.1200   45.7670 C   0  0  0  0  0  0  0  0  0  0  0  0
   56.7300   28.8450   44.9330 S   0  0  0  0  0  0  0  0  0  0  0  0
   57.0280   28.5640   43.4850 O   0  0  0  0  0  0  0  0  0  0  0  0
   55.8580   30.0640   45.0510 O   0  0  0  0  0  0  0  0  0  0  0  0
   55.9140   27.4780   45.6230 N   0  0  0  0  0  0  0  0  0  0  0  0
   56.4690   26.1620   45.7460 C   0  0  0  0  0  0  0  0  0  0  0  0
   55.6200   25.1020   46.0940 C   0  0  0  0  0  0  0  0  0  0  0  0
   56.1290   23.8090   46.2500 C   0  0  0  0  0  0  0  0  0  0  0  0
   57.4910   23.5650   46.0470 C   0  0  0  0  0  0  0  0  0  0  0  0
   57.9860   22.3120   46.2060 F   0  0  0  0  0  0  0  0  0  0  0  0
   58.3400   24.6120   45.6750 C   0  0  0  0  0  0  0  0  0  0  0  0
   57.8340   25.9070   45.5230 C   0  0  0  0  0  0  0  0  0  0  0  0
   58.4900   28.5590   47.0320 C   0  0  0  0  0  0  0  0  0  0  0  0
   58.5250   31.4970   49.0600 C   0  0  0  0  0  0  0  0  0  0  0  0
   58.4320   32.1190   47.8100 C   0  0  0  0  0  0  0  0  0  0  0  0
   59.9733   35.7278   46.9601 H   0  0  0  0  0  0  0  0  0  0  0  0
   60.5383   34.9616   45.4368 H   0  0  0  0  0  0  0  0  0  0  0  0
   59.0532   35.9721   45.4368 H   0  0  0  0  0  0  0  0  0  0  0  0
   57.0552   33.0931   45.7815 H   0  0  0  0  0  0  0  0  0  0  0  0
   57.5781   34.4010   44.6667 H   0  0  0  0  0  0  0  0  0  0  0  0
   58.4376   32.8237   44.6667 H   0  0  0  0  0  0  0  0  0  0  0  0
   59.9578   35.0841   48.5747 H   0  0  0  0  0  0  0  0  0  0  0  0
   60.1315   33.9588   50.7873 H   0  0  0  0  0  0  0  0  0  0  0  0
   59.9157   29.5604   53.2729 H   0  0  0  0  0  0  0  0  0  0  0  0
   58.5763   28.4141   52.8043 H   0  0  0  0  0  0  0  0  0  0  0  0
   61.2933   28.4669   51.8824 H   0  0  0  0  0  0  0  0  0  0  0  0
   59.9359   27.3487   51.4344 H   0  0  0  0  0  0  0  0  0  0  0  0
   60.4120   29.9760   49.9980 H   0  0  0  0  0  0  0  0  0  0  0  0
   61.7162   29.6136   47.5007 H   0  0  0  0  0  0  0  0  0  0  0  0
   61.2762   30.6467   45.2755 H   0  0  0  0  0  0  0  0  0  0  0  0
   59.0667   30.3428   44.1653 H   0  0  0  0  0  0  0  0  0  0  0  0
   54.5466   25.2887   46.2453 H   0  0  0  0  0  0  0  0  0  0  0  0
   55.4584   22.9840   46.5323 H   0  0  0  0  0  0  0  0  0  0  0  0
   59.4085   24.4166   45.5015 H   0  0  0  0  0  0  0  0  0  0  0  0
   58.5048   26.7275   45.2285 H   0  0  0  0  0  0  0  0  0  0  0  0
   57.7004   27.9749   47.5274 H   0  0  0  0  0  0  0  0  0  0  0  0
   58.1425   30.4739   49.1900 H   0  0  0  0  0  0  0  0  0  0  0  0
   57.9605   31.5862   46.9711 H   0  0  0  0  0  0  0  0  0  0  0  0
  1  2  1  0
  2  3  1  0
  2  4  1  0
  4  5  2  0
  5  6  1  0
  6  7  2  0
  7  8  1  0
  8  9  1  0
  9 10  2  0
  9 11  1  0
 11 12  1  0
 12 13  1  0
 13 14  1  0
 14 15  2  0
 14 16  1  0
 16 17  2  0
 17 18  1  0
 18 19  2  0
 19 20  1  0
 20 21  1  0
 21 22  2  0
 21 23  2  0
 21 24  1  0
 24 25  1  0
 25 26  2  0
 26 27  1  0
 27 28  2  0
 28 29  1  0
 28 30  1  0
 30 31  2  0
 20 32  2  0
  7 33  1  0
 33 34  2  0
 34  4  1  0
 32 16  1  0
 31 25  1  0
  1 35  1  0
  1 36  1  0
  1 37  1  0
  3 38  1  0
  3 39  1  0
  3 40  1  0
  5 41  1  0
  6 42  1  0
 11 43  1  0
 11 44  1  0
 12 45  1  0
 12 46  1  0
 13 47  1  0
 17 48  1  0
 18 49  1  0
 19 50  1  0
 26 51  1  0
 27 52  1  0
 30 53  1  0
 31 54  1  0
 32 55  1  0
 33 56  1  0
 34 57  1  0
M  CHG  2   8  -1  24  -1
M  END
>  <UniqueID>  (28) 
28

>  <SMILES>  (28) 
CN(C)c1ccc([N-]C(=O)CCNC(=O)c2cccc(S(=O)(=O)[N-]c3ccc(F)cc3)c2)cc1

>  <Energy>  (28) 
69.81133036062444

>  <Genealogy>  (28) 
CN(C)c1ccc([N-]C(=O)CCNC(=O)c2cccc(S(=O)(=O)[N-]c3ccc(F)cc3)c2)cc1 (protonated)
CN(C)c1ccc([N-]C(=O)CCNC(=O)c2cccc(S(=O)(=O)[N-]c3ccc(F)cc3)c2)cc1 (3D coordinates assigned)
CN(C)c1ccc([N-]C(=O)CCNC(=O)c2cccc(S(=O)(=O)[N-]c3ccc(F)cc3)c2)cc1 (optimized conformer: 69.81133036062444 kcal/mol)

>  <smiles>  (28) 
CN(C)c1ccc(NC(=O)CCNC(=O)c2cccc(S(=O)(=O)Nc3ccc(F)cc3)c2)cc1

>  <score_type>  (28) 
oracle

>  <origin>  (28) 
adg

>  <m_score__min__energy>  (28) 
-11.279999999999999

>  <m_primary>  (28) 
energy

$$$$
29:0
     RDKit          3D

 45 47  0  0  0  0  0  0  0  0999 V2000
   54.7660   26.3340   45.9500 O   0  0  0  0  0  0  0  0  0  0  0  0
   55.8820   25.8830   46.3210 C   0  0  0  0  0  0  0  0  0  0  0  0
   55.9390   24.6260   46.9130 O   0  0  0  0  0  0  0  0  0  0  0  0
   57.1160   26.6770   46.1290 C   0  0  0  0  0  0  0  0  0  0  0  0
   57.3790   27.2940   44.8940 C   0  0  0  0  0  0  0  0  0  0  0  0
   58.5420   28.0460   44.7100 C   0  0  0  0  0  0  0  0  0  0  0  0
   59.4580   28.2050   45.7620 C   0  0  0  0  0  0  0  0  0  0  0  0
   60.7170   29.0080   45.5560 C   0  0  0  0  0  0  0  0  0  0  0  0
   60.6390   30.3060   46.2550 N   0  0  0  0  0  0  0  0  0  0  0  0
   60.6790   30.1090   47.7190 C   0  0  0  0  0  0  0  0  0  0  0  0
   61.8390   30.8500   48.3330 C   0  0  0  0  0  0  0  0  0  0  0  0
   62.1200   30.7230   49.7030 C   0  0  0  0  0  0  0  0  0  0  0  0
   63.2050   31.4030   50.2660 C   0  0  0  0  0  0  0  0  0  0  0  0
   64.0230   32.2050   49.4630 C   0  0  0  0  0  0  0  0  0  0  0  0
   65.5030   33.1340   50.2340 Br  0  0  0  0  0  0  0  0  0  0  0  0
   63.7590   32.3210   48.0950 C   0  0  0  0  0  0  0  0  0  0  0  0
   62.6760   31.6420   47.5290 C   0  0  0  0  0  0  0  0  0  0  0  0
   59.1880   31.1810   45.7840 S   0  0  0  0  0  0  0  0  0  0  0  0
   58.0190   30.6990   46.5980 O   0  0  0  0  0  0  0  0  0  0  0  0
   58.8760   30.9040   44.3400 O   0  0  0  0  0  0  0  0  0  0  0  0
   59.3600   32.9240   46.0080 C   0  0  0  0  0  0  0  0  0  0  0  0
   59.7010   33.4450   47.2640 C   0  0  0  0  0  0  0  0  0  0  0  0
   59.8370   34.8260   47.4410 C   0  0  0  0  0  0  0  0  0  0  0  0
   59.6380   35.6920   46.3610 C   0  0  0  0  0  0  0  0  0  0  0  0
   59.3080   35.1780   45.1040 C   0  0  0  0  0  0  0  0  0  0  0  0
   59.1730   33.7970   44.9260 C   0  0  0  0  0  0  0  0  0  0  0  0
   59.2080   27.5750   46.9900 C   0  0  0  0  0  0  0  0  0  0  0  0
   58.0440   26.8220   47.1750 C   0  0  0  0  0  0  0  0  0  0  0  0
   56.6636   27.1840   44.0657 H   0  0  0  0  0  0  0  0  0  0  0  0
   58.7411   28.5160   43.7356 H   0  0  0  0  0  0  0  0  0  0  0  0
   61.5737   28.4399   45.9475 H   0  0  0  0  0  0  0  0  0  0  0  0
   60.8387   29.1974   44.4793 H   0  0  0  0  0  0  0  0  0  0  0  0
   59.7416   30.4816   48.1577 H   0  0  0  0  0  0  0  0  0  0  0  0
   60.8011   29.0353   47.9246 H   0  0  0  0  0  0  0  0  0  0  0  0
   61.4844   30.0863   50.3359 H   0  0  0  0  0  0  0  0  0  0  0  0
   63.4153   31.3070   51.3414 H   0  0  0  0  0  0  0  0  0  0  0  0
   64.4049   32.9479   47.4626 H   0  0  0  0  0  0  0  0  0  0  0  0
   62.4784   31.7281   46.4503 H   0  0  0  0  0  0  0  0  0  0  0  0
   59.8623   32.7653   48.1137 H   0  0  0  0  0  0  0  0  0  0  0  0
   60.1004   35.2307   48.4294 H   0  0  0  0  0  0  0  0  0  0  0  0
   59.7413   36.7782   46.5010 H   0  0  0  0  0  0  0  0  0  0  0  0
   59.1544   35.8595   44.2543 H   0  0  0  0  0  0  0  0  0  0  0  0
   58.9194   33.3943   43.9343 H   0  0  0  0  0  0  0  0  0  0  0  0
   59.9317   27.6737   47.8125 H   0  0  0  0  0  0  0  0  0  0  0  0
   57.8534   26.3401   48.1453 H   0  0  0  0  0  0  0  0  0  0  0  0
  1  2  2  0
  2  3  1  0
  2  4  1  0
  4  5  2  0
  5  6  1  0
  6  7  2  0
  7  8  1  0
  8  9  1  0
  9 10  1  0
 10 11  1  0
 11 12  2  0
 12 13  1  0
 13 14  2  0
 14 15  1  0
 14 16  1  0
 16 17  2  0
  9 18  1  0
 18 19  2  0
 18 20  2  0
 18 21  1  0
 21 22  2  0
 22 23  1  0
 23 24  2  0
 24 25  1  0
 25 26  2  0
  7 27  1  0
 27 28  2  0
 28  4  1  0
 17 11  1  0
 26 21  1  0
  5 29  1  0
  6 30  1  0
  8 31  1  0
  8 32  1  0
 10 33  1  0
 10 34  1  0
 12 35  1  0
 13 36  1  0
 16 37  1  0
 17 38  1  0
 22 39  1  0
 23 40  1  0
 24 41  1  0
 25 42  1  0
 26 43  1  0
 27 44  1  0
 28 45  1  0
M  CHG  1   3  -1
M  END
>  <UniqueID>  (29) 
29

>  <SMILES>  (29) 
O=C([O-])c1ccc(CN(Cc2ccc(Br)cc2)S(=O)(=O)c2ccccc2)cc1

>  <Energy>  (29) 
47.35658285121946

>  <Genealogy>  (29) 
O=C([O-])c1ccc(CN(Cc2ccc(Br)cc2)S(=O)(=O)c2ccccc2)cc1 (protonated)
O=C([O-])c1ccc(CN(Cc2ccc(Br)cc2)S(=O)(=O)c2ccccc2)cc1 (3D coordinates assigned)
O=C([O-])c1ccc(CN(Cc2ccc(Br)cc2)S(=O)(=O)c2ccccc2)cc1 (optimized conformer: 47.35658285121946 kcal/mol)

>  <smiles>  (29) 
O=C(O)c1ccc(CN(Cc2ccc(Br)cc2)S(=O)(=O)c2ccccc2)cc1

>  <score_type>  (29) 
oracle

>  <origin>  (29) 
adg

>  <m_score__min__energy>  (29) 
-11.74

>  <m_primary>  (29) 
energy

$$$$
30:0
     RDKit          3D

 57 60  0  0  0  0  0  0  0  0999 V2000
   57.7950   27.8870   43.2070 N   0  0  0  0  0  0  0  0  0  0  0  0
   57.3940   29.3180   44.0930 S   0  0  0  0  0  0  0  0  0  0  0  0
   57.5600   30.5220   43.2070 O   0  0  0  0  0  0  0  0  0  0  0  0
   55.9610   29.2240   44.5460 O   0  0  0  0  0  0  0  0  0  0  0  0
   58.4540   29.4690   45.4910 C   0  0  0  0  0  0  0  0  0  0  0  0
   59.5540   28.6180   45.6330 C   0  0  0  0  0  0  0  0  0  0  0  0
   60.3990   28.7480   46.7330 C   0  0  0  0  0  0  0  0  0  0  0  0
   60.1770   29.7450   47.6940 C   0  0  0  0  0  0  0  0  0  0  0  0
   61.3480   29.8880   49.0610 S   0  0  0  0  0  0  0  0  0  0  0  0
   62.0440   31.4480   48.4840 C   0  0  0  0  0  0  0  0  0  0  0  0
   62.7650   31.4480   47.2800 C   0  0  0  0  0  0  0  0  0  0  0  0
   63.2800   32.6390   46.7660 C   0  0  0  0  0  0  0  0  0  0  0  0
   63.0880   33.8380   47.4540 C   0  0  0  0  0  0  0  0  0  0  0  0
   62.3960   33.8470   48.6660 C   0  0  0  0  0  0  0  0  0  0  0  0
   61.8750   32.6560   49.1980 C   0  0  0  0  0  0  0  0  0  0  0  0
   61.2230   32.6860   50.4780 N   0  0  0  0  0  0  0  0  0  0  0  0
   61.5660   31.6840   51.4930 C   0  0  0  0  0  0  0  0  0  0  0  0
   60.3580   30.7750   51.7880 C   0  0  0  0  0  0  0  0  0  0  0  0
   59.0480   31.4620   51.7270 N   0  0  0  0  0  0  0  0  0  0  0  0
   59.1460   32.9290   51.7950 C   0  0  0  0  0  0  0  0  0  0  0  0
   59.9890   33.4680   50.6300 C   0  0  0  0  0  0  0  0  0  0  0  0
   59.0390   30.5830   47.5880 C   0  0  0  0  0  0  0  0  0  0  0  0
   58.7360   31.5510   48.6160 N   0  0  0  0  0  0  0  0  0  0  0  0
   57.8770   32.7160   48.3960 C   0  0  0  0  0  0  0  0  0  0  0  0
   58.3000   33.4820   47.1680 C   0  0  0  0  0  0  0  0  0  0  0  0
   59.4950   34.2230   47.1760 C   0  0  0  0  0  0  0  0  0  0  0  0
   59.8970   34.9260   46.0340 C   0  0  0  0  0  0  0  0  0  0  0  0
   59.1040   34.9000   44.8800 C   0  0  0  0  0  0  0  0  0  0  0  0
   57.9070   34.1760   44.8680 C   0  0  0  0  0  0  0  0  0  0  0  0
   57.5060   33.4670   46.0060 C   0  0  0  0  0  0  0  0  0  0  0  0
   58.1880   30.4300   46.4720 C   0  0  0  0  0  0  0  0  0  0  0  0
   58.2810   28.1910   42.3340 H   0  0  0  0  0  0  0  0  0  0  0  0
   56.8910   27.4520   42.9090 H   0  0  0  0  0  0  0  0  0  0  0  0
   59.7525   27.8453   44.8757 H   0  0  0  0  0  0  0  0  0  0  0  0
   61.2500   28.0608   46.8491 H   0  0  0  0  0  0  0  0  0  0  0  0
   62.9251   30.5041   46.7384 H   0  0  0  0  0  0  0  0  0  0  0  0
   63.8377   32.6327   45.8179 H   0  0  0  0  0  0  0  0  0  0  0  0
   63.4828   34.7777   47.0403 H   0  0  0  0  0  0  0  0  0  0  0  0
   62.2576   34.7938   49.2086 H   0  0  0  0  0  0  0  0  0  0  0  0
   62.4004   31.0684   51.1257 H   0  0  0  0  0  0  0  0  0  0  0  0
   61.8542   32.2022   52.4195 H   0  0  0  0  0  0  0  0  0  0  0  0
   60.3533   29.9586   51.0508 H   0  0  0  0  0  0  0  0  0  0  0  0
   60.4781   30.4179   52.8215 H   0  0  0  0  0  0  0  0  0  0  0  0
   58.5770   31.2010   50.8290 H   0  0  0  0  0  0  0  0  0  0  0  0
   58.1362   33.3618   51.7413 H   0  0  0  0  0  0  0  0  0  0  0  0
   59.6296   33.2090   52.7425 H   0  0  0  0  0  0  0  0  0  0  0  0
   59.4039   33.4039   49.7007 H   0  0  0  0  0  0  0  0  0  0  0  0
   60.2564   34.5140   50.8407 H   0  0  0  0  0  0  0  0  0  0  0  0
   59.1560   31.4320   49.5640 H   0  0  0  0  0  0  0  0  0  0  0  0
   56.8386   32.3768   48.2671 H   0  0  0  0  0  0  0  0  0  0  0  0
   57.9627   33.3812   49.2679 H   0  0  0  0  0  0  0  0  0  0  0  0
   60.1165   34.2504   48.0832 H   0  0  0  0  0  0  0  0  0  0  0  0
   60.8360   35.4989   46.0431 H   0  0  0  0  0  0  0  0  0  0  0  0
   59.4227   35.4495   43.9820 H   0  0  0  0  0  0  0  0  0  0  0  0
   57.2808   34.1640   43.9637 H   0  0  0  0  0  0  0  0  0  0  0  0
   56.5662   32.8955   45.9923 H   0  0  0  0  0  0  0  0  0  0  0  0
   57.3031   31.0758   46.3725 H   0  0  0  0  0  0  0  0  0  0  0  0
  1  2  1  0
  2  3  2  0
  2  4  2  0
  2  5  1  0
  5  6  2  0
  6  7  1  0
  7  8  2  0
  8  9  1  0
  9 10  1  0
 10 11  2  0
 11 12  1  0
 12 13  2  0
 13 14  1  0
 14 15  2  0
 15 16  1  0
 16 17  1  0
 17 18  1  0
 18 19  1  0
 19 20  1  0
 20 21  1  0
  8 22  1  0
 22 23  1  0
 23 24  1  0
 24 25  1  0
 25 26  2  0
 26 27  1  0
 27 28  2  0
 28 29  1  0
 29 30  2  0
 22 31  2  0
 31  5  1  0
 15 10  1  0
 21 16  1  0
 30 25  1  0
  1 32  1  0
  1 33  1  0
  6 34  1  0
  7 35  1  0
 11 36  1  0
 12 37  1  0
 13 38  1  0
 14 39  1  0
 17 40  1  0
 17 41  1  0
 18 42  1  0
 18 43  1  0
 19 44  1  0
 20 45  1  0
 20 46  1  0
 21 47  1  0
 21 48  1  0
 23 49  1  0
 24 50  1  0
 24 51  1  0
 26 52  1  0
 27 53  1  0
 28 54  1  0
 29 55  1  0
 30 56  1  0
 31 57  1  0
M  END
>  <UniqueID>  (30) 
30

>  <SMILES>  (30) 
NS(=O)(=O)c1ccc(Sc2ccccc2N2CCNCC2)c(NCc2ccccc2)c1

>  <Energy>  (30) 
63.14996218603807

>  <Genealogy>  (30) 
NS(=O)(=O)c1ccc(Sc2ccccc2N2CCNCC2)c(NCc2ccccc2)c1 (3D coordinates assigned)
NS(=O)(=O)c1ccc(Sc2ccccc2N2CCNCC2)c(NCc2ccccc2)c1 (nonaromatic ring conformer: 63.14996218603807 kcal/mol)

>  <smiles>  (30) 
NS(=O)(=O)c1ccc(Sc2ccccc2N2CCNCC2)c(NCc2ccccc2)c1

>  <score_type>  (30) 
oracle

>  <origin>  (30) 
adg

>  <m_score__min__energy>  (30) 
-9.6600000000000001

>  <m_primary>  (30) 
energy

$$$$
31:0
     RDKit          3D

 51 55  0  0  0  0  0  0  0  0999 V2000
   56.9430   34.5710   44.7020 O   0  0  0  0  0  0  0  0  0  0  0  0
   57.8880   34.0200   45.3250 C   0  0  0  0  0  0  0  0  0  0  0  0
   58.4030   34.6380   46.5080 N   0  0  0  0  0  0  0  0  0  0  0  0
   59.6340   34.2500   47.1280 C   0  0  0  0  0  0  0  0  0  0  0  0
   59.6530   33.9310   48.4890 C   0  0  0  0  0  0  0  0  0  0  0  0
   60.8490   33.5620   49.1120 C   0  0  0  0  0  0  0  0  0  0  0  0
   62.0430   33.4950   48.3740 C   0  0  0  0  0  0  0  0  0  0  0  0
   63.2680   33.1090   49.0190 N   0  0  0  0  0  0  0  0  0  0  0  0
   64.1100   32.1200   48.6260 C   0  0  0  0  0  0  0  0  0  0  0  0
   65.2030   31.9950   49.4220 N   0  0  0  0  0  0  0  0  0  0  0  0
   65.0160   32.9500   50.3500 C   0  0  0  0  0  0  0  0  0  0  0  0
   65.8350   33.2480   51.4360 C   0  0  0  0  0  0  0  0  0  0  0  0
   65.4260   34.2770   52.3050 C   0  0  0  0  0  0  0  0  0  0  0  0
   64.2120   34.9650   52.0780 C   0  0  0  0  0  0  0  0  0  0  0  0
   63.4000   34.6330   50.9780 C   0  0  0  0  0  0  0  0  0  0  0  0
   63.8510   33.6250   50.1160 C   0  0  0  0  0  0  0  0  0  0  0  0
   62.0120   33.7680   47.0000 C   0  0  0  0  0  0  0  0  0  0  0  0
   60.8200   34.1450   46.3790 C   0  0  0  0  0  0  0  0  0  0  0  0
   58.4650   32.8020   44.8450 N   0  0  0  0  0  0  0  0  0  0  0  0
   57.6880   31.7690   44.2240 C   0  0  0  0  0  0  0  0  0  0  0  0
   57.4000   31.7940   42.8500 C   0  0  0  0  0  0  0  0  0  0  0  0
   56.6680   30.7510   42.2680 C   0  0  0  0  0  0  0  0  0  0  0  0
   56.2080   29.6900   43.0560 C   0  0  0  0  0  0  0  0  0  0  0  0
   56.4750   29.6640   44.4330 C   0  0  0  0  0  0  0  0  0  0  0  0
   56.0080   28.5820   45.1930 O   0  0  0  0  0  0  0  0  0  0  0  0
   56.7910   27.4980   45.6170 C   0  0  0  0  0  0  0  0  0  0  0  0
   56.2140   26.2940   46.0640 C   0  0  0  0  0  0  0  0  0  0  0  0
   57.0280   25.2420   46.4960 C   0  0  0  0  0  0  0  0  0  0  0  0
   58.4180   25.3780   46.4720 C   0  0  0  0  0  0  0  0  0  0  0  0
   58.9980   26.5630   46.0030 C   0  0  0  0  0  0  0  0  0  0  0  0
   58.1860   27.6140   45.5680 C   0  0  0  0  0  0  0  0  0  0  0  0
   57.2460   30.6920   45.0030 C   0  0  0  0  0  0  0  0  0  0  0  0
   58.7217   33.9705   49.0730 H   0  0  0  0  0  0  0  0  0  0  0  0
   60.8554   33.3228   50.1857 H   0  0  0  0  0  0  0  0  0  0  0  0
   63.9253   31.4823   47.7489 H   0  0  0  0  0  0  0  0  0  0  0  0
   66.7712   32.6971   51.6092 H   0  0  0  0  0  0  0  0  0  0  0  0
   66.0548   34.5475   53.1660 H   0  0  0  0  0  0  0  0  0  0  0  0
   63.9003   35.7649   52.7657 H   0  0  0  0  0  0  0  0  0  0  0  0
   62.4439   35.1473   50.8009 H   0  0  0  0  0  0  0  0  0  0  0  0
   62.9341   33.6846   46.4061 H   0  0  0  0  0  0  0  0  0  0  0  0
   60.8081   34.3607   45.3004 H   0  0  0  0  0  0  0  0  0  0  0  0
   59.4010   32.5340   45.2240 H   0  0  0  0  0  0  0  0  0  0  0  0
   57.7493   32.6330   42.2303 H   0  0  0  0  0  0  0  0  0  0  0  0
   56.4543   30.7660   41.1891 H   0  0  0  0  0  0  0  0  0  0  0  0
   55.6346   28.8729   42.5938 H   0  0  0  0  0  0  0  0  0  0  0  0
   55.1199   26.1805   46.0735 H   0  0  0  0  0  0  0  0  0  0  0  0
   56.5733   24.3069   46.8549 H   0  0  0  0  0  0  0  0  0  0  0  0
   59.0572   24.5539   46.8217 H   0  0  0  0  0  0  0  0  0  0  0  0
   60.0928   26.6667   45.9769 H   0  0  0  0  0  0  0  0  0  0  0  0
   58.6450   28.5374   45.1850 H   0  0  0  0  0  0  0  0  0  0  0  0
   57.5048   30.6502   46.0713 H   0  0  0  0  0  0  0  0  0  0  0  0
  1  2  2  0
  2  3  1  0
  3  4  1  0
  4  5  2  0
  5  6  1  0
  6  7  2  0
  7  8  1  0
  8  9  1  0
  9 10  2  0
 10 11  1  0
 11 12  2  0
 12 13  1  0
 13 14  2  0
 14 15  1  0
 15 16  2  0
  7 17  1  0
 17 18  2  0
  2 19  1  0
 19 20  1  0
 20 21  2  0
 21 22  1  0
 22 23  2  0
 23 24  1  0
 24 25  1  0
 25 26  1  0
 26 27  2  0
 27 28  1  0
 28 29  2  0
 29 30  1  0
 30 31  2  0
 24 32  2  0
 18  4  1  0
 32 20  1  0
 16  8  1  0
 31 26  1  0
 16 11  1  0
  5 33  1  0
  6 34  1  0
  9 35  1  0
 12 36  1  0
 13 37  1  0
 14 38  1  0
 15 39  1  0
 17 40  1  0
 18 41  1  0
 19 42  1  0
 21 43  1  0
 22 44  1  0
 23 45  1  0
 27 46  1  0
 28 47  1  0
 29 48  1  0
 30 49  1  0
 31 50  1  0
 32 51  1  0
M  CHG  1   3  -1
M  END
>  <UniqueID>  (31) 
31

>  <SMILES>  (31) 
O=C([N-]c1ccc(-n2cnc3ccccc32)cc1)Nc1cccc(Oc2ccccc2)c1

>  <Energy>  (31) 
114.24638303277062

>  <Genealogy>  (31) 
O=C([N-]c1ccc(-n2cnc3ccccc32)cc1)Nc1cccc(Oc2ccccc2)c1 (protonated)
O=C([N-]c1ccc(-n2cnc3ccccc32)cc1)Nc1cccc(Oc2ccccc2)c1 (3D coordinates assigned)
O=C([N-]c1ccc(-n2cnc3ccccc32)cc1)Nc1cccc(Oc2ccccc2)c1 (optimized conformer: 114.24638303277062 kcal/mol)

>  <smiles>  (31) 
O=C(Nc1ccc(-n2cnc3ccccc32)cc1)Nc1cccc(Oc2ccccc2)c1

>  <score_type>  (31) 
oracle

>  <origin>  (31) 
adg

>  <m_score__min__energy>  (31) 
-10.609999999999999

>  <m_primary>  (31) 
energy

$$$$
32:0
     RDKit          3D

 61 65  0  0  0  0  0  0  0  0999 V2000
   56.2420   20.9690   43.9850 O   0  0  0  0  0  0  0  0  0  0  0  0
   56.1670   22.2070   43.7650 C   0  0  0  0  0  0  0  0  0  0  0  0
   55.5740   22.6470   42.5870 O   0  0  0  0  0  0  0  0  0  0  0  0
   56.6990   23.1800   44.7440 C   0  0  0  0  0  0  0  0  0  0  0  0
   57.1180   22.7520   46.0120 C   0  0  0  0  0  0  0  0  0  0  0  0
   57.6210   23.6640   46.9400 C   0  0  0  0  0  0  0  0  0  0  0  0
   57.7010   25.0320   46.6270 C   0  0  0  0  0  0  0  0  0  0  0  0
   58.2750   25.9730   47.5500 N   0  0  0  0  0  0  0  0  0  0  0  0
   59.5110   26.6840   47.4030 C   0  0  0  0  0  0  0  0  0  0  0  0
   60.6090   26.0820   47.5460 O   0  0  0  0  0  0  0  0  0  0  0  0
   59.4960   28.1430   47.1430 C   0  0  0  0  0  0  0  0  0  0  0  0
   60.4130   28.7170   46.2440 C   0  0  0  0  0  0  0  0  0  0  0  0
   60.4010   30.0930   46.0020 C   0  0  0  0  0  0  0  0  0  0  0  0
   59.4670   30.9210   46.6460 C   0  0  0  0  0  0  0  0  0  0  0  0
   59.4560   32.3810   46.3920 C   0  0  0  0  0  0  0  0  0  0  0  0
   58.6690   32.8760   45.3370 C   0  0  0  0  0  0  0  0  0  0  0  0
   58.5790   34.2490   45.1000 C   0  0  0  0  0  0  0  0  0  0  0  0
   59.2740   35.1450   45.9100 C   0  0  0  0  0  0  0  0  0  0  0  0
   60.0690   34.6730   46.9560 C   0  0  0  0  0  0  0  0  0  0  0  0
   60.1760   33.2940   47.2080 C   0  0  0  0  0  0  0  0  0  0  0  0
   61.0870   32.8270   48.2780 C   0  0  0  0  0  0  0  0  0  0  0  0
   60.6420   32.6930   49.4510 O   0  0  0  0  0  0  0  0  0  0  0  0
   62.4570   32.5060   47.9830 N   0  0  0  0  0  0  0  0  0  0  0  0
   63.4670   32.3140   48.9870 C   0  0  0  0  0  0  0  0  0  0  0  0
   64.6390   33.0940   49.0080 C   0  0  0  0  0  0  0  0  0  0  0  0
   65.6180   32.8680   49.9820 C   0  0  0  0  0  0  0  0  0  0  0  0
   65.4430   31.8590   50.9300 C   0  0  0  0  0  0  0  0  0  0  0  0
   64.2940   31.0650   50.9030 C   0  0  0  0  0  0  0  0  0  0  0  0
   63.3130   31.2870   49.9310 C   0  0  0  0  0  0  0  0  0  0  0  0
   58.5600   30.3520   47.5530 C   0  0  0  0  0  0  0  0  0  0  0  0
   58.5700   28.9770   47.7960 C   0  0  0  0  0  0  0  0  0  0  0  0
   57.2970   25.4730   45.3480 C   0  0  0  0  0  0  0  0  0  0  0  0
   57.3850   26.9040   44.9660 C   0  0  0  0  0  0  0  0  0  0  0  0
   56.4590   27.8310   45.4770 C   0  0  0  0  0  0  0  0  0  0  0  0
   56.5380   29.1810   45.1170 C   0  0  0  0  0  0  0  0  0  0  0  0
   57.5430   29.6170   44.2500 C   0  0  0  0  0  0  0  0  0  0  0  0
   58.4740   28.7050   43.7450 C   0  0  0  0  0  0  0  0  0  0  0  0
   58.4000   27.3560   44.1030 C   0  0  0  0  0  0  0  0  0  0  0  0
   56.8000   24.5440   44.4190 C   0  0  0  0  0  0  0  0  0  0  0  0
   57.0494   21.6867   46.2774 H   0  0  0  0  0  0  0  0  0  0  0  0
   57.9580   23.3095   47.9253 H   0  0  0  0  0  0  0  0  0  0  0  0
   61.1447   28.0781   45.7279 H   0  0  0  0  0  0  0  0  0  0  0  0
   61.1281   30.5309   45.3023 H   0  0  0  0  0  0  0  0  0  0  0  0
   58.1190   32.1747   44.6922 H   0  0  0  0  0  0  0  0  0  0  0  0
   57.9586   34.6240   44.2727 H   0  0  0  0  0  0  0  0  0  0  0  0
   59.1960   36.2265   45.7248 H   0  0  0  0  0  0  0  0  0  0  0  0
   60.6168   35.3867   47.5889 H   0  0  0  0  0  0  0  0  0  0  0  0
   62.7380   32.3780   46.9840 H   0  0  0  0  0  0  0  0  0  0  0  0
   64.7855   33.8836   48.2563 H   0  0  0  0  0  0  0  0  0  0  0  0
   66.5272   33.4869   50.0004 H   0  0  0  0  0  0  0  0  0  0  0  0
   66.2106   31.6887   51.6993 H   0  0  0  0  0  0  0  0  0  0  0  0
   64.1607   30.2651   51.6462 H   0  0  0  0  0  0  0  0  0  0  0  0
   62.4148   30.6524   49.9063 H   0  0  0  0  0  0  0  0  0  0  0  0
   57.8359   30.9937   48.0763 H   0  0  0  0  0  0  0  0  0  0  0  0
   57.8483   28.5425   48.5034 H   0  0  0  0  0  0  0  0  0  0  0  0
   55.6685   27.4931   46.1633 H   0  0  0  0  0  0  0  0  0  0  0  0
   55.8078   29.8998   45.5172 H   0  0  0  0  0  0  0  0  0  0  0  0
   57.6016   30.6778   43.9649 H   0  0  0  0  0  0  0  0  0  0  0  0
   59.2665   29.0496   43.0645 H   0  0  0  0  0  0  0  0  0  0  0  0
   59.1394   26.6438   43.7079 H   0  0  0  0  0  0  0  0  0  0  0  0
   56.4853   24.8887   43.4229 H   0  0  0  0  0  0  0  0  0  0  0  0
  1  2  2  0
  2  3  1  0
  2  4  1  0
  4  5  2  0
  5  6  1  0
  6  7  2  0
  7  8  1  0
  8  9  1  0
  9 10  2  0
  9 11  1  0
 11 12  2  0
 12 13  1  0
 13 14  2  0
 14 15  1  0
 15 16  2  0
 16 17  1  0
 17 18  2  0
 18 19  1  0
 19 20  2  0
 20 21  1  0
 21 22  2  0
 21 23  1  0
 23 24  1  0
 24 25  2  0
 25 26  1  0
 26 27  2  0
 27 28  1  0
 28 29  2  0
 14 30  1  0
 30 31  2  0
  7 32  1  0
 32 33  1  0
 33 34  2  0
 34 35  1  0
 35 36  2  0
 36 37  1  0
 37 38  2  0
 32 39  2  0
 39  4  1  0
 31 11  1  0
 38 33  1  0
 20 15  1  0
 29 24  1  0
  5 40  1  0
  6 41  1  0
 12 42  1  0
 13 43  1  0
 16 44  1  0
 17 45  1  0
 18 46  1  0
 19 47  1  0
 23 48  1  0
 25 49  1  0
 26 50  1  0
 27 51  1  0
 28 52  1  0
 29 53  1  0
 30 54  1  0
 31 55  1  0
 34 56  1  0
 35 57  1  0
 36 58  1  0
 37 59  1  0
 38 60  1  0
 39 61  1  0
M  CHG  2   3  -1   8  -1
M  END
>  <UniqueID>  (32) 
32

>  <SMILES>  (32) 
O=C([O-])c1ccc([N-]C(=O)c2ccc(-c3ccccc3C(=O)Nc3ccccc3)cc2)c(-c2ccccc2)c1

>  <Energy>  (32) 
94.47054375813205

>  <Genealogy>  (32) 
O=C([O-])c1ccc([N-]C(=O)c2ccc(-c3ccccc3C(=O)Nc3ccccc3)cc2)c(-c2ccccc2)c1 (protonated)
O=C([O-])c1ccc([N-]C(=O)c2ccc(-c3ccccc3C(=O)Nc3ccccc3)cc2)c(-c2ccccc2)c1 (3D coordinates assigned)
O=C([O-])c1ccc([N-]C(=O)c2ccc(-c3ccccc3C(=O)Nc3ccccc3)cc2)c(-c2ccccc2)c1 (optimized conformer: 94.47054375813205 kcal/mol)

>  <smiles>  (32) 
O=C(O)c1ccc(NC(=O)c2ccc(-c3ccccc3C(=O)Nc3ccccc3)cc2)c(-c2ccccc2)c1

>  <score_type>  (32) 
oracle

>  <origin>  (32) 
adg

>  <m_score__min__energy>  (32) 
-13.09

>  <m_primary>  (32) 
energy

$$$$
33:0
     RDKit          3D

 32 34  0  0  0  0  0  0  0  0999 V2000
   56.3950   26.1940   46.3470 O   0  0  0  0  0  0  0  0  0  0  0  0
   57.0280   26.7230   45.3930 C   0  0  0  0  0  0  0  0  0  0  0  0
   57.3480   25.9400   44.2310 N   0  0  0  0  0  0  0  0  0  0  0  0
   57.4150   24.5030   44.2290 C   0  0  0  0  0  0  0  0  0  0  0  0
   58.2330   23.8500   45.1650 C   0  0  0  0  0  0  0  0  0  0  0  0
   58.2970   22.4520   45.1960 C   0  0  0  0  0  0  0  0  0  0  0  0
   57.5360   21.6970   44.3010 C   0  0  0  0  0  0  0  0  0  0  0  0
   56.7030   22.3370   43.3790 C   0  0  0  0  0  0  0  0  0  0  0  0
   56.6360   23.7330   43.3450 C   0  0  0  0  0  0  0  0  0  0  0  0
   57.3870   28.1600   45.4650 C   0  0  0  0  0  0  0  0  0  0  0  0
   58.5310   28.5910   46.1550 C   0  0  0  0  0  0  0  0  0  0  0  0
   58.8470   29.9500   46.2180 C   0  0  0  0  0  0  0  0  0  0  0  0
   58.0130   30.8880   45.5860 C   0  0  0  0  0  0  0  0  0  0  0  0
   58.2980   32.3460   45.6180 C   0  0  0  0  0  0  0  0  0  0  0  0
   57.9650   33.2560   44.5950 C   0  0  0  0  0  0  0  0  0  0  0  0
   58.3330   34.5660   44.8700 C   0  0  0  0  0  0  0  0  0  0  0  0
   59.0660   34.6000   46.3790 S   0  0  0  0  0  0  0  0  0  0  0  0
   58.9260   32.9590   46.7020 C   0  0  0  0  0  0  0  0  0  0  0  0
   56.9020   30.4470   44.9340 N   0  0  0  0  0  0  0  0  0  0  0  0
   56.5720   29.1300   44.8610 C   0  0  0  0  0  0  0  0  0  0  0  0
   57.4250   26.4330   43.3120 H   0  0  0  0  0  0  0  0  0  0  0  0
   58.8270   24.4405   45.8781 H   0  0  0  0  0  0  0  0  0  0  0  0
   58.9473   21.9477   45.9260 H   0  0  0  0  0  0  0  0  0  0  0  0
   57.5921   20.5986   44.3216 H   0  0  0  0  0  0  0  0  0  0  0  0
   56.0990   21.7412   42.6788 H   0  0  0  0  0  0  0  0  0  0  0  0
   55.9715   24.2319   42.6242 H   0  0  0  0  0  0  0  0  0  0  0  0
   59.1820   27.8545   46.6487 H   0  0  0  0  0  0  0  0  0  0  0  0
   59.7441   30.2844   46.7596 H   0  0  0  0  0  0  0  0  0  0  0  0
   57.4603   32.9562   43.6648 H   0  0  0  0  0  0  0  0  0  0  0  0
   58.1718   35.4326   44.2119 H   0  0  0  0  0  0  0  0  0  0  0  0
   59.2715   32.4522   47.6151 H   0  0  0  0  0  0  0  0  0  0  0  0
   55.6614   28.8231   44.3257 H   0  0  0  0  0  0  0  0  0  0  0  0
  1  2  2  0
  2  3  1  0
  3  4  1  0
  4  5  2  0
  5  6  1  0
  6  7  2  0
  7  8  1  0
  8  9  2  0
  2 10  1  0
 10 11  2  0
 11 12  1  0
 12 13  2  0
 13 14  1  0
 14 15  1  0
 15 16  2  0
 16 17  1  0
 17 18  1  0
 13 19  1  0
 19 20  2  0
  9  4  1  0
 20 10  1  0
 18 14  2  0
  3 21  1  0
  5 22  1  0
  6 23  1  0
  7 24  1  0
  8 25  1  0
  9 26  1  0
 11 27  1  0
 12 28  1  0
 15 29  1  0
 16 30  1  0
 18 31  1  0
 20 32  1  0
M  END
>  <UniqueID>  (33) 
33

>  <SMILES>  (33) 
O=C(Nc1ccccc1)c1ccc(-c2ccsc2)nc1

>  <Energy>  (33) 
68.66945914700267

>  <Genealogy>  (33) 
O=C(Nc1ccccc1)c1ccc(-c2ccsc2)nc1 (3D coordinates assigned)
O=C(Nc1ccccc1)c1ccc(-c2ccsc2)nc1 (optimized conformer: 68.66945914700267 kcal/mol)

>  <smiles>  (33) 
O=C(Nc1ccccc1)c1ccc(-c2ccsc2)nc1

>  <score_type>  (33) 
oracle

>  <origin>  (33) 
adg

>  <m_score__min__energy>  (33) 
-7.5599999999999996

>  <m_primary>  (33) 
energy

$$$$
34:0
     RDKit          3D

 45 48  0  0  0  0  0  0  0  0999 V2000
   55.1540   26.6710   46.0800 N   0  0  0  0  0  0  0  0  0  0  0  0
   56.8480   27.0000   45.9670 S   0  0  0  0  0  0  0  0  0  0  0  0
   57.5070   25.8810   45.2090 O   0  0  0  0  0  0  0  0  0  0  0  0
   57.4350   27.0780   47.3480 O   0  0  0  0  0  0  0  0  0  0  0  0
   57.1080   28.5280   45.1330 C   0  0  0  0  0  0  0  0  0  0  0  0
   56.0180   29.2740   44.6680 C   0  0  0  0  0  0  0  0  0  0  0  0
   56.2270   30.4840   43.9970 C   0  0  0  0  0  0  0  0  0  0  0  0
   57.5310   30.9620   43.7770 C   0  0  0  0  0  0  0  0  0  0  0  0
   57.7560   32.2410   43.0650 C   0  0  0  0  0  0  0  0  0  0  0  0
   57.3400   32.3890   41.8830 O   0  0  0  0  0  0  0  0  0  0  0  0
   58.4470   33.3150   43.7140 N   0  0  0  0  0  0  0  0  0  0  0  0
   57.9400   34.0100   44.8910 C   0  0  0  0  0  0  0  0  0  0  0  0
   58.8570   33.7890   46.0620 C   0  0  0  0  0  0  0  0  0  0  0  0
   60.2480   34.0430   45.9450 C   0  0  0  0  0  0  0  0  0  0  0  0
   61.1090   33.8580   47.0430 C   0  0  0  0  0  0  0  0  0  0  0  0
   60.5420   33.4410   48.2500 C   0  0  0  0  0  0  0  0  0  0  0  0
   59.2060   33.1770   48.3570 C   0  0  0  0  0  0  0  0  0  0  0  0
   59.0130   32.7210   49.6420 C   0  0  0  0  0  0  0  0  0  0  0  0
   60.2120   32.7150   50.2740 N   0  0  0  0  0  0  0  0  0  0  0  0
   61.1370   33.1610   49.4290 N   0  0  0  0  0  0  0  0  0  0  0  0
   62.5250   33.2920   49.7790 C   0  0  0  0  0  0  0  0  0  0  0  0
   63.5000   32.6030   49.0410 C   0  0  0  0  0  0  0  0  0  0  0  0
   64.8510   32.7070   49.3870 C   0  0  0  0  0  0  0  0  0  0  0  0
   65.2360   33.4870   50.4800 C   0  0  0  0  0  0  0  0  0  0  0  0
   64.2700   34.1580   51.2340 C   0  0  0  0  0  0  0  0  0  0  0  0
   62.9180   34.0570   50.8900 C   0  0  0  0  0  0  0  0  0  0  0  0
   58.3250   33.3430   47.2930 C   0  0  0  0  0  0  0  0  0  0  0  0
   58.6200   30.2020   44.2410 C   0  0  0  0  0  0  0  0  0  0  0  0
   58.4090   28.9930   44.9100 C   0  0  0  0  0  0  0  0  0  0  0  0
   54.7700   26.7180   45.1090 H   0  0  0  0  0  0  0  0  0  0  0  0
   54.9937   28.9075   44.8308 H   0  0  0  0  0  0  0  0  0  0  0  0
   55.3647   31.0656   43.6389 H   0  0  0  0  0  0  0  0  0  0  0  0
   57.8771   35.0872   44.6774 H   0  0  0  0  0  0  0  0  0  0  0  0
   56.9429   33.6162   45.1376 H   0  0  0  0  0  0  0  0  0  0  0  0
   60.6584   34.3886   44.9847 H   0  0  0  0  0  0  0  0  0  0  0  0
   62.1909   34.0356   46.9539 H   0  0  0  0  0  0  0  0  0  0  0  0
   58.0516   32.4145   50.0800 H   0  0  0  0  0  0  0  0  0  0  0  0
   63.2001   31.9784   48.1866 H   0  0  0  0  0  0  0  0  0  0  0  0
   65.6115   32.1738   48.7976 H   0  0  0  0  0  0  0  0  0  0  0  0
   66.2996   33.5729   50.7470 H   0  0  0  0  0  0  0  0  0  0  0  0
   64.5730   34.7663   52.0990 H   0  0  0  0  0  0  0  0  0  0  0  0
   62.1593   34.5787   51.4918 H   0  0  0  0  0  0  0  0  0  0  0  0
   57.2509   33.1342   47.4061 H   0  0  0  0  0  0  0  0  0  0  0  0
   59.6462   30.5622   44.0760 H   0  0  0  0  0  0  0  0  0  0  0  0
   59.2690   28.4047   45.2626 H   0  0  0  0  0  0  0  0  0  0  0  0
  1  2  1  0
  2  3  2  0
  2  4  2  0
  2  5  1  0
  5  6  2  0
  6  7  1  0
  7  8  2  0
  8  9  1  0
  9 10  2  0
  9 11  1  0
 11 12  1  0
 12 13  1  0
 13 14  2  0
 14 15  1  0
 15 16  2  0
 16 17  1  0
 17 18  1  0
 18 19  2  0
 19 20  1  0
 20 21  1  0
 21 22  2  0
 22 23  1  0
 23 24  2  0
 24 25  1  0
 25 26  2  0
 17 27  2  0
  8 28  1  0
 28 29  2  0
 29  5  1  0
 27 13  1  0
 20 16  1  0
 26 21  1  0
  1 30  1  0
  6 31  1  0
  7 32  1  0
 12 33  1  0
 12 34  1  0
 14 35  1  0
 15 36  1  0
 18 37  1  0
 22 38  1  0
 23 39  1  0
 24 40  1  0
 25 41  1  0
 26 42  1  0
 27 43  1  0
 28 44  1  0
 29 45  1  0
M  CHG  2   1  -1  11  -1
M  END
>  <UniqueID>  (34) 
34

>  <SMILES>  (34) 
[NH-]S(=O)(=O)c1ccc(C(=O)[N-]Cc2ccc3c(cnn3-c3ccccc3)c2)cc1

>  <Energy>  (34) 
92.07476164247417

>  <Genealogy>  (34) 
[NH-]S(=O)(=O)c1ccc(C(=O)[N-]Cc2ccc3c(cnn3-c3ccccc3)c2)cc1 (protonated)
[NH-]S(=O)(=O)c1ccc(C(=O)[N-]Cc2ccc3c(cnn3-c3ccccc3)c2)cc1 (3D coordinates assigned)
[NH-]S(=O)(=O)c1ccc(C(=O)[N-]Cc2ccc3c(cnn3-c3ccccc3)c2)cc1 (optimized conformer: 92.07476164247417 kcal/mol)

>  <smiles>  (34) 
NS(=O)(=O)c1ccc(C(=O)NCc2ccc3c(cnn3-c3ccccc3)c2)cc1

>  <score_type>  (34) 
oracle

>  <origin>  (34) 
adg

>  <m_score__min__energy>  (34) 
-12.91

>  <m_primary>  (34) 
energy

$$$$
35:0
     RDKit          3D

 88 92  0  0  1  0  0  0  0  0999 V2000
   61.4270   26.9740   51.3170 C   0  0  0  0  0  0  0  0  0  0  0  0
   62.2000   27.5080   52.5150 C   0  0  0  0  0  0  0  0  0  0  0  0
   63.1740   28.5150   51.9620 C   0  0  0  0  0  0  0  0  0  0  0  0
   61.2870   28.0510   53.5690 C   0  0  0  0  0  0  0  0  0  0  0  0
   61.6950   29.4150   54.0370 C   0  0  0  0  0  0  0  0  0  0  0  0
   61.1990   30.4930   53.3130 O   0  0  0  0  0  0  0  0  0  0  0  0
   60.2580   30.3970   52.3050 C   0  0  0  0  0  0  0  0  0  0  0  0
   59.0400   30.2820   52.6210 O   0  0  0  0  0  0  0  0  0  0  0  0
   60.5860   30.4210   50.9180 N   0  0  0  0  0  0  0  0  0  0  0  0
   59.2710   30.2910   49.7740 S   0  0  0  0  0  0  0  0  0  0  0  0
   58.9780   31.6840   49.3250 O   0  0  0  0  0  0  0  0  0  0  0  0
   58.0800   29.7090   50.5140 O   0  0  0  0  0  0  0  0  0  0  0  0
   59.7480   29.2500   48.4720 C   0  0  0  0  0  0  0  0  0  0  0  0
   59.7860   27.8650   48.6620 C   0  0  0  0  0  0  0  0  0  0  0  0
   60.1320   27.0080   47.6610 C   0  0  0  0  0  0  0  0  0  0  0  0
   60.4610   27.4790   46.4160 C   0  0  0  0  0  0  0  0  0  0  0  0
   60.4400   28.8410   46.1780 C   0  0  0  0  0  0  0  0  0  0  0  0
   60.0850   29.6880   47.2100 C   0  0  0  0  0  0  0  0  0  0  0  0
   60.1060   31.1150   46.9290 C   0  0  0  0  0  0  0  0  0  0  0  0
   59.0580   31.6300   46.1960 C   0  0  0  0  0  0  0  0  0  0  0  0
   59.0000   32.9660   45.9170 C   0  0  0  0  0  0  0  0  0  0  0  0
   57.8530   33.4700   45.1290 C   0  0  0  0  0  0  0  0  0  0  0  0
   57.4360   32.4780   44.1290 C   0  0  0  0  0  0  0  0  0  0  0  0
   56.6520   31.3950   44.5350 C   0  0  0  0  0  0  0  0  0  0  0  0
   56.2380   30.4340   43.6150 C   0  0  0  0  0  0  0  0  0  0  0  0
   56.6430   30.6160   42.3080 C   0  0  0  0  0  0  0  0  0  0  0  0
   57.4140   31.6740   41.8970 C   0  0  0  0  0  0  0  0  0  0  0  0
   57.8230   32.6260   42.8160 C   0  0  0  0  0  0  0  0  0  0  0  0
   60.0150   33.7710   46.3890 C   0  0  0  0  0  0  0  0  0  0  0  0
   61.0530   33.2530   47.1150 C   0  0  0  0  0  0  0  0  0  0  0  0
   61.1410   31.8860   47.4190 C   0  0  0  0  0  0  0  0  0  0  0  0
   62.2840   31.3850   48.1770 C   0  0  0  0  0  0  0  0  0  0  0  0
   63.1450   32.3270   48.7220 O   0  0  0  0  0  0  0  0  0  0  0  0
   63.0620   32.5350   50.1080 C   0  0  0  0  0  0  0  0  0  0  0  0
   62.3100   33.5840   50.6170 C   0  0  0  0  0  0  0  0  0  0  0  0
   62.2640   33.7390   51.9870 C   0  0  0  0  0  0  0  0  0  0  0  0
   62.9320   32.8940   52.8530 C   0  0  0  0  0  0  0  0  0  0  0  0
   62.7940   33.1750   54.3060 C   0  0  0  0  0  0  0  0  0  0  0  0
   62.0390   34.4550   54.5820 C   0  0  0  0  0  0  0  0  0  0  0  0
   60.6480   34.2120   54.8900 N   0  0  0  0  0  0  0  0  0  0  0  0
   59.7460   34.1780   53.9940 C   0  0  0  0  0  0  0  0  0  0  0  0
   59.0180   35.1760   53.4750 N   0  0  0  0  0  0  0  0  0  0  0  0
   58.1830   34.7170   52.5620 N   0  0  0  0  0  0  0  0  0  0  0  0
   58.3860   33.3940   52.5000 C   0  0  0  0  0  0  0  0  0  0  0  0
   57.7200   32.6180   51.6920 N   0  0  0  0  0  0  0  0  0  0  0  0
   59.3490   33.0430   53.3780 N   0  0  0  0  0  0  0  0  0  0  0  0
   63.6810   31.8480   52.3530 C   0  0  0  0  0  0  0  0  0  0  0  0
   63.7420   31.6730   50.9680 C   0  0  0  0  0  0  0  0  0  0  0  0
   60.5694   26.3816   51.6685 H   0  0  0  0  0  0  0  0  0  0  0  0
   61.0661   27.8163   50.7085 H   0  0  0  0  0  0  0  0  0  0  0  0
   62.0870   26.3383   50.7085 H   0  0  0  0  0  0  0  0  0  0  0  0
   62.7501   26.7132   53.0401 H   0  0  0  0  0  0  0  0  0  0  0  0
   63.6758   29.0338   52.7920 H   0  0  0  0  0  0  0  0  0  0  0  0
   63.9243   27.9989   51.3450 H   0  0  0  0  0  0  0  0  0  0  0  0
   62.6332   29.2477   51.3450 H   0  0  0  0  0  0  0  0  0  0  0  0
   60.2687   28.1097   53.1571 H   0  0  0  0  0  0  0  0  0  0  0  0
   61.3359   27.3732   54.4340 H   0  0  0  0  0  0  0  0  0  0  0  0
   61.3558   29.5267   55.0774 H   0  0  0  0  0  0  0  0  0  0  0  0
   62.7865   29.4535   53.9057 H   0  0  0  0  0  0  0  0  0  0  0  0
   61.5780   30.5130   50.6120 H   0  0  0  0  0  0  0  0  0  0  0  0
   59.5287   27.4550   49.6498 H   0  0  0  0  0  0  0  0  0  0  0  0
   60.1476   25.9252   47.8539 H   0  0  0  0  0  0  0  0  0  0  0  0
   60.7391   26.7797   45.6138 H   0  0  0  0  0  0  0  0  0  0  0  0
   60.7006   29.2418   45.1873 H   0  0  0  0  0  0  0  0  0  0  0  0
   58.2636   30.9609   45.8336 H   0  0  0  0  0  0  0  0  0  0  0  0
   57.0114   33.6756   45.8068 H   0  0  0  0  0  0  0  0  0  0  0  0
   58.1573   34.3906   44.6094 H   0  0  0  0  0  0  0  0  0  0  0  0
   56.3589   31.3002   45.5910 H   0  0  0  0  0  0  0  0  0  0  0  0
   55.6203   29.5746   43.9148 H   0  0  0  0  0  0  0  0  0  0  0  0
   56.3316   29.8747   41.5573 H   0  0  0  0  0  0  0  0  0  0  0  0
   57.7064   31.7658   40.8406 H   0  0  0  0  0  0  0  0  0  0  0  0
   58.4423   33.4800   42.5043 H   0  0  0  0  0  0  0  0  0  0  0  0
   59.9900   34.8503   46.1780 H   0  0  0  0  0  0  0  0  0  0  0  0
   61.8435   33.9298   47.4716 H   0  0  0  0  0  0  0  0  0  0  0  0
   61.8911   30.7772   49.0054 H   0  0  0  0  0  0  0  0  0  0  0  0
   62.8922   30.8355   47.4434 H   0  0  0  0  0  0  0  0  0  0  0  0
   61.7679   34.2700   49.9496 H   0  0  0  0  0  0  0  0  0  0  0  0
   61.6731   34.5667   52.4062 H   0  0  0  0  0  0  0  0  0  0  0  0
   62.2548   32.3396   54.7766 H   0  0  0  0  0  0  0  0  0  0  0  0
   63.8064   33.2897   54.7205 H   0  0  0  0  0  0  0  0  0  0  0  0
   62.5073   34.9654   55.4365 H   0  0  0  0  0  0  0  0  0  0  0  0
   62.0809   35.0746   53.6741 H   0  0  0  0  0  0  0  0  0  0  0  0
   59.1210   36.1600   53.7670 H   0  0  0  0  0  0  0  0  0  0  0  0
   57.5190   35.2990   52.0220 H   0  0  0  0  0  0  0  0  0  0  0  0
   58.1480   31.7440   51.3010 H   0  0  0  0  0  0  0  0  0  0  0  0
   59.7190   32.0680   53.5510 H   0  0  0  0  0  0  0  0  0  0  0  0
   64.2180   31.1672   53.0298 H   0  0  0  0  0  0  0  0  0  0  0  0
   64.3338   30.8449   50.5508 H   0  0  0  0  0  0  0  0  0  0  0  0
  1  2  1  0
  2  3  1  0
  2  4  1  0
  4  5  1  0
  5  6  1  0
  6  7  1  0
  7  8  2  0
  7  9  1  0
  9 10  1  0
 10 11  2  0
 10 12  2  0
 10 13  1  0
 13 14  2  0
 14 15  1  0
 15 16  2  0
 16 17  1  0
 17 18  2  0
 18 19  1  0
 19 20  2  0
 20 21  1  0
 21 22  1  0
 22 23  1  0
 23 24  2  0
 24 25  1  0
 25 26  2  0
 26 27  1  0
 27 28  2  0
 21 29  2  0
 29 30  1  0
 30 31  2  0
 31 32  1  0
 32 33  1  0
 33 34  1  0
 34 35  2  0
 35 36  1  0
 36 37  2  0
 37 38  1  0
 38 39  1  0
 39 40  1  0
 40 41  2  0
 41 42  1  0
 42 43  1  0
 43 44  1  0
 44 45  2  3
 44 46  1  0
 37 47  1  0
 47 48  2  0
 18 13  1  0
 31 19  1  0
 48 34  1  0
 28 23  1  0
 46 41  1  0
  1 49  1  0
  1 50  1  0
  1 51  1  0
  2 52  1  0
  3 53  1  0
  3 54  1  0
  3 55  1  0
  4 56  1  0
  4 57  1  0
  5 58  1  0
  5 59  1  0
  9 60  1  0
 14 61  1  0
 15 62  1  0
 16 63  1  0
 17 64  1  0
 20 65  1  0
 22 66  1  0
 22 67  1  0
 24 68  1  0
 25 69  1  0
 26 70  1  0
 27 71  1  0
 28 72  1  0
 29 73  1  0
 30 74  1  0
 32 75  1  0
 32 76  1  0
 35 77  1  0
 36 78  1  0
 38 79  1  0
 38 80  1  0
 39 81  1  0
 39 82  1  0
 42 83  1  0
 43 84  1  0
 45 85  1  0
 46 86  1  0
 47 87  1  0
 48 88  1  0
M  END
>  <smiles>  (35) 
CC(C)CCOC(=O)NS(=O)(=O)c1ccccc1-c1cc(Cc2ccccc2)ccc1COc1ccc(CCN=c2[nH][nH]c(=N)[nH]2)cc1

>  <score_type>  (35) 
oracle

>  <origin>  (35) 
adg

>  <m_score__min__energy>  (35) 
-10.93

>  <m_primary>  (35) 
energy

$$$$
36:0
     RDKit          3D

 32 34  0  0  0  0  0  0  0  0999 V2000
   56.7630   25.5390   47.4230 O   0  0  0  0  0  0  0  0  0  0  0  0
   56.3970   25.9420   46.0220 S   0  0  0  0  0  0  0  0  0  0  0  0
   54.9380   26.3030   45.9990 O   0  0  0  0  0  0  0  0  0  0  0  0
   57.3570   27.3280   45.5170 C   0  0  0  0  0  0  0  0  0  0  0  0
   58.7310   27.1840   45.2880 C   0  0  0  0  0  0  0  0  0  0  0  0
   59.5010   28.2910   44.9200 C   0  0  0  0  0  0  0  0  0  0  0  0
   58.9020   29.5450   44.7800 C   0  0  0  0  0  0  0  0  0  0  0  0
   57.5290   29.7020   44.9950 C   0  0  0  0  0  0  0  0  0  0  0  0
   56.9710   30.9840   44.8710 O   0  0  0  0  0  0  0  0  0  0  0  0
   57.6160   32.1870   45.1930 C   0  0  0  0  0  0  0  0  0  0  0  0
   58.1470   33.0360   44.2040 C   0  0  0  0  0  0  0  0  0  0  0  0
   58.7950   34.2200   44.5670 C   0  0  0  0  0  0  0  0  0  0  0  0
   58.9310   34.5600   45.9160 C   0  0  0  0  0  0  0  0  0  0  0  0
   58.4250   33.7100   46.9050 C   0  0  0  0  0  0  0  0  0  0  0  0
   57.7770   32.5250   46.5440 C   0  0  0  0  0  0  0  0  0  0  0  0
   56.7600   28.5890   45.3790 C   0  0  0  0  0  0  0  0  0  0  0  0
   56.6860   24.6020   44.9280 C   0  0  0  0  0  0  0  0  0  0  0  0
   57.9040   24.2350   44.4730 N   0  0  0  0  0  0  0  0  0  0  0  0
   57.6920   23.2030   43.7020 O   0  0  0  0  0  0  0  0  0  0  0  0
   56.4330   22.8860   43.6340 N   0  0  0  0  0  0  0  0  0  0  0  0
   55.9200   21.8420   42.9010 O   0  0  0  0  0  0  0  0  0  0  0  0
   55.7470   23.7440   44.3980 C   0  0  0  0  0  0  0  0  0  0  0  0
   54.0100   23.7330   44.6460 Cl  0  0  0  0  0  0  0  0  0  0  0  0
   59.2053   26.1976   45.3980 H   0  0  0  0  0  0  0  0  0  0  0  0
   60.5800   28.1745   44.7404 H   0  0  0  0  0  0  0  0  0  0  0  0
   59.5141   30.4147   44.4988 H   0  0  0  0  0  0  0  0  0  0  0  0
   58.0517   32.7668   43.1417 H   0  0  0  0  0  0  0  0  0  0  0  0
   59.1987   34.8855   43.7897 H   0  0  0  0  0  0  0  0  0  0  0  0
   59.4356   35.4954   46.1997 H   0  0  0  0  0  0  0  0  0  0  0  0
   58.5370   33.9740   47.9670 H   0  0  0  0  0  0  0  0  0  0  0  0
   57.3910   31.8535   47.3250 H   0  0  0  0  0  0  0  0  0  0  0  0
   55.6837   28.7085   45.5722 H   0  0  0  0  0  0  0  0  0  0  0  0
  1  2  2  0
  2  3  2  0
  2  4  1  0
  4  5  2  0
  5  6  1  0
  6  7  2  0
  7  8  1  0
  8  9  1  0
  9 10  1  0
 10 11  2  0
 11 12  1  0
 12 13  2  0
 13 14  1  0
 14 15  2  0
  8 16  2  0
  2 17  1  0
 17 18  2  0
 18 19  1  0
 19 20  1  0
 20 21  1  0
 20 22  2  0
 22 23  1  0
 16  4  1  0
 22 17  1  0
 15 10  1  0
  5 24  1  0
  6 25  1  0
  7 26  1  0
 11 27  1  0
 12 28  1  0
 13 29  1  0
 14 30  1  0
 15 31  1  0
 16 32  1  0
M  CHG  2  20   1  21  -1
M  END
>  <UniqueID>  (36) 
35

>  <SMILES>  (36) 
O=S(=O)(c1cccc(Oc2ccccc2)c1)c1no[n+]([O-])c1Cl

>  <Energy>  (36) 
80.69898144744748

>  <Genealogy>  (36) 
O=S(=O)(c1cccc(Oc2ccccc2)c1)c1no[n+]([O-])c1Cl (3D coordinates assigned)
O=S(=O)(c1cccc(Oc2ccccc2)c1)c1no[n+]([O-])c1Cl (optimized conformer: 80.69898144744748 kcal/mol)

>  <smiles>  (36) 
O=S(=O)(c1cccc(Oc2ccccc2)c1)c1no[n+]([O-])c1Cl

>  <score_type>  (36) 
oracle

>  <origin>  (36) 
adg

>  <m_score__min__energy>  (36) 
-9.5399999999999991

>  <m_primary>  (36) 
energy

$$$$
37:0
     RDKit          3D

 41 44  0  0  0  0  0  0  0  0999 V2000
   56.2830   24.9950   46.9840 O   0  0  0  0  0  0  0  0  0  0  0  0
   57.3020   24.9370   46.2430 C   0  0  0  0  0  0  0  0  0  0  0  0
   57.8230   23.6480   45.8900 N   0  0  0  0  0  0  0  0  0  0  0  0
   57.5140   22.9630   44.8280 C   0  0  0  0  0  0  0  0  0  0  0  0
   58.0210   21.7470   44.5120 N   0  0  0  0  0  0  0  0  0  0  0  0
   57.5350   21.2840   43.3260 C   0  0  0  0  0  0  0  0  0  0  0  0
   56.6420   22.1390   42.6860 C   0  0  0  0  0  0  0  0  0  0  0  0
   56.4640   23.5170   43.6420 S   0  0  0  0  0  0  0  0  0  0  0  0
   57.9670   26.1940   45.8300 C   0  0  0  0  0  0  0  0  0  0  0  0
   57.2050   27.2220   45.2470 C   0  0  0  0  0  0  0  0  0  0  0  0
   57.8070   28.4310   44.8720 C   0  0  0  0  0  0  0  0  0  0  0  0
   56.8530   29.7130   44.1350 S   0  0  0  0  0  0  0  0  0  0  0  0
   55.5340   29.8170   44.8480 O   0  0  0  0  0  0  0  0  0  0  0  0
   56.6070   29.4000   42.6860 O   0  0  0  0  0  0  0  0  0  0  0  0
   57.6930   31.2270   44.2460 N   0  0  0  0  0  0  0  0  0  0  0  0
   57.8020   32.1900   43.1520 C   0  0  0  0  0  0  0  0  0  0  0  0
   58.4460   33.4590   43.7680 C   0  0  0  0  0  0  0  0  0  0  0  0
   58.5840   33.1100   45.2110 C   0  0  0  0  0  0  0  0  0  0  0  0
   59.0690   33.9080   46.2490 C   0  0  0  0  0  0  0  0  0  0  0  0
   59.0980   33.3740   47.5480 C   0  0  0  0  0  0  0  0  0  0  0  0
   58.6410   32.0610   47.7860 C   0  0  0  0  0  0  0  0  0  0  0  0
   58.1570   31.2770   46.7260 C   0  0  0  0  0  0  0  0  0  0  0  0
   58.1470   31.8320   45.4420 C   0  0  0  0  0  0  0  0  0  0  0  0
   59.1830   28.6130   45.0770 C   0  0  0  0  0  0  0  0  0  0  0  0
   59.9480   27.5980   45.6570 C   0  0  0  0  0  0  0  0  0  0  0  0
   59.3500   26.3940   46.0360 C   0  0  0  0  0  0  0  0  0  0  0  0
   60.1090   25.4400   46.6320 F   0  0  0  0  0  0  0  0  0  0  0  0
   58.7290   21.2240   45.0710 H   0  0  0  0  0  0  0  0  0  0  0  0
   57.8260   20.3096   42.9066 H   0  0  0  0  0  0  0  0  0  0  0  0
   56.1406   21.9492   41.7255 H   0  0  0  0  0  0  0  0  0  0  0  0
   56.1270   27.0761   45.0838 H   0  0  0  0  0  0  0  0  0  0  0  0
   58.4388   31.7881   42.3501 H   0  0  0  0  0  0  0  0  0  0  0  0
   56.8203   32.4098   42.7071 H   0  0  0  0  0  0  0  0  0  0  0  0
   59.4283   33.6610   43.3161 H   0  0  0  0  0  0  0  0  0  0  0  0
   57.8494   34.3679   43.6009 H   0  0  0  0  0  0  0  0  0  0  0  0
   59.4205   34.9319   46.0540 H   0  0  0  0  0  0  0  0  0  0  0  0
   59.4783   33.9818   48.3822 H   0  0  0  0  0  0  0  0  0  0  0  0
   58.6638   31.6494   48.8059 H   0  0  0  0  0  0  0  0  0  0  0  0
   57.7952   30.2531   46.9009 H   0  0  0  0  0  0  0  0  0  0  0  0
   59.6611   29.5581   44.7800 H   0  0  0  0  0  0  0  0  0  0  0  0
   61.0261   27.7477   45.8159 H   0  0  0  0  0  0  0  0  0  0  0  0
  1  2  2  0
  2  3  1  0
  3  4  2  3
  4  5  1  0
  5  6  1  0
  6  7  2  0
  7  8  1  0
  2  9  1  0
  9 10  2  0
 10 11  1  0
 11 12  1  0
 12 13  2  0
 12 14  2  0
 12 15  1  0
 15 16  1  0
 16 17  1  0
 17 18  1  0
 18 19  2  0
 19 20  1  0
 20 21  2  0
 21 22  1  0
 22 23  2  0
 11 24  2  0
 24 25  1  0
 25 26  2  0
 26 27  1  0
  8  4  1  0
 26  9  1  0
 23 15  1  0
 23 18  1  0
  5 28  1  0
  6 29  1  0
  7 30  1  0
 10 31  1  0
 16 32  1  0
 16 33  1  0
 17 34  1  0
 17 35  1  0
 19 36  1  0
 20 37  1  0
 21 38  1  0
 22 39  1  0
 24 40  1  0
 25 41  1  0
M  END
>  <UniqueID>  (37) 
36

>  <SMILES>  (37) 
O=C(N=c1[nH]ccs1)c1cc(S(=O)(=O)N2CCc3ccccc32)ccc1F

>  <Energy>  (37) 
99.6965639451125

>  <Genealogy>  (37) 
O=C(N=c1[nH]ccs1)c1cc(S(=O)(=O)N2CCc3ccccc32)ccc1F (3D coordinates assigned)
O=C(N=c1[nH]ccs1)c1cc(S(=O)(=O)N2CCc3ccccc32)ccc1F (nonaromatic ring conformer: 99.6965639451125 kcal/mol)

>  <smiles>  (37) 
O=C(N=c1[nH]ccs1)c1cc(S(=O)(=O)N2CCc3ccccc32)ccc1F

>  <score_type>  (37) 
oracle

>  <origin>  (37) 
adg

>  <m_score__min__energy>  (37) 
-9.5299999999999994

>  <m_primary>  (37) 
energy

$$$$
38:0
     RDKit          3D

 71 75  0  0  0  0  0  0  0  0999 V2000
   57.7180   34.6200   44.8430 O   0  0  0  0  0  0  0  0  0  0  0  0
   58.3310   33.5530   44.5670 C   0  0  0  0  0  0  0  0  0  0  0  0
   57.7900   32.6560   43.4910 C   0  0  0  0  0  0  0  0  0  0  0  0
   57.5320   31.2810   44.0420 C   0  0  0  0  0  0  0  0  0  0  0  0
   56.2250   30.7600   44.0500 C   0  0  0  0  0  0  0  0  0  0  0  0
   55.9880   29.4520   44.4850 C   0  0  0  0  0  0  0  0  0  0  0  0
   57.0530   28.6530   44.9100 C   0  0  0  0  0  0  0  0  0  0  0  0
   58.3580   29.1600   44.9010 C   0  0  0  0  0  0  0  0  0  0  0  0
   58.5970   30.4710   44.4710 C   0  0  0  0  0  0  0  0  0  0  0  0
   59.5230   33.1910   45.2790 N   0  0  0  0  0  0  0  0  0  0  0  0
   60.2270   34.0540   46.2370 C   0  0  1  0  0  0  0  0  0  0  0  0
   59.2590   34.7070   47.2530 C   0  0  0  0  0  0  0  0  0  0  0  0
   59.1370   33.8650   48.5020 C   0  0  0  0  0  0  0  0  0  0  0  0
   59.8280   34.2250   49.6700 C   0  0  0  0  0  0  0  0  0  0  0  0
   59.7860   33.4020   50.7970 C   0  0  0  0  0  0  0  0  0  0  0  0
   59.0660   32.1930   50.7690 C   0  0  0  0  0  0  0  0  0  0  0  0
   59.0760   31.2900   51.8860 N   0  0  0  0  0  0  0  0  0  0  0  0
   57.6380   30.7480   52.6890 S   0  0  0  0  0  0  0  0  0  0  0  0
   56.6400   31.8740   52.7190 O   0  0  0  0  0  0  0  0  0  0  0  0
   57.0410   29.5810   51.9550 O   0  0  0  0  0  0  0  0  0  0  0  0
   58.0100   30.3010   54.2650 O   0  0  0  0  0  0  0  0  0  0  0  0
   58.3610   31.8450   49.6060 C   0  0  0  0  0  0  0  0  0  0  0  0
   58.3820   32.6800   48.4860 C   0  0  0  0  0  0  0  0  0  0  0  0
   61.4060   33.3320   46.8590 C   0  0  0  0  0  0  0  0  0  0  0  0
   62.7430   33.6940   46.6150 C   0  0  0  0  0  0  0  0  0  0  0  0
   63.7710   33.0200   47.2760 C   0  0  0  0  0  0  0  0  0  0  0  0
   63.4710   31.9880   48.1640 C   0  0  0  0  0  0  0  0  0  0  0  0
   62.1290   31.6310   48.3780 C   0  0  0  0  0  0  0  0  0  0  0  0
   61.7830   30.5510   49.2720 N   0  0  0  0  0  0  0  0  0  0  0  0
   61.1190   29.4430   48.8070 C   0  0  0  0  0  0  0  0  0  0  0  0
   60.8010   29.3460   47.5890 O   0  0  0  0  0  0  0  0  0  0  0  0
   60.7640   28.4120   49.6790 C   0  0  0  0  0  0  0  0  0  0  0  0
   61.0790   28.5280   51.0400 C   0  0  0  0  0  0  0  0  0  0  0  0
   60.7120   27.5090   52.0040 N   0  0  0  0  0  0  0  0  0  0  0  0
   61.1890   26.1250   51.8390 C   0  0  0  0  0  0  0  0  0  0  0  0
   60.8950   25.2530   53.0610 C   0  0  0  0  0  0  0  0  0  0  0  0
   59.5910   25.4900   53.5360 O   0  0  0  0  0  0  0  0  0  0  0  0
   59.5520   26.7790   54.1050 C   0  0  0  0  0  0  0  0  0  0  0  0
   59.7160   27.8630   53.0330 C   0  0  0  0  0  0  0  0  0  0  0  0
   61.7310   29.6460   51.4580 N   0  0  0  0  0  0  0  0  0  0  0  0
   62.0840   30.6430   50.6060 C   0  0  0  0  0  0  0  0  0  0  0  0
   62.7020   31.6440   51.0610 O   0  0  0  0  0  0  0  0  0  0  0  0
   61.1450   32.3170   47.7330 N   0  0  0  0  0  0  0  0  0  0  0  0
   56.8487   33.0761   43.1071 H   0  0  0  0  0  0  0  0  0  0  0  0
   58.5283   32.5844   42.6787 H   0  0  0  0  0  0  0  0  0  0  0  0
   55.3850   31.3848   43.7123 H   0  0  0  0  0  0  0  0  0  0  0  0
   54.9633   29.0521   44.4926 H   0  0  0  0  0  0  0  0  0  0  0  0
   56.8657   27.6244   45.2520 H   0  0  0  0  0  0  0  0  0  0  0  0
   59.1957   28.5284   45.2318 H   0  0  0  0  0  0  0  0  0  0  0  0
   59.6227   30.8684   44.4690 H   0  0  0  0  0  0  0  0  0  0  0  0
   59.9490   32.2540   45.0840 H   0  0  0  0  0  0  0  0  0  0  0  0
   60.6597   34.9035   45.6882 H   0  0  0  0  0  0  0  0  0  0  0  0
   59.6409   35.7019   47.5256 H   0  0  0  0  0  0  0  0  0  0  0  0
   58.2658   34.7901   46.7876 H   0  0  0  0  0  0  0  0  0  0  0  0
   60.4057   35.1607   49.6973 H   0  0  0  0  0  0  0  0  0  0  0  0
   60.3187   33.7002   51.7121 H   0  0  0  0  0  0  0  0  0  0  0  0
   59.9740   30.8220   52.1520 H   0  0  0  0  0  0  0  0  0  0  0  0
   57.7872   30.9070   49.5762 H   0  0  0  0  0  0  0  0  0  0  0  0
   57.8058   32.4090   47.5890 H   0  0  0  0  0  0  0  0  0  0  0  0
   62.9770   34.5033   45.9076 H   0  0  0  0  0  0  0  0  0  0  0  0
   64.8186   33.3033   47.0962 H   0  0  0  0  0  0  0  0  0  0  0  0
   64.2774   31.4582   48.6922 H   0  0  0  0  0  0  0  0  0  0  0  0
   60.2433   27.5192   49.3025 H   0  0  0  0  0  0  0  0  0  0  0  0
   60.6921   25.6830   50.9628 H   0  0  0  0  0  0  0  0  0  0  0  0
   62.2808   26.1615   51.7101 H   0  0  0  0  0  0  0  0  0  0  0  0
   60.9908   24.1936   52.7808 H   0  0  0  0  0  0  0  0  0  0  0  0
   61.6131   25.5025   53.8560 H   0  0  0  0  0  0  0  0  0  0  0  0
   58.5856   26.9186   54.6116 H   0  0  0  0  0  0  0  0  0  0  0  0
   60.3818   26.8690   54.8214 H   0  0  0  0  0  0  0  0  0  0  0  0
   58.7445   28.0199   52.5414 H   0  0  0  0  0  0  0  0  0  0  0  0
   60.0725   28.7734   53.5370 H   0  0  0  0  0  0  0  0  0  0  0  0
  1  2  2  0
  2  3  1  0
  3  4  1  0
  4  5  2  0
  5  6  1  0
  6  7  2  0
  7  8  1  0
  8  9  2  0
  2 10  1  0
 10 11  1  0
 11 12  1  0
 12 13  1  0
 13 14  2  0
 14 15  1  0
 15 16  2  0
 16 17  1  0
 17 18  1  0
 18 19  2  0
 18 20  2  0
 18 21  1  0
 16 22  1  0
 22 23  2  0
 11 24  1  0
 24 25  2  0
 25 26  1  0
 26 27  2  0
 27 28  1  0
 28 29  1  0
 29 30  1  0
 30 31  2  0
 30 32  1  0
 32 33  2  0
 33 34  1  0
 34 35  1  0
 35 36  1  0
 36 37  1  0
 37 38  1  0
 38 39  1  0
 33 40  1  0
 40 41  1  0
 41 42  2  0
 28 43  2  0
  9  4  1  0
 23 13  1  0
 43 24  1  0
 41 29  1  0
 39 34  1  0
  3 44  1  0
  3 45  1  0
  5 46  1  0
  6 47  1  0
  7 48  1  0
  8 49  1  0
  9 50  1  0
 10 51  1  0
 11 52  1  6
 12 53  1  0
 12 54  1  0
 14 55  1  0
 15 56  1  0
 17 57  1  0
 22 58  1  0
 23 59  1  0
 25 60  1  0
 26 61  1  0
 27 62  1  0
 32 63  1  0
 35 64  1  0
 35 65  1  0
 36 66  1  0
 36 67  1  0
 38 68  1  0
 38 69  1  0
 39 70  1  0
 39 71  1  0
M  CHG  2  21  -1  40  -1
M  END
>  <UniqueID>  (38) 
37

>  <SMILES>  (38) 
O=C(Cc1ccccc1)N[C@@H](Cc1ccc(NS(=O)(=O)[O-])cc1)c1cccc(-n2c(=O)cc(N3CCOCC3)[n-]c2=O)n1

>  <Energy>  (38) 
90.63965556771045

>  <Genealogy>  (38) 
O=C(Cc1ccccc1)NC(Cc1ccc(NS(=O)(=O)[O-])cc1)c1cccc(-n2c(=O)cc(N3CCOCC3)[n-]c2=O)n1 (protonated)
O=C(Cc1ccccc1)N[C@@H](Cc1ccc(NS(=O)(=O)[O-])cc1)c1cccc(-n2c(=O)cc(N3CCOCC3)[n-]c2=O)n1 (chirality)
O=C(Cc1ccccc1)N[C@@H](Cc1ccc(NS(=O)(=O)[O-])cc1)c1cccc(-n2c(=O)cc(N3CCOCC3)[n-]c2=O)n1 (3D coordinates assigned)
O=C(Cc1ccccc1)N[C@@H](Cc1ccc(NS(=O)(=O)[O-])cc1)c1cccc(-n2c(=O)cc(N3CCOCC3)[n-]c2=O)n1 (nonaromatic ring conformer: 90.63965556771045 kcal/mol)

>  <smiles>  (38) 
O=C(Cc1ccccc1)NC(Cc1ccc(NS(=O)(=O)O)cc1)c1cccc(-n2c(=O)cc(N3CCOCC3)[nH]c2=O)n1

>  <score_type>  (38) 
oracle

>  <origin>  (38) 
adg

>  <m_score__min__energy>  (38) 
-13.43

>  <m_primary>  (38) 
energy

$$$$
39:0
     RDKit          3D

 47 49  0  0  0  0  0  0  0  0999 V2000
   60.2350   26.7660   47.6110 O   0  0  0  0  0  0  0  0  0  0  0  0
   58.9920   26.5970   47.5030 C   0  0  0  0  0  0  0  0  0  0  0  0
   58.4790   25.2590   47.4960 N   0  0  0  0  0  0  0  0  0  0  0  0
   57.2190   24.8460   46.9520 C   0  0  0  0  0  0  0  0  0  0  0  0
   56.4910   25.6680   46.0760 C   0  0  0  0  0  0  0  0  0  0  0  0
   55.2490   25.2540   45.5870 C   0  0  0  0  0  0  0  0  0  0  0  0
   54.7020   24.0180   45.9780 C   0  0  0  0  0  0  0  0  0  0  0  0
   53.3830   23.5910   45.4490 C   0  0  0  0  0  0  0  0  0  0  0  0
   52.4000   24.3980   44.9060 C   0  0  0  0  0  0  0  0  0  0  0  0
   51.3870   23.5260   44.5750 C   0  0  0  0  0  0  0  0  0  0  0  0
   51.7490   22.2720   44.9040 N   0  0  0  0  0  0  0  0  0  0  0  0
   52.9610   22.3110   45.4350 N   0  0  0  0  0  0  0  0  0  0  0  0
   55.4240   23.2110   46.8780 C   0  0  0  0  0  0  0  0  0  0  0  0
   56.6660   23.6300   47.3650 C   0  0  0  0  0  0  0  0  0  0  0  0
   58.1100   27.7250   47.3590 N   0  0  0  0  0  0  0  0  0  0  0  0
   58.5430   29.0950   47.3880 C   0  0  0  0  0  0  0  0  0  0  0  0
   58.4820   29.8580   46.2150 C   0  0  0  0  0  0  0  0  0  0  0  0
   58.9170   31.1860   46.2080 C   0  0  0  0  0  0  0  0  0  0  0  0
   59.4370   31.7750   47.3760 C   0  0  0  0  0  0  0  0  0  0  0  0
   59.8830   33.1520   47.3810 N   0  0  0  0  0  0  0  0  0  0  0  0
   58.9070   34.2250   47.1160 C   0  0  0  0  0  0  0  0  0  0  0  0
   58.8180   34.5940   45.6290 C   0  0  0  0  0  0  0  0  0  0  0  0
   57.3620   33.9150   44.8600 Cl  0  0  0  0  0  0  0  0  0  0  0  0
   61.2010   33.5030   47.9460 C   0  0  0  0  0  0  0  0  0  0  0  0
   62.2180   33.8410   46.8530 C   0  0  0  0  0  0  0  0  0  0  0  0
   63.7760   33.0280   47.1410 Cl  0  0  0  0  0  0  0  0  0  0  0  0
   59.5270   30.9960   48.5410 C   0  0  0  0  0  0  0  0  0  0  0  0
   59.0900   29.6680   48.5480 C   0  0  0  0  0  0  0  0  0  0  0  0
   56.9007   26.6429   45.7732 H   0  0  0  0  0  0  0  0  0  0  0  0
   54.6943   25.8999   44.8905 H   0  0  0  0  0  0  0  0  0  0  0  0
   52.4223   25.4893   44.7694 H   0  0  0  0  0  0  0  0  0  0  0  0
   50.4300   23.8102   44.1132 H   0  0  0  0  0  0  0  0  0  0  0  0
   55.0084   22.2448   47.2000 H   0  0  0  0  0  0  0  0  0  0  0  0
   57.2129   22.9972   48.0795 H   0  0  0  0  0  0  0  0  0  0  0  0
   57.0830   27.5500   47.3000 H   0  0  0  0  0  0  0  0  0  0  0  0
   58.0884   29.4081   45.2916 H   0  0  0  0  0  0  0  0  0  0  0  0
   58.8525   31.7761   45.2819 H   0  0  0  0  0  0  0  0  0  0  0  0
   57.9156   33.8899   47.4549 H   0  0  0  0  0  0  0  0  0  0  0  0
   59.2431   35.1201   47.6598 H   0  0  0  0  0  0  0  0  0  0  0  0
   58.7908   35.6897   45.5359 H   0  0  0  0  0  0  0  0  0  0  0  0
   59.6984   34.1736   45.1210 H   0  0  0  0  0  0  0  0  0  0  0  0
   61.0844   34.3756   48.6056 H   0  0  0  0  0  0  0  0  0  0  0  0
   61.5761   32.6322   48.5036 H   0  0  0  0  0  0  0  0  0  0  0  0
   61.8194   33.5164   45.8805 H   0  0  0  0  0  0  0  0  0  0  0  0
   62.3878   34.9278   46.8623 H   0  0  0  0  0  0  0  0  0  0  0  0
   59.9460   31.4356   49.4582 H   0  0  0  0  0  0  0  0  0  0  0  0
   59.1750   29.0688   49.4666 H   0  0  0  0  0  0  0  0  0  0  0  0
  1  2  2  0
  2  3  1  0
  3  4  1  0
  4  5  2  0
  5  6  1  0
  6  7  2  0
  7  8  1  0
  8  9  1  0
  9 10  2  0
 10 11  1  0
 11 12  1  0
  7 13  1  0
 13 14  2  0
  2 15  1  0
 15 16  1  0
 16 17  2  0
 17 18  1  0
 18 19  2  0
 19 20  1  0
 20 21  1  0
 21 22  1  0
 22 23  1  0
 20 24  1  0
 24 25  1  0
 25 26  1  0
 19 27  1  0
 27 28  2  0
 14  4  1  0
 28 16  1  0
 12  8  2  0
  5 29  1  0
  6 30  1  0
  9 31  1  0
 10 32  1  0
 13 33  1  0
 14 34  1  0
 15 35  1  0
 17 36  1  0
 18 37  1  0
 21 38  1  0
 21 39  1  0
 22 40  1  0
 22 41  1  0
 24 42  1  0
 24 43  1  0
 25 44  1  0
 25 45  1  0
 27 46  1  0
 28 47  1  0
M  CHG  2   3  -1  11  -1
M  END
>  <UniqueID>  (39) 
38

>  <SMILES>  (39) 
O=C([N-]c1ccc(-c2cc[n-]n2)cc1)Nc1ccc(N(CCCl)CCCl)cc1

>  <Energy>  (39) 
87.97616244527353

>  <Genealogy>  (39) 
O=C([N-]c1ccc(-c2cc[n-]n2)cc1)Nc1ccc(N(CCCl)CCCl)cc1 (protonated)
O=C([N-]c1ccc(-c2cc[n-]n2)cc1)Nc1ccc(N(CCCl)CCCl)cc1 (3D coordinates assigned)
O=C([N-]c1ccc(-c2cc[n-]n2)cc1)Nc1ccc(N(CCCl)CCCl)cc1 (optimized conformer: 87.97616244527353 kcal/mol)

>  <smiles>  (39) 
O=C(Nc1ccc(-c2cc[nH]n2)cc1)Nc1ccc(N(CCCl)CCCl)cc1

>  <score_type>  (39) 
oracle

>  <origin>  (39) 
adg

>  <m_score__min__energy>  (39) 
-10.039999999999999

>  <m_primary>  (39) 
energy

$$$$
40:0
     RDKit          3D

 43 45  0  0  0  0  0  0  0  0999 V2000
   54.7880   26.1530   45.9200 N   0  0  0  0  0  0  0  0  0  0  0  0
   56.4500   25.6990   45.7770 S   0  0  0  0  0  0  0  0  0  0  0  0
   56.7890   24.7060   46.8520 O   0  0  0  0  0  0  0  0  0  0  0  0
   56.6840   25.0590   44.4380 O   0  0  0  0  0  0  0  0  0  0  0  0
   57.4650   27.1290   45.9380 C   0  0  0  0  0  0  0  0  0  0  0  0
   58.7780   27.0120   46.4110 C   0  0  0  0  0  0  0  0  0  0  0  0
   59.5790   28.1480   46.5450 C   0  0  0  0  0  0  0  0  0  0  0  0
   59.0840   29.4130   46.2020 C   0  0  0  0  0  0  0  0  0  0  0  0
   59.9310   30.5650   46.3410 N   0  0  0  0  0  0  0  0  0  0  0  0
   60.1420   31.2130   47.6050 C   0  0  0  0  0  0  0  0  0  0  0  0
   59.1830   31.2990   48.4190 O   0  0  0  0  0  0  0  0  0  0  0  0
   61.4730   31.7510   47.9760 C   0  0  0  0  0  0  0  0  0  0  0  0
   62.1330   32.6880   47.1620 C   0  0  0  0  0  0  0  0  0  0  0  0
   63.4050   33.1470   47.5090 C   0  0  0  0  0  0  0  0  0  0  0  0
   64.0160   32.6620   48.6660 C   0  0  0  0  0  0  0  0  0  0  0  0
   65.1630   33.0650   48.9930 O   0  0  0  0  0  0  0  0  0  0  0  0
   63.3730   31.7510   49.4430 N   0  0  0  0  0  0  0  0  0  0  0  0
   62.1330   31.2890   49.1290 C   0  0  0  0  0  0  0  0  0  0  0  0
   57.7470   29.5440   45.7700 C   0  0  0  0  0  0  0  0  0  0  0  0
   57.2470   30.8290   45.5220 O   0  0  0  0  0  0  0  0  0  0  0  0
   57.7250   31.7290   44.5310 C   0  0  0  0  0  0  0  0  0  0  0  0
   58.2230   32.9630   45.2240 C   0  0  0  0  0  0  0  0  0  0  0  0
   59.0510   33.8640   44.5350 C   0  0  0  0  0  0  0  0  0  0  0  0
   59.5940   34.9700   45.1960 C   0  0  0  0  0  0  0  0  0  0  0  0
   59.3200   35.1790   46.5500 C   0  0  0  0  0  0  0  0  0  0  0  0
   58.5060   34.2810   47.2450 C   0  0  0  0  0  0  0  0  0  0  0  0
   57.9630   33.1720   46.5880 C   0  0  0  0  0  0  0  0  0  0  0  0
   56.9490   28.3930   45.6270 C   0  0  0  0  0  0  0  0  0  0  0  0
   54.7670   27.0890   46.3830 H   0  0  0  0  0  0  0  0  0  0  0  0
   59.1792   26.0231   46.6775 H   0  0  0  0  0  0  0  0  0  0  0  0
   60.6072   28.0488   46.9230 H   0  0  0  0  0  0  0  0  0  0  0  0
   60.3220   31.0110   45.4800 H   0  0  0  0  0  0  0  0  0  0  0  0
   61.6458   33.0607   46.2489 H   0  0  0  0  0  0  0  0  0  0  0  0
   63.9208   33.8842   46.8762 H   0  0  0  0  0  0  0  0  0  0  0  0
   61.6435   30.5500   49.7803 H   0  0  0  0  0  0  0  0  0  0  0  0
   58.5454   31.2612   43.9670 H   0  0  0  0  0  0  0  0  0  0  0  0
   56.9187   31.9855   43.8281 H   0  0  0  0  0  0  0  0  0  0  0  0
   59.2734   33.6989   43.4704 H   0  0  0  0  0  0  0  0  0  0  0  0
   60.2371   35.6758   44.6498 H   0  0  0  0  0  0  0  0  0  0  0  0
   59.7452   36.0507   47.0689 H   0  0  0  0  0  0  0  0  0  0  0  0
   58.2917   34.4465   48.3112 H   0  0  0  0  0  0  0  0  0  0  0  0
   57.3308   32.4619   47.1411 H   0  0  0  0  0  0  0  0  0  0  0  0
   55.9133   28.4873   45.2686 H   0  0  0  0  0  0  0  0  0  0  0  0
  1  2  1  0
  2  3  2  0
  2  4  2  0
  2  5  1  0
  5  6  2  0
  6  7  1  0
  7  8  2  0
  8  9  1  0
  9 10  1  0
 10 11  2  0
 10 12  1  0
 12 13  1  0
 13 14  2  0
 14 15  1  0
 15 16  2  0
 15 17  1  0
 17 18  1  0
  8 19  1  0
 19 20  1  0
 20 21  1  0
 21 22  1  0
 22 23  2  0
 23 24  1  0
 24 25  2  0
 25 26  1  0
 26 27  2  0
 19 28  2  0
 28  5  1  0
 18 12  2  0
 27 22  1  0
  1 29  1  0
  6 30  1  0
  7 31  1  0
  9 32  1  0
 13 33  1  0
 14 34  1  0
 18 35  1  0
 21 36  1  0
 21 37  1  0
 23 38  1  0
 24 39  1  0
 25 40  1  0
 26 41  1  0
 27 42  1  0
 28 43  1  0
M  CHG  2   1  -1  17  -1
M  END
>  <UniqueID>  (40) 
39

>  <SMILES>  (40) 
[NH-]S(=O)(=O)c1ccc(NC(=O)c2ccc(=O)[n-]c2)c(OCc2ccccc2)c1

>  <Energy>  (40) 
50.91974531288773

>  <Genealogy>  (40) 
[NH-]S(=O)(=O)c1ccc(NC(=O)c2ccc(=O)[n-]c2)c(OCc2ccccc2)c1 (protonated)
[NH-]S(=O)(=O)c1ccc(NC(=O)c2ccc(=O)[n-]c2)c(OCc2ccccc2)c1 (3D coordinates assigned)
[NH-]S(=O)(=O)c1ccc(NC(=O)c2ccc(=O)[n-]c2)c(OCc2ccccc2)c1 (optimized conformer: 50.91974531288773 kcal/mol)

>  <smiles>  (40) 
NS(=O)(=O)c1ccc(NC(=O)c2ccc(=O)[nH]c2)c(OCc2ccccc2)c1

>  <score_type>  (40) 
oracle

>  <origin>  (40) 
adg

>  <m_score__min__energy>  (40) 
-12.52

>  <m_primary>  (40) 
energy

$$$$
41:0
     RDKit          3D

 60 62  0  0  0  0  0  0  0  0999 V2000
   58.1360   26.8190   42.2350 C   0  0  0  0  0  0  0  0  0  0  0  0
   58.4380   26.6250   43.7310 C   0  0  0  0  0  0  0  0  0  0  0  0
   57.4010   25.8870   44.4880 N   0  0  0  0  0  0  0  0  0  0  0  0
   57.7300   24.4760   44.7700 C   0  0  0  0  0  0  0  0  0  0  0  0
   57.0230   23.5510   43.7840 C   0  0  0  0  0  0  0  0  0  0  0  0
   56.8630   26.7700   45.9070 S   0  0  0  0  0  0  0  0  0  0  0  0
   55.3680   26.6590   46.0070 O   0  0  0  0  0  0  0  0  0  0  0  0
   57.4480   26.1630   47.1510 O   0  0  0  0  0  0  0  0  0  0  0  0
   57.3060   28.4760   45.8550 C   0  0  0  0  0  0  0  0  0  0  0  0
   56.7880   29.3090   44.8560 C   0  0  0  0  0  0  0  0  0  0  0  0
   57.1600   30.6520   44.7990 C   0  0  0  0  0  0  0  0  0  0  0  0
   58.0560   31.1790   45.7390 C   0  0  0  0  0  0  0  0  0  0  0  0
   58.3860   32.5730   45.7070 N   0  0  0  0  0  0  0  0  0  0  0  0
   58.1770   33.3720   46.9140 C   0  0  0  0  0  0  0  0  0  0  0  0
   59.0620   34.6200   46.8690 C   0  0  0  0  0  0  0  0  0  0  0  0
   58.9000   35.3140   45.6450 O   0  0  0  0  0  0  0  0  0  0  0  0
   59.3520   34.5090   44.5720 C   0  0  0  0  0  0  0  0  0  0  0  0
   58.4740   33.2650   44.4200 C   0  0  0  0  0  0  0  0  0  0  0  0
   58.5780   30.3520   46.7510 C   0  0  0  0  0  0  0  0  0  0  0  0
   59.5620   30.8650   47.6640 N   0  0  0  0  0  0  0  0  0  0  0  0
   60.9510   30.9910   47.3180 C   0  0  0  0  0  0  0  0  0  0  0  0
   61.4140   30.3350   46.3460 O   0  0  0  0  0  0  0  0  0  0  0  0
   61.8470   31.9190   48.0470 C   0  0  0  0  0  0  0  0  0  0  0  0
   63.2050   31.9560   47.6810 C   0  0  0  0  0  0  0  0  0  0  0  0
   64.0910   32.8250   48.3180 C   0  0  0  0  0  0  0  0  0  0  0  0
   63.6370   33.6640   49.3330 C   0  0  0  0  0  0  0  0  0  0  0  0
   62.2970   33.6290   49.7230 C   0  0  0  0  0  0  0  0  0  0  0  0
   61.3880   32.7510   49.0970 C   0  0  0  0  0  0  0  0  0  0  0  0
   60.0490   32.6700   49.5140 O   0  0  0  0  0  0  0  0  0  0  0  0
   59.5040   33.3910   50.6160 C   0  0  0  0  0  0  0  0  0  0  0  0
   58.1980   29.0000   46.8000 C   0  0  0  0  0  0  0  0  0  0  0  0
   57.2155   27.4103   42.1204 H   0  0  0  0  0  0  0  0  0  0  0  0
   58.9737   27.3484   41.7575 H   0  0  0  0  0  0  0  0  0  0  0  0
   58.0028   25.8370   41.7575 H   0  0  0  0  0  0  0  0  0  0  0  0
   59.3841   26.0708   43.8191 H   0  0  0  0  0  0  0  0  0  0  0  0
   58.4799   27.6329   44.1695 H   0  0  0  0  0  0  0  0  0  0  0  0
   58.8173   24.3341   44.6825 H   0  0  0  0  0  0  0  0  0  0  0  0
   57.3944   24.2309   45.7885 H   0  0  0  0  0  0  0  0  0  0  0  0
   56.4461   22.7962   44.3384 H   0  0  0  0  0  0  0  0  0  0  0  0
   56.3430   24.1404   43.1513 H   0  0  0  0  0  0  0  0  0  0  0  0
   57.7702   23.0495   43.1513 H   0  0  0  0  0  0  0  0  0  0  0  0
   56.0853   28.9029   44.1136 H   0  0  0  0  0  0  0  0  0  0  0  0
   56.7480   31.3009   44.0122 H   0  0  0  0  0  0  0  0  0  0  0  0
   57.1212   33.6749   46.9732 H   0  0  0  0  0  0  0  0  0  0  0  0
   58.4403   32.7716   47.7973 H   0  0  0  0  0  0  0  0  0  0  0  0
   58.7863   35.2865   47.6995 H   0  0  0  0  0  0  0  0  0  0  0  0
   60.1129   34.3074   46.9579 H   0  0  0  0  0  0  0  0  0  0  0  0
   59.3135   35.0937   43.6411 H   0  0  0  0  0  0  0  0  0  0  0  0
   60.3837   34.1896   44.7805 H   0  0  0  0  0  0  0  0  0  0  0  0
   57.4668   33.5640   44.0943 H   0  0  0  0  0  0  0  0  0  0  0  0
   58.9158   32.5923   43.6701 H   0  0  0  0  0  0  0  0  0  0  0  0
   59.2220   31.2150   48.5860 H   0  0  0  0  0  0  0  0  0  0  0  0
   63.5720   31.2926   46.8840 H   0  0  0  0  0  0  0  0  0  0  0  0
   65.1492   32.8477   48.0185 H   0  0  0  0  0  0  0  0  0  0  0  0
   64.3352   34.3550   49.8279 H   0  0  0  0  0  0  0  0  0  0  0  0
   61.9465   34.2931   50.5268 H   0  0  0  0  0  0  0  0  0  0  0  0
   59.8473   32.9368   51.5572 H   0  0  0  0  0  0  0  0  0  0  0  0
   59.8385   34.4379   50.5707 H   0  0  0  0  0  0  0  0  0  0  0  0
   58.4055   33.3548   50.5707 H   0  0  0  0  0  0  0  0  0  0  0  0
   58.6043   28.3475   47.5869 H   0  0  0  0  0  0  0  0  0  0  0  0
  1  2  1  0
  2  3  1  0
  3  4  1  0
  4  5  1  0
  3  6  1  0
  6  7  2  0
  6  8  2  0
  6  9  1  0
  9 10  2  0
 10 11  1  0
 11 12  2  0
 12 13  1  0
 13 14  1  0
 14 15  1  0
 15 16  1  0
 16 17  1  0
 17 18  1  0
 12 19  1  0
 19 20  1  0
 20 21  1  0
 21 22  2  0
 21 23  1  0
 23 24  2  0
 24 25  1  0
 25 26  2  0
 26 27  1  0
 27 28  2  0
 28 29  1  0
 29 30  1  0
 19 31  2  0
 31  9  1  0
 18 13  1  0
 28 23  1  0
  1 32  1  0
  1 33  1  0
  1 34  1  0
  2 35  1  0
  2 36  1  0
  4 37  1  0
  4 38  1  0
  5 39  1  0
  5 40  1  0
  5 41  1  0
 10 42  1  0
 11 43  1  0
 14 44  1  0
 14 45  1  0
 15 46  1  0
 15 47  1  0
 17 48  1  0
 17 49  1  0
 18 50  1  0
 18 51  1  0
 20 52  1  0
 24 53  1  0
 25 54  1  0
 26 55  1  0
 27 56  1  0
 30 57  1  0
 30 58  1  0
 30 59  1  0
 31 60  1  0
M  END
>  <UniqueID>  (41) 
40

>  <SMILES>  (41) 
CCN(CC)S(=O)(=O)c1ccc(N2CCOCC2)c(NC(=O)c2ccccc2OC)c1

>  <Energy>  (41) 
76.3330668307563

>  <Genealogy>  (41) 
CCN(CC)S(=O)(=O)c1ccc(N2CCOCC2)c(NC(=O)c2ccccc2OC)c1 (3D coordinates assigned)
CCN(CC)S(=O)(=O)c1ccc(N2CCOCC2)c(NC(=O)c2ccccc2OC)c1 (nonaromatic ring conformer: 76.3330668307563 kcal/mol)

>  <smiles>  (41) 
CCN(CC)S(=O)(=O)c1ccc(N2CCOCC2)c(NC(=O)c2ccccc2OC)c1

>  <score_type>  (41) 
oracle

>  <origin>  (41) 
adg

>  <m_score__min__energy>  (41) 
-8.0299999999999994

>  <m_primary>  (41) 
energy

$$$$
42:0
     RDKit          3D

 44 47  0  0  0  0  0  0  0  0999 V2000
   63.2670   31.9810   47.8530 C   0  0  0  0  0  0  0  0  0  0  0  0
   62.6220   32.1490   49.1550 N   0  0  0  0  0  0  0  0  0  0  0  0
   61.8840   30.9600   49.5250 C   0  0  0  0  0  0  0  0  0  0  0  0
   62.4140   30.1100   50.5170 C   0  0  0  0  0  0  0  0  0  0  0  0
   61.7390   28.9500   50.9000 C   0  0  0  0  0  0  0  0  0  0  0  0
   60.5270   28.6160   50.3010 C   0  0  0  0  0  0  0  0  0  0  0  0
   59.9740   29.4510   49.3290 C   0  0  0  0  0  0  0  0  0  0  0  0
   60.6230   30.6370   48.9470 C   0  0  0  0  0  0  0  0  0  0  0  0
   59.9610   31.5090   47.9560 C   0  0  0  0  0  0  0  0  0  0  0  0
   59.5590   33.1270   48.2390 S   0  0  0  0  0  0  0  0  0  0  0  0
   58.9260   33.4010   46.7140 C   0  0  0  0  0  0  0  0  0  0  0  0
   58.3630   34.5770   46.2290 C   0  0  0  0  0  0  0  0  0  0  0  0
   57.8780   34.5890   44.9140 C   0  0  0  0  0  0  0  0  0  0  0  0
   57.9650   33.4350   44.1170 C   0  0  0  0  0  0  0  0  0  0  0  0
   58.5400   32.2570   44.6250 C   0  0  0  0  0  0  0  0  0  0  0  0
   59.0280   32.2480   45.9430 C   0  0  0  0  0  0  0  0  0  0  0  0
   59.6390   31.1720   46.6270 C   0  0  0  0  0  0  0  0  0  0  0  0
   59.8980   29.8100   46.0190 C   0  0  0  0  0  0  0  0  0  0  0  0
   58.6450   28.9780   45.9960 C   0  0  0  0  0  0  0  0  0  0  0  0
   58.5640   27.7890   46.7430 C   0  0  0  0  0  0  0  0  0  0  0  0
   57.3930   27.0260   46.7270 C   0  0  0  0  0  0  0  0  0  0  0  0
   56.2940   27.4430   45.9700 C   0  0  0  0  0  0  0  0  0  0  0  0
   55.1300   26.6870   45.9610 O   0  0  0  0  0  0  0  0  0  0  0  0
   56.3680   28.6230   45.2240 C   0  0  0  0  0  0  0  0  0  0  0  0
   57.5380   29.3870   45.2340 C   0  0  0  0  0  0  0  0  0  0  0  0
   64.3220   31.7062   47.9992 H   0  0  0  0  0  0  0  0  0  0  0  0
   62.7556   31.1861   47.2903 H   0  0  0  0  0  0  0  0  0  0  0  0
   63.2084   32.9244   47.2903 H   0  0  0  0  0  0  0  0  0  0  0  0
   61.9750   32.9710   49.0990 H   0  0  0  0  0  0  0  0  0  0  0  0
   63.3390   32.3850   49.8750 H   0  0  0  0  0  0  0  0  0  0  0  0
   63.3715   30.3642   50.9951 H   0  0  0  0  0  0  0  0  0  0  0  0
   62.1653   28.2981   51.6767 H   0  0  0  0  0  0  0  0  0  0  0  0
   60.0050   27.6932   50.5942 H   0  0  0  0  0  0  0  0  0  0  0  0
   59.0190   29.1774   48.8566 H   0  0  0  0  0  0  0  0  0  0  0  0
   58.3000   35.4748   46.8615 H   0  0  0  0  0  0  0  0  0  0  0  0
   57.4276   35.5052   44.5044 H   0  0  0  0  0  0  0  0  0  0  0  0
   57.5799   33.4535   43.0868 H   0  0  0  0  0  0  0  0  0  0  0  0
   58.6071   31.3546   43.9995 H   0  0  0  0  0  0  0  0  0  0  0  0
   60.2615   29.9400   44.9890 H   0  0  0  0  0  0  0  0  0  0  0  0
   60.6494   29.2915   46.6326 H   0  0  0  0  0  0  0  0  0  0  0  0
   59.4253   27.4584   47.3420 H   0  0  0  0  0  0  0  0  0  0  0  0
   57.3360   26.0956   47.3111 H   0  0  0  0  0  0  0  0  0  0  0  0
   55.5035   28.9507   44.6280 H   0  0  0  0  0  0  0  0  0  0  0  0
   57.5924   30.3128   44.6425 H   0  0  0  0  0  0  0  0  0  0  0  0
  1  2  1  0
  2  3  1  0
  3  4  2  0
  4  5  1  0
  5  6  2  0
  6  7  1  0
  7  8  2  0
  8  9  1  0
  9 10  1  0
 10 11  1  0
 11 12  2  0
 12 13  1  0
 13 14  2  0
 14 15  1  0
 15 16  2  0
 16 17  1  0
 17 18  1  0
 18 19  1  0
 19 20  2  0
 20 21  1  0
 21 22  2  0
 22 23  1  0
 22 24  1  0
 24 25  2  0
  8  3  1  0
 17  9  2  0
 25 19  1  0
 16 11  1  0
  1 26  1  0
  1 27  1  0
  1 28  1  0
  2 29  1  0
  2 30  1  0
  4 31  1  0
  5 32  1  0
  6 33  1  0
  7 34  1  0
 12 35  1  0
 13 36  1  0
 14 37  1  0
 15 38  1  0
 18 39  1  0
 18 40  1  0
 20 41  1  0
 21 42  1  0
 24 43  1  0
 25 44  1  0
M  CHG  2   2   1  23  -1
M  END
>  <UniqueID>  (42) 
41

>  <SMILES>  (42) 
C[NH2+]c1ccccc1-c1sc2ccccc2c1Cc1ccc([O-])cc1

>  <Energy>  (42) 
84.23509741419502

>  <Genealogy>  (42) 
C[NH2+]c1ccccc1-c1sc2ccccc2c1Cc1ccc([O-])cc1 (protonated)
C[NH2+]c1ccccc1-c1sc2ccccc2c1Cc1ccc([O-])cc1 (3D coordinates assigned)
C[NH2+]c1ccccc1-c1sc2ccccc2c1Cc1ccc([O-])cc1 (optimized conformer: 84.23509741419502 kcal/mol)

>  <smiles>  (42) 
CNc1ccccc1-c1sc2ccccc2c1Cc1ccc(O)cc1

>  <score_type>  (42) 
oracle

>  <origin>  (42) 
adg

>  <m_score__min__energy>  (42) 
-9.5800000000000001

>  <m_primary>  (42) 
energy

$$$$
43:0
     RDKit          3D

 68 72  0  0  0  0  0  0  0  0999 V2000
   62.8710   31.0380   51.8430 C   0  0  0  0  0  0  0  0  0  0  0  0
   62.9850   30.5520   50.5100 O   0  0  0  0  0  0  0  0  0  0  0  0
   62.6240   31.2690   49.3570 C   0  0  0  0  0  0  0  0  0  0  0  0
   63.5510   32.1010   48.6960 C   0  0  0  0  0  0  0  0  0  0  0  0
   63.1840   32.7940   47.5410 C   0  0  0  0  0  0  0  0  0  0  0  0
   61.8960   32.6650   47.0280 C   0  0  0  0  0  0  0  0  0  0  0  0
   60.9650   31.8480   47.6690 C   0  0  0  0  0  0  0  0  0  0  0  0
   61.3050   31.1520   48.8460 C   0  0  0  0  0  0  0  0  0  0  0  0
   60.2440   30.2660   49.4890 C   0  0  1  0  0  0  0  0  0  0  0  0
   59.1860   31.0980   50.1770 C   0  0  0  0  0  0  0  0  0  0  0  0
   59.0170   32.2930   49.8130 O   0  0  0  0  0  0  0  0  0  0  0  0
   58.4010   30.5650   51.2550 N   0  0  0  0  0  0  0  0  0  0  0  0
   57.3900   31.3730   51.9350 C   0  0  0  0  0  0  0  0  0  0  0  0
   56.2050   30.5220   52.3100 C   0  0  0  0  0  0  0  0  0  0  0  0
   54.9300   30.8270   51.8050 C   0  0  0  0  0  0  0  0  0  0  0  0
   53.8360   30.0110   52.1100 C   0  0  0  0  0  0  0  0  0  0  0  0
   54.0100   28.8790   52.9100 C   0  0  0  0  0  0  0  0  0  0  0  0
   55.2770   28.5570   53.4020 C   0  0  0  0  0  0  0  0  0  0  0  0
   56.3750   29.3700   53.1000 C   0  0  0  0  0  0  0  0  0  0  0  0
   57.6010   29.0330   53.5750 F   0  0  0  0  0  0  0  0  0  0  0  0
   59.6870   29.2860   48.5350 N   0  0  0  0  0  0  0  0  0  0  0  0
   60.0150   27.9920   48.2850 C   0  0  0  0  0  0  0  0  0  0  0  0
   60.9320   27.3540   48.8700 O   0  0  0  0  0  0  0  0  0  0  0  0
   59.2520   27.4680   47.3070 N   0  0  0  0  0  0  0  0  0  0  0  0
   58.4400   28.4220   46.8850 N   0  0  0  0  0  0  0  0  0  0  0  0
   58.7110   29.5220   47.6220 C   0  0  0  0  0  0  0  0  0  0  0  0
   58.1470   30.6380   47.4710 O   0  0  0  0  0  0  0  0  0  0  0  0
   57.5310   28.2270   45.7890 C   0  0  0  0  0  0  0  0  0  0  0  0
   56.7500   29.3420   45.2250 C   0  0  0  0  0  0  0  0  0  0  0  0
   55.5390   29.1590   44.9320 O   0  0  0  0  0  0  0  0  0  0  0  0
   57.3390   30.6240   44.9800 N   0  0  0  0  0  0  0  0  0  0  0  0
   56.8950   31.5340   43.9310 C   0  0  0  0  0  0  0  0  0  0  0  0
   58.0040   32.5310   43.6100 C   0  0  0  0  0  0  0  0  0  0  0  0
   58.3310   33.3600   44.8120 C   0  0  0  0  0  0  0  0  0  0  0  0
   59.4130   34.2240   44.9360 C   0  0  0  0  0  0  0  0  0  0  0  0
   59.5080   34.8070   46.2050 C   0  0  0  0  0  0  0  0  0  0  0  0
   58.5130   34.3950   47.0840 C   0  0  0  0  0  0  0  0  0  0  0  0
   57.5160   33.3010   46.2820 S   0  0  0  0  0  0  0  0  0  0  0  0
   57.4030   26.9910   45.2820 C   0  0  0  0  0  0  0  0  0  0  0  0
   58.0710   25.8060   45.9410 C   0  0  0  0  0  0  0  0  0  0  0  0
   59.3970   26.1840   46.6250 C   0  0  0  0  0  0  0  0  0  0  0  0
   63.0634   30.2176   52.5501 H   0  0  0  0  0  0  0  0  0  0  0  0
   63.6051   31.8411   52.0045 H   0  0  0  0  0  0  0  0  0  0  0  0
   61.8563   31.4309   52.0045 H   0  0  0  0  0  0  0  0  0  0  0  0
   64.5714   32.2048   49.0936 H   0  0  0  0  0  0  0  0  0  0  0  0
   63.9138   33.4432   47.0352 H   0  0  0  0  0  0  0  0  0  0  0  0
   61.6121   33.2088   46.1149 H   0  0  0  0  0  0  0  0  0  0  0  0
   59.9529   31.7457   47.2506 H   0  0  0  0  0  0  0  0  0  0  0  0
   60.7315   29.6674   50.2726 H   0  0  0  0  0  0  0  0  0  0  0  0
   58.5710   29.5870   51.5760 H   0  0  0  0  0  0  0  0  0  0  0  0
   57.8264   31.8088   52.8459 H   0  0  0  0  0  0  0  0  0  0  0  0
   57.0559   32.1723   51.2571 H   0  0  0  0  0  0  0  0  0  0  0  0
   54.7915   31.7120   51.1666 H   0  0  0  0  0  0  0  0  0  0  0  0
   52.8382   30.2605   51.7199 H   0  0  0  0  0  0  0  0  0  0  0  0
   53.1479   28.2403   53.1528 H   0  0  0  0  0  0  0  0  0  0  0  0
   55.4118   27.6626   54.0280 H   0  0  0  0  0  0  0  0  0  0  0  0
   56.6491   30.9574   43.0271 H   0  0  0  0  0  0  0  0  0  0  0  0
   56.0041   32.0795   44.2758 H   0  0  0  0  0  0  0  0  0  0  0  0
   58.9033   31.9820   43.2939 H   0  0  0  0  0  0  0  0  0  0  0  0
   57.6608   33.1956   42.8035 H   0  0  0  0  0  0  0  0  0  0  0  0
   60.1220   34.4286   44.1203 H   0  0  0  0  0  0  0  0  0  0  0  0
   60.2957   35.5236   46.4807 H   0  0  0  0  0  0  0  0  0  0  0  0
   58.3969   34.7273   48.1262 H   0  0  0  0  0  0  0  0  0  0  0  0
   56.8028   26.8380   44.3730 H   0  0  0  0  0  0  0  0  0  0  0  0
   57.3887   25.3921   46.6980 H   0  0  0  0  0  0  0  0  0  0  0  0
   58.2972   25.0697   45.1558 H   0  0  0  0  0  0  0  0  0  0  0  0
   59.6639   25.4088   47.3583 H   0  0  0  0  0  0  0  0  0  0  0  0
   60.1887   26.2629   45.8654 H   0  0  0  0  0  0  0  0  0  0  0  0
  1  2  1  0
  2  3  1  0
  3  4  2  0
  4  5  1  0
  5  6  2  0
  6  7  1  0
  7  8  2  0
  8  9  1  0
  9 10  1  0
 10 11  2  0
 10 12  1  0
 12 13  1  0
 13 14  1  0
 14 15  2  0
 15 16  1  0
 16 17  2  0
 17 18  1  0
 18 19  2  0
 19 20  1  0
  9 21  1  0
 21 22  1  0
 22 23  2  0
 22 24  1  0
 24 25  1  0
 25 26  1  0
 26 27  2  0
 25 28  1  0
 28 29  1  0
 29 30  2  0
 29 31  1  0
 31 32  1  0
 32 33  1  0
 33 34  1  0
 34 35  2  0
 35 36  1  0
 36 37  2  0
 37 38  1  0
 28 39  2  0
 39 40  1  0
 40 41  1  0
  8  3  1  0
 19 14  1  0
 26 21  1  0
 38 34  1  0
 41 24  1  0
  1 42  1  0
  1 43  1  0
  1 44  1  0
  4 45  1  0
  5 46  1  0
  6 47  1  0
  7 48  1  0
  9 49  1  1
 12 50  1  0
 13 51  1  0
 13 52  1  0
 15 53  1  0
 16 54  1  0
 17 55  1  0
 18 56  1  0
 32 57  1  0
 32 58  1  0
 33 59  1  0
 33 60  1  0
 35 61  1  0
 36 62  1  0
 37 63  1  0
 39 64  1  0
 40 65  1  0
 40 66  1  0
 41 67  1  0
 41 68  1  0
M  CHG  1  31  -1
M  END
>  <UniqueID>  (43) 
42

>  <SMILES>  (43) 
COc1ccccc1[C@@H](C(=O)NCc1ccccc1F)n1c(=O)n2n(c1=O)C(C(=O)[N-]CCc1cccs1)=CCC2

>  <Energy>  (43) 
144.9856003210299

>  <Genealogy>  (43) 
COc1ccccc1C(C(=O)NCc1ccccc1F)n1c(=O)n2n(c1=O)C(C(=O)[N-]CCc1cccs1)=CCC2 (protonated)
COc1ccccc1[C@@H](C(=O)NCc1ccccc1F)n1c(=O)n2n(c1=O)C(C(=O)[N-]CCc1cccs1)=CCC2 (chirality)
COc1ccccc1[C@@H](C(=O)NCc1ccccc1F)n1c(=O)n2n(c1=O)C(C(=O)[N-]CCc1cccs1)=CCC2 (3D coordinates assigned)
COc1ccccc1[C@@H](C(=O)NCc1ccccc1F)n1c(=O)n2n(c1=O)C(C(=O)[N-]CCc1cccs1)=CCC2 (nonaromatic ring conformer: 144.9856003210299 kcal/mol)

>  <smiles>  (43) 
COc1ccccc1C(C(=O)NCc1ccccc1F)n1c(=O)n2n(c1=O)C(C(=O)NCCc1cccs1)=CCC2

>  <score_type>  (43) 
oracle

>  <origin>  (43) 
adg

>  <m_score__min__energy>  (43) 
-11.109999999999999

>  <m_primary>  (43) 
energy

$$$$
44:0
     RDKit          3D

 38 40  0  0  0  0  0  0  0  0999 V2000
   64.1920   32.1230   48.8500 N   0  0  0  0  0  0  0  0  0  0  0  0
   63.0290   32.7170   48.2650 C   0  0  0  0  0  0  0  0  0  0  0  0
   61.8320   32.7860   48.9920 C   0  0  0  0  0  0  0  0  0  0  0  0
   60.6950   33.3650   48.4210 C   0  0  0  0  0  0  0  0  0  0  0  0
   60.7430   33.8790   47.1180 C   0  0  0  0  0  0  0  0  0  0  0  0
   59.2950   34.5870   46.4100 S   0  0  0  0  0  0  0  0  0  0  0  0
   59.5340   34.9850   44.9800 O   0  0  0  0  0  0  0  0  0  0  0  0
   58.9210   35.8110   47.1970 O   0  0  0  0  0  0  0  0  0  0  0  0
   57.9930   33.4410   46.4770 N   0  0  0  0  0  0  0  0  0  0  0  0
   58.0960   32.0880   45.9980 C   0  0  0  0  0  0  0  0  0  0  0  0
   57.4950   31.6800   44.7930 C   0  0  0  0  0  0  0  0  0  0  0  0
   57.6200   30.3600   44.3500 C   0  0  0  0  0  0  0  0  0  0  0  0
   58.3540   29.4280   45.0970 C   0  0  0  0  0  0  0  0  0  0  0  0
   58.4620   28.0010   44.6360 C   0  0  0  0  0  0  0  0  0  0  0  0
   57.4920   27.1420   45.3850 C   0  0  0  0  0  0  0  0  0  0  0  0
   57.8250   25.6040   45.9880 S   0  0  0  0  0  0  0  0  0  0  0  0
   56.2500   25.3900   46.5380 C   0  0  0  0  0  0  0  0  0  0  0  0
   55.8410   24.3570   47.1290 O   0  0  0  0  0  0  0  0  0  0  0  0
   55.4560   26.4480   46.2700 N   0  0  0  0  0  0  0  0  0  0  0  0
   56.1460   27.4220   45.6210 C   0  0  0  0  0  0  0  0  0  0  0  0
   55.5360   28.6060   45.2240 O   0  0  0  0  0  0  0  0  0  0  0  0
   58.9360   29.8270   46.3100 C   0  0  0  0  0  0  0  0  0  0  0  0
   58.8080   31.1450   46.7550 C   0  0  0  0  0  0  0  0  0  0  0  0
   61.9400   33.8140   46.3920 C   0  0  0  0  0  0  0  0  0  0  0  0
   63.0770   33.2320   46.9620 C   0  0  0  0  0  0  0  0  0  0  0  0
   65.0880   32.0660   48.3170 H   0  0  0  0  0  0  0  0  0  0  0  0
   64.1640   31.7420   49.8230 H   0  0  0  0  0  0  0  0  0  0  0  0
   61.7875   32.3833   50.0147 H   0  0  0  0  0  0  0  0  0  0  0  0
   59.7590   33.4174   48.9965 H   0  0  0  0  0  0  0  0  0  0  0  0
   57.1310   33.7340   46.9890 H   0  0  0  0  0  0  0  0  0  0  0  0
   56.9228   32.4048   44.1953 H   0  0  0  0  0  0  0  0  0  0  0  0
   57.1397   30.0509   43.4099 H   0  0  0  0  0  0  0  0  0  0  0  0
   58.2386   27.9486   43.5602 H   0  0  0  0  0  0  0  0  0  0  0  0
   59.4833   27.6386   44.8251 H   0  0  0  0  0  0  0  0  0  0  0  0
   59.4961   29.0979   46.9138 H   0  0  0  0  0  0  0  0  0  0  0  0
   59.2693   31.4462   47.7071 H   0  0  0  0  0  0  0  0  0  0  0  0
   61.9854   34.2217   45.3714 H   0  0  0  0  0  0  0  0  0  0  0  0
   64.0124   33.1782   46.3857 H   0  0  0  0  0  0  0  0  0  0  0  0
  1  2  1  0
  2  3  2  0
  3  4  1  0
  4  5  2  0
  5  6  1  0
  6  7  2  0
  6  8  2  0
  6  9  1  0
  9 10  1  0
 10 11  2  0
 11 12  1  0
 12 13  2  0
 13 14  1  0
 14 15  1  0
 15 16  1  0
 16 17  1  0
 17 18  2  0
 17 19  1  0
 19 20  1  0
 20 21  1  0
 13 22  1  0
 22 23  2  0
  5 24  1  0
 24 25  2  0
 25  2  1  0
 23 10  1  0
 20 15  2  0
  1 26  1  0
  1 27  1  0
  3 28  1  0
  4 29  1  0
  9 30  1  0
 11 31  1  0
 12 32  1  0
 14 33  1  0
 14 34  1  0
 22 35  1  0
 23 36  1  0
 24 37  1  0
 25 38  1  0
M  CHG  2  19  -1  21  -1
M  END
>  <UniqueID>  (44) 
43

>  <SMILES>  (44) 
Nc1ccc(S(=O)(=O)Nc2ccc(Cc3sc(=O)[n-]c3[O-])cc2)cc1

>  <Energy>  (44) 
71.39102161733955

>  <Genealogy>  (44) 
Nc1ccc(S(=O)(=O)Nc2ccc(Cc3sc(=O)[n-]c3[O-])cc2)cc1 (protonated)
Nc1ccc(S(=O)(=O)Nc2ccc(Cc3sc(=O)[n-]c3[O-])cc2)cc1 (3D coordinates assigned)
Nc1ccc(S(=O)(=O)Nc2ccc(Cc3sc(=O)[n-]c3[O-])cc2)cc1 (optimized conformer: 71.39102161733955 kcal/mol)

>  <smiles>  (44) 
Nc1ccc(S(=O)(=O)Nc2ccc(Cc3sc(=O)[nH]c3O)cc2)cc1

>  <score_type>  (44) 
oracle

>  <origin>  (44) 
adg

>  <m_score__min__energy>  (44) 
-14.82

>  <m_primary>  (44) 
energy

$$$$
45:0
     RDKit          3D

 44 46  0  0  0  0  0  0  0  0999 V2000
   58.9290   22.5850   44.8690 C   0  0  0  0  0  0  0  0  0  0  0  0
   59.0540   23.4860   45.9640 O   0  0  0  0  0  0  0  0  0  0  0  0
   58.5690   24.8010   45.9660 C   0  0  0  0  0  0  0  0  0  0  0  0
   59.4210   25.9200   46.0020 C   0  0  0  0  0  0  0  0  0  0  0  0
   58.8880   27.2120   45.9980 C   0  0  0  0  0  0  0  0  0  0  0  0
   57.5040   27.4110   45.9410 C   0  0  0  0  0  0  0  0  0  0  0  0
   56.9990   28.7540   45.9570 N   0  0  0  0  0  0  0  0  0  0  0  0
   56.3050   29.4160   44.8910 C   0  0  0  0  0  0  0  0  0  0  0  0
   55.1500   29.0350   44.5610 O   0  0  0  0  0  0  0  0  0  0  0  0
   56.9880   30.4880   44.1210 C   0  0  0  0  0  0  0  0  0  0  0  0
   56.7430   30.5960   42.7380 C   0  0  0  0  0  0  0  0  0  0  0  0
   57.3060   31.6320   41.9910 C   0  0  0  0  0  0  0  0  0  0  0  0
   58.1260   32.5740   42.6110 C   0  0  0  0  0  0  0  0  0  0  0  0
   58.3940   32.4760   43.9760 C   0  0  0  0  0  0  0  0  0  0  0  0
   57.8390   31.4390   44.7400 C   0  0  0  0  0  0  0  0  0  0  0  0
   58.1840   31.3380   46.1280 N   0  0  0  0  0  0  0  0  0  0  0  0
   58.7160   32.7300   47.0110 S   0  0  0  0  0  0  0  0  0  0  0  0
   58.1060   32.7310   48.3850 O   0  0  0  0  0  0  0  0  0  0  0  0
   58.2670   33.9710   46.2900 O   0  0  0  0  0  0  0  0  0  0  0  0
   60.4780   32.7240   47.0980 C   0  0  0  0  0  0  0  0  0  0  0  0
   61.1910   33.8580   46.6850 C   0  0  0  0  0  0  0  0  0  0  0  0
   62.5880   33.8620   46.7060 C   0  0  0  0  0  0  0  0  0  0  0  0
   63.2830   32.7290   47.1310 C   0  0  0  0  0  0  0  0  0  0  0  0
   62.5830   31.5900   47.5370 C   0  0  0  0  0  0  0  0  0  0  0  0
   61.1840   31.5810   47.5190 C   0  0  0  0  0  0  0  0  0  0  0  0
   60.5270   30.4590   47.9040 F   0  0  0  0  0  0  0  0  0  0  0  0
   56.6520   26.2940   45.9280 C   0  0  0  0  0  0  0  0  0  0  0  0
   57.1850   25.0020   45.9340 C   0  0  0  0  0  0  0  0  0  0  0  0
   58.7872   21.5628   45.2497 H   0  0  0  0  0  0  0  0  0  0  0  0
   58.0620   22.8714   44.2556 H   0  0  0  0  0  0  0  0  0  0  0  0
   59.8412   22.6246   44.2556 H   0  0  0  0  0  0  0  0  0  0  0  0
   60.5113   25.7774   46.0334 H   0  0  0  0  0  0  0  0  0  0  0  0
   59.5623   28.0801   46.0400 H   0  0  0  0  0  0  0  0  0  0  0  0
   56.1001   29.8548   42.2407 H   0  0  0  0  0  0  0  0  0  0  0  0
   57.1026   31.7053   40.9125 H   0  0  0  0  0  0  0  0  0  0  0  0
   58.5618   33.3951   42.0229 H   0  0  0  0  0  0  0  0  0  0  0  0
   59.0467   33.2188   44.4579 H   0  0  0  0  0  0  0  0  0  0  0  0
   57.9150   30.4850   46.6660 H   0  0  0  0  0  0  0  0  0  0  0  0
   60.6471   34.7505   46.3421 H   0  0  0  0  0  0  0  0  0  0  0  0
   63.1402   34.7585   46.3874 H   0  0  0  0  0  0  0  0  0  0  0  0
   64.3829   32.7326   47.1464 H   0  0  0  0  0  0  0  0  0  0  0  0
   63.1331   30.6982   47.8716 H   0  0  0  0  0  0  0  0  0  0  0  0
   55.5614   26.4368   45.9130 H   0  0  0  0  0  0  0  0  0  0  0  0
   56.5093   24.1343   45.9133 H   0  0  0  0  0  0  0  0  0  0  0  0
  1  2  1  0
  2  3  1  0
  3  4  2  0
  4  5  1  0
  5  6  2  0
  6  7  1  0
  7  8  1  0
  8  9  2  0
  8 10  1  0
 10 11  2  0
 11 12  1  0
 12 13  2  0
 13 14  1  0
 14 15  2  0
 15 16  1  0
 16 17  1  0
 17 18  2  0
 17 19  2  0
 17 20  1  0
 20 21  2  0
 21 22  1  0
 22 23  2  0
 23 24  1  0
 24 25  2  0
 25 26  1  0
  6 27  1  0
 27 28  2  0
 28  3  1  0
 15 10  1  0
 25 20  1  0
  1 29  1  0
  1 30  1  0
  1 31  1  0
  4 32  1  0
  5 33  1  0
 11 34  1  0
 12 35  1  0
 13 36  1  0
 14 37  1  0
 16 38  1  0
 21 39  1  0
 22 40  1  0
 23 41  1  0
 24 42  1  0
 27 43  1  0
 28 44  1  0
M  CHG  1   7  -1
M  END
>  <UniqueID>  (45) 
44

>  <SMILES>  (45) 
COc1ccc([N-]C(=O)c2ccccc2NS(=O)(=O)c2ccccc2F)cc1

>  <Energy>  (45) 
58.89466220932368

>  <Genealogy>  (45) 
COc1ccc([N-]C(=O)c2ccccc2NS(=O)(=O)c2ccccc2F)cc1 (protonated)
COc1ccc([N-]C(=O)c2ccccc2NS(=O)(=O)c2ccccc2F)cc1 (3D coordinates assigned)
COc1ccc([N-]C(=O)c2ccccc2NS(=O)(=O)c2ccccc2F)cc1 (optimized conformer: 58.89466220932368 kcal/mol)

>  <smiles>  (45) 
COc1ccc(NC(=O)c2ccccc2NS(=O)(=O)c2ccccc2F)cc1

>  <score_type>  (45) 
oracle

>  <origin>  (45) 
adg

>  <m_score__min__energy>  (45) 
-11.43

>  <m_primary>  (45) 
energy

$$$$
46:0
     RDKit          3D

 37 39  0  0  0  0  0  0  0  0999 V2000
   59.6490   28.5250   44.6060 C   0  0  0  0  0  0  0  0  0  0  0  0
   58.4040   27.6510   44.5380 C   0  0  0  0  0  0  0  0  0  0  0  0
   57.1360   28.2600   45.6360 S   0  0  0  0  0  0  0  0  0  0  0  0
   56.2190   27.1300   46.0140 O   0  0  0  0  0  0  0  0  0  0  0  0
   57.7890   28.8200   46.8680 O   0  0  0  0  0  0  0  0  0  0  0  0
   56.2380   29.5050   44.8320 N   0  0  0  0  0  0  0  0  0  0  0  0
   56.8040   30.5840   44.0730 C   0  0  0  0  0  0  0  0  0  0  0  0
   56.8150   30.5660   42.6670 C   0  0  0  0  0  0  0  0  0  0  0  0
   57.3860   31.6180   41.9520 C   0  0  0  0  0  0  0  0  0  0  0  0
   57.9380   32.7070   42.6270 C   0  0  0  0  0  0  0  0  0  0  0  0
   57.9110   32.7610   44.0250 C   0  0  0  0  0  0  0  0  0  0  0  0
   58.4950   33.8930   44.6900 N   0  0  0  0  0  0  0  0  0  0  0  0
   59.3650   33.8010   45.8300 C   0  0  0  0  0  0  0  0  0  0  0  0
   58.8600   33.8320   47.1480 C   0  0  0  0  0  0  0  0  0  0  0  0
   59.7580   33.7620   48.2210 C   0  0  0  0  0  0  0  0  0  0  0  0
   59.3290   33.7820   49.4080 O   0  0  0  0  0  0  0  0  0  0  0  0
   61.0910   33.6770   47.9600 N   0  0  0  0  0  0  0  0  0  0  0  0
   62.0990   33.6040   48.8730 C   0  0  0  0  0  0  0  0  0  0  0  0
   63.3720   33.5350   48.3090 C   0  0  0  0  0  0  0  0  0  0  0  0
   63.2220   33.5670   46.6230 S   0  0  0  0  0  0  0  0  0  0  0  0
   61.5500   33.6670   46.6900 C   0  0  0  0  0  0  0  0  0  0  0  0
   60.7120   33.7320   45.6280 N   0  0  0  0  0  0  0  0  0  0  0  0
   57.3690   31.6820   44.7540 C   0  0  0  0  0  0  0  0  0  0  0  0
   57.4180   31.7070   46.1500 O   0  0  0  0  0  0  0  0  0  0  0  0
   59.9109   28.7088   45.6584 H   0  0  0  0  0  0  0  0  0  0  0  0
   60.4838   28.0137   44.1043 H   0  0  0  0  0  0  0  0  0  0  0  0
   59.4517   29.4839   44.1043 H   0  0  0  0  0  0  0  0  0  0  0  0
   58.0190   27.6525   43.5076 H   0  0  0  0  0  0  0  0  0  0  0  0
   58.6745   26.6303   44.8462 H   0  0  0  0  0  0  0  0  0  0  0  0
   56.3703   29.7166   42.1278 H   0  0  0  0  0  0  0  0  0  0  0  0
   57.4013   31.5892   40.8525 H   0  0  0  0  0  0  0  0  0  0  0  0
   58.3972   33.5281   42.0569 H   0  0  0  0  0  0  0  0  0  0  0  0
   58.2130   34.8470   44.3690 H   0  0  0  0  0  0  0  0  0  0  0  0
   57.7779   33.9099   47.3297 H   0  0  0  0  0  0  0  0  0  0  0  0
   61.9242   33.5999   49.9590 H   0  0  0  0  0  0  0  0  0  0  0  0
   64.3177   33.4704   48.8672 H   0  0  0  0  0  0  0  0  0  0  0  0
   57.1130   30.9290   46.7210 H   0  0  0  0  0  0  0  0  0  0  0  0
  1  2  1  0
  2  3  1  0
  3  4  2  0
  3  5  2  0
  3  6  1  0
  6  7  1  0
  7  8  2  0
  8  9  1  0
  9 10  2  0
 10 11  1  0
 11 12  1  0
 12 13  1  0
 13 14  2  0
 14 15  1  0
 15 16  2  0
 15 17  1  0
 17 18  1  0
 18 19  2  0
 19 20  1  0
 20 21  1  0
 21 22  2  0
 11 23  2  0
 23 24  1  0
 23  7  1  0
 22 13  1  0
 21 17  1  0
  1 25  1  0
  1 26  1  0
  1 27  1  0
  2 28  1  0
  2 29  1  0
  8 30  1  0
  9 31  1  0
 10 32  1  0
 12 33  1  0
 14 34  1  0
 18 35  1  0
 19 36  1  0
 24 37  1  0
M  CHG  1   6  -1
M  END
>  <UniqueID>  (46) 
45

>  <SMILES>  (46) 
CCS(=O)(=O)[N-]c1cccc(Nc2cc(=O)n3ccsc3n2)c1O

>  <Energy>  (46) 
77.63662814671136

>  <Genealogy>  (46) 
CCS(=O)(=O)[N-]c1cccc(Nc2cc(=O)n3ccsc3n2)c1O (protonated)
CCS(=O)(=O)[N-]c1cccc(Nc2cc(=O)n3ccsc3n2)c1O (3D coordinates assigned)
CCS(=O)(=O)[N-]c1cccc(Nc2cc(=O)n3ccsc3n2)c1O (optimized conformer: 77.63662814671136 kcal/mol)

>  <smiles>  (46) 
CCS(=O)(=O)Nc1cccc(Nc2cc(=O)n3ccsc3n2)c1O

>  <score_type>  (46) 
oracle

>  <origin>  (46) 
adg

>  <m_score__min__energy>  (46) 
-10.93

>  <m_primary>  (46) 
energy

$$$$
47:0
     RDKit          3D

 56 59  0  0  0  0  0  0  0  0999 V2000
   63.7260   33.3950   46.6780 C   0  0  0  0  0  0  0  0  0  0  0  0
   63.4230   32.8070   48.0240 C   0  0  0  0  0  0  0  0  0  0  0  0
   64.4440   32.6400   48.9670 C   0  0  0  0  0  0  0  0  0  0  0  0
   64.1560   32.1270   50.2330 C   0  0  0  0  0  0  0  0  0  0  0  0
   62.8390   31.7820   50.5800 C   0  0  0  0  0  0  0  0  0  0  0  0
   62.5440   31.2370   51.9500 C   0  0  0  0  0  0  0  0  0  0  0  0
   61.8000   31.9660   49.6440 C   0  0  0  0  0  0  0  0  0  0  0  0
   60.4560   31.6240   50.0150 N   0  0  0  0  0  0  0  0  0  0  0  0
   59.0620   32.6270   49.7860 S   0  0  0  0  0  0  0  0  0  0  0  0
   59.0670   33.7440   50.7920 O   0  0  0  0  0  0  0  0  0  0  0  0
   57.8090   31.8120   49.9540 O   0  0  0  0  0  0  0  0  0  0  0  0
   59.1040   33.2910   48.1570 C   0  0  0  0  0  0  0  0  0  0  0  0
   59.6740   34.5500   47.9350 C   0  0  0  0  0  0  0  0  0  0  0  0
   59.6950   35.0940   46.6500 C   0  0  0  0  0  0  0  0  0  0  0  0
   59.1480   34.3850   45.5780 C   0  0  0  0  0  0  0  0  0  0  0  0
   58.5760   33.1150   45.7790 C   0  0  0  0  0  0  0  0  0  0  0  0
   57.9960   32.3780   44.6280 C   0  0  0  0  0  0  0  0  0  0  0  0
   58.2940   32.7270   43.2990 C   0  0  0  0  0  0  0  0  0  0  0  0
   57.7270   31.9990   42.2530 C   0  0  0  0  0  0  0  0  0  0  0  0
   56.8600   30.9420   42.5280 C   0  0  0  0  0  0  0  0  0  0  0  0
   56.5510   30.6350   43.8590 C   0  0  0  0  0  0  0  0  0  0  0  0
   55.6540   29.5180   44.1990 C   0  0  0  0  0  0  0  0  0  0  0  0
   54.6110   29.3470   43.5150 O   0  0  0  0  0  0  0  0  0  0  0  0
   55.9460   28.5930   45.2530 N   0  0  0  0  0  0  0  0  0  0  0  0
   57.0820   27.6790   45.2700 C   0  0  0  0  0  0  0  0  0  0  0  0
   58.3160   28.4320   45.6730 C   0  0  0  0  0  0  0  0  0  0  0  0
   58.5090   28.8280   47.0050 C   0  0  0  0  0  0  0  0  0  0  0  0
   59.6790   29.4970   47.3710 C   0  0  0  0  0  0  0  0  0  0  0  0
   60.6520   29.7530   46.4040 C   0  0  0  0  0  0  0  0  0  0  0  0
   60.4590   29.3480   45.1190 N   0  0  0  0  0  0  0  0  0  0  0  0
   59.3280   28.6980   44.7380 C   0  0  0  0  0  0  0  0  0  0  0  0
   57.1350   31.3460   44.8620 N   0  0  0  0  0  0  0  0  0  0  0  0
   58.5480   32.5810   47.0820 C   0  0  0  0  0  0  0  0  0  0  0  0
   62.1020   32.4860   48.3700 C   0  0  0  0  0  0  0  0  0  0  0  0
   64.2264   34.3661   46.8063 H   0  0  0  0  0  0  0  0  0  0  0  0
   64.3853   32.7137   46.1202 H   0  0  0  0  0  0  0  0  0  0  0  0
   62.7885   33.5365   46.1202 H   0  0  0  0  0  0  0  0  0  0  0  0
   65.4777   32.9142   48.7094 H   0  0  0  0  0  0  0  0  0  0  0  0
   64.9664   31.9919   50.9645 H   0  0  0  0  0  0  0  0  0  0  0  0
   62.9219   31.9351   52.7115 H   0  0  0  0  0  0  0  0  0  0  0  0
   61.4573   31.1161   52.0704 H   0  0  0  0  0  0  0  0  0  0  0  0
   63.0370   30.2611   52.0704 H   0  0  0  0  0  0  0  0  0  0  0  0
   60.1066   35.1122   48.7757 H   0  0  0  0  0  0  0  0  0  0  0  0
   60.1436   36.0840   46.4809 H   0  0  0  0  0  0  0  0  0  0  0  0
   59.1645   34.8227   44.5690 H   0  0  0  0  0  0  0  0  0  0  0  0
   58.9697   33.5684   43.0856 H   0  0  0  0  0  0  0  0  0  0  0  0
   57.9639   32.2588   41.2107 H   0  0  0  0  0  0  0  0  0  0  0  0
   56.4228   30.3547   41.7070 H   0  0  0  0  0  0  0  0  0  0  0  0
   56.8926   26.8703   45.9912 H   0  0  0  0  0  0  0  0  0  0  0  0
   57.2236   27.2471   44.2683 H   0  0  0  0  0  0  0  0  0  0  0  0
   57.7393   28.6117   47.7605 H   0  0  0  0  0  0  0  0  0  0  0  0
   59.8321   29.8191   48.4116 H   0  0  0  0  0  0  0  0  0  0  0  0
   61.5757   30.2825   46.6805 H   0  0  0  0  0  0  0  0  0  0  0  0
   59.2053   28.3791   43.6924 H   0  0  0  0  0  0  0  0  0  0  0  0
   58.0861   31.5984   47.2585 H   0  0  0  0  0  0  0  0  0  0  0  0
   61.2943   32.6418   47.6397 H   0  0  0  0  0  0  0  0  0  0  0  0
  1  2  1  0
  2  3  2  0
  3  4  1  0
  4  5  2  0
  5  6  1  0
  5  7  1  0
  7  8  1  0
  8  9  1  0
  9 10  2  0
  9 11  2  0
  9 12  1  0
 12 13  2  0
 13 14  1  0
 14 15  2  0
 15 16  1  0
 16 17  1  0
 17 18  2  0
 18 19  1  0
 19 20  2  0
 20 21  1  0
 21 22  1  0
 22 23  2  0
 22 24  1  0
 24 25  1  0
 25 26  1  0
 26 27  2  0
 27 28  1  0
 28 29  2  0
 29 30  1  0
 30 31  2  0
 21 32  2  0
 16 33  2  0
  7 34  2  0
 34  2  1  0
 33 12  1  0
 32 17  1  0
 31 26  1  0
  1 35  1  0
  1 36  1  0
  1 37  1  0
  3 38  1  0
  4 39  1  0
  6 40  1  0
  6 41  1  0
  6 42  1  0
 13 43  1  0
 14 44  1  0
 15 45  1  0
 18 46  1  0
 19 47  1  0
 20 48  1  0
 25 49  1  0
 25 50  1  0
 27 51  1  0
 28 52  1  0
 29 53  1  0
 31 54  1  0
 33 55  1  0
 34 56  1  0
M  CHG  2   8  -1  24  -1
M  END
>  <UniqueID>  (47) 
46

>  <SMILES>  (47) 
Cc1ccc(C)c([N-]S(=O)(=O)c2cccc(-c3cccc(C(=O)[N-]Cc4cccnc4)n3)c2)c1

>  <Energy>  (47) 
72.23423047870483

>  <Genealogy>  (47) 
Cc1ccc(C)c([N-]S(=O)(=O)c2cccc(-c3cccc(C(=O)[N-]Cc4cccnc4)n3)c2)c1 (protonated)
Cc1ccc(C)c([N-]S(=O)(=O)c2cccc(-c3cccc(C(=O)[N-]Cc4cccnc4)n3)c2)c1 (3D coordinates assigned)
Cc1ccc(C)c([N-]S(=O)(=O)c2cccc(-c3cccc(C(=O)[N-]Cc4cccnc4)n3)c2)c1 (optimized conformer: 72.23423047870483 kcal/mol)

>  <smiles>  (47) 
Cc1ccc(C)c(NS(=O)(=O)c2cccc(-c3cccc(C(=O)NCc4cccnc4)n3)c2)c1

>  <score_type>  (47) 
oracle

>  <origin>  (47) 
adg

>  <m_score__min__energy>  (47) 
-13.539999999999999

>  <m_primary>  (47) 
energy

$$$$
48:0
     RDKit          3D

 36 38  0  0  0  0  0  0  0  0999 V2000
   58.4980   22.1990   44.9670 C   0  0  0  0  0  0  0  0  0  0  0  0
   57.5630   23.2990   45.2580 N   0  0  0  0  0  0  0  0  0  0  0  0
   58.0480   24.5000   45.7020 C   0  0  0  0  0  0  0  0  0  0  0  0
   57.1780   25.5630   45.9450 C   0  0  0  0  0  0  0  0  0  0  0  0
   55.8150   25.3800   45.7430 C   0  0  0  0  0  0  0  0  0  0  0  0
   55.0280   26.3430   45.9630 O   0  0  0  0  0  0  0  0  0  0  0  0
   55.3400   24.1750   45.2980 N   0  0  0  0  0  0  0  0  0  0  0  0
   53.9010   24.0010   45.0370 C   0  0  0  0  0  0  0  0  0  0  0  0
   56.2170   23.1530   45.0180 C   0  0  0  0  0  0  0  0  0  0  0  0
   55.7810   22.0710   44.5340 O   0  0  0  0  0  0  0  0  0  0  0  0
   57.6770   26.7930   46.3990 O   0  0  0  0  0  0  0  0  0  0  0  0
   59.0530   27.1730   46.2700 C   0  0  2  0  0  0  0  0  0  0  0  0
   59.2420   27.9000   44.9280 C   0  0  0  0  0  0  0  0  0  0  0  0
   58.3210   29.0860   44.7900 C   0  0  0  0  0  0  0  0  0  0  0  0
   57.0880   28.9560   44.1290 C   0  0  0  0  0  0  0  0  0  0  0  0
   56.2480   30.0640   43.9820 C   0  0  0  0  0  0  0  0  0  0  0  0
   56.6330   31.3080   44.4890 C   0  0  0  0  0  0  0  0  0  0  0  0
   57.8610   31.4460   45.1430 C   0  0  0  0  0  0  0  0  0  0  0  0
   58.7040   30.3410   45.2910 C   0  0  0  0  0  0  0  0  0  0  0  0
   59.9450   25.9610   46.3600 C   0  0  0  0  0  0  0  0  0  0  0  0
   61.1420   26.0740   46.7360 O   0  0  0  0  0  0  0  0  0  0  0  0
   59.4430   24.6830   45.9640 N   0  0  0  0  0  0  0  0  0  0  0  0
   58.8635   21.7690   45.9112 H   0  0  0  0  0  0  0  0  0  0  0  0
   57.9801   21.4215   44.3862 H   0  0  0  0  0  0  0  0  0  0  0  0
   59.3488   22.5849   44.3862 H   0  0  0  0  0  0  0  0  0  0  0  0
   53.3603   23.9356   45.9927 H   0  0  0  0  0  0  0  0  0  0  0  0
   53.5262   24.8604   44.4617 H   0  0  0  0  0  0  0  0  0  0  0  0
   53.7418   23.0771   44.4617 H   0  0  0  0  0  0  0  0  0  0  0  0
   59.3317   27.8502   47.0909 H   0  0  0  0  0  0  0  0  0  0  0  0
   60.2827   28.2491   44.8574 H   0  0  0  0  0  0  0  0  0  0  0  0
   59.0032   27.1904   44.1221 H   0  0  0  0  0  0  0  0  0  0  0  0
   56.7825   27.9792   43.7258 H   0  0  0  0  0  0  0  0  0  0  0  0
   55.2823   29.9563   43.4663 H   0  0  0  0  0  0  0  0  0  0  0  0
   55.9702   32.1783   44.3736 H   0  0  0  0  0  0  0  0  0  0  0  0
   58.1641   32.4254   45.5416 H   0  0  0  0  0  0  0  0  0  0  0  0
   59.6714   30.4547   45.8020 H   0  0  0  0  0  0  0  0  0  0  0  0
  1  2  1  0
  2  3  1  0
  3  4  2  0
  4  5  1  0
  5  6  2  0
  5  7  1  0
  7  8  1  0
  7  9  1  0
  9 10  2  0
  4 11  1  0
 11 12  1  0
 12 13  1  0
 13 14  1  0
 14 15  2  0
 15 16  1  0
 16 17  2  0
 17 18  1  0
 18 19  2  0
 12 20  1  0
 20 21  2  0
 20 22  1  0
  9  2  1  0
 19 14  1  0
 22  3  1  0
  1 23  1  0
  1 24  1  0
  1 25  1  0
  8 26  1  0
  8 27  1  0
  8 28  1  0
 12 29  1  1
 13 30  1  0
 13 31  1  0
 15 32  1  0
 16 33  1  0
 17 34  1  0
 18 35  1  0
 19 36  1  0
M  CHG  1  22  -1
M  END
>  <UniqueID>  (48) 
47

>  <SMILES>  (48) 
Cn1c2c(c(=O)n(C)c1=O)O[C@H](Cc1ccccc1)C(=O)[N-]2

>  <Energy>  (48) 
45.66380848261862

>  <Genealogy>  (48) 
Cn1c2c(c(=O)n(C)c1=O)OC(Cc1ccccc1)C(=O)[N-]2 (protonated)
Cn1c2c(c(=O)n(C)c1=O)O[C@H](Cc1ccccc1)C(=O)[N-]2 (chirality)
Cn1c2c(c(=O)n(C)c1=O)O[C@H](Cc1ccccc1)C(=O)[N-]2 (3D coordinates assigned)
Cn1c2c(c(=O)n(C)c1=O)O[C@H](Cc1ccccc1)C(=O)[N-]2 (nonaromatic ring conformer: 45.66380848261862 kcal/mol)

>  <smiles>  (48) 
Cn1c2c(c(=O)n(C)c1=O)OC(Cc1ccccc1)C(=O)N2

>  <score_type>  (48) 
oracle

>  <origin>  (48) 
adg

>  <m_score__min__energy>  (48) 
-8.2799999999999994

>  <m_primary>  (48) 
energy

$$$$
49:0
     RDKit          3D

 41 44  0  0  0  0  0  0  0  0999 V2000
   57.6530   34.5790   45.7560 O   0  0  0  0  0  0  0  0  0  0  0  0
   58.2760   33.4960   45.5890 C   0  0  0  0  0  0  0  0  0  0  0  0
   57.8170   32.5550   44.5380 C   0  0  0  0  0  0  0  0  0  0  0  0
   57.0500   31.4230   44.8710 C   0  0  0  0  0  0  0  0  0  0  0  0
   56.6190   30.5430   43.8740 C   0  0  0  0  0  0  0  0  0  0  0  0
   56.9410   30.7880   42.5370 C   0  0  0  0  0  0  0  0  0  0  0  0
   57.6880   31.9160   42.1940 C   0  0  0  0  0  0  0  0  0  0  0  0
   58.1220   32.7990   43.1870 C   0  0  0  0  0  0  0  0  0  0  0  0
   59.4050   33.1900   46.4320 N   0  0  0  0  0  0  0  0  0  0  0  0
   60.4070   34.2290   46.7080 C   0  0  0  0  0  0  0  0  0  0  0  0
   61.5880   33.6470   47.4430 C   0  0  0  0  0  0  0  0  0  0  0  0
   61.5920   33.5680   48.8440 C   0  0  0  0  0  0  0  0  0  0  0  0
   62.7030   33.0500   49.5110 C   0  0  0  0  0  0  0  0  0  0  0  0
   63.8040   32.6160   48.7720 C   0  0  0  0  0  0  0  0  0  0  0  0
   63.7910   32.6960   47.4140 N   0  0  0  0  0  0  0  0  0  0  0  0
   62.7180   33.1980   46.7410 C   0  0  0  0  0  0  0  0  0  0  0  0
   59.6190   31.8390   46.8810 C   0  0  0  0  0  0  0  0  0  0  0  0
   59.9490   30.8170   46.0450 N   0  0  0  0  0  0  0  0  0  0  0  0
   60.0440   29.7830   46.8970 C   0  0  0  0  0  0  0  0  0  0  0  0
   60.3620   28.4590   46.6050 C   0  0  0  0  0  0  0  0  0  0  0  0
   60.4020   27.5450   47.6770 C   0  0  0  0  0  0  0  0  0  0  0  0
   60.1270   27.9780   48.9960 C   0  0  0  0  0  0  0  0  0  0  0  0
   59.8100   29.3250   49.2540 C   0  0  0  0  0  0  0  0  0  0  0  0
   59.7800   30.1960   48.1680 C   0  0  0  0  0  0  0  0  0  0  0  0
   59.5170   31.4730   48.1500 O   0  0  0  0  0  0  0  0  0  0  0  0
   56.7882   31.2296   45.9217 H   0  0  0  0  0  0  0  0  0  0  0  0
   56.0256   29.6566   44.1426 H   0  0  0  0  0  0  0  0  0  0  0  0
   56.6057   30.0917   41.7542 H   0  0  0  0  0  0  0  0  0  0  0  0
   57.9357   32.1106   41.1401 H   0  0  0  0  0  0  0  0  0  0  0  0
   58.7053   33.6896   42.9101 H   0  0  0  0  0  0  0  0  0  0  0  0
   60.7508   34.6612   45.7567 H   0  0  0  0  0  0  0  0  0  0  0  0
   59.9473   35.0065   47.3358 H   0  0  0  0  0  0  0  0  0  0  0  0
   60.7191   33.9145   49.4167 H   0  0  0  0  0  0  0  0  0  0  0  0
   62.7106   32.9845   50.6090 H   0  0  0  0  0  0  0  0  0  0  0  0
   64.6851   32.2080   49.2889 H   0  0  0  0  0  0  0  0  0  0  0  0
   64.6220   32.3660   46.8740 H   0  0  0  0  0  0  0  0  0  0  0  0
   62.7371   33.2518   45.6425 H   0  0  0  0  0  0  0  0  0  0  0  0
   60.5744   28.1381   45.5745 H   0  0  0  0  0  0  0  0  0  0  0  0
   60.6482   26.4898   47.4876 H   0  0  0  0  0  0  0  0  0  0  0  0
   60.1612   27.2566   49.8257 H   0  0  0  0  0  0  0  0  0  0  0  0
   59.5943   29.6759   50.2740 H   0  0  0  0  0  0  0  0  0  0  0  0
  1  2  2  0
  2  3  1  0
  3  4  2  0
  4  5  1  0
  5  6  2  0
  6  7  1  0
  7  8  2  0
  2  9  1  0
  9 10  1  0
 10 11  1  0
 11 12  2  0
 12 13  1  0
 13 14  2  0
 14 15  1  0
 15 16  2  0
  9 17  1  0
 17 18  2  0
 18 19  1  0
 19 20  2  0
 20 21  1  0
 21 22  2  0
 22 23  1  0
 23 24  2  0
 24 25  1  0
  8  3  1  0
 16 11  1  0
 25 17  1  0
 24 19  1  0
  4 26  1  0
  5 27  1  0
  6 28  1  0
  7 29  1  0
  8 30  1  0
 10 31  1  0
 10 32  1  0
 12 33  1  0
 13 34  1  0
 14 35  1  0
 15 36  1  0
 16 37  1  0
 20 38  1  0
 21 39  1  0
 22 40  1  0
 23 41  1  0
M  CHG  1  15   1
M  END
>  <UniqueID>  (49) 
48

>  <SMILES>  (49) 
O=C(c1ccccc1)N(Cc1ccc[nH+]c1)c1nc2ccccc2o1

>  <Energy>  (49) 
87.40079270468269

>  <Genealogy>  (49) 
O=C(c1ccccc1)N(Cc1ccc[nH+]c1)c1nc2ccccc2o1 (protonated)
O=C(c1ccccc1)N(Cc1ccc[nH+]c1)c1nc2ccccc2o1 (3D coordinates assigned)
O=C(c1ccccc1)N(Cc1ccc[nH+]c1)c1nc2ccccc2o1 (optimized conformer: 87.40079270468269 kcal/mol)

>  <smiles>  (49) 
O=C(c1ccccc1)N(Cc1cccnc1)c1nc2ccccc2o1

>  <score_type>  (49) 
oracle

>  <origin>  (49) 
adg

>  <m_score__min__energy>  (49) 
-6.4199999999999999

>  <m_primary>  (49) 
energy

$$$$
50:0
     RDKit          3D

 50 53  0  0  0  0  0  0  0  0999 V2000
   57.6010   32.6850   40.7830 C   0  0  0  0  0  0  0  0  0  0  0  0
   57.7670   32.6360   42.1970 O   0  0  0  0  0  0  0  0  0  0  0  0
   57.4060   31.5420   42.9980 C   0  0  0  0  0  0  0  0  0  0  0  0
   57.7940   31.4340   44.3480 C   0  0  0  0  0  0  0  0  0  0  0  0
   57.4060   30.3250   45.1070 C   0  0  0  0  0  0  0  0  0  0  0  0
   56.6110   29.3200   44.5340 C   0  0  0  0  0  0  0  0  0  0  0  0
   56.2060   28.1670   45.2820 N   0  0  0  0  0  0  0  0  0  0  0  0
   57.0720   27.1850   45.8690 C   0  0  0  0  0  0  0  0  0  0  0  0
   56.9360   26.9320   47.0950 O   0  0  0  0  0  0  0  0  0  0  0  0
   58.1060   26.4180   45.0560 C   0  0  1  0  0  0  0  0  0  0  0  0
   59.7670   26.3560   45.8540 S   0  0  0  0  0  0  0  0  0  0  0  0
   59.8350   28.0590   46.4110 C   0  0  0  0  0  0  0  0  0  0  0  0
   59.2000   28.5080   47.5150 N   0  0  0  0  0  0  0  0  0  0  0  0
   59.3980   29.8380   47.7120 C   0  0  0  0  0  0  0  0  0  0  0  0
   60.2470   30.4360   46.7890 C   0  0  0  0  0  0  0  0  0  0  0  0
   60.7110   29.2840   45.6550 S   0  0  0  0  0  0  0  0  0  0  0  0
   60.5420   31.9040   46.7410 C   0  0  0  0  0  0  0  0  0  0  0  0
   60.2100   32.5700   48.0870 C   0  0  0  0  0  0  0  0  0  0  0  0
   58.8410   32.1100   48.6200 C   0  0  0  0  0  0  0  0  0  0  0  0
   58.8180   30.5930   48.8750 C   0  0  0  0  0  0  0  0  0  0  0  0
   57.6610   25.0210   44.6480 C   0  0  0  0  0  0  0  0  0  0  0  0
   56.9910   24.8420   43.4240 C   0  0  0  0  0  0  0  0  0  0  0  0
   56.6210   23.5630   42.9950 C   0  0  0  0  0  0  0  0  0  0  0  0
   56.9270   22.4470   43.7760 C   0  0  0  0  0  0  0  0  0  0  0  0
   57.6070   22.6060   44.9850 C   0  0  0  0  0  0  0  0  0  0  0  0
   57.9750   23.8820   45.4210 C   0  0  0  0  0  0  0  0  0  0  0  0
   56.2500   29.4140   43.1850 C   0  0  0  0  0  0  0  0  0  0  0  0
   56.6370   30.5230   42.4270 C   0  0  0  0  0  0  0  0  0  0  0  0
   56.5710   32.9890   40.5451 H   0  0  0  0  0  0  0  0  0  0  0  0
   58.3062   33.4133   40.3560 H   0  0  0  0  0  0  0  0  0  0  0  0
   57.7976   31.6905   40.3560 H   0  0  0  0  0  0  0  0  0  0  0  0
   58.4048   32.2253   44.8072 H   0  0  0  0  0  0  0  0  0  0  0  0
   57.7249   30.2402   46.1563 H   0  0  0  0  0  0  0  0  0  0  0  0
   58.1993   27.0095   44.1333 H   0  0  0  0  0  0  0  0  0  0  0  0
   58.6110   27.9070   48.1330 H   0  0  0  0  0  0  0  0  0  0  0  0
   61.6094   32.0507   46.5192 H   0  0  0  0  0  0  0  0  0  0  0  0
   59.9224   32.3636   45.9569 H   0  0  0  0  0  0  0  0  0  0  0  0
   60.9867   32.3038   48.8190 H   0  0  0  0  0  0  0  0  0  0  0  0
   60.1735   33.6587   47.9343 H   0  0  0  0  0  0  0  0  0  0  0  0
   58.6297   32.6346   49.5635 H   0  0  0  0  0  0  0  0  0  0  0  0
   58.0783   32.3451   47.8630 H   0  0  0  0  0  0  0  0  0  0  0  0
   59.4079   30.3717   49.7767 H   0  0  0  0  0  0  0  0  0  0  0  0
   57.7726   30.2779   49.0087 H   0  0  0  0  0  0  0  0  0  0  0  0
   56.7559   25.7158   42.7985 H   0  0  0  0  0  0  0  0  0  0  0  0
   56.0882   23.4364   42.0410 H   0  0  0  0  0  0  0  0  0  0  0  0
   56.6323   21.4423   43.4388 H   0  0  0  0  0  0  0  0  0  0  0  0
   57.8537   21.7251   45.5958 H   0  0  0  0  0  0  0  0  0  0  0  0
   58.5131   23.9996   46.3732 H   0  0  0  0  0  0  0  0  0  0  0  0
   55.6591   28.6116   42.7191 H   0  0  0  0  0  0  0  0  0  0  0  0
   56.3340   30.5948   41.3720 H   0  0  0  0  0  0  0  0  0  0  0  0
  1  2  1  0
  2  3  1  0
  3  4  2  0
  4  5  1  0
  5  6  2  0
  6  7  1  0
  7  8  1  0
  8  9  2  0
  8 10  1  0
 10 11  1  0
 11 12  1  0
 12 13  2  0
 13 14  1  0
 14 15  2  0
 15 16  1  0
 15 17  1  0
 17 18  1  0
 18 19  1  0
 19 20  1  0
 10 21  1  0
 21 22  2  0
 22 23  1  0
 23 24  2  0
 24 25  1  0
 25 26  2  0
  6 27  1  0
 27 28  2  0
 28  3  1  0
 16 12  1  0
 26 21  1  0
 20 14  1  0
  1 29  1  0
  1 30  1  0
  1 31  1  0
  4 32  1  0
  5 33  1  0
 10 34  1  6
 13 35  1  0
 17 36  1  0
 17 37  1  0
 18 38  1  0
 18 39  1  0
 19 40  1  0
 19 41  1  0
 20 42  1  0
 20 43  1  0
 22 44  1  0
 23 45  1  0
 24 46  1  0
 25 47  1  0
 26 48  1  0
 27 49  1  0
 28 50  1  0
M  CHG  2   7  -1  13   1
M  END
>  <UniqueID>  (50) 
49

>  <SMILES>  (50) 
COc1ccc([N-]C(=O)[C@@H](Sc2[nH+]c3c(s2)CCCC3)c2ccccc2)cc1

>  <Energy>  (50) 
85.38690008980551

>  <Genealogy>  (50) 
COc1ccc([N-]C(=O)C(Sc2[nH+]c3c(s2)CCCC3)c2ccccc2)cc1 (protonated)
COc1ccc([N-]C(=O)[C@@H](Sc2[nH+]c3c(s2)CCCC3)c2ccccc2)cc1 (chirality)
COc1ccc([N-]C(=O)[C@@H](Sc2[nH+]c3c(s2)CCCC3)c2ccccc2)cc1 (3D coordinates assigned)
COc1ccc([N-]C(=O)[C@@H](Sc2[nH+]c3c(s2)CCCC3)c2ccccc2)cc1 (nonaromatic ring conformer: 85.38690008980551 kcal/mol)

>  <smiles>  (50) 
COc1ccc(NC(=O)C(Sc2nc3c(s2)CCCC3)c2ccccc2)cc1

>  <score_type>  (50) 
oracle

>  <origin>  (50) 
adg

>  <m_score__min__energy>  (50) 
-9.5399999999999991

>  <m_primary>  (50) 
energy

$$$$
51:0
     RDKit          3D

 51 54  0  0  0  0  0  0  0  0999 V2000
   63.7990   34.0390   51.3880 H   0  0  0  0  0  0  0  0  0  0  0  0
   63.3720   34.3570   50.4900 N   0  0  0  0  0  0  0  0  0  0  0  0
   62.7280   33.5410   49.7190 C   0  0  0  0  0  0  0  0  0  0  0  0
   63.2940   33.1180   48.5580 N   0  0  0  0  0  0  0  0  0  0  0  0
   62.6400   32.2620   47.7290 C   0  0  0  0  0  0  0  0  0  0  0  0
   63.1102   31.9362   46.7894 H   0  0  0  0  0  0  0  0  0  0  0  0
   61.3670   31.7970   48.0750 C   0  0  0  0  0  0  0  0  0  0  0  0
   60.8020   32.2400   49.2720 C   0  0  0  0  0  0  0  0  0  0  0  0
   61.4860   33.1080   50.0640 N   0  0  0  0  0  0  0  0  0  0  0  0
   59.4120   31.8110   49.6270 C   0  0  0  0  0  0  0  0  0  0  0  0
   59.2580   31.9498   50.7073 H   0  0  0  0  0  0  0  0  0  0  0  0
   58.7002   32.4228   49.0534 H   0  0  0  0  0  0  0  0  0  0  0  0
   59.1820   30.3340   49.2730 C   0  0  0  0  0  0  0  0  0  0  0  0
   59.6297   29.7110   50.0613 H   0  0  0  0  0  0  0  0  0  0  0  0
   58.0956   30.1803   49.1947 H   0  0  0  0  0  0  0  0  0  0  0  0
   59.7760   29.9510   47.9770 N   0  0  0  0  0  0  0  0  0  0  0  0
   59.5750   28.6120   47.4960 C   0  0  0  0  0  0  0  0  0  0  0  0
   60.5190   27.6100   47.7660 C   0  0  0  0  0  0  0  0  0  0  0  0
   61.4136   27.8464   48.3608 H   0  0  0  0  0  0  0  0  0  0  0  0
   60.3280   26.3140   47.2830 C   0  0  0  0  0  0  0  0  0  0  0  0
   61.0703   25.5319   47.5006 H   0  0  0  0  0  0  0  0  0  0  0  0
   59.1960   26.0090   46.5240 C   0  0  0  0  0  0  0  0  0  0  0  0
   59.0488   24.9865   46.1460 H   0  0  0  0  0  0  0  0  0  0  0  0
   58.2460   27.0020   46.2420 C   0  0  0  0  0  0  0  0  0  0  0  0
   57.0090   26.6560   45.4620 C   0  0  0  0  0  0  0  0  0  0  0  0
   57.2639   26.5486   44.3973 H   0  0  0  0  0  0  0  0  0  0  0  0
   56.5915   25.7088   45.8341 H   0  0  0  0  0  0  0  0  0  0  0  0
   56.0280   27.7170   45.6220 N   0  0  0  0  0  0  0  0  0  0  0  0
   56.0770   28.9440   44.8910 C   0  0  0  0  0  0  0  0  0  0  0  0
   55.0190   29.5870   44.6610 O   0  0  0  0  0  0  0  0  0  0  0  0
   57.3270   29.4910   44.4660 N   0  0  0  0  0  0  0  0  0  0  0  0
   57.6510   30.8860   44.3990 C   0  0  0  0  0  0  0  0  0  0  0  0
   57.8400   31.5480   43.1730 C   0  0  0  0  0  0  0  0  0  0  0  0
   57.7418   30.9924   42.2287 H   0  0  0  0  0  0  0  0  0  0  0  0
   58.1520   32.9090   43.1510 C   0  0  0  0  0  0  0  0  0  0  0  0
   58.3028   33.4223   42.1898 H   0  0  0  0  0  0  0  0  0  0  0  0
   58.2730   33.6200   44.3480 C   0  0  0  0  0  0  0  0  0  0  0  0
   58.5280   34.6899   44.3283 H   0  0  0  0  0  0  0  0  0  0  0  0
   58.0700   32.9720   45.5720 C   0  0  0  0  0  0  0  0  0  0  0  0
   58.2190   33.8830   47.1120 S   0  0  0  0  0  0  0  0  0  0  0  0
   59.8360   34.6240   46.7000 C   0  0  0  0  0  0  0  0  0  0  0  0
   60.5640   33.7610   45.9010 F   0  0  0  0  0  0  0  0  0  0  0  0
   59.6540   35.8270   46.0420 F   0  0  0  0  0  0  0  0  0  0  0  0
   60.5330   34.8520   47.8690 F   0  0  0  0  0  0  0  0  0  0  0  0
   57.7390   31.6130   45.5910 C   0  0  0  0  0  0  0  0  0  0  0  0
   57.5463   31.1119   46.5511 H   0  0  0  0  0  0  0  0  0  0  0  0
   58.4370   28.3000   46.7360 C   0  0  0  0  0  0  0  0  0  0  0  0
   57.6897   29.0795   46.5265 H   0  0  0  0  0  0  0  0  0  0  0  0
   60.5750   30.8940   47.1780 C   0  0  0  0  0  0  0  0  0  0  0  0
   61.2637   30.3294   46.5323 H   0  0  0  0  0  0  0  0  0  0  0  0
   59.8974   31.5053   46.5638 H   0  0  0  0  0  0  0  0  0  0  0  0
  1  2  1  0
  2  3  2  0
  3  4  1  0
  4  5  2  0
  5  6  1  0
  5  7  1  0
  7  8  2  0
  8  9  1  0
  8 10  1  0
 10 11  1  0
 10 12  1  0
 10 13  1  0
 13 14  1  0
 13 15  1  0
 13 16  1  0
 16 17  1  0
 17 18  2  0
 18 19  1  0
 18 20  1  0
 20 21  1  0
 20 22  2  0
 22 23  1  0
 22 24  1  0
 24 25  1  0
 25 26  1  0
 25 27  1  0
 25 28  1  0
 28 29  1  0
 29 30  2  0
 29 31  1  0
 31 32  1  0
 32 33  2  0
 33 34  1  0
 33 35  1  0
 35 36  1  0
 35 37  2  0
 37 38  1  0
 37 39  1  0
 39 40  1  0
 40 41  1  0
 41 42  1  0
 41 43  1  0
 41 44  1  0
 39 45  2  0
 45 46  1  0
 24 47  2  0
 47 48  1  0
 16 49  1  0
 49 50  1  0
 49 51  1  0
  9  3  1  0
 47 17  1  0
 49  7  1  0
 45 32  1  0
M  CHG  3   9  -1  28  -1  31  -1
M  END
>  <UniqueID>  (51) 
50

>  <SMILES>  (51) 
[H]/N=c1/ncc2c([n-]1)CCN(c1cccc(C[N-]C(=O)[N-]c3cccc(SC(F)(F)F)c3)c1)C2

>  <Energy>  (51) 
59.61145468184016

>  <Genealogy>  (51) 
N=c1ncc2c([n-]1)CCN(c1cccc(C[N-]C(=O)[N-]c3cccc(SC(F)(F)F)c3)c1)C2 (protonated)
[H]/N=c1/ncc2c([n-]1)CCN(c1cccc(C[N-]C(=O)[N-]c3cccc(SC(F)(F)F)c3)c1)C2 (cis-trans isomerization)
[H]/N=c1/ncc2c([n-]1)CCN(c1cccc(C[N-]C(=O)[N-]c3cccc(SC(F)(F)F)c3)c1)C2 (3D coordinates assigned)
[H]/N=c1/ncc2c([n-]1)CCN(c1cccc(C[N-]C(=O)[N-]c3cccc(SC(F)(F)F)c3)c1)C2 (nonaromatic ring conformer: 59.61145468184016 kcal/mol)

>  <smiles>  (51) 
N=c1ncc2c([nH]1)CCN(c1cccc(CNC(=O)Nc3cccc(SC(F)(F)F)c3)c1)C2

>  <score_type>  (51) 
oracle

>  <origin>  (51) 
adg

>  <m_score__min__energy>  (51) 
-12.800000000000001

>  <m_primary>  (51) 
energy

$$$$
52:0
     RDKit          3D

 30 31  0  0  0  0  0  0  0  0999 V2000
   58.4030   34.3950   46.7490 C   0  0  0  0  0  0  0  0  0  0  0  0
   58.2340   33.2780   45.7710 C   0  0  0  0  0  0  0  0  0  0  0  0
   58.2210   33.5320   44.3960 C   0  0  0  0  0  0  0  0  0  0  0  0
   58.0690   32.4540   43.5180 C   0  0  0  0  0  0  0  0  0  0  0  0
   58.0420   32.6790   42.0400 C   0  0  0  0  0  0  0  0  0  0  0  0
   57.9380   31.1940   44.0150 N   0  0  0  0  0  0  0  0  0  0  0  0
   57.9570   30.9600   45.3530 C   0  0  0  0  0  0  0  0  0  0  0  0
   57.8240   29.7450   45.7900 N   0  0  0  0  0  0  0  0  0  0  0  0
   56.9820   28.4980   44.9240 S   0  0  0  0  0  0  0  0  0  0  0  0
   55.5170   28.8270   44.8780 O   0  0  0  0  0  0  0  0  0  0  0  0
   57.5070   28.4360   43.5160 O   0  0  0  0  0  0  0  0  0  0  0  0
   57.1990   26.9490   45.7420 C   0  0  0  0  0  0  0  0  0  0  0  0
   58.4890   26.4470   45.9710 C   0  0  0  0  0  0  0  0  0  0  0  0
   58.6630   25.2350   46.6440 C   0  0  0  0  0  0  0  0  0  0  0  0
   57.5520   24.5170   47.0940 C   0  0  0  0  0  0  0  0  0  0  0  0
   56.2640   25.0120   46.8720 C   0  0  0  0  0  0  0  0  0  0  0  0
   56.0840   26.2260   46.2010 C   0  0  0  0  0  0  0  0  0  0  0  0
   54.7940   26.7080   45.9980 O   0  0  0  0  0  0  0  0  0  0  0  0
   58.1090   32.0010   46.2170 N   0  0  0  0  0  0  0  0  0  0  0  0
   58.3429   33.9979   47.7731 H   0  0  0  0  0  0  0  0  0  0  0  0
   59.3833   34.8703   46.5969 H   0  0  0  0  0  0  0  0  0  0  0  0
   57.6072   35.1390   46.5969 H   0  0  0  0  0  0  0  0  0  0  0  0
   58.3280   34.5576   44.0131 H   0  0  0  0  0  0  0  0  0  0  0  0
   57.9132   33.7520   41.8348 H   0  0  0  0  0  0  0  0  0  0  0  0
   58.9882   32.3323   41.5990 H   0  0  0  0  0  0  0  0  0  0  0  0
   57.2047   32.1183   41.5990 H   0  0  0  0  0  0  0  0  0  0  0  0
   59.3664   27.0096   45.6195 H   0  0  0  0  0  0  0  0  0  0  0  0
   59.6765   24.8453   46.8199 H   0  0  0  0  0  0  0  0  0  0  0  0
   57.6911   23.5625   47.6228 H   0  0  0  0  0  0  0  0  0  0  0  0
   55.3899   24.4456   47.2257 H   0  0  0  0  0  0  0  0  0  0  0  0
  1  2  1  0
  2  3  1  0
  3  4  2  0
  4  5  1  0
  4  6  1  0
  6  7  1  0
  7  8  2  3
  8  9  1  0
  9 10  2  0
  9 11  2  0
  9 12  1  0
 12 13  2  0
 13 14  1  0
 14 15  2  0
 15 16  1  0
 16 17  2  0
 17 18  1  0
  7 19  1  0
 19  2  2  0
 17 12  1  0
  1 20  1  0
  1 21  1  0
  1 22  1  0
  3 23  1  0
  5 24  1  0
  5 25  1  0
  5 26  1  0
 13 27  1  0
 14 28  1  0
 15 29  1  0
 16 30  1  0
M  CHG  2   6  -1  18  -1
M  END
>  <UniqueID>  (52) 
51

>  <SMILES>  (52) 
Cc1cc(C)[n-]c(=NS(=O)(=O)c2ccccc2[O-])n1

>  <Energy>  (52) 
31.854429695961308

>  <Genealogy>  (52) 
Cc1cc(C)[n-]c(=NS(=O)(=O)c2ccccc2[O-])n1 (protonated)
Cc1cc(C)[n-]c(=NS(=O)(=O)c2ccccc2[O-])n1 (3D coordinates assigned)
Cc1cc(C)[n-]c(=NS(=O)(=O)c2ccccc2[O-])n1 (optimized conformer: 31.854429695961308 kcal/mol)

>  <smiles>  (52) 
Cc1cc(C)[nH]c(=NS(=O)(=O)c2ccccc2O)n1

>  <score_type>  (52) 
oracle

>  <origin>  (52) 
adg

>  <m_score__min__energy>  (52) 
-12.369999999999999

>  <m_primary>  (52) 
energy

$$$$
53:0
     RDKit          3D

 45 47  0  0  0  0  0  0  0  0999 V2000
   58.6650   32.7340   45.1640 C   0  0  0  0  0  0  0  0  0  0  0  0
   57.7800   31.7610   44.4430 C   0  0  0  0  0  0  0  0  0  0  0  0
   57.7030   31.7750   43.0420 C   0  0  0  0  0  0  0  0  0  0  0  0
   56.9170   30.8350   42.3720 C   0  0  0  0  0  0  0  0  0  0  0  0
   56.2310   29.8520   43.0930 C   0  0  0  0  0  0  0  0  0  0  0  0
   56.3360   29.7960   44.4870 C   0  0  0  0  0  0  0  0  0  0  0  0
   55.6700   28.7380   45.1920 N   0  0  0  0  0  0  0  0  0  0  0  0
   56.2670   27.5100   45.6340 C   0  0  0  0  0  0  0  0  0  0  0  0
   55.5290   26.6170   46.1240 O   0  0  0  0  0  0  0  0  0  0  0  0
   57.6780   27.2700   45.5340 N   0  0  0  0  0  0  0  0  0  0  0  0
   58.7040   28.1610   45.9880 C   0  0  0  0  0  0  0  0  0  0  0  0
   59.8780   28.3620   45.2450 C   0  0  0  0  0  0  0  0  0  0  0  0
   60.8310   29.2860   45.6780 C   0  0  0  0  0  0  0  0  0  0  0  0
   60.6240   30.0110   46.8540 C   0  0  0  0  0  0  0  0  0  0  0  0
   59.4620   29.8050   47.6220 C   0  0  0  0  0  0  0  0  0  0  0  0
   59.2260   30.5910   48.8580 C   0  0  0  0  0  0  0  0  0  0  0  0
   59.1200   29.9650   50.1080 C   0  0  0  0  0  0  0  0  0  0  0  0
   58.9150   30.7050   51.2270 N   0  0  0  0  0  0  0  0  0  0  0  0
   58.8030   32.0590   51.1700 C   0  0  0  0  0  0  0  0  0  0  0  0
   58.5840   32.8220   52.3720 N   0  0  0  0  0  0  0  0  0  0  0  0
   58.7820   34.2750   52.3580 C   0  0  0  0  0  0  0  0  0  0  0  0
   58.1620   32.1400   53.6000 C   0  0  0  0  0  0  0  0  0  0  0  0
   58.9030   32.6860   49.9670 N   0  0  0  0  0  0  0  0  0  0  0  0
   59.1110   31.9890   48.8210 C   0  0  0  0  0  0  0  0  0  0  0  0
   58.5160   28.8590   47.1870 C   0  0  0  0  0  0  0  0  0  0  0  0
   57.0880   30.7740   45.1620 C   0  0  0  0  0  0  0  0  0  0  0  0
   58.5459   32.6031   46.2497 H   0  0  0  0  0  0  0  0  0  0  0  0
   59.7135   32.5519   44.8855 H   0  0  0  0  0  0  0  0  0  0  0  0
   58.3846   33.7606   44.8855 H   0  0  0  0  0  0  0  0  0  0  0  0
   58.2635   32.5288   42.4696 H   0  0  0  0  0  0  0  0  0  0  0  0
   56.8372   30.8677   41.2754 H   0  0  0  0  0  0  0  0  0  0  0  0
   55.6059   29.1194   42.5614 H   0  0  0  0  0  0  0  0  0  0  0  0
   60.0473   27.7907   44.3204 H   0  0  0  0  0  0  0  0  0  0  0  0
   61.7479   29.4436   45.0911 H   0  0  0  0  0  0  0  0  0  0  0  0
   61.3730   30.7469   47.1818 H   0  0  0  0  0  0  0  0  0  0  0  0
   59.2032   28.8707   50.1820 H   0  0  0  0  0  0  0  0  0  0  0  0
   58.8328   34.6481   53.3915 H   0  0  0  0  0  0  0  0  0  0  0  0
   59.7208   34.5121   51.8360 H   0  0  0  0  0  0  0  0  0  0  0  0
   57.9409   34.7547   51.8360 H   0  0  0  0  0  0  0  0  0  0  0  0
   58.5134   32.7079   54.4741 H   0  0  0  0  0  0  0  0  0  0  0  0
   57.0643   32.0729   53.6234 H   0  0  0  0  0  0  0  0  0  0  0  0
   58.5918   31.1277   53.6234 H   0  0  0  0  0  0  0  0  0  0  0  0
   59.1896   32.5211   47.8615 H   0  0  0  0  0  0  0  0  0  0  0  0
   57.6198   28.6658   47.7949 H   0  0  0  0  0  0  0  0  0  0  0  0
   57.1342   30.7654   46.2610 H   0  0  0  0  0  0  0  0  0  0  0  0
  1  2  1  0
  2  3  2  0
  3  4  1  0
  4  5  2  0
  5  6  1  0
  6  7  1  0
  7  8  1  0
  8  9  2  0
  8 10  1  0
 10 11  1  0
 11 12  2  0
 12 13  1  0
 13 14  2  0
 14 15  1  0
 15 16  1  0
 16 17  2  0
 17 18  1  0
 18 19  2  0
 19 20  1  0
 20 21  1  0
 20 22  1  0
 19 23  1  0
 23 24  2  0
 15 25  2  0
  6 26  2  0
 26  2  1  0
 25 11  1  0
 24 16  1  0
  1 27  1  0
  1 28  1  0
  1 29  1  0
  3 30  1  0
  4 31  1  0
  5 32  1  0
 12 33  1  0
 13 34  1  0
 14 35  1  0
 17 36  1  0
 21 37  1  0
 21 38  1  0
 21 39  1  0
 22 40  1  0
 22 41  1  0
 22 42  1  0
 24 43  1  0
 25 44  1  0
 26 45  1  0
M  CHG  2   7  -1  10  -1
M  END
>  <UniqueID>  (53) 
52

>  <SMILES>  (53) 
Cc1cccc([N-]C(=O)[N-]c2cccc(-c3cnc(N(C)C)nc3)c2)c1

>  <Energy>  (53) 
56.1163027214529

>  <Genealogy>  (53) 
Cc1cccc([N-]C(=O)[N-]c2cccc(-c3cnc(N(C)C)nc3)c2)c1 (protonated)
Cc1cccc([N-]C(=O)[N-]c2cccc(-c3cnc(N(C)C)nc3)c2)c1 (3D coordinates assigned)
Cc1cccc([N-]C(=O)[N-]c2cccc(-c3cnc(N(C)C)nc3)c2)c1 (optimized conformer: 56.1163027214529 kcal/mol)

>  <smiles>  (53) 
Cc1cccc(NC(=O)Nc2cccc(-c3cnc(N(C)C)nc3)c2)c1

>  <score_type>  (53) 
oracle

>  <origin>  (53) 
adg

>  <m_score__min__energy>  (53) 
-11.619999999999999

>  <m_primary>  (53) 
energy

$$$$
54:0
     RDKit          3D

 65 69  0  0  0  0  0  0  0  0999 V2000
   68.1300   33.7970   50.4720 C   0  0  0  0  0  0  0  0  0  0  0  0
   67.3190   33.3190   51.6050 N   0  0  0  0  0  0  0  0  0  0  0  0
   66.5030   32.1400   51.2220 C   0  0  0  0  0  0  0  0  0  0  0  0
   65.1320   32.5310   50.6480 C   0  0  0  0  0  0  0  0  0  0  0  0
   64.4240   33.4440   51.5580 N   0  0  0  0  0  0  0  0  0  0  0  0
   63.0180   33.6990   51.3770 C   0  0  0  0  0  0  0  0  0  0  0  0
   62.3260   34.1550   52.3280 O   0  0  0  0  0  0  0  0  0  0  0  0
   62.3770   33.4780   50.0750 C   0  0  0  0  0  0  0  0  0  0  0  0
   61.1050   32.8970   50.0180 C   0  0  0  0  0  0  0  0  0  0  0  0
   60.4800   32.6950   48.7880 C   0  0  0  0  0  0  0  0  0  0  0  0
   61.1150   33.0770   47.5920 C   0  0  0  0  0  0  0  0  0  0  0  0
   60.4160   32.8690   46.2660 C   0  0  1  0  0  0  0  0  0  0  0  0
   60.2640   31.4330   46.0070 N   0  0  0  0  0  0  0  0  0  0  0  0
   59.0120   30.8430   45.6300 C   0  0  0  0  0  0  0  0  0  0  0  0
   58.9310   29.4800   45.3190 C   0  0  0  0  0  0  0  0  0  0  0  0
   57.7050   28.9090   44.9140 C   0  0  0  0  0  0  0  0  0  0  0  0
   57.5610   27.6100   44.5700 C   0  0  0  0  0  0  0  0  0  0  0  0
   57.6270   26.4130   45.4870 C   0  0  0  0  0  0  0  0  0  0  0  0
   56.2710   25.7660   45.5940 C   0  0  0  0  0  0  0  0  0  0  0  0
   55.3210   26.4590   46.0550 O   0  0  0  0  0  0  0  0  0  0  0  0
   56.0250   24.4030   45.1750 N   0  0  0  0  0  0  0  0  0  0  0  0
   55.2340   23.5250   46.0590 C   0  0  0  0  0  0  0  0  0  0  0  0
   55.6520   22.0670   45.8900 C   0  0  0  0  0  0  0  0  0  0  0  0
   55.5290   21.6870   44.4920 N   0  0  0  0  0  0  0  0  0  0  0  0
   55.9440   22.5920   43.4750 C   0  0  0  0  0  0  0  0  0  0  0  0
   55.9140   22.2320   42.2680 O   0  0  0  0  0  0  0  0  0  0  0  0
   56.4750   23.9510   43.8410 C   0  0  0  0  0  0  0  0  0  0  0  0
   56.5750   29.7520   44.8620 C   0  0  0  0  0  0  0  0  0  0  0  0
   56.6760   31.0690   45.1850 N   0  0  0  0  0  0  0  0  0  0  0  0
   57.8530   31.6330   45.5590 C   0  0  0  0  0  0  0  0  0  0  0  0
   57.8890   32.8980   45.8520 N   0  0  0  0  0  0  0  0  0  0  0  0
   59.0850   33.5820   46.2440 C   0  0  0  0  0  0  0  0  0  0  0  0
   59.0270   34.8060   46.5410 O   0  0  0  0  0  0  0  0  0  0  0  0
   62.3930   33.6660   47.6550 C   0  0  0  0  0  0  0  0  0  0  0  0
   63.0290   34.0560   46.5220 F   0  0  0  0  0  0  0  0  0  0  0  0
   63.0180   33.8640   48.8910 C   0  0  0  0  0  0  0  0  0  0  0  0
   65.1520   34.0260   52.6910 C   0  0  0  0  0  0  0  0  0  0  0  0
   66.5550   34.4360   52.2250 C   0  0  0  0  0  0  0  0  0  0  0  0
   69.0191   34.3210   50.8528 H   0  0  0  0  0  0  0  0  0  0  0  0
   68.4443   32.9397   49.8586 H   0  0  0  0  0  0  0  0  0  0  0  0
   67.5322   34.4872   49.8586 H   0  0  0  0  0  0  0  0  0  0  0  0
   67.0515   31.5637   50.4624 H   0  0  0  0  0  0  0  0  0  0  0  0
   66.3264   31.5475   52.1318 H   0  0  0  0  0  0  0  0  0  0  0  0
   65.2763   33.0293   49.6780 H   0  0  0  0  0  0  0  0  0  0  0  0
   64.5290   31.6192   50.5251 H   0  0  0  0  0  0  0  0  0  0  0  0
   60.5966   32.5987   50.9467 H   0  0  0  0  0  0  0  0  0  0  0  0
   59.4823   32.2332   48.7524 H   0  0  0  0  0  0  0  0  0  0  0  0
   61.0296   33.3021   45.4623 H   0  0  0  0  0  0  0  0  0  0  0  0
   61.1220   30.8330   46.0380 H   0  0  0  0  0  0  0  0  0  0  0  0
   59.8295   28.8494   45.3908 H   0  0  0  0  0  0  0  0  0  0  0  0
   57.3755   27.4025   43.5058 H   0  0  0  0  0  0  0  0  0  0  0  0
   58.3463   25.6851   45.0836 H   0  0  0  0  0  0  0  0  0  0  0  0
   57.9478   26.7428   46.4861 H   0  0  0  0  0  0  0  0  0  0  0  0
   55.3942   23.8272   47.1045 H   0  0  0  0  0  0  0  0  0  0  0  0
   54.1713   23.6203   45.7913 H   0  0  0  0  0  0  0  0  0  0  0  0
   56.6965   21.9452   46.2126 H   0  0  0  0  0  0  0  0  0  0  0  0
   55.0019   21.4255   46.5031 H   0  0  0  0  0  0  0  0  0  0  0  0
   57.5743   23.9117   43.8358 H   0  0  0  0  0  0  0  0  0  0  0  0
   56.0882   24.6674   43.1013 H   0  0  0  0  0  0  0  0  0  0  0  0
   55.6019   29.3396   44.5569 H   0  0  0  0  0  0  0  0  0  0  0  0
   64.0162   34.3244   48.9330 H   0  0  0  0  0  0  0  0  0  0  0  0
   64.6129   34.9107   53.0606 H   0  0  0  0  0  0  0  0  0  0  0  0
   65.2307   33.2867   53.5017 H   0  0  0  0  0  0  0  0  0  0  0  0
   66.4550   35.2437   51.4850 H   0  0  0  0  0  0  0  0  0  0  0  0
   67.1135   34.7576   53.1164 H   0  0  0  0  0  0  0  0  0  0  0  0
  1  2  1  0
  2  3  1  0
  3  4  1  0
  4  5  1  0
  5  6  1  0
  6  7  2  0
  6  8  1  0
  8  9  2  0
  9 10  1  0
 10 11  2  0
 11 12  1  0
 12 13  1  0
 13 14  1  0
 14 15  2  0
 15 16  1  0
 16 17  2  3
 17 18  1  0
 18 19  1  0
 19 20  2  0
 19 21  1  0
 21 22  1  0
 22 23  1  0
 23 24  1  0
 24 25  1  0
 25 26  2  0
 25 27  1  0
 16 28  1  0
 28 29  2  0
 29 30  1  0
 30 31  2  0
 31 32  1  0
 32 33  2  0
 11 34  1  0
 34 35  1  0
 34 36  2  0
  5 37  1  0
 37 38  1  0
 38  2  1  0
 36  8  1  0
 32 12  1  0
 30 14  1  0
 27 21  1  0
  1 39  1  0
  1 40  1  0
  1 41  1  0
  3 42  1  0
  3 43  1  0
  4 44  1  0
  4 45  1  0
  9 46  1  0
 10 47  1  0
 12 48  1  6
 13 49  1  0
 15 50  1  0
 17 51  1  0
 18 52  1  0
 18 53  1  0
 22 54  1  0
 22 55  1  0
 23 56  1  0
 23 57  1  0
 27 58  1  0
 27 59  1  0
 28 60  1  0
 36 61  1  0
 37 62  1  0
 37 63  1  0
 38 64  1  0
 38 65  1  0
M  CHG  1  24  -1
M  END
>  <UniqueID>  (54) 
53

>  <SMILES>  (54) 
CN1CCN(C(=O)c2ccc([C@H]3Nc4cc(=CCC(=O)N5CC[N-]C(=O)C5)cnc4=NC3=O)c(F)c2)CC1

>  <Energy>  (54) 
90.33474437893973

>  <Genealogy>  (54) 
CN1CCN(C(=O)c2ccc(C3Nc4cc(=CCC(=O)N5CC[N-]C(=O)C5)cnc4=NC3=O)c(F)c2)CC1 (protonated)
CN1CCN(C(=O)c2ccc([C@H]3Nc4cc(=CCC(=O)N5CC[N-]C(=O)C5)cnc4=NC3=O)c(F)c2)CC1 (chirality)
CN1CCN(C(=O)c2ccc([C@H]3Nc4cc(=CCC(=O)N5CC[N-]C(=O)C5)cnc4=NC3=O)c(F)c2)CC1 (3D coordinates assigned)
CN1CCN(C(=O)c2ccc([C@H]3Nc4cc(=CCC(=O)N5CC[N-]C(=O)C5)cnc4=NC3=O)c(F)c2)CC1 (nonaromatic ring conformer: 90.33474437893973 kcal/mol)

>  <smiles>  (54) 
CN1CCN(C(=O)c2ccc(C3Nc4cc(=CCC(=O)N5CCNC(=O)C5)cnc4=NC3=O)c(F)c2)CC1

>  <score_type>  (54) 
oracle

>  <origin>  (54) 
adg

>  <m_score__min__energy>  (54) 
-11.640000000000001

>  <m_primary>  (54) 
energy

$$$$
55:0
     RDKit          3D

 61 64  0  0  0  0  0  0  0  0999 V2000
   58.1770   28.6430   47.1260 O   0  0  0  0  0  0  0  0  0  0  0  0
   58.5810   29.5760   46.3810 C   0  0  0  0  0  0  0  0  0  0  0  0
   59.8680   30.2800   46.7230 C   0  0  0  0  0  0  0  0  0  0  0  0
   59.8130   30.9830   48.0200 N   0  0  0  0  0  0  0  0  0  0  0  0
   59.9020   32.4750   48.0340 C   0  0  0  0  0  0  0  0  0  0  0  0
   59.1930   32.9870   49.2790 C   0  0  0  0  0  0  0  0  0  0  0  0
   59.2950   34.1950   49.6300 O   0  0  0  0  0  0  0  0  0  0  0  0
   58.4150   32.0780   50.0690 N   0  0  0  0  0  0  0  0  0  0  0  0
   58.7500   31.6940   51.4380 C   0  0  0  0  0  0  0  0  0  0  0  0
   60.0450   32.3660   51.8780 C   0  0  0  0  0  0  0  0  0  0  0  0
   59.6400   33.7430   52.3880 C   0  0  0  0  0  0  0  0  0  0  0  0
   58.1580   33.6550   52.7510 C   0  0  0  0  0  0  0  0  0  0  0  0
   57.6990   32.2450   52.3900 C   0  0  0  0  0  0  0  0  0  0  0  0
   59.1400   33.1440   46.8630 C   0  0  0  0  0  0  0  0  0  0  0  0
   57.7240   33.1950   46.8300 C   0  0  0  0  0  0  0  0  0  0  0  0
   57.0500   33.8770   45.8120 C   0  0  0  0  0  0  0  0  0  0  0  0
   57.7660   34.5730   44.8380 C   0  0  0  0  0  0  0  0  0  0  0  0
   59.1560   34.6190   44.9020 C   0  0  0  0  0  0  0  0  0  0  0  0
   59.8340   33.9420   45.9200 C   0  0  0  0  0  0  0  0  0  0  0  0
   61.3950   32.8780   48.1200 C   0  0  0  0  0  0  0  0  0  0  0  0
   61.9000   33.5010   49.2850 C   0  0  0  0  0  0  0  0  0  0  0  0
   63.2570   33.8100   49.4050 C   0  0  0  0  0  0  0  0  0  0  0  0
   64.1460   33.4700   48.3860 C   0  0  0  0  0  0  0  0  0  0  0  0
   63.6820   32.8060   47.2520 C   0  0  0  0  0  0  0  0  0  0  0  0
   62.3260   32.4970   47.1260 C   0  0  0  0  0  0  0  0  0  0  0  0
   57.8220   29.9240   45.2070 N   0  0  0  0  0  0  0  0  0  0  0  0
   58.1440   31.1750   44.5020 C   0  0  0  0  0  0  0  0  0  0  0  0
   57.7360   31.0840   43.0570 C   0  0  0  0  0  0  0  0  0  0  0  0
   56.6050   30.4510   42.7290 C   0  0  0  0  0  0  0  0  0  0  0  0
   55.7500   29.8570   43.8110 C   0  0  0  0  0  0  0  0  0  0  0  0
   56.6290   29.1320   44.8420 C   0  0  0  0  0  0  0  0  0  0  0  0
   60.6758   29.5344   46.7622 H   0  0  0  0  0  0  0  0  0  0  0  0
   60.0460   31.0372   45.9452 H   0  0  0  0  0  0  0  0  0  0  0  0
   59.0620   30.5910   48.6300 H   0  0  0  0  0  0  0  0  0  0  0  0
   58.8224   30.5966   51.4613 H   0  0  0  0  0  0  0  0  0  0  0  0
   60.5254   31.7858   52.6796 H   0  0  0  0  0  0  0  0  0  0  0  0
   60.7685   32.4347   51.0523 H   0  0  0  0  0  0  0  0  0  0  0  0
   60.2331   34.0087   53.2755 H   0  0  0  0  0  0  0  0  0  0  0  0
   59.8168   34.5163   51.6260 H   0  0  0  0  0  0  0  0  0  0  0  0
   58.0205   33.8341   53.8276 H   0  0  0  0  0  0  0  0  0  0  0  0
   57.5729   34.4119   52.2081 H   0  0  0  0  0  0  0  0  0  0  0  0
   57.6361   31.6203   53.2932 H   0  0  0  0  0  0  0  0  0  0  0  0
   56.7005   32.2516   51.9285 H   0  0  0  0  0  0  0  0  0  0  0  0
   57.1458   32.6900   47.6178 H   0  0  0  0  0  0  0  0  0  0  0  0
   55.9506   33.8645   45.7792 H   0  0  0  0  0  0  0  0  0  0  0  0
   57.2341   35.0839   44.0219 H   0  0  0  0  0  0  0  0  0  0  0  0
   59.7217   35.1890   44.1503 H   0  0  0  0  0  0  0  0  0  0  0  0
   60.9282   34.0306   45.9903 H   0  0  0  0  0  0  0  0  0  0  0  0
   61.2138   33.7459   50.1091 H   0  0  0  0  0  0  0  0  0  0  0  0
   63.6252   34.3229   50.3057 H   0  0  0  0  0  0  0  0  0  0  0  0
   65.2120   33.7255   48.4771 H   0  0  0  0  0  0  0  0  0  0  0  0
   64.3854   32.5247   46.4544 H   0  0  0  0  0  0  0  0  0  0  0  0
   61.9763   31.9483   46.2391 H   0  0  0  0  0  0  0  0  0  0  0  0
   57.6063   32.0080   44.9784 H   0  0  0  0  0  0  0  0  0  0  0  0
   59.2295   31.3450   44.5557 H   0  0  0  0  0  0  0  0  0  0  0  0
   58.3643   31.5355   42.2751 H   0  0  0  0  0  0  0  0  0  0  0  0
   56.3031   30.3660   41.6746 H   0  0  0  0  0  0  0  0  0  0  0  0
   55.1883   30.6591   44.3120 H   0  0  0  0  0  0  0  0  0  0  0  0
   55.0523   29.1347   43.3621 H   0  0  0  0  0  0  0  0  0  0  0  0
   56.0342   28.9475   45.7487 H   0  0  0  0  0  0  0  0  0  0  0  0
   56.9721   28.1885   44.3924 H   0  0  0  0  0  0  0  0  0  0  0  0
  1  2  2  0
  2  3  1  0
  3  4  1  0
  4  5  1  0
  5  6  1  0
  6  7  2  0
  6  8  1  0
  8  9  1  0
  9 10  1  0
 10 11  1  0
 11 12  1  0
 12 13  1  0
  5 14  1  0
 14 15  2  0
 15 16  1  0
 16 17  2  0
 17 18  1  0
 18 19  2  0
  5 20  1  0
 20 21  2  0
 21 22  1  0
 22 23  2  0
 23 24  1  0
 24 25  2  0
  2 26  1  0
 26 27  1  0
 27 28  1  0
 28 29  2  0
 29 30  1  0
 30 31  1  0
 13  9  1  0
 19 14  1  0
 25 20  1  0
 31 26  1  0
  3 32  1  0
  3 33  1  0
  4 34  1  0
  9 35  1  0
 10 36  1  0
 10 37  1  0
 11 38  1  0
 11 39  1  0
 12 40  1  0
 12 41  1  0
 13 42  1  0
 13 43  1  0
 15 44  1  0
 16 45  1  0
 17 46  1  0
 18 47  1  0
 19 48  1  0
 21 49  1  0
 22 50  1  0
 23 51  1  0
 24 52  1  0
 25 53  1  0
 27 54  1  0
 27 55  1  0
 28 56  1  0
 29 57  1  0
 30 58  1  0
 30 59  1  0
 31 60  1  0
 31 61  1  0
M  CHG  1   8  -1
M  END
>  <UniqueID>  (55) 
54

>  <SMILES>  (55) 
O=C(CNC(C(=O)[N-]C1CCCC1)(c1ccccc1)c1ccccc1)N1CC=CCC1

>  <Energy>  (55) 
78.05505049203752

>  <Genealogy>  (55) 
O=C(CNC(C(=O)[N-]C1CCCC1)(c1ccccc1)c1ccccc1)N1CC=CCC1 (protonated)
O=C(CNC(C(=O)[N-]C1CCCC1)(c1ccccc1)c1ccccc1)N1CC=CCC1 (3D coordinates assigned)
O=C(CNC(C(=O)[N-]C1CCCC1)(c1ccccc1)c1ccccc1)N1CC=CCC1 (nonaromatic ring conformer: 78.05505049203752 kcal/mol)

>  <smiles>  (55) 
O=C(CNC(C(=O)NC1CCCC1)(c1ccccc1)c1ccccc1)N1CC=CCC1

>  <score_type>  (55) 
oracle

>  <origin>  (55) 
adg

>  <m_score__min__energy>  (55) 
-9.9700000000000006

>  <m_primary>  (55) 
energy

$$$$
56:0
     RDKit          3D

 41 44  0  0  0  0  0  0  0  0999 V2000
   60.6390   25.4086   45.9288 H   0  0  0  0  0  0  0  0  0  0  0  0
   60.4810   26.4090   46.3580 C   0  0  0  0  0  0  0  0  0  0  0  0
   60.7210   27.8730   45.5680 S   0  0  0  0  0  0  0  0  0  0  0  0
   60.2480   28.8770   46.8450 C   0  0  0  0  0  0  0  0  0  0  0  0
   60.2410   30.3630   46.8150 C   0  0  0  0  0  0  0  0  0  0  0  0
   61.3830   31.0970   47.1820 C   0  0  0  0  0  0  0  0  0  0  0  0
   62.2930   30.5713   47.5070 H   0  0  0  0  0  0  0  0  0  0  0  0
   61.3630   32.5020   47.1340 C   0  0  0  0  0  0  0  0  0  0  0  0
   62.6020   33.2980   47.4670 C   0  0  0  0  0  0  0  0  0  0  0  0
   62.9870   34.0730   46.3850 F   0  0  0  0  0  0  0  0  0  0  0  0
   62.3500   34.1270   48.5470 F   0  0  0  0  0  0  0  0  0  0  0  0
   63.6520   32.4560   47.7890 F   0  0  0  0  0  0  0  0  0  0  0  0
   60.1940   33.1470   46.7080 C   0  0  0  0  0  0  0  0  0  0  0  0
   60.1668   34.2440   46.6316 H   0  0  0  0  0  0  0  0  0  0  0  0
   59.0650   32.3960   46.3810 C   0  0  0  0  0  0  0  0  0  0  0  0
   57.5660   33.2370   45.8500 S   0  0  0  0  0  0  0  0  0  0  0  0
   57.5330   32.4880   44.1890 C   0  0  0  0  0  0  0  0  0  0  0  0
   58.5460   32.5060   43.7606 H   0  0  0  0  0  0  0  0  0  0  0  0
   56.8476   33.0607   43.5470 H   0  0  0  0  0  0  0  0  0  0  0  0
   57.0580   31.0750   44.2780 C   0  0  0  0  0  0  0  0  0  0  0  0
   55.8360   30.8430   44.4970 O   0  0  0  0  0  0  0  0  0  0  0  0
   57.9910   30.0030   44.0730 N   0  0  0  0  0  0  0  0  0  0  0  0
   57.8140   28.7620   44.4130 C   0  0  0  0  0  0  0  0  0  0  0  0
   57.3140   28.3610   45.6140 N   0  0  0  0  0  0  0  0  0  0  0  0
   57.2540   27.0030   45.6760 C   0  0  0  0  0  0  0  0  0  0  0  0
   56.7930   26.2810   46.7790 C   0  0  0  0  0  0  0  0  0  0  0  0
   56.4698   26.7997   47.6936 H   0  0  0  0  0  0  0  0  0  0  0  0
   56.7500   24.8720   46.6970 C   0  0  0  0  0  0  0  0  0  0  0  0
   56.3899   24.2852   47.5549 H   0  0  0  0  0  0  0  0  0  0  0  0
   57.1670   24.2110   45.5190 C   0  0  0  0  0  0  0  0  0  0  0  0
   57.1257   23.1132   45.4637 H   0  0  0  0  0  0  0  0  0  0  0  0
   57.6350   24.9510   44.4160 C   0  0  0  0  0  0  0  0  0  0  0  0
   57.9558   24.4478   43.4920 H   0  0  0  0  0  0  0  0  0  0  0  0
   57.6800   26.3390   44.5290 C   0  0  0  0  0  0  0  0  0  0  0  0
   58.1700   27.4660   43.3810 S   0  0  0  0  0  0  0  0  0  0  0  0
   59.1050   31.0330   46.4440 N   0  0  0  0  0  0  0  0  0  0  0  0
   58.2420   30.5050   46.1910 H   0  0  0  0  0  0  0  0  0  0  0  0
   59.9080   28.0540   47.9250 C   0  0  0  0  0  0  0  0  0  0  0  0
   59.5649   28.4430   48.8950 H   0  0  0  0  0  0  0  0  0  0  0  0
   60.0470   26.6860   47.6510 C   0  0  0  0  0  0  0  0  0  0  0  0
   59.8322   25.9017   48.3918 H   0  0  0  0  0  0  0  0  0  0  0  0
  1  2  1  0
  2  3  1  0
  3  4  1  0
  4  5  1  0
  5  6  2  0
  6  7  1  0
  6  8  1  0
  8  9  1  0
  9 10  1  0
  9 11  1  0
  9 12  1  0
  8 13  2  0
 13 14  1  0
 13 15  1  0
 15 16  1  0
 16 17  1  0
 17 18  1  0
 17 19  1  0
 17 20  1  0
 20 21  2  0
 20 22  1  0
 22 23  2  0
 23 24  1  0
 24 25  1  0
 25 26  2  0
 26 27  1  0
 26 28  1  0
 28 29  1  0
 28 30  2  0
 30 31  1  0
 30 32  1  0
 32 33  1  0
 32 34  2  0
 34 35  1  0
 15 36  2  0
 36 37  1  0
  4 38  2  0
 38 39  1  0
 38 40  1  0
 40 41  1  0
 40  2  2  0
 36  5  1  0
 35 23  1  0
 34 25  1  0
M  CHG  2  24  -1  36   1
M  END
>  <UniqueID>  (56) 
55

>  <SMILES>  (56) 
O=C(CSc1cc(C(F)(F)F)cc(-c2cccs2)[nH+]1)/N=c1\[n-]c2ccccc2s1

>  <Energy>  (56) 
104.15125414260413

>  <Genealogy>  (56) 
O=C(CSc1cc(C(F)(F)F)cc(-c2cccs2)[nH+]1)N=c1[n-]c2ccccc2s1 (protonated)
O=C(CSc1cc(C(F)(F)F)cc(-c2cccs2)[nH+]1)/N=c1\[n-]c2ccccc2s1 (cis-trans isomerization)
O=C(CSc1cc(C(F)(F)F)cc(-c2cccs2)[nH+]1)/N=c1\[n-]c2ccccc2s1 (3D coordinates assigned)
O=C(CSc1cc(C(F)(F)F)cc(-c2cccs2)[nH+]1)/N=c1\[n-]c2ccccc2s1 (optimized conformer: 104.15125414260413 kcal/mol)

>  <smiles>  (56) 
O=C(CSc1cc(C(F)(F)F)cc(-c2cccs2)n1)N=c1[nH]c2ccccc2s1

>  <score_type>  (56) 
oracle

>  <origin>  (56) 
adg

>  <m_score__min__energy>  (56) 
-8.1300000000000008

>  <m_primary>  (56) 
energy

$$$$
57:0
     RDKit          3D

 65 68  0  0  0  0  0  0  0  0999 V2000
   56.6600   21.5750   42.9670 C   0  0  0  0  0  0  0  0  0  0  0  0
   56.4690   22.7580   43.8690 C   0  0  0  0  0  0  0  0  0  0  0  0
   55.1840   23.0890   44.3290 C   0  0  0  0  0  0  0  0  0  0  0  0
   54.9930   24.2140   45.1330 C   0  0  0  0  0  0  0  0  0  0  0  0
   56.0860   25.0210   45.4960 C   0  0  0  0  0  0  0  0  0  0  0  0
   55.8850   26.2220   46.3830 C   0  0  0  0  0  0  0  0  0  0  0  0
   55.9890   27.4690   45.6210 N   0  0  0  0  0  0  0  0  0  0  0  0
   57.5690   28.1810   45.7740 S   0  0  0  0  0  0  0  0  0  0  0  0
   58.5680   27.2970   45.0840 O   0  0  0  0  0  0  0  0  0  0  0  0
   57.9470   28.2750   47.2260 O   0  0  0  0  0  0  0  0  0  0  0  0
   57.6200   29.7780   45.0270 C   0  0  0  0  0  0  0  0  0  0  0  0
   57.1470   29.9480   43.7210 C   0  0  0  0  0  0  0  0  0  0  0  0
   57.1820   31.2070   43.1220 C   0  0  0  0  0  0  0  0  0  0  0  0
   57.6780   32.3070   43.8270 C   0  0  0  0  0  0  0  0  0  0  0  0
   58.1380   32.1610   45.1480 C   0  0  0  0  0  0  0  0  0  0  0  0
   58.6450   33.3510   45.8840 C   0  0  0  0  0  0  0  0  0  0  0  0
   58.2320   34.4910   45.5360 O   0  0  0  0  0  0  0  0  0  0  0  0
   59.5900   33.2260   46.9820 N   0  0  2  0  0  0  0  0  0  0  0  0
   58.9160   33.1430   48.3060 C   0  0  0  0  0  0  0  0  0  0  0  0
   59.0630   31.8160   49.0020 C   0  0  0  0  0  0  0  0  0  0  0  0
   58.5120   31.4800   50.2270 C   0  0  0  0  0  0  0  0  0  0  0  0
   58.8900   30.1760   50.4650 C   0  0  0  0  0  0  0  0  0  0  0  0
   59.6500   29.8030   49.3740 C   0  0  0  0  0  0  0  0  0  0  0  0
   60.2940   28.4720   49.1820 C   0  0  0  0  0  0  0  0  0  0  0  0
   59.7410   30.7990   48.5210 O   0  0  0  0  0  0  0  0  0  0  0  0
   60.7180   34.2000   46.9370 C   0  0  0  0  0  0  0  0  0  0  0  0
   62.1460   33.5790   46.9940 C   0  0  1  0  0  0  0  0  0  0  0  0
   62.9350   34.0800   48.1950 C   0  0  0  0  0  0  0  0  0  0  0  0
   63.9080   32.9610   48.4990 C   0  0  0  0  0  0  0  0  0  0  0  0
   63.3860   31.7500   47.7320 C   0  0  0  0  0  0  0  0  0  0  0  0
   62.1210   32.1180   47.0960 N   0  0  0  0  0  0  0  0  0  0  0  0
   58.1160   30.8820   45.7360 C   0  0  0  0  0  0  0  0  0  0  0  0
   57.3660   24.7030   45.0160 C   0  0  0  0  0  0  0  0  0  0  0  0
   57.5570   23.5820   44.2020 C   0  0  0  0  0  0  0  0  0  0  0  0
   56.8061   20.6701   43.5751 H   0  0  0  0  0  0  0  0  0  0  0  0
   55.7703   21.4505   42.3322 H   0  0  0  0  0  0  0  0  0  0  0  0
   57.5437   21.7368   42.3322 H   0  0  0  0  0  0  0  0  0  0  0  0
   54.3248   22.4593   44.0547 H   0  0  0  0  0  0  0  0  0  0  0  0
   53.9827   24.4705   45.4843 H   0  0  0  0  0  0  0  0  0  0  0  0
   54.8874   26.1651   46.8429 H   0  0  0  0  0  0  0  0  0  0  0  0
   56.6693   26.2196   47.1543 H   0  0  0  0  0  0  0  0  0  0  0  0
   56.7468   29.0869   43.1657 H   0  0  0  0  0  0  0  0  0  0  0  0
   56.8182   31.3345   42.0918 H   0  0  0  0  0  0  0  0  0  0  0  0
   57.7089   33.2952   43.3447 H   0  0  0  0  0  0  0  0  0  0  0  0
   60.0300   32.2830   46.8850 H   0  0  0  0  0  0  0  0  0  0  0  0
   59.3415   33.9209   48.9570 H   0  0  0  0  0  0  0  0  0  0  0  0
   57.8408   33.2788   48.1176 H   0  0  0  0  0  0  0  0  0  0  0  0
   57.8987   32.1217   50.8767 H   0  0  0  0  0  0  0  0  0  0  0  0
   58.6386   29.5606   51.3414 H   0  0  0  0  0  0  0  0  0  0  0  0
   60.5105   28.0245   50.1632 H   0  0  0  0  0  0  0  0  0  0  0  0
   59.6148   27.8136   48.6206 H   0  0  0  0  0  0  0  0  0  0  0  0
   61.2318   28.5960   48.6206 H   0  0  0  0  0  0  0  0  0  0  0  0
   60.6346   34.7715   46.0009 H   0  0  0  0  0  0  0  0  0  0  0  0
   60.6209   34.8152   47.8437 H   0  0  0  0  0  0  0  0  0  0  0  0
   62.6217   33.8881   46.0516 H   0  0  0  0  0  0  0  0  0  0  0  0
   63.4728   35.0073   47.9482 H   0  0  0  0  0  0  0  0  0  0  0  0
   62.2881   34.3179   49.0523 H   0  0  0  0  0  0  0  0  0  0  0  0
   64.9191   33.2267   48.1567 H   0  0  0  0  0  0  0  0  0  0  0  0
   63.9780   32.7621   49.5786 H   0  0  0  0  0  0  0  0  0  0  0  0
   64.1157   31.4535   46.9641 H   0  0  0  0  0  0  0  0  0  0  0  0
   63.2325   30.9045   48.4187 H   0  0  0  0  0  0  0  0  0  0  0  0
   61.3480   31.8290   47.7420 H   0  0  0  0  0  0  0  0  0  0  0  0
   58.4913   30.7472   46.7612 H   0  0  0  0  0  0  0  0  0  0  0  0
   58.2234   25.3389   45.2815 H   0  0  0  0  0  0  0  0  0  0  0  0
   58.5615   23.3449   43.8216 H   0  0  0  0  0  0  0  0  0  0  0  0
  1  2  1  0
  2  3  2  0
  3  4  1  0
  4  5  2  0
  5  6  1  0
  6  7  1  0
  7  8  1  0
  8  9  2  0
  8 10  2  0
  8 11  1  0
 11 12  2  0
 12 13  1  0
 13 14  2  0
 14 15  1  0
 15 16  1  0
 16 17  2  0
 16 18  1  0
 18 19  1  0
 19 20  1  0
 20 21  2  0
 21 22  1  0
 22 23  2  0
 23 24  1  0
 23 25  1  0
 18 26  1  0
 26 27  1  0
 27 28  1  0
 28 29  1  0
 29 30  1  0
 30 31  1  0
 15 32  2  0
  5 33  1  0
 33 34  2  0
 34  2  1  0
 32 11  1  0
 25 20  1  0
 31 27  1  0
  1 35  1  0
  1 36  1  0
  1 37  1  0
  3 38  1  0
  4 39  1  0
  6 40  1  0
  6 41  1  0
 12 42  1  0
 13 43  1  0
 14 44  1  0
 18 45  1  6
 19 46  1  0
 19 47  1  0
 21 48  1  0
 22 49  1  0
 24 50  1  0
 24 51  1  0
 24 52  1  0
 26 53  1  0
 26 54  1  0
 27 55  1  6
 28 56  1  0
 28 57  1  0
 29 58  1  0
 29 59  1  0
 30 60  1  0
 30 61  1  0
 31 62  1  0
 32 63  1  0
 33 64  1  0
 34 65  1  0
M  CHG  2   7  -1  18   1
M  END
>  <UniqueID>  (57) 
56

>  <SMILES>  (57) 
Cc1ccc(C[N-]S(=O)(=O)c2cccc(C(=O)[N@H+](Cc3ccc(C)o3)C[C@H]3CCCN3)c2)cc1

>  <Energy>  (57) 
101.30723128837151

>  <Genealogy>  (57) 
Cc1ccc(C[N-]S(=O)(=O)c2cccc(C(=O)[NH+](Cc3ccc(C)o3)CC3CCCN3)c2)cc1 (protonated)
Cc1ccc(C[N-]S(=O)(=O)c2cccc(C(=O)[N@H+](Cc3ccc(C)o3)C[C@H]3CCCN3)c2)cc1 (chirality)
Cc1ccc(C[N-]S(=O)(=O)c2cccc(C(=O)[N@H+](Cc3ccc(C)o3)C[C@H]3CCCN3)c2)cc1 (3D coordinates assigned)
Cc1ccc(C[N-]S(=O)(=O)c2cccc(C(=O)[N@H+](Cc3ccc(C)o3)C[C@H]3CCCN3)c2)cc1 (nonaromatic ring conformer: 101.30723128837151 kcal/mol)

>  <smiles>  (57) 
Cc1ccc(CNS(=O)(=O)c2cccc(C(=O)N(Cc3ccc(C)o3)CC3CCCN3)c2)cc1

>  <score_type>  (57) 
oracle

>  <origin>  (57) 
adg

>  <m_score__min__energy>  (57) 
-9.9100000000000001

>  <m_primary>  (57) 
energy

$$$$
58:0
     RDKit          3D

 57 60  0  0  0  0  0  0  0  0999 V2000
   56.1600   20.0830   44.4250 C   0  0  0  0  0  0  0  0  0  0  0  0
   55.6620   21.4010   44.2240 O   0  0  0  0  0  0  0  0  0  0  0  0
   56.3240   22.5700   44.6310 C   0  0  0  0  0  0  0  0  0  0  0  0
   55.5920   23.7580   44.6870 C   0  0  0  0  0  0  0  0  0  0  0  0
   56.2020   24.9500   45.0770 C   0  0  0  0  0  0  0  0  0  0  0  0
   57.5640   24.9760   45.4130 C   0  0  0  0  0  0  0  0  0  0  0  0
   58.1780   26.2170   45.7940 N   0  0  0  0  0  0  0  0  0  0  0  0
   58.6120   26.5800   47.0180 C   0  0  0  0  0  0  0  0  0  0  0  0
   58.5470   25.7760   48.1510 O   0  0  0  0  0  0  0  0  0  0  0  0
   59.1570   27.8480   46.9560 C   0  0  0  0  0  0  0  0  0  0  0  0
   59.7950   28.5850   48.0980 C   0  0  0  0  0  0  0  0  0  0  0  0
   58.8990   29.7090   48.5410 C   0  0  0  0  0  0  0  0  0  0  0  0
   58.3470   29.6440   49.6710 O   0  0  0  0  0  0  0  0  0  0  0  0
   58.5650   30.7960   47.6700 N   0  0  0  0  0  0  0  0  0  0  0  0
   59.4320   31.8830   47.3110 C   0  0  0  0  0  0  0  0  0  0  0  0
   60.8200   31.7940   47.5220 C   0  0  0  0  0  0  0  0  0  0  0  0
   61.6550   32.8660   47.1980 C   0  0  0  0  0  0  0  0  0  0  0  0
   63.3860   32.7380   47.4530 Cl  0  0  0  0  0  0  0  0  0  0  0  0
   61.1110   34.0410   46.6760 C   0  0  0  0  0  0  0  0  0  0  0  0
   59.7310   34.1520   46.4890 C   0  0  0  0  0  0  0  0  0  0  0  0
   58.8810   33.0820   46.8130 C   0  0  0  0  0  0  0  0  0  0  0  0
   57.3970   33.2110   46.6110 C   0  0  0  0  0  0  0  0  0  0  0  0
   59.0950   28.2700   45.6720 N   0  0  0  0  0  0  0  0  0  0  0  0
   59.4910   29.5730   45.1310 C   0  0  0  0  0  0  0  0  0  0  0  0
   58.3030   30.2630   44.5420 C   0  0  0  0  0  0  0  0  0  0  0  0
   58.3390   31.2150   43.5430 C   0  0  0  0  0  0  0  0  0  0  0  0
   57.0230   31.5410   43.2980 C   0  0  0  0  0  0  0  0  0  0  0  0
   56.2680   30.7690   44.1580 C   0  0  0  0  0  0  0  0  0  0  0  0
   57.0610   30.0150   44.8860 O   0  0  0  0  0  0  0  0  0  0  0  0
   58.4870   27.2660   45.0000 C   0  0  0  0  0  0  0  0  0  0  0  0
   58.2230   27.3100   43.7680 O   0  0  0  0  0  0  0  0  0  0  0  0
   58.3130   23.7840   45.3780 C   0  0  0  0  0  0  0  0  0  0  0  0
   59.6630   23.8240   45.7620 O   0  0  0  0  0  0  0  0  0  0  0  0
   60.6780   22.9680   45.2480 C   0  0  0  0  0  0  0  0  0  0  0  0
   57.6870   22.5850   44.9790 C   0  0  0  0  0  0  0  0  0  0  0  0
   56.2365   19.8805   45.5035 H   0  0  0  0  0  0  0  0  0  0  0  0
   55.4740   19.3575   43.9634 H   0  0  0  0  0  0  0  0  0  0  0  0
   57.1544   19.9924   43.9634 H   0  0  0  0  0  0  0  0  0  0  0  0
   54.5246   23.7535   44.4211 H   0  0  0  0  0  0  0  0  0  0  0  0
   55.6109   25.8766   45.1215 H   0  0  0  0  0  0  0  0  0  0  0  0
   59.9538   27.8918   48.9372 H   0  0  0  0  0  0  0  0  0  0  0  0
   60.7610   28.9971   47.7708 H   0  0  0  0  0  0  0  0  0  0  0  0
   61.2506   30.8743   47.9448 H   0  0  0  0  0  0  0  0  0  0  0  0
   61.7702   34.8809   46.4115 H   0  0  0  0  0  0  0  0  0  0  0  0
   59.3074   35.0835   46.0854 H   0  0  0  0  0  0  0  0  0  0  0  0
   56.8962   33.2545   47.5894 H   0  0  0  0  0  0  0  0  0  0  0  0
   57.1822   34.1312   46.0479 H   0  0  0  0  0  0  0  0  0  0  0  0
   57.0267   32.3417   46.0479 H   0  0  0  0  0  0  0  0  0  0  0  0
   59.9083   30.1917   45.9392 H   0  0  0  0  0  0  0  0  0  0  0  0
   60.2482   29.4241   44.3471 H   0  0  0  0  0  0  0  0  0  0  0  0
   59.2305   31.6266   43.0471 H   0  0  0  0  0  0  0  0  0  0  0  0
   56.6489   32.2702   42.5643 H   0  0  0  0  0  0  0  0  0  0  0  0
   55.1701   30.7828   44.2239 H   0  0  0  0  0  0  0  0  0  0  0  0
   61.2256   22.5062   46.0828 H   0  0  0  0  0  0  0  0  0  0  0  0
   60.2173   22.1817   44.6321 H   0  0  0  0  0  0  0  0  0  0  0  0
   61.3753   23.5548   44.6321 H   0  0  0  0  0  0  0  0  0  0  0  0
   58.2698   21.6529   44.9395 H   0  0  0  0  0  0  0  0  0  0  0  0
  1  2  1  0
  2  3  1  0
  3  4  2  0
  4  5  1  0
  5  6  2  0
  6  7  1  0
  7  8  1  0
  8  9  1  0
  8 10  2  0
 10 11  1  0
 11 12  1  0
 12 13  2  0
 12 14  1  0
 14 15  1  0
 15 16  2  0
 16 17  1  0
 17 18  1  0
 17 19  2  0
 19 20  1  0
 20 21  2  0
 21 22  1  0
 10 23  1  0
 23 24  1  0
 24 25  1  0
 25 26  2  0
 26 27  1  0
 27 28  2  0
 28 29  1  0
 23 30  1  0
 30 31  2  0
  6 32  1  0
 32 33  1  0
 33 34  1  0
 32 35  2  0
 35  3  1  0
 30  7  1  0
 21 15  1  0
 29 25  1  0
  1 36  1  0
  1 37  1  0
  1 38  1  0
  4 39  1  0
  5 40  1  0
 11 41  1  0
 11 42  1  0
 16 43  1  0
 19 44  1  0
 20 45  1  0
 22 46  1  0
 22 47  1  0
 22 48  1  0
 24 49  1  0
 24 50  1  0
 26 51  1  0
 27 52  1  0
 28 53  1  0
 34 54  1  0
 34 55  1  0
 34 56  1  0
 35 57  1  0
M  CHG  2   9  -1  14  -1
M  END
>  <UniqueID>  (58) 
57

>  <SMILES>  (58) 
COc1ccc(-n2c([O-])c(CC(=O)[N-]c3cc(Cl)ccc3C)n(Cc3ccco3)c2=O)c(OC)c1

>  <Energy>  (58) 
127.44275138029829

>  <Genealogy>  (58) 
COc1ccc(-n2c([O-])c(CC(=O)[N-]c3cc(Cl)ccc3C)n(Cc3ccco3)c2=O)c(OC)c1 (protonated)
COc1ccc(-n2c([O-])c(CC(=O)[N-]c3cc(Cl)ccc3C)n(Cc3ccco3)c2=O)c(OC)c1 (3D coordinates assigned)
COc1ccc(-n2c([O-])c(CC(=O)[N-]c3cc(Cl)ccc3C)n(Cc3ccco3)c2=O)c(OC)c1 (optimized conformer: 127.44275138029829 kcal/mol)

>  <smiles>  (58) 
COc1ccc(-n2c(O)c(CC(=O)Nc3cc(Cl)ccc3C)n(Cc3ccco3)c2=O)c(OC)c1

>  <score_type>  (58) 
oracle

>  <origin>  (58) 
adg

>  <m_score__min__energy>  (58) 
-12.52

>  <m_primary>  (58) 
energy

$$$$
59:0
     RDKit          3D

 79 83  0  0  0  0  0  0  0  0999 V2000
   55.1990   29.3710   44.8650 O   0  0  0  0  0  0  0  0  0  0  0  0
   56.2660   28.7000   44.8950 C   0  0  0  0  0  0  0  0  0  0  0  0
   57.5020   29.2320   44.2060 C   0  0  0  0  0  0  0  0  0  0  0  0
   58.0450   30.4710   44.8740 C   0  0  0  0  0  0  0  0  0  0  0  0
   57.4510   31.7210   44.6400 C   0  0  0  0  0  0  0  0  0  0  0  0
   57.9140   32.8570   45.3070 C   0  0  0  0  0  0  0  0  0  0  0  0
   58.9920   32.7670   46.2000 C   0  0  0  0  0  0  0  0  0  0  0  0
   59.4880   33.9720   46.9000 C   0  0  0  0  0  0  0  0  0  0  0  0
   59.8410   34.9780   46.2310 O   0  0  0  0  0  0  0  0  0  0  0  0
   59.5070   34.0500   48.3320 N   0  0  0  0  0  0  0  0  0  0  0  0
   59.5640   32.9260   49.2250 C   0  0  0  0  0  0  0  0  0  0  0  0
   58.3570   32.3420   49.6350 C   0  0  0  0  0  0  0  0  0  0  0  0
   58.3620   31.2470   50.5000 C   0  0  0  0  0  0  0  0  0  0  0  0
   59.5730   30.7420   50.9800 C   0  0  0  0  0  0  0  0  0  0  0  0
   60.7820   31.3290   50.5980 C   0  0  0  0  0  0  0  0  0  0  0  0
   60.7910   32.4400   49.7330 C   0  0  0  0  0  0  0  0  0  0  0  0
   61.9800   33.0980   49.3760 O   0  0  0  0  0  0  0  0  0  0  0  0
   62.4420   34.3410   49.9030 C   0  0  0  0  0  0  0  0  0  0  0  0
   63.7400   34.1730   50.7080 C   0  0  0  0  0  0  0  0  0  0  0  0
   64.4470   32.8340   50.4360 C   0  0  0  0  0  0  0  0  0  0  0  0
   65.1940   32.3830   51.6330 N   0  0  0  0  0  0  0  0  0  0  0  0
   64.6070   31.1910   52.2880 C   0  0  0  0  0  0  0  0  0  0  0  0
   64.9220   29.8840   51.5380 C   0  0  0  0  0  0  0  0  0  0  0  0
   66.3510   29.8160   51.2220 N   0  0  0  0  0  0  0  0  0  0  0  0
   67.0510   28.5620   51.2450 C   0  0  0  0  0  0  0  0  0  0  0  0
   66.9100   27.7010   52.3470 C   0  0  0  0  0  0  0  0  0  0  0  0
   67.5860   26.4750   52.3720 C   0  0  0  0  0  0  0  0  0  0  0  0
   68.4070   26.1040   51.3020 C   0  0  0  0  0  0  0  0  0  0  0  0
   68.5550   26.9580   50.2040 C   0  0  0  0  0  0  0  0  0  0  0  0
   67.8750   28.1800   50.1710 C   0  0  0  0  0  0  0  0  0  0  0  0
   66.9580   30.9800   50.5790 C   0  0  0  0  0  0  0  0  0  0  0  0
   66.6440   32.2300   51.4020 C   0  0  0  0  0  0  0  0  0  0  0  0
   59.5790   31.5160   46.4430 C   0  0  0  0  0  0  0  0  0  0  0  0
   59.0980   30.3750   45.7980 C   0  0  0  0  0  0  0  0  0  0  0  0
   56.2850   27.4740   45.6370 N   0  0  0  0  0  0  0  0  0  0  0  0
   57.4830   26.8570   46.1880 C   0  0  0  0  0  0  0  0  0  0  0  0
   57.6870   25.4990   45.5800 C   0  0  0  0  0  0  0  0  0  0  0  0
   56.7030   24.9430   44.7430 C   0  0  0  0  0  0  0  0  0  0  0  0
   56.8830   23.6710   44.1950 C   0  0  0  0  0  0  0  0  0  0  0  0
   58.0390   22.9370   44.4820 C   0  0  0  0  0  0  0  0  0  0  0  0
   59.0200   23.4740   45.3200 C   0  0  0  0  0  0  0  0  0  0  0  0
   60.1600   22.7290   45.6080 O   0  0  0  0  0  0  0  0  0  0  0  0
   58.8460   24.7530   45.8690 C   0  0  0  0  0  0  0  0  0  0  0  0
   58.2784   28.4529   44.2223 H   0  0  0  0  0  0  0  0  0  0  0  0
   57.2224   29.5013   43.1768 H   0  0  0  0  0  0  0  0  0  0  0  0
   56.6169   31.8061   43.9279 H   0  0  0  0  0  0  0  0  0  0  0  0
   57.4301   33.8290   45.1310 H   0  0  0  0  0  0  0  0  0  0  0  0
   57.4014   32.7490   49.2730 H   0  0  0  0  0  0  0  0  0  0  0  0
   57.4128   30.7816   50.8039 H   0  0  0  0  0  0  0  0  0  0  0  0
   59.5746   29.8786   51.6616 H   0  0  0  0  0  0  0  0  0  0  0  0
   61.7315   30.9212   50.9749 H   0  0  0  0  0  0  0  0  0  0  0  0
   62.6274   35.0342   49.0693 H   0  0  0  0  0  0  0  0  0  0  0  0
   61.6687   34.7338   50.5796 H   0  0  0  0  0  0  0  0  0  0  0  0
   64.4254   34.9915   50.4428 H   0  0  0  0  0  0  0  0  0  0  0  0
   63.4707   34.1922   51.7743 H   0  0  0  0  0  0  0  0  0  0  0  0
   63.6949   32.0756   50.1729 H   0  0  0  0  0  0  0  0  0  0  0  0
   65.1571   32.9713   49.6072 H   0  0  0  0  0  0  0  0  0  0  0  0
   65.0098   31.1165   53.3089 H   0  0  0  0  0  0  0  0  0  0  0  0
   63.5143   31.3176   52.2894 H   0  0  0  0  0  0  0  0  0  0  0  0
   64.6482   29.0267   52.1705 H   0  0  0  0  0  0  0  0  0  0  0  0
   64.3449   29.8584   50.6019 H   0  0  0  0  0  0  0  0  0  0  0  0
   66.2674   27.9909   53.1914 H   0  0  0  0  0  0  0  0  0  0  0  0
   67.4712   25.8023   53.2348 H   0  0  0  0  0  0  0  0  0  0  0  0
   68.9366   25.1401   51.3240 H   0  0  0  0  0  0  0  0  0  0  0  0
   69.2064   26.6685   49.3662 H   0  0  0  0  0  0  0  0  0  0  0  0
   67.9851   28.8449   49.3016 H   0  0  0  0  0  0  0  0  0  0  0  0
   68.0477   30.8418   50.5212 H   0  0  0  0  0  0  0  0  0  0  0  0
   66.5518   31.0947   49.5632 H   0  0  0  0  0  0  0  0  0  0  0  0
   67.1535   32.1539   52.3739 H   0  0  0  0  0  0  0  0  0  0  0  0
   66.9956   33.1075   50.8395 H   0  0  0  0  0  0  0  0  0  0  0  0
   60.4220   31.4338   47.1449 H   0  0  0  0  0  0  0  0  0  0  0  0
   59.5468   29.3945   46.0151 H   0  0  0  0  0  0  0  0  0  0  0  0
   58.3543   27.4904   45.9655 H   0  0  0  0  0  0  0  0  0  0  0  0
   57.3669   26.7516   47.2768 H   0  0  0  0  0  0  0  0  0  0  0  0
   55.7885   25.5119   44.5192 H   0  0  0  0  0  0  0  0  0  0  0  0
   56.1130   23.2447   43.5352 H   0  0  0  0  0  0  0  0  0  0  0  0
   58.1759   21.9358   44.0474 H   0  0  0  0  0  0  0  0  0  0  0  0
   60.8230   22.4830   44.8840 H   0  0  0  0  0  0  0  0  0  0  0  0
   59.6185   25.1753   46.5284 H   0  0  0  0  0  0  0  0  0  0  0  0
  1  2  2  0
  2  3  1  0
  3  4  1  0
  4  5  2  0
  5  6  1  0
  6  7  2  0
  7  8  1  0
  8  9  2  0
  8 10  1  0
 10 11  1  0
 11 12  2  0
 12 13  1  0
 13 14  2  0
 14 15  1  0
 15 16  2  0
 16 17  1  0
 17 18  1  0
 18 19  1  0
 19 20  1  0
 20 21  1  0
 21 22  1  0
 22 23  1  0
 23 24  1  0
 24 25  1  0
 25 26  2  0
 26 27  1  0
 27 28  2  0
 28 29  1  0
 29 30  2  0
 24 31  1  0
 31 32  1  0
  7 33  1  0
 33 34  2  0
  2 35  1  0
 35 36  1  0
 36 37  1  0
 37 38  2  0
 38 39  1  0
 39 40  2  0
 40 41  1  0
 41 42  1  0
 41 43  2  0
 34  4  1  0
 43 37  1  0
 16 11  1  0
 32 21  1  0
 30 25  1  0
  3 44  1  0
  3 45  1  0
  5 46  1  0
  6 47  1  0
 12 48  1  0
 13 49  1  0
 14 50  1  0
 15 51  1  0
 18 52  1  0
 18 53  1  0
 19 54  1  0
 19 55  1  0
 20 56  1  0
 20 57  1  0
 22 58  1  0
 22 59  1  0
 23 60  1  0
 23 61  1  0
 26 62  1  0
 27 63  1  0
 28 64  1  0
 29 65  1  0
 30 66  1  0
 31 67  1  0
 31 68  1  0
 32 69  1  0
 32 70  1  0
 33 71  1  0
 34 72  1  0
 36 73  1  0
 36 74  1  0
 38 75  1  0
 39 76  1  0
 40 77  1  0
 42 78  1  0
 43 79  1  0
M  CHG  2  10  -1  35  -1
M  END
>  <UniqueID>  (59) 
58

>  <SMILES>  (59) 
O=C(Cc1ccc(C(=O)[N-]c2ccccc2OCCCN2CCN(c3ccccc3)CC2)cc1)[N-]Cc1cccc(O)c1

>  <Energy>  (59) 
93.69347097285927

>  <Genealogy>  (59) 
O=C(Cc1ccc(C(=O)[N-]c2ccccc2OCCCN2CCN(c3ccccc3)CC2)cc1)[N-]Cc1cccc(O)c1 (protonated)
O=C(Cc1ccc(C(=O)[N-]c2ccccc2OCCCN2CCN(c3ccccc3)CC2)cc1)[N-]Cc1cccc(O)c1 (3D coordinates assigned)
O=C(Cc1ccc(C(=O)[N-]c2ccccc2OCCCN2CCN(c3ccccc3)CC2)cc1)[N-]Cc1cccc(O)c1 (nonaromatic ring conformer: 93.69347097285927 kcal/mol)

>  <smiles>  (59) 
O=C(Cc1ccc(C(=O)Nc2ccccc2OCCCN2CCN(c3ccccc3)CC2)cc1)NCc1cccc(O)c1

>  <score_type>  (59) 
oracle

>  <origin>  (59) 
adg

>  <m_score__min__energy>  (59) 
-13.460000000000001

>  <m_primary>  (59) 
energy

$$$$
60:0
     RDKit          3D

 31 33  0  0  0  0  0  0  0  0999 V2000
   54.6690   27.0720   46.7070 H   0  0  0  0  0  0  0  0  0  0  0  0
   55.1520   26.4370   46.0340 N   0  0  0  0  0  0  0  0  0  0  0  0
   56.5550   26.5440   45.8030 C   0  0  0  0  0  0  0  0  0  0  0  0
   57.1650   25.5950   45.2400 O   0  0  0  0  0  0  0  0  0  0  0  0
   57.2780   27.7580   46.2210 C   0  0  0  0  0  0  0  0  0  0  0  0
   57.0170   28.9380   45.5970 N   0  0  0  0  0  0  0  0  0  0  0  0
   57.6540   30.0840   45.9500 C   0  0  0  0  0  0  0  0  0  0  0  0
   57.3860   31.1850   45.3090 N   0  0  0  0  0  0  0  0  0  0  0  0
   58.0520   32.4440   45.4890 C   0  0  0  0  0  0  0  0  0  0  0  0
   58.4790   33.1500   44.3570 C   0  0  0  0  0  0  0  0  0  0  0  0
   58.3119   32.7281   43.3549 H   0  0  0  0  0  0  0  0  0  0  0  0
   59.1160   34.3870   44.4920 C   0  0  0  0  0  0  0  0  0  0  0  0
   59.4631   34.9269   43.5987 H   0  0  0  0  0  0  0  0  0  0  0  0
   59.3120   34.9380   45.7610 C   0  0  0  0  0  0  0  0  0  0  0  0
   59.8229   35.9063   45.8672 H   0  0  0  0  0  0  0  0  0  0  0  0
   58.8590   34.2590   46.8950 C   0  0  0  0  0  0  0  0  0  0  0  0
   59.0038   34.6994   47.8925 H   0  0  0  0  0  0  0  0  0  0  0  0
   58.2220   33.0210   46.7650 C   0  0  0  0  0  0  0  0  0  0  0  0
   57.7270   32.4160   47.8750 F   0  0  0  0  0  0  0  0  0  0  0  0
   58.5880   30.0560   46.9390 N   0  0  0  0  0  0  0  0  0  0  0  0
   58.8900   28.9080   47.6010 C   0  0  0  0  0  0  0  0  0  0  0  0
   59.9040   28.9400   48.6740 C   0  0  0  0  0  0  0  0  0  0  0  0
   60.4670   27.6210   49.5590 S   0  0  0  0  0  0  0  0  0  0  0  0
   61.5430   28.4810   50.5230 C   0  0  0  0  0  0  0  0  0  0  0  0
   62.1899   28.0563   51.3048 H   0  0  0  0  0  0  0  0  0  0  0  0
   61.4740   29.8190   50.1620 C   0  0  0  0  0  0  0  0  0  0  0  0
   62.0797   30.6030   50.6401 H   0  0  0  0  0  0  0  0  0  0  0  0
   60.5610   30.0780   49.1320 C   0  0  0  0  0  0  0  0  0  0  0  0
   60.3807   31.0837   48.7245 H   0  0  0  0  0  0  0  0  0  0  0  0
   58.2300   27.7230   47.2500 C   0  0  0  0  0  0  0  0  0  0  0  0
   58.4547   26.7815   47.7726 H   0  0  0  0  0  0  0  0  0  0  0  0
  1  2  1  0
  2  3  1  0
  3  4  2  0
  3  5  1  0
  5  6  1  0
  6  7  1  0
  7  8  2  0
  8  9  1  0
  9 10  2  0
 10 11  1  0
 10 12  1  0
 12 13  1  0
 12 14  2  0
 14 15  1  0
 14 16  1  0
 16 17  1  0
 16 18  2  0
 18 19  1  0
  7 20  1  0
 20 21  2  0
 21 22  1  0
 22 23  1  0
 23 24  1  0
 24 25  1  0
 24 26  2  0
 26 27  1  0
 26 28  1  0
 28 29  1  0
 21 30  1  0
 30 31  1  0
 30  5  2  0
 18  9  1  0
 28 22  2  0
M  CHG  2   2  -1   6  -1
M  END
>  <UniqueID>  (60) 
59

>  <SMILES>  (60) 
[NH-]C(=O)c1cc(-c2cccs2)n/c(=N\c2ccccc2F)[n-]1

>  <Energy>  (60) 
67.19493427287526

>  <Genealogy>  (60) 
[NH-]C(=O)c1cc(-c2cccs2)nc(=Nc2ccccc2F)[n-]1 (protonated)
[NH-]C(=O)c1cc(-c2cccs2)n/c(=N\c2ccccc2F)[n-]1 (cis-trans isomerization)
[NH-]C(=O)c1cc(-c2cccs2)n/c(=N\c2ccccc2F)[n-]1 (3D coordinates assigned)
[NH-]C(=O)c1cc(-c2cccs2)n/c(=N\c2ccccc2F)[n-]1 (optimized conformer: 67.19493427287526 kcal/mol)

>  <smiles>  (60) 
NC(=O)c1cc(-c2cccs2)nc(=Nc2ccccc2F)[nH]1

>  <score_type>  (60) 
oracle

>  <origin>  (60) 
adg

>  <m_score__min__energy>  (60) 
-11.52

>  <m_primary>  (60) 
energy

$$$$
61:0
     RDKit          3D

 55 58  0  0  0  0  0  0  0  0999 V2000
   57.8350   19.5030   47.2660 C   0  0  0  0  0  0  0  0  0  0  0  0
   57.7260   20.7970   47.8490 O   0  0  0  0  0  0  0  0  0  0  0  0
   56.9400   21.8360   47.3280 C   0  0  0  0  0  0  0  0  0  0  0  0
   56.6080   22.9800   48.0790 C   0  0  0  0  0  0  0  0  0  0  0  0
   55.8220   23.9890   47.5140 C   0  0  0  0  0  0  0  0  0  0  0  0
   55.3540   23.8700   46.1970 C   0  0  0  0  0  0  0  0  0  0  0  0
   54.5330   24.9750   45.5880 C   0  0  0  0  0  0  0  0  0  0  0  0
   55.2660   26.2370   45.6470 N   0  0  0  0  0  0  0  0  0  0  0  0
   56.6420   26.3440   45.2470 C   0  0  0  0  0  0  0  0  0  0  0  0
   57.1810   25.3950   44.6140 O   0  0  0  0  0  0  0  0  0  0  0  0
   57.4360   27.5580   45.5550 C   0  0  0  0  0  0  0  0  0  0  0  0
   58.6780   27.4650   46.2100 C   0  0  0  0  0  0  0  0  0  0  0  0
   59.4240   28.6140   46.4870 C   0  0  0  0  0  0  0  0  0  0  0  0
   58.9450   29.8790   46.1060 C   0  0  0  0  0  0  0  0  0  0  0  0
   59.6590   31.0630   46.3610 C   0  0  0  0  0  0  0  0  0  0  0  0
   60.7610   31.0020   46.9740 O   0  0  0  0  0  0  0  0  0  0  0  0
   59.1570   32.2770   45.9490 N   0  0  0  0  0  0  0  0  0  0  0  0
   59.9120   33.5280   46.1810 C   0  0  0  0  0  0  0  0  0  0  0  0
   60.3190   33.6540   47.6320 C   0  0  0  0  0  0  0  0  0  0  0  0
   59.3350   33.6230   48.6360 C   0  0  0  0  0  0  0  0  0  0  0  0
   59.6860   33.7560   49.9790 C   0  0  0  0  0  0  0  0  0  0  0  0
   61.0240   33.9200   50.3390 C   0  0  0  0  0  0  0  0  0  0  0  0
   62.0150   33.9520   49.3550 C   0  0  0  0  0  0  0  0  0  0  0  0
   61.6750   33.8180   47.9940 C   0  0  0  0  0  0  0  0  0  0  0  0
   62.6510   33.8390   46.9860 O   0  0  0  0  0  0  0  0  0  0  0  0
   63.8070   33.0070   46.9590 C   0  0  0  0  0  0  0  0  0  0  0  0
   57.9380   32.3280   45.3160 C   0  0  0  0  0  0  0  0  0  0  0  0
   57.4450   33.4300   44.9550 O   0  0  0  0  0  0  0  0  0  0  0  0
   57.2420   31.1900   45.0700 N   0  0  0  0  0  0  0  0  0  0  0  0
   57.7110   29.9750   45.4410 C   0  0  0  0  0  0  0  0  0  0  0  0
   56.9650   28.8240   45.1640 C   0  0  0  0  0  0  0  0  0  0  0  0
   55.6890   22.7330   45.4480 C   0  0  0  0  0  0  0  0  0  0  0  0
   56.4750   21.7240   46.0130 C   0  0  0  0  0  0  0  0  0  0  0  0
   57.8987   18.7464   48.0619 H   0  0  0  0  0  0  0  0  0  0  0  0
   56.9503   19.3059   46.6428 H   0  0  0  0  0  0  0  0  0  0  0  0
   58.7402   19.4567   46.6428 H   0  0  0  0  0  0  0  0  0  0  0  0
   56.9682   23.0802   49.1135 H   0  0  0  0  0  0  0  0  0  0  0  0
   55.5692   24.8812   48.1057 H   0  0  0  0  0  0  0  0  0  0  0  0
   54.3150   24.7298   44.5381 H   0  0  0  0  0  0  0  0  0  0  0  0
   53.5939   25.0778   46.1515 H   0  0  0  0  0  0  0  0  0  0  0  0
   54.7450   27.0910   45.9510 H   0  0  0  0  0  0  0  0  0  0  0  0
   59.0652   26.4791   46.5067 H   0  0  0  0  0  0  0  0  0  0  0  0
   60.3903   28.5277   47.0055 H   0  0  0  0  0  0  0  0  0  0  0  0
   60.8151   33.5249   45.5530 H   0  0  0  0  0  0  0  0  0  0  0  0
   59.2662   34.3802   45.9228 H   0  0  0  0  0  0  0  0  0  0  0  0
   58.2784   33.4926   48.3594 H   0  0  0  0  0  0  0  0  0  0  0  0
   58.9072   33.7316   50.7554 H   0  0  0  0  0  0  0  0  0  0  0  0
   61.2988   34.0242   51.3990 H   0  0  0  0  0  0  0  0  0  0  0  0
   63.0681   34.0827   49.6445 H   0  0  0  0  0  0  0  0  0  0  0  0
   64.1205   32.7814   47.9890 H   0  0  0  0  0  0  0  0  0  0  0  0
   63.5719   32.0696   46.4336 H   0  0  0  0  0  0  0  0  0  0  0  0
   64.6212   33.5276   46.4336 H   0  0  0  0  0  0  0  0  0  0  0  0
   56.0035   28.9101   44.6367 H   0  0  0  0  0  0  0  0  0  0  0  0
   55.3322   22.6344   44.4122 H   0  0  0  0  0  0  0  0  0  0  0  0
   56.7300   20.8343   45.4185 H   0  0  0  0  0  0  0  0  0  0  0  0
  1  2  1  0
  2  3  1  0
  3  4  2  0
  4  5  1  0
  5  6  2  0
  6  7  1  0
  7  8  1  0
  8  9  1  0
  9 10  2  0
  9 11  1  0
 11 12  2  0
 12 13  1  0
 13 14  2  0
 14 15  1  0
 15 16  2  0
 15 17  1  0
 17 18  1  0
 18 19  1  0
 19 20  2  0
 20 21  1  0
 21 22  2  0
 22 23  1  0
 23 24  2  0
 24 25  1  0
 25 26  1  0
 17 27  1  0
 27 28  2  0
 27 29  1  0
 29 30  1  0
 30 31  2  0
  6 32  1  0
 32 33  2  0
 33  3  1  0
 31 11  1  0
 30 14  1  0
 24 19  1  0
  1 34  1  0
  1 35  1  0
  1 36  1  0
  4 37  1  0
  5 38  1  0
  7 39  1  0
  7 40  1  0
  8 41  1  0
 12 42  1  0
 13 43  1  0
 18 44  1  0
 18 45  1  0
 20 46  1  0
 21 47  1  0
 22 48  1  0
 23 49  1  0
 26 50  1  0
 26 51  1  0
 26 52  1  0
 31 53  1  0
 32 54  1  0
 33 55  1  0
M  CHG  1  29  -1
M  END
>  <UniqueID>  (61) 
60

>  <SMILES>  (61) 
COc1ccc(CNC(=O)c2ccc3c(=O)n(Cc4ccccc4OC)c(=O)[n-]c3c2)cc1

>  <Energy>  (61) 
66.84493401488544

>  <Genealogy>  (61) 
COc1ccc(CNC(=O)c2ccc3c(=O)n(Cc4ccccc4OC)c(=O)[n-]c3c2)cc1 (protonated)
COc1ccc(CNC(=O)c2ccc3c(=O)n(Cc4ccccc4OC)c(=O)[n-]c3c2)cc1 (3D coordinates assigned)
COc1ccc(CNC(=O)c2ccc3c(=O)n(Cc4ccccc4OC)c(=O)[n-]c3c2)cc1 (optimized conformer: 66.84493401488544 kcal/mol)

>  <smiles>  (61) 
COc1ccc(CNC(=O)c2ccc3c(=O)n(Cc4ccccc4OC)c(=O)[nH]c3c2)cc1

>  <score_type>  (61) 
oracle

>  <origin>  (61) 
adg

>  <m_score__min__energy>  (61) 
-10.029999999999999

>  <m_primary>  (61) 
energy

$$$$
62:0
     RDKit          3D

 55 57  0  0  0  0  0  0  0  0999 V2000
   64.4550   32.6950   49.3990 C   0  0  0  0  0  0  0  0  0  0  0  0
   63.0940   33.0120   49.6770 O   0  0  0  0  0  0  0  0  0  0  0  0
   62.1850   33.4900   48.7210 C   0  0  0  0  0  0  0  0  0  0  0  0
   60.9510   34.0690   49.0750 C   0  0  0  0  0  0  0  0  0  0  0  0
   60.0830   34.5380   48.0860 C   0  0  0  0  0  0  0  0  0  0  0  0
   60.4140   34.4090   46.7290 C   0  0  0  0  0  0  0  0  0  0  0  0
   59.5050   34.9180   45.6800 C   0  0  0  0  0  0  0  0  0  0  0  0
   59.6840   36.0750   45.2220 O   0  0  0  0  0  0  0  0  0  0  0  0
   58.4160   34.1340   45.1690 N   0  0  0  0  0  0  0  0  0  0  0  0
   57.4510   33.4000   45.9820 C   0  0  0  0  0  0  0  0  0  0  0  0
   57.4590   31.9530   45.6000 C   0  0  0  0  0  0  0  0  0  0  0  0
   56.5470   31.3930   44.7840 N   0  0  0  0  0  0  0  0  0  0  0  0
   56.8140   30.0940   44.7400 N   0  0  0  0  0  0  0  0  0  0  0  0
   57.8740   29.8840   45.5420 C   0  0  0  0  0  0  0  0  0  0  0  0
   58.5960   28.2630   45.8220 S   0  0  0  0  0  0  0  0  0  0  0  0
   57.3450   27.3640   44.8430 C   0  0  0  0  0  0  0  0  0  0  0  0
   56.8060   26.1920   45.6190 C   0  0  0  0  0  0  0  0  0  0  0  0
   56.2730   26.4300   46.7390 O   0  0  0  0  0  0  0  0  0  0  0  0
   56.9160   24.8270   45.1390 N   0  0  0  0  0  0  0  0  0  0  0  0
   56.5350   23.7100   46.0280 C   0  0  0  0  0  0  0  0  0  0  0  0
   57.2670   22.4070   45.6680 C   0  0  0  0  0  0  0  0  0  0  0  0
   56.5930   21.5790   44.5650 C   0  0  0  0  0  0  0  0  0  0  0  0
   56.8440   22.1090   43.1440 C   0  0  0  0  0  0  0  0  0  0  0  0
   56.5650   23.6140   42.9300 C   0  0  0  0  0  0  0  0  0  0  0  0
   57.4380   24.5640   43.7800 C   0  0  0  0  0  0  0  0  0  0  0  0
   58.3020   31.0320   46.1010 N   0  0  0  0  0  0  0  0  0  0  0  0
   59.4160   31.2470   47.0210 C   0  0  0  0  0  0  0  0  0  0  0  0
   61.6530   33.8480   46.3790 C   0  0  0  0  0  0  0  0  0  0  0  0
   62.5260   33.3890   47.3680 C   0  0  0  0  0  0  0  0  0  0  0  0
   65.0023   32.5675   50.3446 H   0  0  0  0  0  0  0  0  0  0  0  0
   64.5030   31.7616   48.8189 H   0  0  0  0  0  0  0  0  0  0  0  0
   64.9105   33.5111   48.8189 H   0  0  0  0  0  0  0  0  0  0  0  0
   60.6694   34.1523   50.1351 H   0  0  0  0  0  0  0  0  0  0  0  0
   59.1329   35.0120   48.3735 H   0  0  0  0  0  0  0  0  0  0  0  0
   57.7195   33.4983   47.0442 H   0  0  0  0  0  0  0  0  0  0  0  0
   56.4459   33.8137   45.8126 H   0  0  0  0  0  0  0  0  0  0  0  0
   56.5180   28.0469   44.5989 H   0  0  0  0  0  0  0  0  0  0  0  0
   57.8165   26.9921   43.9213 H   0  0  0  0  0  0  0  0  0  0  0  0
   56.7836   23.9814   47.0646 H   0  0  0  0  0  0  0  0  0  0  0  0
   55.4555   23.5356   45.9082 H   0  0  0  0  0  0  0  0  0  0  0  0
   58.2818   22.6654   45.3314 H   0  0  0  0  0  0  0  0  0  0  0  0
   57.2586   21.7841   46.5746 H   0  0  0  0  0  0  0  0  0  0  0  0
   56.9755   20.5493   44.6228 H   0  0  0  0  0  0  0  0  0  0  0  0
   55.5086   21.6383   44.7400 H   0  0  0  0  0  0  0  0  0  0  0  0
   57.8992   21.9224   42.8954 H   0  0  0  0  0  0  0  0  0  0  0  0
   56.1317   21.5773   42.4960 H   0  0  0  0  0  0  0  0  0  0  0  0
   56.7398   23.8466   41.8692 H   0  0  0  0  0  0  0  0  0  0  0  0
   55.5254   23.7835   43.2470 H   0  0  0  0  0  0  0  0  0  0  0  0
   58.4382   24.1166   43.8770 H   0  0  0  0  0  0  0  0  0  0  0  0
   57.4479   25.5314   43.2565 H   0  0  0  0  0  0  0  0  0  0  0  0
   59.0543   31.1772   48.0575 H   0  0  0  0  0  0  0  0  0  0  0  0
   60.1865   30.4810   46.8492 H   0  0  0  0  0  0  0  0  0  0  0  0
   59.8461   32.2447   46.8492 H   0  0  0  0  0  0  0  0  0  0  0  0
   61.9377   33.7696   45.3194 H   0  0  0  0  0  0  0  0  0  0  0  0
   63.4901   32.9442   47.0805 H   0  0  0  0  0  0  0  0  0  0  0  0
  1  2  1  0
  2  3  1  0
  3  4  2  0
  4  5  1  0
  5  6  2  0
  6  7  1  0
  7  8  2  0
  7  9  1  0
  9 10  1  0
 10 11  1  0
 11 12  2  0
 12 13  1  0
 13 14  2  0
 14 15  1  0
 15 16  1  0
 16 17  1  0
 17 18  2  0
 17 19  1  0
 19 20  1  0
 20 21  1  0
 21 22  1  0
 22 23  1  0
 23 24  1  0
 24 25  1  0
 14 26  1  0
 26 27  1  0
  6 28  1  0
 28 29  2  0
 29  3  1  0
 26 11  1  0
 25 19  1  0
  1 30  1  0
  1 31  1  0
  1 32  1  0
  4 33  1  0
  5 34  1  0
 10 35  1  0
 10 36  1  0
 16 37  1  0
 16 38  1  0
 20 39  1  0
 20 40  1  0
 21 41  1  0
 21 42  1  0
 22 43  1  0
 22 44  1  0
 23 45  1  0
 23 46  1  0
 24 47  1  0
 24 48  1  0
 25 49  1  0
 25 50  1  0
 27 51  1  0
 27 52  1  0
 27 53  1  0
 28 54  1  0
 29 55  1  0
M  CHG  1   9  -1
M  END
>  <UniqueID>  (62) 
61

>  <SMILES>  (62) 
COc1ccc(C(=O)[N-]Cc2nnc(SCC(=O)N3CCCCCC3)n2C)cc1

>  <Energy>  (62) 
92.39548611810325

>  <Genealogy>  (62) 
COc1ccc(C(=O)[N-]Cc2nnc(SCC(=O)N3CCCCCC3)n2C)cc1 (protonated)
COc1ccc(C(=O)[N-]Cc2nnc(SCC(=O)N3CCCCCC3)n2C)cc1 (3D coordinates assigned)
COc1ccc(C(=O)[N-]Cc2nnc(SCC(=O)N3CCCCCC3)n2C)cc1 (nonaromatic ring conformer: 92.39548611810325 kcal/mol)

>  <smiles>  (62) 
COc1ccc(C(=O)NCc2nnc(SCC(=O)N3CCCCCC3)n2C)cc1

>  <score_type>  (62) 
oracle

>  <origin>  (62) 
adg

>  <m_score__min__energy>  (62) 
-9.1199999999999992

>  <m_primary>  (62) 
energy

$$$$
63:0
     RDKit          3D

 49 52  0  0  1  0  0  0  0  0999 V2000
   57.0260   31.9500   50.7850 N   0  0  0  0  0  0  0  0  0  0  0  0
   58.0860   31.0300   51.0920 C   0  0  0  0  0  0  0  0  0  0  0  0
   57.9930   30.3710   52.2900 C   0  0  0  0  0  0  0  0  0  0  0  0
   58.9690   29.4670   52.6590 C   0  0  0  0  0  0  0  0  0  0  0  0
   60.0130   29.2790   51.7670 C   0  0  0  0  0  0  0  0  0  0  0  0
   60.1020   29.9450   50.5660 C   0  0  0  0  0  0  0  0  0  0  0  0
   61.5100   29.6320   49.5070 S   0  0  0  0  0  0  0  0  0  0  0  0
   62.1020   31.2300   48.9180 C   0  0  0  0  0  0  0  0  0  0  0  0
   62.4440   32.2390   49.8080 C   0  0  0  0  0  0  0  0  0  0  0  0
   62.8730   33.4870   49.3580 C   0  0  0  0  0  0  0  0  0  0  0  0
   62.9500   33.7010   47.9840 C   0  0  0  0  0  0  0  0  0  0  0  0
   62.6180   32.7170   47.0880 C   0  0  0  0  0  0  0  0  0  0  0  0
   62.1960   31.4850   47.5540 C   0  0  0  0  0  0  0  0  0  0  0  0
   59.1400   30.8370   50.1970 C   0  0  0  0  0  0  0  0  0  0  0  0
   59.0860   31.5650   48.9930 N   0  0  0  0  0  0  0  0  0  0  0  0
   59.1350   32.9640   48.8610 C   0  0  0  0  0  0  0  0  0  0  0  0
   59.2590   33.7590   49.8450 O   0  0  0  0  0  0  0  0  0  0  0  0
   59.0290   33.5150   47.5130 C   0  0  0  0  0  0  0  0  0  0  0  0
   59.6270   34.7740   47.3490 C   0  0  0  0  0  0  0  0  0  0  0  0
   59.6240   35.4410   46.1480 C   0  0  0  0  0  0  0  0  0  0  0  0
   59.0100   34.8470   45.0690 C   0  0  0  0  0  0  0  0  0  0  0  0
   58.4190   33.6010   45.2320 C   0  0  0  0  0  0  0  0  0  0  0  0
   58.4310   32.9370   46.4570 C   0  0  0  0  0  0  0  0  0  0  0  0
   57.7920   31.6780   46.4970 N   0  0  0  0  0  0  0  0  0  0  0  0
   58.3650   30.6830   45.8660 C   0  0  0  0  0  0  0  0  0  0  0  0
   57.6120   30.1080   44.8390 C   0  0  0  0  0  0  0  0  0  0  0  0
   58.1860   29.0420   44.1460 C   0  0  0  0  0  0  0  0  0  0  0  0
   59.4270   28.6000   44.4760 N   0  0  0  0  0  0  0  0  0  0  0  0
   60.0820   29.2100   45.4760 C   0  0  0  0  0  0  0  0  0  0  0  0
   59.5920   30.2390   46.1840 N   0  0  0  0  0  0  0  0  0  0  0  0
   56.0170   31.6890   50.8410 H   0  0  0  0  0  0  0  0  0  0  0  0
   57.3550   32.9150   50.4940 H   0  0  0  0  0  0  0  0  0  0  0  0
   57.1402   30.5624   52.9579 H   0  0  0  0  0  0  0  0  0  0  0  0
   58.9205   28.9228   53.6137 H   0  0  0  0  0  0  0  0  0  0  0  0
   60.8068   28.5647   52.0311 H   0  0  0  0  0  0  0  0  0  0  0  0
   62.3752   32.0502   50.8895 H   0  0  0  0  0  0  0  0  0  0  0  0
   63.1434   34.2814   50.0692 H   0  0  0  0  0  0  0  0  0  0  0  0
   63.2841   34.6798   47.6094 H   0  0  0  0  0  0  0  0  0  0  0  0
   62.6869   32.9063   46.0066 H   0  0  0  0  0  0  0  0  0  0  0  0
   61.9309   30.6955   46.8354 H   0  0  0  0  0  0  0  0  0  0  0  0
   58.9980   30.9730   48.1110 H   0  0  0  0  0  0  0  0  0  0  0  0
   60.1165   35.2444   48.2146 H   0  0  0  0  0  0  0  0  0  0  0  0
   60.1014   36.4272   46.0510 H   0  0  0  0  0  0  0  0  0  0  0  0
   58.9877   35.3518   44.0919 H   0  0  0  0  0  0  0  0  0  0  0  0
   57.9279   33.1251   44.3704 H   0  0  0  0  0  0  0  0  0  0  0  0
   56.6081   30.4805   44.5873 H   0  0  0  0  0  0  0  0  0  0  0  0
   57.6312   28.5575   43.3290 H   0  0  0  0  0  0  0  0  0  0  0  0
   59.8700   27.7910   43.9570 H   0  0  0  0  0  0  0  0  0  0  0  0
   61.0866   28.8422   45.7320 H   0  0  0  0  0  0  0  0  0  0  0  0
  1  2  1  0
  2  3  2  0
  3  4  1  0
  4  5  2  0
  5  6  1  0
  6  7  1  0
  7  8  1  0
  8  9  2  0
  9 10  1  0
 10 11  2  0
 11 12  1  0
 12 13  2  0
  6 14  2  0
 14 15  1  0
 15 16  1  0
 16 17  2  0
 16 18  1  0
 18 19  2  0
 19 20  1  0
 20 21  2  0
 21 22  1  0
 22 23  2  0
 23 24  1  0
 24 25  2  0
 25 26  1  0
 26 27  2  0
 27 28  1  0
 28 29  1  0
 29 30  2  0
 14  2  1  0
 23 18  1  0
 30 25  1  0
 13  8  1  0
  1 31  1  0
  1 32  1  0
  3 33  1  0
  4 34  1  0
  5 35  1  0
  9 36  1  0
 10 37  1  0
 11 38  1  0
 12 39  1  0
 13 40  1  0
 15 41  1  0
 19 42  1  0
 20 43  1  0
 21 44  1  0
 22 45  1  0
 26 46  1  0
 27 47  1  0
 28 48  1  0
 29 49  1  0
M  END
>  <smiles>  (63) 
Nc1cccc(Sc2ccccc2)c1NC(=O)c1ccccc1N=c1cc[nH]cn1

>  <score_type>  (63) 
oracle

>  <origin>  (63) 
adg

>  <m_score__min__energy>  (63) 
-8.7300000000000004

>  <m_primary>  (63) 
energy

$$$$
64:0
     RDKit          3D

 48 50  0  0  0  0  0  0  0  0999 V2000
   54.6000   29.7890   52.4550 C   0  0  0  0  0  0  0  0  0  0  0  0
   55.8190   29.6870   53.1840 O   0  0  0  0  0  0  0  0  0  0  0  0
   56.8190   30.6700   53.1980 C   0  0  0  0  0  0  0  0  0  0  0  0
   57.4830   30.9260   54.4030 C   0  0  0  0  0  0  0  0  0  0  0  0
   58.4780   31.9020   54.4700 C   0  0  0  0  0  0  0  0  0  0  0  0
   58.8290   32.6270   53.3290 C   0  0  0  0  0  0  0  0  0  0  0  0
   58.1930   32.3690   52.1020 C   0  0  0  0  0  0  0  0  0  0  0  0
   58.5180   33.1160   50.9170 N   0  0  0  0  0  0  0  0  0  0  0  0
   58.7420   32.5270   49.6290 C   0  0  0  0  0  0  0  0  0  0  0  0
   58.5000   31.3060   49.4330 O   0  0  0  0  0  0  0  0  0  0  0  0
   59.2560   33.3450   48.5710 N   0  0  0  0  0  0  0  0  0  0  0  0
   58.7650   33.4080   47.2230 C   0  0  0  0  0  0  0  0  0  0  0  0
   58.9350   34.5510   46.4200 C   0  0  0  0  0  0  0  0  0  0  0  0
   58.4670   34.5590   45.1030 C   0  0  0  0  0  0  0  0  0  0  0  0
   57.8370   33.4310   44.5730 C   0  0  0  0  0  0  0  0  0  0  0  0
   57.6700   32.2790   45.3630 C   0  0  0  0  0  0  0  0  0  0  0  0
   57.0670   31.1160   44.8620 O   0  0  0  0  0  0  0  0  0  0  0  0
   57.4290   29.8070   45.2120 C   0  0  0  0  0  0  0  0  0  0  0  0
   58.7560   29.5530   45.5770 C   0  0  0  0  0  0  0  0  0  0  0  0
   59.1580   28.2610   45.9290 C   0  0  0  0  0  0  0  0  0  0  0  0
   58.2320   27.2100   45.9280 C   0  0  0  0  0  0  0  0  0  0  0  0
   58.7370   25.5870   46.3840 S   0  0  0  0  0  0  0  0  0  0  0  0
   58.0540   24.4110   45.2400 C   0  0  0  0  0  0  0  0  0  0  0  0
   60.2370   25.4950   46.3630 O   0  0  0  0  0  0  0  0  0  0  0  0
   58.2550   25.2760   47.7740 O   0  0  0  0  0  0  0  0  0  0  0  0
   56.8950   27.4670   45.5960 C   0  0  0  0  0  0  0  0  0  0  0  0
   56.4890   28.7590   45.2480 C   0  0  0  0  0  0  0  0  0  0  0  0
   55.1480   28.9990   44.9690 O   0  0  0  0  0  0  0  0  0  0  0  0
   58.1550   32.2710   46.6760 C   0  0  0  0  0  0  0  0  0  0  0  0
   57.1750   31.4030   52.0480 C   0  0  0  0  0  0  0  0  0  0  0  0
   53.7571   29.8595   53.1582 H   0  0  0  0  0  0  0  0  0  0  0  0
   54.6255   30.6881   51.8218 H   0  0  0  0  0  0  0  0  0  0  0  0
   54.4758   28.8981   51.8218 H   0  0  0  0  0  0  0  0  0  0  0  0
   57.2185   30.3534   55.3042 H   0  0  0  0  0  0  0  0  0  0  0  0
   58.9875   32.1010   55.4244 H   0  0  0  0  0  0  0  0  0  0  0  0
   59.6062   33.4030   53.3906 H   0  0  0  0  0  0  0  0  0  0  0  0
   58.5000   34.1590   50.9710 H   0  0  0  0  0  0  0  0  0  0  0  0
   59.4372   35.4399   46.8295 H   0  0  0  0  0  0  0  0  0  0  0  0
   58.5954   35.4574   44.4815 H   0  0  0  0  0  0  0  0  0  0  0  0
   57.4707   33.4433   43.5359 H   0  0  0  0  0  0  0  0  0  0  0  0
   59.4871   30.3748   45.5870 H   0  0  0  0  0  0  0  0  0  0  0  0
   60.2047   28.0693   46.2076 H   0  0  0  0  0  0  0  0  0  0  0  0
   57.5778   23.5911   45.7976 H   0  0  0  0  0  0  0  0  0  0  0  0
   57.3041   24.9081   44.6071 H   0  0  0  0  0  0  0  0  0  0  0  0
   58.8574   24.0059   44.6071 H   0  0  0  0  0  0  0  0  0  0  0  0
   56.1609   26.6479   45.6092 H   0  0  0  0  0  0  0  0  0  0  0  0
   58.0561   31.3610   47.2860 H   0  0  0  0  0  0  0  0  0  0  0  0
   56.6505   31.2167   51.0992 H   0  0  0  0  0  0  0  0  0  0  0  0
  1  2  1  0
  2  3  1  0
  3  4  2  0
  4  5  1  0
  5  6  2  0
  6  7  1  0
  7  8  1  0
  8  9  1  0
  9 10  2  0
  9 11  1  0
 11 12  1  0
 12 13  2  0
 13 14  1  0
 14 15  2  0
 15 16  1  0
 16 17  1  0
 17 18  1  0
 18 19  2  0
 19 20  1  0
 20 21  2  0
 21 22  1  0
 22 23  1  0
 22 24  2  0
 22 25  2  0
 21 26  1  0
 26 27  2  0
 27 28  1  0
 16 29  2  0
  7 30  2  0
 30  3  1  0
 29 12  1  0
 27 18  1  0
  1 31  1  0
  1 32  1  0
  1 33  1  0
  4 34  1  0
  5 35  1  0
  6 36  1  0
  8 37  1  0
 13 38  1  0
 14 39  1  0
 15 40  1  0
 19 41  1  0
 20 42  1  0
 23 43  1  0
 23 44  1  0
 23 45  1  0
 26 46  1  0
 29 47  1  0
 30 48  1  0
M  CHG  2  11  -1  28  -1
M  END
>  <UniqueID>  (64) 
62

>  <SMILES>  (64) 
COc1cccc(NC(=O)[N-]c2cccc(Oc3ccc(S(C)(=O)=O)cc3[O-])c2)c1

>  <Energy>  (64) 
61.90504948161489

>  <Genealogy>  (64) 
COc1cccc(NC(=O)[N-]c2cccc(Oc3ccc(S(C)(=O)=O)cc3[O-])c2)c1 (protonated)
COc1cccc(NC(=O)[N-]c2cccc(Oc3ccc(S(C)(=O)=O)cc3[O-])c2)c1 (3D coordinates assigned)
COc1cccc(NC(=O)[N-]c2cccc(Oc3ccc(S(C)(=O)=O)cc3[O-])c2)c1 (optimized conformer: 61.90504948161489 kcal/mol)

>  <smiles>  (64) 
COc1cccc(NC(=O)Nc2cccc(Oc3ccc(S(C)(=O)=O)cc3O)c2)c1

>  <score_type>  (64) 
oracle

>  <origin>  (64) 
adg

>  <m_score__min__energy>  (64) 
-13.5

>  <m_primary>  (64) 
energy

$$$$
65:0
     RDKit          3D

 22 23  0  0  0  0  0  0  0  0999 V2000
   59.2700   26.6660   44.9290 O   0  0  0  0  0  0  0  0  0  0  0  0
   58.6840   27.7640   44.7450 C   0  0  0  0  0  0  0  0  0  0  0  0
   57.2930   27.9000   44.4980 N   0  0  0  0  0  0  0  0  0  0  0  0
   57.0840   29.3110   44.3880 C   0  0  0  0  0  0  0  0  0  0  0  0
   55.5880   29.9770   44.4120 S   0  0  0  0  0  0  0  0  0  0  0  0
   58.2990   30.0650   44.5280 N   0  0  0  0  0  0  0  0  0  0  0  0
   58.4080   31.4670   44.8130 C   0  0  0  0  0  0  0  0  0  0  0  0
   58.7370   31.8790   46.1140 C   0  0  0  0  0  0  0  0  0  0  0  0
   58.7800   33.2360   46.4420 C   0  0  0  0  0  0  0  0  0  0  0  0
   59.1820   33.7320   48.0750 Cl  0  0  0  0  0  0  0  0  0  0  0  0
   58.4900   34.1960   45.4710 C   0  0  0  0  0  0  0  0  0  0  0  0
   58.1700   33.8020   44.1700 C   0  0  0  0  0  0  0  0  0  0  0  0
   58.1370   32.4400   43.8190 C   0  0  0  0  0  0  0  0  0  0  0  0
   57.8620   32.0630   42.4570 N   0  0  0  0  0  0  0  0  0  0  0  0
   56.9640   31.2350   42.2010 O   0  0  0  0  0  0  0  0  0  0  0  0
   58.4890   32.7010   41.4100 O   0  0  0  0  0  0  0  0  0  0  0  0
   59.2960   29.0770   44.7780 C   0  0  0  0  0  0  0  0  0  0  0  0
   60.5110   29.3240   45.0000 O   0  0  0  0  0  0  0  0  0  0  0  0
   56.5700   27.1470   44.5100 H   0  0  0  0  0  0  0  0  0  0  0  0
   58.9632   31.1256   46.8829 H   0  0  0  0  0  0  0  0  0  0  0  0
   58.5136   35.2646   45.7310 H   0  0  0  0  0  0  0  0  0  0  0  0
   57.9412   34.5649   43.4113 H   0  0  0  0  0  0  0  0  0  0  0  0
  1  2  2  0
  2  3  1  0
  3  4  1  0
  4  5  2  0
  4  6  1  0
  6  7  1  0
  7  8  2  0
  8  9  1  0
  9 10  1  0
  9 11  2  0
 11 12  1  0
 12 13  2  0
 13 14  1  0
 14 15  2  0
 14 16  1  0
  6 17  1  0
 17 18  2  0
 17  2  1  0
 13  7  1  0
  3 19  1  0
  8 20  1  0
 11 21  1  0
 12 22  1  0
M  CHG  2  14   1  16  -1
M  END
>  <UniqueID>  (65) 
63

>  <SMILES>  (65) 
O=C1NC(=S)N(c2cc(Cl)ccc2[N+](=O)[O-])C1=O

>  <Energy>  (65) 
61.62096025340621

>  <Genealogy>  (65) 
O=C1NC(=S)N(c2cc(Cl)ccc2[N+](=O)[O-])C1=O (3D coordinates assigned)
O=C1NC(=S)N(c2cc(Cl)ccc2[N+](=O)[O-])C1=O (nonaromatic ring conformer: 61.62096025340621 kcal/mol)

>  <smiles>  (65) 
O=C1NC(=S)N(c2cc(Cl)ccc2[N+](=O)[O-])C1=O

>  <score_type>  (65) 
oracle

>  <origin>  (65) 
adg

>  <m_score__min__energy>  (65) 
-6.54

>  <m_primary>  (65) 
energy

$$$$
66:0
     RDKit          3D

 40 42  0  0  0  0  0  0  0  0999 V2000
   60.5300   29.2810   45.3010 C   0  0  0  0  0  0  0  0  0  0  0  0
   59.0880   29.2600   45.0840 N   0  0  0  0  0  0  0  0  0  0  0  0
   58.3980   28.1400   44.9270 C   0  0  0  0  0  0  0  0  0  0  0  0
   59.0020   27.0380   44.9640 O   0  0  0  0  0  0  0  0  0  0  0  0
   57.0520   28.1180   44.7240 N   0  0  0  0  0  0  0  0  0  0  0  0
   56.3860   29.2920   44.6800 C   0  0  0  0  0  0  0  0  0  0  0  0
   55.1390   29.3150   44.4950 O   0  0  0  0  0  0  0  0  0  0  0  0
   57.0660   30.4840   44.8390 C   0  0  0  0  0  0  0  0  0  0  0  0
   56.7200   31.7820   44.8490 N   0  0  0  0  0  0  0  0  0  0  0  0
   57.8090   32.5580   45.0500 C   0  0  0  0  0  0  0  0  0  0  0  0
   57.8260   34.0640   45.1250 C   0  0  0  0  0  0  0  0  0  0  0  0
   59.2600   34.4820   45.0570 C   0  0  0  0  0  0  0  0  0  0  0  0
   59.6250   35.2730   46.2850 C   0  0  0  0  0  0  0  0  0  0  0  0
   59.7840   34.3530   47.4540 C   0  0  0  0  0  0  0  0  0  0  0  0
   60.9750   33.5030   47.4280 C   0  0  0  0  0  0  0  0  0  0  0  0
   60.8580   32.1880   47.8980 C   0  0  0  0  0  0  0  0  0  0  0  0
   61.9320   31.3230   47.9050 C   0  0  0  0  0  0  0  0  0  0  0  0
   63.1700   31.7160   47.4470 C   0  0  0  0  0  0  0  0  0  0  0  0
   63.3060   32.9990   46.9840 C   0  0  0  0  0  0  0  0  0  0  0  0
   62.2200   33.8640   46.9800 C   0  0  0  0  0  0  0  0  0  0  0  0
   58.8520   31.7150   45.1660 N   0  0  0  0  0  0  0  0  0  0  0  0
   58.4180   30.4420   45.0410 C   0  0  0  0  0  0  0  0  0  0  0  0
   60.7382   29.2840   46.3811 H   0  0  0  0  0  0  0  0  0  0  0  0
   60.9828   28.3894   44.8428 H   0  0  0  0  0  0  0  0  0  0  0  0
   60.9566   30.1855   44.8428 H   0  0  0  0  0  0  0  0  0  0  0  0
   56.5570   27.1970   44.6050 H   0  0  0  0  0  0  0  0  0  0  0  0
   57.2660   34.4919   44.2804 H   0  0  0  0  0  0  0  0  0  0  0  0
   57.3542   34.4190   46.0531 H   0  0  0  0  0  0  0  0  0  0  0  0
   59.8976   33.5876   44.9970 H   0  0  0  0  0  0  0  0  0  0  0  0
   59.4114   35.1088   44.1658 H   0  0  0  0  0  0  0  0  0  0  0  0
   60.5713   35.8052   46.1082 H   0  0  0  0  0  0  0  0  0  0  0  0
   58.8258   35.9975   46.5001 H   0  0  0  0  0  0  0  0  0  0  0  0
   59.8255   34.9671   48.3657 H   0  0  0  0  0  0  0  0  0  0  0  0
   58.9233   33.6689   47.4198 H   0  0  0  0  0  0  0  0  0  0  0  0
   59.8846   31.8368   48.2709 H   0  0  0  0  0  0  0  0  0  0  0  0
   61.7973   30.2991   48.2838 H   0  0  0  0  0  0  0  0  0  0  0  0
   64.0232   31.0218   47.4526 H   0  0  0  0  0  0  0  0  0  0  0  0
   64.2819   33.3455   46.6132 H   0  0  0  0  0  0  0  0  0  0  0  0
   62.3648   34.8861   46.6000 H   0  0  0  0  0  0  0  0  0  0  0  0
   59.8350   32.0600   45.3290 H   0  0  0  0  0  0  0  0  0  0  0  0
  1  2  1  0
  2  3  1  0
  3  4  2  0
  3  5  1  0
  5  6  1  0
  6  7  2  0
  6  8  1  0
  8  9  1  0
  9 10  2  0
 10 11  1  0
 11 12  1  0
 12 13  1  0
 13 14  1  0
 14 15  1  0
 15 16  2  0
 16 17  1  0
 17 18  2  0
 18 19  1  0
 19 20  2  0
 10 21  1  0
 21 22  1  0
 22  2  1  0
 22  8  2  0
 20 15  1  0
  1 23  1  0
  1 24  1  0
  1 25  1  0
  5 26  1  0
 11 27  1  0
 11 28  1  0
 12 29  1  0
 12 30  1  0
 13 31  1  0
 13 32  1  0
 14 33  1  0
 14 34  1  0
 16 35  1  0
 17 36  1  0
 18 37  1  0
 19 38  1  0
 20 39  1  0
 21 40  1  0
M  END
>  <smiles>  (66) 
Cn1c(=O)[nH]c(=O)c2nc(CCCCc3ccccc3)[nH]c21

>  <score_type>  (66) 
oracle

>  <origin>  (66) 
adg

>  <m_score__min__energy>  (66) 
-8.2899999999999991

>  <m_primary>  (66) 
energy

$$$$
67:0
     RDKit          3D

 42 44  0  0  0  0  0  0  0  0999 V2000
   56.8835   21.3124   42.6459 H   0  0  0  0  0  0  0  0  0  0  0  0
   56.5120   22.1370   43.2720 C   0  0  0  0  0  0  0  0  0  0  0  0
   55.5620   21.9000   44.2120 N   0  0  0  0  0  0  0  0  0  0  0  0
   55.0550   22.8870   45.0050 C   0  0  0  0  0  0  0  0  0  0  0  0
   54.1800   22.6050   45.9290 N   0  0  0  0  0  0  0  0  0  0  0  0
   54.4340   22.3390   47.3190 C   0  0  0  0  0  0  0  0  0  0  0  0
   53.3930   22.1530   48.2480 C   0  0  0  0  0  0  0  0  0  0  0  0
   52.3462   22.1783   47.9110 H   0  0  0  0  0  0  0  0  0  0  0  0
   53.6860   21.9360   49.5990 C   0  0  0  0  0  0  0  0  0  0  0  0
   52.8702   21.7755   50.3192 H   0  0  0  0  0  0  0  0  0  0  0  0
   55.0130   21.9230   50.0340 C   0  0  0  0  0  0  0  0  0  0  0  0
   55.2419   21.7433   51.0948 H   0  0  0  0  0  0  0  0  0  0  0  0
   56.0500   22.1380   49.1230 C   0  0  0  0  0  0  0  0  0  0  0  0
   57.0944   22.1351   49.4683 H   0  0  0  0  0  0  0  0  0  0  0  0
   55.7610   22.3570   47.7720 C   0  0  0  0  0  0  0  0  0  0  0  0
   56.5792   22.5444   47.0610 H   0  0  0  0  0  0  0  0  0  0  0  0
   55.5390   24.2120   44.8620 C   0  0  0  0  0  0  0  0  0  0  0  0
   55.0430   25.3400   45.6970 C   0  0  0  0  0  0  0  0  0  0  0  0
   53.8360   25.6970   45.6130 O   0  0  0  0  0  0  0  0  0  0  0  0
   55.9080   25.9860   46.6400 N   0  0  0  0  0  0  0  0  0  0  0  0
   57.1300   26.6620   46.3180 C   0  0  0  0  0  0  0  0  0  0  0  0
   58.3410   26.0400   46.6440 C   0  0  0  0  0  0  0  0  0  0  0  0
   58.3337   25.0601   47.1438 H   0  0  0  0  0  0  0  0  0  0  0  0
   59.5580   26.6530   46.3400 C   0  0  0  0  0  0  0  0  0  0  0  0
   60.5041   26.1622   46.6118 H   0  0  0  0  0  0  0  0  0  0  0  0
   59.5740   27.8870   45.6920 C   0  0  0  0  0  0  0  0  0  0  0  0
   60.5331   28.3752   45.4644 H   0  0  0  0  0  0  0  0  0  0  0  0
   58.3740   28.5050   45.3310 C   0  0  0  0  0  0  0  0  0  0  0  0
   58.3938   29.4780   44.8182 H   0  0  0  0  0  0  0  0  0  0  0  0
   57.1380   27.8910   45.6190 C   0  0  0  0  0  0  0  0  0  0  0  0
   55.9130   28.4500   45.2140 O   0  0  0  0  0  0  0  0  0  0  0  0
   55.7450   29.6950   44.5360 C   0  0  0  0  0  0  0  0  0  0  0  0
   56.2615   30.4856   45.1001 H   0  0  0  0  0  0  0  0  0  0  0  0
   54.6697   29.9159   44.4650 H   0  0  0  0  0  0  0  0  0  0  0  0
   56.3240   29.6260   43.1280 C   0  0  0  0  0  0  0  0  0  0  0  0
   57.4148   29.4960   43.1860 H   0  0  0  0  0  0  0  0  0  0  0  0
   55.8813   28.7743   42.5908 H   0  0  0  0  0  0  0  0  0  0  0  0
   56.0939   30.5579   42.5908 H   0  0  0  0  0  0  0  0  0  0  0  0
   56.5340   24.4570   43.8980 C   0  0  0  0  0  0  0  0  0  0  0  0
   56.9345   25.4739   43.7735 H   0  0  0  0  0  0  0  0  0  0  0  0
   57.0160   23.4220   43.1000 C   0  0  0  0  0  0  0  0  0  0  0  0
   57.7877   23.6189   42.3412 H   0  0  0  0  0  0  0  0  0  0  0  0
  1  2  1  0
  2  3  1  0
  3  4  1  0
  4  5  2  0
  5  6  1  0
  6  7  2  0
  7  8  1  0
  7  9  1  0
  9 10  1  0
  9 11  2  0
 11 12  1  0
 11 13  1  0
 13 14  1  0
 13 15  2  0
 15 16  1  0
  4 17  1  0
 17 18  1  0
 18 19  2  0
 18 20  1  0
 20 21  1  0
 21 22  2  0
 22 23  1  0
 22 24  1  0
 24 25  1  0
 24 26  2  0
 26 27  1  0
 26 28  1  0
 28 29  1  0
 28 30  2  0
 30 31  1  0
 31 32  1  0
 32 33  1  0
 32 34  1  0
 32 35  1  0
 35 36  1  0
 35 37  1  0
 35 38  1  0
 17 39  2  0
 39 40  1  0
 39 41  1  0
 41 42  1  0
 41  2  2  0
 15  6  1  0
 30 21  1  0
M  CHG  2   3  -1  20  -1
M  END
>  <UniqueID>  (67) 
64

>  <SMILES>  (67) 
CCOc1ccccc1[N-]C(=O)c1ccc[n-]/c1=N\c1ccccc1

>  <Energy>  (67) 
58.42681654422481

>  <Genealogy>  (67) 
CCOc1ccccc1[N-]C(=O)c1ccc[n-]c1=Nc1ccccc1 (protonated)
CCOc1ccccc1[N-]C(=O)c1ccc[n-]/c1=N\c1ccccc1 (cis-trans isomerization)
CCOc1ccccc1[N-]C(=O)c1ccc[n-]/c1=N\c1ccccc1 (3D coordinates assigned)
CCOc1ccccc1[N-]C(=O)c1ccc[n-]/c1=N\c1ccccc1 (optimized conformer: 58.42681654422481 kcal/mol)

>  <smiles>  (67) 
CCOc1ccccc1NC(=O)c1ccc[nH]c1=Nc1ccccc1

>  <score_type>  (67) 
oracle

>  <origin>  (67) 
adg

>  <m_score__min__energy>  (67) 
-11.050000000000001

>  <m_primary>  (67) 
energy

$$$$
68:0
     RDKit          3D

 34 36  0  0  0  0  0  0  0  0999 V2000
   58.3090   29.7300   50.5610 O   0  0  0  0  0  0  0  0  0  0  0  0
   58.4480   29.5240   51.7960 C   0  0  0  0  0  0  0  0  0  0  0  0
   57.2920   29.2880   52.6810 C   0  0  0  0  0  0  0  0  0  0  0  0
   56.1320   29.9430   52.4010 N   0  0  0  0  0  0  0  0  0  0  0  0
   55.0010   29.8000   53.1470 C   0  0  0  0  0  0  0  0  0  0  0  0
   53.7800   30.5580   52.7690 C   0  0  0  0  0  0  0  0  0  0  0  0
   53.6470   31.0630   51.4610 C   0  0  0  0  0  0  0  0  0  0  0  0
   52.5020   31.7720   51.0860 C   0  0  0  0  0  0  0  0  0  0  0  0
   51.4730   31.9800   52.0070 C   0  0  0  0  0  0  0  0  0  0  0  0
   50.3360   32.6850   51.6320 O   0  0  0  0  0  0  0  0  0  0  0  0
   51.5870   31.4750   53.3040 C   0  0  0  0  0  0  0  0  0  0  0  0
   52.7300   30.7650   53.6850 C   0  0  0  0  0  0  0  0  0  0  0  0
   55.0290   28.9580   54.2690 C   0  0  0  0  0  0  0  0  0  0  0  0
   56.2000   28.2700   54.5840 C   0  0  0  0  0  0  0  0  0  0  0  0
   57.3440   28.4110   53.7830 C   0  0  0  0  0  0  0  0  0  0  0  0
   58.5370   27.7390   54.0980 O   0  0  0  0  0  0  0  0  0  0  0  0
   58.9440   26.5080   53.5640 C   0  0  0  0  0  0  0  0  0  0  0  0
   58.1480   25.3510   53.6650 C   0  0  0  0  0  0  0  0  0  0  0  0
   58.5820   24.1460   53.1040 C   0  0  0  0  0  0  0  0  0  0  0  0
   59.8050   24.0890   52.4290 C   0  0  0  0  0  0  0  0  0  0  0  0
   60.2250   22.9210   51.8840 F   0  0  0  0  0  0  0  0  0  0  0  0
   60.5910   25.2390   52.3090 C   0  0  0  0  0  0  0  0  0  0  0  0
   60.1580   26.4450   52.8690 C   0  0  0  0  0  0  0  0  0  0  0  0
   59.4602   29.5200   52.2265 H   0  0  0  0  0  0  0  0  0  0  0  0
   54.4508   30.8982   50.7284 H   0  0  0  0  0  0  0  0  0  0  0  0
   52.4114   32.1669   50.0633 H   0  0  0  0  0  0  0  0  0  0  0  0
   50.7750   31.6362   54.0284 H   0  0  0  0  0  0  0  0  0  0  0  0
   52.8097   30.3655   54.7068 H   0  0  0  0  0  0  0  0  0  0  0  0
   54.1328   28.8414   54.8961 H   0  0  0  0  0  0  0  0  0  0  0  0
   56.2275   27.6127   55.4656 H   0  0  0  0  0  0  0  0  0  0  0  0
   57.1809   25.3952   54.1873 H   0  0  0  0  0  0  0  0  0  0  0  0
   57.9609   23.2425   53.1938 H   0  0  0  0  0  0  0  0  0  0  0  0
   61.5509   25.1951   51.7736 H   0  0  0  0  0  0  0  0  0  0  0  0
   60.7748   27.3496   52.7629 H   0  0  0  0  0  0  0  0  0  0  0  0
  1  2  2  0
  2  3  1  0
  3  4  2  0
  4  5  1  0
  5  6  1  0
  6  7  2  0
  7  8  1  0
  8  9  2  0
  9 10  1  0
  9 11  1  0
 11 12  2  0
  5 13  2  0
 13 14  1  0
 14 15  2  0
 15 16  1  0
 16 17  1  0
 17 18  2  0
 18 19  1  0
 19 20  2  0
 20 21  1  0
 20 22  1  0
 22 23  2  0
 15  3  1  0
 23 17  1  0
 12  6  1  0
  2 24  1  0
  7 25  1  0
  8 26  1  0
 11 27  1  0
 12 28  1  0
 13 29  1  0
 14 30  1  0
 18 31  1  0
 19 32  1  0
 22 33  1  0
 23 34  1  0
M  CHG  1  10  -1
M  END
>  <UniqueID>  (68) 
65

>  <SMILES>  (68) 
O=Cc1nc(-c2ccc([O-])cc2)ccc1Oc1ccc(F)cc1

>  <Energy>  (68) 
48.932874708091575

>  <Genealogy>  (68) 
O=Cc1nc(-c2ccc([O-])cc2)ccc1Oc1ccc(F)cc1 (protonated)
O=Cc1nc(-c2ccc([O-])cc2)ccc1Oc1ccc(F)cc1 (3D coordinates assigned)
O=Cc1nc(-c2ccc([O-])cc2)ccc1Oc1ccc(F)cc1 (optimized conformer: 48.932874708091575 kcal/mol)

>  <smiles>  (68) 
O=Cc1nc(-c2ccc(O)cc2)ccc1Oc1ccc(F)cc1

>  <score_type>  (68) 
oracle

>  <origin>  (68) 
adg

>  <m_score__min__energy>  (68) 
-9.1300000000000008

>  <m_primary>  (68) 
energy

$$$$
69:0
     RDKit          3D

 33 35  0  0  0  0  0  0  0  0999 V2000
   57.7300   20.3280   46.2420 C   0  0  0  0  0  0  0  0  0  0  0  0
   57.7450   21.5050   47.0420 O   0  0  0  0  0  0  0  0  0  0  0  0
   57.0050   22.6630   46.7590 C   0  0  0  0  0  0  0  0  0  0  0  0
   55.5990   22.6090   46.8980 C   0  0  0  0  0  0  0  0  0  0  0  0
   54.8030   23.7380   46.6370 C   0  0  0  0  0  0  0  0  0  0  0  0
   55.4390   24.9080   46.2320 C   0  0  0  0  0  0  0  0  0  0  0  0
   54.8490   26.0890   45.9610 N   0  0  0  0  0  0  0  0  0  0  0  0
   55.8820   26.9040   45.6380 C   0  0  0  0  0  0  0  0  0  0  0  0
   55.7120   28.2410   45.3040 O   0  0  0  0  0  0  0  0  0  0  0  0
   57.1060   26.2510   45.6920 C   0  0  0  0  0  0  0  0  0  0  0  0
   58.4660   26.8470   45.4780 C   0  0  0  0  0  0  0  0  0  0  0  0
   58.9730   27.4440   46.7580 C   0  0  0  0  0  0  0  0  0  0  0  0
   58.5390   28.7030   47.1800 C   0  0  0  0  0  0  0  0  0  0  0  0
   58.9950   29.2140   48.3960 C   0  0  0  0  0  0  0  0  0  0  0  0
   59.8780   28.4670   49.1970 C   0  0  0  0  0  0  0  0  0  0  0  0
   60.3560   29.0240   50.4890 C   0  0  0  0  0  0  0  0  0  0  0  0
   59.5620   29.1570   51.4580 O   0  0  0  0  0  0  0  0  0  0  0  0
   61.6810   29.4080   50.6570 O   0  0  0  0  0  0  0  0  0  0  0  0
   60.2810   27.1940   48.7330 C   0  0  0  0  0  0  0  0  0  0  0  0
   61.0650   26.4750   49.4070 O   0  0  0  0  0  0  0  0  0  0  0  0
   59.8180   26.7260   47.5440 N   0  0  0  0  0  0  0  0  0  0  0  0
   56.8020   24.9680   46.0880 C   0  0  0  0  0  0  0  0  0  0  0  0
   57.6210   23.8690   46.3430 C   0  0  0  0  0  0  0  0  0  0  0  0
   57.7187   19.4419   46.8936 H   0  0  0  0  0  0  0  0  0  0  0  0
   56.8318   20.3277   45.6070 H   0  0  0  0  0  0  0  0  0  0  0  0
   58.6279   20.3048   45.6070 H   0  0  0  0  0  0  0  0  0  0  0  0
   55.1212   21.6702   47.2149 H   0  0  0  0  0  0  0  0  0  0  0  0
   53.7095   23.6979   46.7496 H   0  0  0  0  0  0  0  0  0  0  0  0
   59.1592   26.0614   45.1430 H   0  0  0  0  0  0  0  0  0  0  0  0
   58.3980   27.6357   44.7142 H   0  0  0  0  0  0  0  0  0  0  0  0
   57.8436   29.2868   46.5590 H   0  0  0  0  0  0  0  0  0  0  0  0
   58.6618   30.2075   48.7304 H   0  0  0  0  0  0  0  0  0  0  0  0
   58.7126   23.9363   46.2248 H   0  0  0  0  0  0  0  0  0  0  0  0
  1  2  1  0
  2  3  1  0
  3  4  2  0
  4  5  1  0
  5  6  2  0
  6  7  1  0
  7  8  1  0
  8  9  1  0
  8 10  2  0
 10 11  1  0
 11 12  1  0
 12 13  2  0
 13 14  1  0
 14 15  2  0
 15 16  1  0
 16 17  2  0
 16 18  1  0
 15 19  1  0
 19 20  2  0
 19 21  1  0
 10 22  1  0
 22 23  2  0
 23  3  1  0
 22  6  1  0
 21 12  1  0
  1 24  1  0
  1 25  1  0
  1 26  1  0
  4 27  1  0
  5 28  1  0
 11 29  1  0
 11 30  1  0
 13 31  1  0
 14 32  1  0
 23 33  1  0
M  CHG  4   7  -1   9  -1  18  -1  21  -1
M  END
>  <UniqueID>  (69) 
66

>  <SMILES>  (69) 
COc1ccc2[n-]c([O-])c(Cc3ccc(C(=O)[O-])c(=O)[n-]3)c2c1

>  <Energy>  (69) 
68.38805152371434

>  <Genealogy>  (69) 
COc1ccc2[n-]c([O-])c(Cc3ccc(C(=O)[O-])c(=O)[n-]3)c2c1 (protonated)
COc1ccc2[n-]c([O-])c(Cc3ccc(C(=O)[O-])c(=O)[n-]3)c2c1 (3D coordinates assigned)
COc1ccc2[n-]c([O-])c(Cc3ccc(C(=O)[O-])c(=O)[n-]3)c2c1 (optimized conformer: 68.38805152371434 kcal/mol)

>  <smiles>  (69) 
COc1ccc2[nH]c(O)c(Cc3ccc(C(=O)O)c(=O)[nH]3)c2c1

>  <score_type>  (69) 
oracle

>  <origin>  (69) 
adg

>  <m_score__min__energy>  (69) 
-15.5

>  <m_primary>  (69) 
energy

$$$$
70:0
     RDKit          3D

 53 55  0  0  0  0  0  0  0  0999 V2000
   53.7850   30.8240   51.5980 C   0  0  0  0  0  0  0  0  0  0  0  0
   54.8970   30.3190   52.1290 C   0  0  0  0  0  0  0  0  0  0  0  0
   56.2130   30.9630   51.9780 C   0  0  0  0  0  0  0  0  0  0  0  0
   56.3650   32.1520   52.3740 O   0  0  0  0  0  0  0  0  0  0  0  0
   57.3160   30.2490   51.3990 N   0  0  0  0  0  0  0  0  0  0  0  0
   58.7120   30.6470   51.5560 C   0  0  0  0  0  0  0  0  0  0  0  0
   59.0580   31.7380   50.5800 C   0  0  0  0  0  0  0  0  0  0  0  0
   59.8870   32.7950   50.9800 C   0  0  0  0  0  0  0  0  0  0  0  0
   60.1770   33.8310   50.0930 C   0  0  0  0  0  0  0  0  0  0  0  0
   59.6420   33.8260   48.8030 C   0  0  0  0  0  0  0  0  0  0  0  0
   58.8060   32.7760   48.3760 C   0  0  0  0  0  0  0  0  0  0  0  0
   58.2640   32.7810   46.9890 C   0  0  0  0  0  0  0  0  0  0  0  0
   58.1610   33.9180   46.1770 C   0  0  0  0  0  0  0  0  0  0  0  0
   57.4720   33.4640   44.7110 S   0  0  0  0  0  0  0  0  0  0  0  0
   57.3410   31.8560   45.1580 C   0  0  0  0  0  0  0  0  0  0  0  0
   56.8350   30.9370   44.3890 N   0  0  0  0  0  0  0  0  0  0  0  0
   56.3910   29.6360   44.8070 C   0  0  0  0  0  0  0  0  0  0  0  0
   55.1620   29.3620   44.8660 O   0  0  0  0  0  0  0  0  0  0  0  0
   57.4270   28.5980   45.1510 C   0  0  2  0  0  0  0  0  0  0  0  0
   57.7830   27.7400   43.9320 C   0  0  0  0  0  0  0  0  0  0  0  0
   57.0220   27.7630   46.2870 N   0  0  0  0  0  0  0  0  0  0  0  0
   56.4370   26.4560   46.2160 C   0  0  0  0  0  0  0  0  0  0  0  0
   55.2050   26.3130   45.9890 O   0  0  0  0  0  0  0  0  0  0  0  0
   57.2930   25.2520   46.4530 C   0  0  0  0  0  0  0  0  0  0  0  0
   57.0790   24.2230   45.3740 C   0  0  0  0  0  0  0  0  0  0  0  0
   56.6170   24.6080   44.1030 C   0  0  0  0  0  0  0  0  0  0  0  0
   56.4460   23.6530   43.0950 C   0  0  0  0  0  0  0  0  0  0  0  0
   56.7440   22.3090   43.3440 C   0  0  0  0  0  0  0  0  0  0  0  0
   57.2140   21.9190   44.6020 C   0  0  0  0  0  0  0  0  0  0  0  0
   57.3830   22.8710   45.6140 C   0  0  0  0  0  0  0  0  0  0  0  0
   57.8070   31.6370   46.4060 N   0  0  0  0  0  0  0  0  0  0  0  0
   58.5170   31.7340   49.2810 C   0  0  0  0  0  0  0  0  0  0  0  0
   52.8245   30.3065   51.7380 H   0  0  0  0  0  0  0  0  0  0  0  0
   53.8270   31.7586   51.0194 H   0  0  0  0  0  0  0  0  0  0  0  0
   54.8300   29.3833   52.7035 H   0  0  0  0  0  0  0  0  0  0  0  0
   58.8716   31.0132   52.5809 H   0  0  0  0  0  0  0  0  0  0  0  0
   59.3557   29.7764   51.3617 H   0  0  0  0  0  0  0  0  0  0  0  0
   60.3096   32.8073   51.9955 H   0  0  0  0  0  0  0  0  0  0  0  0
   60.8306   34.6566   50.4110 H   0  0  0  0  0  0  0  0  0  0  0  0
   59.8759   34.6505   48.1134 H   0  0  0  0  0  0  0  0  0  0  0  0
   58.4771   34.9352   46.4515 H   0  0  0  0  0  0  0  0  0  0  0  0
   58.3318   29.1422   45.4594 H   0  0  0  0  0  0  0  0  0  0  0  0
   58.1843   26.7728   44.2690 H   0  0  0  0  0  0  0  0  0  0  0  0
   56.8805   27.5715   43.3261 H   0  0  0  0  0  0  0  0  0  0  0  0
   58.5397   28.2599   43.3261 H   0  0  0  0  0  0  0  0  0  0  0  0
   58.3501   25.5561   46.4568 H   0  0  0  0  0  0  0  0  0  0  0  0
   57.0185   24.8094   47.4219 H   0  0  0  0  0  0  0  0  0  0  0  0
   56.3890   25.6648   43.9003 H   0  0  0  0  0  0  0  0  0  0  0  0
   56.0767   23.9594   42.1052 H   0  0  0  0  0  0  0  0  0  0  0  0
   56.6087   21.5593   42.5505 H   0  0  0  0  0  0  0  0  0  0  0  0
   57.4512   20.8626   44.7965 H   0  0  0  0  0  0  0  0  0  0  0  0
   57.7552   22.5604   46.6014 H   0  0  0  0  0  0  0  0  0  0  0  0
   57.8610   30.9084   48.9679 H   0  0  0  0  0  0  0  0  0  0  0  0
  1  2  2  0
  2  3  1  0
  3  4  2  0
  3  5  1  0
  5  6  1  0
  6  7  1  0
  7  8  2  0
  8  9  1  0
  9 10  2  0
 10 11  1  0
 11 12  1  0
 12 13  2  0
 13 14  1  0
 14 15  1  0
 15 16  2  3
 16 17  1  0
 17 18  2  0
 17 19  1  0
 19 20  1  0
 19 21  1  0
 21 22  1  0
 22 23  2  0
 22 24  1  0
 24 25  1  0
 25 26  2  0
 26 27  1  0
 27 28  2  0
 28 29  1  0
 29 30  2  0
 15 31  1  0
 11 32  2  0
 32  7  1  0
 31 12  1  0
 30 25  1  0
  1 33  1  0
  1 34  1  0
  2 35  1  0
  6 36  1  0
  6 37  1  0
  8 38  1  0
  9 39  1  0
 10 40  1  0
 13 41  1  0
 19 42  1  1
 20 43  1  0
 20 44  1  0
 20 45  1  0
 24 46  1  0
 24 47  1  0
 26 48  1  0
 27 49  1  0
 28 50  1  0
 29 51  1  0
 30 52  1  0
 32 53  1  0
M  CHG  3   5  -1  21  -1  31  -1
M  END
>  <UniqueID>  (70) 
67

>  <SMILES>  (70) 
C=CC(=O)[N-]Cc1cccc(-c2csc(=NC(=O)[C@H](C)[N-]C(=O)Cc3ccccc3)[n-]2)c1

>  <Energy>  (70) 
81.36493626218264

>  <Genealogy>  (70) 
C=CC(=O)[N-]Cc1cccc(-c2csc(=NC(=O)C(C)[N-]C(=O)Cc3ccccc3)[n-]2)c1 (protonated)
C=CC(=O)[N-]Cc1cccc(-c2csc(=NC(=O)[C@H](C)[N-]C(=O)Cc3ccccc3)[n-]2)c1 (chirality)
C=CC(=O)[N-]Cc1cccc(-c2csc(=NC(=O)[C@H](C)[N-]C(=O)Cc3ccccc3)[n-]2)c1 (3D coordinates assigned)
C=CC(=O)[N-]Cc1cccc(-c2csc(=NC(=O)[C@H](C)[N-]C(=O)Cc3ccccc3)[n-]2)c1 (optimized conformer: 81.36493626218264 kcal/mol)

>  <smiles>  (70) 
C=CC(=O)NCc1cccc(-c2csc(=NC(=O)C(C)NC(=O)Cc3ccccc3)[nH]2)c1

>  <score_type>  (70) 
oracle

>  <origin>  (70) 
adg

>  <m_score__min__energy>  (70) 
-14.130000000000001

>  <m_primary>  (70) 
energy

$$$$
71:0
     RDKit          3D

 50 52  0  0  0  0  0  0  0  0999 V2000
   55.6330   30.3050   44.6610 O   0  0  0  0  0  0  0  0  0  0  0  0
   56.5490   30.8590   43.9980 C   0  0  0  0  0  0  0  0  0  0  0  0
   56.7630   30.4630   42.6820 O   0  0  0  0  0  0  0  0  0  0  0  0
   57.3900   31.9130   44.6080 C   0  0  0  0  0  0  0  0  0  0  0  0
   57.3970   32.0970   46.0020 C   0  0  0  0  0  0  0  0  0  0  0  0
   58.1900   33.0920   46.5810 C   0  0  0  0  0  0  0  0  0  0  0  0
   58.9830   33.9230   45.7770 C   0  0  0  0  0  0  0  0  0  0  0  0
   59.8670   34.9710   46.3920 C   0  0  0  0  0  0  0  0  0  0  0  0
   61.2520   34.5200   46.3650 N   0  0  0  0  0  0  0  0  0  0  0  0
   61.7610   33.4610   47.1830 C   0  0  0  0  0  0  0  0  0  0  0  0
   62.9480   33.0600   47.0310 O   0  0  0  0  0  0  0  0  0  0  0  0
   60.8850   32.8160   48.1830 C   0  0  0  0  0  0  0  0  0  0  0  0
   60.4810   33.5400   49.3190 C   0  0  0  0  0  0  0  0  0  0  0  0
   59.6950   32.9350   50.3020 C   0  0  0  0  0  0  0  0  0  0  0  0
   59.2150   33.8430   51.7240 Cl  0  0  0  0  0  0  0  0  0  0  0  0
   59.2950   31.6060   50.1550 C   0  0  0  0  0  0  0  0  0  0  0  0
   59.6680   30.8810   49.0220 C   0  0  0  0  0  0  0  0  0  0  0  0
   60.4620   31.4780   48.0220 C   0  0  0  0  0  0  0  0  0  0  0  0
   60.8050   30.7970   46.8400 O   0  0  0  0  0  0  0  0  0  0  0  0
   60.5830   29.4150   46.5550 C   0  0  0  0  0  0  0  0  0  0  0  0
   59.1930   29.2020   45.9230 C   0  0  2  0  0  0  0  0  0  0  0  0
   58.5630   27.8630   46.3860 C   0  0  0  0  0  0  0  0  0  0  0  0
   58.8000   26.7470   45.3660 C   0  0  0  0  0  0  0  0  0  0  0  0
   58.2260   27.1160   43.9810 C   0  0  0  0  0  0  0  0  0  0  0  0
   58.1290   28.5740   43.7590 N   0  0  0  0  0  0  0  0  0  0  0  0
   59.2480   29.3010   44.3750 C   0  0  0  0  0  0  0  0  0  0  0  0
   58.9860   33.7360   44.3860 C   0  0  0  0  0  0  0  0  0  0  0  0
   58.1950   32.7420   43.8060 C   0  0  0  0  0  0  0  0  0  0  0  0
   56.7743   31.4537   46.6411 H   0  0  0  0  0  0  0  0  0  0  0  0
   58.1919   33.2237   47.6731 H   0  0  0  0  0  0  0  0  0  0  0  0
   59.7758   35.9073   45.8219 H   0  0  0  0  0  0  0  0  0  0  0  0
   59.5592   35.1426   47.4340 H   0  0  0  0  0  0  0  0  0  0  0  0
   60.7864   34.5905   49.4341 H   0  0  0  0  0  0  0  0  0  0  0  0
   58.6837   31.1282   50.9347 H   0  0  0  0  0  0  0  0  0  0  0  0
   59.3402   29.8371   48.9088 H   0  0  0  0  0  0  0  0  0  0  0  0
   61.3550   29.0627   45.8551 H   0  0  0  0  0  0  0  0  0  0  0  0
   60.6323   28.8488   47.4968 H   0  0  0  0  0  0  0  0  0  0  0  0
   58.5414   30.0143   46.2776 H   0  0  0  0  0  0  0  0  0  0  0  0
   59.0123   27.5702   47.3464 H   0  0  0  0  0  0  0  0  0  0  0  0
   57.4778   28.0105   46.4890 H   0  0  0  0  0  0  0  0  0  0  0  0
   59.8821   26.5741   45.2701 H   0  0  0  0  0  0  0  0  0  0  0  0
   58.2889   25.8401   45.7213 H   0  0  0  0  0  0  0  0  0  0  0  0
   58.8793   26.6874   43.2067 H   0  0  0  0  0  0  0  0  0  0  0  0
   57.2049   26.7099   43.9323 H   0  0  0  0  0  0  0  0  0  0  0  0
   58.1330   28.7600   42.7280 H   0  0  0  0  0  0  0  0  0  0  0  0
   57.2230   28.9340   44.1450 H   0  0  0  0  0  0  0  0  0  0  0  0
   60.1956   28.8692   44.0207 H   0  0  0  0  0  0  0  0  0  0  0  0
   59.1759   30.3609   44.0896 H   0  0  0  0  0  0  0  0  0  0  0  0
   59.6147   34.3758   43.7493 H   0  0  0  0  0  0  0  0  0  0  0  0
   58.2015   32.6064   42.7144 H   0  0  0  0  0  0  0  0  0  0  0  0
  1  2  2  0
  2  3  1  0
  2  4  1  0
  4  5  2  0
  5  6  1  0
  6  7  2  0
  7  8  1  0
  8  9  1  0
  9 10  1  0
 10 11  2  0
 10 12  1  0
 12 13  2  0
 13 14  1  0
 14 15  1  0
 14 16  2  0
 16 17  1  0
 17 18  2  0
 18 19  1  0
 19 20  1  0
 20 21  1  0
 21 22  1  0
 22 23  1  0
 23 24  1  0
 24 25  1  0
 25 26  1  0
  7 27  1  0
 27 28  2  0
 28  4  1  0
 18 12  1  0
 26 21  1  0
  5 29  1  0
  6 30  1  0
  8 31  1  0
  8 32  1  0
 13 33  1  0
 16 34  1  0
 17 35  1  0
 20 36  1  0
 20 37  1  0
 21 38  1  1
 22 39  1  0
 22 40  1  0
 23 41  1  0
 23 42  1  0
 24 43  1  0
 24 44  1  0
 25 45  1  0
 25 46  1  0
 26 47  1  0
 26 48  1  0
 27 49  1  0
 28 50  1  0
M  CHG  3   3  -1   9  -1  25   1
M  END
>  <UniqueID>  (71) 
68

>  <SMILES>  (71) 
O=C([O-])c1ccc(C[N-]C(=O)c2cc(Cl)ccc2OC[C@@H]2CCC[NH2+]C2)cc1

>  <Energy>  (71) 
57.44265813189826

>  <Genealogy>  (71) 
O=C([O-])c1ccc(C[N-]C(=O)c2cc(Cl)ccc2OCC2CCC[NH2+]C2)cc1 (protonated)
O=C([O-])c1ccc(C[N-]C(=O)c2cc(Cl)ccc2OC[C@@H]2CCC[NH2+]C2)cc1 (chirality)
O=C([O-])c1ccc(C[N-]C(=O)c2cc(Cl)ccc2OC[C@@H]2CCC[NH2+]C2)cc1 (3D coordinates assigned)
O=C([O-])c1ccc(C[N-]C(=O)c2cc(Cl)ccc2OC[C@@H]2CCC[NH2+]C2)cc1 (nonaromatic ring conformer: 57.44265813189826 kcal/mol)

>  <smiles>  (71) 
O=C(O)c1ccc(CNC(=O)c2cc(Cl)ccc2OCC2CCCNC2)cc1

>  <score_type>  (71) 
oracle

>  <origin>  (71) 
adg

>  <m_score__min__energy>  (71) 
-11.25

>  <m_primary>  (71) 
energy

$$$$
72:0
     RDKit          3D

 54 57  0  0  0  0  0  0  0  0999 V2000
   54.7070   26.3440   45.9870 O   0  0  0  0  0  0  0  0  0  0  0  0
   55.9150   26.1660   46.2940 C   0  0  0  0  0  0  0  0  0  0  0  0
   56.2470   25.1970   47.2320 O   0  0  0  0  0  0  0  0  0  0  0  0
   56.9740   26.9710   45.6640 C   0  0  0  0  0  0  0  0  0  0  0  0
   56.8410   28.2220   45.5990 O   0  0  0  0  0  0  0  0  0  0  0  0
   58.2330   26.3350   45.1370 C   0  0  0  0  0  0  0  0  0  0  0  0
   59.4130   26.5310   46.0610 C   0  0  0  0  0  0  0  0  0  0  0  0
   60.2040   25.5690   46.2690 O   0  0  0  0  0  0  0  0  0  0  0  0
   59.6710   27.8390   46.7210 C   0  0  0  0  0  0  0  0  0  0  0  0
   59.2290   28.1020   48.0330 C   0  0  0  0  0  0  0  0  0  0  0  0
   59.4870   29.3350   48.6370 C   0  0  0  0  0  0  0  0  0  0  0  0
   60.1990   30.3290   47.9520 C   0  0  0  0  0  0  0  0  0  0  0  0
   60.4980   31.6450   48.6190 C   0  0  0  0  0  0  0  0  0  0  0  0
   60.4110   32.7460   47.6520 N   0  0  0  0  0  0  0  0  0  0  0  0
   61.3630   33.6780   47.3500 C   0  0  0  0  0  0  0  0  0  0  0  0
   62.7270   33.7630   48.0020 C   0  0  0  0  0  0  0  0  0  0  0  0
   62.6550   34.4430   49.3990 C   0  0  0  0  0  0  0  0  0  0  0  0
   62.8330   33.4490   50.5550 C   0  0  0  0  0  0  0  0  0  0  0  0
   64.1640   32.6800   50.4490 C   0  0  0  0  0  0  0  0  0  0  0  0
   64.5740   32.3480   48.9980 C   0  0  0  0  0  0  0  0  0  0  0  0
   63.3760   32.3610   48.0450 C   0  0  0  0  0  0  0  0  0  0  0  0
   60.9190   34.5970   46.4550 N   0  0  0  0  0  0  0  0  0  0  0  0
   59.6570   34.2280   46.1910 C   0  0  0  0  0  0  0  0  0  0  0  0
   58.7400   34.8530   45.3500 C   0  0  0  0  0  0  0  0  0  0  0  0
   57.4510   34.2950   45.2570 C   0  0  0  0  0  0  0  0  0  0  0  0
   56.5240   34.8680   44.4530 F   0  0  0  0  0  0  0  0  0  0  0  0
   57.1170   33.1440   46.0060 C   0  0  0  0  0  0  0  0  0  0  0  0
   58.0670   32.5390   46.8510 C   0  0  0  0  0  0  0  0  0  0  0  0
   59.3410   33.1120   46.9130 C   0  0  0  0  0  0  0  0  0  0  0  0
   60.6260   30.0810   46.6390 C   0  0  0  0  0  0  0  0  0  0  0  0
   60.3680   28.8500   46.0320 C   0  0  0  0  0  0  0  0  0  0  0  0
   58.0577   25.2561   45.0132 H   0  0  0  0  0  0  0  0  0  0  0  0
   58.4754   26.8188   44.1793 H   0  0  0  0  0  0  0  0  0  0  0  0
   58.6757   27.3292   48.5867 H   0  0  0  0  0  0  0  0  0  0  0  0
   59.1283   29.5273   49.6589 H   0  0  0  0  0  0  0  0  0  0  0  0
   59.7704   31.8146   49.4264 H   0  0  0  0  0  0  0  0  0  0  0  0
   61.5188   31.6117   49.0275 H   0  0  0  0  0  0  0  0  0  0  0  0
   63.3753   34.4099   47.3928 H   0  0  0  0  0  0  0  0  0  0  0  0
   63.4495   35.2012   49.4621 H   0  0  0  0  0  0  0  0  0  0  0  0
   61.6549   34.8902   49.4982 H   0  0  0  0  0  0  0  0  0  0  0  0
   62.8161   34.0020   51.5058 H   0  0  0  0  0  0  0  0  0  0  0  0
   62.0117   32.7188   50.5074 H   0  0  0  0  0  0  0  0  0  0  0  0
   64.9567   33.2933   50.9024 H   0  0  0  0  0  0  0  0  0  0  0  0
   64.0247   31.7220   50.9713 H   0  0  0  0  0  0  0  0  0  0  0  0
   65.3070   33.0938   48.6568 H   0  0  0  0  0  0  0  0  0  0  0  0
   65.0029   31.3351   48.9900 H   0  0  0  0  0  0  0  0  0  0  0  0
   63.7154   32.0891   47.0346 H   0  0  0  0  0  0  0  0  0  0  0  0
   62.6301   31.6370   48.4049 H   0  0  0  0  0  0  0  0  0  0  0  0
   61.4280   35.4260   46.0760 H   0  0  0  0  0  0  0  0  0  0  0  0
   59.0134   35.7519   44.7779 H   0  0  0  0  0  0  0  0  0  0  0  0
   56.1062   32.7171   45.9282 H   0  0  0  0  0  0  0  0  0  0  0  0
   57.8155   31.6461   47.4422 H   0  0  0  0  0  0  0  0  0  0  0  0
   61.1675   30.8612   46.0839 H   0  0  0  0  0  0  0  0  0  0  0  0
   60.7133   28.6681   45.0036 H   0  0  0  0  0  0  0  0  0  0  0  0
  1  2  2  0
  2  3  1  0
  2  4  1  0
  4  5  2  0
  4  6  1  0
  6  7  1  0
  7  8  2  0
  7  9  1  0
  9 10  2  0
 10 11  1  0
 11 12  2  0
 12 13  1  0
 13 14  1  0
 14 15  1  0
 15 16  1  0
 16 17  1  0
 17 18  1  0
 18 19  1  0
 19 20  1  0
 20 21  1  0
 15 22  2  0
 22 23  1  0
 23 24  2  0
 24 25  1  0
 25 26  1  0
 25 27  2  0
 27 28  1  0
 28 29  2  0
 12 30  1  0
 30 31  2  0
 31  9  1  0
 29 14  1  0
 21 16  1  0
 29 23  1  0
  6 32  1  0
  6 33  1  0
 10 34  1  0
 11 35  1  0
 13 36  1  0
 13 37  1  0
 16 38  1  0
 17 39  1  0
 17 40  1  0
 18 41  1  0
 18 42  1  0
 19 43  1  0
 19 44  1  0
 20 45  1  0
 20 46  1  0
 21 47  1  0
 21 48  1  0
 22 49  1  0
 24 50  1  0
 27 51  1  0
 28 52  1  0
 30 53  1  0
 31 54  1  0
M  CHG  2   3  -1  22   1
M  END
>  <UniqueID>  (72) 
69

>  <SMILES>  (72) 
O=C([O-])C(=O)CC(=O)c1ccc(Cn2c(C3CCCCC3)[nH+]c3cc(F)ccc32)cc1

>  <Energy>  (72) 
96.1586591507794

>  <Genealogy>  (72) 
O=C([O-])C(=O)CC(=O)c1ccc(Cn2c(C3CCCCC3)[nH+]c3cc(F)ccc32)cc1 (protonated)
O=C([O-])C(=O)CC(=O)c1ccc(Cn2c(C3CCCCC3)[nH+]c3cc(F)ccc32)cc1 (3D coordinates assigned)
O=C([O-])C(=O)CC(=O)c1ccc(Cn2c(C3CCCCC3)[nH+]c3cc(F)ccc32)cc1 (nonaromatic ring conformer: 96.1586591507794 kcal/mol)

>  <smiles>  (72) 
O=C(O)C(=O)CC(=O)c1ccc(Cn2c(C3CCCCC3)nc3cc(F)ccc32)cc1

>  <score_type>  (72) 
oracle

>  <origin>  (72) 
adg

>  <m_score__min__energy>  (72) 
-10.91

>  <m_primary>  (72) 
energy

$$$$
73:0
     RDKit          3D

 36 37  0  0  0  0  0  0  0  0999 V2000
   56.9590   23.8840   47.6070 H   0  0  0  0  0  0  0  0  0  0  0  0
   57.3300   23.0250   48.0700 N   0  0  0  0  0  0  0  0  0  0  0  0
   56.8540   21.6780   47.0980 S   0  0  0  0  0  0  0  0  0  0  0  0
   57.8830   20.5880   47.1950 O   0  0  0  0  0  0  0  0  0  0  0  0
   55.5530   21.1390   47.6230 O   0  0  0  0  0  0  0  0  0  0  0  0
   56.6460   22.2050   45.4170 C   0  0  0  0  0  0  0  0  0  0  0  0
   57.1720   21.3810   44.4070 C   0  0  0  0  0  0  0  0  0  0  0  0
   57.7063   20.4597   44.6822 H   0  0  0  0  0  0  0  0  0  0  0  0
   57.0260   21.7150   43.0610 C   0  0  0  0  0  0  0  0  0  0  0  0
   57.4424   21.0578   42.2833 H   0  0  0  0  0  0  0  0  0  0  0  0
   56.3540   22.8790   42.7010 C   0  0  0  0  0  0  0  0  0  0  0  0
   56.2448   23.1445   41.6391 H   0  0  0  0  0  0  0  0  0  0  0  0
   55.8190   23.7090   43.6850 C   0  0  0  0  0  0  0  0  0  0  0  0
   55.2945   24.6303   43.3916 H   0  0  0  0  0  0  0  0  0  0  0  0
   55.9410   23.3840   45.0480 C   0  0  0  0  0  0  0  0  0  0  0  0
   55.1660   24.4610   46.2260 S   0  0  0  0  0  0  0  0  0  0  0  0
   53.9180   25.0410   45.6250 O   0  0  0  0  0  0  0  0  0  0  0  0
   54.7710   23.6860   47.4530 O   0  0  0  0  0  0  0  0  0  0  0  0
   56.2190   25.7510   46.7210 N   0  0  0  0  0  0  0  0  0  0  0  0
   57.5590   25.9220   46.2430 C   0  0  0  0  0  0  0  0  0  0  0  0
   58.3510   24.9440   46.2820 O   0  0  0  0  0  0  0  0  0  0  0  0
   58.0340   27.1980   45.6880 C   0  0  0  0  0  0  0  0  0  0  0  0
   59.0367   27.2542   45.2392 H   0  0  0  0  0  0  0  0  0  0  0  0
   57.2640   28.2920   45.7210 C   0  0  0  0  0  0  0  0  0  0  0  0
   56.5417   28.3849   46.5454 H   0  0  0  0  0  0  0  0  0  0  0  0
   57.3170   29.3880   44.7230 C   0  0  0  0  0  0  0  0  0  0  0  0
   58.0820   30.5290   45.0230 C   0  0  0  0  0  0  0  0  0  0  0  0
   58.6416   30.5765   45.9688 H   0  0  0  0  0  0  0  0  0  0  0  0
   58.1380   31.6030   44.1310 C   0  0  0  0  0  0  0  0  0  0  0  0
   58.7453   32.4875   44.3736 H   0  0  0  0  0  0  0  0  0  0  0  0
   57.4240   31.5550   42.9320 C   0  0  0  0  0  0  0  0  0  0  0  0
   57.4770   32.5990   42.0680 F   0  0  0  0  0  0  0  0  0  0  0  0
   56.6480   30.4350   42.6270 C   0  0  0  0  0  0  0  0  0  0  0  0
   56.0830   30.3997   41.6839 H   0  0  0  0  0  0  0  0  0  0  0  0
   56.5870   29.3580   43.5170 C   0  0  0  0  0  0  0  0  0  0  0  0
   55.9662   28.4828   43.2749 H   0  0  0  0  0  0  0  0  0  0  0  0
  1  2  1  0
  2  3  1  0
  3  4  2  0
  3  5  2  0
  3  6  1  0
  6  7  2  0
  7  8  1  0
  7  9  1  0
  9 10  1  0
  9 11  2  0
 11 12  1  0
 11 13  1  0
 13 14  1  0
 13 15  2  0
 15 16  1  0
 16 17  2  0
 16 18  2  0
 16 19  1  0
 19 20  1  0
 20 21  2  0
 20 22  1  0
 22 23  1  0
 22 24  2  0
 24 25  1  0
 24 26  1  0
 26 27  2  0
 27 28  1  0
 27 29  1  0
 29 30  1  0
 29 31  2  0
 31 32  1  0
 31 33  1  0
 33 34  1  0
 33 35  2  0
 35 36  1  0
 15  6  1  0
 35 26  1  0
M  CHG  2   2  -1  19  -1
M  END
>  <UniqueID>  (73) 
70

>  <SMILES>  (73) 
[NH-]S(=O)(=O)c1ccccc1S(=O)(=O)[N-]C(=O)/C=C/c1ccc(F)cc1

>  <Energy>  (73) 
47.384840728672394

>  <Genealogy>  (73) 
[NH-]S(=O)(=O)c1ccccc1S(=O)(=O)[N-]C(=O)C=Cc1ccc(F)cc1 (protonated)
[NH-]S(=O)(=O)c1ccccc1S(=O)(=O)[N-]C(=O)/C=C/c1ccc(F)cc1 (cis-trans isomerization)
[NH-]S(=O)(=O)c1ccccc1S(=O)(=O)[N-]C(=O)/C=C/c1ccc(F)cc1 (3D coordinates assigned)
[NH-]S(=O)(=O)c1ccccc1S(=O)(=O)[N-]C(=O)/C=C/c1ccc(F)cc1 (optimized conformer: 47.384840728672394 kcal/mol)

>  <smiles>  (73) 
NS(=O)(=O)c1ccccc1S(=O)(=O)NC(=O)C=Cc1ccc(F)cc1

>  <score_type>  (73) 
oracle

>  <origin>  (73) 
adg

>  <m_score__min__energy>  (73) 
-12.85

>  <m_primary>  (73) 
energy

$$$$
74:0
     RDKit          3D

 53 56  0  0  0  0  0  0  0  0999 V2000
   59.3300   34.8680   45.0410 C   0  0  0  0  0  0  0  0  0  0  0  0
   58.0510   34.4690   44.5580 O   0  0  0  0  0  0  0  0  0  0  0  0
   57.7100   33.1520   44.2160 C   0  0  0  0  0  0  0  0  0  0  0  0
   57.8970   32.7380   42.8930 C   0  0  0  0  0  0  0  0  0  0  0  0
   57.5730   31.4360   42.5010 C   0  0  0  0  0  0  0  0  0  0  0  0
   57.0630   30.5230   43.4370 C   0  0  0  0  0  0  0  0  0  0  0  0
   56.6790   29.1320   43.0080 C   0  0  0  0  0  0  0  0  0  0  0  0
   57.7500   28.1240   43.4290 C   0  0  0  0  0  0  0  0  0  0  0  0
   58.1230   28.3390   44.8260 N   0  0  0  0  0  0  0  0  0  0  0  0
   57.3790   28.0580   45.9150 C   0  0  0  0  0  0  0  0  0  0  0  0
   56.1270   27.4560   45.8660 O   0  0  0  0  0  0  0  0  0  0  0  0
   58.0190   28.4520   47.0750 C   0  0  0  0  0  0  0  0  0  0  0  0
   59.2110   29.0230   46.6620 C   0  0  0  0  0  0  0  0  0  0  0  0
   60.2090   29.6060   47.5210 N   0  0  0  0  0  0  0  0  0  0  0  0
   61.2450   30.4910   46.9740 C   0  0  0  0  0  0  0  0  0  0  0  0
   61.5550   31.6250   47.9560 C   0  0  0  0  0  0  0  0  0  0  0  0
   61.7270   31.0980   49.3170 N   0  0  0  0  0  0  0  0  0  0  0  0
   62.7220   31.6410   50.2090 C   0  0  0  0  0  0  0  0  0  0  0  0
   64.0390   31.8840   49.7750 C   0  0  0  0  0  0  0  0  0  0  0  0
   64.9710   32.4150   50.6690 C   0  0  0  0  0  0  0  0  0  0  0  0
   64.5910   32.7020   51.9810 C   0  0  0  0  0  0  0  0  0  0  0  0
   63.2750   32.4580   52.3780 C   0  0  0  0  0  0  0  0  0  0  0  0
   62.3820   31.9410   51.4930 N   0  0  0  0  0  0  0  0  0  0  0  0
   60.6780   30.2210   49.8500 C   0  0  0  0  0  0  0  0  0  0  0  0
   60.4040   29.0770   48.8760 C   0  0  0  0  0  0  0  0  0  0  0  0
   59.2400   28.9410   45.2800 C   0  0  0  0  0  0  0  0  0  0  0  0
   60.2680   29.3880   44.4570 O   0  0  0  0  0  0  0  0  0  0  0  0
   56.8600   30.9370   44.7610 C   0  0  0  0  0  0  0  0  0  0  0  0
   57.1860   32.2400   45.1530 C   0  0  0  0  0  0  0  0  0  0  0  0
   59.3235   34.8660   46.1410 H   0  0  0  0  0  0  0  0  0  0  0  0
   60.0946   34.1657   44.6775 H   0  0  0  0  0  0  0  0  0  0  0  0
   59.5597   35.8805   44.6775 H   0  0  0  0  0  0  0  0  0  0  0  0
   58.3031   33.4441   42.1537 H   0  0  0  0  0  0  0  0  0  0  0  0
   57.7182   31.1260   41.4556 H   0  0  0  0  0  0  0  0  0  0  0  0
   55.7221   28.8601   43.4775 H   0  0  0  0  0  0  0  0  0  0  0  0
   56.5844   29.1122   41.9123 H   0  0  0  0  0  0  0  0  0  0  0  0
   57.3556   27.1039   43.3109 H   0  0  0  0  0  0  0  0  0  0  0  0
   58.6388   28.2582   42.7950 H   0  0  0  0  0  0  0  0  0  0  0  0
   57.6579   28.3364   48.1076 H   0  0  0  0  0  0  0  0  0  0  0  0
   62.1603   29.9083   46.7932 H   0  0  0  0  0  0  0  0  0  0  0  0
   60.8802   30.9260   46.0318 H   0  0  0  0  0  0  0  0  0  0  0  0
   62.4811   32.1302   47.6442 H   0  0  0  0  0  0  0  0  0  0  0  0
   60.7150   32.3352   47.9542 H   0  0  0  0  0  0  0  0  0  0  0  0
   64.3317   31.6572   48.7392 H   0  0  0  0  0  0  0  0  0  0  0  0
   66.0029   32.6068   50.3398 H   0  0  0  0  0  0  0  0  0  0  0  0
   65.3198   33.1155   52.6937 H   0  0  0  0  0  0  0  0  0  0  0  0
   62.9605   32.6842   53.4075 H   0  0  0  0  0  0  0  0  0  0  0  0
   61.0059   29.8066   50.8147 H   0  0  0  0  0  0  0  0  0  0  0  0
   59.7561   30.8052   49.9871 H   0  0  0  0  0  0  0  0  0  0  0  0
   61.2592   28.3851   48.8772 H   0  0  0  0  0  0  0  0  0  0  0  0
   59.4934   28.5460   49.1904 H   0  0  0  0  0  0  0  0  0  0  0  0
   56.4420   30.2333   45.4959 H   0  0  0  0  0  0  0  0  0  0  0  0
   57.0326   32.5532   46.1962 H   0  0  0  0  0  0  0  0  0  0  0  0
  1  2  1  0
  2  3  1  0
  3  4  2  0
  4  5  1  0
  5  6  2  0
  6  7  1  0
  7  8  1  0
  8  9  1  0
  9 10  1  0
 10 11  1  0
 10 12  2  0
 12 13  1  0
 13 14  1  0
 14 15  1  0
 15 16  1  0
 16 17  1  0
 17 18  1  0
 18 19  2  0
 19 20  1  0
 20 21  2  0
 21 22  1  0
 22 23  2  0
 17 24  1  0
 24 25  1  0
 13 26  2  0
 26 27  1  0
  6 28  1  0
 28 29  2  0
 29  3  1  0
 26  9  1  0
 25 14  1  0
 23 18  1  0
  1 30  1  0
  1 31  1  0
  1 32  1  0
  4 33  1  0
  5 34  1  0
  7 35  1  0
  7 36  1  0
  8 37  1  0
  8 38  1  0
 12 39  1  0
 15 40  1  0
 15 41  1  0
 16 42  1  0
 16 43  1  0
 19 44  1  0
 20 45  1  0
 21 46  1  0
 22 47  1  0
 24 48  1  0
 24 49  1  0
 25 50  1  0
 25 51  1  0
 28 52  1  0
 29 53  1  0
M  CHG  2  11  -1  27  -1
M  END
>  <UniqueID>  (74) 
71

>  <SMILES>  (74) 
COc1ccc(CCn2c([O-])cc(N3CCN(c4ccccn4)CC3)c2[O-])cc1

>  <Energy>  (74) 
87.57162044799063

>  <Genealogy>  (74) 
COc1ccc(CCn2c([O-])cc(N3CCN(c4ccccn4)CC3)c2[O-])cc1 (protonated)
COc1ccc(CCn2c([O-])cc(N3CCN(c4ccccn4)CC3)c2[O-])cc1 (3D coordinates assigned)
COc1ccc(CCn2c([O-])cc(N3CCN(c4ccccn4)CC3)c2[O-])cc1 (nonaromatic ring conformer: 87.57162044799063 kcal/mol)

>  <smiles>  (74) 
COc1ccc(CCn2c(O)cc(N3CCN(c4ccccn4)CC3)c2O)cc1

>  <score_type>  (74) 
oracle

>  <origin>  (74) 
adg

>  <m_score__min__energy>  (74) 
-11.539999999999999

>  <m_primary>  (74) 
energy

$$$$
75:0
     RDKit          3D

 65 67  0  0  0  0  0  0  0  0999 V2000
   58.0830   21.6100   44.9490 C   0  0  0  0  0  0  0  0  0  0  0  0
   57.9580   22.7530   45.7920 O   0  0  0  0  0  0  0  0  0  0  0  0
   58.1050   24.0770   45.3570 C   0  0  0  0  0  0  0  0  0  0  0  0
   58.7910   25.0480   46.1120 C   0  0  0  0  0  0  0  0  0  0  0  0
   58.8910   26.3630   45.6490 C   0  0  0  0  0  0  0  0  0  0  0  0
   58.3260   26.7280   44.4170 C   0  0  0  0  0  0  0  0  0  0  0  0
   58.4860   28.1390   43.9010 C   0  0  0  0  0  0  0  0  0  0  0  0
   57.1510   28.7920   43.5160 C   0  0  0  0  0  0  0  0  0  0  0  0
   56.4660   29.4390   44.6840 C   0  0  0  0  0  0  0  0  0  0  0  0
   55.4020   30.0900   44.5060 O   0  0  0  0  0  0  0  0  0  0  0  0
   57.0020   29.2350   45.9980 N   0  0  0  0  0  0  0  0  0  0  0  0
   58.2760   29.6310   46.5320 C   0  0  0  0  0  0  0  0  0  0  0  0
   58.9970   28.8370   47.4430 C   0  0  0  0  0  0  0  0  0  0  0  0
   60.2030   29.2960   47.9820 C   0  0  0  0  0  0  0  0  0  0  0  0
   60.6990   30.5640   47.6360 C   0  0  0  0  0  0  0  0  0  0  0  0
   61.8920   31.1000   48.2340 N   0  0  0  0  0  0  0  0  0  0  0  0
   61.8760   31.9560   49.3820 C   0  0  0  0  0  0  0  0  0  0  0  0
   62.1340   31.2710   50.8520 S   0  0  0  0  0  0  0  0  0  0  0  0
   61.8070   33.3960   49.2150 N   0  0  0  0  0  0  0  0  0  0  0  0
   63.0200   34.2180   49.0450 C   0  0  0  0  0  0  0  0  0  0  0  0
   64.1620   33.3890   48.4600 C   0  0  0  0  0  0  0  0  0  0  0  0
   63.7900   32.8910   47.2040 O   0  0  0  0  0  0  0  0  0  0  0  0
   60.4950   34.0670   49.2270 C   0  0  0  0  0  0  0  0  0  0  0  0
   59.5470   33.3860   50.1840 C   0  0  0  0  0  0  0  0  0  0  0  0
   59.4840   33.7840   51.5320 C   0  0  0  0  0  0  0  0  0  0  0  0
   58.6180   33.1390   52.4200 C   0  0  0  0  0  0  0  0  0  0  0  0
   57.7940   32.1070   51.9670 C   0  0  0  0  0  0  0  0  0  0  0  0
   57.8170   31.7310   50.6200 C   0  0  0  0  0  0  0  0  0  0  0  0
   58.6830   32.3730   49.7290 C   0  0  0  0  0  0  0  0  0  0  0  0
   59.9920   31.3430   46.7100 C   0  0  0  0  0  0  0  0  0  0  0  0
   58.7780   30.8900   46.1650 C   0  0  0  0  0  0  0  0  0  0  0  0
   58.0400   31.6640   45.2540 O   0  0  0  0  0  0  0  0  0  0  0  0
   57.6840   33.0270   45.4560 C   0  0  0  0  0  0  0  0  0  0  0  0
   57.6640   25.7530   43.6520 C   0  0  0  0  0  0  0  0  0  0  0  0
   57.5460   24.4420   44.1270 C   0  0  0  0  0  0  0  0  0  0  0  0
   58.1818   20.7065   45.5686 H   0  0  0  0  0  0  0  0  0  0  0  0
   57.1890   21.5232   44.3140 H   0  0  0  0  0  0  0  0  0  0  0  0
   58.9746   21.7185   44.3140 H   0  0  0  0  0  0  0  0  0  0  0  0
   59.2508   24.7698   47.0718 H   0  0  0  0  0  0  0  0  0  0  0  0
   59.4159   27.1169   46.2541 H   0  0  0  0  0  0  0  0  0  0  0  0
   58.9605   28.7473   44.6851 H   0  0  0  0  0  0  0  0  0  0  0  0
   59.1021   28.0887   42.9911 H   0  0  0  0  0  0  0  0  0  0  0  0
   57.3418   29.5588   42.7507 H   0  0  0  0  0  0  0  0  0  0  0  0
   56.4887   27.9985   43.1396 H   0  0  0  0  0  0  0  0  0  0  0  0
   58.6096   27.8492   47.7330 H   0  0  0  0  0  0  0  0  0  0  0  0
   60.7665   28.6605   48.6810 H   0  0  0  0  0  0  0  0  0  0  0  0
   62.7920   31.0400   47.7070 H   0  0  0  0  0  0  0  0  0  0  0  0
   62.7966   35.0536   48.3654 H   0  0  0  0  0  0  0  0  0  0  0  0
   63.3292   34.5966   50.0304 H   0  0  0  0  0  0  0  0  0  0  0  0
   65.0552   34.0219   48.3523 H   0  0  0  0  0  0  0  0  0  0  0  0
   64.3836   32.5482   49.1338 H   0  0  0  0  0  0  0  0  0  0  0  0
   64.5830   32.4170   46.8430 H   0  0  0  0  0  0  0  0  0  0  0  0
   60.6292   35.1136   49.5377 H   0  0  0  0  0  0  0  0  0  0  0  0
   60.0668   34.0169   48.2150 H   0  0  0  0  0  0  0  0  0  0  0  0
   60.1198   34.6074   51.8893 H   0  0  0  0  0  0  0  0  0  0  0  0
   58.5858   33.4448   53.4762 H   0  0  0  0  0  0  0  0  0  0  0  0
   57.1257   31.5888   52.6705 H   0  0  0  0  0  0  0  0  0  0  0  0
   57.1538   30.9301   50.2613 H   0  0  0  0  0  0  0  0  0  0  0  0
   58.6887   32.0846   48.6675 H   0  0  0  0  0  0  0  0  0  0  0  0
   60.3922   32.3214   46.4058 H   0  0  0  0  0  0  0  0  0  0  0  0
   57.6295   33.2357   46.5346 H   0  0  0  0  0  0  0  0  0  0  0  0
   58.4427   33.6764   44.9948 H   0  0  0  0  0  0  0  0  0  0  0  0
   56.7047   33.2224   44.9948 H   0  0  0  0  0  0  0  0  0  0  0  0
   57.2363   26.0215   42.6748 H   0  0  0  0  0  0  0  0  0  0  0  0
   57.0090   23.6916   43.5282 H   0  0  0  0  0  0  0  0  0  0  0  0
  1  2  1  0
  2  3  1  0
  3  4  2  0
  4  5  1  0
  5  6  2  0
  6  7  1  0
  7  8  1  0
  8  9  1  0
  9 10  2  0
  9 11  1  0
 11 12  1  0
 12 13  2  0
 13 14  1  0
 14 15  2  0
 15 16  1  0
 16 17  1  0
 17 18  2  0
 17 19  1  0
 19 20  1  0
 20 21  1  0
 21 22  1  0
 19 23  1  0
 23 24  1  0
 24 25  2  0
 25 26  1  0
 26 27  2  0
 27 28  1  0
 28 29  2  0
 15 30  1  0
 30 31  2  0
 31 32  1  0
 32 33  1  0
  6 34  1  0
 34 35  2  0
 35  3  1  0
 31 12  1  0
 29 24  1  0
  1 36  1  0
  1 37  1  0
  1 38  1  0
  4 39  1  0
  5 40  1  0
  7 41  1  0
  7 42  1  0
  8 43  1  0
  8 44  1  0
 13 45  1  0
 14 46  1  0
 16 47  1  0
 20 48  1  0
 20 49  1  0
 21 50  1  0
 21 51  1  0
 22 52  1  0
 23 53  1  0
 23 54  1  0
 25 55  1  0
 26 56  1  0
 27 57  1  0
 28 58  1  0
 29 59  1  0
 30 60  1  0
 33 61  1  0
 33 62  1  0
 33 63  1  0
 34 64  1  0
 35 65  1  0
M  CHG  1  11  -1
M  END
>  <UniqueID>  (75) 
72

>  <SMILES>  (75) 
COc1ccc(CCC(=O)[N-]c2ccc(NC(=S)N(CCO)Cc3ccccc3)cc2OC)cc1

>  <Energy>  (75) 
66.16702894564631

>  <Genealogy>  (75) 
COc1ccc(CCC(=O)[N-]c2ccc(NC(=S)N(CCO)Cc3ccccc3)cc2OC)cc1 (protonated)
COc1ccc(CCC(=O)[N-]c2ccc(NC(=S)N(CCO)Cc3ccccc3)cc2OC)cc1 (3D coordinates assigned)
COc1ccc(CCC(=O)[N-]c2ccc(NC(=S)N(CCO)Cc3ccccc3)cc2OC)cc1 (optimized conformer: 66.16702894564631 kcal/mol)

>  <smiles>  (75) 
COc1ccc(CCC(=O)Nc2ccc(NC(=S)N(CCO)Cc3ccccc3)cc2OC)cc1

>  <score_type>  (75) 
oracle

>  <origin>  (75) 
adg

>  <m_score__min__energy>  (75) 
-10.960000000000001

>  <m_primary>  (75) 
energy

$$$$
76:0
     RDKit          3D

 78 83  0  0  1  0  0  0  0  0999 V2000
   52.2360   27.3800   53.2850 N   0  0  0  0  0  0  0  0  0  0  0  0
   53.1850   27.8150   54.0740 C   0  0  0  0  0  0  0  0  0  0  0  0
   53.4370   27.2030   55.2440 N   0  0  0  0  0  0  0  0  0  0  0  0
   54.4020   27.6480   56.0450 C   0  0  0  0  0  0  0  0  0  0  0  0
   55.1590   28.7150   55.7240 N   0  0  0  0  0  0  0  0  0  0  0  0
   54.9500   29.3730   54.5550 C   0  0  0  0  0  0  0  0  0  0  0  0
   55.7610   30.4520   54.2970 O   0  0  0  0  0  0  0  0  0  0  0  0
   56.5180   30.5290   53.1620 C   0  0  0  0  0  0  0  0  0  0  0  0
   57.4430   29.5180   52.9070 C   0  0  0  0  0  0  0  0  0  0  0  0
   58.2320   29.5560   51.7670 C   0  0  0  0  0  0  0  0  0  0  0  0
   58.1320   30.5850   50.8520 C   0  0  0  0  0  0  0  0  0  0  0  0
   58.9580   30.6610   49.6190 C   0  0  0  0  0  0  0  0  0  0  0  0
   59.4620   32.0050   49.3870 N   0  0  0  0  0  0  0  0  0  0  0  0
   58.8280   32.9050   48.4830 C   0  0  0  0  0  0  0  0  0  0  0  0
   57.7770   32.4870   47.9190 O   0  0  0  0  0  0  0  0  0  0  0  0
   59.3210   34.2560   48.1830 C   0  0  2  0  0  0  0  0  0  0  0  0
   58.8930   34.5740   46.7610 C   0  0  0  0  0  0  0  0  0  0  0  0
   59.6200   33.7980   45.7170 C   0  0  0  0  0  0  0  0  0  0  0  0
   58.8690   32.5900   45.2870 C   0  0  0  0  0  0  0  0  0  0  0  0
   59.2360   31.3160   45.6870 C   0  0  0  0  0  0  0  0  0  0  0  0
   58.5360   30.2000   45.2790 C   0  0  0  0  0  0  0  0  0  0  0  0
   57.4280   30.3240   44.4450 C   0  0  0  0  0  0  0  0  0  0  0  0
   57.0430   31.5910   44.0340 C   0  0  0  0  0  0  0  0  0  0  0  0
   57.7650   32.7000   44.4580 C   0  0  0  0  0  0  0  0  0  0  0  0
   60.8010   34.4310   48.3940 C   0  0  0  0  0  0  0  0  0  0  0  0
   61.4710   33.3490   49.1600 C   0  0  1  0  0  0  0  0  0  0  0  0
   62.7570   33.7530   49.7040 C   0  0  0  0  0  0  0  0  0  0  0  0
   62.9020   35.0260   49.9190 O   0  0  0  0  0  0  0  0  0  0  0  0
   63.9090   32.9610   50.0470 C   0  0  0  0  0  0  0  0  0  0  0  0
   63.6920   31.7800   50.7700 C   0  0  0  0  0  0  0  0  0  0  0  0
   64.7430   30.9540   51.1460 C   0  0  0  0  0  0  0  0  0  0  0  0
   66.0390   31.2490   50.8300 C   0  0  0  0  0  0  0  0  0  0  0  0
   66.2770   32.4030   50.1200 C   0  0  0  0  0  0  0  0  0  0  0  0
   65.2150   33.2340   49.7420 C   0  0  0  0  0  0  0  0  0  0  0  0
   60.6490   32.5170   50.0690 C   0  0  1  0  0  0  0  0  0  0  0  0
   60.3570   32.9880   51.4130 C   0  0  0  0  0  0  0  0  0  0  0  0
   59.3060   33.8580   51.6650 C   0  0  0  0  0  0  0  0  0  0  0  0
   58.9890   34.3470   52.8920 C   0  0  0  0  0  0  0  0  0  0  0  0
   59.7360   33.9880   54.0070 C   0  0  0  0  0  0  0  0  0  0  0  0
   60.7870   33.1250   53.7840 C   0  0  0  0  0  0  0  0  0  0  0  0
   61.1100   32.6270   52.5390 C   0  0  0  0  0  0  0  0  0  0  0  0
   57.2080   31.5850   51.1190 C   0  0  0  0  0  0  0  0  0  0  0  0
   56.4080   31.5770   52.2430 C   0  0  0  0  0  0  0  0  0  0  0  0
   53.9550   28.9100   53.7340 C   0  0  0  0  0  0  0  0  0  0  0  0
   53.6340   29.7090   52.2180 Cl  0  0  0  0  0  0  0  0  0  0  0  0
   52.5030   27.2910   52.2730 H   0  0  0  0  0  0  0  0  0  0  0  0
   52.8930   26.3700   55.5580 H   0  0  0  0  0  0  0  0  0  0  0  0
   54.5870   27.1293   56.9972 H   0  0  0  0  0  0  0  0  0  0  0  0
   57.5481   28.6833   53.6156 H   0  0  0  0  0  0  0  0  0  0  0  0
   58.9550   28.7466   51.5875 H   0  0  0  0  0  0  0  0  0  0  0  0
   59.8109   29.9736   49.7192 H   0  0  0  0  0  0  0  0  0  0  0  0
   58.3229   30.3825   48.7651 H   0  0  0  0  0  0  0  0  0  0  0  0
   58.8811   34.9701   48.8947 H   0  0  0  0  0  0  0  0  0  0  0  0
   57.8188   34.3566   46.6671 H   0  0  0  0  0  0  0  0  0  0  0  0
   59.1295   35.6344   46.5891 H   0  0  0  0  0  0  0  0  0  0  0  0
   59.7796   34.4453   44.8421 H   0  0  0  0  0  0  0  0  0  0  0  0
   60.5748   33.4644   46.1495 H   0  0  0  0  0  0  0  0  0  0  0  0
   60.1075   31.1911   46.3465 H   0  0  0  0  0  0  0  0  0  0  0  0
   58.8559   29.2028   45.6155 H   0  0  0  0  0  0  0  0  0  0  0  0
   56.8692   29.4345   44.1187 H   0  0  0  0  0  0  0  0  0  0  0  0
   56.1707   31.7176   43.3759 H   0  0  0  0  0  0  0  0  0  0  0  0
   57.4490   33.6992   44.1239 H   0  0  0  0  0  0  0  0  0  0  0  0
   61.2792   34.4921   47.4053 H   0  0  0  0  0  0  0  0  0  0  0  0
   60.9136   35.3429   48.9988 H   0  0  0  0  0  0  0  0  0  0  0  0
   61.6732   32.6077   48.3728 H   0  0  0  0  0  0  0  0  0  0  0  0
   62.6645   31.5008   51.0462 H   0  0  0  0  0  0  0  0  0  0  0  0
   64.5262   30.0371   51.7138 H   0  0  0  0  0  0  0  0  0  0  0  0
   66.8635   30.5868   51.1328 H   0  0  0  0  0  0  0  0  0  0  0  0
   67.3075   32.6746   49.8476 H   0  0  0  0  0  0  0  0  0  0  0  0
   65.4409   34.1483   49.1737 H   0  0  0  0  0  0  0  0  0  0  0  0
   61.3473   31.7009   50.3065 H   0  0  0  0  0  0  0  0  0  0  0  0
   58.6867   34.1735   50.8124 H   0  0  0  0  0  0  0  0  0  0  0  0
   58.1353   35.0317   53.0035 H   0  0  0  0  0  0  0  0  0  0  0  0
   59.5017   34.3710   55.0112 H   0  0  0  0  0  0  0  0  0  0  0  0
   61.4003   32.8173   54.6437 H   0  0  0  0  0  0  0  0  0  0  0  0
   61.9638   31.9423   52.4289 H   0  0  0  0  0  0  0  0  0  0  0  0
   57.1094   32.4171   50.4063 H   0  0  0  0  0  0  0  0  0  0  0  0
   55.6878   32.3904   52.4152 H   0  0  0  0  0  0  0  0  0  0  0  0
  1  2  2  3
  2  3  1  0
  3  4  1  0
  4  5  2  0
  5  6  1  0
  6  7  1  0
  7  8  1  0
  8  9  2  0
  9 10  1  0
 10 11  2  0
 11 12  1  0
 12 13  1  0
 13 14  1  0
 14 15  2  0
 14 16  1  0
 16 17  1  0
 17 18  1  0
 18 19  1  0
 19 20  2  0
 20 21  1  0
 21 22  2  0
 22 23  1  0
 23 24  2  0
 16 25  1  0
 25 26  1  0
 26 27  1  0
 27 28  2  0
 27 29  1  0
 29 30  2  0
 30 31  1  0
 31 32  2  0
 32 33  1  0
 33 34  2  0
 26 35  1  0
 35 36  1  0
 36 37  2  0
 37 38  1  0
 38 39  2  0
 39 40  1  0
 40 41  2  0
 11 42  1  0
 42 43  2  0
  6 44  2  0
 44 45  1  0
 44  2  1  0
 43  8  1  0
 35 13  1  0
 41 36  1  0
 24 19  1  0
 34 29  1  0
  1 46  1  0
  3 47  1  0
  4 48  1  0
  9 49  1  0
 10 50  1  0
 12 51  1  0
 12 52  1  0
 16 53  1  1
 17 54  1  0
 17 55  1  0
 18 56  1  0
 18 57  1  0
 20 58  1  0
 21 59  1  0
 22 60  1  0
 23 61  1  0
 24 62  1  0
 25 63  1  0
 25 64  1  0
 26 65  1  6
 30 66  1  0
 31 67  1  0
 32 68  1  0
 33 69  1  0
 34 70  1  0
 35 71  1  1
 37 72  1  0
 38 73  1  0
 39 74  1  0
 40 75  1  0
 41 76  1  0
 42 77  1  0
 43 78  1  0
M  END
>  <smiles>  (76) 
N=c1[nH]cnc(Oc2ccc(CN3C(=O)C(CCc4ccccc4)CC(C(=O)c4ccccc4)C3c3ccccc3)cc2)c1Cl

>  <score_type>  (76) 
oracle

>  <origin>  (76) 
adg

>  <m_score__min__energy>  (76) 
-11.789999999999999

>  <m_primary>  (76) 
energy

$$$$
77:0
     RDKit          3D

 39 41  0  0  0  0  0  0  0  0999 V2000
   60.5800   34.5850   46.4120 C   0  0  0  0  0  0  0  0  0  0  0  0
   59.2030   34.2160   45.9600 C   0  0  0  0  0  0  0  0  0  0  0  0
   58.6170   34.8400   44.8920 N   0  0  0  0  0  0  0  0  0  0  0  0
   57.3950   34.4080   44.5890 N   0  0  0  0  0  0  0  0  0  0  0  0
   57.0070   33.2080   45.6640 S   0  0  0  0  0  0  0  0  0  0  0  0
   58.4150   33.2240   46.5610 C   0  0  0  0  0  0  0  0  0  0  0  0
   58.7480   32.3240   47.6820 C   0  0  0  0  0  0  0  0  0  0  0  0
   58.2310   32.5080   48.8150 O   0  0  0  0  0  0  0  0  0  0  0  0
   59.7010   31.2650   47.5080 N   0  0  0  0  0  0  0  0  0  0  0  0
   59.6050   30.3740   46.3460 C   0  0  0  0  0  0  0  0  0  0  0  0
   58.2590   29.6490   46.3440 C   0  0  0  0  0  0  0  0  0  0  0  0
   57.5330   29.9410   45.1120 N   0  0  0  0  0  0  0  0  0  0  0  0
   58.0380   30.5470   44.0210 C   0  0  0  0  0  0  0  0  0  0  0  0
   57.0230   30.6970   43.1030 C   0  0  0  0  0  0  0  0  0  0  0  0
   55.9080   30.1580   43.7190 C   0  0  0  0  0  0  0  0  0  0  0  0
   56.2410   29.7110   44.9450 N   0  0  0  0  0  0  0  0  0  0  0  0
   60.7360   31.0630   48.5240 C   0  0  0  0  0  0  0  0  0  0  0  0
   61.8200   32.0920   48.3590 C   0  0  0  0  0  0  0  0  0  0  0  0
   61.8830   33.2020   49.2120 C   0  0  0  0  0  0  0  0  0  0  0  0
   62.8630   34.1760   49.0020 C   0  0  0  0  0  0  0  0  0  0  0  0
   63.7400   34.0500   47.9700 N   0  0  0  0  0  0  0  0  0  0  0  0
   63.6920   32.9910   47.1200 C   0  0  0  0  0  0  0  0  0  0  0  0
   62.7270   31.9950   47.2950 C   0  0  0  0  0  0  0  0  0  0  0  0
   60.6148   34.5943   47.5114 H   0  0  0  0  0  0  0  0  0  0  0  0
   61.3015   33.8485   46.0285 H   0  0  0  0  0  0  0  0  0  0  0  0
   60.8365   35.5836   46.0285 H   0  0  0  0  0  0  0  0  0  0  0  0
   59.6990   30.9676   45.4247 H   0  0  0  0  0  0  0  0  0  0  0  0
   60.4129   29.6292   46.3981 H   0  0  0  0  0  0  0  0  0  0  0  0
   58.4298   28.5648   46.4172 H   0  0  0  0  0  0  0  0  0  0  0  0
   57.6637   29.9933   47.2025 H   0  0  0  0  0  0  0  0  0  0  0  0
   59.0817   30.8671   43.8863 H   0  0  0  0  0  0  0  0  0  0  0  0
   57.0851   31.1463   42.1009 H   0  0  0  0  0  0  0  0  0  0  0  0
   54.9029   30.1029   43.2753 H   0  0  0  0  0  0  0  0  0  0  0  0
   60.2894   31.1604   49.5245 H   0  0  0  0  0  0  0  0  0  0  0  0
   61.1683   30.0583   48.4070 H   0  0  0  0  0  0  0  0  0  0  0  0
   61.1667   33.3059   50.0404 H   0  0  0  0  0  0  0  0  0  0  0  0
   62.9252   35.0459   49.6724 H   0  0  0  0  0  0  0  0  0  0  0  0
   64.4136   32.9174   46.2930 H   0  0  0  0  0  0  0  0  0  0  0  0
   62.6798   31.1414   46.6028 H   0  0  0  0  0  0  0  0  0  0  0  0
  1  2  1  0
  2  3  1  0
  3  4  2  0
  4  5  1  0
  5  6  1  0
  6  7  1  0
  7  8  2  0
  7  9  1  0
  9 10  1  0
 10 11  1  0
 11 12  1  0
 12 13  1  0
 13 14  2  0
 14 15  1  0
 15 16  2  0
  9 17  1  0
 17 18  1  0
 18 19  2  0
 19 20  1  0
 20 21  2  0
 21 22  1  0
 22 23  2  0
  6  2  2  0
 16 12  1  0
 23 18  1  0
  1 24  1  0
  1 25  1  0
  1 26  1  0
 10 27  1  0
 10 28  1  0
 11 29  1  0
 11 30  1  0
 13 31  1  0
 14 32  1  0
 15 33  1  0
 17 34  1  0
 17 35  1  0
 19 36  1  0
 20 37  1  0
 22 38  1  0
 23 39  1  0
M  END
>  <UniqueID>  (77) 
73

>  <SMILES>  (77) 
Cc1nnsc1C(=O)N(CCn1cccn1)Cc1ccncc1

>  <Energy>  (77) 
105.64855725685362

>  <Genealogy>  (77) 
Cc1nnsc1C(=O)N(CCn1cccn1)Cc1ccncc1 (3D coordinates assigned)
Cc1nnsc1C(=O)N(CCn1cccn1)Cc1ccncc1 (optimized conformer: 105.64855725685362 kcal/mol)

>  <smiles>  (77) 
Cc1nnsc1C(=O)N(CCn1cccn1)Cc1ccncc1

>  <score_type>  (77) 
oracle

>  <origin>  (77) 
adg

>  <m_score__min__energy>  (77) 
-7.1299999999999999

>  <m_primary>  (77) 
energy

$$$$
78:0
     RDKit          3D

 58 61  0  0  0  0  0  0  0  0999 V2000
   57.0951   32.8902   52.3596 H   0  0  0  0  0  0  0  0  0  0  0  0
   58.1740   33.0540   52.2210 C   0  0  0  0  0  0  0  0  0  0  0  0
   58.6700   33.2880   50.9780 N   0  0  0  0  0  0  0  0  0  0  0  0
   59.9970   33.4930   50.7620 C   0  0  0  0  0  0  0  0  0  0  0  0
   60.4890   33.7750   49.4480 N   0  0  0  0  0  0  0  0  0  0  0  0
   61.1620   32.8480   48.5830 C   0  0  0  0  0  0  0  0  0  0  0  0
   62.4020   32.9960   48.4090 O   0  0  0  0  0  0  0  0  0  0  0  0
   60.4420   31.6830   47.9050 C   0  0  2  0  0  0  0  0  0  0  0  0
   60.4110   31.8330   46.3690 C   0  0  0  0  0  0  0  0  0  0  0  0
   60.1948   32.8792   46.1071 H   0  0  0  0  0  0  0  0  0  0  0  0
   61.3876   31.5451   45.9527 H   0  0  0  0  0  0  0  0  0  0  0  0
   59.6285   31.1815   45.9527 H   0  0  0  0  0  0  0  0  0  0  0  0
   59.0340   31.5600   48.3980 C   0  0  0  0  0  0  0  0  0  0  0  0
   58.1510   32.5110   48.3500 N   0  0  0  0  0  0  0  0  0  0  0  0
   58.2130   33.3320   48.9930 H   0  0  0  0  0  0  0  0  0  0  0  0
   57.3640   32.4700   47.6660 H   0  0  0  0  0  0  0  0  0  0  0  0
   58.7220   30.2610   48.8610 N   0  0  0  0  0  0  0  0  0  0  0  0
   57.7720   29.9580   49.1720 H   0  0  0  0  0  0  0  0  0  0  0  0
   59.8560   29.3700   48.6680 C   0  0  2  0  0  0  0  0  0  0  0  0
   59.5740   28.4130   47.5160 C   0  0  0  0  0  0  0  0  0  0  0  0
   58.6960   28.7700   46.5350 N   0  0  0  0  0  0  0  0  0  0  0  0
   58.4070   27.9740   45.4700 C   0  0  0  0  0  0  0  0  0  0  0  0
   57.5580   28.4210   44.5860 N   0  0  0  0  0  0  0  0  0  0  0  0
   56.6490   29.5320   44.6660 C   0  0  0  0  0  0  0  0  0  0  0  0
   55.4240   29.3610   44.9090 O   0  0  0  0  0  0  0  0  0  0  0  0
   57.1790   30.8960   44.5450 C   0  0  0  0  0  0  0  0  0  0  0  0
   57.1690   31.7960   45.5480 N   0  0  0  0  0  0  0  0  0  0  0  0
   57.7250   32.9030   45.0830 N   0  0  0  0  0  0  0  0  0  0  0  0
   57.8470   34.1350   45.8490 C   0  0  0  0  0  0  0  0  0  0  0  0
   57.8240   33.9023   46.9239 H   0  0  0  0  0  0  0  0  0  0  0  0
   58.7984   34.6283   45.6010 H   0  0  0  0  0  0  0  0  0  0  0  0
   57.0108   34.8053   45.6010 H   0  0  0  0  0  0  0  0  0  0  0  0
   58.0730   32.7410   43.7930 C   0  0  0  0  0  0  0  0  0  0  0  0
   58.5387   33.5035   43.1514 H   0  0  0  0  0  0  0  0  0  0  0  0
   57.7460   31.4550   43.4120 C   0  0  0  0  0  0  0  0  0  0  0  0
   57.9007   30.9818   42.4311 H   0  0  0  0  0  0  0  0  0  0  0  0
   59.0630   26.7310   45.3540 C   0  0  0  0  0  0  0  0  0  0  0  0
   58.8671   26.0786   44.4903 H   0  0  0  0  0  0  0  0  0  0  0  0
   59.9630   26.3360   46.3450 C   0  0  0  0  0  0  0  0  0  0  0  0
   60.4700   25.3628   46.2691 H   0  0  0  0  0  0  0  0  0  0  0  0
   60.2210   27.1710   47.4300 C   0  0  0  0  0  0  0  0  0  0  0  0
   60.9269   26.8588   48.2137 H   0  0  0  0  0  0  0  0  0  0  0  0
   60.1040   28.5890   49.9690 C   0  0  0  0  0  0  0  0  0  0  0  0
   59.8976   29.2391   50.8320 H   0  0  0  0  0  0  0  0  0  0  0  0
   59.4399   27.7127   50.0029 H   0  0  0  0  0  0  0  0  0  0  0  0
   61.1520   28.2564   50.0029 H   0  0  0  0  0  0  0  0  0  0  0  0
   61.0470   30.3150   48.3250 C   0  0  0  0  0  0  0  0  0  0  0  0
   61.6924   30.4431   49.2065 H   0  0  0  0  0  0  0  0  0  0  0  0
   61.6590   29.8933   47.5141 H   0  0  0  0  0  0  0  0  0  0  0  0
   60.8860   33.4870   51.8420 C   0  0  0  0  0  0  0  0  0  0  0  0
   61.9552   33.6869   51.6779 H   0  0  0  0  0  0  0  0  0  0  0  0
   60.4090   33.2250   53.1360 C   0  0  0  0  0  0  0  0  0  0  0  0
   61.3480   33.2620   54.3140 C   0  0  0  0  0  0  0  0  0  0  0  0
   60.7330   33.8540   55.4050 F   0  0  0  0  0  0  0  0  0  0  0  0
   62.4880   33.9880   54.0150 F   0  0  0  0  0  0  0  0  0  0  0  0
   61.7100   31.9710   54.6480 F   0  0  0  0  0  0  0  0  0  0  0  0
   59.0310   33.0210   53.3230 C   0  0  0  0  0  0  0  0  0  0  0  0
   58.6303   32.8366   54.3307 H   0  0  0  0  0  0  0  0  0  0  0  0
  1  2  1  0
  2  3  2  0
  3  4  1  0
  4  5  1  0
  5  6  1  0
  6  7  2  0
  6  8  1  0
  8  9  1  6
  9 10  1  0
  9 11  1  0
  9 12  1  0
  8 13  1  0
 13 14  2  0
 14 15  1  0
 14 16  1  0
 13 17  1  0
 17 18  1  0
 17 19  1  0
 19 20  1  0
 20 21  1  0
 21 22  1  0
 22 23  2  0
 23 24  1  0
 24 25  2  0
 24 26  1  0
 26 27  2  0
 27 28  1  0
 28 29  1  0
 29 30  1  0
 29 31  1  0
 29 32  1  0
 28 33  1  0
 33 34  1  0
 33 35  2  0
 35 36  1  0
 22 37  1  0
 37 38  1  0
 37 39  2  0
 39 40  1  0
 39 41  1  0
 41 42  1  0
 19 43  1  1
 43 44  1  0
 43 45  1  0
 43 46  1  0
 19 47  1  0
 47 48  1  0
 47 49  1  0
  4 50  2  0
 50 51  1  0
 50 52  1  0
 52 53  1  0
 53 54  1  0
 53 55  1  0
 53 56  1  0
 52 57  2  0
 57 58  1  0
 57  2  1  0
 47  8  1  0
 41 20  2  0
 35 26  1  0
M  CHG  3   5  -1  14   1  21  -1
M  END
>  <UniqueID>  (78) 
74

>  <SMILES>  (78) 
Cn1ccc(C(=O)/N=c2\cccc([C@@]3(C)C[C@](C)(C(=O)[N-]c4cc(C(F)(F)F)ccn4)C(=[NH2+])N3)[n-]2)n1

>  <Energy>  (78) 
109.89969732343997

>  <Genealogy>  (78) 
Cn1ccc(C(=O)N=c2cccc(C3(C)CC(C)(C(=O)[N-]c4cc(C(F)(F)F)ccn4)C(=[NH2+])N3)[n-]2)n1 (protonated)
Cn1ccc(C(=O)N=c2cccc([C@@]3(C)C[C@](C)(C(=O)[N-]c4cc(C(F)(F)F)ccn4)C(=[NH2+])N3)[n-]2)n1 (chirality)
Cn1ccc(C(=O)/N=c2\cccc([C@@]3(C)C[C@](C)(C(=O)[N-]c4cc(C(F)(F)F)ccn4)C(=[NH2+])N3)[n-]2)n1 (cis-trans isomerization)
Cn1ccc(C(=O)/N=c2\cccc([C@@]3(C)C[C@](C)(C(=O)[N-]c4cc(C(F)(F)F)ccn4)C(=[NH2+])N3)[n-]2)n1 (3D coordinates assigned)
Cn1ccc(C(=O)/N=c2\cccc([C@@]3(C)C[C@](C)(C(=O)[N-]c4cc(C(F)(F)F)ccn4)C(=[NH2+])N3)[n-]2)n1 (nonaromatic ring conformer: 109.89969732343997 kcal/mol)

>  <smiles>  (78) 
Cn1ccc(C(=O)N=c2cccc(C3(C)CC(C)(C(=O)Nc4cc(C(F)(F)F)ccn4)C(=N)N3)[nH]2)n1

>  <score_type>  (78) 
oracle

>  <origin>  (78) 
adg

>  <m_score__min__energy>  (78) 
-10.01

>  <m_primary>  (78) 
energy

$$$$
79:0
     RDKit          3D

 61 65  0  0  0  0  0  0  0  0999 V2000
   56.5810   22.1710   42.9840 C   0  0  0  0  0  0  0  0  0  0  0  0
   55.6930   23.3820   43.3090 C   0  0  0  0  0  0  0  0  0  0  0  0
   54.5890   22.9960   44.1270 O   0  0  0  0  0  0  0  0  0  0  0  0
   54.3990   23.4580   45.4370 C   0  0  0  0  0  0  0  0  0  0  0  0
   54.3920   24.7060   45.6640 O   0  0  0  0  0  0  0  0  0  0  0  0
   54.1570   22.4980   46.5550 C   0  0  0  0  0  0  0  0  0  0  0  0
   52.8800   22.4740   47.1540 C   0  0  0  0  0  0  0  0  0  0  0  0
   52.5690   21.5500   48.1550 C   0  0  0  0  0  0  0  0  0  0  0  0
   53.5200   20.6190   48.5680 C   0  0  0  0  0  0  0  0  0  0  0  0
   54.7930   20.6230   47.9960 C   0  0  0  0  0  0  0  0  0  0  0  0
   55.1340   21.5640   47.0060 C   0  0  0  0  0  0  0  0  0  0  0  0
   56.5190   21.5490   46.5070 C   0  0  0  0  0  0  0  0  0  0  0  0
   56.8930   20.6170   45.7450 O   0  0  0  0  0  0  0  0  0  0  0  0
   57.4260   22.5170   46.9620 O   0  0  0  0  0  0  0  0  0  0  0  0
   57.4460   23.8570   46.5440 C   0  0  0  0  0  0  0  0  0  0  0  0
   57.9840   24.2480   45.3010 C   0  0  0  0  0  0  0  0  0  0  0  0
   57.9870   25.5960   44.9250 C   0  0  0  0  0  0  0  0  0  0  0  0
   57.4900   26.5750   45.8030 C   0  0  0  0  0  0  0  0  0  0  0  0
   57.4670   27.9580   45.4250 N   0  0  0  0  0  0  0  0  0  0  0  0
   58.0350   28.9430   46.0600 C   0  0  0  0  0  0  0  0  0  0  0  0
   57.7940   30.3510   45.7830 C   0  0  0  0  0  0  0  0  0  0  0  0
   57.0080   30.7960   44.9090 O   0  0  0  0  0  0  0  0  0  0  0  0
   58.6510   31.1710   46.5820 N   0  0  0  0  0  0  0  0  0  0  0  0
   58.8770   32.5830   46.4170 C   0  0  0  0  0  0  0  0  0  0  0  0
   58.9500   33.1460   45.1260 C   0  0  0  0  0  0  0  0  0  0  0  0
   59.1700   34.5220   44.9680 C   0  0  0  0  0  0  0  0  0  0  0  0
   59.3160   35.3440   46.0900 C   0  0  0  0  0  0  0  0  0  0  0  0
   59.2370   34.7910   47.3740 C   0  0  0  0  0  0  0  0  0  0  0  0
   59.0170   33.4140   47.5390 C   0  0  0  0  0  0  0  0  0  0  0  0
   58.9700   32.8890   48.7900 F   0  0  0  0  0  0  0  0  0  0  0  0
   59.4180   30.2510   47.3670 C   0  0  0  0  0  0  0  0  0  0  0  0
   60.3320   30.5790   48.3760 C   0  0  0  0  0  0  0  0  0  0  0  0
   60.9080   29.5420   49.1390 C   0  0  0  0  0  0  0  0  0  0  0  0
   61.8720   29.8470   50.1690 N   0  0  0  0  0  0  0  0  0  0  0  0
   62.5480   30.9030   50.1210 O   0  0  0  0  0  0  0  0  0  0  0  0
   62.0790   28.9700   51.2120 O   0  0  0  0  0  0  0  0  0  0  0  0
   60.5090   28.2020   48.8980 C   0  0  0  0  0  0  0  0  0  0  0  0
   59.5720   27.8950   47.9020 C   0  0  0  0  0  0  0  0  0  0  0  0
   59.0680   28.9310   47.1130 C   0  0  0  0  0  0  0  0  0  0  0  0
   56.8930   26.1790   47.0080 C   0  0  0  0  0  0  0  0  0  0  0  0
   56.8740   24.8280   47.3760 C   0  0  0  0  0  0  0  0  0  0  0  0
   56.9226   21.7051   43.9201 H   0  0  0  0  0  0  0  0  0  0  0  0
   56.0038   21.4393   42.3996 H   0  0  0  0  0  0  0  0  0  0  0  0
   57.4523   22.5016   42.3996 H   0  0  0  0  0  0  0  0  0  0  0  0
   56.2914   24.1351   43.8427 H   0  0  0  0  0  0  0  0  0  0  0  0
   55.3056   23.7980   42.3673 H   0  0  0  0  0  0  0  0  0  0  0  0
   52.1161   23.1950   46.8275 H   0  0  0  0  0  0  0  0  0  0  0  0
   51.5712   21.5576   48.6180 H   0  0  0  0  0  0  0  0  0  0  0  0
   53.2676   19.8816   49.3442 H   0  0  0  0  0  0  0  0  0  0  0  0
   55.5382   19.8826   48.3223 H   0  0  0  0  0  0  0  0  0  0  0  0
   58.4035   23.4898   44.6233 H   0  0  0  0  0  0  0  0  0  0  0  0
   58.3791   25.8902   43.9403 H   0  0  0  0  0  0  0  0  0  0  0  0
   58.8340   32.5039   44.2404 H   0  0  0  0  0  0  0  0  0  0  0  0
   59.2279   34.9559   43.9589 H   0  0  0  0  0  0  0  0  0  0  0  0
   59.4925   36.4224   45.9641 H   0  0  0  0  0  0  0  0  0  0  0  0
   59.3477   35.4378   48.2568 H   0  0  0  0  0  0  0  0  0  0  0  0
   60.5966   31.6289   48.5704 H   0  0  0  0  0  0  0  0  0  0  0  0
   60.9419   27.3912   49.5024 H   0  0  0  0  0  0  0  0  0  0  0  0
   59.2401   26.8581   47.7449 H   0  0  0  0  0  0  0  0  0  0  0  0
   56.4376   26.9327   47.6672 H   0  0  0  0  0  0  0  0  0  0  0  0
   56.4066   24.5271   48.3252 H   0  0  0  0  0  0  0  0  0  0  0  0
  1  2  1  0
  2  3  1  0
  3  4  1  0
  4  5  2  0
  4  6  1  0
  6  7  2  0
  7  8  1  0
  8  9  2  0
  9 10  1  0
 10 11  2  0
 11 12  1  0
 12 13  2  0
 12 14  1  0
 14 15  1  0
 15 16  2  0
 16 17  1  0
 17 18  2  0
 18 19  1  0
 19 20  2  3
 20 21  1  0
 21 22  2  0
 21 23  1  0
 23 24  1  0
 24 25  2  0
 25 26  1  0
 26 27  2  0
 27 28  1  0
 28 29  2  0
 29 30  1  0
 23 31  1  0
 31 32  2  0
 32 33  1  0
 33 34  1  0
 34 35  2  0
 34 36  1  0
 33 37  2  0
 37 38  1  0
 38 39  2  0
 18 40  1  0
 40 41  2  0
 11  6  1  0
 41 15  1  0
 39 20  1  0
 29 24  1  0
 39 31  1  0
  1 42  1  0
  1 43  1  0
  1 44  1  0
  2 45  1  0
  2 46  1  0
  7 47  1  0
  8 48  1  0
  9 49  1  0
 10 50  1  0
 16 51  1  0
 17 52  1  0
 25 53  1  0
 26 54  1  0
 27 55  1  0
 28 56  1  0
 32 57  1  0
 37 58  1  0
 38 59  1  0
 40 60  1  0
 41 61  1  0
M  CHG  2  34   1  36  -1
M  END
>  <UniqueID>  (79) 
75

>  <SMILES>  (79) 
CCOC(=O)c1ccccc1C(=O)Oc1ccc(N=C2C(=O)N(c3ccccc3F)c3cc([N+](=O)[O-])ccc32)cc1

>  <Energy>  (79) 
125.83506858327847

>  <Genealogy>  (79) 
CCOC(=O)c1ccccc1C(=O)Oc1ccc(N=C2C(=O)N(c3ccccc3F)c3cc([N+](=O)[O-])ccc32)cc1 (3D coordinates assigned)
CCOC(=O)c1ccccc1C(=O)Oc1ccc(N=C2C(=O)N(c3ccccc3F)c3cc([N+](=O)[O-])ccc32)cc1 (nonaromatic ring conformer: 125.83506858327847 kcal/mol)

>  <smiles>  (79) 
CCOC(=O)c1ccccc1C(=O)Oc1ccc(N=C2C(=O)N(c3ccccc3F)c3cc([N+](=O)[O-])ccc32)cc1

>  <score_type>  (79) 
oracle

>  <origin>  (79) 
adg

>  <m_score__min__energy>  (79) 
-9.0700000000000003

>  <m_primary>  (79) 
energy

$$$$
80:0
     RDKit          3D

 59 62  0  0  0  0  0  0  0  0999 V2000
   60.9330   31.5090   46.6140 O   0  0  0  0  0  0  0  0  0  0  0  0
   60.1590   30.6290   47.0960 C   0  0  0  0  0  0  0  0  0  0  0  0
   58.7990   30.5420   46.6470 N   0  0  0  0  0  0  0  0  0  0  0  0
   58.3530   31.2380   45.4770 C   0  0  0  0  0  0  0  0  0  0  0  0
   58.2850   30.5530   44.2560 C   0  0  0  0  0  0  0  0  0  0  0  0
   57.8400   31.2040   43.1040 C   0  0  0  0  0  0  0  0  0  0  0  0
   57.4790   32.5490   43.1580 C   0  0  0  0  0  0  0  0  0  0  0  0
   57.5560   33.2450   44.3660 C   0  0  0  0  0  0  0  0  0  0  0  0
   57.9690   32.5960   45.5420 C   0  0  0  0  0  0  0  0  0  0  0  0
   58.1040   33.3710   46.7950 C   0  0  0  0  0  0  0  0  0  0  0  0
   57.4120   33.0480   47.8000 O   0  0  0  0  0  0  0  0  0  0  0  0
   59.0190   34.4680   46.9130 N   0  0  0  0  0  0  0  0  0  0  0  0
   60.2440   34.6070   46.1300 C   0  0  0  0  0  0  0  0  0  0  0  0
   61.4150   34.1520   46.9590 C   0  0  0  0  0  0  0  0  0  0  0  0
   61.3070   34.0830   48.3610 C   0  0  0  0  0  0  0  0  0  0  0  0
   62.4040   33.6790   49.1310 C   0  0  0  0  0  0  0  0  0  0  0  0
   63.6180   33.3540   48.5110 C   0  0  0  0  0  0  0  0  0  0  0  0
   63.7390   33.4400   47.1200 C   0  0  0  0  0  0  0  0  0  0  0  0
   62.6440   33.8380   46.3450 C   0  0  0  0  0  0  0  0  0  0  0  0
   60.6130   29.7450   48.0830 O   0  0  0  0  0  0  0  0  0  0  0  0
   60.7200   28.3350   47.8790 C   0  0  0  0  0  0  0  0  0  0  0  0
   59.5810   27.6040   48.6300 C   0  0  0  0  0  0  0  0  0  0  0  0
   58.3520   27.3640   47.7440 C   0  0  0  0  0  0  0  0  0  0  0  0
   58.7170   26.6300   46.5190 N   0  0  0  0  0  0  0  0  0  0  0  0
   57.7540   25.7960   45.8390 C   0  0  0  0  0  0  0  0  0  0  0  0
   58.0590   25.1700   44.6200 C   0  0  0  0  0  0  0  0  0  0  0  0
   57.1000   24.3750   43.9890 C   0  0  0  0  0  0  0  0  0  0  0  0
   55.8380   24.1950   44.5710 C   0  0  0  0  0  0  0  0  0  0  0  0
   54.8150   23.3510   43.9190 C   0  0  0  0  0  0  0  0  0  0  0  0
   53.6440   23.2820   44.3880 O   0  0  0  0  0  0  0  0  0  0  0  0
   55.1300   22.6220   42.7810 O   0  0  0  0  0  0  0  0  0  0  0  0
   55.5760   24.8260   45.7970 C   0  0  0  0  0  0  0  0  0  0  0  0
   56.5250   25.5970   46.3900 N   0  0  0  0  0  0  0  0  0  0  0  0
   60.1040   26.6870   46.0260 C   0  0  0  0  0  0  0  0  0  0  0  0
   60.7300   28.0430   46.3630 C   0  0  0  0  0  0  0  0  0  0  0  0
   58.1050   29.9710   47.1950 H   0  0  0  0  0  0  0  0  0  0  0  0
   58.5842   29.4957   44.2052 H   0  0  0  0  0  0  0  0  0  0  0  0
   57.7743   30.6550   42.1531 H   0  0  0  0  0  0  0  0  0  0  0  0
   57.1333   33.0624   42.2487 H   0  0  0  0  0  0  0  0  0  0  0  0
   57.2907   34.3121   44.3974 H   0  0  0  0  0  0  0  0  0  0  0  0
   60.1730   33.9889   45.2229 H   0  0  0  0  0  0  0  0  0  0  0  0
   60.3815   35.6598   45.8423 H   0  0  0  0  0  0  0  0  0  0  0  0
   60.3589   34.3470   48.8522 H   0  0  0  0  0  0  0  0  0  0  0  0
   62.3129   33.6165   50.2254 H   0  0  0  0  0  0  0  0  0  0  0  0
   64.4763   33.0311   49.1185 H   0  0  0  0  0  0  0  0  0  0  0  0
   64.6954   33.1946   46.6352 H   0  0  0  0  0  0  0  0  0  0  0  0
   62.7430   33.9061   45.2516 H   0  0  0  0  0  0  0  0  0  0  0  0
   61.6641   27.9529   48.2945 H   0  0  0  0  0  0  0  0  0  0  0  0
   59.9574   26.6321   48.9817 H   0  0  0  0  0  0  0  0  0  0  0  0
   59.2687   28.2444   49.4681 H   0  0  0  0  0  0  0  0  0  0  0  0
   57.6118   26.7771   48.3076 H   0  0  0  0  0  0  0  0  0  0  0  0
   57.9331   28.3393   47.4555 H   0  0  0  0  0  0  0  0  0  0  0  0
   59.0505   25.3054   44.1633 H   0  0  0  0  0  0  0  0  0  0  0  0
   57.3361   23.8881   43.0313 H   0  0  0  0  0  0  0  0  0  0  0  0
   54.5967   24.6957   46.2807 H   0  0  0  0  0  0  0  0  0  0  0  0
   60.6915   25.8875   46.5010 H   0  0  0  0  0  0  0  0  0  0  0  0
   60.1024   26.5540   44.9341 H   0  0  0  0  0  0  0  0  0  0  0  0
   61.7714   28.0492   46.0089 H   0  0  0  0  0  0  0  0  0  0  0  0
   60.1313   28.8214   45.8674 H   0  0  0  0  0  0  0  0  0  0  0  0
  1  2  2  0
  2  3  1  0
  3  4  1  0
  4  5  2  0
  5  6  1  0
  6  7  2  0
  7  8  1  0
  8  9  2  0
  9 10  1  0
 10 11  2  0
 10 12  1  0
 12 13  1  0
 13 14  1  0
 14 15  2  0
 15 16  1  0
 16 17  2  0
 17 18  1  0
 18 19  2  0
  2 20  1  0
 20 21  1  0
 21 22  1  0
 22 23  1  0
 23 24  1  0
 24 25  1  0
 25 26  2  0
 26 27  1  0
 27 28  2  0
 28 29  1  0
 29 30  2  0
 29 31  1  0
 28 32  1  0
 32 33  2  0
 24 34  1  0
 34 35  1  0
  9  4  1  0
 19 14  1  0
 35 21  1  0
 33 25  1  0
  3 36  1  0
  5 37  1  0
  6 38  1  0
  7 39  1  0
  8 40  1  0
 13 41  1  0
 13 42  1  0
 15 43  1  0
 16 44  1  0
 17 45  1  0
 18 46  1  0
 19 47  1  0
 21 48  1  0
 22 49  1  0
 22 50  1  0
 23 51  1  0
 23 52  1  0
 26 53  1  0
 27 54  1  0
 32 55  1  0
 34 56  1  0
 34 57  1  0
 35 58  1  0
 35 59  1  0
M  CHG  2  12  -1  31  -1
M  END
>  <UniqueID>  (80) 
76

>  <SMILES>  (80) 
O=C(Nc1ccccc1C(=O)[N-]Cc1ccccc1)OC1CCN(c2ccc(C(=O)[O-])cn2)CC1

>  <Energy>  (80) 
77.96594587235029

>  <Genealogy>  (80) 
O=C(Nc1ccccc1C(=O)[N-]Cc1ccccc1)OC1CCN(c2ccc(C(=O)[O-])cn2)CC1 (protonated)
O=C(Nc1ccccc1C(=O)[N-]Cc1ccccc1)OC1CCN(c2ccc(C(=O)[O-])cn2)CC1 (3D coordinates assigned)
O=C(Nc1ccccc1C(=O)[N-]Cc1ccccc1)OC1CCN(c2ccc(C(=O)[O-])cn2)CC1 (nonaromatic ring conformer: 77.96594587235029 kcal/mol)

>  <smiles>  (80) 
O=C(Nc1ccccc1C(=O)NCc1ccccc1)OC1CCN(c2ccc(C(=O)O)cn2)CC1

>  <score_type>  (80) 
oracle

>  <origin>  (80) 
adg

>  <m_score__min__energy>  (80) 
-11.02

>  <m_primary>  (80) 
energy

$$$$
81:0
     RDKit          3D

 36 38  0  0  1  0  0  0  0  0999 V2000
   58.2930   24.4460   45.7530 C   0  0  0  0  0  0  0  0  0  0  0  0
   57.8670   25.4800   46.5770 O   0  0  0  0  0  0  0  0  0  0  0  0
   57.8700   26.8130   46.1950 C   0  0  0  0  0  0  0  0  0  0  0  0
   56.7210   27.3040   45.6240 C   0  0  0  0  0  0  0  0  0  0  0  0
   56.7300   28.6230   45.2510 C   0  0  0  0  0  0  0  0  0  0  0  0
   55.6100   29.1090   44.6910 N   0  0  0  0  0  0  0  0  0  0  0  0
   55.6040   30.3960   44.3230 C   0  0  0  0  0  0  0  0  0  0  0  0
   56.6580   31.1910   44.4930 N   0  0  0  0  0  0  0  0  0  0  0  0
   57.7950   30.6870   45.0630 C   0  0  0  0  0  0  0  0  0  0  0  0
   58.7430   31.4610   45.2050 N   0  0  0  0  0  0  0  0  0  0  0  0
   58.8580   32.7130   45.6980 C   0  0  0  0  0  0  0  0  0  0  0  0
   58.9600   33.8360   44.8370 C   0  0  0  0  0  0  0  0  0  0  0  0
   59.1960   35.0790   45.3840 C   0  0  0  0  0  0  0  0  0  0  0  0
   59.3400   35.2940   46.7390 C   0  0  0  0  0  0  0  0  0  0  0  0
   59.2400   34.2010   47.5660 C   0  0  0  0  0  0  0  0  0  0  0  0
   59.0040   32.9170   47.0940 C   0  0  0  0  0  0  0  0  0  0  0  0
   58.8870   31.5710   48.2060 Cl  0  0  0  0  0  0  0  0  0  0  0  0
   57.8690   29.3840   45.4630 C   0  0  0  0  0  0  0  0  0  0  0  0
   58.9930   28.8640   46.0330 C   0  0  0  0  0  0  0  0  0  0  0  0
   59.0090   27.5140   46.4240 C   0  0  0  0  0  0  0  0  0  0  0  0
   60.1180   26.9260   47.0080 O   0  0  0  0  0  0  0  0  0  0  0  0
   60.3900   27.1350   48.3940 C   0  0  0  0  0  0  0  0  0  0  0  0
   58.6398   23.6043   46.3704 H   0  0  0  0  0  0  0  0  0  0  0  0
   57.4578   24.1153   45.1180 H   0  0  0  0  0  0  0  0  0  0  0  0
   59.1187   24.7996   45.1180 H   0  0  0  0  0  0  0  0  0  0  0  0
   55.8357   26.6688   45.4733 H   0  0  0  0  0  0  0  0  0  0  0  0
   54.7680   28.5320   44.5390 H   0  0  0  0  0  0  0  0  0  0  0  0
   54.6951   30.8117   43.8635 H   0  0  0  0  0  0  0  0  0  0  0  0
   58.8523   33.7165   43.7488 H   0  0  0  0  0  0  0  0  0  0  0  0
   59.2733   35.9422   44.7066 H   0  0  0  0  0  0  0  0  0  0  0  0
   59.5274   36.3004   47.1415 H   0  0  0  0  0  0  0  0  0  0  0  0
   59.3519   34.3502   48.6501 H   0  0  0  0  0  0  0  0  0  0  0  0
   59.8803   29.4959   46.1857 H   0  0  0  0  0  0  0  0  0  0  0  0
   59.6616   26.5753   48.9991 H   0  0  0  0  0  0  0  0  0  0  0  0
   61.4062   26.7832   48.6254 H   0  0  0  0  0  0  0  0  0  0  0  0
   60.3118   28.2075   48.6254 H   0  0  0  0  0  0  0  0  0  0  0  0
  1  2  1  0
  2  3  1  0
  3  4  2  0
  4  5  1  0
  5  6  1  0
  6  7  1  0
  7  8  2  0
  8  9  1  0
  9 10  2  0
 10 11  1  0
 11 12  2  0
 12 13  1  0
 13 14  2  0
 14 15  1  0
 15 16  2  0
 16 17  1  0
  9 18  1  0
 18 19  1  0
 19 20  2  0
 20 21  1  0
 21 22  1  0
 20  3  1  0
 18  5  2  0
 16 11  1  0
  1 23  1  0
  1 24  1  0
  1 25  1  0
  4 26  1  0
  6 27  1  0
  7 28  1  0
 12 29  1  0
 13 30  1  0
 14 31  1  0
 15 32  1  0
 19 33  1  0
 22 34  1  0
 22 35  1  0
 22 36  1  0
M  END
>  <smiles>  (81) 
COc1cc2[nH]cnc(=Nc3ccccc3Cl)c2cc1OC

>  <score_type>  (81) 
oracle

>  <origin>  (81) 
adg

>  <m_score__min__energy>  (81) 
-7.1900000000000004

>  <m_primary>  (81) 
energy

$$$$
82:0
     RDKit          3D

 61 63  0  0  0  0  0  0  0  0999 V2000
   58.2660   30.4630   50.5430 C   0  0  0  0  0  0  0  0  0  0  0  0
   58.4330   31.9220   50.9630 C   0  0  0  0  0  0  0  0  0  0  0  0
   59.9080   32.2940   51.1930 C   0  0  1  0  0  0  0  0  0  0  0  0
   60.0090   33.4910   52.1510 C   0  0  0  0  0  0  0  0  0  0  0  0
   60.6210   31.1440   51.7580 N   0  0  0  0  0  0  0  0  0  0  0  0
   61.8140   30.5890   51.1880 C   0  0  0  0  0  0  0  0  0  0  0  0
   62.0120   29.3470   51.2660 O   0  0  0  0  0  0  0  0  0  0  0  0
   62.7610   31.4800   50.4580 C   0  0  0  0  0  0  0  0  0  0  0  0
   63.8300   32.0010   51.2080 C   0  0  0  0  0  0  0  0  0  0  0  0
   64.7890   32.8150   50.6260 C   0  0  0  0  0  0  0  0  0  0  0  0
   64.7300   33.0990   49.2720 C   0  0  0  0  0  0  0  0  0  0  0  0
   63.6950   32.5890   48.4720 C   0  0  0  0  0  0  0  0  0  0  0  0
   63.7600   32.8840   46.9930 C   0  0  0  0  0  0  0  0  0  0  0  0
   62.6610   31.8010   49.0670 C   0  0  0  0  0  0  0  0  0  0  0  0
   61.2750   31.2030   48.0980 S   0  0  0  0  0  0  0  0  0  0  0  0
   61.6360   30.8060   46.6940 O   0  0  0  0  0  0  0  0  0  0  0  0
   60.7300   29.9920   48.7910 O   0  0  0  0  0  0  0  0  0  0  0  0
   60.0230   32.4070   48.0160 N   0  0  0  0  0  0  0  0  0  0  0  0
   59.3130   32.8180   46.8420 C   0  0  0  0  0  0  0  0  0  0  0  0
   59.6010   34.0140   46.1680 C   0  0  0  0  0  0  0  0  0  0  0  0
   58.8130   34.4180   45.0860 C   0  0  0  0  0  0  0  0  0  0  0  0
   57.7320   33.6370   44.6700 C   0  0  0  0  0  0  0  0  0  0  0  0
   57.4590   32.4190   45.3050 C   0  0  0  0  0  0  0  0  0  0  0  0
   56.3390   31.6440   44.8580 N   0  0  0  0  0  0  0  0  0  0  0  0
   56.4310   30.0300   44.2340 S   0  0  0  0  0  0  0  0  0  0  0  0
   56.6460   30.1040   42.7490 O   0  0  0  0  0  0  0  0  0  0  0  0
   55.1200   29.3400   44.4900 O   0  0  0  0  0  0  0  0  0  0  0  0
   57.7110   29.0960   45.0100 C   0  0  0  0  0  0  0  0  0  0  0  0
   59.0520   29.2740   44.6240 C   0  0  0  0  0  0  0  0  0  0  0  0
   60.0650   28.5200   45.2310 C   0  0  0  0  0  0  0  0  0  0  0  0
   59.7460   27.5900   46.2430 C   0  0  0  0  0  0  0  0  0  0  0  0
   60.8350   26.7570   46.8630 C   0  0  0  0  0  0  0  0  0  0  0  0
   58.4050   27.4050   46.6180 C   0  0  0  0  0  0  0  0  0  0  0  0
   57.3920   28.1600   46.0090 C   0  0  0  0  0  0  0  0  0  0  0  0
   58.2640   32.0100   46.3840 C   0  0  0  0  0  0  0  0  0  0  0  0
   58.1935   29.8294   51.4393 H   0  0  0  0  0  0  0  0  0  0  0  0
   57.3498   30.3566   49.9436 H   0  0  0  0  0  0  0  0  0  0  0  0
   59.1344   30.1523   49.9436 H   0  0  0  0  0  0  0  0  0  0  0  0
   58.0238   32.5676   50.1720 H   0  0  0  0  0  0  0  0  0  0  0  0
   57.8963   32.0642   51.9126 H   0  0  0  0  0  0  0  0  0  0  0  0
   60.3635   32.5706   50.2307 H   0  0  0  0  0  0  0  0  0  0  0  0
   59.9787   33.1323   53.1904 H   0  0  0  0  0  0  0  0  0  0  0  0
   60.9552   34.0233   51.9742 H   0  0  0  0  0  0  0  0  0  0  0  0
   59.1653   34.1743   51.9742 H   0  0  0  0  0  0  0  0  0  0  0  0
   63.9068   31.7577   52.2780 H   0  0  0  0  0  0  0  0  0  0  0  0
   65.5983   33.2361   51.2407 H   0  0  0  0  0  0  0  0  0  0  0  0
   65.5050   33.7331   48.8167 H   0  0  0  0  0  0  0  0  0  0  0  0
   63.9944   33.9480   46.8413 H   0  0  0  0  0  0  0  0  0  0  0  0
   64.5436   32.2662   46.5300 H   0  0  0  0  0  0  0  0  0  0  0  0
   62.7894   32.6528   46.5300 H   0  0  0  0  0  0  0  0  0  0  0  0
   60.4489   34.6356   46.4915 H   0  0  0  0  0  0  0  0  0  0  0  0
   59.0454   35.3555   44.5597 H   0  0  0  0  0  0  0  0  0  0  0  0
   57.0939   33.9794   43.8420 H   0  0  0  0  0  0  0  0  0  0  0  0
   59.3059   30.0068   43.8439 H   0  0  0  0  0  0  0  0  0  0  0  0
   61.1111   28.6533   44.9180 H   0  0  0  0  0  0  0  0  0  0  0  0
   60.7610   26.8136   47.9590 H   0  0  0  0  0  0  0  0  0  0  0  0
   60.7244   25.7108   46.5416 H   0  0  0  0  0  0  0  0  0  0  0  0
   61.8157   27.1376   46.5416 H   0  0  0  0  0  0  0  0  0  0  0  0
   58.1487   26.6660   47.3914 H   0  0  0  0  0  0  0  0  0  0  0  0
   56.3446   28.0192   46.3141 H   0  0  0  0  0  0  0  0  0  0  0  0
   58.0675   31.0448   46.8736 H   0  0  0  0  0  0  0  0  0  0  0  0
  1  2  1  0
  2  3  1  0
  3  4  1  0
  3  5  1  0
  5  6  1  0
  6  7  2  0
  6  8  1  0
  8  9  2  0
  9 10  1  0
 10 11  2  0
 11 12  1  0
 12 13  1  0
 12 14  2  0
 14 15  1  0
 15 16  2  0
 15 17  2  0
 15 18  1  0
 18 19  1  0
 19 20  2  0
 20 21  1  0
 21 22  2  0
 22 23  1  0
 23 24  1  0
 24 25  1  0
 25 26  2  0
 25 27  2  0
 25 28  1  0
 28 29  2  0
 29 30  1  0
 30 31  2  0
 31 32  1  0
 31 33  1  0
 33 34  2  0
 23 35  2  0
 14  8  1  0
 35 19  1  0
 34 28  1  0
  1 36  1  0
  1 37  1  0
  1 38  1  0
  2 39  1  0
  2 40  1  0
  3 41  1  6
  4 42  1  0
  4 43  1  0
  4 44  1  0
  9 45  1  0
 10 46  1  0
 11 47  1  0
 13 48  1  0
 13 49  1  0
 13 50  1  0
 20 51  1  0
 21 52  1  0
 22 53  1  0
 29 54  1  0
 30 55  1  0
 32 56  1  0
 32 57  1  0
 32 58  1  0
 33 59  1  0
 34 60  1  0
 35 61  1  0
M  CHG  3   5  -1  18  -1  24  -1
M  END
>  <UniqueID>  (82) 
77

>  <SMILES>  (82) 
CC[C@@H](C)[N-]C(=O)c1cccc(C)c1S(=O)(=O)[N-]c1cccc([N-]S(=O)(=O)c2ccc(C)cc2)c1

>  <Energy>  (82) 
75.10283402351222

>  <Genealogy>  (82) 
CCC(C)[N-]C(=O)c1cccc(C)c1S(=O)(=O)[N-]c1cccc([N-]S(=O)(=O)c2ccc(C)cc2)c1 (protonated)
CC[C@@H](C)[N-]C(=O)c1cccc(C)c1S(=O)(=O)[N-]c1cccc([N-]S(=O)(=O)c2ccc(C)cc2)c1 (chirality)
CC[C@@H](C)[N-]C(=O)c1cccc(C)c1S(=O)(=O)[N-]c1cccc([N-]S(=O)(=O)c2ccc(C)cc2)c1 (3D coordinates assigned)
CC[C@@H](C)[N-]C(=O)c1cccc(C)c1S(=O)(=O)[N-]c1cccc([N-]S(=O)(=O)c2ccc(C)cc2)c1 (optimized conformer: 75.10283402351222 kcal/mol)

>  <smiles>  (82) 
CCC(C)NC(=O)c1cccc(C)c1S(=O)(=O)Nc1cccc(NS(=O)(=O)c2ccc(C)cc2)c1

>  <score_type>  (82) 
oracle

>  <origin>  (82) 
adg

>  <m_score__min__energy>  (82) 
-15.25

>  <m_primary>  (82) 
energy

$$$$
83:0
     RDKit          3D

 54 57  0  0  0  0  0  0  0  0999 V2000
   63.8000   32.7830   46.8330 C   0  0  0  0  0  0  0  0  0  0  0  0
   63.0140   33.8500   47.3500 O   0  0  0  0  0  0  0  0  0  0  0  0
   61.6120   33.8390   47.4410 C   0  0  0  0  0  0  0  0  0  0  0  0
   60.7940   33.6910   46.3040 C   0  0  0  0  0  0  0  0  0  0  0  0
   59.3950   33.7200   46.4170 C   0  0  0  0  0  0  0  0  0  0  0  0
   58.5470   33.5580   45.2130 C   0  0  0  0  0  0  0  0  0  0  0  0
   58.8400   34.1850   44.1600 O   0  0  0  0  0  0  0  0  0  0  0  0
   57.3660   32.7440   45.2190 N   0  0  0  0  0  0  0  0  0  0  0  0
   57.2890   31.3590   44.8380 C   0  0  0  0  0  0  0  0  0  0  0  0
   56.6810   30.9870   43.6290 C   0  0  0  0  0  0  0  0  0  0  0  0
   56.6060   29.6480   43.2560 C   0  0  0  0  0  0  0  0  0  0  0  0
   57.1100   28.6540   44.0930 C   0  0  0  0  0  0  0  0  0  0  0  0
   57.6880   28.9850   45.3340 C   0  0  0  0  0  0  0  0  0  0  0  0
   58.1980   27.9870   46.2040 C   0  0  0  0  0  0  0  0  0  0  0  0
   58.0640   26.5890   45.8950 N   0  0  0  0  0  0  0  0  0  0  0  0
   56.5690   25.7340   46.0960 S   0  0  0  0  0  0  0  0  0  0  0  0
   56.3820   24.5150   44.8120 C   0  0  0  0  0  0  0  0  0  0  0  0
   56.5360   25.0720   47.4440 O   0  0  0  0  0  0  0  0  0  0  0  0
   55.4300   26.7090   45.9980 O   0  0  0  0  0  0  0  0  0  0  0  0
   58.8070   28.3690   47.4100 C   0  0  0  0  0  0  0  0  0  0  0  0
   58.9080   29.7120   47.7620 C   0  0  0  0  0  0  0  0  0  0  0  0
   58.4010   30.7010   46.9220 C   0  0  0  0  0  0  0  0  0  0  0  0
   57.7870   30.3570   45.7040 C   0  0  0  0  0  0  0  0  0  0  0  0
   58.8150   33.9340   47.6770 C   0  0  0  0  0  0  0  0  0  0  0  0
   59.6180   34.0750   48.8080 C   0  0  0  0  0  0  0  0  0  0  0  0
   61.0100   34.0020   48.7060 C   0  0  0  0  0  0  0  0  0  0  0  0
   61.7730   34.1360   49.8740 O   0  0  0  0  0  0  0  0  0  0  0  0
   62.8590   33.3190   50.2250 C   0  0  0  0  0  0  0  0  0  0  0  0
   62.6410   31.9460   50.3950 C   0  0  0  0  0  0  0  0  0  0  0  0
   63.6990   31.1000   50.7370 C   0  0  0  0  0  0  0  0  0  0  0  0
   64.9870   31.6190   50.9020 C   0  0  0  0  0  0  0  0  0  0  0  0
   65.2170   32.9850   50.7190 C   0  0  0  0  0  0  0  0  0  0  0  0
   64.1620   33.8340   50.3760 C   0  0  0  0  0  0  0  0  0  0  0  0
   64.2261   32.2045   47.6659 H   0  0  0  0  0  0  0  0  0  0  0  0
   63.1677   32.1270   46.2167 H   0  0  0  0  0  0  0  0  0  0  0  0
   64.6139   33.1924   46.2167 H   0  0  0  0  0  0  0  0  0  0  0  0
   61.2568   33.5511   45.3159 H   0  0  0  0  0  0  0  0  0  0  0  0
   56.2599   31.7607   42.9701 H   0  0  0  0  0  0  0  0  0  0  0  0
   56.1464   29.3728   42.2953 H   0  0  0  0  0  0  0  0  0  0  0  0
   57.0558   27.6005   43.7812 H   0  0  0  0  0  0  0  0  0  0  0  0
   58.8970   26.0400   45.5900 H   0  0  0  0  0  0  0  0  0  0  0  0
   56.2301   23.5246   45.2660 H   0  0  0  0  0  0  0  0  0  0  0  0
   55.5124   24.7698   44.1884 H   0  0  0  0  0  0  0  0  0  0  0  0
   57.2880   24.4974   44.1884 H   0  0  0  0  0  0  0  0  0  0  0  0
   59.2088   27.5984   48.0843 H   0  0  0  0  0  0  0  0  0  0  0  0
   59.3911   29.9940   48.7092 H   0  0  0  0  0  0  0  0  0  0  0  0
   58.4814   31.7587   47.2133 H   0  0  0  0  0  0  0  0  0  0  0  0
   57.7206   33.9908   47.7728 H   0  0  0  0  0  0  0  0  0  0  0  0
   59.1517   34.2453   49.7896 H   0  0  0  0  0  0  0  0  0  0  0  0
   61.6313   31.5314   50.2585 H   0  0  0  0  0  0  0  0  0  0  0  0
   63.5185   30.0239   50.8767 H   0  0  0  0  0  0  0  0  0  0  0  0
   65.8182   30.9525   51.1756 H   0  0  0  0  0  0  0  0  0  0  0  0
   66.2308   33.3927   50.8453 H   0  0  0  0  0  0  0  0  0  0  0  0
   64.3488   34.9072   50.2234 H   0  0  0  0  0  0  0  0  0  0  0  0
  1  2  1  0
  2  3  1  0
  3  4  2  0
  4  5  1  0
  5  6  1  0
  6  7  2  0
  6  8  1  0
  8  9  1  0
  9 10  2  0
 10 11  1  0
 11 12  2  0
 12 13  1  0
 13 14  2  0
 14 15  1  0
 15 16  1  0
 16 17  1  0
 16 18  2  0
 16 19  2  0
 14 20  1  0
 20 21  2  0
 21 22  1  0
 22 23  2  0
  5 24  2  0
 24 25  1  0
 25 26  2  0
 26 27  1  0
 27 28  1  0
 28 29  2  0
 29 30  1  0
 30 31  2  0
 31 32  1  0
 32 33  2  0
 26  3  1  0
 33 28  1  0
 23  9  1  0
 23 13  1  0
  1 34  1  0
  1 35  1  0
  1 36  1  0
  4 37  1  0
 10 38  1  0
 11 39  1  0
 12 40  1  0
 15 41  1  0
 17 42  1  0
 17 43  1  0
 17 44  1  0
 20 45  1  0
 21 46  1  0
 22 47  1  0
 24 48  1  0
 25 49  1  0
 29 50  1  0
 30 51  1  0
 31 52  1  0
 32 53  1  0
 33 54  1  0
M  CHG  1   8  -1
M  END
>  <UniqueID>  (83) 
78

>  <SMILES>  (83) 
COc1cc(C(=O)[N-]c2cccc3c(NS(C)(=O)=O)cccc23)ccc1Oc1ccccc1

>  <Energy>  (83) 
78.85977958939455

>  <Genealogy>  (83) 
COc1cc(C(=O)[N-]c2cccc3c(NS(C)(=O)=O)cccc23)ccc1Oc1ccccc1 (protonated)
COc1cc(C(=O)[N-]c2cccc3c(NS(C)(=O)=O)cccc23)ccc1Oc1ccccc1 (3D coordinates assigned)
COc1cc(C(=O)[N-]c2cccc3c(NS(C)(=O)=O)cccc23)ccc1Oc1ccccc1 (optimized conformer: 78.85977958939455 kcal/mol)

>  <smiles>  (83) 
COc1cc(C(=O)Nc2cccc3c(NS(C)(=O)=O)cccc23)ccc1Oc1ccccc1

>  <score_type>  (83) 
oracle

>  <origin>  (83) 
adg

>  <m_score__min__energy>  (83) 
-10.859999999999999

>  <m_primary>  (83) 
energy

$$$$
84:0
     RDKit          3D

 46 48  0  0  0  0  0  0  0  0999 V2000
   53.4079   24.1804   43.4113 H   0  0  0  0  0  0  0  0  0  0  0  0
   53.6360   24.0950   44.4840 C   0  0  0  0  0  0  0  0  0  0  0  0
   52.6570   23.8330   45.3020 N   0  0  0  0  0  0  0  0  0  0  0  0
   52.5130   22.6410   46.1390 C   0  0  0  0  0  0  0  0  0  0  0  0
   51.6201   22.7547   46.7713 H   0  0  0  0  0  0  0  0  0  0  0  0
   52.4183   21.7665   45.4785 H   0  0  0  0  0  0  0  0  0  0  0  0
   53.7160   22.4350   47.0240 C   0  0  0  0  0  0  0  0  0  0  0  0
   54.0240   21.1490   47.4950 C   0  0  0  0  0  0  0  0  0  0  0  0
   53.4384   20.2808   47.1584 H   0  0  0  0  0  0  0  0  0  0  0  0
   55.0780   20.9800   48.3930 C   0  0  0  0  0  0  0  0  0  0  0  0
   55.3243   19.9770   48.7715 H   0  0  0  0  0  0  0  0  0  0  0  0
   55.8190   22.0860   48.8100 C   0  0  0  0  0  0  0  0  0  0  0  0
   56.6532   21.9624   49.5163 H   0  0  0  0  0  0  0  0  0  0  0  0
   55.4900   23.3510   48.3210 C   0  0  0  0  0  0  0  0  0  0  0  0
   56.0750   24.2283   48.6341 H   0  0  0  0  0  0  0  0  0  0  0  0
   54.4480   23.5040   47.4580 N   0  0  0  0  0  0  0  0  0  0  0  0
   54.2080   24.4680   47.1360 H   0  0  0  0  0  0  0  0  0  0  0  0
   55.0370   24.2840   44.9170 C   0  0  0  0  0  0  0  0  0  0  0  0
   55.3990   25.4340   45.6320 C   0  0  0  0  0  0  0  0  0  0  0  0
   54.4030   26.3410   45.9920 O   0  0  0  0  0  0  0  0  0  0  0  0
   56.7110   25.6640   45.9760 N   0  0  0  0  0  0  0  0  0  0  0  0
   57.0600   26.8930   46.7250 C   0  0  0  0  0  0  0  0  0  0  0  0
   56.1385   27.4575   46.9302 H   0  0  0  0  0  0  0  0  0  0  0  0
   57.5585   26.5920   47.6582 H   0  0  0  0  0  0  0  0  0  0  0  0
   58.0270   27.7910   45.9390 C   0  0  0  0  0  0  0  0  0  0  0  0
   59.0563   27.5585   46.2497 H   0  0  0  0  0  0  0  0  0  0  0  0
   57.8739   27.5916   44.8681 H   0  0  0  0  0  0  0  0  0  0  0  0
   57.7660   29.2820   46.1780 C   0  0  0  0  0  0  0  0  0  0  0  0
   56.8889   29.3946   46.8322 H   0  0  0  0  0  0  0  0  0  0  0  0
   58.6548   29.7249   46.6512 H   0  0  0  0  0  0  0  0  0  0  0  0
   57.5060   29.9930   44.8760 C   0  0  0  0  0  0  0  0  0  0  0  0
   56.6720   29.4150   43.9040 C   0  0  0  0  0  0  0  0  0  0  0  0
   56.2029   28.4384   44.0941 H   0  0  0  0  0  0  0  0  0  0  0  0
   56.4370   30.0780   42.6960 C   0  0  0  0  0  0  0  0  0  0  0  0
   55.7796   29.6246   41.9395 H   0  0  0  0  0  0  0  0  0  0  0  0
   57.0360   31.3160   42.4480 C   0  0  0  0  0  0  0  0  0  0  0  0
   56.8451   31.8384   41.4990 H   0  0  0  0  0  0  0  0  0  0  0  0
   57.8770   31.8910   43.4040 C   0  0  0  0  0  0  0  0  0  0  0  0
   58.3515   32.8633   43.2051 H   0  0  0  0  0  0  0  0  0  0  0  0
   58.1160   31.2310   44.6140 C   0  0  0  0  0  0  0  0  0  0  0  0
   58.7836   31.6827   45.3625 H   0  0  0  0  0  0  0  0  0  0  0  0
   57.6720   24.7420   45.6160 C   0  0  0  0  0  0  0  0  0  0  0  0
   59.2610   24.9340   45.9880 S   0  0  0  0  0  0  0  0  0  0  0  0
   57.3270   23.6410   44.9020 N   0  0  0  0  0  0  0  0  0  0  0  0
   56.0480   23.3980   44.5330 C   0  0  0  0  0  0  0  0  0  0  0  0
   55.7910   22.3890   43.8230 O   0  0  0  0  0  0  0  0  0  0  0  0
  1  2  1  0
  2  3  2  0
  3  4  1  0
  4  5  1  0
  4  6  1  0
  4  7  1  0
  7  8  2  0
  8  9  1  0
  8 10  1  0
 10 11  1  0
 10 12  2  0
 12 13  1  0
 12 14  1  0
 14 15  1  0
 14 16  2  0
 16 17  1  0
  2 18  1  0
 18 19  2  0
 19 20  1  0
 19 21  1  0
 21 22  1  0
 22 23  1  0
 22 24  1  0
 22 25  1  0
 25 26  1  0
 25 27  1  0
 25 28  1  0
 28 29  1  0
 28 30  1  0
 28 31  1  0
 31 32  2  0
 32 33  1  0
 32 34  1  0
 34 35  1  0
 34 36  2  0
 36 37  1  0
 36 38  1  0
 38 39  1  0
 38 40  2  0
 40 41  1  0
 21 42  1  0
 42 43  2  0
 42 44  1  0
 44 45  1  0
 45 46  2  0
 16  7  1  0
 45 18  1  0
 40 31  1  0
M  CHG  3  16   1  20  -1  44  -1
M  END
>  <UniqueID>  (84) 
79

>  <SMILES>  (84) 
O=c1[n-]c(=S)n(CCCc2ccccc2)c([O-])c1/C=N\Cc1cccc[nH+]1

>  <Energy>  (84) 
53.89295218393164

>  <Genealogy>  (84) 
O=c1[n-]c(=S)n(CCCc2ccccc2)c([O-])c1C=NCc1cccc[nH+]1 (protonated)
O=c1[n-]c(=S)n(CCCc2ccccc2)c([O-])c1/C=N\Cc1cccc[nH+]1 (cis-trans isomerization)
O=c1[n-]c(=S)n(CCCc2ccccc2)c([O-])c1/C=N\Cc1cccc[nH+]1 (3D coordinates assigned)
O=c1[n-]c(=S)n(CCCc2ccccc2)c([O-])c1/C=N\Cc1cccc[nH+]1 (optimized conformer: 53.89295218393164 kcal/mol)

>  <smiles>  (84) 
O=c1[nH]c(=S)n(CCCc2ccccc2)c(O)c1C=NCc1ccccn1

>  <score_type>  (84) 
oracle

>  <origin>  (84) 
adg

>  <m_score__min__energy>  (84) 
-10.92

>  <m_primary>  (84) 
energy

$$$$
85:0
     RDKit          3D

 45 48  0  0  0  0  0  0  0  0999 V2000
   58.1430   32.5400   42.6080 C   0  0  0  0  0  0  0  0  0  0  0  0
   57.8600   32.3900   44.0360 N   0  0  0  0  0  0  0  0  0  0  0  0
   57.9980   33.5300   44.9130 C   0  0  0  0  0  0  0  0  0  0  0  0
   57.1850   34.4910   44.8200 O   0  0  0  0  0  0  0  0  0  0  0  0
   59.0500   33.5900   45.9530 C   0  0  0  0  0  0  0  0  0  0  0  0
   58.7170   33.3670   47.2970 C   0  0  0  0  0  0  0  0  0  0  0  0
   59.7060   33.3930   48.2850 C   0  0  0  0  0  0  0  0  0  0  0  0
   61.0460   33.6540   47.9470 C   0  0  0  0  0  0  0  0  0  0  0  0
   62.0990   33.6710   48.9940 C   0  0  0  0  0  0  0  0  0  0  0  0
   63.4470   33.4450   48.6590 C   0  0  0  0  0  0  0  0  0  0  0  0
   64.4350   33.4620   49.6470 C   0  0  0  0  0  0  0  0  0  0  0  0
   64.0920   33.7050   50.9790 C   0  0  0  0  0  0  0  0  0  0  0  0
   65.0520   33.7210   51.9360 F   0  0  0  0  0  0  0  0  0  0  0  0
   62.7570   33.9310   51.3250 C   0  0  0  0  0  0  0  0  0  0  0  0
   61.7650   33.9140   50.3400 C   0  0  0  0  0  0  0  0  0  0  0  0
   61.3710   33.9000   46.6020 C   0  0  0  0  0  0  0  0  0  0  0  0
   60.3820   33.8750   45.6150 C   0  0  0  0  0  0  0  0  0  0  0  0
   57.2930   31.1510   44.5040 C   0  0  0  0  0  0  0  0  0  0  0  0
   55.9770   30.8350   44.1410 C   0  0  0  0  0  0  0  0  0  0  0  0
   55.4110   29.6140   44.5030 C   0  0  0  0  0  0  0  0  0  0  0  0
   56.1460   28.6840   45.2390 C   0  0  0  0  0  0  0  0  0  0  0  0
   55.5550   27.4690   45.5720 O   0  0  0  0  0  0  0  0  0  0  0  0
   57.4620   28.9830   45.6400 C   0  0  0  0  0  0  0  0  0  0  0  0
   58.2100   28.0610   46.3950 C   0  0  0  0  0  0  0  0  0  0  0  0
   59.5060   28.3730   46.8090 C   0  0  0  0  0  0  0  0  0  0  0  0
   60.0660   29.6080   46.4880 C   0  0  0  0  0  0  0  0  0  0  0  0
   59.3410   30.5370   45.7390 C   0  0  0  0  0  0  0  0  0  0  0  0
   58.0410   30.2340   45.2860 C   0  0  0  0  0  0  0  0  0  0  0  0
   59.1080   33.0515   42.4772 H   0  0  0  0  0  0  0  0  0  0  0  0
   58.1875   31.5471   42.1367 H   0  0  0  0  0  0  0  0  0  0  0  0
   57.3462   33.1342   42.1367 H   0  0  0  0  0  0  0  0  0  0  0  0
   57.6712   33.1704   47.5756 H   0  0  0  0  0  0  0  0  0  0  0  0
   59.4339   33.2079   49.3346 H   0  0  0  0  0  0  0  0  0  0  0  0
   63.7249   33.2536   47.6120 H   0  0  0  0  0  0  0  0  0  0  0  0
   65.4858   33.2835   49.3750 H   0  0  0  0  0  0  0  0  0  0  0  0
   62.4863   34.1225   52.3738 H   0  0  0  0  0  0  0  0  0  0  0  0
   60.7158   34.0918   50.6186 H   0  0  0  0  0  0  0  0  0  0  0  0
   62.4134   34.1142   46.3236 H   0  0  0  0  0  0  0  0  0  0  0  0
   60.6489   34.0798   44.5677 H   0  0  0  0  0  0  0  0  0  0  0  0
   55.3837   31.5592   43.5635 H   0  0  0  0  0  0  0  0  0  0  0  0
   54.3775   29.3818   44.2064 H   0  0  0  0  0  0  0  0  0  0  0  0
   57.7707   27.0882   46.6607 H   0  0  0  0  0  0  0  0  0  0  0  0
   60.0870   27.6419   47.3903 H   0  0  0  0  0  0  0  0  0  0  0  0
   61.0838   29.8521   46.8262 H   0  0  0  0  0  0  0  0  0  0  0  0
   59.7880   31.5134   45.5005 H   0  0  0  0  0  0  0  0  0  0  0  0
  1  2  1  0
  2  3  1  0
  3  4  2  0
  3  5  1  0
  5  6  2  0
  6  7  1  0
  7  8  2  0
  8  9  1  0
  9 10  2  0
 10 11  1  0
 11 12  2  0
 12 13  1  0
 12 14  1  0
 14 15  2  0
  8 16  1  0
 16 17  2  0
  2 18  1  0
 18 19  2  0
 19 20  1  0
 20 21  2  0
 21 22  1  0
 21 23  1  0
 23 24  2  0
 24 25  1  0
 25 26  2  0
 26 27  1  0
 27 28  2  0
 17  5  1  0
 28 18  1  0
 15  9  1  0
 28 23  1  0
  1 29  1  0
  1 30  1  0
  1 31  1  0
  6 32  1  0
  7 33  1  0
 10 34  1  0
 11 35  1  0
 14 36  1  0
 15 37  1  0
 16 38  1  0
 17 39  1  0
 19 40  1  0
 20 41  1  0
 24 42  1  0
 25 43  1  0
 26 44  1  0
 27 45  1  0
M  CHG  1  22  -1
M  END
>  <UniqueID>  (85) 
80

>  <SMILES>  (85) 
CN(C(=O)c1ccc(-c2ccc(F)cc2)cc1)c1ccc([O-])c2ccccc12

>  <Energy>  (85) 
69.60033384328526

>  <Genealogy>  (85) 
CN(C(=O)c1ccc(-c2ccc(F)cc2)cc1)c1ccc([O-])c2ccccc12 (protonated)
CN(C(=O)c1ccc(-c2ccc(F)cc2)cc1)c1ccc([O-])c2ccccc12 (3D coordinates assigned)
CN(C(=O)c1ccc(-c2ccc(F)cc2)cc1)c1ccc([O-])c2ccccc12 (optimized conformer: 69.60033384328526 kcal/mol)

>  <smiles>  (85) 
CN(C(=O)c1ccc(-c2ccc(F)cc2)cc1)c1ccc(O)c2ccccc12

>  <score_type>  (85) 
oracle

>  <origin>  (85) 
adg

>  <m_score__min__energy>  (85) 
-12.1

>  <m_primary>  (85) 
energy

$$$$
86:0
     RDKit          3D

 60 63  0  0  0  0  0  0  0  0999 V2000
   61.6880   34.3220   48.4440 C   0  0  0  0  0  0  0  0  0  0  0  0
   62.5440   33.3630   49.2270 C   0  0  0  0  0  0  0  0  0  0  0  0
   63.7300   32.8760   48.6560 C   0  0  0  0  0  0  0  0  0  0  0  0
   64.5530   32.0080   49.3730 C   0  0  0  0  0  0  0  0  0  0  0  0
   64.1980   31.6070   50.6600 C   0  0  0  0  0  0  0  0  0  0  0  0
   63.0220   32.0840   51.2560 C   0  0  0  0  0  0  0  0  0  0  0  0
   62.6800   31.6050   52.6410 C   0  0  0  0  0  0  0  0  0  0  0  0
   62.2100   33.0060   50.5510 C   0  0  0  0  0  0  0  0  0  0  0  0
   61.0550   33.5790   51.1710 N   0  0  0  0  0  0  0  0  0  0  0  0
   59.4890   33.5420   50.4240 S   0  0  0  0  0  0  0  0  0  0  0  0
   59.3000   34.8400   49.6900 O   0  0  0  0  0  0  0  0  0  0  0  0
   58.4160   33.4700   51.4730 O   0  0  0  0  0  0  0  0  0  0  0  0
   59.3680   32.1590   49.2940 C   0  0  0  0  0  0  0  0  0  0  0  0
   59.6420   30.8570   49.7740 C   0  0  0  0  0  0  0  0  0  0  0  0
   60.0410   30.6500   51.0940 O   0  0  0  0  0  0  0  0  0  0  0  0
   59.5010   29.7500   48.9360 C   0  0  0  0  0  0  0  0  0  0  0  0
   59.0590   29.8990   47.6300 C   0  0  0  0  0  0  0  0  0  0  0  0
   58.7570   31.1700   47.1180 C   0  0  0  0  0  0  0  0  0  0  0  0
   58.2870   31.3140   45.7910 C   0  0  0  0  0  0  0  0  0  0  0  0
   58.0980   30.1750   44.9400 N   0  0  0  0  0  0  0  0  0  0  0  0
   59.2570   29.4500   44.4180 C   0  0  0  0  0  0  0  0  0  0  0  0
   59.3180   28.0740   45.0220 C   0  0  0  0  0  0  0  0  0  0  0  0
   60.3530   27.7350   45.9080 C   0  0  0  0  0  0  0  0  0  0  0  0
   60.3640   26.4850   46.5340 C   0  0  0  0  0  0  0  0  0  0  0  0
   59.3370   25.5690   46.2860 C   0  0  0  0  0  0  0  0  0  0  0  0
   58.3000   25.9030   45.4120 C   0  0  0  0  0  0  0  0  0  0  0  0
   58.2850   27.1520   44.7850 C   0  0  0  0  0  0  0  0  0  0  0  0
   56.5030   29.8060   44.3620 S   0  0  0  0  0  0  0  0  0  0  0  0
   56.5880   29.3470   42.6460 C   0  0  0  0  0  0  0  0  0  0  0  0
   55.9230   28.6780   45.1680 O   0  0  0  0  0  0  0  0  0  0  0  0
   55.6180   31.0120   44.5060 O   0  0  0  0  0  0  0  0  0  0  0  0
   57.9940   32.5830   45.2890 C   0  0  0  0  0  0  0  0  0  0  0  0
   58.1630   33.7090   46.0860 C   0  0  0  0  0  0  0  0  0  0  0  0
   58.6250   33.5840   47.3930 C   0  0  0  0  0  0  0  0  0  0  0  0
   58.9260   32.3190   47.9440 C   0  0  0  0  0  0  0  0  0  0  0  0
   61.1202   34.9581   49.1390 H   0  0  0  0  0  0  0  0  0  0  0  0
   62.3291   34.9525   47.8104 H   0  0  0  0  0  0  0  0  0  0  0  0
   60.9891   33.7563   47.8104 H   0  0  0  0  0  0  0  0  0  0  0  0
   64.0119   33.1806   47.6373 H   0  0  0  0  0  0  0  0  0  0  0  0
   65.4855   31.6385   48.9214 H   0  0  0  0  0  0  0  0  0  0  0  0
   64.8459   30.9106   51.2125 H   0  0  0  0  0  0  0  0  0  0  0  0
   63.1513   32.2651   53.3841 H   0  0  0  0  0  0  0  0  0  0  0  0
   61.5884   31.6218   52.7757 H   0  0  0  0  0  0  0  0  0  0  0  0
   63.0503   30.5780   52.7757 H   0  0  0  0  0  0  0  0  0  0  0  0
   60.3750   31.4070   51.6780 H   0  0  0  0  0  0  0  0  0  0  0  0
   59.7435   28.7467   49.3162 H   0  0  0  0  0  0  0  0  0  0  0  0
   58.9441   29.0123   46.9893 H   0  0  0  0  0  0  0  0  0  0  0  0
   59.1709   29.3644   43.3247 H   0  0  0  0  0  0  0  0  0  0  0  0
   60.1737   29.9995   44.6783 H   0  0  0  0  0  0  0  0  0  0  0  0
   61.1587   28.4560   46.1105 H   0  0  0  0  0  0  0  0  0  0  0  0
   61.1810   26.2219   47.2220 H   0  0  0  0  0  0  0  0  0  0  0  0
   59.3458   24.5857   46.7791 H   0  0  0  0  0  0  0  0  0  0  0  0
   57.4932   25.1813   45.2167 H   0  0  0  0  0  0  0  0  0  0  0  0
   57.4619   27.4138   44.1039 H   0  0  0  0  0  0  0  0  0  0  0  0
   56.7878   28.2684   42.5644 H   0  0  0  0  0  0  0  0  0  0  0  0
   55.6313   29.5808   42.1561 H   0  0  0  0  0  0  0  0  0  0  0  0
   57.3975   29.9079   42.1561 H   0  0  0  0  0  0  0  0  0  0  0  0
   57.6276   32.6924   44.2576 H   0  0  0  0  0  0  0  0  0  0  0  0
   57.9302   34.7050   45.6814 H   0  0  0  0  0  0  0  0  0  0  0  0
   58.7580   34.4865   48.0076 H   0  0  0  0  0  0  0  0  0  0  0  0
  1  2  1  0
  2  3  2  0
  3  4  1  0
  4  5  2  0
  5  6  1  0
  6  7  1  0
  6  8  2  0
  8  9  1  0
  9 10  1  0
 10 11  2  0
 10 12  2  0
 10 13  1  0
 13 14  2  0
 14 15  1  0
 14 16  1  0
 16 17  2  0
 17 18  1  0
 18 19  2  0
 19 20  1  0
 20 21  1  0
 21 22  1  0
 22 23  2  0
 23 24  1  0
 24 25  2  0
 25 26  1  0
 26 27  2  0
 20 28  1  0
 28 29  1  0
 28 30  2  0
 28 31  2  0
 19 32  1  0
 32 33  2  0
 33 34  1  0
 34 35  2  0
  8  2  1  0
 35 13  1  0
 35 18  1  0
 27 22  1  0
  1 36  1  0
  1 37  1  0
  1 38  1  0
  3 39  1  0
  4 40  1  0
  5 41  1  0
  7 42  1  0
  7 43  1  0
  7 44  1  0
 15 45  1  0
 16 46  1  0
 17 47  1  0
 21 48  1  0
 21 49  1  0
 23 50  1  0
 24 51  1  0
 25 52  1  0
 26 53  1  0
 27 54  1  0
 29 55  1  0
 29 56  1  0
 29 57  1  0
 32 58  1  0
 33 59  1  0
 34 60  1  0
M  CHG  1   9  -1
M  END
>  <UniqueID>  (86) 
81

>  <SMILES>  (86) 
Cc1cccc(C)c1[N-]S(=O)(=O)c1c(O)ccc2c(N(Cc3ccccc3)S(C)(=O)=O)cccc12

>  <Energy>  (86) 
79.26542028416335

>  <Genealogy>  (86) 
Cc1cccc(C)c1[N-]S(=O)(=O)c1c(O)ccc2c(N(Cc3ccccc3)S(C)(=O)=O)cccc12 (protonated)
Cc1cccc(C)c1[N-]S(=O)(=O)c1c(O)ccc2c(N(Cc3ccccc3)S(C)(=O)=O)cccc12 (3D coordinates assigned)
Cc1cccc(C)c1[N-]S(=O)(=O)c1c(O)ccc2c(N(Cc3ccccc3)S(C)(=O)=O)cccc12 (optimized conformer: 79.26542028416335 kcal/mol)

>  <smiles>  (86) 
Cc1cccc(C)c1NS(=O)(=O)c1c(O)ccc2c(N(Cc3ccccc3)S(C)(=O)=O)cccc12

>  <score_type>  (86) 
oracle

>  <origin>  (86) 
adg

>  <m_score__min__energy>  (86) 
-10.42

>  <m_primary>  (86) 
energy

$$$$
87:0
     RDKit          3D

 55 59  0  0  0  0  0  0  0  0999 V2000
   58.9900   32.2540   50.0420 H   0  0  0  0  0  0  0  0  0  0  0  0
   59.3360   33.2080   50.2860 N   0  0  0  0  0  0  0  0  0  0  0  0
   60.0110   34.0140   49.3200 C   0  0  0  0  0  0  0  0  0  0  0  0
   59.3900   34.9620   48.7710 O   0  0  0  0  0  0  0  0  0  0  0  0
   61.4140   33.7140   48.9440 C   0  0  0  0  0  0  0  0  0  0  0  0
   62.4440   34.0550   49.8400 C   0  0  0  0  0  0  0  0  0  0  0  0
   62.1990   34.5773   50.7766 H   0  0  0  0  0  0  0  0  0  0  0  0
   63.7740   33.7380   49.5540 C   0  0  0  0  0  0  0  0  0  0  0  0
   64.5679   34.0032   50.2678 H   0  0  0  0  0  0  0  0  0  0  0  0
   64.0960   33.0860   48.3650 C   0  0  0  0  0  0  0  0  0  0  0  0
   65.1433   32.8321   48.1442 H   0  0  0  0  0  0  0  0  0  0  0  0
   63.0930   32.7550   47.4550 C   0  0  0  0  0  0  0  0  0  0  0  0
   63.3567   32.2531   46.5124 H   0  0  0  0  0  0  0  0  0  0  0  0
   61.7460   33.0570   47.7310 C   0  0  0  0  0  0  0  0  0  0  0  0
   60.7450   32.7850   46.7350 N   0  0  0  0  0  0  0  0  0  0  0  0
   60.8580   33.2160   45.7940 H   0  0  0  0  0  0  0  0  0  0  0  0
   59.6720   31.8560   46.9420 C   0  0  0  0  0  0  0  0  0  0  0  0
   59.4450   31.3960   48.0940 O   0  0  0  0  0  0  0  0  0  0  0  0
   58.8540   31.3850   45.8130 C   0  0  0  0  0  0  0  0  0  0  0  0
   58.0950   32.3330   45.1080 C   0  0  0  0  0  0  0  0  0  0  0  0
   58.0367   33.3678   45.4765 H   0  0  0  0  0  0  0  0  0  0  0  0
   57.4140   31.9740   43.9440 C   0  0  0  0  0  0  0  0  0  0  0  0
   56.8046   32.7190   43.4114 H   0  0  0  0  0  0  0  0  0  0  0  0
   57.5060   30.6710   43.4560 C   0  0  0  0  0  0  0  0  0  0  0  0
   56.9765   30.3911   42.5333 H   0  0  0  0  0  0  0  0  0  0  0  0
   58.2690   29.7220   44.1370 C   0  0  0  0  0  0  0  0  0  0  0  0
   58.3626   28.7047   43.7293 H   0  0  0  0  0  0  0  0  0  0  0  0
   58.9190   30.0520   45.3380 C   0  0  0  0  0  0  0  0  0  0  0  0
   59.9360   28.8040   46.1540 S   0  0  0  0  0  0  0  0  0  0  0  0
   58.7470   27.4630   45.9730 C   0  0  0  0  0  0  0  0  0  0  0  0
   59.1710   26.1630   45.5930 C   0  0  0  0  0  0  0  0  0  0  0  0
   60.2397   25.9673   45.4210 H   0  0  0  0  0  0  0  0  0  0  0  0
   58.2370   25.1210   45.4340 C   0  0  0  0  0  0  0  0  0  0  0  0
   58.5556   24.1081   45.1468 H   0  0  0  0  0  0  0  0  0  0  0  0
   56.8950   25.4210   45.6540 C   0  0  0  0  0  0  0  0  0  0  0  0
   55.7420   24.6720   45.5790 C   0  0  0  0  0  0  0  0  0  0  0  0
   55.6580   23.2260   45.2950 C   0  0  0  0  0  0  0  0  0  0  0  0
   55.1527   22.9209   44.3668 H   0  0  0  0  0  0  0  0  0  0  0  0
   56.1490   22.2540   46.0790 C   0  0  0  0  0  0  0  0  0  0  0  0
   56.7412   21.4650   45.5925 H   0  0  0  0  0  0  0  0  0  0  0  0
   55.9610   22.1550   47.5390 C   0  0  0  0  0  0  0  0  0  0  0  0
   57.0320   21.8440   48.3200 N   0  0  0  0  0  0  0  0  0  0  0  0
   56.9220   21.6950   49.6680 C   0  0  0  0  0  0  0  0  0  0  0  0
   57.8117   21.4564   50.2692 H   0  0  0  0  0  0  0  0  0  0  0  0
   55.6790   21.8450   50.2890 C   0  0  0  0  0  0  0  0  0  0  0  0
   55.5854   21.7381   51.3798 H   0  0  0  0  0  0  0  0  0  0  0  0
   54.5580   22.1320   49.5090 C   0  0  0  0  0  0  0  0  0  0  0  0
   53.5716   22.2454   49.9824 H   0  0  0  0  0  0  0  0  0  0  0  0
   54.6910   22.2750   48.1260 C   0  0  0  0  0  0  0  0  0  0  0  0
   53.8086   22.4798   47.5020 H   0  0  0  0  0  0  0  0  0  0  0  0
   54.6960   25.4710   45.9040 N   0  0  0  0  0  0  0  0  0  0  0  0
   55.1440   26.6980   46.1530 N   0  0  0  0  0  0  0  0  0  0  0  0
   56.4790   26.6730   46.0030 C   0  0  0  0  0  0  0  0  0  0  0  0
   57.3740   27.7260   46.1600 C   0  0  0  0  0  0  0  0  0  0  0  0
   57.0213   28.7344   46.4223 H   0  0  0  0  0  0  0  0  0  0  0  0
  1  2  1  0
  2  3  1  0
  3  4  2  0
  3  5  1  0
  5  6  2  0
  6  7  1  0
  6  8  1  0
  8  9  1  0
  8 10  2  0
 10 11  1  0
 10 12  1  0
 12 13  1  0
 12 14  2  0
 14 15  1  0
 15 16  1  0
 15 17  1  0
 17 18  2  0
 17 19  1  0
 19 20  2  0
 20 21  1  0
 20 22  1  0
 22 23  1  0
 22 24  2  0
 24 25  1  0
 24 26  1  0
 26 27  1  0
 26 28  2  0
 28 29  1  0
 29 30  1  0
 30 31  1  0
 31 32  1  0
 31 33  2  0
 33 34  1  0
 33 35  1  0
 35 36  2  0
 36 37  1  0
 37 38  1  0
 37 39  2  0
 39 40  1  0
 39 41  1  0
 41 42  2  0
 42 43  1  0
 43 44  1  0
 43 45  2  0
 45 46  1  0
 45 47  1  0
 47 48  1  0
 47 49  2  0
 49 50  1  0
 36 51  1  0
 51 52  1  0
 52 53  2  0
 53 54  1  0
 54 55  1  0
 14  5  1  0
 28 19  1  0
 54 30  2  0
 53 35  1  0
 49 41  1  0
M  CHG  2   2  -1  51  -1
M  END
>  <UniqueID>  (87) 
82

>  <SMILES>  (87) 
[NH-]C(=O)c1ccccc1NC(=O)c1ccccc1Sc1ccc2c(/C=C\c3ccccn3)[n-]nc2c1

>  <Energy>  (87) 
121.62120542828725

>  <Genealogy>  (87) 
[NH-]C(=O)c1ccccc1NC(=O)c1ccccc1Sc1ccc2c(C=Cc3ccccn3)[n-]nc2c1 (protonated)
[NH-]C(=O)c1ccccc1NC(=O)c1ccccc1Sc1ccc2c(/C=C\c3ccccn3)[n-]nc2c1 (cis-trans isomerization)
[NH-]C(=O)c1ccccc1NC(=O)c1ccccc1Sc1ccc2c(/C=C\c3ccccn3)[n-]nc2c1 (3D coordinates assigned)
[NH-]C(=O)c1ccccc1NC(=O)c1ccccc1Sc1ccc2c(/C=C\c3ccccn3)[n-]nc2c1 (optimized conformer: 121.62120542828725 kcal/mol)

>  <smiles>  (87) 
NC(=O)c1ccccc1NC(=O)c1ccccc1Sc1ccc2c(C=Cc3ccccn3)[nH]nc2c1

>  <score_type>  (87) 
oracle

>  <origin>  (87) 
adg

>  <m_score__min__energy>  (87) 
-13.890000000000001

>  <m_primary>  (87) 
energy

$$$$
88:0
     RDKit          3D

 43 45  0  0  0  0  0  0  0  0999 V2000
   60.3120   27.1500   47.9440 C   0  0  0  0  0  0  0  0  0  0  0  0
   59.1420   27.9380   48.1210 O   0  0  0  0  0  0  0  0  0  0  0  0
   59.1570   29.1730   48.7770 C   0  0  0  0  0  0  0  0  0  0  0  0
   58.5460   29.3190   49.8700 O   0  0  0  0  0  0  0  0  0  0  0  0
   59.8670   30.3050   48.1590 C   0  0  0  0  0  0  0  0  0  0  0  0
   60.3790   31.3920   48.8380 C   0  0  0  0  0  0  0  0  0  0  0  0
   60.9980   32.1920   47.9500 N   0  0  0  0  0  0  0  0  0  0  0  0
   61.6010   33.4900   48.2400 C   0  0  0  0  0  0  0  0  0  0  0  0
   60.5380   34.5950   48.2550 C   0  0  0  0  0  0  0  0  0  0  0  0
   59.4970   34.3720   47.1880 C   0  0  0  0  0  0  0  0  0  0  0  0
   58.3350   33.6390   47.4770 C   0  0  0  0  0  0  0  0  0  0  0  0
   57.3920   33.3890   46.4760 C   0  0  0  0  0  0  0  0  0  0  0  0
   57.6080   33.8620   45.1770 C   0  0  0  0  0  0  0  0  0  0  0  0
   58.7660   34.5840   44.8800 C   0  0  0  0  0  0  0  0  0  0  0  0
   59.7100   34.8380   45.8800 C   0  0  0  0  0  0  0  0  0  0  0  0
   60.8970   31.6840   46.7330 N   0  0  0  0  0  0  0  0  0  0  0  0
   60.2190   30.5210   46.8270 C   0  0  0  0  0  0  0  0  0  0  0  0
   59.8430   29.7160   45.6460 C   0  0  0  0  0  0  0  0  0  0  0  0
   60.6620   28.8730   45.1920 O   0  0  0  0  0  0  0  0  0  0  0  0
   58.5010   29.8310   45.0230 C   0  0  0  0  0  0  0  0  0  0  0  0
   58.2800   30.7670   43.9950 C   0  0  0  0  0  0  0  0  0  0  0  0
   57.0170   30.8890   43.4070 C   0  0  0  0  0  0  0  0  0  0  0  0
   55.9610   30.0860   43.8410 C   0  0  0  0  0  0  0  0  0  0  0  0
   56.1630   29.1620   44.8680 C   0  0  0  0  0  0  0  0  0  0  0  0
   57.4240   29.0350   45.4610 C   0  0  0  0  0  0  0  0  0  0  0  0
   60.7208   26.8746   48.9274 H   0  0  0  0  0  0  0  0  0  0  0  0
   60.0585   26.2379   47.3838 H   0  0  0  0  0  0  0  0  0  0  0  0
   61.0619   27.7278   47.3838 H   0  0  0  0  0  0  0  0  0  0  0  0
   60.2955   31.5735   49.9197 H   0  0  0  0  0  0  0  0  0  0  0  0
   62.0909   33.4479   49.2240 H   0  0  0  0  0  0  0  0  0  0  0  0
   62.3363   33.7197   47.4548 H   0  0  0  0  0  0  0  0  0  0  0  0
   60.0457   34.6046   49.2387 H   0  0  0  0  0  0  0  0  0  0  0  0
   61.0353   35.5561   48.0576 H   0  0  0  0  0  0  0  0  0  0  0  0
   58.1659   33.2598   48.4956 H   0  0  0  0  0  0  0  0  0  0  0  0
   56.4799   32.8203   46.7095 H   0  0  0  0  0  0  0  0  0  0  0  0
   56.8656   33.6651   44.3896 H   0  0  0  0  0  0  0  0  0  0  0  0
   58.9358   34.9534   43.8579 H   0  0  0  0  0  0  0  0  0  0  0  0
   60.6223   35.4045   45.6416 H   0  0  0  0  0  0  0  0  0  0  0  0
   59.1064   31.4068   43.6519 H   0  0  0  0  0  0  0  0  0  0  0  0
   56.8554   31.6195   42.6006 H   0  0  0  0  0  0  0  0  0  0  0  0
   54.9697   30.1812   43.3739 H   0  0  0  0  0  0  0  0  0  0  0  0
   55.3290   28.5325   45.2117 H   0  0  0  0  0  0  0  0  0  0  0  0
   57.5754   28.3095   46.2739 H   0  0  0  0  0  0  0  0  0  0  0  0
  1  2  1  0
  2  3  1  0
  3  4  2  0
  3  5  1  0
  5  6  2  0
  6  7  1  0
  7  8  1  0
  8  9  1  0
  9 10  1  0
 10 11  2  0
 11 12  1  0
 12 13  2  0
 13 14  1  0
 14 15  2  0
  7 16  1  0
 16 17  2  0
 17 18  1  0
 18 19  2  0
 18 20  1  0
 20 21  2  0
 21 22  1  0
 22 23  2  0
 23 24  1  0
 24 25  2  0
 17  5  1  0
 25 20  1  0
 15 10  1  0
  1 26  1  0
  1 27  1  0
  1 28  1  0
  6 29  1  0
  8 30  1  0
  8 31  1  0
  9 32  1  0
  9 33  1  0
 11 34  1  0
 12 35  1  0
 13 36  1  0
 14 37  1  0
 15 38  1  0
 21 39  1  0
 22 40  1  0
 23 41  1  0
 24 42  1  0
 25 43  1  0
M  END
>  <UniqueID>  (88) 
83

>  <SMILES>  (88) 
COC(=O)c1cn(CCc2ccccc2)nc1C(=O)c1ccccc1

>  <Energy>  (88) 
74.36576740150447

>  <Genealogy>  (88) 
COC(=O)c1cn(CCc2ccccc2)nc1C(=O)c1ccccc1 (3D coordinates assigned)
COC(=O)c1cn(CCc2ccccc2)nc1C(=O)c1ccccc1 (optimized conformer: 74.36576740150447 kcal/mol)

>  <smiles>  (88) 
COC(=O)c1cn(CCc2ccccc2)nc1C(=O)c1ccccc1

>  <score_type>  (88) 
oracle

>  <origin>  (88) 
adg

>  <m_score__min__energy>  (88) 
-8.2799999999999994

>  <m_primary>  (88) 
energy

$$$$
89:0
     RDKit          3D

 41 43  0  0  0  0  0  0  0  0999 V2000
   54.6100   27.0940   46.7060 H   0  0  0  0  0  0  0  0  0  0  0  0
   55.1510   26.5540   45.9940 N   0  0  0  0  0  0  0  0  0  0  0  0
   56.4900   26.9150   45.6590 C   0  0  0  0  0  0  0  0  0  0  0  0
   57.3660   26.0110   45.6060 O   0  0  0  0  0  0  0  0  0  0  0  0
   56.8390   28.3360   45.3860 C   0  0  0  0  0  0  0  0  0  0  0  0
   55.8830   29.1820   44.7940 C   0  0  0  0  0  0  0  0  0  0  0  0
   54.8877   28.7871   44.5421 H   0  0  0  0  0  0  0  0  0  0  0  0
   56.1770   30.4800   44.5310 N   0  0  0  0  0  0  0  0  0  0  0  0
   57.3950   31.0190   44.8050 C   0  0  0  0  0  0  0  0  0  0  0  0
   57.6540   32.2700   44.5540 N   0  0  0  0  0  0  0  0  0  0  0  0
   58.3940   33.1810   45.3840 C   0  0  0  0  0  0  0  0  0  0  0  0
   58.8350   34.3870   44.8270 C   0  0  0  0  0  0  0  0  0  0  0  0
   58.6226   34.6120   43.7714 H   0  0  0  0  0  0  0  0  0  0  0  0
   59.5430   35.3060   45.6040 C   0  0  0  0  0  0  0  0  0  0  0  0
   59.9031   36.2428   45.1537 H   0  0  0  0  0  0  0  0  0  0  0  0
   59.7950   35.0390   46.9510 C   0  0  0  0  0  0  0  0  0  0  0  0
   60.3694   35.7590   47.5523 H   0  0  0  0  0  0  0  0  0  0  0  0
   59.3200   33.8570   47.5440 C   0  0  0  0  0  0  0  0  0  0  0  0
   59.5790   33.5970   48.9820 C   0  0  0  0  0  0  0  0  0  0  0  0
   59.6410   34.5690   49.7840 O   0  0  0  0  0  0  0  0  0  0  0  0
   59.7410   32.2590   49.4800 N   0  0  0  0  0  0  0  0  0  0  0  0
   59.5210   31.4400   48.8710 H   0  0  0  0  0  0  0  0  0  0  0  0
   60.1460   32.0010   50.8560 C   0  0  0  0  0  0  0  0  0  0  0  0
   59.4221   32.4622   51.5439 H   0  0  0  0  0  0  0  0  0  0  0  0
   60.1783   30.9155   51.0313 H   0  0  0  0  0  0  0  0  0  0  0  0
   61.1434   32.4305   51.0313 H   0  0  0  0  0  0  0  0  0  0  0  0
   58.6180   32.9290   46.7510 C   0  0  0  0  0  0  0  0  0  0  0  0
   58.2415   31.9996   47.2032 H   0  0  0  0  0  0  0  0  0  0  0  0
   58.3770   30.2250   45.4010 C   0  0  0  0  0  0  0  0  0  0  0  0
   59.3666   30.6504   45.6241 H   0  0  0  0  0  0  0  0  0  0  0  0
   58.1030   28.8840   45.7160 C   0  0  0  0  0  0  0  0  0  0  0  0
   59.1430   28.0560   46.2610 N   0  0  0  0  0  0  0  0  0  0  0  0
   59.5820   28.0410   47.4890 C   0  0  0  0  0  0  0  0  0  0  0  0
   59.4660   29.1720   48.2350 N   0  0  0  0  0  0  0  0  0  0  0  0
   59.9140   29.2340   49.5170 C   0  0  0  0  0  0  0  0  0  0  0  0
   59.8005   30.1596   50.1004 H   0  0  0  0  0  0  0  0  0  0  0  0
   60.5190   28.1130   50.0860 C   0  0  0  0  0  0  0  0  0  0  0  0
   60.8792   28.1440   51.1249 H   0  0  0  0  0  0  0  0  0  0  0  0
   60.6590   26.9840   49.3460 N   0  0  0  0  0  0  0  0  0  0  0  0
   60.2110   26.9180   48.0640 C   0  0  0  0  0  0  0  0  0  0  0  0
   60.3384   25.9948   47.4796 H   0  0  0  0  0  0  0  0  0  0  0  0
  1  2  1  0
  2  3  1  0
  3  4  2  0
  3  5  1  0
  5  6  2  0
  6  7  1  0
  6  8  1  0
  8  9  1  0
  9 10  2  0
 10 11  1  0
 11 12  2  0
 12 13  1  0
 12 14  1  0
 14 15  1  0
 14 16  2  0
 16 17  1  0
 16 18  1  0
 18 19  1  0
 19 20  2  0
 19 21  1  0
 21 22  1  0
 21 23  1  0
 23 24  1  0
 23 25  1  0
 23 26  1  0
 18 27  2  0
 27 28  1  0
  9 29  1  0
 29 30  1  0
 29 31  2  0
 31 32  1  0
 32 33  2  3
 33 34  1  0
 34 35  1  0
 35 36  1  0
 35 37  2  0
 37 38  1  0
 37 39  1  0
 39 40  2  0
 40 41  1  0
 31  5  1  0
 40 33  1  0
 27 11  1  0
M  CHG  3   2  -1   8  -1  34  -1
M  END
>  <UniqueID>  (89) 
84

>  <SMILES>  (89) 
CNC(=O)c1cccc(/N=c2/cc(N=c3cncc[n-]3)c(C([NH-])=O)c[n-]2)c1

>  <Energy>  (89) 
64.45702820962694

>  <Genealogy>  (89) 
CNC(=O)c1cccc(N=c2cc(N=c3cncc[n-]3)c(C([NH-])=O)c[n-]2)c1 (protonated)
CNC(=O)c1cccc(/N=c2/cc(N=c3cncc[n-]3)c(C([NH-])=O)c[n-]2)c1 (cis-trans isomerization)
CNC(=O)c1cccc(/N=c2/cc(N=c3cncc[n-]3)c(C([NH-])=O)c[n-]2)c1 (3D coordinates assigned)
CNC(=O)c1cccc(/N=c2/cc(N=c3cncc[n-]3)c(C([NH-])=O)c[n-]2)c1 (optimized conformer: 64.45702820962694 kcal/mol)

>  <smiles>  (89) 
CNC(=O)c1cccc(N=c2cc(N=c3cncc[nH]3)c(C(N)=O)c[nH]2)c1

>  <score_type>  (89) 
oracle

>  <origin>  (89) 
adg

>  <m_score__min__energy>  (89) 
-13.300000000000001

>  <m_primary>  (89) 
energy

$$$$
90:0
     RDKit          3D

 38 40  0  0  0  0  0  0  0  0999 V2000
   56.4819   33.1684   46.4470 H   0  0  0  0  0  0  0  0  0  0  0  0
   57.3990   32.7950   45.9680 C   0  0  0  0  0  0  0  0  0  0  0  0
   58.5430   32.8640   46.6700 C   0  0  0  0  0  0  0  0  0  0  0  0
   59.0060   31.6590   47.3790 C   0  0  0  0  0  0  0  0  0  0  0  0
   59.2090   31.7370   48.6230 O   0  0  0  0  0  0  0  0  0  0  0  0
   59.2470   30.3800   46.6640 C   0  0  0  0  0  0  0  0  0  0  0  0
   58.2720   29.3600   46.6470 C   0  0  0  0  0  0  0  0  0  0  0  0
   57.3193   29.5069   47.1769 H   0  0  0  0  0  0  0  0  0  0  0  0
   58.5070   28.1660   45.9630 C   0  0  0  0  0  0  0  0  0  0  0  0
   57.7375   27.3800   45.9508 H   0  0  0  0  0  0  0  0  0  0  0  0
   59.7170   27.9670   45.2940 C   0  0  0  0  0  0  0  0  0  0  0  0
   59.8984   27.0262   44.7537 H   0  0  0  0  0  0  0  0  0  0  0  0
   60.6960   28.9620   45.3110 C   0  0  0  0  0  0  0  0  0  0  0  0
   61.6502   28.8027   44.7873 H   0  0  0  0  0  0  0  0  0  0  0  0
   60.4650   30.1630   45.9940 C   0  0  0  0  0  0  0  0  0  0  0  0
   61.2415   30.9421   46.0066 H   0  0  0  0  0  0  0  0  0  0  0  0
   59.5950   34.2920   46.6930 S   0  0  0  0  0  0  0  0  0  0  0  0
   59.0140   35.3200   47.6260 O   0  0  0  0  0  0  0  0  0  0  0  0
   59.6700   34.9010   45.3200 O   0  0  0  0  0  0  0  0  0  0  0  0
   61.2060   33.8770   47.2800 C   0  0  0  0  0  0  0  0  0  0  0  0
   61.4540   33.8370   48.6610 C   0  0  0  0  0  0  0  0  0  0  0  0
   60.6522   34.0908   49.3700 H   0  0  0  0  0  0  0  0  0  0  0  0
   62.7190   33.4750   49.1380 C   0  0  0  0  0  0  0  0  0  0  0  0
   62.9098   33.4442   50.2209 H   0  0  0  0  0  0  0  0  0  0  0  0
   63.7420   33.1520   48.2380 C   0  0  0  0  0  0  0  0  0  0  0  0
   64.7326   32.8566   48.6141 H   0  0  0  0  0  0  0  0  0  0  0  0
   63.5040   33.2050   46.8610 C   0  0  0  0  0  0  0  0  0  0  0  0
   64.3095   32.9554   46.1546 H   0  0  0  0  0  0  0  0  0  0  0  0
   62.2430   33.5750   46.3800 C   0  0  0  0  0  0  0  0  0  0  0  0
   62.0629   33.6296   45.2962 H   0  0  0  0  0  0  0  0  0  0  0  0
   57.2870   32.2560   44.6060 C   0  0  0  0  0  0  0  0  0  0  0  0
   56.5220   30.8190   44.1770 S   0  0  0  0  0  0  0  0  0  0  0  0
   56.9920   30.8380   42.5610 C   0  0  0  0  0  0  0  0  0  0  0  0
   56.7189   30.0902   41.8019 H   0  0  0  0  0  0  0  0  0  0  0  0
   57.7840   31.9600   42.3500 C   0  0  0  0  0  0  0  0  0  0  0  0
   58.2265   32.2093   41.3743 H   0  0  0  0  0  0  0  0  0  0  0  0
   57.9660   32.7440   43.4970 C   0  0  0  0  0  0  0  0  0  0  0  0
   58.5840   33.6538   43.5171 H   0  0  0  0  0  0  0  0  0  0  0  0
  1  2  1  0
  2  3  2  0
  3  4  1  0
  4  5  2  0
  4  6  1  0
  6  7  2  0
  7  8  1  0
  7  9  1  0
  9 10  1  0
  9 11  2  0
 11 12  1  0
 11 13  1  0
 13 14  1  0
 13 15  2  0
 15 16  1  0
  3 17  1  0
 17 18  2  0
 17 19  2  0
 17 20  1  0
 20 21  2  0
 21 22  1  0
 21 23  1  0
 23 24  1  0
 23 25  2  0
 25 26  1  0
 25 27  1  0
 27 28  1  0
 27 29  2  0
 29 30  1  0
  2 31  1  0
 31 32  1  0
 32 33  1  0
 33 34  1  0
 33 35  2  0
 35 36  1  0
 35 37  1  0
 37 38  1  0
 15  6  1  0
 29 20  1  0
 37 31  2  0
M  END
>  <UniqueID>  (90) 
85

>  <SMILES>  (90) 
O=C(/C(=C/c1cccs1)S(=O)(=O)c1ccccc1)c1ccccc1

>  <Energy>  (90) 
81.80405223739648

>  <Genealogy>  (90) 
O=C(/C(=C/c1cccs1)S(=O)(=O)c1ccccc1)c1ccccc1 (cis-trans isomerization)
O=C(/C(=C/c1cccs1)S(=O)(=O)c1ccccc1)c1ccccc1 (3D coordinates assigned)
O=C(/C(=C/c1cccs1)S(=O)(=O)c1ccccc1)c1ccccc1 (optimized conformer: 81.80405223739648 kcal/mol)

>  <smiles>  (90) 
O=C(C(=Cc1cccs1)S(=O)(=O)c1ccccc1)c1ccccc1

>  <score_type>  (90) 
oracle

>  <origin>  (90) 
adg

>  <m_score__min__energy>  (90) 
-8.5999999999999996

>  <m_primary>  (90) 
energy

$$$$
