0:0
     RDKit          3D

 41 43  0  0  1  0  0  0  0  0999 V2000
   62.0010   31.9030   47.4710 C   0  0  0  0  0  0  0  0  0  0  0  0
   61.8620   30.5030   47.3770 O   0  0  0  0  0  0  0  0  0  0  0  0
   60.7320   29.8870   46.9110 C   0  0  0  0  0  0  0  0  0  0  0  0
   60.6950   29.3420   45.6250 C   0  0  0  0  0  0  0  0  0  0  0  0
   59.5480   28.7180   45.1540 C   0  0  0  0  0  0  0  0  0  0  0  0
   58.4350   28.6480   45.9920 C   0  0  0  0  0  0  0  0  0  0  0  0
   57.2400   27.9770   45.4480 C   0  0  0  0  0  0  0  0  0  0  0  0
   56.2340   28.8530   44.9370 N   0  0  0  0  0  0  0  0  0  0  0  0
   56.6300   29.9510   44.3410 C   0  0  0  0  0  0  0  0  0  0  0  0
   56.6190   30.0430   42.9690 C   0  0  0  0  0  0  0  0  0  0  0  0
   57.0450   31.2170   42.3620 C   0  0  0  0  0  0  0  0  0  0  0  0
   57.4610   32.2470   43.1250 N   0  0  0  0  0  0  0  0  0  0  0  0
   57.4540   32.1090   44.4630 C   0  0  0  0  0  0  0  0  0  0  0  0
   57.8950   33.1960   45.2680 N   0  0  0  0  0  0  0  0  0  0  0  0
   58.7830   34.2660   44.8340 C   0  0  0  0  0  0  0  0  0  0  0  0
   59.3840   34.8620   46.0670 C   0  0  0  0  0  0  0  0  0  0  0  0
   58.8470   34.0570   47.2060 C   0  0  0  0  0  0  0  0  0  0  0  0
   57.5770   33.4810   46.6460 C   0  0  0  0  0  0  0  0  0  0  0  0
   57.0500   30.9870   45.0890 N   0  0  0  0  0  0  0  0  0  0  0  0
   58.4980   29.1970   47.2590 C   0  0  0  0  0  0  0  0  0  0  0  0
   59.6320   29.8170   47.7360 C   0  0  0  0  0  0  0  0  0  0  0  0
   62.0303   32.1983   48.5302 H   0  0  0  0  0  0  0  0  0  0  0  0
   62.9343   32.2127   46.9781 H   0  0  0  0  0  0  0  0  0  0  0  0
   61.1468   32.3902   46.9781 H   0  0  0  0  0  0  0  0  0  0  0  0
   61.5833   29.4080   44.9796 H   0  0  0  0  0  0  0  0  0  0  0  0
   59.5174   28.2881   44.1420 H   0  0  0  0  0  0  0  0  0  0  0  0
   57.5629   27.3152   44.6308 H   0  0  0  0  0  0  0  0  0  0  0  0
   56.7798   27.4397   46.2903 H   0  0  0  0  0  0  0  0  0  0  0  0
   56.2761   29.1948   42.3583 H   0  0  0  0  0  0  0  0  0  0  0  0
   57.0429   31.3057   41.2656 H   0  0  0  0  0  0  0  0  0  0  0  0
   57.7810   33.1290   42.6560 H   0  0  0  0  0  0  0  0  0  0  0  0
   59.5741   33.8609   44.1859 H   0  0  0  0  0  0  0  0  0  0  0  0
   58.2319   35.0250   44.2594 H   0  0  0  0  0  0  0  0  0  0  0  0
   60.4812   34.7924   46.0314 H   0  0  0  0  0  0  0  0  0  0  0  0
   59.1322   35.9280   46.1679 H   0  0  0  0  0  0  0  0  0  0  0  0
   59.5494   33.2604   47.4925 H   0  0  0  0  0  0  0  0  0  0  0  0
   58.6876   34.6506   48.1183 H   0  0  0  0  0  0  0  0  0  0  0  0
   57.2972   32.5610   47.1801 H   0  0  0  0  0  0  0  0  0  0  0  0
   56.7226   34.1663   46.7482 H   0  0  0  0  0  0  0  0  0  0  0  0
   57.6124   29.1368   47.9086 H   0  0  0  0  0  0  0  0  0  0  0  0
   59.6579   30.2448   48.7491 H   0  0  0  0  0  0  0  0  0  0  0  0
  1  2  1  0
  2  3  1  0
  3  4  2  0
  4  5  1  0
  5  6  2  0
  6  7  1  0
  7  8  1  0
  8  9  2  0
  9 10  1  0
 10 11  2  0
 11 12  1  0
 12 13  1  0
 13 14  1  0
 14 15  1  0
 15 16  1  0
 16 17  1  0
 17 18  1  0
 13 19  2  0
  6 20  1  0
 20 21  2  0
 21  3  1  0
 19  9  1  0
 18 14  1  0
  1 22  1  0
  1 23  1  0
  1 24  1  0
  4 25  1  0
  5 26  1  0
  7 27  1  0
  7 28  1  0
 10 29  1  0
 11 30  1  0
 12 31  1  0
 15 32  1  0
 15 33  1  0
 16 34  1  0
 16 35  1  0
 17 36  1  0
 17 37  1  0
 18 38  1  0
 18 39  1  0
 20 40  1  0
 21 41  1  0
M  END
>  <smiles>  (1) 
COc1ccc(CN=c2cc[nH]c(N3CCCC3)n2)cc1

>  <score_type>  (1) 
oracle

>  <origin>  (1) 
adg

>  <m_score__min__energy>  (1) 
-7.1200000000000001

>  <m_primary>  (1) 
energy

$$$$
1:0
     RDKit          3D

 57 60  0  0  0  0  0  0  0  0999 V2000
   57.1620   30.0900   53.8630 C   0  0  0  0  0  0  0  0  0  0  0  0
   58.4240   30.4750   53.3260 O   0  0  0  0  0  0  0  0  0  0  0  0
   58.7120   30.5640   51.9540 C   0  0  0  0  0  0  0  0  0  0  0  0
   59.5160   29.6130   51.2970 C   0  0  0  0  0  0  0  0  0  0  0  0
   59.7690   29.7270   49.9230 C   0  0  0  0  0  0  0  0  0  0  0  0
   59.2420   30.8020   49.1990 C   0  0  0  0  0  0  0  0  0  0  0  0
   58.4430   31.7530   49.8540 C   0  0  0  0  0  0  0  0  0  0  0  0
   58.1750   31.6390   51.2310 C   0  0  0  0  0  0  0  0  0  0  0  0
   57.3820   32.5740   51.9150 O   0  0  0  0  0  0  0  0  0  0  0  0
   57.8930   33.6760   52.6590 C   0  0  0  0  0  0  0  0  0  0  0  0
   59.5520   30.9290   47.7230 C   0  0  1  0  0  0  0  0  0  0  0  0
   60.8410   31.7140   47.5130 C   0  0  0  0  0  0  0  0  0  0  0  0
   62.0420   31.0080   47.3020 C   0  0  0  0  0  0  0  0  0  0  0  0
   63.2480   31.6900   47.1160 C   0  0  0  0  0  0  0  0  0  0  0  0
   63.2730   33.0860   47.1490 C   0  0  0  0  0  0  0  0  0  0  0  0
   62.0920   33.8030   47.3640 C   0  0  0  0  0  0  0  0  0  0  0  0
   60.8840   33.1260   47.5440 C   0  0  0  0  0  0  0  0  0  0  0  0
   59.6000   29.5890   47.0880 N   0  0  0  0  0  0  0  0  0  0  0  0
   59.2380   29.4120   45.6990 C   0  0  0  0  0  0  0  0  0  0  0  0
   60.0330   29.7920   44.7950 O   0  0  0  0  0  0  0  0  0  0  0  0
   57.9630   28.7340   45.2880 C   0  0  0  0  0  0  0  0  0  0  0  0
   56.9060   29.8440   44.3730 S   0  0  0  0  0  0  0  0  0  0  0  0
   56.8920   29.4930   42.9130 O   0  0  0  0  0  0  0  0  0  0  0  0
   55.5010   29.7490   44.9000 O   0  0  0  0  0  0  0  0  0  0  0  0
   57.5120   31.4840   44.5680 C   0  0  0  0  0  0  0  0  0  0  0  0
   57.4020   32.1250   45.8120 C   0  0  0  0  0  0  0  0  0  0  0  0
   57.8590   33.4380   45.9670 C   0  0  0  0  0  0  0  0  0  0  0  0
   58.4220   34.1160   44.8810 C   0  0  0  0  0  0  0  0  0  0  0  0
   58.5260   33.4830   43.6400 C   0  0  0  0  0  0  0  0  0  0  0  0
   58.0690   32.1700   43.4810 C   0  0  0  0  0  0  0  0  0  0  0  0
   60.0560   28.3950   47.8320 C   0  0  0  0  0  0  0  0  0  0  0  0
   60.6370   28.7310   49.2120 C   0  0  0  0  0  0  0  0  0  0  0  0
   57.2111   30.1050   54.9618 H   0  0  0  0  0  0  0  0  0  0  0  0
   56.3881   30.7929   53.5209 H   0  0  0  0  0  0  0  0  0  0  0  0
   56.9123   29.0748   53.5209 H   0  0  0  0  0  0  0  0  0  0  0  0
   59.9480   28.7759   51.8651 H   0  0  0  0  0  0  0  0  0  0  0  0
   58.0224   32.5954   49.2853 H   0  0  0  0  0  0  0  0  0  0  0  0
   57.7967   33.4682   53.7349 H   0  0  0  0  0  0  0  0  0  0  0  0
   58.9533   33.8275   52.4083 H   0  0  0  0  0  0  0  0  0  0  0  0
   57.3237   34.5832   52.4083 H   0  0  0  0  0  0  0  0  0  0  0  0
   58.7456   31.4941   47.2328 H   0  0  0  0  0  0  0  0  0  0  0  0
   62.0305   29.9082   47.2834 H   0  0  0  0  0  0  0  0  0  0  0  0
   64.1773   31.1272   46.9437 H   0  0  0  0  0  0  0  0  0  0  0  0
   64.2228   33.6220   47.0057 H   0  0  0  0  0  0  0  0  0  0  0  0
   62.1145   34.9024   47.3914 H   0  0  0  0  0  0  0  0  0  0  0  0
   59.9585   33.6965   47.7113 H   0  0  0  0  0  0  0  0  0  0  0  0
   58.2055   27.8671   44.6558 H   0  0  0  0  0  0  0  0  0  0  0  0
   57.4300   28.4156   46.1960 H   0  0  0  0  0  0  0  0  0  0  0  0
   56.9559   31.5942   46.6660 H   0  0  0  0  0  0  0  0  0  0  0  0
   57.7755   33.9375   46.9435 H   0  0  0  0  0  0  0  0  0  0  0  0
   58.7830   35.1478   45.0040 H   0  0  0  0  0  0  0  0  0  0  0  0
   58.9679   34.0177   42.7863 H   0  0  0  0  0  0  0  0  0  0  0  0
   58.1472   31.6759   42.5013 H   0  0  0  0  0  0  0  0  0  0  0  0
   59.1990   27.7190   47.9681 H   0  0  0  0  0  0  0  0  0  0  0  0
   60.8592   27.9284   47.2428 H   0  0  0  0  0  0  0  0  0  0  0  0
   60.6978   27.8112   49.8122 H   0  0  0  0  0  0  0  0  0  0  0  0
   61.6387   29.1656   49.0785 H   0  0  0  0  0  0  0  0  0  0  0  0
  1  2  1  0
  2  3  1  0
  3  4  2  0
  4  5  1  0
  5  6  2  0
  6  7  1  0
  7  8  2  0
  8  9  1  0
  9 10  1  0
  6 11  1  0
 11 12  1  0
 12 13  2  0
 13 14  1  0
 14 15  2  0
 15 16  1  0
 16 17  2  0
 11 18  1  0
 18 19  1  0
 19 20  2  0
 19 21  1  0
 21 22  1  0
 22 23  2  0
 22 24  2  0
 22 25  1  0
 25 26  2  0
 26 27  1  0
 27 28  2  0
 28 29  1  0
 29 30  2  0
 18 31  1  0
 31 32  1  0
  8  3  1  0
 17 12  1  0
 30 25  1  0
 32  5  1  0
  1 33  1  0
  1 34  1  0
  1 35  1  0
  4 36  1  0
  7 37  1  0
 10 38  1  0
 10 39  1  0
 10 40  1  0
 11 41  1  6
 13 42  1  0
 14 43  1  0
 15 44  1  0
 16 45  1  0
 17 46  1  0
 21 47  1  0
 21 48  1  0
 26 49  1  0
 27 50  1  0
 28 51  1  0
 29 52  1  0
 30 53  1  0
 31 54  1  0
 31 55  1  0
 32 56  1  0
 32 57  1  0
M  END
>  <UniqueID>  (2) 
1

>  <SMILES>  (2) 
COc1cc2c(cc1OC)[C@@H](c1ccccc1)N(C(=O)CS(=O)(=O)c1ccccc1)CC2

>  <Energy>  (2) 
62.21456341674404

>  <Genealogy>  (2) 
COc1cc2c(cc1OC)[C@@H](c1ccccc1)N(C(=O)CS(=O)(=O)c1ccccc1)CC2 (chirality)
COc1cc2c(cc1OC)[C@@H](c1ccccc1)N(C(=O)CS(=O)(=O)c1ccccc1)CC2 (3D coordinates assigned)
COc1cc2c(cc1OC)[C@@H](c1ccccc1)N(C(=O)CS(=O)(=O)c1ccccc1)CC2 (nonaromatic ring conformer: 62.21456341674404 kcal/mol)

>  <smiles>  (2) 
COc1cc2c(cc1OC)C(c1ccccc1)N(C(=O)CS(=O)(=O)c1ccccc1)CC2

>  <score_type>  (2) 
oracle

>  <origin>  (2) 
adg

>  <m_score__min__energy>  (2) 
-8.8399999999999999

>  <m_primary>  (2) 
energy

$$$$
2:0
     RDKit          3D

 31 32  0  0  0  0  0  0  0  0999 V2000
   56.7370   24.5290   47.3880 C   0  0  0  0  0  0  0  0  0  0  0  0
   57.2580   25.7630   46.7870 N   0  0  0  0  0  0  0  0  0  0  0  0
   58.5950   26.0400   46.8690 C   0  0  0  0  0  0  0  0  0  0  0  0
   59.1190   27.2000   46.2940 C   0  0  0  0  0  0  0  0  0  0  0  0
   58.2690   28.0960   45.6350 C   0  0  0  0  0  0  0  0  0  0  0  0
   58.8290   29.3460   44.9850 C   0  0  0  0  0  0  0  0  0  0  0  0
   58.3670   30.6180   45.5800 N   0  0  0  0  0  0  0  0  0  0  0  0
   59.4400   31.5140   46.0310 C   0  0  0  0  0  0  0  0  0  0  0  0
   58.8670   32.5800   46.9760 C   0  0  0  0  0  0  0  0  0  0  0  0
   57.8270   33.4690   46.3320 C   0  0  0  0  0  0  0  0  0  0  0  0
   57.0230   33.0660   45.3360 C   0  0  0  0  0  0  0  0  0  0  0  0
   57.2550   31.5030   44.5730 S   0  0  0  0  0  0  0  0  0  0  0  0
   57.8120   31.7260   43.1960 O   0  0  0  0  0  0  0  0  0  0  0  0
   55.9460   30.7690   44.4920 O   0  0  0  0  0  0  0  0  0  0  0  0
   56.9100   27.7770   45.5240 C   0  0  0  0  0  0  0  0  0  0  0  0
   56.4160   26.6070   46.1100 C   0  0  0  0  0  0  0  0  0  0  0  0
   55.1880   26.3390   46.0020 O   0  0  0  0  0  0  0  0  0  0  0  0
   56.7720   24.6119   48.4843 H   0  0  0  0  0  0  0  0  0  0  0  0
   55.6969   24.3746   47.0650 H   0  0  0  0  0  0  0  0  0  0  0  0
   57.3517   23.6759   47.0650 H   0  0  0  0  0  0  0  0  0  0  0  0
   59.2644   25.3420   47.3932 H   0  0  0  0  0  0  0  0  0  0  0  0
   60.1970   27.4090   46.3588 H   0  0  0  0  0  0  0  0  0  0  0  0
   59.9256   29.3102   45.0642 H   0  0  0  0  0  0  0  0  0  0  0  0
   58.4668   29.3420   43.9464 H   0  0  0  0  0  0  0  0  0  0  0  0
   60.2050   30.9287   46.5622 H   0  0  0  0  0  0  0  0  0  0  0  0
   59.8905   32.0083   45.1577 H   0  0  0  0  0  0  0  0  0  0  0  0
   58.4047   32.0705   47.8343 H   0  0  0  0  0  0  0  0  0  0  0  0
   59.7041   33.2287   47.2734 H   0  0  0  0  0  0  0  0  0  0  0  0
   57.7241   34.5007   46.6994 H   0  0  0  0  0  0  0  0  0  0  0  0
   56.2095   33.7228   44.9941 H   0  0  0  0  0  0  0  0  0  0  0  0
   56.2309   28.4466   44.9759 H   0  0  0  0  0  0  0  0  0  0  0  0
  1  2  1  0
  2  3  1  0
  3  4  2  0
  4  5  1  0
  5  6  1  0
  6  7  1  0
  7  8  1  0
  8  9  1  0
  9 10  1  0
 10 11  2  0
 11 12  1  0
 12 13  2  0
 12 14  2  0
  5 15  2  0
 15 16  1  0
 16 17  2  0
 16  2  1  0
 12  7  1  0
  1 18  1  0
  1 19  1  0
  1 20  1  0
  3 21  1  0
  4 22  1  0
  6 23  1  0
  6 24  1  0
  8 25  1  0
  8 26  1  0
  9 27  1  0
  9 28  1  0
 10 29  1  0
 11 30  1  0
 15 31  1  0
M  END
>  <UniqueID>  (3) 
2

>  <SMILES>  (3) 
Cn1ccc(CN2CCC=CS2(=O)=O)cc1=O

>  <Energy>  (3) 
37.32993136703729

>  <Genealogy>  (3) 
Cn1ccc(CN2CCC=CS2(=O)=O)cc1=O (3D coordinates assigned)
Cn1ccc(CN2CCC=CS2(=O)=O)cc1=O (nonaromatic ring conformer: 37.32993136703729 kcal/mol)

>  <smiles>  (3) 
Cn1ccc(CN2CCC=CS2(=O)=O)cc1=O

>  <score_type>  (3) 
oracle

>  <origin>  (3) 
adg

>  <m_score__min__energy>  (3) 
-7.1100000000000003

>  <m_primary>  (3) 
energy

$$$$
3:0
     RDKit          3D

 52 55  0  0  0  0  0  0  0  0999 V2000
   54.7690   26.1600   45.8100 N   0  0  0  0  0  0  0  0  0  0  0  0
   56.3770   25.5280   45.7930 S   0  0  0  0  0  0  0  0  0  0  0  0
   56.4260   24.2660   46.6090 O   0  0  0  0  0  0  0  0  0  0  0  0
   56.7750   25.2040   44.3800 O   0  0  0  0  0  0  0  0  0  0  0  0
   57.4830   26.7180   46.4690 C   0  0  0  0  0  0  0  0  0  0  0  0
   58.3920   26.3500   47.4670 C   0  0  0  0  0  0  0  0  0  0  0  0
   59.2530   27.3010   48.0210 C   0  0  0  0  0  0  0  0  0  0  0  0
   59.2210   28.6380   47.5830 C   0  0  0  0  0  0  0  0  0  0  0  0
   60.1080   29.6440   48.2220 C   0  0  0  0  0  0  0  0  0  0  0  0
   61.1640   30.2500   47.5260 C   0  0  0  0  0  0  0  0  0  0  0  0
   61.9350   31.2120   48.1820 C   0  0  0  0  0  0  0  0  0  0  0  0
   63.2210   32.0920   47.3050 S   0  0  0  0  0  0  0  0  0  0  0  0
   63.7540   32.9230   48.8030 C   0  0  0  0  0  0  0  0  0  0  0  0
   64.9120   32.4980   49.4670 C   0  0  0  0  0  0  0  0  0  0  0  0
   65.3080   33.1240   50.6530 C   0  0  0  0  0  0  0  0  0  0  0  0
   64.5500   34.1770   51.1760 C   0  0  0  0  0  0  0  0  0  0  0  0
   63.3970   34.6060   50.5120 C   0  0  0  0  0  0  0  0  0  0  0  0
   62.9980   33.9790   49.3270 C   0  0  0  0  0  0  0  0  0  0  0  0
   61.6660   31.5320   49.4730 N   0  0  0  0  0  0  0  0  0  0  0  0
   60.6400   30.9420   50.1360 C   0  0  0  0  0  0  0  0  0  0  0  0
   60.2710   31.4190   51.8210 S   0  0  0  0  0  0  0  0  0  0  0  0
   59.0730   32.7310   51.3740 C   0  0  0  0  0  0  0  0  0  0  0  0
   59.7010   33.8310   50.5090 C   0  0  0  0  0  0  0  0  0  0  0  0
   59.3810   33.6840   49.0410 C   0  0  0  0  0  0  0  0  0  0  0  0
   59.9500   34.5580   48.0970 C   0  0  0  0  0  0  0  0  0  0  0  0
   59.6290   34.4390   46.7420 C   0  0  0  0  0  0  0  0  0  0  0  0
   58.7250   33.4590   46.3190 C   0  0  0  0  0  0  0  0  0  0  0  0
   58.1480   32.5930   47.2510 C   0  0  0  0  0  0  0  0  0  0  0  0
   58.4740   32.7010   48.6070 C   0  0  0  0  0  0  0  0  0  0  0  0
   59.8770   30.0080   49.5130 N   0  0  0  0  0  0  0  0  0  0  0  0
   58.2950   29.0020   46.5870 C   0  0  0  0  0  0  0  0  0  0  0  0
   57.4350   28.0490   46.0370 C   0  0  0  0  0  0  0  0  0  0  0  0
   54.7950   27.0410   46.3720 H   0  0  0  0  0  0  0  0  0  0  0  0
   58.4290   25.3078   47.8169 H   0  0  0  0  0  0  0  0  0  0  0  0
   59.9623   27.0018   48.8067 H   0  0  0  0  0  0  0  0  0  0  0  0
   61.3807   29.9730   46.4837 H   0  0  0  0  0  0  0  0  0  0  0  0
   65.5099   31.6716   49.0553 H   0  0  0  0  0  0  0  0  0  0  0  0
   66.2161   32.7882   51.1751 H   0  0  0  0  0  0  0  0  0  0  0  0
   64.8613   34.6676   52.1100 H   0  0  0  0  0  0  0  0  0  0  0  0
   62.8035   35.4367   50.9215 H   0  0  0  0  0  0  0  0  0  0  0  0
   62.0895   34.3157   48.8062 H   0  0  0  0  0  0  0  0  0  0  0  0
   58.2423   32.2746   50.8158 H   0  0  0  0  0  0  0  0  0  0  0  0
   58.7254   33.1979   52.3074 H   0  0  0  0  0  0  0  0  0  0  0  0
   59.3244   34.8054   50.8537 H   0  0  0  0  0  0  0  0  0  0  0  0
   60.7927   33.7503   50.6168 H   0  0  0  0  0  0  0  0  0  0  0  0
   60.6510   35.3389   48.4269 H   0  0  0  0  0  0  0  0  0  0  0  0
   60.0879   35.1169   46.0072 H   0  0  0  0  0  0  0  0  0  0  0  0
   58.4686   33.3703   45.2530 H   0  0  0  0  0  0  0  0  0  0  0  0
   57.4354   31.8241   46.9177 H   0  0  0  0  0  0  0  0  0  0  0  0
   58.0192   32.0146   49.3364 H   0  0  0  0  0  0  0  0  0  0  0  0
   58.2485   30.0446   46.2395 H   0  0  0  0  0  0  0  0  0  0  0  0
   56.7155   28.3458   45.2597 H   0  0  0  0  0  0  0  0  0  0  0  0
  1  2  1  0
  2  3  2  0
  2  4  2  0
  2  5  1  0
  5  6  2  0
  6  7  1  0
  7  8  2  0
  8  9  1  0
  9 10  2  0
 10 11  1  0
 11 12  1  0
 12 13  1  0
 13 14  2  0
 14 15  1  0
 15 16  2  0
 16 17  1  0
 17 18  2  0
 11 19  2  0
 19 20  1  0
 20 21  1  0
 21 22  1  0
 22 23  1  0
 23 24  1  0
 24 25  2  0
 25 26  1  0
 26 27  2  0
 27 28  1  0
 28 29  2  0
 20 30  2  0
  8 31  1  0
 31 32  2  0
 32  5  1  0
 30  9  1  0
 18 13  1  0
 29 24  1  0
  1 33  1  0
  6 34  1  0
  7 35  1  0
 10 36  1  0
 14 37  1  0
 15 38  1  0
 16 39  1  0
 17 40  1  0
 18 41  1  0
 22 42  1  0
 22 43  1  0
 23 44  1  0
 23 45  1  0
 25 46  1  0
 26 47  1  0
 27 48  1  0
 28 49  1  0
 29 50  1  0
 31 51  1  0
 32 52  1  0
M  CHG  1   1  -1
M  END
>  <UniqueID>  (4) 
3

>  <SMILES>  (4) 
[NH-]S(=O)(=O)c1ccc(-c2cc(Sc3ccccc3)nc(SCCc3ccccc3)n2)cc1

>  <Energy>  (4) 
44.46211865446294

>  <Genealogy>  (4) 
[NH-]S(=O)(=O)c1ccc(-c2cc(Sc3ccccc3)nc(SCCc3ccccc3)n2)cc1 (protonated)
[NH-]S(=O)(=O)c1ccc(-c2cc(Sc3ccccc3)nc(SCCc3ccccc3)n2)cc1 (3D coordinates assigned)
[NH-]S(=O)(=O)c1ccc(-c2cc(Sc3ccccc3)nc(SCCc3ccccc3)n2)cc1 (optimized conformer: 44.46211865446294 kcal/mol)

>  <smiles>  (4) 
NS(=O)(=O)c1ccc(-c2cc(Sc3ccccc3)nc(SCCc3ccccc3)n2)cc1

>  <score_type>  (4) 
oracle

>  <origin>  (4) 
adg

>  <m_score__min__energy>  (4) 
-12.17

>  <m_primary>  (4) 
energy

$$$$
4:0
     RDKit          3D

 44 45  0  0  0  0  0  0  0  0999 V2000
   61.3120   33.9020   46.8000 C   0  0  0  0  0  0  0  0  0  0  0  0
   59.9210   34.3940   47.2060 C   0  0  0  0  0  0  0  0  0  0  0  0
   58.8740   34.3860   46.0690 C   0  0  1  0  0  0  0  0  0  0  0  0
   59.2680   35.2920   44.8910 C   0  0  0  0  0  0  0  0  0  0  0  0
   58.5000   32.9730   45.6460 C   0  0  0  0  0  0  0  0  0  0  0  0
   58.0110   32.6830   44.3560 C   0  0  0  0  0  0  0  0  0  0  0  0
   57.7300   31.3670   43.9830 C   0  0  0  0  0  0  0  0  0  0  0  0
   57.9400   30.3170   44.8840 C   0  0  0  0  0  0  0  0  0  0  0  0
   57.6780   28.6420   44.3990 S   0  0  0  0  0  0  0  0  0  0  0  0
   58.9900   27.9160   44.2870 O   0  0  0  0  0  0  0  0  0  0  0  0
   56.9930   28.6190   43.0630 O   0  0  0  0  0  0  0  0  0  0  0  0
   56.6780   27.8440   45.5740 N   0  0  0  0  0  0  0  0  0  0  0  0
   57.4760   27.5000   46.7480 C   0  0  0  0  0  0  0  0  0  0  0  0
   57.7240   25.9950   46.7720 C   0  0  0  0  0  0  0  0  0  0  0  0
   56.1910   25.0780   46.3880 S   0  0  0  0  0  0  0  0  0  0  0  0
   56.6630   24.6850   44.6980 C   0  0  0  0  0  0  0  0  0  0  0  0
   57.1180   25.5730   43.8010 N   0  0  0  0  0  0  0  0  0  0  0  0
   57.3230   24.8930   42.6810 N   0  0  0  0  0  0  0  0  0  0  0  0
   57.0000   23.6210   42.8750 N   0  0  0  0  0  0  0  0  0  0  0  0
   56.5910   23.4720   44.1260 N   0  0  0  0  0  0  0  0  0  0  0  0
   56.0990   22.2290   44.7050 C   0  0  0  0  0  0  0  0  0  0  0  0
   58.4340   30.5940   46.1640 C   0  0  0  0  0  0  0  0  0  0  0  0
   58.7160   31.9090   46.5400 C   0  0  0  0  0  0  0  0  0  0  0  0
   61.9047   33.6924   47.7026 H   0  0  0  0  0  0  0  0  0  0  0  0
   61.2161   32.9832   46.2028 H   0  0  0  0  0  0  0  0  0  0  0  0
   61.8151   34.6767   46.2028 H   0  0  0  0  0  0  0  0  0  0  0  0
   59.5520   33.7473   48.0157 H   0  0  0  0  0  0  0  0  0  0  0  0
   60.0403   35.4444   47.5101 H   0  0  0  0  0  0  0  0  0  0  0  0
   57.9564   34.8317   46.4806 H   0  0  0  0  0  0  0  0  0  0  0  0
   59.6789   36.2368   45.2765 H   0  0  0  0  0  0  0  0  0  0  0  0
   60.0272   34.7855   44.2768 H   0  0  0  0  0  0  0  0  0  0  0  0
   58.3799   35.5019   44.2768 H   0  0  0  0  0  0  0  0  0  0  0  0
   57.8495   33.5000   43.6374 H   0  0  0  0  0  0  0  0  0  0  0  0
   57.3417   31.1546   42.9760 H   0  0  0  0  0  0  0  0  0  0  0  0
   58.4392   28.0295   46.7045 H   0  0  0  0  0  0  0  0  0  0  0  0
   56.9349   27.7967   47.6586 H   0  0  0  0  0  0  0  0  0  0  0  0
   58.4911   25.7440   46.0246 H   0  0  0  0  0  0  0  0  0  0  0  0
   58.0624   25.7097   47.7790 H   0  0  0  0  0  0  0  0  0  0  0  0
   57.2790   26.5950   43.9280 H   0  0  0  0  0  0  0  0  0  0  0  0
   56.1269   22.2994   45.8024 H   0  0  0  0  0  0  0  0  0  0  0  0
   55.0642   22.0551   44.3749 H   0  0  0  0  0  0  0  0  0  0  0  0
   56.7344   21.3940   44.3749 H   0  0  0  0  0  0  0  0  0  0  0  0
   58.6007   29.7727   46.8765 H   0  0  0  0  0  0  0  0  0  0  0  0
   59.1111   32.1148   47.5457 H   0  0  0  0  0  0  0  0  0  0  0  0
  1  2  1  0
  2  3  1  0
  3  4  1  0
  3  5  1  0
  5  6  2  0
  6  7  1  0
  7  8  2  0
  8  9  1  0
  9 10  2  0
  9 11  2  0
  9 12  1  0
 12 13  1  0
 13 14  1  0
 14 15  1  0
 15 16  1  0
 16 17  2  0
 17 18  1  0
 18 19  2  0
 19 20  1  0
 20 21  1  0
  8 22  1  0
 22 23  2  0
 23  5  1  0
 20 16  1  0
  1 24  1  0
  1 25  1  0
  1 26  1  0
  2 27  1  0
  2 28  1  0
  3 29  1  1
  4 30  1  0
  4 31  1  0
  4 32  1  0
  6 33  1  0
  7 34  1  0
 13 35  1  0
 13 36  1  0
 14 37  1  0
 14 38  1  0
 17 39  1  0
 21 40  1  0
 21 41  1  0
 21 42  1  0
 22 43  1  0
 23 44  1  0
M  CHG  2  12  -1  17   1
M  END
>  <UniqueID>  (5) 
4

>  <SMILES>  (5) 
CC[C@@H](C)c1ccc(S(=O)(=O)[N-]CCSc2[nH+]nnn2C)cc1

>  <Energy>  (5) 
71.86240080539174

>  <Genealogy>  (5) 
CCC(C)c1ccc(S(=O)(=O)[N-]CCSc2[nH+]nnn2C)cc1 (protonated)
CC[C@@H](C)c1ccc(S(=O)(=O)[N-]CCSc2[nH+]nnn2C)cc1 (chirality)
CC[C@@H](C)c1ccc(S(=O)(=O)[N-]CCSc2[nH+]nnn2C)cc1 (3D coordinates assigned)
CC[C@@H](C)c1ccc(S(=O)(=O)[N-]CCSc2[nH+]nnn2C)cc1 (optimized conformer: 71.86240080539174 kcal/mol)

>  <smiles>  (5) 
CCC(C)c1ccc(S(=O)(=O)NCCSc2nnnn2C)cc1

>  <score_type>  (5) 
oracle

>  <origin>  (5) 
adg

>  <m_score__min__energy>  (5) 
-7.8600000000000003

>  <m_primary>  (5) 
energy

$$$$
5:0
     RDKit          3D

 40 42  0  0  0  0  0  0  0  0999 V2000
   59.2780   33.4550   50.8390 C   0  0  0  0  0  0  0  0  0  0  0  0
   59.6800   33.8460   49.5300 O   0  0  0  0  0  0  0  0  0  0  0  0
   61.0100   33.8550   49.0690 C   0  0  0  0  0  0  0  0  0  0  0  0
   62.0900   33.9920   49.9610 C   0  0  0  0  0  0  0  0  0  0  0  0
   63.3940   33.9780   49.4750 C   0  0  0  0  0  0  0  0  0  0  0  0
   63.6240   33.8310   48.1120 C   0  0  0  0  0  0  0  0  0  0  0  0
   62.5400   33.7030   47.2410 C   0  0  0  0  0  0  0  0  0  0  0  0
   62.7610   33.5860   46.0040 O   0  0  0  0  0  0  0  0  0  0  0  0
   61.2540   33.7160   47.7250 N   0  0  0  0  0  0  0  0  0  0  0  0
   60.1450   33.5820   46.8130 C   0  0  0  0  0  0  0  0  0  0  0  0
   59.5790   34.7180   46.2160 C   0  0  0  0  0  0  0  0  0  0  0  0
   58.4950   34.5870   45.3470 C   0  0  0  0  0  0  0  0  0  0  0  0
   57.9720   33.3250   45.0610 C   0  0  0  0  0  0  0  0  0  0  0  0
   58.5360   32.1710   45.6350 C   0  0  0  0  0  0  0  0  0  0  0  0
   57.9640   30.8400   45.3210 C   0  0  0  0  0  0  0  0  0  0  0  0
   56.7800   30.7710   44.8910 O   0  0  0  0  0  0  0  0  0  0  0  0
   58.7330   29.6360   45.5050 N   0  0  0  0  0  0  0  0  0  0  0  0
   58.2690   28.3260   45.1350 C   0  0  0  0  0  0  0  0  0  0  0  0
   57.7220   27.4870   46.1200 C   0  0  0  0  0  0  0  0  0  0  0  0
   57.2880   26.1990   45.7910 C   0  0  0  0  0  0  0  0  0  0  0  0
   57.4120   25.7320   44.4800 C   0  0  0  0  0  0  0  0  0  0  0  0
   57.9770   26.5490   43.4980 C   0  0  0  0  0  0  0  0  0  0  0  0
   58.4120   27.8380   43.8230 C   0  0  0  0  0  0  0  0  0  0  0  0
   59.6190   32.3130   46.5240 C   0  0  0  0  0  0  0  0  0  0  0  0
   59.8579   34.0190   51.5844 H   0  0  0  0  0  0  0  0  0  0  0  0
   58.2066   33.6658   50.9718 H   0  0  0  0  0  0  0  0  0  0  0  0
   59.4590   32.3782   50.9718 H   0  0  0  0  0  0  0  0  0  0  0  0
   61.9040   34.1098   51.0387 H   0  0  0  0  0  0  0  0  0  0  0  0
   64.2414   34.0831   50.1684 H   0  0  0  0  0  0  0  0  0  0  0  0
   64.6525   33.8156   47.7223 H   0  0  0  0  0  0  0  0  0  0  0  0
   59.9906   35.7147   46.4333 H   0  0  0  0  0  0  0  0  0  0  0  0
   58.0511   35.4816   44.8858 H   0  0  0  0  0  0  0  0  0  0  0  0
   57.1120   33.2319   44.3814 H   0  0  0  0  0  0  0  0  0  0  0  0
   59.6610   29.6910   45.9770 H   0  0  0  0  0  0  0  0  0  0  0  0
   57.6345   27.8453   47.1563 H   0  0  0  0  0  0  0  0  0  0  0  0
   56.8485   25.5528   46.5652 H   0  0  0  0  0  0  0  0  0  0  0  0
   57.0647   24.7209   44.2212 H   0  0  0  0  0  0  0  0  0  0  0  0
   58.0800   26.1781   42.4675 H   0  0  0  0  0  0  0  0  0  0  0  0
   58.8680   28.4732   43.0493 H   0  0  0  0  0  0  0  0  0  0  0  0
   60.0568   31.4212   46.9963 H   0  0  0  0  0  0  0  0  0  0  0  0
  1  2  1  0
  2  3  1  0
  3  4  2  0
  4  5  1  0
  5  6  2  0
  6  7  1  0
  7  8  2  0
  7  9  1  0
  9 10  1  0
 10 11  2  0
 11 12  1  0
 12 13  2  0
 13 14  1  0
 14 15  1  0
 15 16  2  0
 15 17  1  0
 17 18  1  0
 18 19  2  0
 19 20  1  0
 20 21  2  0
 21 22  1  0
 22 23  2  0
 14 24  2  0
  9  3  1  0
 24 10  1  0
 23 18  1  0
  1 25  1  0
  1 26  1  0
  1 27  1  0
  4 28  1  0
  5 29  1  0
  6 30  1  0
 11 31  1  0
 12 32  1  0
 13 33  1  0
 17 34  1  0
 19 35  1  0
 20 36  1  0
 21 37  1  0
 22 38  1  0
 23 39  1  0
 24 40  1  0
M  END
>  <UniqueID>  (6) 
5

>  <SMILES>  (6) 
COc1cccc(=O)n1-c1cccc(C(=O)Nc2ccccc2)c1

>  <Energy>  (6) 
59.065132353214565

>  <Genealogy>  (6) 
COc1cccc(=O)n1-c1cccc(C(=O)Nc2ccccc2)c1 (3D coordinates assigned)
COc1cccc(=O)n1-c1cccc(C(=O)Nc2ccccc2)c1 (optimized conformer: 59.065132353214565 kcal/mol)

>  <smiles>  (6) 
COc1cccc(=O)n1-c1cccc(C(=O)Nc2ccccc2)c1

>  <score_type>  (6) 
oracle

>  <origin>  (6) 
adg

>  <m_score__min__energy>  (6) 
-7.6100000000000003

>  <m_primary>  (6) 
energy

$$$$
6:0
     RDKit          3D

 35 37  0  0  0  0  0  0  0  0999 V2000
   58.0920   32.7250   42.7830 C   0  0  0  0  0  0  0  0  0  0  0  0
   58.2500   33.1410   44.2200 C   0  0  0  0  0  0  0  0  0  0  0  0
   59.1360   34.1780   44.5560 C   0  0  0  0  0  0  0  0  0  0  0  0
   59.2900   34.5720   45.8870 C   0  0  0  0  0  0  0  0  0  0  0  0
   58.5560   33.9420   46.8910 C   0  0  0  0  0  0  0  0  0  0  0  0
   57.6750   32.9070   46.5730 C   0  0  0  0  0  0  0  0  0  0  0  0
   57.5280   32.4820   45.2380 C   0  0  0  0  0  0  0  0  0  0  0  0
   56.6100   31.4330   44.8860 N   0  0  0  0  0  0  0  0  0  0  0  0
   56.9540   30.1500   44.3490 C   0  0  0  0  0  0  0  0  0  0  0  0
   57.2030   30.0160   43.1220 O   0  0  0  0  0  0  0  0  0  0  0  0
   56.9240   28.9720   45.2310 C   0  0  0  0  0  0  0  0  0  0  0  0
   55.9080   28.0860   45.2430 N   0  0  0  0  0  0  0  0  0  0  0  0
   56.2240   27.0890   46.0600 N   0  0  0  0  0  0  0  0  0  0  0  0
   57.4470   27.3200   46.5760 C   0  0  0  0  0  0  0  0  0  0  0  0
   57.9130   28.5150   46.0840 C   0  0  0  0  0  0  0  0  0  0  0  0
   59.1660   29.1260   46.4140 N   0  0  0  0  0  0  0  0  0  0  0  0
   59.3590   29.8940   47.6120 C   0  0  0  0  0  0  0  0  0  0  0  0
   58.4910   29.8650   48.5250 O   0  0  0  0  0  0  0  0  0  0  0  0
   60.5750   30.7030   47.8040 C   0  0  0  0  0  0  0  0  0  0  0  0
   61.1490   31.5780   46.8860 C   0  0  0  0  0  0  0  0  0  0  0  0
   62.2940   32.2190   47.3730 C   0  0  0  0  0  0  0  0  0  0  0  0
   62.6270   31.8590   48.6720 C   0  0  0  0  0  0  0  0  0  0  0  0
   61.4920   30.7420   49.2140 S   0  0  0  0  0  0  0  0  0  0  0  0
   57.7017   31.6975   42.7395 H   0  0  0  0  0  0  0  0  0  0  0  0
   57.3897   33.4056   42.2794 H   0  0  0  0  0  0  0  0  0  0  0  0
   59.0690   32.7678   42.2794 H   0  0  0  0  0  0  0  0  0  0  0  0
   59.7118   34.6826   43.7662 H   0  0  0  0  0  0  0  0  0  0  0  0
   59.9910   35.3800   46.1434 H   0  0  0  0  0  0  0  0  0  0  0  0
   58.6715   34.2616   47.9372 H   0  0  0  0  0  0  0  0  0  0  0  0
   57.0924   32.4206   47.3692 H   0  0  0  0  0  0  0  0  0  0  0  0
   57.9832   26.6613   47.2750 H   0  0  0  0  0  0  0  0  0  0  0  0
   60.0060   28.8260   45.8700 H   0  0  0  0  0  0  0  0  0  0  0  0
   60.7430   31.7487   45.8780 H   0  0  0  0  0  0  0  0  0  0  0  0
   62.8761   32.9410   46.7815 H   0  0  0  0  0  0  0  0  0  0  0  0
   63.4845   32.2385   49.2471 H   0  0  0  0  0  0  0  0  0  0  0  0
  1  2  1  0
  2  3  2  0
  3  4  1  0
  4  5  2  0
  5  6  1  0
  6  7  2  0
  7  8  1  0
  8  9  1  0
  9 10  2  0
  9 11  1  0
 11 12  2  0
 12 13  1  0
 13 14  1  0
 14 15  2  0
 15 16  1  0
 16 17  1  0
 17 18  2  0
 17 19  1  0
 19 20  2  0
 20 21  1  0
 21 22  2  0
 22 23  1  0
  7  2  1  0
 15 11  1  0
 23 19  1  0
  1 24  1  0
  1 25  1  0
  1 26  1  0
  3 27  1  0
  4 28  1  0
  5 29  1  0
  6 30  1  0
 14 31  1  0
 16 32  1  0
 20 33  1  0
 21 34  1  0
 22 35  1  0
M  CHG  2   8  -1  13  -1
M  END
>  <UniqueID>  (7) 
6

>  <SMILES>  (7) 
Cc1ccccc1[N-]C(=O)c1n[n-]cc1NC(=O)c1cccs1

>  <Energy>  (7) 
102.15511106761662

>  <Genealogy>  (7) 
Cc1ccccc1[N-]C(=O)c1n[n-]cc1NC(=O)c1cccs1 (protonated)
Cc1ccccc1[N-]C(=O)c1n[n-]cc1NC(=O)c1cccs1 (3D coordinates assigned)
Cc1ccccc1[N-]C(=O)c1n[n-]cc1NC(=O)c1cccs1 (optimized conformer: 102.15511106761662 kcal/mol)

>  <smiles>  (7) 
Cc1ccccc1NC(=O)c1n[nH]cc1NC(=O)c1cccs1

>  <score_type>  (7) 
oracle

>  <origin>  (7) 
adg

>  <m_score__min__energy>  (7) 
-10.26

>  <m_primary>  (7) 
energy

$$$$
7:0
     RDKit          3D

 29 32  0  0  0  0  0  0  0  0999 V2000
   57.1740   30.9490   42.3130 O   0  0  0  0  0  0  0  0  0  0  0  0
   57.6050   31.5820   43.3120 C   0  0  0  0  0  0  0  0  0  0  0  0
   57.9880   32.9530   43.2810 N   0  0  0  0  0  0  0  0  0  0  0  0
   58.3880   33.1760   44.4930 C   0  0  0  0  0  0  0  0  0  0  0  0
   58.8570   34.4000   44.9680 C   0  0  0  0  0  0  0  0  0  0  0  0
   59.2360   34.4950   46.3170 C   0  0  0  0  0  0  0  0  0  0  0  0
   59.1370   33.3750   47.1670 C   0  0  0  0  0  0  0  0  0  0  0  0
   58.6620   32.1470   46.6760 C   0  0  0  0  0  0  0  0  0  0  0  0
   58.3050   32.0670   45.3260 C   0  0  0  0  0  0  0  0  0  0  0  0
   57.8250   31.0370   44.6420 C   0  0  0  0  0  0  0  0  0  0  0  0
   57.5770   29.6610   45.1070 C   0  0  0  0  0  0  0  0  0  0  0  0
   56.3570   28.9900   45.1550 C   0  0  0  0  0  0  0  0  0  0  0  0
   55.1210   29.5370   44.8190 O   0  0  0  0  0  0  0  0  0  0  0  0
   56.4930   27.7180   45.5960 N   0  0  0  0  0  0  0  0  0  0  0  0
   57.8140   27.5840   45.8250 C   0  0  0  0  0  0  0  0  0  0  0  0
   58.4660   26.4360   46.2710 C   0  0  0  0  0  0  0  0  0  0  0  0
   59.8640   26.4830   46.4130 C   0  0  0  0  0  0  0  0  0  0  0  0
   60.5760   27.6610   46.0990 C   0  0  0  0  0  0  0  0  0  0  0  0
   59.8950   28.8050   45.6480 C   0  0  0  0  0  0  0  0  0  0  0  0
   58.5050   28.7360   45.5380 C   0  0  0  0  0  0  0  0  0  0  0  0
   58.9286   35.2718   44.3011 H   0  0  0  0  0  0  0  0  0  0  0  0
   59.6126   35.4497   46.7128 H   0  0  0  0  0  0  0  0  0  0  0  0
   59.4338   33.4628   48.2226 H   0  0  0  0  0  0  0  0  0  0  0  0
   58.5733   31.2716   47.3361 H   0  0  0  0  0  0  0  0  0  0  0  0
   54.3490   28.9580   44.5190 H   0  0  0  0  0  0  0  0  0  0  0  0
   57.9035   25.5201   46.5050 H   0  0  0  0  0  0  0  0  0  0  0  0
   60.4068   25.5958   46.7712 H   0  0  0  0  0  0  0  0  0  0  0  0
   61.6704   27.6837   46.2079 H   0  0  0  0  0  0  0  0  0  0  0  0
   60.4398   29.7251   45.3900 H   0  0  0  0  0  0  0  0  0  0  0  0
  1  2  2  0
  2  3  1  0
  3  4  2  0
  4  5  1  0
  5  6  2  0
  6  7  1  0
  7  8  2  0
  8  9  1  0
  9 10  2  0
 10 11  1  0
 11 12  2  0
 12 13  1  0
 12 14  1  0
 14 15  1  0
 15 16  2  0
 16 17  1  0
 17 18  2  0
 18 19  1  0
 19 20  2  0
 10  2  1  0
 20 11  1  0
  9  4  1  0
 20 15  1  0
  5 21  1  0
  6 22  1  0
  7 23  1  0
  8 24  1  0
 13 25  1  0
 16 26  1  0
 17 27  1  0
 18 28  1  0
 19 29  1  0
M  CHG  1  14  -1
M  END
>  <UniqueID>  (8) 
7

>  <SMILES>  (8) 
O=C1N=c2ccccc2=C1c1c(O)[n-]c2ccccc12

>  <Energy>  (8) 
104.00966394221784

>  <Genealogy>  (8) 
O=C1N=c2ccccc2=C1c1c(O)[n-]c2ccccc12 (protonated)
O=C1N=c2ccccc2=C1c1c(O)[n-]c2ccccc12 (3D coordinates assigned)
O=C1N=c2ccccc2=C1c1c(O)[n-]c2ccccc12 (nonaromatic ring conformer: 104.00966394221784 kcal/mol)

>  <smiles>  (8) 
O=C1N=c2ccccc2=C1c1c(O)[nH]c2ccccc12

>  <score_type>  (8) 
oracle

>  <origin>  (8) 
adg

>  <m_score__min__energy>  (8) 
-10.859999999999999

>  <m_primary>  (8) 
energy

$$$$
8:0
     RDKit          3D

 43 45  0  0  0  0  0  0  0  0999 V2000
   55.4130   26.5390   46.0790 O   0  0  0  0  0  0  0  0  0  0  0  0
   56.4100   25.8020   45.8510 C   0  0  0  0  0  0  0  0  0  0  0  0
   56.2810   24.7610   44.9240 C   0  0  0  0  0  0  0  0  0  0  0  0
   57.3740   23.9440   44.6470 C   0  0  0  0  0  0  0  0  0  0  0  0
   58.5840   24.1680   45.2980 C   0  0  0  0  0  0  0  0  0  0  0  0
   58.6830   25.2080   46.2230 C   0  0  0  0  0  0  0  0  0  0  0  0
   57.6070   26.0120   46.4950 N   0  0  0  0  0  0  0  0  0  0  0  0
   57.7720   27.0990   47.4770 C   0  0  0  0  0  0  0  0  0  0  0  0
   59.0730   27.8930   47.2340 C   0  0  0  0  0  0  0  0  0  0  0  0
   58.8650   29.1050   46.3830 N   0  0  1  0  0  0  0  0  0  0  0  0
   59.9950   30.0580   46.5300 C   0  0  0  0  0  0  0  0  0  0  0  0
   59.5240   31.4910   46.5510 C   0  0  0  0  0  0  0  0  0  0  0  0
   60.4360   32.5410   46.7300 C   0  0  0  0  0  0  0  0  0  0  0  0
   59.9710   33.8580   46.7470 C   0  0  0  0  0  0  0  0  0  0  0  0
   58.6090   34.1160   46.5840 C   0  0  0  0  0  0  0  0  0  0  0  0
   57.7290   33.0470   46.4040 C   0  0  0  0  0  0  0  0  0  0  0  0
   58.2000   31.7710   46.3930 N   0  0  0  0  0  0  0  0  0  0  0  0
   58.7200   28.7440   44.9510 C   0  0  0  0  0  0  0  0  0  0  0  0
   57.4370   29.2640   44.3690 C   0  0  0  0  0  0  0  0  0  0  0  0
   57.0220   29.1160   43.0600 C   0  0  0  0  0  0  0  0  0  0  0  0
   55.7870   29.7230   42.9940 C   0  0  0  0  0  0  0  0  0  0  0  0
   55.5270   30.2030   44.2620 C   0  0  0  0  0  0  0  0  0  0  0  0
   56.5290   29.9130   45.0600 O   0  0  0  0  0  0  0  0  0  0  0  0
   55.3203   24.5891   44.4166 H   0  0  0  0  0  0  0  0  0  0  0  0
   57.2819   23.1258   43.9176 H   0  0  0  0  0  0  0  0  0  0  0  0
   59.4547   23.5305   45.0850 H   0  0  0  0  0  0  0  0  0  0  0  0
   59.6373   25.3849   46.7407 H   0  0  0  0  0  0  0  0  0  0  0  0
   56.9155   27.7846   47.3976 H   0  0  0  0  0  0  0  0  0  0  0  0
   57.8253   26.6507   48.4801 H   0  0  0  0  0  0  0  0  0  0  0  0
   59.4763   28.2120   48.2064 H   0  0  0  0  0  0  0  0  0  0  0  0
   59.7693   27.2300   46.6995 H   0  0  0  0  0  0  0  0  0  0  0  0
   57.9930   29.6100   46.6620 H   0  0  0  0  0  0  0  0  0  0  0  0
   60.5213   29.8429   47.4717 H   0  0  0  0  0  0  0  0  0  0  0  0
   60.6622   29.9314   45.6647 H   0  0  0  0  0  0  0  0  0  0  0  0
   61.5081   32.3294   46.8559 H   0  0  0  0  0  0  0  0  0  0  0  0
   60.6766   34.6899   46.8885 H   0  0  0  0  0  0  0  0  0  0  0  0
   58.2332   35.1497   46.5972 H   0  0  0  0  0  0  0  0  0  0  0  0
   56.6537   33.2369   46.2710 H   0  0  0  0  0  0  0  0  0  0  0  0
   59.5640   29.1711   44.3895 H   0  0  0  0  0  0  0  0  0  0  0  0
   58.7081   27.6466   44.8758 H   0  0  0  0  0  0  0  0  0  0  0  0
   57.5636   28.6182   42.2422 H   0  0  0  0  0  0  0  0  0  0  0  0
   55.1388   29.8080   42.1093 H   0  0  0  0  0  0  0  0  0  0  0  0
   54.6179   30.7463   44.5591 H   0  0  0  0  0  0  0  0  0  0  0  0
  1  2  2  0
  2  3  1  0
  3  4  2  0
  4  5  1  0
  5  6  2  0
  6  7  1  0
  7  8  1  0
  8  9  1  0
  9 10  1  0
 10 11  1  0
 11 12  1  0
 12 13  2  0
 13 14  1  0
 14 15  2  0
 15 16  1  0
 16 17  2  0
 10 18  1  0
 18 19  1  0
 19 20  2  0
 20 21  1  0
 21 22  2  0
 22 23  1  0
  7  2  1  0
 17 12  1  0
 23 19  1  0
  3 24  1  0
  4 25  1  0
  5 26  1  0
  6 27  1  0
  8 28  1  0
  8 29  1  0
  9 30  1  0
  9 31  1  0
 10 32  1  1
 11 33  1  0
 11 34  1  0
 13 35  1  0
 14 36  1  0
 15 37  1  0
 16 38  1  0
 18 39  1  0
 18 40  1  0
 20 41  1  0
 21 42  1  0
 22 43  1  0
M  CHG  1  10   1
M  END
>  <UniqueID>  (9) 
8

>  <SMILES>  (9) 
O=c1ccccn1CC[N@@H+](Cc1ccccn1)Cc1ccco1

>  <Energy>  (9) 
73.50184477466264

>  <Genealogy>  (9) 
O=c1ccccn1CC[NH+](Cc1ccccn1)Cc1ccco1 (protonated)
O=c1ccccn1CC[N@@H+](Cc1ccccn1)Cc1ccco1 (chirality)
O=c1ccccn1CC[N@@H+](Cc1ccccn1)Cc1ccco1 (3D coordinates assigned)
O=c1ccccn1CC[N@@H+](Cc1ccccn1)Cc1ccco1 (optimized conformer: 73.50184477466264 kcal/mol)

>  <smiles>  (9) 
O=c1ccccn1CCN(Cc1ccccn1)Cc1ccco1

>  <score_type>  (9) 
oracle

>  <origin>  (9) 
adg

>  <m_score__min__energy>  (9) 
-5.0999999999999996

>  <m_primary>  (9) 
energy

$$$$
9:0
     RDKit          3D

 33 35  0  0  1  0  0  0  0  0999 V2000
   56.9520   22.4870   43.6740 C   0  0  0  0  0  0  0  0  0  0  0  0
   57.9610   22.8610   44.5360 C   0  0  0  0  0  0  0  0  0  0  0  0
   57.6920   23.8570   45.4490 C   0  0  0  0  0  0  0  0  0  0  0  0
   56.4280   24.4610   45.4860 C   0  0  0  0  0  0  0  0  0  0  0  0
   56.2530   25.4810   46.4670 N   0  0  0  0  0  0  0  0  0  0  0  0
   56.7530   26.6270   46.2280 C   0  0  0  0  0  0  0  0  0  0  0  0
   58.0390   26.8710   46.6610 C   0  0  0  0  0  0  0  0  0  0  0  0
   58.6930   28.0710   46.4640 C   0  0  0  0  0  0  0  0  0  0  0  0
   57.9980   29.0380   45.8030 N   0  0  0  0  0  0  0  0  0  0  0  0
   56.7360   28.8150   45.3730 C   0  0  0  0  0  0  0  0  0  0  0  0
   56.1550   29.7940   44.7560 N   0  0  0  0  0  0  0  0  0  0  0  0
   56.9420   30.9500   44.4210 C   0  0  0  0  0  0  0  0  0  0  0  0
   57.2890   31.2140   43.1040 C   0  0  0  0  0  0  0  0  0  0  0  0
   58.0520   32.3380   42.7970 C   0  0  0  0  0  0  0  0  0  0  0  0
   58.4530   33.1780   43.8220 C   0  0  0  0  0  0  0  0  0  0  0  0
   58.0950   32.9010   45.1460 C   0  0  0  0  0  0  0  0  0  0  0  0
   57.3630   31.8060   45.3710 N   0  0  0  0  0  0  0  0  0  0  0  0
   56.1280   27.6250   45.5850 N   0  0  0  0  0  0  0  0  0  0  0  0
   55.4260   24.0800   44.6210 C   0  0  0  0  0  0  0  0  0  0  0  0
   55.6940   23.0870   43.7120 C   0  0  0  0  0  0  0  0  0  0  0  0
   57.1447   21.6939   42.9365 H   0  0  0  0  0  0  0  0  0  0  0  0
   58.9492   22.3795   44.4960 H   0  0  0  0  0  0  0  0  0  0  0  0
   58.4735   24.1798   46.1526 H   0  0  0  0  0  0  0  0  0  0  0  0
   58.5718   26.0678   47.1911 H   0  0  0  0  0  0  0  0  0  0  0  0
   59.7199   28.2370   46.8216 H   0  0  0  0  0  0  0  0  0  0  0  0
   58.4840   29.9480   45.6500 H   0  0  0  0  0  0  0  0  0  0  0  0
   56.9616   30.5357   42.3023 H   0  0  0  0  0  0  0  0  0  0  0  0
   58.3319   32.5552   41.7556 H   0  0  0  0  0  0  0  0  0  0  0  0
   59.0568   34.0687   43.5940 H   0  0  0  0  0  0  0  0  0  0  0  0
   58.4045   33.5599   45.9706 H   0  0  0  0  0  0  0  0  0  0  0  0
   55.1570   27.4730   45.2460 H   0  0  0  0  0  0  0  0  0  0  0  0
   54.4365   24.5592   44.6577 H   0  0  0  0  0  0  0  0  0  0  0  0
   54.9120   22.7628   43.0096 H   0  0  0  0  0  0  0  0  0  0  0  0
  1  2  2  0
  2  3  1  0
  3  4  2  0
  4  5  1  0
  5  6  2  0
  6  7  1  0
  7  8  2  0
  8  9  1  0
  9 10  1  0
 10 11  2  0
 11 12  1  0
 12 13  2  0
 13 14  1  0
 14 15  2  0
 15 16  1  0
 16 17  2  0
 10 18  1  0
  4 19  1  0
 19 20  2  0
 20  1  1  0
 18  6  1  0
 17 12  1  0
  1 21  1  0
  2 22  1  0
  3 23  1  0
  7 24  1  0
  8 25  1  0
  9 26  1  0
 13 27  1  0
 14 28  1  0
 15 29  1  0
 16 30  1  0
 18 31  1  0
 19 32  1  0
 20 33  1  0
M  END
>  <smiles>  (10) 
c1ccc(N=c2cc[nH]c(=Nc3ccccn3)[nH]2)cc1

>  <score_type>  (10) 
oracle

>  <origin>  (10) 
adg

>  <m_score__min__energy>  (10) 
-7.4400000000000004

>  <m_primary>  (10) 
energy

$$$$
10:0
     RDKit          3D

 50 52  0  0  0  0  0  0  0  0999 V2000
   60.0170   30.6250   50.8440 C   0  0  0  0  0  0  0  0  0  0  0  0
   59.5890   31.0810   49.4810 C   0  0  0  0  0  0  0  0  0  0  0  0
   60.2860   30.6570   48.3420 C   0  0  0  0  0  0  0  0  0  0  0  0
   59.9120   31.1120   47.0740 C   0  0  0  0  0  0  0  0  0  0  0  0
   58.8410   32.0090   46.9280 C   0  0  0  0  0  0  0  0  0  0  0  0
   58.4590   32.4870   45.6230 N   0  0  0  0  0  0  0  0  0  0  0  0
   58.6730   33.8890   45.2430 C   0  0  0  0  0  0  0  0  0  0  0  0
   59.8230   34.5040   45.9930 C   0  0  0  0  0  0  0  0  0  0  0  0
   59.6430   35.5900   46.6070 O   0  0  0  0  0  0  0  0  0  0  0  0
   61.0890   33.8350   46.0820 N   0  0  0  0  0  0  0  0  0  0  0  0
   61.9230   33.8510   47.2530 C   0  0  0  0  0  0  0  0  0  0  0  0
   63.2670   33.4640   47.1380 C   0  0  0  0  0  0  0  0  0  0  0  0
   64.0930   33.4250   48.2650 C   0  0  0  0  0  0  0  0  0  0  0  0
   63.5790   33.7540   49.5200 C   0  0  0  0  0  0  0  0  0  0  0  0
   62.2370   34.1160   49.6520 C   0  0  0  0  0  0  0  0  0  0  0  0
   61.4040   34.1590   48.5290 C   0  0  0  0  0  0  0  0  0  0  0  0
   60.0900   34.4460   48.7010 F   0  0  0  0  0  0  0  0  0  0  0  0
   57.7060   31.4140   44.4750 S   0  0  0  0  0  0  0  0  0  0  0  0
   56.2120   31.5620   44.5590 O   0  0  0  0  0  0  0  0  0  0  0  0
   58.1310   31.7660   43.0760 O   0  0  0  0  0  0  0  0  0  0  0  0
   58.1630   29.7520   44.8350 C   0  0  0  0  0  0  0  0  0  0  0  0
   57.2770   28.9170   45.5290 C   0  0  0  0  0  0  0  0  0  0  0  0
   57.6660   27.6250   45.8950 C   0  0  0  0  0  0  0  0  0  0  0  0
   58.9440   27.1500   45.5630 C   0  0  0  0  0  0  0  0  0  0  0  0
   59.3850   25.7890   46.0100 C   0  0  0  0  0  0  0  0  0  0  0  0
   59.8330   27.9910   44.8760 C   0  0  0  0  0  0  0  0  0  0  0  0
   59.4420   29.2810   44.5070 C   0  0  0  0  0  0  0  0  0  0  0  0
   58.1530   32.4420   48.0730 C   0  0  0  0  0  0  0  0  0  0  0  0
   58.5280   31.9880   49.3400 C   0  0  0  0  0  0  0  0  0  0  0  0
   59.4766   31.2008   51.6098 H   0  0  0  0  0  0  0  0  0  0  0  0
   59.7893   29.5552   50.9610 H   0  0  0  0  0  0  0  0  0  0  0  0
   61.0991   30.7845   50.9610 H   0  0  0  0  0  0  0  0  0  0  0  0
   61.1324   29.9621   48.4460 H   0  0  0  0  0  0  0  0  0  0  0  0
   60.4598   30.7654   46.1853 H   0  0  0  0  0  0  0  0  0  0  0  0
   58.8854   33.9368   44.1648 H   0  0  0  0  0  0  0  0  0  0  0  0
   57.7622   34.4529   45.4931 H   0  0  0  0  0  0  0  0  0  0  0  0
   61.4600   33.3620   45.2300 H   0  0  0  0  0  0  0  0  0  0  0  0
   63.6736   33.1893   46.1535 H   0  0  0  0  0  0  0  0  0  0  0  0
   65.1491   33.1347   48.1625 H   0  0  0  0  0  0  0  0  0  0  0  0
   64.2312   33.7281   50.4054 H   0  0  0  0  0  0  0  0  0  0  0  0
   61.8329   34.3685   50.6435 H   0  0  0  0  0  0  0  0  0  0  0  0
   56.2711   29.2797   45.7869 H   0  0  0  0  0  0  0  0  0  0  0  0
   56.9673   26.9780   46.4456 H   0  0  0  0  0  0  0  0  0  0  0  0
   59.3975   25.7503   47.1092 H   0  0  0  0  0  0  0  0  0  0  0  0
   58.6861   25.0321   45.6244 H   0  0  0  0  0  0  0  0  0  0  0  0
   60.3950   25.5858   45.6244 H   0  0  0  0  0  0  0  0  0  0  0  0
   60.8428   27.6330   44.6267 H   0  0  0  0  0  0  0  0  0  0  0  0
   60.1403   29.9291   43.9572 H   0  0  0  0  0  0  0  0  0  0  0  0
   57.3123   33.1441   47.9716 H   0  0  0  0  0  0  0  0  0  0  0  0
   57.9891   32.3432   50.2307 H   0  0  0  0  0  0  0  0  0  0  0  0
  1  2  1  0
  2  3  2  0
  3  4  1  0
  4  5  2  0
  5  6  1  0
  6  7  1  0
  7  8  1  0
  8  9  2  0
  8 10  1  0
 10 11  1  0
 11 12  2  0
 12 13  1  0
 13 14  2  0
 14 15  1  0
 15 16  2  0
 16 17  1  0
  6 18  1  0
 18 19  2  0
 18 20  2  0
 18 21  1  0
 21 22  2  0
 22 23  1  0
 23 24  2  0
 24 25  1  0
 24 26  1  0
 26 27  2  0
  5 28  1  0
 28 29  2  0
 29  2  1  0
 16 11  1  0
 27 21  1  0
  1 30  1  0
  1 31  1  0
  1 32  1  0
  3 33  1  0
  4 34  1  0
  7 35  1  0
  7 36  1  0
 10 37  1  0
 12 38  1  0
 13 39  1  0
 14 40  1  0
 15 41  1  0
 22 42  1  0
 23 43  1  0
 25 44  1  0
 25 45  1  0
 25 46  1  0
 26 47  1  0
 27 48  1  0
 28 49  1  0
 29 50  1  0
M  END
>  <UniqueID>  (11) 
9

>  <SMILES>  (11) 
Cc1ccc(N(CC(=O)Nc2ccccc2F)S(=O)(=O)c2ccc(C)cc2)cc1

>  <Energy>  (11) 
56.210138110700186

>  <Genealogy>  (11) 
Cc1ccc(N(CC(=O)Nc2ccccc2F)S(=O)(=O)c2ccc(C)cc2)cc1 (3D coordinates assigned)
Cc1ccc(N(CC(=O)Nc2ccccc2F)S(=O)(=O)c2ccc(C)cc2)cc1 (optimized conformer: 56.210138110700186 kcal/mol)

>  <smiles>  (11) 
Cc1ccc(N(CC(=O)Nc2ccccc2F)S(=O)(=O)c2ccc(C)cc2)cc1

>  <score_type>  (11) 
oracle

>  <origin>  (11) 
adg

>  <m_score__min__energy>  (11) 
-9.7799999999999994

>  <m_primary>  (11) 
energy

$$$$
11:0
     RDKit          3D

 50 53  0  0  0  0  0  0  0  0999 V2000
   58.9498   34.4972   55.0451 H   0  0  0  0  0  0  0  0  0  0  0  0
   59.2380   33.9660   54.1260 C   0  0  0  0  0  0  0  0  0  0  0  0
   58.5580   34.1870   52.6040 S   0  0  0  0  0  0  0  0  0  0  0  0
   59.5220   33.0700   51.7960 C   0  0  0  0  0  0  0  0  0  0  0  0
   59.3840   32.7360   50.3670 C   0  0  0  0  0  0  0  0  0  0  0  0
   58.1890   32.7020   49.7390 N   0  0  0  0  0  0  0  0  0  0  0  0
   58.4390   32.3950   48.4750 N   0  0  0  0  0  0  0  0  0  0  0  0
   57.7150   32.2940   47.7330 H   0  0  0  0  0  0  0  0  0  0  0  0
   59.7670   32.2550   48.3360 C   0  0  0  0  0  0  0  0  0  0  0  0
   60.5840   31.8990   46.7750 S   0  0  0  0  0  0  0  0  0  0  0  0
   60.8980   33.6540   46.3580 C   0  0  0  0  0  0  0  0  0  0  0  0
   61.3668   33.7017   45.3641 H   0  0  0  0  0  0  0  0  0  0  0  0
   61.5550   34.0694   47.1363 H   0  0  0  0  0  0  0  0  0  0  0  0
   59.6370   34.4780   46.3370 C   0  0  0  0  0  0  0  0  0  0  0  0
   59.7140   35.7350   46.3330 O   0  0  0  0  0  0  0  0  0  0  0  0
   58.3310   33.8780   46.3430 N   0  0  0  0  0  0  0  0  0  0  0  0
   57.8770   32.9540   45.5460 C   0  0  0  0  0  0  0  0  0  0  0  0
   57.3820   31.7620   45.9490 N   0  0  0  0  0  0  0  0  0  0  0  0
   57.0240   30.9780   44.9330 N   0  0  0  0  0  0  0  0  0  0  0  0
   57.2270   31.5450   43.7230 C   0  0  0  0  0  0  0  0  0  0  0  0
   56.9520   30.8500   42.4270 C   0  0  0  0  0  0  0  0  0  0  0  0
   57.8652   30.8554   41.8137 H   0  0  0  0  0  0  0  0  0  0  0  0
   56.1398   31.3796   41.9075 H   0  0  0  0  0  0  0  0  0  0  0  0
   56.5200   29.4070   42.6690 C   0  0  0  0  0  0  0  0  0  0  0  0
   56.4634   29.2178   43.7511 H   0  0  0  0  0  0  0  0  0  0  0  0
   55.5322   29.2390   42.2152 H   0  0  0  0  0  0  0  0  0  0  0  0
   57.2530   28.7238   42.2152 H   0  0  0  0  0  0  0  0  0  0  0  0
   57.9000   33.0850   43.8700 S   0  0  0  0  0  0  0  0  0  0  0  0
   60.3950   32.4480   49.5120 N   0  0  0  0  0  0  0  0  0  0  0  0
   61.8110   32.5330   49.7260 C   0  0  0  0  0  0  0  0  0  0  0  0
   62.4750   33.7340   49.4420 C   0  0  0  0  0  0  0  0  0  0  0  0
   61.9036   34.6026   49.0827 H   0  0  0  0  0  0  0  0  0  0  0  0
   63.8560   33.8350   49.6120 C   0  0  0  0  0  0  0  0  0  0  0  0
   64.3697   34.7785   49.3754 H   0  0  0  0  0  0  0  0  0  0  0  0
   64.5910   32.7390   50.0830 C   0  0  0  0  0  0  0  0  0  0  0  0
   66.0820   32.8340   50.2230 C   0  0  0  0  0  0  0  0  0  0  0  0
   66.3498   32.8511   51.2898 H   0  0  0  0  0  0  0  0  0  0  0  0
   66.5517   31.9640   49.7409 H   0  0  0  0  0  0  0  0  0  0  0  0
   66.4375   33.7566   49.7409 H   0  0  0  0  0  0  0  0  0  0  0  0
   63.9330   31.5330   50.3630 C   0  0  0  0  0  0  0  0  0  0  0  0
   64.5120   30.6640   50.7088 H   0  0  0  0  0  0  0  0  0  0  0  0
   62.5410   31.4240   50.2060 C   0  0  0  0  0  0  0  0  0  0  0  0
   61.8510   30.1260   50.5270 C   0  0  0  0  0  0  0  0  0  0  0  0
   61.7867   30.0051   51.6184 H   0  0  0  0  0  0  0  0  0  0  0  0
   60.8379   30.1336   50.0986 H   0  0  0  0  0  0  0  0  0  0  0  0
   62.4240   29.2904   50.0986 H   0  0  0  0  0  0  0  0  0  0  0  0
   60.3880   32.4950   52.7230 C   0  0  0  0  0  0  0  0  0  0  0  0
   61.1265   31.7227   52.4618 H   0  0  0  0  0  0  0  0  0  0  0  0
   60.2260   32.9970   54.0210 C   0  0  0  0  0  0  0  0  0  0  0  0
   60.8260   32.6550   54.8771 H   0  0  0  0  0  0  0  0  0  0  0  0
  1  2  1  0
  2  3  1  0
  3  4  1  0
  4  5  1  0
  5  6  2  0
  6  7  1  0
  7  8  1  0
  7  9  2  0
  9 10  1  0
 10 11  1  0
 11 12  1  0
 11 13  1  0
 11 14  1  0
 14 15  2  0
 14 16  1  0
 16 17  2  0
 17 18  1  0
 18 19  1  0
 19 20  2  0
 20 21  1  0
 21 22  1  0
 21 23  1  0
 21 24  1  0
 24 25  1  0
 24 26  1  0
 24 27  1  0
 20 28  1  0
  9 29  1  0
 29 30  1  0
 30 31  2  0
 31 32  1  0
 31 33  1  0
 33 34  1  0
 33 35  2  0
 35 36  1  0
 36 37  1  0
 36 38  1  0
 36 39  1  0
 35 40  1  0
 40 41  1  0
 40 42  2  0
 42 43  1  0
 43 44  1  0
 43 45  1  0
 43 46  1  0
  4 47  2  0
 47 48  1  0
 47 49  1  0
 49 50  1  0
 49  2  2  0
 29  5  1  0
 42 30  1  0
 28 17  1  0
M  CHG  2   7   1  18  -1
M  END
>  <UniqueID>  (12) 
10

>  <SMILES>  (12) 
CCc1n[n-]/c(=N\C(=O)CSc2[nH+]nc(-c3cccs3)n2-c2ccc(C)cc2C)s1

>  <Energy>  (12) 
152.60013611433652

>  <Genealogy>  (12) 
CCc1n[n-]c(=NC(=O)CSc2[nH+]nc(-c3cccs3)n2-c2ccc(C)cc2C)s1 (protonated)
CCc1n[n-]/c(=N\C(=O)CSc2[nH+]nc(-c3cccs3)n2-c2ccc(C)cc2C)s1 (cis-trans isomerization)
CCc1n[n-]/c(=N\C(=O)CSc2[nH+]nc(-c3cccs3)n2-c2ccc(C)cc2C)s1 (3D coordinates assigned)
CCc1n[n-]/c(=N\C(=O)CSc2[nH+]nc(-c3cccs3)n2-c2ccc(C)cc2C)s1 (optimized conformer: 152.60013611433652 kcal/mol)

>  <smiles>  (12) 
CCc1n[nH]c(=NC(=O)CSc2nnc(-c3cccs3)n2-c2ccc(C)cc2C)s1

>  <score_type>  (12) 
oracle

>  <origin>  (12) 
adg

>  <m_score__min__energy>  (12) 
-10.109999999999999

>  <m_primary>  (12) 
energy

$$$$
12:0
     RDKit          3D

 36 39  0  0  0  0  0  0  0  0999 V2000
   60.7200   26.3010   46.5440 C   0  0  0  0  0  0  0  0  0  0  0  0
   59.5200   27.0390   46.0280 C   0  0  0  0  0  0  0  0  0  0  0  0
   59.6440   27.9170   44.9420 C   0  0  0  0  0  0  0  0  0  0  0  0
   58.5180   28.5750   44.4380 C   0  0  0  0  0  0  0  0  0  0  0  0
   57.2540   28.3580   44.9980 C   0  0  0  0  0  0  0  0  0  0  0  0
   56.1570   29.0420   44.4500 O   0  0  0  0  0  0  0  0  0  0  0  0
   56.2400   30.2140   43.6380 C   0  0  0  0  0  0  0  0  0  0  0  0
   57.0530   31.2690   44.3150 C   0  0  0  0  0  0  0  0  0  0  0  0
   57.3830   31.2240   45.6340 N   0  0  0  0  0  0  0  0  0  0  0  0
   58.0790   32.3700   45.7690 C   0  0  0  0  0  0  0  0  0  0  0  0
   58.6830   32.8650   46.9240 C   0  0  0  0  0  0  0  0  0  0  0  0
   58.6430   32.1990   48.1570 C   0  0  0  0  0  0  0  0  0  0  0  0
   59.2760   32.7640   49.2690 C   0  0  0  0  0  0  0  0  0  0  0  0
   59.9460   33.9880   49.1530 C   0  0  0  0  0  0  0  0  0  0  0  0
   59.9900   34.6580   47.9250 C   0  0  0  0  0  0  0  0  0  0  0  0
   59.3620   34.1050   46.8040 C   0  0  0  0  0  0  0  0  0  0  0  0
   59.4010   34.7560   45.6000 N   0  0  0  0  0  0  0  0  0  0  0  0
   58.7940   34.2300   44.4970 C   0  0  0  0  0  0  0  0  0  0  0  0
   58.1490   33.0460   44.6200 N   0  0  0  0  0  0  0  0  0  0  0  0
   57.5070   32.3780   43.6830 N   0  0  0  0  0  0  0  0  0  0  0  0
   57.1280   27.4640   46.0800 C   0  0  0  0  0  0  0  0  0  0  0  0
   58.2540   26.8050   46.5850 C   0  0  0  0  0  0  0  0  0  0  0  0
   60.7094   26.3075   47.6439 H   0  0  0  0  0  0  0  0  0  0  0  0
   60.6947   25.2622   46.1832 H   0  0  0  0  0  0  0  0  0  0  0  0
   61.6357   26.7923   46.1832 H   0  0  0  0  0  0  0  0  0  0  0  0
   60.6298   28.0887   44.4852 H   0  0  0  0  0  0  0  0  0  0  0  0
   58.6268   29.2704   43.5926 H   0  0  0  0  0  0  0  0  0  0  0  0
   56.7110   29.9556   42.6781 H   0  0  0  0  0  0  0  0  0  0  0  0
   55.2242   30.6022   43.4724 H   0  0  0  0  0  0  0  0  0  0  0  0
   58.1168   31.2375   48.2494 H   0  0  0  0  0  0  0  0  0  0  0  0
   59.2473   32.2448   50.2383 H   0  0  0  0  0  0  0  0  0  0  0  0
   60.4409   34.4257   50.0325 H   0  0  0  0  0  0  0  0  0  0  0  0
   60.5183   35.6192   47.8414 H   0  0  0  0  0  0  0  0  0  0  0  0
   58.8279   34.7553   43.5311 H   0  0  0  0  0  0  0  0  0  0  0  0
   56.1403   27.2836   46.5293 H   0  0  0  0  0  0  0  0  0  0  0  0
   58.1461   26.1002   47.4226 H   0  0  0  0  0  0  0  0  0  0  0  0
  1  2  1  0
  2  3  2  0
  3  4  1  0
  4  5  2  0
  5  6  1  0
  6  7  1  0
  7  8  1  0
  8  9  1  0
  9 10  2  0
 10 11  1  0
 11 12  2  0
 12 13  1  0
 13 14  2  0
 14 15  1  0
 15 16  2  0
 16 17  1  0
 17 18  2  0
 18 19  1  0
 19 20  1  0
  5 21  1  0
 21 22  2  0
 22  2  1  0
 20  8  2  0
 19 10  1  0
 16 11  1  0
  1 23  1  0
  1 24  1  0
  1 25  1  0
  3 26  1  0
  4 27  1  0
  7 28  1  0
  7 29  1  0
 12 30  1  0
 13 31  1  0
 14 32  1  0
 15 33  1  0
 18 34  1  0
 21 35  1  0
 22 36  1  0
M  END
>  <UniqueID>  (13) 
11

>  <SMILES>  (13) 
Cc1ccc(OCc2nc3c4ccccc4ncn3n2)cc1

>  <Energy>  (13) 
80.89909463161416

>  <Genealogy>  (13) 
Cc1ccc(OCc2nc3c4ccccc4ncn3n2)cc1 (3D coordinates assigned)
Cc1ccc(OCc2nc3c4ccccc4ncn3n2)cc1 (optimized conformer: 80.89909463161416 kcal/mol)

>  <smiles>  (13) 
Cc1ccc(OCc2nc3c4ccccc4ncn3n2)cc1

>  <score_type>  (13) 
oracle

>  <origin>  (13) 
adg

>  <m_score__min__energy>  (13) 
-7.5899999999999999

>  <m_primary>  (13) 
energy

$$$$
13:0
     RDKit          3D

 45 48  0  0  0  0  0  0  0  0999 V2000
   65.8490   32.7150   49.7430 C   0  0  0  0  0  0  0  0  0  0  0  0
   64.3500   32.6920   49.7550 C   0  0  0  0  0  0  0  0  0  0  0  0
   63.6390   32.3070   48.6070 C   0  0  0  0  0  0  0  0  0  0  0  0
   62.2410   32.3200   48.6060 C   0  0  0  0  0  0  0  0  0  0  0  0
   61.5400   32.7270   49.7480 C   0  0  0  0  0  0  0  0  0  0  0  0
   59.7790   32.7360   49.7580 S   0  0  0  0  0  0  0  0  0  0  0  0
   59.2870   31.5290   50.5050 O   0  0  0  0  0  0  0  0  0  0  0  0
   59.2650   33.9770   50.4330 O   0  0  0  0  0  0  0  0  0  0  0  0
   59.1910   32.7010   48.1280 N   0  0  0  0  0  0  0  0  0  0  0  0
   58.6000   31.6490   47.5210 C   0  0  0  0  0  0  0  0  0  0  0  0
   58.2940   31.9670   46.1990 C   0  0  0  0  0  0  0  0  0  0  0  0
   57.6410   31.0750   45.2210 C   0  0  0  0  0  0  0  0  0  0  0  0
   57.4890   31.4500   43.9490 C   0  0  0  0  0  0  0  0  0  0  0  0
   56.8620   30.4950   42.9800 C   0  0  0  0  0  0  0  0  0  0  0  0
   55.6560   29.7700   43.6200 C   0  0  0  0  0  0  0  0  0  0  0  0
   55.8090   29.4630   45.0640 N   0  0  0  0  0  0  0  0  0  0  0  0
   57.1610   29.6970   45.5970 C   0  0  0  0  0  0  0  0  0  0  0  0
   58.7440   33.2660   46.0110 C   0  0  0  0  0  0  0  0  0  0  0  0
   58.7870   34.0750   44.8730 C   0  0  0  0  0  0  0  0  0  0  0  0
   59.3600   35.3530   44.9930 C   0  0  0  0  0  0  0  0  0  0  0  0
   59.8890   35.7870   46.2270 C   0  0  0  0  0  0  0  0  0  0  0  0
   59.8600   34.9440   47.3510 C   0  0  0  0  0  0  0  0  0  0  0  0
   59.2800   33.6800   47.2070 C   0  0  0  0  0  0  0  0  0  0  0  0
   62.2470   33.1350   50.8870 C   0  0  0  0  0  0  0  0  0  0  0  0
   63.6440   33.1220   50.8890 C   0  0  0  0  0  0  0  0  0  0  0  0
   66.2239   32.7208   50.7771 H   0  0  0  0  0  0  0  0  0  0  0  0
   66.2252   31.8225   49.2215 H   0  0  0  0  0  0  0  0  0  0  0  0
   66.1977   33.6186   49.2215 H   0  0  0  0  0  0  0  0  0  0  0  0
   64.1844   31.9938   47.7045 H   0  0  0  0  0  0  0  0  0  0  0  0
   61.6902   32.0097   47.7058 H   0  0  0  0  0  0  0  0  0  0  0  0
   58.3906   30.6815   48.0006 H   0  0  0  0  0  0  0  0  0  0  0  0
   57.8192   32.4454   43.6172 H   0  0  0  0  0  0  0  0  0  0  0  0
   56.5190   31.0526   42.0960 H   0  0  0  0  0  0  0  0  0  0  0  0
   57.6119   29.7429   42.6936 H   0  0  0  0  0  0  0  0  0  0  0  0
   54.7687   30.4087   43.4981 H   0  0  0  0  0  0  0  0  0  0  0  0
   55.5680   28.8019   43.1053 H   0  0  0  0  0  0  0  0  0  0  0  0
   55.1430   30.0630   45.6070 H   0  0  0  0  0  0  0  0  0  0  0  0
   57.1394   29.6070   46.6931 H   0  0  0  0  0  0  0  0  0  0  0  0
   57.8474   28.9507   45.1706 H   0  0  0  0  0  0  0  0  0  0  0  0
   58.3846   33.7226   43.9118 H   0  0  0  0  0  0  0  0  0  0  0  0
   59.3962   36.0195   44.1187 H   0  0  0  0  0  0  0  0  0  0  0  0
   60.3273   36.7925   46.3098 H   0  0  0  0  0  0  0  0  0  0  0  0
   60.2806   35.2685   48.3142 H   0  0  0  0  0  0  0  0  0  0  0  0
   61.7004   33.4665   51.7822 H   0  0  0  0  0  0  0  0  0  0  0  0
   64.1932   33.4504   51.7837 H   0  0  0  0  0  0  0  0  0  0  0  0
  1  2  1  0
  2  3  2  0
  3  4  1  0
  4  5  2  0
  5  6  1  0
  6  7  2  0
  6  8  2  0
  6  9  1  0
  9 10  1  0
 10 11  2  0
 11 12  1  0
 12 13  2  0
 13 14  1  0
 14 15  1  0
 15 16  1  0
 16 17  1  0
 11 18  1  0
 18 19  2  0
 19 20  1  0
 20 21  2  0
 21 22  1  0
 22 23  2  0
  5 24  1  0
 24 25  2  0
 25  2  1  0
 23  9  1  0
 17 12  1  0
 23 18  1  0
  1 26  1  0
  1 27  1  0
  1 28  1  0
  3 29  1  0
  4 30  1  0
 10 31  1  0
 13 32  1  0
 14 33  1  0
 14 34  1  0
 15 35  1  0
 15 36  1  0
 16 37  1  0
 17 38  1  0
 17 39  1  0
 19 40  1  0
 20 41  1  0
 21 42  1  0
 22 43  1  0
 24 44  1  0
 25 45  1  0
M  END
>  <UniqueID>  (14) 
12

>  <SMILES>  (14) 
Cc1ccc(S(=O)(=O)n2cc(C3=CCCNC3)c3ccccc32)cc1

>  <Energy>  (14) 
93.24956430086792

>  <Genealogy>  (14) 
Cc1ccc(S(=O)(=O)n2cc(C3=CCCNC3)c3ccccc32)cc1 (3D coordinates assigned)
Cc1ccc(S(=O)(=O)n2cc(C3=CCCNC3)c3ccccc32)cc1 (nonaromatic ring conformer: 93.24956430086792 kcal/mol)

>  <smiles>  (14) 
Cc1ccc(S(=O)(=O)n2cc(C3=CCCNC3)c3ccccc32)cc1

>  <score_type>  (14) 
oracle

>  <origin>  (14) 
adg

>  <m_score__min__energy>  (14) 
-9.2599999999999998

>  <m_primary>  (14) 
energy

$$$$
14:0
     RDKit          3D

 30 32  0  0  0  0  0  0  0  0999 V2000
   63.2310   33.1020   47.1720 C   0  0  0  0  0  0  0  0  0  0  0  0
   61.8380   33.3820   47.2680 O   0  0  0  0  0  0  0  0  0  0  0  0
   60.8210   32.5150   46.8360 C   0  0  0  0  0  0  0  0  0  0  0  0
   60.9840   31.1100   46.8570 C   0  0  0  0  0  0  0  0  0  0  0  0
   59.9340   30.3150   46.4090 C   0  0  0  0  0  0  0  0  0  0  0  0
   58.7520   30.8600   45.9580 C   0  0  0  0  0  0  0  0  0  0  0  0
   58.5530   32.2430   45.9250 C   0  0  0  0  0  0  0  0  0  0  0  0
   57.0320   32.9170   45.3460 Cl  0  0  0  0  0  0  0  0  0  0  0  0
   59.6050   33.0750   46.3680 C   0  0  0  0  0  0  0  0  0  0  0  0
   59.4180   34.8270   46.3490 Cl  0  0  0  0  0  0  0  0  0  0  0  0
   57.8750   29.7470   45.5900 C   0  0  0  0  0  0  0  0  0  0  0  0
   56.6950   29.8500   45.1600 O   0  0  0  0  0  0  0  0  0  0  0  0
   58.5460   28.5000   45.7890 N   0  0  0  0  0  0  0  0  0  0  0  0
   57.9330   27.2060   45.8770 C   0  0  0  0  0  0  0  0  0  0  0  0
   57.5410   26.7020   47.1280 C   0  0  0  0  0  0  0  0  0  0  0  0
   56.9570   25.4380   47.2290 C   0  0  0  0  0  0  0  0  0  0  0  0
   56.7540   24.6670   46.0820 C   0  0  0  0  0  0  0  0  0  0  0  0
   57.1310   25.1640   44.8310 C   0  0  0  0  0  0  0  0  0  0  0  0
   57.7180   26.4300   44.7210 C   0  0  0  0  0  0  0  0  0  0  0  0
   58.1450   27.0930   42.9740 Br  0  0  0  0  0  0  0  0  0  0  0  0
   59.8170   28.8640   46.3350 C   0  0  0  0  0  0  0  0  0  0  0  0
   60.6760   28.0400   46.7470 O   0  0  0  0  0  0  0  0  0  0  0  0
   63.6582   33.0161   48.1820 H   0  0  0  0  0  0  0  0  0  0  0  0
   63.3784   32.1563   46.6299 H   0  0  0  0  0  0  0  0  0  0  0  0
   63.7324   33.9173   46.6299 H   0  0  0  0  0  0  0  0  0  0  0  0
   61.9187   30.6569   47.2189 H   0  0  0  0  0  0  0  0  0  0  0  0
   57.6951   27.3069   48.0337 H   0  0  0  0  0  0  0  0  0  0  0  0
   56.6564   25.0487   48.2129 H   0  0  0  0  0  0  0  0  0  0  0  0
   56.2978   23.6694   46.1631 H   0  0  0  0  0  0  0  0  0  0  0  0
   56.9656   24.5572   43.9285 H   0  0  0  0  0  0  0  0  0  0  0  0
  1  2  1  0
  2  3  1  0
  3  4  2  0
  4  5  1  0
  5  6  2  0
  6  7  1  0
  7  8  1  0
  7  9  2  0
  9 10  1  0
  6 11  1  0
 11 12  2  0
 11 13  1  0
 13 14  1  0
 14 15  2  0
 15 16  1  0
 16 17  2  0
 17 18  1  0
 18 19  2  0
 19 20  1  0
 13 21  1  0
 21 22  2  0
  9  3  1  0
 19 14  1  0
 21  5  1  0
  1 23  1  0
  1 24  1  0
  1 25  1  0
  4 26  1  0
 15 27  1  0
 16 28  1  0
 17 29  1  0
 18 30  1  0
M  END
>  <UniqueID>  (15) 
13

>  <SMILES>  (15) 
COc1cc2c(c(Cl)c1Cl)C(=O)N(c1ccccc1Br)C2=O

>  <Energy>  (15) 
72.91741915941202

>  <Genealogy>  (15) 
COc1cc2c(c(Cl)c1Cl)C(=O)N(c1ccccc1Br)C2=O (3D coordinates assigned)
COc1cc2c(c(Cl)c1Cl)C(=O)N(c1ccccc1Br)C2=O (nonaromatic ring conformer: 72.91741915941202 kcal/mol)

>  <smiles>  (15) 
COc1cc2c(c(Cl)c1Cl)C(=O)N(c1ccccc1Br)C2=O

>  <score_type>  (15) 
oracle

>  <origin>  (15) 
adg

>  <m_score__min__energy>  (15) 
-7.6399999999999997

>  <m_primary>  (15) 
energy

$$$$
15:0
     RDKit          3D

 35 37  0  0  0  0  0  0  0  0999 V2000
   59.0220   34.1950   46.9200 C   0  0  0  0  0  0  0  0  0  0  0  0
   58.4660   33.4260   45.7680 C   0  0  0  0  0  0  0  0  0  0  0  0
   57.7630   32.2260   45.8720 C   0  0  0  0  0  0  0  0  0  0  0  0
   57.5130   31.8480   44.5680 C   0  0  0  0  0  0  0  0  0  0  0  0
   56.8470   30.7460   44.0370 C   0  0  0  0  0  0  0  0  0  0  0  0
   56.3010   29.7470   44.9110 N   0  0  0  0  0  0  0  0  0  0  0  0
   56.7470   28.3930   45.0450 C   0  0  0  0  0  0  0  0  0  0  0  0
   57.8940   28.0500   44.6490 O   0  0  0  0  0  0  0  0  0  0  0  0
   55.8640   27.4260   45.6180 N   0  0  0  0  0  0  0  0  0  0  0  0
   56.2590   26.0990   45.9930 C   0  0  0  0  0  0  0  0  0  0  0  0
   55.5350   25.0180   45.4750 C   0  0  0  0  0  0  0  0  0  0  0  0
   55.8700   23.7080   45.8230 C   0  0  0  0  0  0  0  0  0  0  0  0
   56.9410   23.4670   46.6830 C   0  0  0  0  0  0  0  0  0  0  0  0
   57.6930   24.5330   47.1820 C   0  0  0  0  0  0  0  0  0  0  0  0
   57.3800   25.8560   46.8250 C   0  0  0  0  0  0  0  0  0  0  0  0
   58.2490   26.9720   47.3400 C   0  0  0  0  0  0  0  0  0  0  0  0
   56.7980   30.6460   42.6270 C   0  0  0  0  0  0  0  0  0  0  0  0
   57.3860   31.6550   41.8300 C   0  0  0  0  0  0  0  0  0  0  0  0
   58.0140   32.7220   42.4080 N   0  0  0  0  0  0  0  0  0  0  0  0
   58.0670   32.8010   43.7610 C   0  0  0  0  0  0  0  0  0  0  0  0
   58.6600   33.7700   44.4720 N   0  0  0  0  0  0  0  0  0  0  0  0
   58.6896   33.7352   47.8624 H   0  0  0  0  0  0  0  0  0  0  0  0
   60.1209   34.1820   46.8733 H   0  0  0  0  0  0  0  0  0  0  0  0
   58.6653   35.2345   46.8733 H   0  0  0  0  0  0  0  0  0  0  0  0
   57.4717   31.6969   46.7913 H   0  0  0  0  0  0  0  0  0  0  0  0
   54.6956   25.2024   44.7884 H   0  0  0  0  0  0  0  0  0  0  0  0
   55.2891   22.8659   45.4188 H   0  0  0  0  0  0  0  0  0  0  0  0
   57.1940   22.4354   46.9689 H   0  0  0  0  0  0  0  0  0  0  0  0
   58.5367   24.3357   47.8596 H   0  0  0  0  0  0  0  0  0  0  0  0
   58.2427   26.9639   48.4400 H   0  0  0  0  0  0  0  0  0  0  0  0
   59.2783   26.8320   46.9782 H   0  0  0  0  0  0  0  0  0  0  0  0
   57.8610   27.9356   46.9782 H   0  0  0  0  0  0  0  0  0  0  0  0
   56.3039   29.7857   42.1519 H   0  0  0  0  0  0  0  0  0  0  0  0
   57.3374   31.5803   40.7336 H   0  0  0  0  0  0  0  0  0  0  0  0
   59.1720   34.6030   44.1050 H   0  0  0  0  0  0  0  0  0  0  0  0
  1  2  1  0
  2  3  2  0
  3  4  1  0
  4  5  2  0
  5  6  1  0
  6  7  1  0
  7  8  2  0
  7  9  1  0
  9 10  1  0
 10 11  2  0
 11 12  1  0
 12 13  2  0
 13 14  1  0
 14 15  2  0
 15 16  1  0
  5 17  1  0
 17 18  2  0
 18 19  1  0
 19 20  2  0
 20 21  1  0
 21  2  1  0
 20  4  1  0
 15 10  1  0
  1 22  1  0
  1 23  1  0
  1 24  1  0
  3 25  1  0
 11 26  1  0
 12 27  1  0
 13 28  1  0
 14 29  1  0
 16 30  1  0
 16 31  1  0
 16 32  1  0
 17 33  1  0
 18 34  1  0
 21 35  1  0
M  CHG  2   6  -1   9  -1
M  END
>  <UniqueID>  (16) 
14

>  <SMILES>  (16) 
Cc1cc2c([N-]C(=O)[N-]c3ccccc3C)ccnc2[nH]1

>  <Energy>  (16) 
80.5273730860386

>  <Genealogy>  (16) 
Cc1cc2c([N-]C(=O)[N-]c3ccccc3C)ccnc2[nH]1 (protonated)
Cc1cc2c([N-]C(=O)[N-]c3ccccc3C)ccnc2[nH]1 (3D coordinates assigned)
Cc1cc2c([N-]C(=O)[N-]c3ccccc3C)ccnc2[nH]1 (optimized conformer: 80.5273730860386 kcal/mol)

>  <smiles>  (16) 
Cc1cc2c(NC(=O)Nc3ccccc3C)ccnc2[nH]1

>  <score_type>  (16) 
oracle

>  <origin>  (16) 
adg

>  <m_score__min__energy>  (16) 
-10.859999999999999

>  <m_primary>  (16) 
energy

$$$$
16:0
     RDKit          3D

 14 14  0  0  0  0  0  0  0  0999 V2000
   53.9860   30.4800   51.8290 C   0  0  0  0  0  0  0  0  0  0  0  0
   52.5430   29.9940   51.7750 C   0  0  0  0  0  0  0  0  0  0  0  0
   51.8710   30.4730   50.5270 C   0  0  0  0  0  0  0  0  0  0  0  0
   51.7480   29.7520   49.3890 N   0  0  0  0  0  0  0  0  0  0  0  0
   51.0460   30.4910   48.5720 O   0  0  0  0  0  0  0  0  0  0  0  0
   50.7020   31.6270   49.1020 N   0  0  0  0  0  0  0  0  0  0  0  0
   49.9470   32.5960   48.4860 O   0  0  0  0  0  0  0  0  0  0  0  0
   51.1940   31.6560   50.3430 C   0  0  0  0  0  0  0  0  0  0  0  0
   51.0260   32.6920   51.2530 O   0  0  0  0  0  0  0  0  0  0  0  0
   54.2984   30.5852   52.8784 H   0  0  0  0  0  0  0  0  0  0  0  0
   54.6374   29.7517   51.3238 H   0  0  0  0  0  0  0  0  0  0  0  0
   54.0640   31.4540   51.3238 H   0  0  0  0  0  0  0  0  0  0  0  0
   52.5313   28.8942   51.7923 H   0  0  0  0  0  0  0  0  0  0  0  0
   52.0017   30.3947   52.6447 H   0  0  0  0  0  0  0  0  0  0  0  0
  1  2  1  0
  2  3  1  0
  3  4  2  0
  4  5  1  0
  5  6  1  0
  6  7  1  0
  6  8  2  0
  8  9  1  0
  8  3  1  0
  1 10  1  0
  1 11  1  0
  1 12  1  0
  2 13  1  0
  2 14  1  0
M  CHG  3   6   1   7  -1   9  -1
M  END
>  <UniqueID>  (17) 
15

>  <SMILES>  (17) 
CCc1no[n+]([O-])c1[O-]

>  <Energy>  (17) 
47.56257743816135

>  <Genealogy>  (17) 
CCc1no[n+]([O-])c1[O-] (protonated)
CCc1no[n+]([O-])c1[O-] (3D coordinates assigned)
CCc1no[n+]([O-])c1[O-] (optimized conformer: 47.56257743816135 kcal/mol)

>  <smiles>  (17) 
CCc1no[n+]([O-])c1O

>  <score_type>  (17) 
oracle

>  <origin>  (17) 
adg

>  <m_score__min__energy>  (17) 
-10.619999999999999

>  <m_primary>  (17) 
energy

$$$$
17:0
     RDKit          3D

 63 65  0  0  1  0  0  0  0  0999 V2000
   58.5070   30.1470   50.5950 C   0  0  0  0  0  0  0  0  0  0  0  0
   58.5040   29.7190   49.2370 O   0  0  0  0  0  0  0  0  0  0  0  0
   59.5780   29.9740   48.3990 C   0  0  0  0  0  0  0  0  0  0  0  0
   60.5850   30.8040   48.8380 C   0  0  0  0  0  0  0  0  0  0  0  0
   61.6600   31.0660   48.0130 C   0  0  0  0  0  0  0  0  0  0  0  0
   61.6960   30.4900   46.7680 C   0  0  0  0  0  0  0  0  0  0  0  0
   60.7050   29.6500   46.2830 C   0  0  0  0  0  0  0  0  0  0  0  0
   59.6190   29.3860   47.1200 C   0  0  0  0  0  0  0  0  0  0  0  0
   58.6050   28.4480   46.6800 C   0  0  0  0  0  0  0  0  0  0  0  0
   58.5100   27.2690   47.4050 C   0  0  0  0  0  0  0  0  0  0  0  0
   57.5860   26.3010   47.1240 C   0  0  0  0  0  0  0  0  0  0  0  0
   57.5280   25.1410   47.8730 C   0  0  0  0  0  0  0  0  0  0  0  0
   56.6020   24.2240   47.5520 N   0  0  0  0  0  0  0  0  0  0  0  0
   55.7700   24.4580   46.5250 C   0  0  0  0  0  0  0  0  0  0  0  0
   54.8880   23.5740   46.2200 N   0  0  0  0  0  0  0  0  0  0  0  0
   54.7700   22.8790   44.9770 C   0  0  0  0  0  0  0  0  0  0  0  0
   55.7740   21.7970   44.7420 C   0  0  0  0  0  0  0  0  0  0  0  0
   56.2680   21.9360   43.3690 N   0  0  0  0  0  0  0  0  0  0  0  0
   57.6230   21.4080   43.3580 C   0  0  0  0  0  0  0  0  0  0  0  0
   56.3020   23.3280   42.9510 C   0  0  0  0  0  0  0  0  0  0  0  0
   55.8000   25.5740   45.7800 N   0  0  0  0  0  0  0  0  0  0  0  0
   56.7180   26.5090   46.0800 C   0  0  0  0  0  0  0  0  0  0  0  0
   56.8130   27.6410   45.3860 N   0  0  0  0  0  0  0  0  0  0  0  0
   57.7300   28.6110   45.6580 C   0  0  0  0  0  0  0  0  0  0  0  0
   57.7590   29.6120   44.9340 N   0  0  0  0  0  0  0  0  0  0  0  0
   57.4160   30.9380   45.0900 C   0  0  0  0  0  0  0  0  0  0  0  0
   56.3470   31.5260   44.8400 O   0  0  0  0  0  0  0  0  0  0  0  0
   58.4640   31.8100   45.6180 N   0  0  0  0  0  0  0  0  0  0  0  0
   58.2830   33.2120   45.8070 C   0  0  0  0  0  0  0  0  0  0  0  0
   57.3930   33.6330   46.9260 C   0  0  0  0  0  0  0  0  0  0  0  0
   59.6500   33.8440   46.0730 C   0  0  0  0  0  0  0  0  0  0  0  0
   57.8240   33.8830   44.4900 C   0  0  0  0  0  0  0  0  0  0  0  0
   58.5008   29.2681   51.2565 H   0  0  0  0  0  0  0  0  0  0  0  0
   59.4094   30.7455   50.7888 H   0  0  0  0  0  0  0  0  0  0  0  0
   57.6131   30.7581   50.7888 H   0  0  0  0  0  0  0  0  0  0  0  0
   60.5331   31.2554   49.8398 H   0  0  0  0  0  0  0  0  0  0  0  0
   62.4742   31.7255   48.3478 H   0  0  0  0  0  0  0  0  0  0  0  0
   62.5578   30.7064   46.1195 H   0  0  0  0  0  0  0  0  0  0  0  0
   60.7719   29.2087   45.2776 H   0  0  0  0  0  0  0  0  0  0  0  0
   59.2068   27.1062   48.2404 H   0  0  0  0  0  0  0  0  0  0  0  0
   58.2221   24.9737   48.7098 H   0  0  0  0  0  0  0  0  0  0  0  0
   56.5050   23.3410   48.0690 H   0  0  0  0  0  0  0  0  0  0  0  0
   53.7686   22.4255   44.9370 H   0  0  0  0  0  0  0  0  0  0  0  0
   54.9505   23.6308   44.1946 H   0  0  0  0  0  0  0  0  0  0  0  0
   56.6079   21.8994   45.4521 H   0  0  0  0  0  0  0  0  0  0  0  0
   55.3148   20.8080   44.8873 H   0  0  0  0  0  0  0  0  0  0  0  0
   57.9719   21.2720   44.3923 H   0  0  0  0  0  0  0  0  0  0  0  0
   57.6349   20.4394   42.8367 H   0  0  0  0  0  0  0  0  0  0  0  0
   58.2871   22.1132   42.8367 H   0  0  0  0  0  0  0  0  0  0  0  0
   56.3179   23.9772   43.8389 H   0  0  0  0  0  0  0  0  0  0  0  0
   57.2048   23.5081   42.3489 H   0  0  0  0  0  0  0  0  0  0  0  0
   55.4091   23.5520   42.3489 H   0  0  0  0  0  0  0  0  0  0  0  0
   56.1330   27.7670   44.5960 H   0  0  0  0  0  0  0  0  0  0  0  0
   59.3980   31.3610   45.8690 H   0  0  0  0  0  0  0  0  0  0  0  0
   57.8779   33.4036   47.8863 H   0  0  0  0  0  0  0  0  0  0  0  0
   57.2062   34.7149   46.8588 H   0  0  0  0  0  0  0  0  0  0  0  0
   56.4381   33.0911   46.8588 H   0  0  0  0  0  0  0  0  0  0  0  0
   59.8140   33.9198   47.1581 H   0  0  0  0  0  0  0  0  0  0  0  0
   60.4365   33.2181   45.6261 H   0  0  0  0  0  0  0  0  0  0  0  0
   59.6827   34.8486   45.6261 H   0  0  0  0  0  0  0  0  0  0  0  0
   57.2170   34.7703   44.7228 H   0  0  0  0  0  0  0  0  0  0  0  0
   58.7057   34.1849   43.9056 H   0  0  0  0  0  0  0  0  0  0  0  0
   57.2231   33.1707   43.9056 H   0  0  0  0  0  0  0  0  0  0  0  0
  1  2  1  0
  2  3  1  0
  3  4  2  0
  4  5  1  0
  5  6  2  0
  6  7  1  0
  7  8  2  0
  8  9  1  0
  9 10  2  0
 10 11  1  0
 11 12  2  0
 12 13  1  0
 13 14  1  0
 14 15  2  0
 15 16  1  0
 16 17  1  0
 17 18  1  0
 18 19  1  0
 18 20  1  0
 14 21  1  0
 21 22  2  0
 22 23  1  0
 23 24  1  0
 24 25  2  0
 25 26  1  0
 26 27  2  0
 26 28  1  0
 28 29  1  0
 29 30  1  0
 29 31  1  0
 29 32  1  0
  8  3  1  0
 24  9  1  0
 22 11  1  0
  1 33  1  0
  1 34  1  0
  1 35  1  0
  4 36  1  0
  5 37  1  0
  6 38  1  0
  7 39  1  0
 10 40  1  0
 12 41  1  0
 13 42  1  0
 16 43  1  0
 16 44  1  0
 17 45  1  0
 17 46  1  0
 19 47  1  0
 19 48  1  0
 19 49  1  0
 20 50  1  0
 20 51  1  0
 20 52  1  0
 23 53  1  0
 28 54  1  0
 30 55  1  0
 30 56  1  0
 30 57  1  0
 31 58  1  0
 31 59  1  0
 31 60  1  0
 32 61  1  0
 32 62  1  0
 32 63  1  0
M  END
>  <smiles>  (18) 
COc1ccccc1-c1cc2c[nH]c(=NCCN(C)C)nc2[nH]c1=NC(=O)NC(C)(C)C

>  <score_type>  (18) 
oracle

>  <origin>  (18) 
adg

>  <m_score__min__energy>  (18) 
-8.6999999999999993

>  <m_primary>  (18) 
energy

$$$$
18:0
     RDKit          3D

 44 46  0  0  1  0  0  0  0  0999 V2000
   67.2160   33.5720   51.4320 C   0  0  0  0  0  0  0  0  0  0  0  0
   66.0620   33.2790   50.5210 C   0  0  0  0  0  0  0  0  0  0  0  0
   65.7690   32.8980   49.4670 N   0  0  0  0  0  0  0  0  0  0  0  0
   64.6280   32.7290   48.8890 N   0  0  0  0  0  0  0  0  0  0  0  0
   63.5670   33.0490   49.6300 C   0  0  0  0  0  0  0  0  0  0  0  0
   62.2990   33.0190   49.4110 N   0  0  0  0  0  0  0  0  0  0  0  0
   61.7880   32.4540   48.1820 C   0  0  0  0  0  0  0  0  0  0  0  0
   62.4540   32.4850   47.1170 O   0  0  0  0  0  0  0  0  0  0  0  0
   60.4330   31.8430   48.2810 C   0  0  1  0  0  0  0  0  0  0  0  0
   59.4040   32.9100   48.6240 C   0  0  0  0  0  0  0  0  0  0  0  0
   58.9340   33.4570   47.3110 C   0  0  0  0  0  0  0  0  0  0  0  0
   57.6890   33.1700   46.7940 C   0  0  0  0  0  0  0  0  0  0  0  0
   57.3600   33.7300   45.5720 C   0  0  0  0  0  0  0  0  0  0  0  0
   58.2330   34.5510   44.8820 C   0  0  0  0  0  0  0  0  0  0  0  0
   59.4780   34.8340   45.4080 C   0  0  0  0  0  0  0  0  0  0  0  0
   59.8230   34.2830   46.6240 C   0  0  0  0  0  0  0  0  0  0  0  0
   60.0780   31.1800   47.0410 N   0  0  0  0  0  0  0  0  0  0  0  0
   59.1290   30.1340   46.9990 C   0  0  0  0  0  0  0  0  0  0  0  0
   58.6050   29.8080   48.1020 O   0  0  0  0  0  0  0  0  0  0  0  0
   58.7100   29.4150   45.8200 C   0  0  0  0  0  0  0  0  0  0  0  0
   59.3920   28.2260   45.5400 C   0  0  0  0  0  0  0  0  0  0  0  0
   60.3900   27.7560   46.3140 F   0  0  0  0  0  0  0  0  0  0  0  0
   59.0520   27.4660   44.4160 C   0  0  0  0  0  0  0  0  0  0  0  0
   58.0480   27.8470   43.5510 C   0  0  0  0  0  0  0  0  0  0  0  0
   57.7710   27.0690   42.4880 F   0  0  0  0  0  0  0  0  0  0  0  0
   57.3840   29.0130   43.8320 C   0  0  0  0  0  0  0  0  0  0  0  0
   57.7290   29.7680   44.9550 C   0  0  0  0  0  0  0  0  0  0  0  0
   57.0190   30.8970   45.1460 F   0  0  0  0  0  0  0  0  0  0  0  0
   64.2990   33.6170   51.2290 S   0  0  0  0  0  0  0  0  0  0  0  0
   66.8874   33.4886   52.4785 H   0  0  0  0  0  0  0  0  0  0  0  0
   68.0247   32.8507   51.2430 H   0  0  0  0  0  0  0  0  0  0  0  0
   67.5826   34.5917   51.2430 H   0  0  0  0  0  0  0  0  0  0  0  0
   64.4990   32.3620   47.8940 H   0  0  0  0  0  0  0  0  0  0  0  0
   60.4462   31.0897   49.0824 H   0  0  0  0  0  0  0  0  0  0  0  0
   58.5631   32.4677   49.1783 H   0  0  0  0  0  0  0  0  0  0  0  0
   59.8326   33.6972   49.2617 H   0  0  0  0  0  0  0  0  0  0  0  0
   56.9834   32.5202   47.3325 H   0  0  0  0  0  0  0  0  0  0  0  0
   56.3732   33.5153   45.1359 H   0  0  0  0  0  0  0  0  0  0  0  0
   57.9354   34.9790   43.9133 H   0  0  0  0  0  0  0  0  0  0  0  0
   60.1804   35.4858   44.8678 H   0  0  0  0  0  0  0  0  0  0  0  0
   60.8111   34.4975   47.0572 H   0  0  0  0  0  0  0  0  0  0  0  0
   60.5520   31.5050   46.1820 H   0  0  0  0  0  0  0  0  0  0  0  0
   59.6029   26.5351   44.2158 H   0  0  0  0  0  0  0  0  0  0  0  0
   56.5754   29.3556   43.1696 H   0  0  0  0  0  0  0  0  0  0  0  0
  1  2  1  0
  2  3  2  0
  3  4  1  0
  4  5  1  0
  5  6  2  0
  6  7  1  0
  7  8  2  0
  7  9  1  0
  9 10  1  0
 10 11  1  0
 11 12  2  0
 12 13  1  0
 13 14  2  0
 14 15  1  0
 15 16  2  0
  9 17  1  0
 17 18  1  0
 18 19  2  0
 18 20  1  0
 20 21  2  0
 21 22  1  0
 21 23  1  0
 23 24  2  0
 24 25  1  0
 24 26  1  0
 26 27  2  0
 27 28  1  0
  5 29  1  0
 29  2  1  0
 16 11  1  0
 27 20  1  0
  1 30  1  0
  1 31  1  0
  1 32  1  0
  4 33  1  0
  9 34  1  1
 10 35  1  0
 10 36  1  0
 12 37  1  0
 13 38  1  0
 14 39  1  0
 15 40  1  0
 16 41  1  0
 17 42  1  0
 23 43  1  0
 26 44  1  0
M  END
>  <smiles>  (19) 
Cc1n[nH]c(=NC(=O)C(Cc2ccccc2)NC(=O)c2c(F)cc(F)cc2F)s1

>  <score_type>  (19) 
oracle

>  <origin>  (19) 
adg

>  <m_score__min__energy>  (19) 
-8.4499999999999993

>  <m_primary>  (19) 
energy

$$$$
19:0
     RDKit          3D

 37 39  0  0  0  0  0  0  0  0999 V2000
   56.2150   30.7100   44.5580 O   0  0  0  0  0  0  0  0  0  0  0  0
   57.3980   30.9860   44.8930 C   0  0  0  0  0  0  0  0  0  0  0  0
   57.9770   32.2960   44.4470 C   0  0  0  0  0  0  0  0  0  0  0  0
   58.1480   33.2910   45.5970 C   0  0  0  0  0  0  0  0  0  0  0  0
   59.3180   32.9400   46.4450 N   0  0  1  0  0  0  0  0  0  0  0  0
   59.8690   34.1440   47.1210 C   0  0  0  0  0  0  0  0  0  0  0  0
   61.2020   33.8640   47.7800 C   0  0  0  0  0  0  0  0  0  0  0  0
   62.3210   33.5330   46.9970 C   0  0  0  0  0  0  0  0  0  0  0  0
   63.5570   33.2840   47.6010 C   0  0  0  0  0  0  0  0  0  0  0  0
   63.6850   33.3590   48.9910 C   0  0  0  0  0  0  0  0  0  0  0  0
   65.2380   33.0470   49.7480 Cl  0  0  0  0  0  0  0  0  0  0  0  0
   62.5770   33.6830   49.7780 C   0  0  0  0  0  0  0  0  0  0  0  0
   61.3390   33.9330   49.1770 C   0  0  0  0  0  0  0  0  0  0  0  0
   58.9450   31.9390   47.4720 C   0  0  0  0  0  0  0  0  0  0  0  0
   58.7750   30.4950   46.9970 C   0  0  0  0  0  0  0  0  0  0  0  0
   59.4110   29.5210   47.7930 C   0  0  0  0  0  0  0  0  0  0  0  0
   59.4060   28.1740   47.4320 C   0  0  0  0  0  0  0  0  0  0  0  0
   58.7750   27.7690   46.2600 C   0  0  0  0  0  0  0  0  0  0  0  0
   58.1410   28.7090   45.4500 C   0  0  0  0  0  0  0  0  0  0  0  0
   58.1180   30.0720   45.8040 C   0  0  0  0  0  0  0  0  0  0  0  0
   58.9621   32.1090   43.9946 H   0  0  0  0  0  0  0  0  0  0  0  0
   57.2747   32.7403   43.7263 H   0  0  0  0  0  0  0  0  0  0  0  0
   58.2965   34.2982   45.1804 H   0  0  0  0  0  0  0  0  0  0  0  0
   57.2435   33.2582   46.2222 H   0  0  0  0  0  0  0  0  0  0  0  0
   60.0950   32.5290   45.8730 H   0  0  0  0  0  0  0  0  0  0  0  0
   60.0024   34.9407   46.3743 H   0  0  0  0  0  0  0  0  0  0  0  0
   59.1597   34.4480   47.9049 H   0  0  0  0  0  0  0  0  0  0  0  0
   62.2239   33.4695   45.9031 H   0  0  0  0  0  0  0  0  0  0  0  0
   64.4296   33.0288   46.9818 H   0  0  0  0  0  0  0  0  0  0  0  0
   62.6784   33.7416   50.8717 H   0  0  0  0  0  0  0  0  0  0  0  0
   60.4686   34.1848   49.8007 H   0  0  0  0  0  0  0  0  0  0  0  0
   59.7291   31.9455   48.2435 H   0  0  0  0  0  0  0  0  0  0  0  0
   57.9492   32.2454   47.8247 H   0  0  0  0  0  0  0  0  0  0  0  0
   59.9214   29.8295   48.7173 H   0  0  0  0  0  0  0  0  0  0  0  0
   59.9014   27.4311   48.0744 H   0  0  0  0  0  0  0  0  0  0  0  0
   58.7766   26.7071   45.9729 H   0  0  0  0  0  0  0  0  0  0  0  0
   57.6515   28.3818   44.5208 H   0  0  0  0  0  0  0  0  0  0  0  0
  1  2  2  0
  2  3  1  0
  3  4  1  0
  4  5  1  0
  5  6  1  0
  6  7  1  0
  7  8  2  0
  8  9  1  0
  9 10  2  0
 10 11  1  0
 10 12  1  0
 12 13  2  0
  5 14  1  0
 14 15  1  0
 15 16  2  0
 16 17  1  0
 17 18  2  0
 18 19  1  0
 19 20  2  0
 20  2  1  0
 13  7  1  0
 20 15  1  0
  3 21  1  0
  3 22  1  0
  4 23  1  0
  4 24  1  0
  5 25  1  6
  6 26  1  0
  6 27  1  0
  8 28  1  0
  9 29  1  0
 12 30  1  0
 13 31  1  0
 14 32  1  0
 14 33  1  0
 16 34  1  0
 17 35  1  0
 18 36  1  0
 19 37  1  0
M  CHG  1   5   1
M  END
>  <UniqueID>  (20) 
16

>  <SMILES>  (20) 
O=C1CC[N@@H+](Cc2ccc(Cl)cc2)Cc2ccccc21

>  <Energy>  (20) 
59.181764420980585

>  <Genealogy>  (20) 
O=C1CC[NH+](Cc2ccc(Cl)cc2)Cc2ccccc21 (protonated)
O=C1CC[N@@H+](Cc2ccc(Cl)cc2)Cc2ccccc21 (chirality)
O=C1CC[N@@H+](Cc2ccc(Cl)cc2)Cc2ccccc21 (3D coordinates assigned)
O=C1CC[N@@H+](Cc2ccc(Cl)cc2)Cc2ccccc21 (nonaromatic ring conformer: 59.181764420980585 kcal/mol)

>  <smiles>  (20) 
O=C1CCN(Cc2ccc(Cl)cc2)Cc2ccccc21

>  <score_type>  (20) 
oracle

>  <origin>  (20) 
adg

>  <m_score__min__energy>  (20) 
-4.9800000000000004

>  <m_primary>  (20) 
energy

$$$$
20:0
     RDKit          3D

 36 37  0  0  0  0  0  0  0  0999 V2000
   59.6020   34.6600   45.5770 C   0  0  0  0  0  0  0  0  0  0  0  0
   58.8530   33.4320   45.1500 C   0  0  0  0  0  0  0  0  0  0  0  0
   58.4460   32.4910   46.1000 C   0  0  0  0  0  0  0  0  0  0  0  0
   57.7370   31.3580   45.7070 C   0  0  0  0  0  0  0  0  0  0  0  0
   57.4130   31.1400   44.3590 C   0  0  0  0  0  0  0  0  0  0  0  0
   56.5990   29.6090   43.9730 S   0  0  0  0  0  0  0  0  0  0  0  0
   55.9850   29.0780   45.2380 O   0  0  0  0  0  0  0  0  0  0  0  0
   55.5010   29.7690   42.9590 O   0  0  0  0  0  0  0  0  0  0  0  0
   57.7600   28.4490   43.3880 N   0  0  0  0  0  0  0  0  0  0  0  0
   58.1710   27.5230   44.4500 C   0  0  0  0  0  0  0  0  0  0  0  0
   58.9510   28.2400   45.5210 C   0  0  0  0  0  0  0  0  0  0  0  0
   58.5570   28.1500   46.8680 C   0  0  0  0  0  0  0  0  0  0  0  0
   59.2650   28.8410   47.8560 C   0  0  0  0  0  0  0  0  0  0  0  0
   60.3780   29.6120   47.5130 C   0  0  0  0  0  0  0  0  0  0  0  0
   60.7950   29.6830   46.1810 C   0  0  0  0  0  0  0  0  0  0  0  0
   60.0910   28.9930   45.1890 C   0  0  0  0  0  0  0  0  0  0  0  0
   57.7930   32.1080   43.3920 C   0  0  0  0  0  0  0  0  0  0  0  0
   57.4730   31.9570   41.9290 C   0  0  0  0  0  0  0  0  0  0  0  0
   58.5040   33.2500   43.8060 C   0  0  0  0  0  0  0  0  0  0  0  0
   59.6314   34.7081   46.6756 H   0  0  0  0  0  0  0  0  0  0  0  0
   60.6287   34.6184   45.1842 H   0  0  0  0  0  0  0  0  0  0  0  0
   59.0951   35.5538   45.1842 H   0  0  0  0  0  0  0  0  0  0  0  0
   58.6865   32.6457   47.1622 H   0  0  0  0  0  0  0  0  0  0  0  0
   57.4265   30.6233   46.4645 H   0  0  0  0  0  0  0  0  0  0  0  0
   58.6030   28.9960   43.0980 H   0  0  0  0  0  0  0  0  0  0  0  0
   57.2746   27.0711   44.8997 H   0  0  0  0  0  0  0  0  0  0  0  0
   58.8141   26.7475   44.0085 H   0  0  0  0  0  0  0  0  0  0  0  0
   57.6889   27.5339   47.1452 H   0  0  0  0  0  0  0  0  0  0  0  0
   58.9446   28.7773   48.9064 H   0  0  0  0  0  0  0  0  0  0  0  0
   60.9263   30.1632   48.2912 H   0  0  0  0  0  0  0  0  0  0  0  0
   61.6777   30.2821   45.9127 H   0  0  0  0  0  0  0  0  0  0  0  0
   60.4308   29.0396   44.1438 H   0  0  0  0  0  0  0  0  0  0  0  0
   56.4834   31.4900   41.8164 H   0  0  0  0  0  0  0  0  0  0  0  0
   57.4676   32.9476   41.4507 H   0  0  0  0  0  0  0  0  0  0  0  0
   58.2341   31.3231   41.4507 H   0  0  0  0  0  0  0  0  0  0  0  0
   58.7895   34.0100   43.0637 H   0  0  0  0  0  0  0  0  0  0  0  0
  1  2  1  0
  2  3  2  0
  3  4  1  0
  4  5  2  0
  5  6  1  0
  6  7  2  0
  6  8  2  0
  6  9  1  0
  9 10  1  0
 10 11  1  0
 11 12  2  0
 12 13  1  0
 13 14  2  0
 14 15  1  0
 15 16  2  0
  5 17  1  0
 17 18  1  0
 17 19  2  0
 19  2  1  0
 16 11  1  0
  1 20  1  0
  1 21  1  0
  1 22  1  0
  3 23  1  0
  4 24  1  0
  9 25  1  0
 10 26  1  0
 10 27  1  0
 12 28  1  0
 13 29  1  0
 14 30  1  0
 15 31  1  0
 16 32  1  0
 18 33  1  0
 18 34  1  0
 18 35  1  0
 19 36  1  0
M  END
>  <UniqueID>  (21) 
17

>  <SMILES>  (21) 
Cc1ccc(S(=O)(=O)NCc2ccccc2)c(C)c1

>  <Energy>  (21) 
33.159910699216695

>  <Genealogy>  (21) 
Cc1ccc(S(=O)(=O)NCc2ccccc2)c(C)c1 (3D coordinates assigned)
Cc1ccc(S(=O)(=O)NCc2ccccc2)c(C)c1 (optimized conformer: 33.159910699216695 kcal/mol)

>  <smiles>  (21) 
Cc1ccc(S(=O)(=O)NCc2ccccc2)c(C)c1

>  <score_type>  (21) 
oracle

>  <origin>  (21) 
adg

>  <m_score__min__energy>  (21) 
-8.3000000000000007

>  <m_primary>  (21) 
energy

$$$$
21:0
     RDKit          3D

 35 37  0  0  0  0  0  0  0  0999 V2000
   61.2620   30.8580   47.0570 C   0  0  0  0  0  0  0  0  0  0  0  0
   60.0130   31.0040   46.3130 N   0  0  0  0  0  0  0  0  0  0  0  0
   59.4140   30.0890   45.5110 C   0  0  0  0  0  0  0  0  0  0  0  0
   59.8570   28.9210   45.3390 O   0  0  0  0  0  0  0  0  0  0  0  0
   58.2990   30.5640   44.8980 N   0  0  0  0  0  0  0  0  0  0  0  0
   57.4690   29.8600   43.9150 C   0  0  0  0  0  0  0  0  0  0  0  0
   56.1400   29.5040   44.5260 C   0  0  0  0  0  0  0  0  0  0  0  0
   55.2070   30.3500   44.4980 O   0  0  0  0  0  0  0  0  0  0  0  0
   55.9450   28.2800   45.2450 N   0  0  0  0  0  0  0  0  0  0  0  0
   56.9910   27.4050   45.6810 C   0  0  0  0  0  0  0  0  0  0  0  0
   57.3620   26.3220   44.8720 C   0  0  0  0  0  0  0  0  0  0  0  0
   58.3820   25.4560   45.2810 C   0  0  0  0  0  0  0  0  0  0  0  0
   59.0530   25.6860   46.4880 C   0  0  0  0  0  0  0  0  0  0  0  0
   58.7120   26.7850   47.2820 C   0  0  0  0  0  0  0  0  0  0  0  0
   57.6860   27.6470   46.8780 C   0  0  0  0  0  0  0  0  0  0  0  0
   58.2060   31.8430   45.3300 C   0  0  0  0  0  0  0  0  0  0  0  0
   57.2490   32.8130   45.0190 C   0  0  0  0  0  0  0  0  0  0  0  0
   57.4050   34.0920   45.5840 C   0  0  0  0  0  0  0  0  0  0  0  0
   58.4930   34.3710   46.4400 C   0  0  0  0  0  0  0  0  0  0  0  0
   59.4360   33.3720   46.7460 C   0  0  0  0  0  0  0  0  0  0  0  0
   59.2530   32.1100   46.1760 C   0  0  0  0  0  0  0  0  0  0  0  0
   61.0509   30.8827   48.1363 H   0  0  0  0  0  0  0  0  0  0  0  0
   61.7334   29.8986   46.7974 H   0  0  0  0  0  0  0  0  0  0  0  0
   61.9420   31.6828   46.7974 H   0  0  0  0  0  0  0  0  0  0  0  0
   57.3067   30.5101   43.0426 H   0  0  0  0  0  0  0  0  0  0  0  0
   57.9818   28.9384   43.6024 H   0  0  0  0  0  0  0  0  0  0  0  0
   56.8500   26.1526   43.9133 H   0  0  0  0  0  0  0  0  0  0  0  0
   58.6566   24.5947   44.6544 H   0  0  0  0  0  0  0  0  0  0  0  0
   59.8500   25.0007   46.8122 H   0  0  0  0  0  0  0  0  0  0  0  0
   59.2495   26.9721   48.2233 H   0  0  0  0  0  0  0  0  0  0  0  0
   57.4231   28.5160   47.4990 H   0  0  0  0  0  0  0  0  0  0  0  0
   56.4025   32.5842   44.3549 H   0  0  0  0  0  0  0  0  0  0  0  0
   56.6733   34.8814   45.3571 H   0  0  0  0  0  0  0  0  0  0  0  0
   58.6043   35.3769   46.8710 H   0  0  0  0  0  0  0  0  0  0  0  0
   60.2877   33.5779   47.4110 H   0  0  0  0  0  0  0  0  0  0  0  0
  1  2  1  0
  2  3  1  0
  3  4  2  0
  3  5  1  0
  5  6  1  0
  6  7  1  0
  7  8  2  0
  7  9  1  0
  9 10  1  0
 10 11  2  0
 11 12  1  0
 12 13  2  0
 13 14  1  0
 14 15  2  0
  5 16  1  0
 16 17  2  0
 17 18  1  0
 18 19  2  0
 19 20  1  0
 20 21  2  0
 21  2  1  0
 15 10  1  0
 21 16  1  0
  1 22  1  0
  1 23  1  0
  1 24  1  0
  6 25  1  0
  6 26  1  0
 11 27  1  0
 12 28  1  0
 13 29  1  0
 14 30  1  0
 15 31  1  0
 17 32  1  0
 18 33  1  0
 19 34  1  0
 20 35  1  0
M  CHG  1   9  -1
M  END
>  <UniqueID>  (22) 
18

>  <SMILES>  (22) 
Cn1c(=O)n(CC(=O)[N-]c2ccccc2)c2ccccc21

>  <Energy>  (22) 
81.05827797672683

>  <Genealogy>  (22) 
Cn1c(=O)n(CC(=O)[N-]c2ccccc2)c2ccccc21 (protonated)
Cn1c(=O)n(CC(=O)[N-]c2ccccc2)c2ccccc21 (3D coordinates assigned)
Cn1c(=O)n(CC(=O)[N-]c2ccccc2)c2ccccc21 (optimized conformer: 81.05827797672683 kcal/mol)

>  <smiles>  (22) 
Cn1c(=O)n(CC(=O)Nc2ccccc2)c2ccccc21

>  <score_type>  (22) 
oracle

>  <origin>  (22) 
adg

>  <m_score__min__energy>  (22) 
-8.9299999999999997

>  <m_primary>  (22) 
energy

$$$$
22:0
     RDKit          3D

 25 27  0  0  0  0  0  0  0  0999 V2000
   56.2750   30.5920   44.4950 O   0  0  0  0  0  0  0  0  0  0  0  0
   57.3980   30.7250   45.0540 C   0  0  0  0  0  0  0  0  0  0  0  0
   57.9270   31.9850   45.4040 C   0  0  0  0  0  0  0  0  0  0  0  0
   57.3230   33.2350   45.2310 C   0  0  0  0  0  0  0  0  0  0  0  0
   58.0200   34.3860   45.6390 C   0  0  0  0  0  0  0  0  0  0  0  0
   59.3050   34.2800   46.2110 C   0  0  0  0  0  0  0  0  0  0  0  0
   59.9070   33.0230   46.3790 C   0  0  0  0  0  0  0  0  0  0  0  0
   59.1920   31.9030   45.9660 C   0  0  0  0  0  0  0  0  0  0  0  0
   59.6030   30.2880   46.0100 S   0  0  0  0  0  0  0  0  0  0  0  0
   58.2090   29.6610   45.3360 N   0  0  0  0  0  0  0  0  0  0  0  0
   57.9540   28.2640   45.0990 C   0  0  0  0  0  0  0  0  0  0  0  0
   57.4750   27.4490   46.1400 C   0  0  0  0  0  0  0  0  0  0  0  0
   57.2170   26.0930   45.9160 C   0  0  0  0  0  0  0  0  0  0  0  0
   57.4230   25.5400   44.6510 C   0  0  0  0  0  0  0  0  0  0  0  0
   57.8860   26.3440   43.6050 C   0  0  0  0  0  0  0  0  0  0  0  0
   58.1480   27.6990   43.8250 C   0  0  0  0  0  0  0  0  0  0  0  0
   56.3212   33.3159   44.7840 H   0  0  0  0  0  0  0  0  0  0  0  0
   57.5596   35.3768   45.5111 H   0  0  0  0  0  0  0  0  0  0  0  0
   59.8389   35.1882   46.5275 H   0  0  0  0  0  0  0  0  0  0  0  0
   60.9093   32.9268   46.8218 H   0  0  0  0  0  0  0  0  0  0  0  0
   57.3022   27.8808   47.1368 H   0  0  0  0  0  0  0  0  0  0  0  0
   56.8509   25.4608   46.7384 H   0  0  0  0  0  0  0  0  0  0  0  0
   57.2213   24.4727   44.4772 H   0  0  0  0  0  0  0  0  0  0  0  0
   58.0443   25.9092   42.6071 H   0  0  0  0  0  0  0  0  0  0  0  0
   58.5080   28.3276   42.9972 H   0  0  0  0  0  0  0  0  0  0  0  0
  1  2  2  0
  2  3  1  0
  3  4  2  0
  4  5  1  0
  5  6  2  0
  6  7  1  0
  7  8  2  0
  8  9  1  0
  9 10  1  0
 10 11  1  0
 11 12  2  0
 12 13  1  0
 13 14  2  0
 14 15  1  0
 15 16  2  0
 10  2  1  0
 16 11  1  0
  8  3  1  0
  4 17  1  0
  5 18  1  0
  6 19  1  0
  7 20  1  0
 12 21  1  0
 13 22  1  0
 14 23  1  0
 15 24  1  0
 16 25  1  0
M  END
>  <UniqueID>  (23) 
19

>  <SMILES>  (23) 
O=c1c2ccccc2sn1-c1ccccc1

>  <Energy>  (23) 
72.62010204597968

>  <Genealogy>  (23) 
O=c1c2ccccc2sn1-c1ccccc1 (3D coordinates assigned)
O=c1c2ccccc2sn1-c1ccccc1 (optimized conformer: 72.62010204597968 kcal/mol)

>  <smiles>  (23) 
O=c1c2ccccc2sn1-c1ccccc1

>  <score_type>  (23) 
oracle

>  <origin>  (23) 
adg

>  <m_score__min__energy>  (23) 
-6.5099999999999998

>  <m_primary>  (23) 
energy

$$$$
23:0
     RDKit          3D

 34 37  0  0  0  0  0  0  0  0999 V2000
   60.0498   27.1713   49.1375 H   0  0  0  0  0  0  0  0  0  0  0  0
   59.6580   27.2760   48.1150 C   0  0  0  0  0  0  0  0  0  0  0  0
   60.0400   26.3500   47.1190 C   0  0  0  0  0  0  0  0  0  0  0  0
   60.7273   25.5289   47.3711 H   0  0  0  0  0  0  0  0  0  0  0  0
   59.5470   26.4710   45.8060 C   0  0  0  0  0  0  0  0  0  0  0  0
   59.8357   25.7555   45.0220 H   0  0  0  0  0  0  0  0  0  0  0  0
   58.6800   27.5290   45.5330 C   0  0  0  0  0  0  0  0  0  0  0  0
   58.0330   27.9060   44.3760 C   0  0  0  0  0  0  0  0  0  0  0  0
   58.0890   27.2070   43.0520 C   0  0  0  0  0  0  0  0  0  0  0  0
   58.1759   26.1224   43.2134 H   0  0  0  0  0  0  0  0  0  0  0  0
   57.1708   27.4210   42.4853 H   0  0  0  0  0  0  0  0  0  0  0  0
   58.9614   27.5644   42.4853 H   0  0  0  0  0  0  0  0  0  0  0  0
   57.3160   29.0560   44.7280 C   0  0  0  0  0  0  0  0  0  0  0  0
   56.4550   29.8750   43.8540 C   0  0  0  0  0  0  0  0  0  0  0  0
   55.3930   29.3700   43.4070 O   0  0  0  0  0  0  0  0  0  0  0  0
   56.7880   31.2220   43.4850 N   0  0  0  0  0  0  0  0  0  0  0  0
   57.3980   32.0740   44.2530 C   0  0  0  0  0  0  0  0  0  0  0  0
   58.0420   33.1450   43.8130 O   0  0  0  0  0  0  0  0  0  0  0  0
   58.5130   33.7350   44.8830 C   0  0  0  0  0  0  0  0  0  0  0  0
   59.2590   34.9060   44.9770 C   0  0  0  0  0  0  0  0  0  0  0  0
   59.5389   35.4785   44.0804 H   0  0  0  0  0  0  0  0  0  0  0  0
   59.6420   35.3300   46.2650 C   0  0  0  0  0  0  0  0  0  0  0  0
   60.2316   36.2511   46.3836 H   0  0  0  0  0  0  0  0  0  0  0  0
   59.2740   34.5800   47.4070 C   0  0  0  0  0  0  0  0  0  0  0  0
   59.5805   34.9217   48.4067 H   0  0  0  0  0  0  0  0  0  0  0  0
   58.5180   33.3990   47.2730 C   0  0  0  0  0  0  0  0  0  0  0  0
   58.2243   32.8057   48.1515 H   0  0  0  0  0  0  0  0  0  0  0  0
   58.1570   33.0120   45.9850 C   0  0  0  0  0  0  0  0  0  0  0  0
   57.4450   31.9410   45.6010 N   0  0  0  0  0  0  0  0  0  0  0  0
   57.0240   31.1930   46.1960 H   0  0  0  0  0  0  0  0  0  0  0  0
   57.4920   29.3270   46.0090 O   0  0  0  0  0  0  0  0  0  0  0  0
   58.3100   28.4270   46.5010 C   0  0  0  0  0  0  0  0  0  0  0  0
   58.7800   28.3310   47.8080 C   0  0  0  0  0  0  0  0  0  0  0  0
   58.4745   29.0570   48.5759 H   0  0  0  0  0  0  0  0  0  0  0  0
  1  2  1  0
  2  3  2  0
  3  4  1  0
  3  5  1  0
  5  6  1  0
  5  7  2  0
  7  8  1  0
  8  9  1  0
  9 10  1  0
  9 11  1  0
  9 12  1  0
  8 13  2  0
 13 14  1  0
 14 15  2  0
 14 16  1  0
 16 17  2  0
 17 18  1  0
 18 19  1  0
 19 20  2  0
 20 21  1  0
 20 22  1  0
 22 23  1  0
 22 24  2  0
 24 25  1  0
 24 26  1  0
 26 27  1  0
 26 28  2  0
 28 29  1  0
 29 30  1  0
 13 31  1  0
 31 32  1  0
 32 33  2  0
 33 34  1  0
 33  2  1  0
 32  7  1  0
 29 17  1  0
 28 19  1  0
M  END
>  <UniqueID>  (24) 
20

>  <SMILES>  (24) 
Cc1c(C(=O)/N=c2/[nH]c3ccccc3o2)oc2ccccc12

>  <Energy>  (24) 
117.51920238517414

>  <Genealogy>  (24) 
Cc1c(C(=O)/N=c2/[nH]c3ccccc3o2)oc2ccccc12 (cis-trans isomerization)
Cc1c(C(=O)/N=c2/[nH]c3ccccc3o2)oc2ccccc12 (3D coordinates assigned)
Cc1c(C(=O)/N=c2/[nH]c3ccccc3o2)oc2ccccc12 (optimized conformer: 117.51920238517414 kcal/mol)

>  <smiles>  (24) 
Cc1c(C(=O)N=c2[nH]c3ccccc3o2)oc2ccccc12

>  <score_type>  (24) 
oracle

>  <origin>  (24) 
adg

>  <m_score__min__energy>  (24) 
-8.0899999999999999

>  <m_primary>  (24) 
energy

$$$$
24:0
     RDKit          3D

 39 41  0  0  1  0  0  0  0  0999 V2000
   64.8960   32.7100   49.3870 C   0  0  0  0  0  0  0  0  0  0  0  0
   63.7930   33.1210   48.4820 C   0  0  0  0  0  0  0  0  0  0  0  0
   63.4810   33.2620   47.3290 N   0  0  0  0  0  0  0  0  0  0  0  0
   62.3630   33.6620   46.8490 N   0  0  0  0  0  0  0  0  0  0  0  0
   61.4110   33.9690   47.7030 C   0  0  0  0  0  0  0  0  0  0  0  0
   60.2090   34.3780   47.5870 N   0  0  0  0  0  0  0  0  0  0  0  0
   59.6610   34.6600   46.2960 C   0  0  0  0  0  0  0  0  0  0  0  0
   59.8120   35.7500   45.7000 O   0  0  0  0  0  0  0  0  0  0  0  0
   58.8880   33.5480   45.7030 C   0  0  0  0  0  0  0  0  0  0  0  0
   58.6560   32.4020   46.4600 C   0  0  0  0  0  0  0  0  0  0  0  0
   57.9350   31.3280   45.9370 C   0  0  0  0  0  0  0  0  0  0  0  0
   57.4360   31.3970   44.6390 C   0  0  0  0  0  0  0  0  0  0  0  0
   56.5360   30.0890   43.9040 S   0  0  0  0  0  0  0  0  0  0  0  0
   56.3430   30.4740   42.4380 O   0  0  0  0  0  0  0  0  0  0  0  0
   55.1570   30.0380   44.4990 O   0  0  0  0  0  0  0  0  0  0  0  0
   57.3330   28.5950   44.0190 N   0  0  0  0  0  0  0  0  0  0  0  0
   58.3870   28.2590   44.8880 C   0  0  0  0  0  0  0  0  0  0  0  0
   59.7100   28.5770   44.7090 C   0  0  0  0  0  0  0  0  0  0  0  0
   60.6640   28.1690   45.6420 C   0  0  0  0  0  0  0  0  0  0  0  0
   60.3240   27.4400   46.7690 C   0  0  0  0  0  0  0  0  0  0  0  0
   58.9920   27.1220   46.9500 C   0  0  0  0  0  0  0  0  0  0  0  0
   58.0420   27.5220   46.0280 C   0  0  0  0  0  0  0  0  0  0  0  0
   56.7440   27.1820   46.2640 F   0  0  0  0  0  0  0  0  0  0  0  0
   57.6790   32.5570   43.8970 C   0  0  0  0  0  0  0  0  0  0  0  0
   58.3950   33.6200   44.4180 C   0  0  0  0  0  0  0  0  0  0  0  0
   62.1560   33.6670   49.2960 S   0  0  0  0  0  0  0  0  0  0  0  0
   64.5760   32.8292   50.4327 H   0  0  0  0  0  0  0  0  0  0  0  0
   65.1510   31.6565   49.1994 H   0  0  0  0  0  0  0  0  0  0  0  0
   65.7782   33.3398   49.1994 H   0  0  0  0  0  0  0  0  0  0  0  0
   62.1950   33.7510   45.7860 H   0  0  0  0  0  0  0  0  0  0  0  0
   59.0474   32.3428   47.4863 H   0  0  0  0  0  0  0  0  0  0  0  0
   57.7614   30.4299   46.5480 H   0  0  0  0  0  0  0  0  0  0  0  0
   57.0100   27.8190   43.3590 H   0  0  0  0  0  0  0  0  0  0  0  0
   60.0196   29.1559   43.8264 H   0  0  0  0  0  0  0  0  0  0  0  0
   61.7186   28.4347   45.4771 H   0  0  0  0  0  0  0  0  0  0  0  0
   61.0880   27.1250   47.4950 H   0  0  0  0  0  0  0  0  0  0  0  0
   58.6843   26.5457   47.8350 H   0  0  0  0  0  0  0  0  0  0  0  0
   57.2900   32.6263   42.8704 H   0  0  0  0  0  0  0  0  0  0  0  0
   58.5701   34.5191   43.8090 H   0  0  0  0  0  0  0  0  0  0  0  0
  1  2  1  0
  2  3  2  0
  3  4  1  0
  4  5  1  0
  5  6  2  0
  6  7  1  0
  7  8  2  0
  7  9  1  0
  9 10  2  0
 10 11  1  0
 11 12  2  0
 12 13  1  0
 13 14  2  0
 13 15  2  0
 13 16  1  0
 16 17  1  0
 17 18  2  0
 18 19  1  0
 19 20  2  0
 20 21  1  0
 21 22  2  0
 22 23  1  0
 12 24  1  0
 24 25  2  0
  5 26  1  0
 26  2  1  0
 25  9  1  0
 22 17  1  0
  1 27  1  0
  1 28  1  0
  1 29  1  0
  4 30  1  0
 10 31  1  0
 11 32  1  0
 16 33  1  0
 18 34  1  0
 19 35  1  0
 20 36  1  0
 21 37  1  0
 24 38  1  0
 25 39  1  0
M  END
>  <smiles>  (25) 
Cc1n[nH]c(=NC(=O)c2ccc(S(=O)(=O)Nc3ccccc3F)cc2)s1

>  <score_type>  (25) 
oracle

>  <origin>  (25) 
adg

>  <m_score__min__energy>  (25) 
-9.5999999999999996

>  <m_primary>  (25) 
energy

$$$$
25:0
     RDKit          3D

 35 37  0  0  0  0  0  0  0  0999 V2000
   59.0600   32.3450   50.3780 C   0  0  0  0  0  0  0  0  0  0  0  0
   59.3200   32.7700   49.0060 N   0  0  0  0  0  0  0  0  0  0  0  0
   58.3980   32.9350   48.0280 C   0  0  0  0  0  0  0  0  0  0  0  0
   59.0200   33.3400   46.8540 C   0  0  0  0  0  0  0  0  0  0  0  0
   58.2370   33.6710   45.3170 S   0  0  0  0  0  0  0  0  0  0  0  0
   56.8150   34.0820   45.5710 O   0  0  0  0  0  0  0  0  0  0  0  0
   58.9510   34.7770   44.5930 O   0  0  0  0  0  0  0  0  0  0  0  0
   58.2400   32.2450   44.3290 N   0  0  0  0  0  0  0  0  0  0  0  0
   57.7680   30.9540   44.7370 C   0  0  0  0  0  0  0  0  0  0  0  0
   58.5900   30.1650   45.5490 C   0  0  0  0  0  0  0  0  0  0  0  0
   58.1750   28.8970   45.9640 C   0  0  0  0  0  0  0  0  0  0  0  0
   56.9240   28.3940   45.5720 C   0  0  0  0  0  0  0  0  0  0  0  0
   56.4870   27.0510   46.0110 C   0  0  0  0  0  0  0  0  0  0  0  0
   57.3290   26.1990   46.4020 O   0  0  0  0  0  0  0  0  0  0  0  0
   55.1400   26.7090   45.9970 O   0  0  0  0  0  0  0  0  0  0  0  0
   56.0970   29.1880   44.7560 C   0  0  0  0  0  0  0  0  0  0  0  0
   56.5130   30.4560   44.3430 C   0  0  0  0  0  0  0  0  0  0  0  0
   60.3670   33.4260   47.1420 C   0  0  0  0  0  0  0  0  0  0  0  0
   61.4560   33.7870   46.3480 C   0  0  0  0  0  0  0  0  0  0  0  0
   62.7320   33.7750   46.9410 C   0  0  0  0  0  0  0  0  0  0  0  0
   62.8900   33.4070   48.2960 C   0  0  0  0  0  0  0  0  0  0  0  0
   64.1250   33.4010   48.8520 F   0  0  0  0  0  0  0  0  0  0  0  0
   61.7720   33.0490   49.0710 C   0  0  0  0  0  0  0  0  0  0  0  0
   60.5160   33.0700   48.4590 C   0  0  0  0  0  0  0  0  0  0  0  0
   59.5034   33.0698   51.0766 H   0  0  0  0  0  0  0  0  0  0  0  0
   57.9742   32.2912   50.5457 H   0  0  0  0  0  0  0  0  0  0  0  0
   59.5065   31.3538   50.5457 H   0  0  0  0  0  0  0  0  0  0  0  0
   57.3165   32.7724   48.1459 H   0  0  0  0  0  0  0  0  0  0  0  0
   59.5725   30.5466   45.8637 H   0  0  0  0  0  0  0  0  0  0  0  0
   58.8328   28.2886   46.6022 H   0  0  0  0  0  0  0  0  0  0  0  0
   55.1145   28.8069   44.4406 H   0  0  0  0  0  0  0  0  0  0  0  0
   55.8562   31.0676   43.7069 H   0  0  0  0  0  0  0  0  0  0  0  0
   61.3216   34.0714   45.2939 H   0  0  0  0  0  0  0  0  0  0  0  0
   63.6134   34.0543   46.3450 H   0  0  0  0  0  0  0  0  0  0  0  0
   61.8831   32.7612   50.1269 H   0  0  0  0  0  0  0  0  0  0  0  0
  1  2  1  0
  2  3  1  0
  3  4  2  0
  4  5  1  0
  5  6  2  0
  5  7  2  0
  5  8  1  0
  8  9  1  0
  9 10  2  0
 10 11  1  0
 11 12  2  0
 12 13  1  0
 13 14  2  0
 13 15  1  0
 12 16  1  0
 16 17  2  0
  4 18  1  0
 18 19  2  0
 19 20  1  0
 20 21  2  0
 21 22  1  0
 21 23  1  0
 23 24  2  0
 24  2  1  0
 17  9  1  0
 24 18  1  0
  1 25  1  0
  1 26  1  0
  1 27  1  0
  3 28  1  0
 10 29  1  0
 11 30  1  0
 16 31  1  0
 17 32  1  0
 19 33  1  0
 20 34  1  0
 23 35  1  0
M  CHG  2   8  -1  15  -1
M  END
>  <UniqueID>  (26) 
21

>  <SMILES>  (26) 
Cn1cc(S(=O)(=O)[N-]c2ccc(C(=O)[O-])cc2)c2ccc(F)cc21

>  <Energy>  (26) 
74.56214670265645

>  <Genealogy>  (26) 
Cn1cc(S(=O)(=O)[N-]c2ccc(C(=O)[O-])cc2)c2ccc(F)cc21 (protonated)
Cn1cc(S(=O)(=O)[N-]c2ccc(C(=O)[O-])cc2)c2ccc(F)cc21 (3D coordinates assigned)
Cn1cc(S(=O)(=O)[N-]c2ccc(C(=O)[O-])cc2)c2ccc(F)cc21 (optimized conformer: 74.56214670265645 kcal/mol)

>  <smiles>  (26) 
Cn1cc(S(=O)(=O)Nc2ccc(C(=O)O)cc2)c2ccc(F)cc21

>  <score_type>  (26) 
oracle

>  <origin>  (26) 
adg

>  <m_score__min__energy>  (26) 
-11.31

>  <m_primary>  (26) 
energy

$$$$
26:0
     RDKit          3D

 30 31  0  0  0  0  0  0  0  0999 V2000
   55.3430   30.7760   52.0080 C   0  0  0  0  0  0  0  0  0  0  0  0
   56.6660   30.4860   51.6110 O   0  0  0  0  0  0  0  0  0  0  0  0
   57.5780   30.8490   52.6300 C   0  0  0  0  0  0  0  0  0  0  0  0
   57.8770   32.3470   52.5630 C   0  0  0  0  0  0  0  0  0  0  0  0
   58.4670   32.7080   51.2360 C   0  0  0  0  0  0  0  0  0  0  0  0
   57.9540   32.3150   50.0500 N   0  0  0  0  0  0  0  0  0  0  0  0
   58.7160   32.7180   48.9980 C   0  0  0  0  0  0  0  0  0  0  0  0
   58.3650   32.4150   47.6370 C   0  0  0  0  0  0  0  0  0  0  0  0
   58.0710   32.1590   46.4960 C   0  0  0  0  0  0  0  0  0  0  0  0
   57.7200   31.8550   45.1360 C   0  0  0  0  0  0  0  0  0  0  0  0
   58.1770   32.6640   44.0890 C   0  0  0  0  0  0  0  0  0  0  0  0
   57.8210   32.3460   42.7770 C   0  0  0  0  0  0  0  0  0  0  0  0
   57.0170   31.2310   42.5250 C   0  0  0  0  0  0  0  0  0  0  0  0
   56.5810   30.4480   43.5970 C   0  0  0  0  0  0  0  0  0  0  0  0
   56.9380   30.7740   44.8690 N   0  0  0  0  0  0  0  0  0  0  0  0
   59.8610   33.4310   49.3390 C   0  0  0  0  0  0  0  0  0  0  0  0
   59.9080   33.5500   51.0180 S   0  0  0  0  0  0  0  0  0  0  0  0
   55.2842   30.7889   53.1064 H   0  0  0  0  0  0  0  0  0  0  0  0
   55.0491   31.7599   51.6135 H   0  0  0  0  0  0  0  0  0  0  0  0
   54.6645   30.0053   51.6135 H   0  0  0  0  0  0  0  0  0  0  0  0
   57.1411   30.6093   53.6107 H   0  0  0  0  0  0  0  0  0  0  0  0
   58.5146   30.2897   52.4889 H   0  0  0  0  0  0  0  0  0  0  0  0
   56.9425   32.9089   52.7079 H   0  0  0  0  0  0  0  0  0  0  0  0
   58.5997   32.5998   53.3528 H   0  0  0  0  0  0  0  0  0  0  0  0
   57.0740   31.7590   49.9530 H   0  0  0  0  0  0  0  0  0  0  0  0
   58.8091   33.5398   44.2975 H   0  0  0  0  0  0  0  0  0  0  0  0
   58.1726   32.9717   41.9434 H   0  0  0  0  0  0  0  0  0  0  0  0
   56.7308   30.9728   41.4948 H   0  0  0  0  0  0  0  0  0  0  0  0
   55.9485   29.5671   43.4125 H   0  0  0  0  0  0  0  0  0  0  0  0
   60.6020   33.8428   48.6381 H   0  0  0  0  0  0  0  0  0  0  0  0
  1  2  1  0
  2  3  1  0
  3  4  1  0
  4  5  1  0
  5  6  2  0
  6  7  1  0
  7  8  1  0
  8  9  3  0
  9 10  1  0
 10 11  2  0
 11 12  1  0
 12 13  2  0
 13 14  1  0
 14 15  2  0
  7 16  2  0
 16 17  1  0
 17  5  1  0
 15 10  1  0
  1 18  1  0
  1 19  1  0
  1 20  1  0
  3 21  1  0
  3 22  1  0
  4 23  1  0
  4 24  1  0
  6 25  1  0
 11 26  1  0
 12 27  1  0
 13 28  1  0
 14 29  1  0
 16 30  1  0
M  CHG  1   6   1
M  END
>  <UniqueID>  (27) 
22

>  <SMILES>  (27) 
COCCc1[nH+]c(C#Cc2ccccn2)cs1

>  <Energy>  (27) 
54.34854996585722

>  <Genealogy>  (27) 
COCCc1[nH+]c(C#Cc2ccccn2)cs1 (protonated)
COCCc1[nH+]c(C#Cc2ccccn2)cs1 (3D coordinates assigned)
COCCc1[nH+]c(C#Cc2ccccn2)cs1 (optimized conformer: 54.34854996585722 kcal/mol)

>  <smiles>  (27) 
COCCc1nc(C#Cc2ccccn2)cs1

>  <score_type>  (27) 
oracle

>  <origin>  (27) 
adg

>  <m_score__min__energy>  (27) 
-4

>  <m_primary>  (27) 
energy

$$$$
27:0
     RDKit          3D

 40 41  0  0  0  0  0  0  0  0999 V2000
   64.2730   31.4052   47.9500 H   0  0  0  0  0  0  0  0  0  0  0  0
   63.3590   31.9620   47.6960 C   0  0  0  0  0  0  0  0  0  0  0  0
   62.1110   31.4780   48.0980 C   0  0  0  0  0  0  0  0  0  0  0  0
   62.0436   30.5408   48.6699 H   0  0  0  0  0  0  0  0  0  0  0  0
   60.9470   32.1840   47.7740 C   0  0  0  0  0  0  0  0  0  0  0  0
   59.9667   31.8009   48.0938 H   0  0  0  0  0  0  0  0  0  0  0  0
   61.0260   33.3800   47.0420 C   0  0  0  0  0  0  0  0  0  0  0  0
   59.7730   34.1430   46.7140 C   0  0  0  0  0  0  0  0  0  0  0  0
   59.9837   35.2217   46.7586 H   0  0  0  0  0  0  0  0  0  0  0  0
   58.9938   33.8788   47.4441 H   0  0  0  0  0  0  0  0  0  0  0  0
   59.3130   33.8080   45.4060 O   0  0  0  0  0  0  0  0  0  0  0  0
   58.7000   32.5890   45.0960 C   0  0  0  0  0  0  0  0  0  0  0  0
   59.2810   31.4950   45.3310 O   0  0  0  0  0  0  0  0  0  0  0  0
   57.3180   32.5880   44.5350 C   0  0  0  0  0  0  0  0  0  0  0  0
   57.0403   33.6107   44.2403 H   0  0  0  0  0  0  0  0  0  0  0  0
   56.6117   32.2234   45.2954 H   0  0  0  0  0  0  0  0  0  0  0  0
   57.2740   31.7380   43.3980 O   0  0  0  0  0  0  0  0  0  0  0  0
   57.8110   30.4680   43.4360 N   0  0  0  0  0  0  0  0  0  0  0  0
   58.8500   30.3600   43.4890 H   0  0  0  0  0  0  0  0  0  0  0  0
   57.0460   29.4150   43.3810 C   0  0  0  0  0  0  0  0  0  0  0  0
   55.8080   29.4530   42.6640 N   0  0  0  0  0  0  0  0  0  0  0  0
   55.2100   28.5980   42.6110 H   0  0  0  0  0  0  0  0  0  0  0  0
   55.4710   30.3200   42.1900 H   0  0  0  0  0  0  0  0  0  0  0  0
   57.4670   28.1730   43.9720 N   0  0  0  0  0  0  0  0  0  0  0  0
   57.1580   27.2900   43.5080 H   0  0  0  0  0  0  0  0  0  0  0  0
   58.2520   28.0670   45.1720 C   0  0  0  0  0  0  0  0  0  0  0  0
   59.2710   27.1060   45.3000 C   0  0  0  0  0  0  0  0  0  0  0  0
   59.4648   26.4012   44.4780 H   0  0  0  0  0  0  0  0  0  0  0  0
   60.0390   27.0420   46.4670 C   0  0  0  0  0  0  0  0  0  0  0  0
   60.8268   26.2806   46.5649 H   0  0  0  0  0  0  0  0  0  0  0  0
   59.8070   27.9440   47.5090 C   0  0  0  0  0  0  0  0  0  0  0  0
   60.4081   27.8889   48.4286 H   0  0  0  0  0  0  0  0  0  0  0  0
   58.8110   28.9160   47.3820 C   0  0  0  0  0  0  0  0  0  0  0  0
   58.5910   29.7970   48.3890 F   0  0  0  0  0  0  0  0  0  0  0  0
   58.0410   28.9830   46.2150 C   0  0  0  0  0  0  0  0  0  0  0  0
   57.2664   29.7575   46.1145 H   0  0  0  0  0  0  0  0  0  0  0  0
   62.2850   33.8630   46.6450 C   0  0  0  0  0  0  0  0  0  0  0  0
   62.3577   34.8017   46.0761 H   0  0  0  0  0  0  0  0  0  0  0  0
   63.4450   33.1540   46.9710 C   0  0  0  0  0  0  0  0  0  0  0  0
   64.4277   33.5351   46.6562 H   0  0  0  0  0  0  0  0  0  0  0  0
  1  2  1  0
  2  3  2  0
  3  4  1  0
  3  5  1  0
  5  6  1  0
  5  7  2  0
  7  8  1  0
  8  9  1  0
  8 10  1  0
  8 11  1  0
 11 12  1  0
 12 13  2  0
 12 14  1  0
 14 15  1  0
 14 16  1  0
 14 17  1  0
 17 18  1  0
 18 19  1  0
 18 20  2  0
 20 21  1  0
 21 22  1  0
 21 23  1  0
 20 24  1  0
 24 25  1  0
 24 26  1  0
 26 27  2  0
 27 28  1  0
 27 29  1  0
 29 30  1  0
 29 31  2  0
 31 32  1  0
 31 33  1  0
 33 34  1  0
 33 35  2  0
 35 36  1  0
  7 37  1  0
 37 38  1  0
 37 39  2  0
 39 40  1  0
 39  2  1  0
 35 26  1  0
M  CHG  1  18   1
M  END
>  <UniqueID>  (28) 
23

>  <SMILES>  (28) 
N/C(Nc1cccc(F)c1)=[NH+]\OCC(=O)OCc1ccccc1

>  <Energy>  (28) 
37.37531193783261

>  <Genealogy>  (28) 
NC(Nc1cccc(F)c1)=[NH+]OCC(=O)OCc1ccccc1 (protonated)
N/C(Nc1cccc(F)c1)=[NH+]\OCC(=O)OCc1ccccc1 (cis-trans isomerization)
N/C(Nc1cccc(F)c1)=[NH+]\OCC(=O)OCc1ccccc1 (3D coordinates assigned)
N/C(Nc1cccc(F)c1)=[NH+]\OCC(=O)OCc1ccccc1 (optimized conformer: 37.37531193783261 kcal/mol)

>  <smiles>  (28) 
NC(=NOCC(=O)OCc1ccccc1)Nc1cccc(F)c1

>  <score_type>  (28) 
oracle

>  <origin>  (28) 
adg

>  <m_score__min__energy>  (28) 
-6.46

>  <m_primary>  (28) 
energy

$$$$
28:0
     RDKit          3D

 24 25  0  0  0  0  0  0  0  0999 V2000
   56.6330   34.5010   44.8540 O   0  0  0  0  0  0  0  0  0  0  0  0
   57.6790   33.7990   44.9100 C   0  0  0  0  0  0  0  0  0  0  0  0
   58.1370   32.8490   43.4550 S   0  0  0  0  0  0  0  0  0  0  0  0
   57.7070   31.2890   44.2250 C   0  0  0  0  0  0  0  0  0  0  0  0
   58.6980   30.4850   44.7970 C   0  0  0  0  0  0  0  0  0  0  0  0
   58.3490   29.2710   45.3920 C   0  0  0  0  0  0  0  0  0  0  0  0
   57.0080   28.8800   45.4130 C   0  0  0  0  0  0  0  0  0  0  0  0
   56.0570   29.6780   44.8570 N   0  0  0  0  0  0  0  0  0  0  0  0
   56.3740   30.8640   44.2710 C   0  0  0  0  0  0  0  0  0  0  0  0
   58.4900   33.7700   46.1530 C   0  0  0  0  0  0  0  0  0  0  0  0
   59.6150   34.6030   46.3110 C   0  0  0  0  0  0  0  0  0  0  0  0
   60.3710   34.5570   47.4870 C   0  0  0  0  0  0  0  0  0  0  0  0
   60.0150   33.6860   48.5180 C   0  0  0  0  0  0  0  0  0  0  0  0
   58.8990   32.8590   48.3760 C   0  0  0  0  0  0  0  0  0  0  0  0
   58.1390   32.9000   47.2030 C   0  0  0  0  0  0  0  0  0  0  0  0
   59.7493   30.8080   44.7782 H   0  0  0  0  0  0  0  0  0  0  0  0
   59.1220   28.6291   45.8396 H   0  0  0  0  0  0  0  0  0  0  0  0
   56.7209   27.9261   45.8795 H   0  0  0  0  0  0  0  0  0  0  0  0
   55.5823   31.4895   43.8330 H   0  0  0  0  0  0  0  0  0  0  0  0
   59.9008   35.2941   45.5043 H   0  0  0  0  0  0  0  0  0  0  0  0
   61.2493   35.2096   47.5997 H   0  0  0  0  0  0  0  0  0  0  0  0
   60.6127   33.6512   49.4408 H   0  0  0  0  0  0  0  0  0  0  0  0
   58.6170   32.1736   49.1888 H   0  0  0  0  0  0  0  0  0  0  0  0
   57.2597   32.2472   47.0997 H   0  0  0  0  0  0  0  0  0  0  0  0
  1  2  2  0
  2  3  1  0
  3  4  1  0
  4  5  2  0
  5  6  1  0
  6  7  2  0
  7  8  1  0
  8  9  2  0
  2 10  1  0
 10 11  2  0
 11 12  1  0
 12 13  2  0
 13 14  1  0
 14 15  2  0
  9  4  1  0
 15 10  1  0
  5 16  1  0
  6 17  1  0
  7 18  1  0
  9 19  1  0
 11 20  1  0
 12 21  1  0
 13 22  1  0
 14 23  1  0
 15 24  1  0
M  END
>  <UniqueID>  (29) 
24

>  <SMILES>  (29) 
O=C(Sc1cccnc1)c1ccccc1

>  <Energy>  (29) 
22.888213515993755

>  <Genealogy>  (29) 
O=C(Sc1cccnc1)c1ccccc1 (3D coordinates assigned)
O=C(Sc1cccnc1)c1ccccc1 (optimized conformer: 22.888213515993755 kcal/mol)

>  <smiles>  (29) 
O=C(Sc1cccnc1)c1ccccc1

>  <score_type>  (29) 
oracle

>  <origin>  (29) 
adg

>  <m_score__min__energy>  (29) 
-6.4100000000000001

>  <m_primary>  (29) 
energy

$$$$
29:0
     RDKit          3D

 30 31  0  0  0  0  0  0  0  0999 V2000
   57.6530   31.4670   43.0000 C   0  0  0  0  0  0  0  0  0  0  0  0
   57.0150   30.8790   44.5510 S   0  0  0  0  0  0  0  0  0  0  0  0
   55.5140   30.8290   44.4900 O   0  0  0  0  0  0  0  0  0  0  0  0
   57.4220   31.8160   45.6530 O   0  0  0  0  0  0  0  0  0  0  0  0
   57.6540   29.2700   44.8740 C   0  0  0  0  0  0  0  0  0  0  0  0
   59.0310   29.0310   44.7950 C   0  0  0  0  0  0  0  0  0  0  0  0
   59.5370   27.7590   45.0660 C   0  0  0  0  0  0  0  0  0  0  0  0
   58.6750   26.7190   45.4220 C   0  0  0  0  0  0  0  0  0  0  0  0
   57.2890   26.9430   45.5140 C   0  0  0  0  0  0  0  0  0  0  0  0
   56.3720   25.8450   45.8990 C   0  0  0  0  0  0  0  0  0  0  0  0
   55.1460   26.0830   46.0800 O   0  0  0  0  0  0  0  0  0  0  0  0
   56.8670   24.5040   46.0150 N   0  0  0  0  0  0  0  0  0  0  0  0
   56.9070   23.5120   44.9780 C   0  0  0  0  0  0  0  0  0  0  0  0
   58.0300   22.6830   44.8780 C   0  0  0  0  0  0  0  0  0  0  0  0
   58.0880   21.6960   43.8920 C   0  0  0  0  0  0  0  0  0  0  0  0
   57.0070   21.5360   43.0220 C   0  0  0  0  0  0  0  0  0  0  0  0
   55.9110   22.3300   43.1470 N   0  0  0  0  0  0  0  0  0  0  0  0
   55.8320   23.3000   44.0960 C   0  0  0  0  0  0  0  0  0  0  0  0
   56.7880   28.2300   45.2390 C   0  0  0  0  0  0  0  0  0  0  0  0
   58.4502   32.2017   43.1863 H   0  0  0  0  0  0  0  0  0  0  0  0
   58.0605   30.6212   42.4268 H   0  0  0  0  0  0  0  0  0  0  0  0
   56.8432   31.9421   42.4268 H   0  0  0  0  0  0  0  0  0  0  0  0
   59.7151   29.8469   44.5189 H   0  0  0  0  0  0  0  0  0  0  0  0
   60.6193   27.5745   44.9990 H   0  0  0  0  0  0  0  0  0  0  0  0
   59.0823   25.7189   45.6317 H   0  0  0  0  0  0  0  0  0  0  0  0
   58.8692   22.8092   45.5779 H   0  0  0  0  0  0  0  0  0  0  0  0
   58.9750   21.0517   43.8014 H   0  0  0  0  0  0  0  0  0  0  0  0
   57.0427   20.7675   42.2358 H   0  0  0  0  0  0  0  0  0  0  0  0
   54.9266   23.9197   44.1743 H   0  0  0  0  0  0  0  0  0  0  0  0
   55.7071   28.4209   45.3113 H   0  0  0  0  0  0  0  0  0  0  0  0
  1  2  1  0
  2  3  2  0
  2  4  2  0
  2  5  1  0
  5  6  2  0
  6  7  1  0
  7  8  2  0
  8  9  1  0
  9 10  1  0
 10 11  2  0
 10 12  1  0
 12 13  1  0
 13 14  2  0
 14 15  1  0
 15 16  2  0
 16 17  1  0
 17 18  2  0
  9 19  2  0
 19  5  1  0
 18 13  1  0
  1 20  1  0
  1 21  1  0
  1 22  1  0
  6 23  1  0
  7 24  1  0
  8 25  1  0
 14 26  1  0
 15 27  1  0
 16 28  1  0
 18 29  1  0
 19 30  1  0
M  CHG  1  12  -1
M  END
>  <UniqueID>  (30) 
25

>  <SMILES>  (30) 
CS(=O)(=O)c1cccc(C(=O)[N-]c2cccnc2)c1

>  <Energy>  (30) 
33.1197189237422

>  <Genealogy>  (30) 
CS(=O)(=O)c1cccc(C(=O)[N-]c2cccnc2)c1 (protonated)
CS(=O)(=O)c1cccc(C(=O)[N-]c2cccnc2)c1 (3D coordinates assigned)
CS(=O)(=O)c1cccc(C(=O)[N-]c2cccnc2)c1 (optimized conformer: 33.1197189237422 kcal/mol)

>  <smiles>  (30) 
CS(=O)(=O)c1cccc(C(=O)Nc2cccnc2)c1

>  <score_type>  (30) 
oracle

>  <origin>  (30) 
adg

>  <m_score__min__energy>  (30) 
-9.3599999999999994

>  <m_primary>  (30) 
energy

$$$$
30:0
     RDKit          3D

 52 55  0  0  0  0  0  0  0  0999 V2000
   57.3210   26.3160   46.9660 O   0  0  0  0  0  0  0  0  0  0  0  0
   56.2220   26.1090   46.3890 C   0  0  0  0  0  0  0  0  0  0  0  0
   55.6220   27.1720   45.6410 N   0  0  0  0  0  0  0  0  0  0  0  0
   56.2880   28.3660   45.2070 C   0  0  0  0  0  0  0  0  0  0  0  0
   55.5550   29.3400   44.5200 C   0  0  0  0  0  0  0  0  0  0  0  0
   56.1730   30.5160   44.0850 C   0  0  0  0  0  0  0  0  0  0  0  0
   57.5330   30.7360   44.3370 C   0  0  0  0  0  0  0  0  0  0  0  0
   58.1380   31.9520   43.8750 N   0  0  0  0  0  0  0  0  0  0  0  0
   58.4520   33.0970   44.6810 C   0  0  0  0  0  0  0  0  0  0  0  0
   58.4730   34.2310   44.1350 O   0  0  0  0  0  0  0  0  0  0  0  0
   58.8000   32.9750   46.1170 C   0  0  0  0  0  0  0  0  0  0  0  0
   57.7980   32.8510   47.0900 C   0  0  0  0  0  0  0  0  0  0  0  0
   58.1540   32.7380   48.4330 C   0  0  0  0  0  0  0  0  0  0  0  0
   59.4640   32.7420   48.7940 N   0  0  0  0  0  0  0  0  0  0  0  0
   60.4710   32.8490   47.8840 C   0  0  0  0  0  0  0  0  0  0  0  0
   61.8460   32.8510   48.3320 N   0  0  0  0  0  0  0  0  0  0  0  0
   62.1540   32.6670   49.7570 C   0  0  0  0  0  0  0  0  0  0  0  0
   63.4750   31.8950   49.9310 C   0  0  0  0  0  0  0  0  0  0  0  0
   64.5690   32.3340   49.0380 N   0  0  0  0  0  0  0  0  0  0  0  0
   64.2340   33.4820   48.1850 C   0  0  0  0  0  0  0  0  0  0  0  0
   62.9310   33.2340   47.4180 C   0  0  0  0  0  0  0  0  0  0  0  0
   60.1450   32.9600   46.5180 C   0  0  0  0  0  0  0  0  0  0  0  0
   58.2570   29.7870   45.0800 C   0  0  0  0  0  0  0  0  0  0  0  0
   57.6390   28.6100   45.5110 C   0  0  0  0  0  0  0  0  0  0  0  0
   55.5280   24.8680   46.5670 N   0  0  0  0  0  0  0  0  0  0  0  0
   55.9760   23.5670   46.1620 C   0  0  0  0  0  0  0  0  0  0  0  0
   56.3670   22.5870   47.0950 C   0  0  0  0  0  0  0  0  0  0  0  0
   56.8210   21.3380   46.6560 C   0  0  0  0  0  0  0  0  0  0  0  0
   57.3030   20.1210   47.8230 Cl  0  0  0  0  0  0  0  0  0  0  0  0
   56.8990   21.0640   45.2870 C   0  0  0  0  0  0  0  0  0  0  0  0
   56.5370   22.0410   44.3560 C   0  0  0  0  0  0  0  0  0  0  0  0
   56.6550   21.7040   42.6390 Cl  0  0  0  0  0  0  0  0  0  0  0  0
   56.0840   23.2900   44.7940 C   0  0  0  0  0  0  0  0  0  0  0  0
   54.4852   29.1792   44.3209 H   0  0  0  0  0  0  0  0  0  0  0  0
   55.5879   31.2727   43.5418 H   0  0  0  0  0  0  0  0  0  0  0  0
   56.7382   32.8430   46.7955 H   0  0  0  0  0  0  0  0  0  0  0  0
   57.3730   32.6454   49.2020 H   0  0  0  0  0  0  0  0  0  0  0  0
   62.2453   33.6524   50.2372 H   0  0  0  0  0  0  0  0  0  0  0  0
   61.3420   32.0899   50.2235 H   0  0  0  0  0  0  0  0  0  0  0  0
   63.8106   32.0200   50.9711 H   0  0  0  0  0  0  0  0  0  0  0  0
   63.2604   30.8485   49.6685 H   0  0  0  0  0  0  0  0  0  0  0  0
   64.8390   31.5350   48.4170 H   0  0  0  0  0  0  0  0  0  0  0  0
   64.1161   34.3760   48.8149 H   0  0  0  0  0  0  0  0  0  0  0  0
   65.0465   33.6275   47.4580 H   0  0  0  0  0  0  0  0  0  0  0  0
   62.6458   34.1540   46.8867 H   0  0  0  0  0  0  0  0  0  0  0  0
   63.0951   32.4123   46.7054 H   0  0  0  0  0  0  0  0  0  0  0  0
   60.9442   33.0349   45.7659 H   0  0  0  0  0  0  0  0  0  0  0  0
   59.3138   29.9717   45.3230 H   0  0  0  0  0  0  0  0  0  0  0  0
   58.2119   27.8712   46.0906 H   0  0  0  0  0  0  0  0  0  0  0  0
   56.3154   22.8040   48.1722 H   0  0  0  0  0  0  0  0  0  0  0  0
   57.2456   20.0785   44.9427 H   0  0  0  0  0  0  0  0  0  0  0  0
   55.8106   24.0603   44.0579 H   0  0  0  0  0  0  0  0  0  0  0  0
  1  2  2  0
  2  3  1  0
  3  4  1  0
  4  5  2  0
  5  6  1  0
  6  7  2  0
  7  8  1  0
  8  9  1  0
  9 10  2  0
  9 11  1  0
 11 12  2  0
 12 13  1  0
 13 14  2  0
 14 15  1  0
 15 16  1  0
 16 17  1  0
 17 18  1  0
 18 19  1  0
 19 20  1  0
 20 21  1  0
 15 22  2  0
  7 23  1  0
 23 24  2  0
  2 25  1  0
 25 26  1  0
 26 27  2  0
 27 28  1  0
 28 29  1  0
 28 30  2  0
 30 31  1  0
 31 32  1  0
 31 33  2  0
 24  4  1  0
 33 26  1  0
 22 11  1  0
 21 16  1  0
  5 34  1  0
  6 35  1  0
 12 36  1  0
 13 37  1  0
 17 38  1  0
 17 39  1  0
 18 40  1  0
 18 41  1  0
 19 42  1  0
 20 43  1  0
 20 44  1  0
 21 45  1  0
 21 46  1  0
 22 47  1  0
 23 48  1  0
 24 49  1  0
 27 50  1  0
 30 51  1  0
 33 52  1  0
M  CHG  3   3  -1   8  -1  25  -1
M  END
>  <UniqueID>  (31) 
26

>  <SMILES>  (31) 
O=C([N-]c1ccc([N-]C(=O)c2ccnc(N3CCNCC3)c2)cc1)[N-]c1cc(Cl)cc(Cl)c1

>  <Energy>  (31) 
75.73176155782397

>  <Genealogy>  (31) 
O=C([N-]c1ccc([N-]C(=O)c2ccnc(N3CCNCC3)c2)cc1)[N-]c1cc(Cl)cc(Cl)c1 (protonated)
O=C([N-]c1ccc([N-]C(=O)c2ccnc(N3CCNCC3)c2)cc1)[N-]c1cc(Cl)cc(Cl)c1 (3D coordinates assigned)
O=C([N-]c1ccc([N-]C(=O)c2ccnc(N3CCNCC3)c2)cc1)[N-]c1cc(Cl)cc(Cl)c1 (nonaromatic ring conformer: 75.73176155782397 kcal/mol)

>  <smiles>  (31) 
O=C(Nc1ccc(NC(=O)c2ccnc(N3CCNCC3)c2)cc1)Nc1cc(Cl)cc(Cl)c1

>  <score_type>  (31) 
oracle

>  <origin>  (31) 
adg

>  <m_score__min__energy>  (31) 
-13.949999999999999

>  <m_primary>  (31) 
energy

$$$$
31:0
     RDKit          3D

 37 38  0  0  0  0  0  0  0  0999 V2000
   55.6450   29.7210   43.3810 C   0  0  0  0  0  0  0  0  0  0  0  0
   56.0370   30.0470   44.7100 O   0  0  0  0  0  0  0  0  0  0  0  0
   57.3030   29.7790   45.2560 C   0  0  0  0  0  0  0  0  0  0  0  0
   57.6020   28.5510   45.8770 C   0  0  0  0  0  0  0  0  0  0  0  0
   58.8810   28.3110   46.3890 C   0  0  0  0  0  0  0  0  0  0  0  0
   59.8700   29.2890   46.2860 C   0  0  0  0  0  0  0  0  0  0  0  0
   59.5860   30.5110   45.6740 C   0  0  0  0  0  0  0  0  0  0  0  0
   58.3030   30.7660   45.1630 C   0  0  0  0  0  0  0  0  0  0  0  0
   58.0210   32.0310   44.5470 N   0  0  0  0  0  0  0  0  0  0  0  0
   57.9030   32.1250   43.0940 C   0  0  0  0  0  0  0  0  0  0  0  0
   57.8630   33.4620   45.5200 S   0  0  0  0  0  0  0  0  0  0  0  0
   56.6420   33.3660   46.3910 O   0  0  0  0  0  0  0  0  0  0  0  0
   57.7280   34.6540   44.6140 O   0  0  0  0  0  0  0  0  0  0  0  0
   59.2790   33.6270   46.5530 C   0  0  0  0  0  0  0  0  0  0  0  0
   59.1230   33.6700   47.9440 C   0  0  0  0  0  0  0  0  0  0  0  0
   60.2400   33.8010   48.7740 C   0  0  0  0  0  0  0  0  0  0  0  0
   61.5270   33.8800   48.2200 C   0  0  0  0  0  0  0  0  0  0  0  0
   62.7230   34.0610   49.1070 C   0  0  0  0  0  0  0  0  0  0  0  0
   61.6780   33.8600   46.8240 C   0  0  0  0  0  0  0  0  0  0  0  0
   60.5600   33.7290   45.9950 C   0  0  0  0  0  0  0  0  0  0  0  0
   54.7995   29.0179   43.4101 H   0  0  0  0  0  0  0  0  0  0  0  0
   55.3420   30.6371   42.8529 H   0  0  0  0  0  0  0  0  0  0  0  0
   56.4905   29.2560   42.8529 H   0  0  0  0  0  0  0  0  0  0  0  0
   56.8254   27.7764   45.9598 H   0  0  0  0  0  0  0  0  0  0  0  0
   59.1073   27.3497   46.8735 H   0  0  0  0  0  0  0  0  0  0  0  0
   60.8758   29.0970   46.6878 H   0  0  0  0  0  0  0  0  0  0  0  0
   60.3706   31.2776   45.5916 H   0  0  0  0  0  0  0  0  0  0  0  0
   57.0666   32.7913   42.8364 H   0  0  0  0  0  0  0  0  0  0  0  0
   58.8364   32.5297   42.6757 H   0  0  0  0  0  0  0  0  0  0  0  0
   57.7172   31.1247   42.6757 H   0  0  0  0  0  0  0  0  0  0  0  0
   58.1177   33.6004   48.3851 H   0  0  0  0  0  0  0  0  0  0  0  0
   60.1098   33.8423   49.8655 H   0  0  0  0  0  0  0  0  0  0  0  0
   62.4090   34.0135   50.1602 H   0  0  0  0  0  0  0  0  0  0  0  0
   63.4529   33.2631   48.9057 H   0  0  0  0  0  0  0  0  0  0  0  0
   63.1842   35.0392   48.9057 H   0  0  0  0  0  0  0  0  0  0  0  0
   62.6809   33.9478   46.3806 H   0  0  0  0  0  0  0  0  0  0  0  0
   60.6863   33.7060   44.9025 H   0  0  0  0  0  0  0  0  0  0  0  0
  1  2  1  0
  2  3  1  0
  3  4  2  0
  4  5  1  0
  5  6  2  0
  6  7  1  0
  7  8  2  0
  8  9  1  0
  9 10  1  0
  9 11  1  0
 11 12  2  0
 11 13  2  0
 11 14  1  0
 14 15  2  0
 15 16  1  0
 16 17  2  0
 17 18  1  0
 17 19  1  0
 19 20  2  0
  8  3  1  0
 20 14  1  0
  1 21  1  0
  1 22  1  0
  1 23  1  0
  4 24  1  0
  5 25  1  0
  6 26  1  0
  7 27  1  0
 10 28  1  0
 10 29  1  0
 10 30  1  0
 15 31  1  0
 16 32  1  0
 18 33  1  0
 18 34  1  0
 18 35  1  0
 19 36  1  0
 20 37  1  0
M  END
>  <UniqueID>  (32) 
27

>  <SMILES>  (32) 
COc1ccccc1N(C)S(=O)(=O)c1ccc(C)cc1

>  <Energy>  (32) 
40.92832058620797

>  <Genealogy>  (32) 
COc1ccccc1N(C)S(=O)(=O)c1ccc(C)cc1 (3D coordinates assigned)
COc1ccccc1N(C)S(=O)(=O)c1ccc(C)cc1 (optimized conformer: 40.92832058620797 kcal/mol)

>  <smiles>  (32) 
COc1ccccc1N(C)S(=O)(=O)c1ccc(C)cc1

>  <score_type>  (32) 
oracle

>  <origin>  (32) 
adg

>  <m_score__min__energy>  (32) 
-7.5899999999999999

>  <m_primary>  (32) 
energy

$$$$
32:0
     RDKit          3D

 26 28  0  0  0  0  0  0  0  0999 V2000
   57.0260   27.2840   45.6200 Br  0  0  0  0  0  0  0  0  0  0  0  0
   57.2330   29.0520   44.9300 C   0  0  0  0  0  0  0  0  0  0  0  0
   56.8250   29.3450   43.6070 C   0  0  0  0  0  0  0  0  0  0  0  0
   56.9750   30.6420   43.0830 C   0  0  0  0  0  0  0  0  0  0  0  0
   57.5310   31.6180   43.9080 C   0  0  0  0  0  0  0  0  0  0  0  0
   57.7720   32.9070   43.5980 N   0  0  0  0  0  0  0  0  0  0  0  0
   58.3360   33.4410   44.7050 C   0  0  0  0  0  0  0  0  0  0  0  0
   58.4200   32.5060   45.7220 C   0  0  0  0  0  0  0  0  0  0  0  0
   57.9230   31.3340   45.1940 C   0  0  0  0  0  0  0  0  0  0  0  0
   57.7930   30.0590   45.7410 C   0  0  0  0  0  0  0  0  0  0  0  0
   59.0630   32.7570   47.0520 C   0  0  0  0  0  0  0  0  0  0  0  0
   59.1640   34.2720   47.3180 C   0  0  0  0  0  0  0  0  0  0  0  0
   59.6800   35.0370   46.0810 C   0  0  0  0  0  0  0  0  0  0  0  0
   58.7340   34.8760   44.8730 C   0  0  0  0  0  0  0  0  0  0  0  0
   56.3869   28.5520   42.9831 H   0  0  0  0  0  0  0  0  0  0  0  0
   56.6634   30.8782   42.0549 H   0  0  0  0  0  0  0  0  0  0  0  0
   57.5690   33.3930   42.6950 H   0  0  0  0  0  0  0  0  0  0  0  0
   58.1164   29.8460   46.7706 H   0  0  0  0  0  0  0  0  0  0  0  0
   58.4575   32.2891   47.8422 H   0  0  0  0  0  0  0  0  0  0  0  0
   60.0748   32.3254   47.0483 H   0  0  0  0  0  0  0  0  0  0  0  0
   58.1672   34.6544   47.5831 H   0  0  0  0  0  0  0  0  0  0  0  0
   59.8783   34.4284   48.1397 H   0  0  0  0  0  0  0  0  0  0  0  0
   59.7602   36.1053   46.3307 H   0  0  0  0  0  0  0  0  0  0  0  0
   60.6604   34.6210   45.8057 H   0  0  0  0  0  0  0  0  0  0  0  0
   57.8325   35.4849   45.0356 H   0  0  0  0  0  0  0  0  0  0  0  0
   59.2577   35.2084   43.9645 H   0  0  0  0  0  0  0  0  0  0  0  0
  1  2  1  0
  2  3  2  0
  3  4  1  0
  4  5  2  0
  5  6  1  0
  6  7  1  0
  7  8  2  0
  8  9  1  0
  9 10  2  0
  8 11  1  0
 11 12  1  0
 12 13  1  0
 13 14  1  0
 10  2  1  0
  9  5  1  0
 14  7  1  0
  3 15  1  0
  4 16  1  0
  6 17  1  0
 10 18  1  0
 11 19  1  0
 11 20  1  0
 12 21  1  0
 12 22  1  0
 13 23  1  0
 13 24  1  0
 14 25  1  0
 14 26  1  0
M  END
>  <UniqueID>  (33) 
28

>  <SMILES>  (33) 
Brc1ccc2[nH]c3c(c2c1)CCCC3

>  <Energy>  (33) 
59.6530740025382

>  <Genealogy>  (33) 
Brc1ccc2[nH]c3c(c2c1)CCCC3 (3D coordinates assigned)
Brc1ccc2[nH]c3c(c2c1)CCCC3 (nonaromatic ring conformer: 59.6530740025382 kcal/mol)

>  <smiles>  (33) 
Brc1ccc2[nH]c3c(c2c1)CCCC3

>  <score_type>  (33) 
oracle

>  <origin>  (33) 
adg

>  <m_score__min__energy>  (33) 
-6.7199999999999998

>  <m_primary>  (33) 
energy

$$$$
33:0
     RDKit          3D

 46 49  0  0  0  0  0  0  0  0999 V2000
   57.7980   26.8780   47.1030 C   0  0  0  0  0  0  0  0  0  0  0  0
   57.0060   26.7280   45.8110 C   0  0  0  0  0  0  0  0  0  0  0  0
   57.9570   25.7560   44.5850 S   0  0  0  0  0  0  0  0  0  0  0  0
   58.1530   27.0940   43.3480 C   0  0  0  0  0  0  0  0  0  0  0  0
   57.7680   28.4300   43.9210 C   0  0  0  0  0  0  0  0  0  0  0  0
   56.5830   29.0270   43.5870 N   0  0  0  0  0  0  0  0  0  0  0  0
   56.2370   30.2630   44.0680 C   0  0  0  0  0  0  0  0  0  0  0  0
   57.0850   30.9490   44.8910 N   0  0  0  0  0  0  0  0  0  0  0  0
   58.2690   30.3690   45.2050 C   0  0  0  0  0  0  0  0  0  0  0  0
   58.6290   29.1480   44.7500 C   0  0  0  0  0  0  0  0  0  0  0  0
   59.8370   28.8030   45.2350 N   0  0  0  0  0  0  0  0  0  0  0  0
   60.1750   29.8790   45.9980 C   0  0  0  0  0  0  0  0  0  0  0  0
   59.2380   30.8620   45.9870 N   0  0  0  0  0  0  0  0  0  0  0  0
   59.2230   32.1010   46.7630 C   0  0  2  0  0  0  0  0  0  0  0  0
   58.6350   33.1340   46.0110 O   0  0  0  0  0  0  0  0  0  0  0  0
   59.2420   34.3270   46.4470 C   0  0  2  0  0  0  0  0  0  0  0  0
   59.2750   35.3340   45.2980 C   0  0  0  0  0  0  0  0  0  0  0  0
   60.6480   33.9960   46.9520 C   0  0  1  0  0  0  0  0  0  0  0  0
   60.8780   34.5680   48.2020 O   0  0  0  0  0  0  0  0  0  0  0  0
   61.1490   33.5020   49.0850 C   0  0  0  0  0  0  0  0  0  0  0  0
   60.2280   33.6260   50.2990 C   0  0  0  0  0  0  0  0  0  0  0  0
   62.6150   33.5770   49.5250 C   0  0  0  0  0  0  0  0  0  0  0  0
   60.9180   32.2540   48.4680 O   0  0  0  0  0  0  0  0  0  0  0  0
   60.6420   32.5240   47.1280 C   0  0  1  0  0  0  0  0  0  0  0  0
   57.1242   26.7504   47.9630 H   0  0  0  0  0  0  0  0  0  0  0  0
   58.5881   26.1135   47.1396 H   0  0  0  0  0  0  0  0  0  0  0  0
   58.2538   27.8784   47.1396 H   0  0  0  0  0  0  0  0  0  0  0  0
   56.0582   26.2124   46.0252 H   0  0  0  0  0  0  0  0  0  0  0  0
   56.8087   27.7277   45.3966 H   0  0  0  0  0  0  0  0  0  0  0  0
   59.2039   27.1322   43.0252 H   0  0  0  0  0  0  0  0  0  0  0  0
   57.4913   26.8784   42.4962 H   0  0  0  0  0  0  0  0  0  0  0  0
   55.2694   30.7060   43.7894 H   0  0  0  0  0  0  0  0  0  0  0  0
   61.1141   29.9454   46.5670 H   0  0  0  0  0  0  0  0  0  0  0  0
   58.6430   31.9186   47.6797 H   0  0  0  0  0  0  0  0  0  0  0  0
   58.6698   34.7819   47.2690 H   0  0  0  0  0  0  0  0  0  0  0  0
   59.3085   36.3550   45.7061 H   0  0  0  0  0  0  0  0  0  0  0  0
   60.1678   35.1565   44.6804 H   0  0  0  0  0  0  0  0  0  0  0  0
   58.3725   35.2154   44.6804 H   0  0  0  0  0  0  0  0  0  0  0  0
   61.4160   34.3671   46.2573 H   0  0  0  0  0  0  0  0  0  0  0  0
   60.8233   33.5459   51.2205 H   0  0  0  0  0  0  0  0  0  0  0  0
   59.7189   34.6008   50.2750 H   0  0  0  0  0  0  0  0  0  0  0  0
   59.4792   32.8206   50.2750 H   0  0  0  0  0  0  0  0  0  0  0  0
   62.6684   33.5797   50.6237 H   0  0  0  0  0  0  0  0  0  0  0  0
   63.1604   32.7056   49.1336 H   0  0  0  0  0  0  0  0  0  0  0  0
   63.0686   34.4995   49.1336 H   0  0  0  0  0  0  0  0  0  0  0  0
   61.3839   31.9924   46.5140 H   0  0  0  0  0  0  0  0  0  0  0  0
  1  2  1  0
  2  3  1  0
  3  4  1  0
  4  5  1  0
  5  6  2  0
  6  7  1  0
  7  8  2  0
  8  9  1  0
  9 10  2  0
 10 11  1  0
 11 12  2  0
 12 13  1  0
 13 14  1  0
 14 15  1  0
 15 16  1  0
 16 17  1  0
 16 18  1  0
 18 19  1  0
 19 20  1  0
 20 21  1  0
 20 22  1  0
 20 23  1  0
 23 24  1  0
 10  5  1  0
 24 14  1  0
 13  9  1  0
 24 18  1  0
  1 25  1  0
  1 26  1  0
  1 27  1  0
  2 28  1  0
  2 29  1  0
  4 30  1  0
  4 31  1  0
  7 32  1  0
 12 33  1  0
 14 34  1  1
 16 35  1  1
 17 36  1  0
 17 37  1  0
 17 38  1  0
 18 39  1  6
 21 40  1  0
 21 41  1  0
 21 42  1  0
 22 43  1  0
 22 44  1  0
 22 45  1  0
 24 46  1  6
M  END
>  <UniqueID>  (34) 
29

>  <SMILES>  (34) 
CCSCc1ncnc2c1ncn2[C@@H]1O[C@H](C)C2OC(C)(C)OC21

>  <Energy>  (34) 
74.5321443271486

>  <Genealogy>  (34) 
CCSCc1ncnc2c1ncn2[C@@H]1O[C@H](C)C2OC(C)(C)OC21 (chirality)
CCSCc1ncnc2c1ncn2[C@@H]1O[C@H](C)C2OC(C)(C)OC21 (3D coordinates assigned)
CCSCc1ncnc2c1ncn2[C@@H]1O[C@H](C)C2OC(C)(C)OC21 (nonaromatic ring conformer: 74.5321443271486 kcal/mol)

>  <smiles>  (34) 
CCSCc1ncnc2c1ncn2C1OC(C)C2OC(C)(C)OC21

>  <score_type>  (34) 
oracle

>  <origin>  (34) 
adg

>  <m_score__min__energy>  (34) 
-6.96

>  <m_primary>  (34) 
energy

$$$$
34:0
     RDKit          3D

 66 69  0  0  0  0  0  0  0  0999 V2000
   56.8040   27.5500   45.6400 C   0  0  0  0  0  0  0  0  0  0  0  0
   56.0610   28.6950   45.2290 O   0  0  0  0  0  0  0  0  0  0  0  0
   56.5860   29.7440   44.4600 C   0  0  0  0  0  0  0  0  0  0  0  0
   56.2640   29.7940   43.0980 C   0  0  0  0  0  0  0  0  0  0  0  0
   56.7520   30.8260   42.2930 C   0  0  0  0  0  0  0  0  0  0  0  0
   57.5850   31.8050   42.8370 C   0  0  0  0  0  0  0  0  0  0  0  0
   57.9410   31.7560   44.1960 C   0  0  0  0  0  0  0  0  0  0  0  0
   58.8040   32.7410   44.7830 N   0  0  0  0  0  0  0  0  0  0  0  0
   58.6670   33.2910   46.1000 C   0  0  0  0  0  0  0  0  0  0  0  0
   58.3550   34.5040   46.2240 O   0  0  0  0  0  0  0  0  0  0  0  0
   58.8780   32.4730   47.3090 C   0  0  0  0  0  0  0  0  0  0  0  0
   58.2590   32.6840   48.5230 C   0  0  0  0  0  0  0  0  0  0  0  0
   58.7910   31.7550   49.3950 C   0  0  0  0  0  0  0  0  0  0  0  0
   58.3670   31.6150   50.7980 C   0  0  0  0  0  0  0  0  0  0  0  0
   58.4700   32.6960   51.6840 C   0  0  0  0  0  0  0  0  0  0  0  0
   58.0560   32.5590   53.0130 C   0  0  0  0  0  0  0  0  0  0  0  0
   57.5380   31.3390   53.4710 C   0  0  0  0  0  0  0  0  0  0  0  0
   57.0600   31.2030   54.8860 C   0  0  0  0  0  0  0  0  0  0  0  0
   57.4030   30.2680   52.5740 C   0  0  0  0  0  0  0  0  0  0  0  0
   57.8170   30.4060   51.2450 C   0  0  0  0  0  0  0  0  0  0  0  0
   59.7000   30.9700   48.7640 N   0  0  0  0  0  0  0  0  0  0  0  0
   60.4200   29.8240   49.3450 C   0  0  0  0  0  0  0  0  0  0  0  0
   61.8260   30.2010   49.8450 C   0  0  0  0  0  0  0  0  0  0  0  0
   61.8410   31.5030   50.6720 C   0  0  0  0  0  0  0  0  0  0  0  0
   62.6470   32.5710   50.0300 N   0  0  0  0  0  0  0  0  0  0  0  0
   61.7940   33.5040   49.2490 C   0  0  0  0  0  0  0  0  0  0  0  0
   62.5930   34.1810   48.1220 C   0  0  0  0  0  0  0  0  0  0  0  0
   63.1260   33.2680   47.1720 O   0  0  0  0  0  0  0  0  0  0  0  0
   63.3740   31.9730   47.7030 C   0  0  0  0  0  0  0  0  0  0  0  0
   63.7350   31.9830   49.2010 C   0  0  0  0  0  0  0  0  0  0  0  0
   59.7260   31.3840   47.4720 C   0  0  0  0  0  0  0  0  0  0  0  0
   60.4960   30.7120   46.3680 C   0  0  0  0  0  0  0  0  0  0  0  0
   57.4200   30.7390   45.0070 C   0  0  0  0  0  0  0  0  0  0  0  0
   56.8323   27.5063   46.7388 H   0  0  0  0  0  0  0  0  0  0  0  0
   56.3231   26.6412   45.2492 H   0  0  0  0  0  0  0  0  0  0  0  0
   57.8299   27.6190   45.2492 H   0  0  0  0  0  0  0  0  0  0  0  0
   55.6226   29.0155   42.6592 H   0  0  0  0  0  0  0  0  0  0  0  0
   56.4793   30.8672   41.2281 H   0  0  0  0  0  0  0  0  0  0  0  0
   57.9642   32.6177   42.2000 H   0  0  0  0  0  0  0  0  0  0  0  0
   57.4943   33.4411   48.7511 H   0  0  0  0  0  0  0  0  0  0  0  0
   58.8778   33.6554   51.3330 H   0  0  0  0  0  0  0  0  0  0  0  0
   58.1371   33.4124   53.7023 H   0  0  0  0  0  0  0  0  0  0  0  0
   57.8843   31.4375   55.5756 H   0  0  0  0  0  0  0  0  0  0  0  0
   56.2268   31.8997   55.0601 H   0  0  0  0  0  0  0  0  0  0  0  0
   56.7184   30.1720   55.0601 H   0  0  0  0  0  0  0  0  0  0  0  0
   56.9701   29.3168   52.9173 H   0  0  0  0  0  0  0  0  0  0  0  0
   57.7104   29.5619   50.5477 H   0  0  0  0  0  0  0  0  0  0  0  0
   59.8371   29.4347   50.1927 H   0  0  0  0  0  0  0  0  0  0  0  0
   60.5388   29.0690   48.5539 H   0  0  0  0  0  0  0  0  0  0  0  0
   62.2062   29.3820   50.4732 H   0  0  0  0  0  0  0  0  0  0  0  0
   62.4576   30.3656   48.9596 H   0  0  0  0  0  0  0  0  0  0  0  0
   60.8072   31.8609   50.7864 H   0  0  0  0  0  0  0  0  0  0  0  0
   62.2989   31.2766   51.6462 H   0  0  0  0  0  0  0  0  0  0  0  0
   63.1090   33.1210   50.7940 H   0  0  0  0  0  0  0  0  0  0  0  0
   60.9583   32.9412   48.8076 H   0  0  0  0  0  0  0  0  0  0  0  0
   61.4215   34.2850   49.9281 H   0  0  0  0  0  0  0  0  0  0  0  0
   61.9268   34.8805   47.5957 H   0  0  0  0  0  0  0  0  0  0  0  0
   63.4468   34.6894   48.5937 H   0  0  0  0  0  0  0  0  0  0  0  0
   62.4699   31.3615   47.5666 H   0  0  0  0  0  0  0  0  0  0  0  0
   64.2401   31.5620   47.1637 H   0  0  0  0  0  0  0  0  0  0  0  0
   63.9141   30.9489   49.5306 H   0  0  0  0  0  0  0  0  0  0  0  0
   64.6351   32.6019   49.3308 H   0  0  0  0  0  0  0  0  0  0  0  0
   61.2571   30.0478   46.8035 H   0  0  0  0  0  0  0  0  0  0  0  0
   59.8064   30.1217   45.7467 H   0  0  0  0  0  0  0  0  0  0  0  0
   60.9875   31.4751   45.7467 H   0  0  0  0  0  0  0  0  0  0  0  0
   57.6641   30.7173   46.0793 H   0  0  0  0  0  0  0  0  0  0  0  0
  1  2  1  0
  2  3  1  0
  3  4  2  0
  4  5  1  0
  5  6  2  0
  6  7  1  0
  7  8  1  0
  8  9  1  0
  9 10  2  0
  9 11  1  0
 11 12  1  0
 12 13  2  0
 13 14  1  0
 14 15  2  0
 15 16  1  0
 16 17  2  0
 17 18  1  0
 17 19  1  0
 19 20  2  0
 13 21  1  0
 21 22  1  0
 22 23  1  0
 23 24  1  0
 24 25  1  0
 25 26  1  0
 26 27  1  0
 27 28  1  0
 28 29  1  0
 29 30  1  0
 21 31  1  0
 31 32  1  0
  7 33  2  0
 33  3  1  0
 31 11  2  0
 20 14  1  0
 30 25  1  0
  1 34  1  0
  1 35  1  0
  1 36  1  0
  4 37  1  0
  5 38  1  0
  6 39  1  0
 12 40  1  0
 15 41  1  0
 16 42  1  0
 18 43  1  0
 18 44  1  0
 18 45  1  0
 19 46  1  0
 20 47  1  0
 22 48  1  0
 22 49  1  0
 23 50  1  0
 23 51  1  0
 24 52  1  0
 24 53  1  0
 25 54  1  0
 26 55  1  0
 26 56  1  0
 27 57  1  0
 27 58  1  0
 29 59  1  0
 29 60  1  0
 30 61  1  0
 30 62  1  0
 32 63  1  0
 32 64  1  0
 32 65  1  0
 33 66  1  0
M  CHG  2   8  -1  25   1
M  END
>  <UniqueID>  (35) 
30

>  <SMILES>  (35) 
COc1cccc([N-]C(=O)c2cc(-c3ccc(C)cc3)n(CCC[NH+]3CCOCC3)c2C)c1

>  <Energy>  (35) 
115.99152244018522

>  <Genealogy>  (35) 
COc1cccc([N-]C(=O)c2cc(-c3ccc(C)cc3)n(CCC[NH+]3CCOCC3)c2C)c1 (protonated)
COc1cccc([N-]C(=O)c2cc(-c3ccc(C)cc3)n(CCC[NH+]3CCOCC3)c2C)c1 (3D coordinates assigned)
COc1cccc([N-]C(=O)c2cc(-c3ccc(C)cc3)n(CCC[NH+]3CCOCC3)c2C)c1 (nonaromatic ring conformer: 115.99152244018522 kcal/mol)

>  <smiles>  (35) 
COc1cccc(NC(=O)c2cc(-c3ccc(C)cc3)n(CCCN3CCOCC3)c2C)c1

>  <score_type>  (35) 
oracle

>  <origin>  (35) 
adg

>  <m_score__min__energy>  (35) 
-9.3900000000000006

>  <m_primary>  (35) 
energy

$$$$
35:0
     RDKit          3D

 45 46  0  0  0  0  0  0  0  0999 V2000
   58.4920   32.3270   50.4990 C   0  0  0  0  0  0  0  0  0  0  0  0
   58.3090   32.3120   49.0880 O   0  0  0  0  0  0  0  0  0  0  0  0
   59.1620   32.9400   48.1650 C   0  0  0  0  0  0  0  0  0  0  0  0
   58.8980   34.2340   47.6710 C   0  0  0  0  0  0  0  0  0  0  0  0
   59.7650   34.8310   46.7520 C   0  0  0  0  0  0  0  0  0  0  0  0
   60.8980   34.1480   46.3130 C   0  0  0  0  0  0  0  0  0  0  0  0
   61.1720   32.8670   46.7960 C   0  0  0  0  0  0  0  0  0  0  0  0
   60.3160   32.2530   47.7270 C   0  0  0  0  0  0  0  0  0  0  0  0
   60.6120   30.9220   48.2040 N   0  0  0  0  0  0  0  0  0  0  0  0
   60.3800   29.9120   47.1570 C   0  0  0  0  0  0  0  0  0  0  0  0
   59.1960   29.0300   47.4820 C   0  0  0  0  0  0  0  0  0  0  0  0
   58.5570   29.2660   48.5430 O   0  0  0  0  0  0  0  0  0  0  0  0
   58.7530   27.9740   46.5970 N   0  0  0  0  0  0  0  0  0  0  0  0
   59.5200   27.6240   45.3950 C   0  0  0  0  0  0  0  0  0  0  0  0
   57.5390   27.2130   46.9280 C   0  0  0  0  0  0  0  0  0  0  0  0
   56.6490   27.1040   45.7290 C   0  0  0  0  0  0  0  0  0  0  0  0
   56.4430   25.9730   45.2100 O   0  0  0  0  0  0  0  0  0  0  0  0
   55.9740   28.2740   45.2470 N   0  0  0  0  0  0  0  0  0  0  0  0
   56.5580   29.4060   44.5830 C   0  0  0  0  0  0  0  0  0  0  0  0
   56.2300   29.6340   43.2390 C   0  0  0  0  0  0  0  0  0  0  0  0
   56.7460   30.7420   42.5590 C   0  0  0  0  0  0  0  0  0  0  0  0
   57.5910   31.6360   43.2210 C   0  0  0  0  0  0  0  0  0  0  0  0
   57.9110   31.4300   44.5650 C   0  0  0  0  0  0  0  0  0  0  0  0
   58.7130   32.3090   45.2120 F   0  0  0  0  0  0  0  0  0  0  0  0
   57.3920   30.3240   45.2490 C   0  0  0  0  0  0  0  0  0  0  0  0
   57.5142   32.2469   50.9964 H   0  0  0  0  0  0  0  0  0  0  0  0
   59.1250   31.4777   50.7957 H   0  0  0  0  0  0  0  0  0  0  0  0
   58.9783   33.2680   50.7957 H   0  0  0  0  0  0  0  0  0  0  0  0
   58.0039   34.7770   48.0112 H   0  0  0  0  0  0  0  0  0  0  0  0
   59.5529   35.8421   46.3742 H   0  0  0  0  0  0  0  0  0  0  0  0
   61.5763   34.6183   45.5859 H   0  0  0  0  0  0  0  0  0  0  0  0
   62.0669   32.3326   46.4445 H   0  0  0  0  0  0  0  0  0  0  0  0
   61.6010   30.8680   48.5410 H   0  0  0  0  0  0  0  0  0  0  0  0
   60.0030   30.7020   49.0250 H   0  0  0  0  0  0  0  0  0  0  0  0
   60.1907   30.4252   46.2026 H   0  0  0  0  0  0  0  0  0  0  0  0
   61.2742   29.2746   47.0919 H   0  0  0  0  0  0  0  0  0  0  0  0
   60.4840   27.1841   45.6903 H   0  0  0  0  0  0  0  0  0  0  0  0
   58.9525   26.8957   44.7970 H   0  0  0  0  0  0  0  0  0  0  0  0
   59.6982   28.5299   44.7970 H   0  0  0  0  0  0  0  0  0  0  0  0
   57.8232   26.2040   47.2615 H   0  0  0  0  0  0  0  0  0  0  0  0
   56.9966   27.7367   47.7290 H   0  0  0  0  0  0  0  0  0  0  0  0
   55.5611   28.9355   42.7149 H   0  0  0  0  0  0  0  0  0  0  0  0
   56.4865   30.9094   41.5032 H   0  0  0  0  0  0  0  0  0  0  0  0
   58.0044   32.5023   42.6838 H   0  0  0  0  0  0  0  0  0  0  0  0
   57.6368   30.1719   46.3106 H   0  0  0  0  0  0  0  0  0  0  0  0
  1  2  1  0
  2  3  1  0
  3  4  2  0
  4  5  1  0
  5  6  2  0
  6  7  1  0
  7  8  2  0
  8  9  1  0
  9 10  1  0
 10 11  1  0
 11 12  2  0
 11 13  1  0
 13 14  1  0
 13 15  1  0
 15 16  1  0
 16 17  2  0
 16 18  1  0
 18 19  1  0
 19 20  2  0
 20 21  1  0
 21 22  2  0
 22 23  1  0
 23 24  1  0
 23 25  2  0
  8  3  1  0
 25 19  1  0
  1 26  1  0
  1 27  1  0
  1 28  1  0
  4 29  1  0
  5 30  1  0
  6 31  1  0
  7 32  1  0
  9 33  1  0
  9 34  1  0
 10 35  1  0
 10 36  1  0
 14 37  1  0
 14 38  1  0
 14 39  1  0
 15 40  1  0
 15 41  1  0
 20 42  1  0
 21 43  1  0
 22 44  1  0
 25 45  1  0
M  CHG  2   9   1  18  -1
M  END
>  <UniqueID>  (36) 
31

>  <SMILES>  (36) 
COc1ccccc1[NH2+]CC(=O)N(C)CC(=O)[N-]c1cccc(F)c1

>  <Energy>  (36) 
44.587220175162884

>  <Genealogy>  (36) 
COc1ccccc1[NH2+]CC(=O)N(C)CC(=O)[N-]c1cccc(F)c1 (protonated)
COc1ccccc1[NH2+]CC(=O)N(C)CC(=O)[N-]c1cccc(F)c1 (3D coordinates assigned)
COc1ccccc1[NH2+]CC(=O)N(C)CC(=O)[N-]c1cccc(F)c1 (optimized conformer: 44.587220175162884 kcal/mol)

>  <smiles>  (36) 
COc1ccccc1NCC(=O)N(C)CC(=O)Nc1cccc(F)c1

>  <score_type>  (36) 
oracle

>  <origin>  (36) 
adg

>  <m_score__min__energy>  (36) 
-7.1399999999999997

>  <m_primary>  (36) 
energy

$$$$
36:0
     RDKit          3D

 41 42  0  0  0  0  0  0  0  0999 V2000
   56.4750   24.0680   47.8430 C   0  0  0  0  0  0  0  0  0  0  0  0
   55.8440   24.8330   46.8220 O   0  0  0  0  0  0  0  0  0  0  0  0
   56.5260   25.5360   45.8140 C   0  0  0  0  0  0  0  0  0  0  0  0
   56.6860   26.9340   45.8620 C   0  0  0  0  0  0  0  0  0  0  0  0
   57.3640   27.6160   44.8400 C   0  0  0  0  0  0  0  0  0  0  0  0
   57.5280   29.0410   44.9320 N   0  0  0  0  0  0  0  0  0  0  0  0
   56.4520   29.9860   44.8520 C   0  0  0  0  0  0  0  0  0  0  0  0
   55.2540   29.5920   44.8570 O   0  0  0  0  0  0  0  0  0  0  0  0
   56.7570   31.3820   44.7540 N   0  0  0  0  0  0  0  0  0  0  0  0
   57.8510   32.0650   45.3850 C   0  0  0  0  0  0  0  0  0  0  0  0
   58.4830   31.4570   46.4740 C   0  0  0  0  0  0  0  0  0  0  0  0
   59.5400   32.0970   47.1300 C   0  0  0  0  0  0  0  0  0  0  0  0
   59.9720   33.3620   46.7140 C   0  0  0  0  0  0  0  0  0  0  0  0
   61.0600   33.9780   47.4160 N   0  0  0  0  0  0  0  0  0  0  0  0
   62.7170   33.4660   47.3710 S   0  0  0  0  0  0  0  0  0  0  0  0
   63.5150   33.8380   48.9180 C   0  0  0  0  0  0  0  0  0  0  0  0
   62.7920   31.9930   47.0830 O   0  0  0  0  0  0  0  0  0  0  0  0
   63.4210   34.2100   46.2730 O   0  0  0  0  0  0  0  0  0  0  0  0
   59.3190   33.9880   45.6370 C   0  0  0  0  0  0  0  0  0  0  0  0
   58.2640   33.3470   44.9810 C   0  0  0  0  0  0  0  0  0  0  0  0
   57.9230   26.8820   43.7820 C   0  0  0  0  0  0  0  0  0  0  0  0
   57.7710   25.4950   43.7260 C   0  0  0  0  0  0  0  0  0  0  0  0
   57.0640   24.8170   44.7300 C   0  0  0  0  0  0  0  0  0  0  0  0
   56.9180   23.3220   44.6660 C   0  0  0  0  0  0  0  0  0  0  0  0
   56.1642   24.4448   48.8286 H   0  0  0  0  0  0  0  0  0  0  0  0
   56.1814   23.0125   47.7447 H   0  0  0  0  0  0  0  0  0  0  0  0
   57.5671   24.1555   47.7447 H   0  0  0  0  0  0  0  0  0  0  0  0
   56.2743   27.4988   46.7114 H   0  0  0  0  0  0  0  0  0  0  0  0
   58.4760   29.4150   45.1650 H   0  0  0  0  0  0  0  0  0  0  0  0
   58.1465   30.4677   46.8176 H   0  0  0  0  0  0  0  0  0  0  0  0
   60.0352   31.6027   47.9788 H   0  0  0  0  0  0  0  0  0  0  0  0
   62.8624   33.5338   49.7496 H   0  0  0  0  0  0  0  0  0  0  0  0
   64.4673   33.2910   48.9802 H   0  0  0  0  0  0  0  0  0  0  0  0
   63.7084   34.9191   48.9802 H   0  0  0  0  0  0  0  0  0  0  0  0
   59.6403   34.9876   45.3090 H   0  0  0  0  0  0  0  0  0  0  0  0
   57.7544   33.8479   44.1447 H   0  0  0  0  0  0  0  0  0  0  0  0
   58.4843   27.4027   42.9921 H   0  0  0  0  0  0  0  0  0  0  0  0
   58.2084   24.9306   42.8893 H   0  0  0  0  0  0  0  0  0  0  0  0
   56.8781   22.9135   45.6865 H   0  0  0  0  0  0  0  0  0  0  0  0
   55.9906   23.0667   44.1323 H   0  0  0  0  0  0  0  0  0  0  0  0
   57.7784   22.8921   44.1323 H   0  0  0  0  0  0  0  0  0  0  0  0
  1  2  1  0
  2  3  1  0
  3  4  2  0
  4  5  1  0
  5  6  1  0
  6  7  1  0
  7  8  2  0
  7  9  1  0
  9 10  1  0
 10 11  2  0
 11 12  1  0
 12 13  2  0
 13 14  1  0
 14 15  1  0
 15 16  1  0
 15 17  2  0
 15 18  2  0
 13 19  1  0
 19 20  2  0
  5 21  2  0
 21 22  1  0
 22 23  2  0
 23 24  1  0
 23  3  1  0
 20 10  1  0
  1 25  1  0
  1 26  1  0
  1 27  1  0
  4 28  1  0
  6 29  1  0
 11 30  1  0
 12 31  1  0
 16 32  1  0
 16 33  1  0
 16 34  1  0
 19 35  1  0
 20 36  1  0
 21 37  1  0
 22 38  1  0
 24 39  1  0
 24 40  1  0
 24 41  1  0
M  CHG  2   9  -1  14  -1
M  END
>  <UniqueID>  (37) 
32

>  <SMILES>  (37) 
COc1cc(NC(=O)[N-]c2ccc([N-]S(C)(=O)=O)cc2)ccc1C

>  <Energy>  (37) 
46.11531327984591

>  <Genealogy>  (37) 
COc1cc(NC(=O)[N-]c2ccc([N-]S(C)(=O)=O)cc2)ccc1C (protonated)
COc1cc(NC(=O)[N-]c2ccc([N-]S(C)(=O)=O)cc2)ccc1C (3D coordinates assigned)
COc1cc(NC(=O)[N-]c2ccc([N-]S(C)(=O)=O)cc2)ccc1C (optimized conformer: 46.11531327984591 kcal/mol)

>  <smiles>  (37) 
COc1cc(NC(=O)Nc2ccc(NS(C)(=O)=O)cc2)ccc1C

>  <score_type>  (37) 
oracle

>  <origin>  (37) 
adg

>  <m_score__min__energy>  (37) 
-10.130000000000001

>  <m_primary>  (37) 
energy

$$$$
37:0
     RDKit          3D

 40 42  0  0  0  0  0  0  0  0999 V2000
   60.0150   34.9490   47.2330 C   0  0  0  0  0  0  0  0  0  0  0  0
   58.7260   34.5380   46.6550 N   0  0  0  0  0  0  0  0  0  0  0  0
   58.1330   33.4050   47.4110 C   0  0  0  0  0  0  0  0  0  0  0  0
   58.4260   32.0380   46.7740 C   0  0  0  0  0  0  0  0  0  0  0  0
   58.0170   32.0290   45.3660 N   0  0  0  0  0  0  0  0  0  0  0  0
   57.6290   30.8030   44.7260 C   0  0  0  0  0  0  0  0  0  0  0  0
   56.8550   30.7740   43.6470 C   0  0  0  0  0  0  0  0  0  0  0  0
   56.8770   29.4170   43.1650 C   0  0  0  0  0  0  0  0  0  0  0  0
   56.2590   28.9910   42.1540 O   0  0  0  0  0  0  0  0  0  0  0  0
   57.6960   28.6360   43.9570 O   0  0  0  0  0  0  0  0  0  0  0  0
   58.2410   29.4370   45.0080 C   0  0  0  0  0  0  0  0  0  0  0  0
   57.7680   28.8610   46.3680 C   0  0  0  0  0  0  0  0  0  0  0  0
   58.7370   27.7930   46.8830 C   0  0  0  0  0  0  0  0  0  0  0  0
   60.1410   28.3780   47.1400 C   0  0  0  0  0  0  0  0  0  0  0  0
   60.4940   29.5660   46.2200 C   0  0  0  0  0  0  0  0  0  0  0  0
   59.7890   29.4660   44.8640 C   0  0  0  0  0  0  0  0  0  0  0  0
   57.8390   33.3020   44.6630 C   0  0  0  0  0  0  0  0  0  0  0  0
   58.8560   34.3160   45.1930 C   0  0  0  0  0  0  0  0  0  0  0  0
   59.9481   34.9277   48.3308 H   0  0  0  0  0  0  0  0  0  0  0  0
   60.8032   34.2576   46.9002 H   0  0  0  0  0  0  0  0  0  0  0  0
   60.2575   35.9690   46.9002 H   0  0  0  0  0  0  0  0  0  0  0  0
   58.5440   33.4114   48.4313 H   0  0  0  0  0  0  0  0  0  0  0  0
   57.0416   33.5424   47.4064 H   0  0  0  0  0  0  0  0  0  0  0  0
   59.5046   31.8322   46.8389 H   0  0  0  0  0  0  0  0  0  0  0  0
   57.8592   31.2652   47.3139 H   0  0  0  0  0  0  0  0  0  0  0  0
   56.3055   31.6198   43.2080 H   0  0  0  0  0  0  0  0  0  0  0  0
   57.7099   29.6774   47.1029 H   0  0  0  0  0  0  0  0  0  0  0  0
   56.7809   28.3969   46.2258 H   0  0  0  0  0  0  0  0  0  0  0  0
   58.3450   27.3788   47.8236 H   0  0  0  0  0  0  0  0  0  0  0  0
   58.8254   27.0095   46.1160 H   0  0  0  0  0  0  0  0  0  0  0  0
   60.1890   28.7207   48.1842 H   0  0  0  0  0  0  0  0  0  0  0  0
   60.8668   27.5792   46.9277 H   0  0  0  0  0  0  0  0  0  0  0  0
   60.1874   30.5007   46.7124 H   0  0  0  0  0  0  0  0  0  0  0  0
   61.5795   29.5495   46.0425 H   0  0  0  0  0  0  0  0  0  0  0  0
   60.0718   30.3357   44.2527 H   0  0  0  0  0  0  0  0  0  0  0  0
   60.1019   28.5244   44.3892 H   0  0  0  0  0  0  0  0  0  0  0  0
   57.9966   33.1520   43.5847 H   0  0  0  0  0  0  0  0  0  0  0  0
   56.8193   33.6783   44.8322 H   0  0  0  0  0  0  0  0  0  0  0  0
   59.8691   33.9436   44.9811 H   0  0  0  0  0  0  0  0  0  0  0  0
   58.6654   35.2756   44.6902 H   0  0  0  0  0  0  0  0  0  0  0  0
  1  2  1  0
  2  3  1  0
  3  4  1  0
  4  5  1  0
  5  6  1  0
  6  7  2  0
  7  8  1  0
  8  9  2  0
  8 10  1  0
 10 11  1  0
 11 12  1  0
 12 13  1  0
 13 14  1  0
 14 15  1  0
 15 16  1  0
  5 17  1  0
 17 18  1  0
 18  2  1  0
 11  6  1  0
 16 11  1  0
  1 19  1  0
  1 20  1  0
  1 21  1  0
  3 22  1  0
  3 23  1  0
  4 24  1  0
  4 25  1  0
  7 26  1  0
 12 27  1  0
 12 28  1  0
 13 29  1  0
 13 30  1  0
 14 31  1  0
 14 32  1  0
 15 33  1  0
 15 34  1  0
 16 35  1  0
 16 36  1  0
 17 37  1  0
 17 38  1  0
 18 39  1  0
 18 40  1  0
M  END
>  <UniqueID>  (38) 
33

>  <SMILES>  (38) 
CN1CCN(C2=CC(=O)OC23CCCCC3)CC1

>  <Energy>  (38) 
71.00139794812965

>  <Genealogy>  (38) 
CN1CCN(C2=CC(=O)OC23CCCCC3)CC1 (3D coordinates assigned)
CN1CCN(C2=CC(=O)OC23CCCCC3)CC1 (nonaromatic ring conformer: 71.00139794812965 kcal/mol)

>  <smiles>  (38) 
CN1CCN(C2=CC(=O)OC23CCCCC3)CC1

>  <score_type>  (38) 
oracle

>  <origin>  (38) 
adg

>  <m_score__min__energy>  (38) 
-6.3399999999999999

>  <m_primary>  (38) 
energy

$$$$
38:0
     RDKit          3D

 33 35  0  0  0  0  0  0  0  0999 V2000
   57.7660   26.2540   44.2620 C   0  0  0  0  0  0  0  0  0  0  0  0
   57.7180   26.9780   45.6130 C   0  0  0  0  0  0  0  0  0  0  0  0
   57.5380   25.9650   46.7440 C   0  0  0  0  0  0  0  0  0  0  0  0
   58.9470   27.6810   45.8150 O   0  0  0  0  0  0  0  0  0  0  0  0
   59.1650   28.9670   45.3120 C   0  0  0  0  0  0  0  0  0  0  0  0
   60.3380   29.4270   45.2990 O   0  0  0  0  0  0  0  0  0  0  0  0
   58.0180   29.7820   44.8600 C   0  0  0  0  0  0  0  0  0  0  0  0
   58.2280   30.9850   44.2800 C   0  0  0  0  0  0  0  0  0  0  0  0
   58.0960   32.2930   44.9440 C   0  0  0  0  0  0  0  0  0  0  0  0
   57.0140   33.1690   44.8740 C   0  0  0  0  0  0  0  0  0  0  0  0
   57.1750   34.1910   45.7450 N   0  0  0  0  0  0  0  0  0  0  0  0
   58.3320   33.9520   46.3880 C   0  0  0  0  0  0  0  0  0  0  0  0
   58.9060   34.7120   47.4060 C   0  0  0  0  0  0  0  0  0  0  0  0
   60.1140   34.2560   47.9650 C   0  0  0  0  0  0  0  0  0  0  0  0
   60.7110   33.0620   47.5020 C   0  0  0  0  0  0  0  0  0  0  0  0
   60.1070   32.3150   46.4760 C   0  0  0  0  0  0  0  0  0  0  0  0
   58.9140   32.7950   45.9360 C   0  0  0  0  0  0  0  0  0  0  0  0
   56.6850   29.1650   45.0770 C   0  0  0  0  0  0  0  0  0  0  0  0
   55.6170   29.7540   44.7700 O   0  0  0  0  0  0  0  0  0  0  0  0
   56.6100   27.8830   45.6250 O   0  0  0  0  0  0  0  0  0  0  0  0
   57.8379   25.1692   44.4297 H   0  0  0  0  0  0  0  0  0  0  0  0
   56.8511   26.4773   43.6936 H   0  0  0  0  0  0  0  0  0  0  0  0
   58.6434   26.5961   43.6936 H   0  0  0  0  0  0  0  0  0  0  0  0
   57.6290   26.4774   47.7131 H   0  0  0  0  0  0  0  0  0  0  0  0
   56.5434   25.5015   46.6663 H   0  0  0  0  0  0  0  0  0  0  0  0
   58.3120   25.1873   46.6663 H   0  0  0  0  0  0  0  0  0  0  0  0
   58.5230   30.9871   43.2203 H   0  0  0  0  0  0  0  0  0  0  0  0
   56.1502   33.0462   44.2041 H   0  0  0  0  0  0  0  0  0  0  0  0
   56.5140   34.9830   45.9100 H   0  0  0  0  0  0  0  0  0  0  0  0
   58.4300   35.6381   47.7607 H   0  0  0  0  0  0  0  0  0  0  0  0
   60.5968   34.8328   48.7677 H   0  0  0  0  0  0  0  0  0  0  0  0
   61.6549   32.7147   47.9475 H   0  0  0  0  0  0  0  0  0  0  0  0
   60.5606   31.3818   46.1107 H   0  0  0  0  0  0  0  0  0  0  0  0
  1  2  1  0
  2  3  1  0
  2  4  1  0
  4  5  1  0
  5  6  2  0
  5  7  1  0
  7  8  2  3
  8  9  1  0
  9 10  2  0
 10 11  1  0
 11 12  1  0
 12 13  2  0
 13 14  1  0
 14 15  2  0
 15 16  1  0
 16 17  2  0
  7 18  1  0
 18 19  2  0
 18 20  1  0
 20  2  1  0
 17  9  1  0
 17 12  1  0
  1 21  1  0
  1 22  1  0
  1 23  1  0
  3 24  1  0
  3 25  1  0
  3 26  1  0
  8 27  1  0
 10 28  1  0
 11 29  1  0
 13 30  1  0
 14 31  1  0
 15 32  1  0
 16 33  1  0
M  END
>  <UniqueID>  (39) 
34

>  <SMILES>  (39) 
CC1(C)OC(=O)C(=Cc2c[nH]c3ccccc23)C(=O)O1

>  <Energy>  (39) 
74.57519185671532

>  <Genealogy>  (39) 
CC1(C)OC(=O)C(=Cc2c[nH]c3ccccc23)C(=O)O1 (3D coordinates assigned)
CC1(C)OC(=O)C(=Cc2c[nH]c3ccccc23)C(=O)O1 (nonaromatic ring conformer: 74.57519185671532 kcal/mol)

>  <smiles>  (39) 
CC1(C)OC(=O)C(=Cc2c[nH]c3ccccc23)C(=O)O1

>  <score_type>  (39) 
oracle

>  <origin>  (39) 
adg

>  <m_score__min__energy>  (39) 
-7.3300000000000001

>  <m_primary>  (39) 
energy

$$$$
39:0
     RDKit          3D

 25 27  0  0  0  0  0  0  0  0999 V2000
   57.9060   25.8790   47.1460 C   0  0  0  0  0  0  0  0  0  0  0  0
   57.7470   27.2260   46.5230 C   0  0  0  0  0  0  0  0  0  0  0  0
   58.6700   28.2080   46.7740 N   0  0  0  0  0  0  0  0  0  0  0  0
   58.5500   29.4670   46.2510 C   0  0  0  0  0  0  0  0  0  0  0  0
   59.5730   30.4950   46.5550 C   0  0  0  0  0  0  0  0  0  0  0  0
   60.8860   30.0990   46.8740 C   0  0  0  0  0  0  0  0  0  0  0  0
   61.8660   31.0540   47.1540 C   0  0  0  0  0  0  0  0  0  0  0  0
   61.5540   32.4160   47.1090 C   0  0  0  0  0  0  0  0  0  0  0  0
   62.7870   33.6140   47.4580 Cl  0  0  0  0  0  0  0  0  0  0  0  0
   60.2580   32.8220   46.7770 C   0  0  0  0  0  0  0  0  0  0  0  0
   59.2730   31.8690   46.4980 C   0  0  0  0  0  0  0  0  0  0  0  0
   57.4240   29.7160   45.4620 C   0  0  0  0  0  0  0  0  0  0  0  0
   57.0170   30.8560   44.8820 N   0  0  0  0  0  0  0  0  0  0  0  0
   55.8440   30.4900   44.3010 C   0  0  0  0  0  0  0  0  0  0  0  0
   55.4950   29.1910   44.5010 N   0  0  0  0  0  0  0  0  0  0  0  0
   56.5170   28.7390   45.2390 C   0  0  0  0  0  0  0  0  0  0  0  0
   56.6470   27.4950   45.7560 N   0  0  0  0  0  0  0  0  0  0  0  0
   57.8943   25.9780   48.2415 H   0  0  0  0  0  0  0  0  0  0  0  0
   57.0785   25.2279   46.8278 H   0  0  0  0  0  0  0  0  0  0  0  0
   58.8624   25.4384   46.8278 H   0  0  0  0  0  0  0  0  0  0  0  0
   61.1419   29.0296   46.9029 H   0  0  0  0  0  0  0  0  0  0  0  0
   62.8865   30.7335   47.4107 H   0  0  0  0  0  0  0  0  0  0  0  0
   60.0124   33.8934   46.7351 H   0  0  0  0  0  0  0  0  0  0  0  0
   58.2568   32.1956   46.2322 H   0  0  0  0  0  0  0  0  0  0  0  0
   55.2269   31.1881   43.7163 H   0  0  0  0  0  0  0  0  0  0  0  0
  1  2  1  0
  2  3  2  0
  3  4  1  0
  4  5  1  0
  5  6  2  0
  6  7  1  0
  7  8  2  0
  8  9  1  0
  8 10  1  0
 10 11  2  0
  4 12  2  0
 12 13  1  0
 13 14  2  0
 14 15  1  0
 15 16  1  0
 16 17  2  0
 17  2  1  0
 11  5  1  0
 16 12  1  0
  1 18  1  0
  1 19  1  0
  1 20  1  0
  6 21  1  0
  7 22  1  0
 10 23  1  0
 11 24  1  0
 14 25  1  0
M  CHG  1  15  -1
M  END
>  <UniqueID>  (40) 
35

>  <SMILES>  (40) 
Cc1nc(-c2ccc(Cl)cc2)c2nc[n-]c2n1

>  <Energy>  (40) 
68.5481241853258

>  <Genealogy>  (40) 
Cc1nc(-c2ccc(Cl)cc2)c2nc[n-]c2n1 (protonated)
Cc1nc(-c2ccc(Cl)cc2)c2nc[n-]c2n1 (3D coordinates assigned)
Cc1nc(-c2ccc(Cl)cc2)c2nc[n-]c2n1 (optimized conformer: 68.5481241853258 kcal/mol)

>  <smiles>  (40) 
Cc1nc(-c2ccc(Cl)cc2)c2nc[nH]c2n1

>  <score_type>  (40) 
oracle

>  <origin>  (40) 
adg

>  <m_score__min__energy>  (40) 
-8.0199999999999996

>  <m_primary>  (40) 
energy

$$$$
40:0
     RDKit          3D

 29 30  0  0  0  0  0  0  0  0999 V2000
   59.6510   35.2530   46.6790 C   0  0  0  0  0  0  0  0  0  0  0  0
   58.5910   34.2800   47.1810 C   0  0  0  0  0  0  0  0  0  0  0  0
   58.3620   33.2220   46.1920 N   0  0  0  0  0  0  0  0  0  0  0  0
   57.8260   33.4290   44.9640 C   0  0  0  0  0  0  0  0  0  0  0  0
   57.4900   34.5540   44.5080 O   0  0  0  0  0  0  0  0  0  0  0  0
   57.6710   31.9780   44.1630 S   0  0  0  0  0  0  0  0  0  0  0  0
   58.2890   31.0370   45.3900 N   0  0  0  0  0  0  0  0  0  0  0  0
   58.4000   29.6020   45.3770 C   0  0  0  0  0  0  0  0  0  0  0  0
   59.6520   28.9980   45.5810 C   0  0  0  0  0  0  0  0  0  0  0  0
   59.7740   27.6070   45.5900 C   0  0  0  0  0  0  0  0  0  0  0  0
   58.6490   26.8060   45.3980 C   0  0  0  0  0  0  0  0  0  0  0  0
   57.3980   27.3910   45.1950 C   0  0  0  0  0  0  0  0  0  0  0  0
   57.2600   28.7940   45.1780 C   0  0  0  0  0  0  0  0  0  0  0  0
   56.0200   29.4120   44.9500 O   0  0  0  0  0  0  0  0  0  0  0  0
   55.4950   29.7190   43.6620 C   0  0  0  0  0  0  0  0  0  0  0  0
   58.6000   31.8870   46.4120 C   0  0  0  0  0  0  0  0  0  0  0  0
   59.0930   31.4710   47.4970 O   0  0  0  0  0  0  0  0  0  0  0  0
   60.1577   35.7181   47.5374 H   0  0  0  0  0  0  0  0  0  0  0  0
   60.3876   34.7099   46.0686 H   0  0  0  0  0  0  0  0  0  0  0  0
   59.1729   36.0333   46.0686 H   0  0  0  0  0  0  0  0  0  0  0  0
   58.9313   33.8276   48.1241 H   0  0  0  0  0  0  0  0  0  0  0  0
   57.6509   34.8276   47.3433 H   0  0  0  0  0  0  0  0  0  0  0  0
   60.5424   29.6253   45.7347 H   0  0  0  0  0  0  0  0  0  0  0  0
   60.7585   27.1427   45.7487 H   0  0  0  0  0  0  0  0  0  0  0  0
   58.7475   25.7105   45.4065 H   0  0  0  0  0  0  0  0  0  0  0  0
   56.5140   26.7532   45.0473 H   0  0  0  0  0  0  0  0  0  0  0  0
   54.5503   30.2714   43.7733 H   0  0  0  0  0  0  0  0  0  0  0  0
   56.2180   30.3367   43.1090 H   0  0  0  0  0  0  0  0  0  0  0  0
   55.3113   28.7860   43.1090 H   0  0  0  0  0  0  0  0  0  0  0  0
  1  2  1  0
  2  3  1  0
  3  4  1  0
  4  5  2  0
  4  6  1  0
  6  7  1  0
  7  8  1  0
  8  9  2  0
  9 10  1  0
 10 11  2  0
 11 12  1  0
 12 13  2  0
 13 14  1  0
 14 15  1  0
  7 16  1  0
 16 17  2  0
 16  3  1  0
 13  8  1  0
  1 18  1  0
  1 19  1  0
  1 20  1  0
  2 21  1  0
  2 22  1  0
  9 23  1  0
 10 24  1  0
 11 25  1  0
 12 26  1  0
 15 27  1  0
 15 28  1  0
 15 29  1  0
M  END
>  <UniqueID>  (41) 
36

>  <SMILES>  (41) 
CCn1c(=O)sn(-c2ccccc2OC)c1=O

>  <Energy>  (41) 
72.37651653125035

>  <Genealogy>  (41) 
CCn1c(=O)sn(-c2ccccc2OC)c1=O (3D coordinates assigned)
CCn1c(=O)sn(-c2ccccc2OC)c1=O (optimized conformer: 72.37651653125035 kcal/mol)

>  <smiles>  (41) 
CCn1c(=O)sn(-c2ccccc2OC)c1=O

>  <score_type>  (41) 
oracle

>  <origin>  (41) 
adg

>  <m_score__min__energy>  (41) 
-5.8499999999999996

>  <m_primary>  (41) 
energy

$$$$
41:0
     RDKit          3D

 50 51  0  0  0  0  0  0  0  0999 V2000
   62.0110   34.1610   49.0530 C   0  0  0  0  0  0  0  0  0  0  0  0
   60.6490   34.5440   48.8910 O   0  0  0  0  0  0  0  0  0  0  0  0
   59.8560   34.2020   47.7860 C   0  0  0  0  0  0  0  0  0  0  0  0
   59.9940   34.8290   46.5340 C   0  0  0  0  0  0  0  0  0  0  0  0
   59.1900   34.4400   45.4580 C   0  0  0  0  0  0  0  0  0  0  0  0
   58.2420   33.4150   45.6120 C   0  0  0  0  0  0  0  0  0  0  0  0
   57.4090   32.9640   44.4350 C   0  0  0  0  0  0  0  0  0  0  0  0
   58.1360   32.0780   43.4970 N   0  0  0  0  0  0  0  0  0  0  0  0
   57.8240   32.3110   42.0780 C   0  0  0  0  0  0  0  0  0  0  0  0
   58.2200   30.6560   43.9060 C   0  0  0  0  0  0  0  0  0  0  0  0
   57.0900   29.7610   43.3560 C   0  0  0  0  0  0  0  0  0  0  0  0
   56.0000   29.6100   44.3710 C   0  0  0  0  0  0  0  0  0  0  0  0
   55.1420   30.5240   44.4980 O   0  0  0  0  0  0  0  0  0  0  0  0
   56.0030   28.4710   45.2410 N   0  0  0  0  0  0  0  0  0  0  0  0
   57.1140   27.9300   45.9720 C   0  0  0  0  0  0  0  0  0  0  0  0
   57.1920   26.5400   46.1300 C   0  0  0  0  0  0  0  0  0  0  0  0
   58.2440   25.9660   46.8460 C   0  0  0  0  0  0  0  0  0  0  0  0
   59.2310   26.7750   47.4130 C   0  0  0  0  0  0  0  0  0  0  0  0
   59.1720   28.1720   47.2680 C   0  0  0  0  0  0  0  0  0  0  0  0
   60.1610   29.0290   47.8680 N   0  0  0  0  0  0  0  0  0  0  0  0
   60.7230   30.1810   47.2220 C   0  0  0  0  0  0  0  0  0  0  0  0
   61.8540   30.9170   47.8630 C   0  0  0  0  0  0  0  0  0  0  0  0
   60.2140   30.6370   46.1610 O   0  0  0  0  0  0  0  0  0  0  0  0
   58.0940   28.7440   46.5740 C   0  0  0  0  0  0  0  0  0  0  0  0
   58.0910   32.8080   46.8680 C   0  0  0  0  0  0  0  0  0  0  0  0
   58.8970   33.1950   47.9420 C   0  0  0  0  0  0  0  0  0  0  0  0
   62.2481   34.0943   50.1251 H   0  0  0  0  0  0  0  0  0  0  0  0
   62.1753   33.1818   48.5795 H   0  0  0  0  0  0  0  0  0  0  0  0
   62.6616   34.9110   48.5795 H   0  0  0  0  0  0  0  0  0  0  0  0
   60.7376   35.6286   46.4010 H   0  0  0  0  0  0  0  0  0  0  0  0
   59.3007   34.9400   44.4845 H   0  0  0  0  0  0  0  0  0  0  0  0
   56.5325   32.4206   44.8176 H   0  0  0  0  0  0  0  0  0  0  0  0
   57.1297   33.8676   43.8733 H   0  0  0  0  0  0  0  0  0  0  0  0
   56.9449   32.9675   41.9989 H   0  0  0  0  0  0  0  0  0  0  0  0
   58.6843   32.7895   41.5872 H   0  0  0  0  0  0  0  0  0  0  0  0
   57.6095   31.3502   41.5872 H   0  0  0  0  0  0  0  0  0  0  0  0
   59.1801   30.2532   43.5511 H   0  0  0  0  0  0  0  0  0  0  0  0
   58.1240   30.6409   45.0017 H   0  0  0  0  0  0  0  0  0  0  0  0
   56.6760   30.2190   42.4456 H   0  0  0  0  0  0  0  0  0  0  0  0
   57.5027   28.7675   43.1265 H   0  0  0  0  0  0  0  0  0  0  0  0
   56.4183   25.8960   45.6864 H   0  0  0  0  0  0  0  0  0  0  0  0
   58.2956   24.8736   46.9639 H   0  0  0  0  0  0  0  0  0  0  0  0
   60.0581   26.3172   47.9754 H   0  0  0  0  0  0  0  0  0  0  0  0
   60.4140   28.8620   48.8690 H   0  0  0  0  0  0  0  0  0  0  0  0
   61.7586   30.8549   48.9571 H   0  0  0  0  0  0  0  0  0  0  0  0
   62.8080   30.4662   47.5519 H   0  0  0  0  0  0  0  0  0  0  0  0
   61.8282   31.9718   47.5519 H   0  0  0  0  0  0  0  0  0  0  0  0
   58.0136   29.8385   46.4994 H   0  0  0  0  0  0  0  0  0  0  0  0
   57.3336   32.0227   47.0081 H   0  0  0  0  0  0  0  0  0  0  0  0
   58.7765   32.7036   48.9187 H   0  0  0  0  0  0  0  0  0  0  0  0
  1  2  1  0
  2  3  1  0
  3  4  2  0
  4  5  1  0
  5  6  2  0
  6  7  1  0
  7  8  1  0
  8  9  1  0
  8 10  1  0
 10 11  1  0
 11 12  1  0
 12 13  2  0
 12 14  1  0
 14 15  1  0
 15 16  2  0
 16 17  1  0
 17 18  2  0
 18 19  1  0
 19 20  1  0
 20 21  1  0
 21 22  1  0
 21 23  2  0
 19 24  2  0
  6 25  1  0
 25 26  2  0
 26  3  1  0
 24 15  1  0
  1 27  1  0
  1 28  1  0
  1 29  1  0
  4 30  1  0
  5 31  1  0
  7 32  1  0
  7 33  1  0
  9 34  1  0
  9 35  1  0
  9 36  1  0
 10 37  1  0
 10 38  1  0
 11 39  1  0
 11 40  1  0
 16 41  1  0
 17 42  1  0
 18 43  1  0
 20 44  1  0
 22 45  1  0
 22 46  1  0
 22 47  1  0
 24 48  1  0
 25 49  1  0
 26 50  1  0
M  CHG  1  14  -1
M  END
>  <UniqueID>  (42) 
37

>  <SMILES>  (42) 
COc1ccc(CN(C)CCC(=O)[N-]c2cccc(NC(C)=O)c2)cc1

>  <Energy>  (42) 
58.66169498853743

>  <Genealogy>  (42) 
COc1ccc(CN(C)CCC(=O)[N-]c2cccc(NC(C)=O)c2)cc1 (protonated)
COc1ccc(CN(C)CCC(=O)[N-]c2cccc(NC(C)=O)c2)cc1 (3D coordinates assigned)
COc1ccc(CN(C)CCC(=O)[N-]c2cccc(NC(C)=O)c2)cc1 (optimized conformer: 58.66169498853743 kcal/mol)

>  <smiles>  (42) 
COc1ccc(CN(C)CCC(=O)Nc2cccc(NC(C)=O)c2)cc1

>  <score_type>  (42) 
oracle

>  <origin>  (42) 
adg

>  <m_score__min__energy>  (42) 
-9.7899999999999991

>  <m_primary>  (42) 
energy

$$$$
42:0
     RDKit          3D

 38 40  0  0  0  0  0  0  0  0999 V2000
   60.2990   33.2860   51.5040 H   0  0  0  0  0  0  0  0  0  0  0  0
   60.3810   33.8420   50.6230 N   0  0  0  0  0  0  0  0  0  0  0  0
   59.9050   33.4670   49.4750 C   0  0  0  0  0  0  0  0  0  0  0  0
   60.4270   34.0200   48.3500 N   0  0  0  0  0  0  0  0  0  0  0  0
   59.9630   33.7270   47.1080 C   0  0  0  0  0  0  0  0  0  0  0  0
   60.4218   34.1989   46.2266 H   0  0  0  0  0  0  0  0  0  0  0  0
   58.9010   32.8250   46.9440 C   0  0  0  0  0  0  0  0  0  0  0  0
   58.3810   32.5010   45.5900 C   0  0  0  0  0  0  0  0  0  0  0  0
   58.6680   33.3380   44.4990 C   0  0  0  0  0  0  0  0  0  0  0  0
   59.2834   34.2376   44.6472 H   0  0  0  0  0  0  0  0  0  0  0  0
   58.1770   33.0350   43.2280 C   0  0  0  0  0  0  0  0  0  0  0  0
   58.4052   33.6976   42.3801 H   0  0  0  0  0  0  0  0  0  0  0  0
   57.3980   31.8950   43.0290 C   0  0  0  0  0  0  0  0  0  0  0  0
   57.0161   31.6636   42.0237 H   0  0  0  0  0  0  0  0  0  0  0  0
   57.0970   31.0390   44.1040 C   0  0  0  0  0  0  0  0  0  0  0  0
   56.2720   29.8280   43.8890 C   0  0  0  0  0  0  0  0  0  0  0  0
   56.2850   29.2370   42.7750 O   0  0  0  0  0  0  0  0  0  0  0  0
   55.4520   29.3130   44.9370 N   0  0  0  0  0  0  0  0  0  0  0  0
   54.4110   29.3550   44.8750 H   0  0  0  0  0  0  0  0  0  0  0  0
   57.5950   31.3520   45.3830 C   0  0  0  0  0  0  0  0  0  0  0  0
   57.3669   30.6901   46.2314 H   0  0  0  0  0  0  0  0  0  0  0  0
   58.3470   32.2340   48.0890 C   0  0  0  0  0  0  0  0  0  0  0  0
   57.5111   31.5266   47.9848 H   0  0  0  0  0  0  0  0  0  0  0  0
   58.8460   32.5340   49.3660 C   0  0  0  0  0  0  0  0  0  0  0  0
   58.2530   31.8500   50.5380 C   0  0  0  0  0  0  0  0  0  0  0  0
   58.1180   30.4540   50.5620 C   0  0  0  0  0  0  0  0  0  0  0  0
   58.4760   29.8540   49.7124 H   0  0  0  0  0  0  0  0  0  0  0  0
   57.5460   29.8400   51.6320 N   0  0  0  0  0  0  0  0  0  0  0  0
   57.0820   30.5440   52.7030 C   0  0  0  0  0  0  0  0  0  0  0  0
   56.5010   29.8910   53.7920 O   0  0  0  0  0  0  0  0  0  0  0  0
   55.5000   28.8910   53.6460 C   0  0  0  0  0  0  0  0  0  0  0  0
   55.1667   28.5580   54.6400 H   0  0  0  0  0  0  0  0  0  0  0  0
   54.6449   29.3062   53.0926 H   0  0  0  0  0  0  0  0  0  0  0  0
   55.9144   28.0354   53.0926 H   0  0  0  0  0  0  0  0  0  0  0  0
   57.1870   31.9380   52.7120 C   0  0  0  0  0  0  0  0  0  0  0  0
   56.8143   32.5157   53.5707 H   0  0  0  0  0  0  0  0  0  0  0  0
   57.7680   32.5920   51.6240 C   0  0  0  0  0  0  0  0  0  0  0  0
   57.8452   33.6893   51.6189 H   0  0  0  0  0  0  0  0  0  0  0  0
  1  2  1  0
  2  3  2  0
  3  4  1  0
  4  5  1  0
  5  6  1  0
  5  7  2  0
  7  8  1  0
  8  9  2  0
  9 10  1  0
  9 11  1  0
 11 12  1  0
 11 13  2  0
 13 14  1  0
 13 15  1  0
 15 16  1  0
 16 17  2  0
 16 18  1  0
 18 19  1  0
 15 20  2  0
 20 21  1  0
  7 22  1  0
 22 23  1  0
 22 24  2  0
 24 25  1  0
 25 26  2  0
 26 27  1  0
 26 28  1  0
 28 29  2  0
 29 30  1  0
 30 31  1  0
 31 32  1  0
 31 33  1  0
 31 34  1  0
 29 35  1  0
 35 36  1  0
 35 37  2  0
 37 38  1  0
 24  3  1  0
 37 25  1  0
 20  8  1  0
M  CHG  2   4  -1  18  -1
M  END
>  <UniqueID>  (43) 
38

>  <SMILES>  (43) 
[H]/N=c1/[n-]cc(-c2cccc(C([NH-])=O)c2)cc1-c1ccc(OC)nc1

>  <Energy>  (43) 
54.744622217060375

>  <Genealogy>  (43) 
COc1ccc(-c2cc(-c3cccc(C([NH-])=O)c3)c[n-]c2=N)cn1 (protonated)
[H]/N=c1/[n-]cc(-c2cccc(C([NH-])=O)c2)cc1-c1ccc(OC)nc1 (cis-trans isomerization)
[H]/N=c1/[n-]cc(-c2cccc(C([NH-])=O)c2)cc1-c1ccc(OC)nc1 (3D coordinates assigned)
[H]/N=c1/[n-]cc(-c2cccc(C([NH-])=O)c2)cc1-c1ccc(OC)nc1 (optimized conformer: 54.744622217060375 kcal/mol)

>  <smiles>  (43) 
COc1ccc(-c2cc(-c3cccc(C(N)=O)c3)c[nH]c2=N)cn1

>  <score_type>  (43) 
oracle

>  <origin>  (43) 
adg

>  <m_score__min__energy>  (43) 
-11.539999999999999

>  <m_primary>  (43) 
energy

$$$$
43:0
     RDKit          3D

 63 67  0  0  1  0  0  0  0  0999 V2000
   56.6140   30.2930   42.8120 C   0  0  0  0  0  0  0  0  0  0  0  0
   57.3250   29.7190   43.9860 C   0  0  0  0  0  0  0  0  0  0  0  0
   57.8230   28.4380   43.9760 C   0  0  0  0  0  0  0  0  0  0  0  0
   58.4760   27.9330   45.0770 C   0  0  0  0  0  0  0  0  0  0  0  0
   58.6690   28.6510   46.2250 C   0  0  0  0  0  0  0  0  0  0  0  0
   59.3550   28.1460   47.4060 C   0  0  0  0  0  0  0  0  0  0  0  0
   59.3220   26.9010   47.6660 O   0  0  0  0  0  0  0  0  0  0  0  0
   60.0740   28.9600   48.3130 N   0  0  0  0  0  0  0  0  0  0  0  0
   60.7520   28.4580   49.4780 C   0  0  0  0  0  0  0  0  0  0  0  0
   61.1930   29.5460   50.4220 C   0  0  0  0  0  0  0  0  0  0  0  0
   59.9710   30.0010   51.1370 C   0  0  0  0  0  0  0  0  0  0  0  0
   58.8710   30.4340   50.4300 C   0  0  0  0  0  0  0  0  0  0  0  0
   57.7170   30.8670   51.0100 C   0  0  0  0  0  0  0  0  0  0  0  0
   57.6230   30.8790   52.4000 C   0  0  0  0  0  0  0  0  0  0  0  0
   58.7350   30.4410   53.1280 C   0  0  0  0  0  0  0  0  0  0  0  0
   59.8750   30.0160   52.5140 C   0  0  0  0  0  0  0  0  0  0  0  0
   58.1700   29.9450   46.2450 C   0  0  0  0  0  0  0  0  0  0  0  0
   57.5060   30.4620   45.1270 C   0  0  0  0  0  0  0  0  0  0  0  0
   57.0380   31.7950   45.2560 N   0  0  0  0  0  0  0  0  0  0  0  0
   57.9050   32.7400   45.3980 C   0  0  0  0  0  0  0  0  0  0  0  0
   57.6520   33.9060   44.7530 N   0  0  0  0  0  0  0  0  0  0  0  0
   58.5460   34.9260   44.8810 C   0  0  0  0  0  0  0  0  0  0  0  0
   59.6620   34.8100   45.6230 N   0  0  0  0  0  0  0  0  0  0  0  0
   59.9020   33.6310   46.2650 C   0  0  0  0  0  0  0  0  0  0  0  0
   61.0900   33.5320   47.0440 N   0  0  0  0  0  0  0  0  0  0  0  0
   62.3810   33.4530   46.4380 C   0  0  0  0  0  0  0  0  0  0  0  0
   63.5150   33.6200   47.3790 C   0  0  0  0  0  0  0  0  0  0  0  0
   63.3040   33.2050   48.7820 C   0  0  0  0  0  0  0  0  0  0  0  0
   61.9560   33.3600   49.3250 C   0  0  0  0  0  0  0  0  0  0  0  0
   61.7660   33.3460   50.6900 C   0  0  0  0  0  0  0  0  0  0  0  0
   60.4910   33.4910   51.2270 C   0  0  0  0  0  0  0  0  0  0  0  0
   59.4040   33.6520   50.3710 C   0  0  0  0  0  0  0  0  0  0  0  0
   59.6370   33.6610   49.0180 C   0  0  0  0  0  0  0  0  0  0  0  0
   60.8910   33.5180   48.4740 C   0  0  0  0  0  0  0  0  0  0  0  0
   59.0200   32.6220   46.1400 N   0  0  0  0  0  0  0  0  0  0  0  0
   55.8020   30.9486   43.1597 H   0  0  0  0  0  0  0  0  0  0  0  0
   57.3213   30.8763   42.2041 H   0  0  0  0  0  0  0  0  0  0  0  0
   56.1930   29.4786   42.2041 H   0  0  0  0  0  0  0  0  0  0  0  0
   57.6986   27.8113   43.0806 H   0  0  0  0  0  0  0  0  0  0  0  0
   58.8608   26.9035   45.0317 H   0  0  0  0  0  0  0  0  0  0  0  0
   60.0930   29.9920   48.0890 H   0  0  0  0  0  0  0  0  0  0  0  0
   60.0699   27.7834   50.0161 H   0  0  0  0  0  0  0  0  0  0  0  0
   61.6576   27.9388   49.1312 H   0  0  0  0  0  0  0  0  0  0  0  0
   61.9291   29.1528   51.1386 H   0  0  0  0  0  0  0  0  0  0  0  0
   61.6704   30.3755   49.8799 H   0  0  0  0  0  0  0  0  0  0  0  0
   58.9278   30.4299   49.3315 H   0  0  0  0  0  0  0  0  0  0  0  0
   56.8722   31.2021   50.3903 H   0  0  0  0  0  0  0  0  0  0  0  0
   56.7082   31.2203   52.9067 H   0  0  0  0  0  0  0  0  0  0  0  0
   58.6876   30.4397   54.2270 H   0  0  0  0  0  0  0  0  0  0  0  0
   60.7281   29.6812   53.1224 H   0  0  0  0  0  0  0  0  0  0  0  0
   58.2967   30.5672   47.1432 H   0  0  0  0  0  0  0  0  0  0  0  0
   58.3489   35.8750   44.3608 H   0  0  0  0  0  0  0  0  0  0  0  0
   60.3410   35.6200   45.7050 H   0  0  0  0  0  0  0  0  0  0  0  0
   62.4753   32.4676   45.9582 H   0  0  0  0  0  0  0  0  0  0  0  0
   62.4423   34.2876   45.7241 H   0  0  0  0  0  0  0  0  0  0  0  0
   64.3588   33.0343   46.9854 H   0  0  0  0  0  0  0  0  0  0  0  0
   63.6796   34.7064   47.4297 H   0  0  0  0  0  0  0  0  0  0  0  0
   63.5714   32.1406   48.8568 H   0  0  0  0  0  0  0  0  0  0  0  0
   63.9314   33.8842   49.3778 H   0  0  0  0  0  0  0  0  0  0  0  0
   62.6292   33.2192   51.3599 H   0  0  0  0  0  0  0  0  0  0  0  0
   60.3426   33.4786   52.3169 H   0  0  0  0  0  0  0  0  0  0  0  0
   58.3851   33.7689   50.7688 H   0  0  0  0  0  0  0  0  0  0  0  0
   58.7813   33.7884   48.3386 H   0  0  0  0  0  0  0  0  0  0  0  0
  1  2  1  0
  2  3  2  0
  3  4  1  0
  4  5  2  0
  5  6  1  0
  6  7  2  0
  6  8  1  0
  8  9  1  0
  9 10  1  0
 10 11  1  0
 11 12  2  0
 12 13  1  0
 13 14  2  0
 14 15  1  0
 15 16  2  0
  5 17  1  0
 17 18  2  0
 18 19  1  0
 19 20  2  0
 20 21  1  0
 21 22  2  0
 22 23  1  0
 23 24  1  0
 24 25  1  0
 25 26  1  0
 26 27  1  0
 27 28  1  0
 28 29  1  0
 29 30  2  0
 30 31  1  0
 31 32  2  0
 32 33  1  0
 33 34  2  0
 24 35  2  0
 18  2  1  0
 35 20  1  0
 16 11  1  0
 34 25  1  0
 34 29  1  0
  1 36  1  0
  1 37  1  0
  1 38  1  0
  3 39  1  0
  4 40  1  0
  8 41  1  0
  9 42  1  0
  9 43  1  0
 10 44  1  0
 10 45  1  0
 12 46  1  0
 13 47  1  0
 14 48  1  0
 15 49  1  0
 16 50  1  0
 17 51  1  0
 22 52  1  0
 23 53  1  0
 26 54  1  0
 26 55  1  0
 27 56  1  0
 27 57  1  0
 28 58  1  0
 28 59  1  0
 30 60  1  0
 31 61  1  0
 32 62  1  0
 33 63  1  0
M  END
>  <smiles>  (44) 
Cc1ccc(C(=O)NCCc2ccccc2)cc1N=c1nc[nH]c(N2CCCc3ccccc32)n1

>  <score_type>  (44) 
oracle

>  <origin>  (44) 
adg

>  <m_score__min__energy>  (44) 
-10.25

>  <m_primary>  (44) 
energy

$$$$
44:0
     RDKit          3D

 43 45  0  0  0  0  0  0  0  0999 V2000
   63.7240   33.7490   47.6390 C   0  0  0  0  0  0  0  0  0  0  0  0
   63.0010   33.7840   48.8380 C   0  0  0  0  0  0  0  0  0  0  0  0
   61.6050   33.8570   48.8120 C   0  0  0  0  0  0  0  0  0  0  0  0
   60.9290   33.9110   47.5860 C   0  0  0  0  0  0  0  0  0  0  0  0
   59.1350   33.9960   47.5470 S   0  0  0  0  0  0  0  0  0  0  0  0
   59.0240   34.7350   45.8730 C   0  0  0  0  0  0  0  0  0  0  0  0
   58.1280   33.9410   44.9090 C   0  0  0  0  0  0  0  0  0  0  0  0
   57.1420   33.0060   45.6300 C   0  0  0  0  0  0  0  0  0  0  0  0
   57.3840   31.6030   45.2300 N   0  0  0  0  0  0  0  0  0  0  0  0
   57.2000   31.3860   43.7850 C   0  0  0  0  0  0  0  0  0  0  0  0
   57.0740   29.8790   43.5260 C   0  0  0  0  0  0  0  0  0  0  0  0
   57.9160   29.1150   44.4580 N   0  0  0  0  0  0  0  0  0  0  0  0
   57.6460   27.7170   44.6830 C   0  0  0  0  0  0  0  0  0  0  0  0
   58.1130   26.6560   43.9110 C   0  0  0  0  0  0  0  0  0  0  0  0
   57.7430   25.4060   44.4170 C   0  0  0  0  0  0  0  0  0  0  0  0
   56.9940   25.4720   45.5860 C   0  0  0  0  0  0  0  0  0  0  0  0
   56.7990   27.0900   45.9980 S   0  0  0  0  0  0  0  0  0  0  0  0
   59.0970   29.7700   45.0380 C   0  0  0  0  0  0  0  0  0  0  0  0
   58.7220   31.1320   45.6630 C   0  0  0  0  0  0  0  0  0  0  0  0
   61.6540   33.8570   46.3890 C   0  0  0  0  0  0  0  0  0  0  0  0
   63.0500   33.7820   46.4150 C   0  0  0  0  0  0  0  0  0  0  0  0
   64.8225   33.6955   47.6606 H   0  0  0  0  0  0  0  0  0  0  0  0
   63.5319   33.7540   49.8009 H   0  0  0  0  0  0  0  0  0  0  0  0
   61.0374   33.8720   49.7541 H   0  0  0  0  0  0  0  0  0  0  0  0
   58.6169   35.7524   45.9681 H   0  0  0  0  0  0  0  0  0  0  0  0
   60.0391   34.7290   45.4494 H   0  0  0  0  0  0  0  0  0  0  0  0
   57.5525   34.6534   44.2997 H   0  0  0  0  0  0  0  0  0  0  0  0
   58.7871   33.3102   44.2945 H   0  0  0  0  0  0  0  0  0  0  0  0
   57.2784   33.1026   46.7172 H   0  0  0  0  0  0  0  0  0  0  0  0
   56.1146   33.2860   45.3543 H   0  0  0  0  0  0  0  0  0  0  0  0
   56.2865   31.8973   43.4473 H   0  0  0  0  0  0  0  0  0  0  0  0
   58.0610   31.7905   43.2326 H   0  0  0  0  0  0  0  0  0  0  0  0
   56.0245   29.5772   43.6584 H   0  0  0  0  0  0  0  0  0  0  0  0
   57.4069   29.6696   42.4987 H   0  0  0  0  0  0  0  0  0  0  0  0
   58.7113   26.7877   42.9974 H   0  0  0  0  0  0  0  0  0  0  0  0
   58.0195   24.4572   43.9340 H   0  0  0  0  0  0  0  0  0  0  0  0
   56.5968   24.6124   46.1458 H   0  0  0  0  0  0  0  0  0  0  0  0
   59.5220   29.1209   45.8178 H   0  0  0  0  0  0  0  0  0  0  0  0
   59.8318   29.9415   44.2376 H   0  0  0  0  0  0  0  0  0  0  0  0
   58.7235   31.0306   46.7583 H   0  0  0  0  0  0  0  0  0  0  0  0
   59.4634   31.8714   45.3259 H   0  0  0  0  0  0  0  0  0  0  0  0
   61.1236   33.8736   45.4255 H   0  0  0  0  0  0  0  0  0  0  0  0
   63.6172   33.7490   45.4731 H   0  0  0  0  0  0  0  0  0  0  0  0
  1  2  2  0
  2  3  1  0
  3  4  2  0
  4  5  1  0
  5  6  1  0
  6  7  1  0
  7  8  1  0
  8  9  1  0
  9 10  1  0
 10 11  1  0
 11 12  1  0
 12 13  1  0
 13 14  2  0
 14 15  1  0
 15 16  2  0
 16 17  1  0
 12 18  1  0
 18 19  1  0
  4 20  1  0
 20 21  2  0
 21  1  1  0
 19  9  1  0
 17 13  1  0
  1 22  1  0
  2 23  1  0
  3 24  1  0
  6 25  1  0
  6 26  1  0
  7 27  1  0
  7 28  1  0
  8 29  1  0
  8 30  1  0
 10 31  1  0
 10 32  1  0
 11 33  1  0
 11 34  1  0
 14 35  1  0
 15 36  1  0
 16 37  1  0
 18 38  1  0
 18 39  1  0
 19 40  1  0
 19 41  1  0
 20 42  1  0
 21 43  1  0
M  END
>  <UniqueID>  (45) 
39

>  <SMILES>  (45) 
c1ccc(SCCCN2CCN(c3cccs3)CC2)cc1

>  <Energy>  (45) 
71.25090209747745

>  <Genealogy>  (45) 
c1ccc(SCCCN2CCN(c3cccs3)CC2)cc1 (3D coordinates assigned)
c1ccc(SCCCN2CCN(c3cccs3)CC2)cc1 (nonaromatic ring conformer: 71.25090209747745 kcal/mol)

>  <smiles>  (45) 
c1ccc(SCCCN2CCN(c3cccs3)CC2)cc1

>  <score_type>  (45) 
oracle

>  <origin>  (45) 
adg

>  <m_score__min__energy>  (45) 
-7.6299999999999999

>  <m_primary>  (45) 
energy

$$$$
45:0
     RDKit          3D

 26 28  0  0  0  0  0  0  0  0999 V2000
   59.0546   35.5368   44.1095 H   0  0  0  0  0  0  0  0  0  0  0  0
   58.8570   34.7690   44.8720 C   0  0  0  0  0  0  0  0  0  0  0  0
   59.3130   34.9520   46.1800 C   0  0  0  0  0  0  0  0  0  0  0  0
   59.8605   35.8674   46.4489 H   0  0  0  0  0  0  0  0  0  0  0  0
   59.0730   33.9710   47.1470 C   0  0  0  0  0  0  0  0  0  0  0  0
   59.6720   34.1850   48.7820 Cl  0  0  0  0  0  0  0  0  0  0  0  0
   58.3650   32.8120   46.8080 C   0  0  0  0  0  0  0  0  0  0  0  0
   58.1912   32.0338   47.5658 H   0  0  0  0  0  0  0  0  0  0  0  0
   57.8750   32.6400   45.5000 C   0  0  0  0  0  0  0  0  0  0  0  0
   57.1810   31.4460   45.1090 N   0  0  0  0  0  0  0  0  0  0  0  0
   57.6380   30.2300   45.1930 C   0  0  0  0  0  0  0  0  0  0  0  0
   59.3560   29.7970   45.5570 S   0  0  0  0  0  0  0  0  0  0  0  0
   58.8290   28.0820   45.6920 C   0  0  0  0  0  0  0  0  0  0  0  0
   59.6850   27.0190   45.9880 C   0  0  0  0  0  0  0  0  0  0  0  0
   60.7566   27.1986   46.1596 H   0  0  0  0  0  0  0  0  0  0  0  0
   59.1620   25.7190   46.0640 C   0  0  0  0  0  0  0  0  0  0  0  0
   59.8263   24.8739   46.2974 H   0  0  0  0  0  0  0  0  0  0  0  0
   57.7930   25.4930   45.8430 C   0  0  0  0  0  0  0  0  0  0  0  0
   57.3890   24.4716   45.9031 H   0  0  0  0  0  0  0  0  0  0  0  0
   56.9400   26.5660   45.5460 C   0  0  0  0  0  0  0  0  0  0  0  0
   55.8668   26.3969   45.3736 H   0  0  0  0  0  0  0  0  0  0  0  0
   57.4780   27.8540   45.4730 C   0  0  0  0  0  0  0  0  0  0  0  0
   56.7530   29.0750   45.1860 C   0  0  0  0  0  0  0  0  0  0  0  0
   55.5120   29.1330   44.9710 O   0  0  0  0  0  0  0  0  0  0  0  0
   58.1500   33.6120   44.5300 C   0  0  0  0  0  0  0  0  0  0  0  0
   57.8084   33.4647   43.4948 H   0  0  0  0  0  0  0  0  0  0  0  0
  1  2  1  0
  2  3  2  0
  3  4  1  0
  3  5  1  0
  5  6  1  0
  5  7  2  0
  7  8  1  0
  7  9  1  0
  9 10  1  0
 10 11  2  0
 11 12  1  0
 12 13  1  0
 13 14  2  0
 14 15  1  0
 14 16  1  0
 16 17  1  0
 16 18  2  0
 18 19  1  0
 18 20  1  0
 20 21  1  0
 20 22  2  0
 22 23  1  0
 23 24  2  0
  9 25  2  0
 25 26  1  0
 25  2  1  0
 23 11  1  0
 22 13  1  0
M  END
>  <UniqueID>  (46) 
40

>  <SMILES>  (46) 
O=C1/C(=N/c2cccc(Cl)c2)Sc2ccccc21

>  <Energy>  (46) 
56.47193863431601

>  <Genealogy>  (46) 
O=C1/C(=N/c2cccc(Cl)c2)Sc2ccccc21 (cis-trans isomerization)
O=C1/C(=N/c2cccc(Cl)c2)Sc2ccccc21 (3D coordinates assigned)
O=C1/C(=N/c2cccc(Cl)c2)Sc2ccccc21 (nonaromatic ring conformer: 56.47193863431601 kcal/mol)

>  <smiles>  (46) 
O=C1C(=Nc2cccc(Cl)c2)Sc2ccccc21

>  <score_type>  (46) 
oracle

>  <origin>  (46) 
adg

>  <m_score__min__energy>  (46) 
-8.0399999999999991

>  <m_primary>  (46) 
energy

$$$$
46:0
     RDKit          3D

 46 49  0  0  0  0  0  0  0  0999 V2000
   54.8900   24.8770   45.6090 C   0  0  0  0  0  0  0  0  0  0  0  0
   55.2070   26.2020   45.9840 O   0  0  0  0  0  0  0  0  0  0  0  0
   56.4870   26.6980   46.0070 C   0  0  0  0  0  0  0  0  0  0  0  0
   57.5860   25.9660   46.3950 C   0  0  0  0  0  0  0  0  0  0  0  0
   58.8590   26.5160   46.4010 C   0  0  0  0  0  0  0  0  0  0  0  0
   59.0490   27.8480   46.0090 C   0  0  0  0  0  0  0  0  0  0  0  0
   60.3180   28.4190   46.0110 O   0  0  0  0  0  0  0  0  0  0  0  0
   61.1020   28.6160   44.8490 C   0  0  0  0  0  0  0  0  0  0  0  0
   57.9490   28.5970   45.6160 C   0  0  0  0  0  0  0  0  0  0  0  0
   58.0690   30.0060   45.2270 C   0  0  0  0  0  0  0  0  0  0  0  0
   57.3940   30.3400   44.0440 C   0  0  0  0  0  0  0  0  0  0  0  0
   57.4000   31.6360   43.5780 C   0  0  0  0  0  0  0  0  0  0  0  0
   58.0870   32.5620   44.3190 C   0  0  0  0  0  0  0  0  0  0  0  0
   58.2380   33.8890   44.0950 N   0  0  0  0  0  0  0  0  0  0  0  0
   58.9670   34.3860   45.0770 N   0  0  0  0  0  0  0  0  0  0  0  0
   59.3020   33.3970   45.9560 C   0  0  0  0  0  0  0  0  0  0  0  0
   60.0540   33.6690   47.1220 N   0  0  0  0  0  0  0  0  0  0  0  0
   59.6620   34.5310   48.2040 C   0  0  0  0  0  0  0  0  0  0  0  0
   59.9400   33.6850   49.4700 C   0  0  0  0  0  0  0  0  0  0  0  0
   61.2950   33.5980   49.5980 O   0  0  0  0  0  0  0  0  0  0  0  0
   62.0160   33.1410   48.5410 C   0  0  0  0  0  0  0  0  0  0  0  0
   61.3580   33.0330   47.2260 C   0  0  0  0  0  0  0  0  0  0  0  0
   58.7630   32.2480   45.5010 C   0  0  0  0  0  0  0  0  0  0  0  0
   58.7570   30.9270   45.9710 C   0  0  0  0  0  0  0  0  0  0  0  0
   56.6830   28.0170   45.6190 C   0  0  0  0  0  0  0  0  0  0  0  0
   54.7437   24.2655   46.5116 H   0  0  0  0  0  0  0  0  0  0  0  0
   53.9663   24.8760   45.0117 H   0  0  0  0  0  0  0  0  0  0  0  0
   55.7133   24.4580   45.0117 H   0  0  0  0  0  0  0  0  0  0  0  0
   57.4514   24.9200   46.7077 H   0  0  0  0  0  0  0  0  0  0  0  0
   59.7198   25.9066   46.7135 H   0  0  0  0  0  0  0  0  0  0  0  0
   62.1308   28.8745   45.1403 H   0  0  0  0  0  0  0  0  0  0  0  0
   61.1111   27.6922   44.2519 H   0  0  0  0  0  0  0  0  0  0  0  0
   60.6734   29.4344   44.2519 H   0  0  0  0  0  0  0  0  0  0  0  0
   56.8557   29.5611   43.4841 H   0  0  0  0  0  0  0  0  0  0  0  0
   56.8765   31.9156   42.6519 H   0  0  0  0  0  0  0  0  0  0  0  0
   59.2240   35.4090   45.1300 H   0  0  0  0  0  0  0  0  0  0  0  0
   60.2632   35.4522   48.2086 H   0  0  0  0  0  0  0  0  0  0  0  0
   58.6134   34.8551   48.1310 H   0  0  0  0  0  0  0  0  0  0  0  0
   59.5070   34.1745   50.3548 H   0  0  0  0  0  0  0  0  0  0  0  0
   59.4875   32.6861   49.3836 H   0  0  0  0  0  0  0  0  0  0  0  0
   62.8744   33.8178   48.4184 H   0  0  0  0  0  0  0  0  0  0  0  0
   62.2490   32.0997   48.8082 H   0  0  0  0  0  0  0  0  0  0  0  0
   62.0198   33.4933   46.4775 H   0  0  0  0  0  0  0  0  0  0  0  0
   61.1830   31.9591   47.0642 H   0  0  0  0  0  0  0  0  0  0  0  0
   59.2812   30.6433   46.8955 H   0  0  0  0  0  0  0  0  0  0  0  0
   55.8167   28.6185   45.3063 H   0  0  0  0  0  0  0  0  0  0  0  0
  1  2  1  0
  2  3  1  0
  3  4  2  0
  4  5  1  0
  5  6  2  0
  6  7  1  0
  7  8  1  0
  6  9  1  0
  9 10  1  0
 10 11  1  0
 11 12  2  0
 12 13  1  0
 13 14  2  0
 14 15  1  0
 15 16  1  0
 16 17  1  0
 17 18  1  0
 18 19  1  0
 19 20  1  0
 20 21  1  0
 21 22  1  0
 16 23  2  0
 23 24  1  0
  9 25  2  0
 25  3  1  0
 24 10  2  0
 23 13  1  0
 22 17  1  0
  1 26  1  0
  1 27  1  0
  1 28  1  0
  4 29  1  0
  5 30  1  0
  8 31  1  0
  8 32  1  0
  8 33  1  0
 11 34  1  0
 12 35  1  0
 15 36  1  0
 18 37  1  0
 18 38  1  0
 19 39  1  0
 19 40  1  0
 21 41  1  0
 21 42  1  0
 22 43  1  0
 22 44  1  0
 24 45  1  0
 25 46  1  0
M  END
>  <smiles>  (47) 
COc1ccc(OC)c(-c2ccc3n[nH]c(N4CCOCC4)c3c2)c1

>  <score_type>  (47) 
oracle

>  <origin>  (47) 
adg

>  <m_score__min__energy>  (47) 
-7.5899999999999999

>  <m_primary>  (47) 
energy

$$$$
47:0
     RDKit          3D

 46 49  0  0  0  0  0  0  0  0999 V2000
   59.0770   35.3270   44.8720 O   0  0  0  0  0  0  0  0  0  0  0  0
   59.2690   34.7470   45.9730 C   0  0  0  0  0  0  0  0  0  0  0  0
   60.3450   34.9420   46.7170 O   0  0  0  0  0  0  0  0  0  0  0  0
   60.1640   34.1990   47.7810 C   0  0  0  0  0  0  0  0  0  0  0  0
   60.9810   34.0850   48.8570 N   0  0  0  0  0  0  0  0  0  0  0  0
   60.5940   33.2800   49.8940 C   0  0  0  0  0  0  0  0  0  0  0  0
   59.3670   32.5770   49.8410 C   0  0  0  0  0  0  0  0  0  0  0  0
   58.5360   32.7020   48.7130 C   0  0  0  0  0  0  0  0  0  0  0  0
   58.9760   33.5370   47.6880 C   0  0  0  0  0  0  0  0  0  0  0  0
   58.3860   33.8720   46.5260 N   0  0  0  0  0  0  0  0  0  0  0  0
   57.0370   33.5430   46.0580 C   0  0  0  0  0  0  0  0  0  0  0  0
   57.1040   32.7570   44.7450 C   0  0  0  0  0  0  0  0  0  0  0  0
   57.2040   31.3090   45.0250 N   0  0  0  0  0  0  0  0  0  0  0  0
   56.7830   30.5000   43.8610 C   0  0  0  0  0  0  0  0  0  0  0  0
   57.0300   28.9890   44.0800 C   0  0  0  0  0  0  0  0  0  0  0  0
   57.3390   28.6770   45.5560 C   0  0  0  0  0  0  0  0  0  0  0  0
   57.5280   27.1920   45.8000 C   0  0  0  0  0  0  0  0  0  0  0  0
   56.4270   26.3440   46.0240 C   0  0  0  0  0  0  0  0  0  0  0  0
   56.6190   24.9760   46.2400 C   0  0  0  0  0  0  0  0  0  0  0  0
   57.9090   24.4400   46.2290 C   0  0  0  0  0  0  0  0  0  0  0  0
   58.0940   23.1120   46.4370 F   0  0  0  0  0  0  0  0  0  0  0  0
   59.0090   25.2700   46.0010 C   0  0  0  0  0  0  0  0  0  0  0  0
   58.8220   26.6380   45.7860 C   0  0  0  0  0  0  0  0  0  0  0  0
   58.5600   29.4940   46.0370 C   0  0  0  0  0  0  0  0  0  0  0  0
   58.5610   30.9260   45.4640 C   0  0  0  0  0  0  0  0  0  0  0  0
   61.8820   34.6100   48.8980 H   0  0  0  0  0  0  0  0  0  0  0  0
   61.2426   33.1785   50.7766 H   0  0  0  0  0  0  0  0  0  0  0  0
   59.0636   31.9340   50.6804 H   0  0  0  0  0  0  0  0  0  0  0  0
   57.5794   32.1634   48.6431 H   0  0  0  0  0  0  0  0  0  0  0  0
   56.5277   32.9340   46.8194 H   0  0  0  0  0  0  0  0  0  0  0  0
   56.4812   34.4767   45.8869 H   0  0  0  0  0  0  0  0  0  0  0  0
   56.1949   32.9521   44.1573 H   0  0  0  0  0  0  0  0  0  0  0  0
   57.9912   33.0766   44.1787 H   0  0  0  0  0  0  0  0  0  0  0  0
   55.7090   30.6619   43.6869 H   0  0  0  0  0  0  0  0  0  0  0  0
   57.3813   30.8180   42.9944 H   0  0  0  0  0  0  0  0  0  0  0  0
   56.1310   28.4321   43.7773 H   0  0  0  0  0  0  0  0  0  0  0  0
   57.8980   28.6893   43.4743 H   0  0  0  0  0  0  0  0  0  0  0  0
   56.4653   28.9805   46.1514 H   0  0  0  0  0  0  0  0  0  0  0  0
   55.4088   26.7603   46.0291 H   0  0  0  0  0  0  0  0  0  0  0  0
   55.7534   24.3212   46.4188 H   0  0  0  0  0  0  0  0  0  0  0  0
   60.0240   24.8462   45.9907 H   0  0  0  0  0  0  0  0  0  0  0  0
   59.6919   27.2864   45.6046 H   0  0  0  0  0  0  0  0  0  0  0  0
   58.5383   29.5513   47.1353 H   0  0  0  0  0  0  0  0  0  0  0  0
   59.4689   28.9861   45.6822 H   0  0  0  0  0  0  0  0  0  0  0  0
   58.9012   31.6264   46.2410 H   0  0  0  0  0  0  0  0  0  0  0  0
   59.2382   30.9619   44.5979 H   0  0  0  0  0  0  0  0  0  0  0  0
  1  2  2  0
  2  3  1  0
  3  4  1  0
  4  5  2  0
  5  6  1  0
  6  7  2  0
  7  8  1  0
  8  9  2  0
  9 10  1  0
 10 11  1  0
 11 12  1  0
 12 13  1  0
 13 14  1  0
 14 15  1  0
 15 16  1  0
 16 17  1  0
 17 18  2  0
 18 19  1  0
 19 20  2  0
 20 21  1  0
 20 22  1  0
 22 23  2  0
 16 24  1  0
 24 25  1  0
 10  2  1  0
 25 13  1  0
  9  4  1  0
 23 17  1  0
  5 26  1  0
  6 27  1  0
  7 28  1  0
  8 29  1  0
 11 30  1  0
 11 31  1  0
 12 32  1  0
 12 33  1  0
 14 34  1  0
 14 35  1  0
 15 36  1  0
 15 37  1  0
 16 38  1  0
 18 39  1  0
 19 40  1  0
 22 41  1  0
 23 42  1  0
 24 43  1  0
 24 44  1  0
 25 45  1  0
 25 46  1  0
M  CHG  1   5   1
M  END
>  <UniqueID>  (48) 
41

>  <SMILES>  (48) 
O=c1oc2[nH+]cccc2n1CCN1CCC(c2ccc(F)cc2)CC1

>  <Energy>  (48) 
94.57806254663467

>  <Genealogy>  (48) 
O=c1oc2[nH+]cccc2n1CCN1CCC(c2ccc(F)cc2)CC1 (protonated)
O=c1oc2[nH+]cccc2n1CCN1CCC(c2ccc(F)cc2)CC1 (3D coordinates assigned)
O=c1oc2[nH+]cccc2n1CCN1CCC(c2ccc(F)cc2)CC1 (nonaromatic ring conformer: 94.57806254663467 kcal/mol)

>  <smiles>  (48) 
O=c1oc2ncccc2n1CCN1CCC(c2ccc(F)cc2)CC1

>  <score_type>  (48) 
oracle

>  <origin>  (48) 
adg

>  <m_score__min__energy>  (48) 
-7.0599999999999996

>  <m_primary>  (48) 
energy

$$$$
48:0
     RDKit          3D

 52 54  0  0  0  0  0  0  0  0999 V2000
   61.1800   26.7590   47.3820 H   0  0  0  0  0  0  0  0  0  0  0  0
   61.0760   27.0340   46.4140 O   0  0  0  0  0  0  0  0  0  0  0  0
   59.9730   27.7550   45.9550 C   0  0  0  0  0  0  0  0  0  0  0  0
   59.9470   28.1610   44.6190 C   0  0  0  0  0  0  0  0  0  0  0  0
   60.7848   27.9052   43.9536 H   0  0  0  0  0  0  0  0  0  0  0  0
   58.8650   28.8890   44.1230 C   0  0  0  0  0  0  0  0  0  0  0  0
   58.8489   29.1947   43.0665 H   0  0  0  0  0  0  0  0  0  0  0  0
   57.8000   29.2320   44.9640 C   0  0  0  0  0  0  0  0  0  0  0  0
   56.4500   30.1810   44.3480 S   0  0  0  0  0  0  0  0  0  0  0  0
   56.4120   30.1140   42.8420 O   0  0  0  0  0  0  0  0  0  0  0  0
   55.1690   29.5900   44.8830 O   0  0  0  0  0  0  0  0  0  0  0  0
   56.5490   31.8450   44.8340 N   0  0  0  0  0  0  0  0  0  0  0  0
   57.6930   32.4160   45.4780 C   0  0  0  0  0  0  0  0  0  0  0  0
   58.1180   31.9690   46.7430 C   0  0  0  0  0  0  0  0  0  0  0  0
   57.5626   31.1702   47.2563 H   0  0  0  0  0  0  0  0  0  0  0  0
   59.2420   32.5350   47.3500 C   0  0  0  0  0  0  0  0  0  0  0  0
   59.5689   32.1801   48.3385 H   0  0  0  0  0  0  0  0  0  0  0  0
   59.9590   33.5610   46.6980 C   0  0  0  0  0  0  0  0  0  0  0  0
   61.1140   34.1360   47.2530 O   0  0  0  0  0  0  0  0  0  0  0  0
   62.4180   33.5540   47.1820 C   0  0  0  0  0  0  0  0  0  0  0  0
   62.7994   33.3838   48.1996 H   0  0  0  0  0  0  0  0  0  0  0  0
   62.3628   32.5951   46.6459 H   0  0  0  0  0  0  0  0  0  0  0  0
   63.0950   34.2354   46.6459 H   0  0  0  0  0  0  0  0  0  0  0  0
   59.5120   34.0250   45.4480 C   0  0  0  0  0  0  0  0  0  0  0  0
   60.0580   34.8318   44.9371 H   0  0  0  0  0  0  0  0  0  0  0  0
   58.3760   33.4660   44.8500 C   0  0  0  0  0  0  0  0  0  0  0  0
   58.0186   33.8524   43.8841 H   0  0  0  0  0  0  0  0  0  0  0  0
   57.8200   28.8310   46.3040 C   0  0  0  0  0  0  0  0  0  0  0  0
   56.9909   29.1115   46.9702 H   0  0  0  0  0  0  0  0  0  0  0  0
   58.8950   28.0700   46.8070 C   0  0  0  0  0  0  0  0  0  0  0  0
   58.9440   27.6470   48.1790 N   0  0  0  0  0  0  0  0  0  0  0  0
   60.0130   27.8560   49.1130 C   0  0  0  0  0  0  0  0  0  0  0  0
   60.9180   26.9900   49.2570 O   0  0  0  0  0  0  0  0  0  0  0  0
   60.1080   29.1130   49.8740 C   0  0  0  0  0  0  0  0  0  0  0  0
   60.8183   29.8834   49.5393 H   0  0  0  0  0  0  0  0  0  0  0  0
   59.3590   29.3520   50.9610 C   0  0  0  0  0  0  0  0  0  0  0  0
   59.0919   28.5027   51.6071 H   0  0  0  0  0  0  0  0  0  0  0  0
   58.8710   30.7050   51.3380 C   0  0  0  0  0  0  0  0  0  0  0  0
   59.7060   31.8380   51.2530 C   0  0  0  0  0  0  0  0  0  0  0  0
   60.7466   31.7228   50.9154 H   0  0  0  0  0  0  0  0  0  0  0  0
   59.2260   33.1060   51.5930 C   0  0  0  0  0  0  0  0  0  0  0  0
   59.8915   33.9799   51.5342 H   0  0  0  0  0  0  0  0  0  0  0  0
   57.9060   33.2630   52.0060 C   0  0  0  0  0  0  0  0  0  0  0  0
   57.5288   34.2618   52.2707 H   0  0  0  0  0  0  0  0  0  0  0  0
   57.0590   32.1540   52.0850 C   0  0  0  0  0  0  0  0  0  0  0  0
   56.0151   32.2866   52.4055 H   0  0  0  0  0  0  0  0  0  0  0  0
   57.5320   30.8660   51.7570 C   0  0  0  0  0  0  0  0  0  0  0  0
   56.7040   29.7330   51.8510 O   0  0  0  0  0  0  0  0  0  0  0  0
   55.6180   29.5960   52.7600 C   0  0  0  0  0  0  0  0  0  0  0  0
   55.9955   29.6436   53.7921 H   0  0  0  0  0  0  0  0  0  0  0  0
   54.8970   30.4103   52.5953 H   0  0  0  0  0  0  0  0  0  0  0  0
   55.1219   28.6282   52.5953 H   0  0  0  0  0  0  0  0  0  0  0  0
  1  2  1  0
  2  3  1  0
  3  4  2  0
  4  5  1  0
  4  6  1  0
  6  7  1  0
  6  8  2  0
  8  9  1  0
  9 10  2  0
  9 11  2  0
  9 12  1  0
 12 13  1  0
 13 14  2  0
 14 15  1  0
 14 16  1  0
 16 17  1  0
 16 18  2  0
 18 19  1  0
 19 20  1  0
 20 21  1  0
 20 22  1  0
 20 23  1  0
 18 24  1  0
 24 25  1  0
 24 26  2  0
 26 27  1  0
  8 28  1  0
 28 29  1  0
 28 30  2  0
 30 31  1  0
 31 32  1  0
 32 33  2  0
 32 34  1  0
 34 35  1  0
 34 36  2  0
 36 37  1  0
 36 38  1  0
 38 39  2  0
 39 40  1  0
 39 41  1  0
 41 42  1  0
 41 43  2  0
 43 44  1  0
 43 45  1  0
 45 46  1  0
 45 47  2  0
 47 48  1  0
 48 49  1  0
 49 50  1  0
 49 51  1  0
 49 52  1  0
 30  3  1  0
 47 38  1  0
 26 13  1  0
M  CHG  2  12  -1  31  -1
M  END
>  <UniqueID>  (49) 
42

>  <SMILES>  (49) 
COc1ccc([N-]S(=O)(=O)c2ccc(O)c([N-]C(=O)/C=C/c3ccccc3OC)c2)cc1

>  <Energy>  (49) 
67.46456323563902

>  <Genealogy>  (49) 
COc1ccc([N-]S(=O)(=O)c2ccc(O)c([N-]C(=O)C=Cc3ccccc3OC)c2)cc1 (protonated)
COc1ccc([N-]S(=O)(=O)c2ccc(O)c([N-]C(=O)/C=C/c3ccccc3OC)c2)cc1 (cis-trans isomerization)
COc1ccc([N-]S(=O)(=O)c2ccc(O)c([N-]C(=O)/C=C/c3ccccc3OC)c2)cc1 (3D coordinates assigned)
COc1ccc([N-]S(=O)(=O)c2ccc(O)c([N-]C(=O)/C=C/c3ccccc3OC)c2)cc1 (optimized conformer: 67.46456323563902 kcal/mol)

>  <smiles>  (49) 
COc1ccc(NS(=O)(=O)c2ccc(O)c(NC(=O)C=Cc3ccccc3OC)c2)cc1

>  <score_type>  (49) 
oracle

>  <origin>  (49) 
adg

>  <m_score__min__energy>  (49) 
-11.970000000000001

>  <m_primary>  (49) 
energy

$$$$
49:0
     RDKit          3D

 48 50  0  0  1  0  0  0  0  0999 V2000
   57.3670   33.5650   46.0320 C   0  0  0  0  0  0  0  0  0  0  0  0
   57.3650   32.2870   45.5200 O   0  0  0  0  0  0  0  0  0  0  0  0
   57.5460   32.2130   44.1450 C   0  0  0  0  0  0  0  0  0  0  0  0
   56.7880   31.0820   43.5100 C   0  0  0  0  0  0  0  0  0  0  0  0
   56.1170   30.2550   44.4940 N   0  0  0  0  0  0  0  0  0  0  0  0
   56.7310   29.2970   45.1040 C   0  0  0  0  0  0  0  0  0  0  0  0
   57.9840   29.5630   45.5210 N   0  0  0  0  0  0  0  0  0  0  0  0
   58.6200   28.5610   46.1580 C   0  0  0  0  0  0  0  0  0  0  0  0
   59.7920   28.7130   46.5850 N   0  0  0  0  0  0  0  0  0  0  0  0
   60.4240   29.7930   47.2400 C   0  0  0  0  0  0  0  0  0  0  0  0
   59.6380   30.3340   48.3900 C   0  0  0  0  0  0  0  0  0  0  0  0
   59.2280   31.6560   48.4590 C   0  0  0  0  0  0  0  0  0  0  0  0
   58.5020   32.1720   49.5080 C   0  0  0  0  0  0  0  0  0  0  0  0
   58.1420   31.3700   50.5650 C   0  0  0  0  0  0  0  0  0  0  0  0
   57.3940   31.9450   51.6260 N   0  0  0  0  0  0  0  0  0  0  0  0
   56.1760   31.2970   52.0360 C   0  0  0  0  0  0  0  0  0  0  0  0
   57.8080   33.1520   52.3070 C   0  0  0  0  0  0  0  0  0  0  0  0
   58.5310   30.0490   50.5340 C   0  0  0  0  0  0  0  0  0  0  0  0
   59.2660   29.5420   49.4660 C   0  0  0  0  0  0  0  0  0  0  0  0
   58.0040   27.3540   46.3540 C   0  0  0  0  0  0  0  0  0  0  0  0
   58.5670   25.8360   47.1520 S   0  0  0  0  0  0  0  0  0  0  0  0
   56.9970   24.9560   46.8320 C   0  0  0  0  0  0  0  0  0  0  0  0
   56.2320   25.8530   46.1820 C   0  0  0  0  0  0  0  0  0  0  0  0
   56.7040   27.0710   45.9230 C   0  0  0  0  0  0  0  0  0  0  0  0
   56.1060   28.1270   45.2830 N   0  0  0  0  0  0  0  0  0  0  0  0
   57.3669   33.5197   47.1311 H   0  0  0  0  0  0  0  0  0  0  0  0
   58.2660   34.0968   45.6870 H   0  0  0  0  0  0  0  0  0  0  0  0
   56.4697   34.0996   45.6870 H   0  0  0  0  0  0  0  0  0  0  0  0
   57.2060   33.1578   43.6959 H   0  0  0  0  0  0  0  0  0  0  0  0
   58.6160   32.0324   43.9646 H   0  0  0  0  0  0  0  0  0  0  0  0
   56.0354   31.4997   42.8251 H   0  0  0  0  0  0  0  0  0  0  0  0
   57.5100   30.4501   42.9720 H   0  0  0  0  0  0  0  0  0  0  0  0
   58.4740   30.4600   45.3900 H   0  0  0  0  0  0  0  0  0  0  0  0
   61.3994   29.4500   47.6154 H   0  0  0  0  0  0  0  0  0  0  0  0
   60.5226   30.6050   46.5045 H   0  0  0  0  0  0  0  0  0  0  0  0
   59.4972   32.3286   47.6313 H   0  0  0  0  0  0  0  0  0  0  0  0
   58.2081   33.2320   49.5007 H   0  0  0  0  0  0  0  0  0  0  0  0
   56.1265   31.2707   53.1346 H   0  0  0  0  0  0  0  0  0  0  0  0
   55.3135   31.8555   51.6434 H   0  0  0  0  0  0  0  0  0  0  0  0
   56.1571   30.2696   51.6434 H   0  0  0  0  0  0  0  0  0  0  0  0
   57.7545   32.9961   53.3946 H   0  0  0  0  0  0  0  0  0  0  0  0
   58.8417   33.3975   52.0222 H   0  0  0  0  0  0  0  0  0  0  0  0
   57.1426   33.9803   52.0222 H   0  0  0  0  0  0  0  0  0  0  0  0
   58.2565   29.3842   51.3663 H   0  0  0  0  0  0  0  0  0  0  0  0
   59.5604   28.4822   49.4758 H   0  0  0  0  0  0  0  0  0  0  0  0
   56.7357   23.9240   47.1088 H   0  0  0  0  0  0  0  0  0  0  0  0
   55.2151   25.5793   45.8642 H   0  0  0  0  0  0  0  0  0  0  0  0
   55.1330   28.0580   44.9070 H   0  0  0  0  0  0  0  0  0  0  0  0
  1  2  1  0
  2  3  1  0
  3  4  1  0
  4  5  1  0
  5  6  2  0
  6  7  1  0
  7  8  1  0
  8  9  2  0
  9 10  1  0
 10 11  1  0
 11 12  2  0
 12 13  1  0
 13 14  2  0
 14 15  1  0
 15 16  1  0
 15 17  1  0
 14 18  1  0
 18 19  2  0
  8 20  1  0
 20 21  1  0
 21 22  1  0
 22 23  2  0
 23 24  1  0
 24 25  1  0
 25  6  1  0
 19 11  1  0
 24 20  2  0
  1 26  1  0
  1 27  1  0
  1 28  1  0
  3 29  1  0
  3 30  1  0
  4 31  1  0
  4 32  1  0
  7 33  1  0
 10 34  1  0
 10 35  1  0
 12 36  1  0
 13 37  1  0
 16 38  1  0
 16 39  1  0
 16 40  1  0
 17 41  1  0
 17 42  1  0
 17 43  1  0
 18 44  1  0
 19 45  1  0
 22 46  1  0
 23 47  1  0
 25 48  1  0
M  END
>  <smiles>  (50) 
COCCN=c1[nH]c(=NCc2ccc(N(C)C)cc2)c2sccc2[nH]1

>  <score_type>  (50) 
oracle

>  <origin>  (50) 
adg

>  <m_score__min__energy>  (50) 
-7.3700000000000001

>  <m_primary>  (50) 
energy

$$$$
50:0
     RDKit          3D

 43 45  0  0  0  0  0  0  0  0999 V2000
   59.9050   31.0160   48.1170 O   0  0  0  0  0  0  0  0  0  0  0  0
   60.9990   30.9480   47.4930 C   0  0  0  0  0  0  0  0  0  0  0  0
   61.1280   30.0520   46.3720 N   0  0  0  0  0  0  0  0  0  0  0  0
   60.0300   29.3060   45.8180 C   0  0  0  0  0  0  0  0  0  0  0  0
   60.1600   27.9220   45.6320 C   0  0  0  0  0  0  0  0  0  0  0  0
   59.1130   27.1820   45.0770 C   0  0  0  0  0  0  0  0  0  0  0  0
   57.9350   27.8200   44.6820 C   0  0  0  0  0  0  0  0  0  0  0  0
   57.8030   29.2070   44.8310 C   0  0  0  0  0  0  0  0  0  0  0  0
   56.3360   30.0290   44.3050 S   0  0  0  0  0  0  0  0  0  0  0  0
   55.1440   29.3170   44.8810 O   0  0  0  0  0  0  0  0  0  0  0  0
   56.2390   30.0120   42.8040 O   0  0  0  0  0  0  0  0  0  0  0  0
   56.3420   31.6750   44.8630 N   0  0  0  0  0  0  0  0  0  0  0  0
   57.4270   32.4140   44.2230 C   0  0  0  0  0  0  0  0  0  0  0  0
   58.1220   33.2580   45.2520 C   0  0  0  0  0  0  0  0  0  0  0  0
   59.0110   34.2730   44.8550 C   0  0  0  0  0  0  0  0  0  0  0  0
   59.6790   35.0390   45.8170 C   0  0  0  0  0  0  0  0  0  0  0  0
   59.4770   34.7880   47.1780 C   0  0  0  0  0  0  0  0  0  0  0  0
   58.6090   33.7690   47.5790 C   0  0  0  0  0  0  0  0  0  0  0  0
   57.9370   33.0020   46.6210 C   0  0  0  0  0  0  0  0  0  0  0  0
   58.8500   29.9470   45.3980 C   0  0  0  0  0  0  0  0  0  0  0  0
   62.1320   31.7950   47.9430 C   0  0  0  0  0  0  0  0  0  0  0  0
   62.7430   31.6050   49.1990 C   0  0  0  0  0  0  0  0  0  0  0  0
   63.8060   32.4220   49.6000 C   0  0  0  0  0  0  0  0  0  0  0  0
   64.2670   33.4390   48.7590 C   0  0  0  0  0  0  0  0  0  0  0  0
   63.6620   33.6460   47.5180 C   0  0  0  0  0  0  0  0  0  0  0  0
   62.5980   32.8330   47.1130 C   0  0  0  0  0  0  0  0  0  0  0  0
   62.0700   29.8760   45.9590 H   0  0  0  0  0  0  0  0  0  0  0  0
   61.0919   27.4161   45.9248 H   0  0  0  0  0  0  0  0  0  0  0  0
   59.2167   26.0942   44.9508 H   0  0  0  0  0  0  0  0  0  0  0  0
   57.1096   27.2327   44.2533 H   0  0  0  0  0  0  0  0  0  0  0  0
   58.1443   31.7063   43.7818 H   0  0  0  0  0  0  0  0  0  0  0  0
   57.0188   33.0582   43.4303 H   0  0  0  0  0  0  0  0  0  0  0  0
   59.1817   34.4652   43.7855 H   0  0  0  0  0  0  0  0  0  0  0  0
   60.3641   35.8399   45.5022 H   0  0  0  0  0  0  0  0  0  0  0  0
   60.0013   35.3927   47.9326 H   0  0  0  0  0  0  0  0  0  0  0  0
   58.4538   33.5695   48.6496 H   0  0  0  0  0  0  0  0  0  0  0  0
   57.2611   32.1953   46.9410 H   0  0  0  0  0  0  0  0  0  0  0  0
   58.7483   31.0360   45.5153 H   0  0  0  0  0  0  0  0  0  0  0  0
   62.3821   30.8098   49.8679 H   0  0  0  0  0  0  0  0  0  0  0  0
   64.2802   32.2635   50.5798 H   0  0  0  0  0  0  0  0  0  0  0  0
   65.1063   34.0760   49.0750 H   0  0  0  0  0  0  0  0  0  0  0  0
   64.0222   34.4490   46.8581 H   0  0  0  0  0  0  0  0  0  0  0  0
   62.1209   33.0061   46.1371 H   0  0  0  0  0  0  0  0  0  0  0  0
  1  2  2  0
  2  3  1  0
  3  4  1  0
  4  5  2  0
  5  6  1  0
  6  7  2  0
  7  8  1  0
  8  9  1  0
  9 10  2  0
  9 11  2  0
  9 12  1  0
 12 13  1  0
 13 14  1  0
 14 15  2  0
 15 16  1  0
 16 17  2  0
 17 18  1  0
 18 19  2  0
  8 20  2  0
  2 21  1  0
 21 22  2  0
 22 23  1  0
 23 24  2  0
 24 25  1  0
 25 26  2  0
 20  4  1  0
 26 21  1  0
 19 14  1  0
  3 27  1  0
  5 28  1  0
  6 29  1  0
  7 30  1  0
 13 31  1  0
 13 32  1  0
 15 33  1  0
 16 34  1  0
 17 35  1  0
 18 36  1  0
 19 37  1  0
 20 38  1  0
 22 39  1  0
 23 40  1  0
 24 41  1  0
 25 42  1  0
 26 43  1  0
M  CHG  1  12  -1
M  END
>  <UniqueID>  (51) 
43

>  <SMILES>  (51) 
O=C(Nc1cccc(S(=O)(=O)[N-]Cc2ccccc2)c1)c1ccccc1

>  <Energy>  (51) 
49.94482536956067

>  <Genealogy>  (51) 
O=C(Nc1cccc(S(=O)(=O)[N-]Cc2ccccc2)c1)c1ccccc1 (protonated)
O=C(Nc1cccc(S(=O)(=O)[N-]Cc2ccccc2)c1)c1ccccc1 (3D coordinates assigned)
O=C(Nc1cccc(S(=O)(=O)[N-]Cc2ccccc2)c1)c1ccccc1 (optimized conformer: 49.94482536956067 kcal/mol)

>  <smiles>  (51) 
O=C(Nc1cccc(S(=O)(=O)NCc2ccccc2)c1)c1ccccc1

>  <score_type>  (51) 
oracle

>  <origin>  (51) 
adg

>  <m_score__min__energy>  (51) 
-10.960000000000001

>  <m_primary>  (51) 
energy

$$$$
51:0
     RDKit          3D

 20 21  0  0  0  0  0  0  0  0999 V2000
   61.2840   34.5500   48.3200 F   0  0  0  0  0  0  0  0  0  0  0  0
   60.0000   34.0800   48.5260 C   0  0  0  0  0  0  0  0  0  0  0  0
   60.0580   32.8460   49.1460 F   0  0  0  0  0  0  0  0  0  0  0  0
   59.3170   34.9650   49.3390 F   0  0  0  0  0  0  0  0  0  0  0  0
   59.3000   33.9470   47.2140 C   0  0  0  0  0  0  0  0  0  0  0  0
   58.9400   32.7760   46.6600 N   0  0  0  0  0  0  0  0  0  0  0  0
   58.3550   33.1620   45.5070 C   0  0  0  0  0  0  0  0  0  0  0  0
   57.7710   32.2550   44.4990 C   0  0  0  0  0  0  0  0  0  0  0  0
   57.9680   32.4510   43.1200 C   0  0  0  0  0  0  0  0  0  0  0  0
   57.3930   31.5610   42.2110 C   0  0  0  0  0  0  0  0  0  0  0  0
   56.6300   30.4890   42.6740 C   0  0  0  0  0  0  0  0  0  0  0  0
   56.4520   30.3230   44.0480 C   0  0  0  0  0  0  0  0  0  0  0  0
   57.0200   31.1990   44.9190 N   0  0  0  0  0  0  0  0  0  0  0  0
   58.3630   34.5050   45.3750 N   0  0  0  0  0  0  0  0  0  0  0  0
   58.9530   34.9510   46.4450 O   0  0  0  0  0  0  0  0  0  0  0  0
   59.0880   31.8180   47.0450 H   0  0  0  0  0  0  0  0  0  0  0  0
   58.5702   33.2986   42.7608 H   0  0  0  0  0  0  0  0  0  0  0  0
   57.5415   31.7050   41.1306 H   0  0  0  0  0  0  0  0  0  0  0  0
   56.1740   29.7829   41.9644 H   0  0  0  0  0  0  0  0  0  0  0  0
   55.8516   29.4827   44.4268 H   0  0  0  0  0  0  0  0  0  0  0  0
  1  2  1  0
  2  3  1  0
  2  4  1  0
  2  5  1  0
  5  6  2  0
  6  7  1  0
  7  8  1  0
  8  9  2  0
  9 10  1  0
 10 11  2  0
 11 12  1  0
 12 13  2  0
  7 14  2  0
 14 15  1  0
 15  5  1  0
 13  8  1  0
  6 16  1  0
  9 17  1  0
 10 18  1  0
 11 19  1  0
 12 20  1  0
M  CHG  1   6   1
M  END
>  <UniqueID>  (52) 
44

>  <SMILES>  (52) 
FC(F)(F)c1[nH+]c(-c2ccccn2)no1

>  <Energy>  (52) 
55.29147648956701

>  <Genealogy>  (52) 
FC(F)(F)c1[nH+]c(-c2ccccn2)no1 (protonated)
FC(F)(F)c1[nH+]c(-c2ccccn2)no1 (3D coordinates assigned)
FC(F)(F)c1[nH+]c(-c2ccccn2)no1 (optimized conformer: 55.29147648956701 kcal/mol)

>  <smiles>  (52) 
FC(F)(F)c1nc(-c2ccccn2)no1

>  <score_type>  (52) 
oracle

>  <origin>  (52) 
adg

>  <m_score__min__energy>  (52) 
-3.6600000000000001

>  <m_primary>  (52) 
energy

$$$$
52:0
     RDKit          3D

 46 49  0  0  0  0  0  0  0  0999 V2000
   57.0107   35.3509   44.3292 H   0  0  0  0  0  0  0  0  0  0  0  0
   57.6200   34.6340   44.8990 C   0  0  0  0  0  0  0  0  0  0  0  0
   58.9630   34.9140   45.1640 C   0  0  0  0  0  0  0  0  0  0  0  0
   59.4098   35.8522   44.8031 H   0  0  0  0  0  0  0  0  0  0  0  0
   59.7400   34.0040   45.8870 C   0  0  0  0  0  0  0  0  0  0  0  0
   60.7968   34.2297   46.0928 H   0  0  0  0  0  0  0  0  0  0  0  0
   59.1780   32.8010   46.3530 C   0  0  0  0  0  0  0  0  0  0  0  0
   59.9970   31.8270   47.1200 C   0  0  0  0  0  0  0  0  0  0  0  0
   61.1430   32.2470   47.8080 C   0  0  0  0  0  0  0  0  0  0  0  0
   61.4475   33.3039   47.7900 H   0  0  0  0  0  0  0  0  0  0  0  0
   61.8960   31.3040   48.5190 C   0  0  0  0  0  0  0  0  0  0  0  0
   63.1260   31.6820   49.2590 C   0  0  0  0  0  0  0  0  0  0  0  0
   63.9690   32.6890   48.7510 C   0  0  0  0  0  0  0  0  0  0  0  0
   63.7134   33.1880   47.8046 H   0  0  0  0  0  0  0  0  0  0  0  0
   65.1280   33.0600   49.4390 C   0  0  0  0  0  0  0  0  0  0  0  0
   65.7831   33.8424   49.0283 H   0  0  0  0  0  0  0  0  0  0  0  0
   65.4560   32.4400   50.6460 C   0  0  0  0  0  0  0  0  0  0  0  0
   66.5790   32.8030   51.3130 F   0  0  0  0  0  0  0  0  0  0  0  0
   64.6230   31.4480   51.1700 C   0  0  0  0  0  0  0  0  0  0  0  0
   64.8792   30.9629   52.1234 H   0  0  0  0  0  0  0  0  0  0  0  0
   63.4640   31.0710   50.4840 C   0  0  0  0  0  0  0  0  0  0  0  0
   62.8109   30.2916   50.9035 H   0  0  0  0  0  0  0  0  0  0  0  0
   61.4710   30.0130   48.5490 N   0  0  0  0  0  0  0  0  0  0  0  0
   60.3480   29.6080   47.9030 C   0  0  0  0  0  0  0  0  0  0  0  0
   60.0050   28.3520   47.9810 N   0  0  0  0  0  0  0  0  0  0  0  0
   59.0420   27.6610   47.1700 C   0  0  0  0  0  0  0  0  0  0  0  0
   59.1390   26.2720   47.0320 C   0  0  0  0  0  0  0  0  0  0  0  0
   59.9684   25.7310   47.5111 H   0  0  0  0  0  0  0  0  0  0  0  0
   58.1880   25.5690   46.2890 C   0  0  0  0  0  0  0  0  0  0  0  0
   58.2797   24.4793   46.1704 H   0  0  0  0  0  0  0  0  0  0  0  0
   57.1200   26.2480   45.6960 C   0  0  0  0  0  0  0  0  0  0  0  0
   56.3799   25.6907   45.1030 H   0  0  0  0  0  0  0  0  0  0  0  0
   56.9860   27.6340   45.8520 C   0  0  0  0  0  0  0  0  0  0  0  0
   55.8920   28.2690   45.2460 O   0  0  0  0  0  0  0  0  0  0  0  0
   55.9890   29.4340   44.4330 C   0  0  0  0  0  0  0  0  0  0  0  0
   56.0631   30.3241   45.0751 H   0  0  0  0  0  0  0  0  0  0  0  0
   56.8845   29.3644   43.7979 H   0  0  0  0  0  0  0  0  0  0  0  0
   55.0944   29.5135   43.7979 H   0  0  0  0  0  0  0  0  0  0  0  0
   57.9430   28.3360   46.6090 C   0  0  0  0  0  0  0  0  0  0  0  0
   57.8306   29.4194   46.7627 H   0  0  0  0  0  0  0  0  0  0  0  0
   59.6320   30.5120   47.1680 N   0  0  0  0  0  0  0  0  0  0  0  0
   58.8250   30.2010   46.5840 H   0  0  0  0  0  0  0  0  0  0  0  0
   57.8250   32.5290   46.0810 C   0  0  0  0  0  0  0  0  0  0  0  0
   57.3729   31.5922   46.4388 H   0  0  0  0  0  0  0  0  0  0  0  0
   57.0510   33.4430   45.3580 C   0  0  0  0  0  0  0  0  0  0  0  0
   55.9932   33.2239   45.1506 H   0  0  0  0  0  0  0  0  0  0  0  0
  1  2  1  0
  2  3  2  0
  3  4  1  0
  3  5  1  0
  5  6  1  0
  5  7  2  0
  7  8  1  0
  8  9  2  0
  9 10  1  0
  9 11  1  0
 11 12  1  0
 12 13  2  0
 13 14  1  0
 13 15  1  0
 15 16  1  0
 15 17  2  0
 17 18  1  0
 17 19  1  0
 19 20  1  0
 19 21  2  0
 21 22  1  0
 11 23  2  0
 23 24  1  0
 24 25  2  0
 25 26  1  0
 26 27  2  0
 27 28  1  0
 27 29  1  0
 29 30  1  0
 29 31  2  0
 31 32  1  0
 31 33  1  0
 33 34  1  0
 34 35  1  0
 35 36  1  0
 35 37  1  0
 35 38  1  0
 33 39  2  0
 39 40  1  0
 24 41  1  0
 41 42  1  0
  7 43  1  0
 43 44  1  0
 43 45  2  0
 45 46  1  0
 45  2  1  0
 41  8  1  0
 21 12  1  0
 39 26  1  0
M  END
>  <UniqueID>  (53) 
45

>  <SMILES>  (53) 
COc1cccc(/N=c2/nc(-c3ccc(F)cc3)cc(-c3ccccc3)[nH]2)c1

>  <Energy>  (53) 
67.60197040938367

>  <Genealogy>  (53) 
COc1cccc(/N=c2/nc(-c3ccc(F)cc3)cc(-c3ccccc3)[nH]2)c1 (cis-trans isomerization)
COc1cccc(/N=c2/nc(-c3ccc(F)cc3)cc(-c3ccccc3)[nH]2)c1 (3D coordinates assigned)
COc1cccc(/N=c2/nc(-c3ccc(F)cc3)cc(-c3ccccc3)[nH]2)c1 (optimized conformer: 67.60197040938367 kcal/mol)

>  <smiles>  (53) 
COc1cccc(N=c2nc(-c3ccc(F)cc3)cc(-c3ccccc3)[nH]2)c1

>  <score_type>  (53) 
oracle

>  <origin>  (53) 
adg

>  <m_score__min__energy>  (53) 
-7.8200000000000003

>  <m_primary>  (53) 
energy

$$$$
53:0
     RDKit          3D

 37 39  0  0  0  0  0  0  0  0999 V2000
   55.1360   25.2160   45.6230 C   0  0  0  0  0  0  0  0  0  0  0  0
   55.3670   26.5800   45.9620 O   0  0  0  0  0  0  0  0  0  0  0  0
   56.5860   27.2570   45.7980 C   0  0  0  0  0  0  0  0  0  0  0  0
   56.6240   28.5490   45.2390 C   0  0  0  0  0  0  0  0  0  0  0  0
   57.8380   29.2230   45.0620 C   0  0  0  0  0  0  0  0  0  0  0  0
   57.8640   30.5850   44.4840 C   0  0  0  0  0  0  0  0  0  0  0  0
   57.5970   30.8330   43.1320 C   0  0  0  0  0  0  0  0  0  0  0  0
   57.7510   32.4880   42.8170 S   0  0  0  0  0  0  0  0  0  0  0  0
   58.1440   32.8950   44.3950 C   0  0  0  0  0  0  0  0  0  0  0  0
   58.3900   34.1380   44.8800 N   0  0  0  0  0  0  0  0  0  0  0  0
   58.6630   34.3010   46.2070 C   0  0  0  0  0  0  0  0  0  0  0  0
   58.6770   33.1900   47.0710 C   0  0  0  0  0  0  0  0  0  0  0  0
   58.4180   31.9080   46.5650 C   0  0  0  0  0  0  0  0  0  0  0  0
   58.1620   31.7660   45.1950 C   0  0  0  0  0  0  0  0  0  0  0  0
   59.0270   28.6150   45.4750 C   0  0  0  0  0  0  0  0  0  0  0  0
   59.0150   27.3280   46.0380 C   0  0  0  0  0  0  0  0  0  0  0  0
   60.1960   26.6900   46.4520 O   0  0  0  0  0  0  0  0  0  0  0  0
   60.7040   26.7110   47.7830 C   0  0  0  0  0  0  0  0  0  0  0  0
   57.8000   26.6400   46.1990 C   0  0  0  0  0  0  0  0  0  0  0  0
   57.8730   25.3530   46.7650 O   0  0  0  0  0  0  0  0  0  0  0  0
   58.2720   24.1570   46.1050 C   0  0  0  0  0  0  0  0  0  0  0  0
   55.0353   24.6215   46.5430 H   0  0  0  0  0  0  0  0  0  0  0  0
   54.2116   25.1365   45.0321 H   0  0  0  0  0  0  0  0  0  0  0  0
   55.9827   24.8366   45.0321 H   0  0  0  0  0  0  0  0  0  0  0  0
   55.6852   29.0361   44.9368 H   0  0  0  0  0  0  0  0  0  0  0  0
   57.3282   30.0684   42.3883 H   0  0  0  0  0  0  0  0  0  0  0  0
   58.3680   34.9670   44.2440 H   0  0  0  0  0  0  0  0  0  0  0  0
   58.8731   35.3054   46.6033 H   0  0  0  0  0  0  0  0  0  0  0  0
   58.8907   33.3271   48.1413 H   0  0  0  0  0  0  0  0  0  0  0  0
   58.4159   31.0319   47.2302 H   0  0  0  0  0  0  0  0  0  0  0  0
   59.9813   29.1495   45.3580 H   0  0  0  0  0  0  0  0  0  0  0  0
   59.8667   26.6764   48.4956 H   0  0  0  0  0  0  0  0  0  0  0  0
   61.3558   25.8390   47.9405 H   0  0  0  0  0  0  0  0  0  0  0  0
   61.2816   27.6338   47.9405 H   0  0  0  0  0  0  0  0  0  0  0  0
   58.5270   23.3926   46.8538 H   0  0  0  0  0  0  0  0  0  0  0  0
   57.4467   23.7927   45.4755 H   0  0  0  0  0  0  0  0  0  0  0  0
   59.1507   24.3612   45.4755 H   0  0  0  0  0  0  0  0  0  0  0  0
  1  2  1  0
  2  3  1  0
  3  4  2  0
  4  5  1  0
  5  6  1  0
  6  7  2  0
  7  8  1  0
  8  9  1  0
  9 10  2  0
 10 11  1  0
 11 12  2  0
 12 13  1  0
 13 14  2  0
  5 15  2  0
 15 16  1  0
 16 17  1  0
 17 18  1  0
 16 19  2  0
 19 20  1  0
 20 21  1  0
 19  3  1  0
 14  6  1  0
 14  9  1  0
  1 22  1  0
  1 23  1  0
  1 24  1  0
  4 25  1  0
  7 26  1  0
 10 27  1  0
 11 28  1  0
 12 29  1  0
 13 30  1  0
 15 31  1  0
 18 32  1  0
 18 33  1  0
 18 34  1  0
 21 35  1  0
 21 36  1  0
 21 37  1  0
M  CHG  1  10   1
M  END
>  <UniqueID>  (54) 
46

>  <SMILES>  (54) 
COc1cc(-c2csc3[nH+]cccc23)cc(OC)c1OC

>  <Energy>  (54) 
78.11741994234826

>  <Genealogy>  (54) 
COc1cc(-c2csc3[nH+]cccc23)cc(OC)c1OC (protonated)
COc1cc(-c2csc3[nH+]cccc23)cc(OC)c1OC (3D coordinates assigned)
COc1cc(-c2csc3[nH+]cccc23)cc(OC)c1OC (optimized conformer: 78.11741994234826 kcal/mol)

>  <smiles>  (54) 
COc1cc(-c2csc3ncccc23)cc(OC)c1OC

>  <score_type>  (54) 
oracle

>  <origin>  (54) 
adg

>  <m_score__min__energy>  (54) 
-4.9299999999999997

>  <m_primary>  (54) 
energy

$$$$
54:0
     RDKit          3D

 41 43  0  0  0  0  0  0  0  0999 V2000
   59.0780   31.2030   48.6340 C   0  0  0  0  0  0  0  0  0  0  0  0
   58.7350   31.5350   47.2550 N   0  0  0  0  0  0  0  0  0  0  0  0
   58.0920   30.7330   46.3750 C   0  0  0  0  0  0  0  0  0  0  0  0
   57.8950   31.4030   45.1710 C   0  0  0  0  0  0  0  0  0  0  0  0
   57.1530   30.8860   43.9740 C   0  0  0  0  0  0  0  0  0  0  0  0
   56.7990   29.4020   44.1620 C   0  0  0  0  0  0  0  0  0  0  0  0
   57.2340   28.5740   43.0230 N   0  0  0  0  0  0  0  0  0  0  0  0
   58.0240   27.4070   43.4490 C   0  0  0  0  0  0  0  0  0  0  0  0
   58.8660   27.7520   44.6500 C   0  0  0  0  0  0  0  0  0  0  0  0
   59.9680   28.6150   44.5200 C   0  0  0  0  0  0  0  0  0  0  0  0
   60.7260   28.9620   45.6430 C   0  0  0  0  0  0  0  0  0  0  0  0
   60.3840   28.4600   46.9020 C   0  0  0  0  0  0  0  0  0  0  0  0
   59.2800   27.6130   47.0420 C   0  0  0  0  0  0  0  0  0  0  0  0
   58.9450   27.1360   48.2650 F   0  0  0  0  0  0  0  0  0  0  0  0
   58.5200   27.2640   45.9210 C   0  0  0  0  0  0  0  0  0  0  0  0
   58.4200   32.6690   45.3530 C   0  0  0  0  0  0  0  0  0  0  0  0
   58.4650   33.7750   44.5030 C   0  0  0  0  0  0  0  0  0  0  0  0
   59.0560   34.9530   44.9910 C   0  0  0  0  0  0  0  0  0  0  0  0
   59.5780   35.0040   46.3030 C   0  0  0  0  0  0  0  0  0  0  0  0
   59.5130   33.8750   47.1400 C   0  0  0  0  0  0  0  0  0  0  0  0
   58.9240   32.7150   46.6300 C   0  0  0  0  0  0  0  0  0  0  0  0
   58.4600   31.8012   49.3197 H   0  0  0  0  0  0  0  0  0  0  0  0
   58.8916   30.1334   48.8109 H   0  0  0  0  0  0  0  0  0  0  0  0
   60.1409   31.4241   48.8109 H   0  0  0  0  0  0  0  0  0  0  0  0
   57.7715   29.7012   46.5813 H   0  0  0  0  0  0  0  0  0  0  0  0
   56.2273   31.4656   43.8434 H   0  0  0  0  0  0  0  0  0  0  0  0
   57.7930   30.9901   43.0854 H   0  0  0  0  0  0  0  0  0  0  0  0
   57.2905   29.0341   45.0747 H   0  0  0  0  0  0  0  0  0  0  0  0
   55.7042   29.3242   44.2356 H   0  0  0  0  0  0  0  0  0  0  0  0
   56.3760   28.2330   42.5280 H   0  0  0  0  0  0  0  0  0  0  0  0
   57.7880   29.1540   42.3490 H   0  0  0  0  0  0  0  0  0  0  0  0
   57.3426   26.5834   43.7087 H   0  0  0  0  0  0  0  0  0  0  0  0
   58.6861   27.1044   42.6244 H   0  0  0  0  0  0  0  0  0  0  0  0
   60.2349   29.0186   43.5321 H   0  0  0  0  0  0  0  0  0  0  0  0
   61.5926   29.6309   45.5354 H   0  0  0  0  0  0  0  0  0  0  0  0
   60.9837   28.7314   47.7833 H   0  0  0  0  0  0  0  0  0  0  0  0
   57.6472   26.6043   46.0351 H   0  0  0  0  0  0  0  0  0  0  0  0
   58.0516   33.7263   43.4848 H   0  0  0  0  0  0  0  0  0  0  0  0
   59.1127   35.8425   44.3463 H   0  0  0  0  0  0  0  0  0  0  0  0
   60.0381   35.9324   46.6724 H   0  0  0  0  0  0  0  0  0  0  0  0
   59.9134   33.9045   48.1641 H   0  0  0  0  0  0  0  0  0  0  0  0
  1  2  1  0
  2  3  1  0
  3  4  2  0
  4  5  1  0
  5  6  1  0
  6  7  1  0
  7  8  1  0
  8  9  1  0
  9 10  2  0
 10 11  1  0
 11 12  2  0
 12 13  1  0
 13 14  1  0
 13 15  2  0
  4 16  1  0
 16 17  2  0
 17 18  1  0
 18 19  2  0
 19 20  1  0
 20 21  2  0
 21  2  1  0
 15  9  1  0
 21 16  1  0
  1 22  1  0
  1 23  1  0
  1 24  1  0
  3 25  1  0
  5 26  1  0
  5 27  1  0
  6 28  1  0
  6 29  1  0
  7 30  1  0
  7 31  1  0
  8 32  1  0
  8 33  1  0
 10 34  1  0
 11 35  1  0
 12 36  1  0
 15 37  1  0
 17 38  1  0
 18 39  1  0
 19 40  1  0
 20 41  1  0
M  CHG  1   7   1
M  END
>  <UniqueID>  (55) 
47

>  <SMILES>  (55) 
Cn1cc(CC[NH2+]Cc2cccc(F)c2)c2ccccc21

>  <Energy>  (55) 
73.18909927300766

>  <Genealogy>  (55) 
Cn1cc(CC[NH2+]Cc2cccc(F)c2)c2ccccc21 (protonated)
Cn1cc(CC[NH2+]Cc2cccc(F)c2)c2ccccc21 (3D coordinates assigned)
Cn1cc(CC[NH2+]Cc2cccc(F)c2)c2ccccc21 (optimized conformer: 73.18909927300766 kcal/mol)

>  <smiles>  (55) 
Cn1cc(CCNCc2cccc(F)c2)c2ccccc21

>  <score_type>  (55) 
oracle

>  <origin>  (55) 
adg

>  <m_score__min__energy>  (55) 
-5.7300000000000004

>  <m_primary>  (55) 
energy

$$$$
55:0
     RDKit          3D

 30 32  0  0  0  0  0  0  0  0999 V2000
   58.8970   22.5650   44.8740 C   0  0  0  0  0  0  0  0  0  0  0  0
   59.1990   23.5470   45.8610 O   0  0  0  0  0  0  0  0  0  0  0  0
   58.9850   24.9230   45.7010 C   0  0  0  0  0  0  0  0  0  0  0  0
   57.9500   25.4390   44.8980 C   0  0  0  0  0  0  0  0  0  0  0  0
   57.7770   26.8200   44.7690 C   0  0  0  0  0  0  0  0  0  0  0  0
   58.6330   27.7140   45.4380 C   0  0  0  0  0  0  0  0  0  0  0  0
   58.4490   29.1810   45.3010 C   0  0  0  0  0  0  0  0  0  0  0  0
   58.4640   30.1150   46.3350 C   0  0  0  0  0  0  0  0  0  0  0  0
   58.2630   31.3230   45.7850 N   0  0  0  0  0  0  0  0  0  0  0  0
   58.1920   32.5430   46.3730 C   0  0  0  0  0  0  0  0  0  0  0  0
   57.9720   33.6600   45.5540 C   0  0  0  0  0  0  0  0  0  0  0  0
   57.8320   33.4850   44.1640 C   0  0  0  0  0  0  0  0  0  0  0  0
   57.9130   32.2010   43.5980 C   0  0  0  0  0  0  0  0  0  0  0  0
   57.7390   31.9770   41.8650 Cl  0  0  0  0  0  0  0  0  0  0  0  0
   58.1310   31.1260   44.4630 C   0  0  0  0  0  0  0  0  0  0  0  0
   58.2390   29.8270   44.1260 N   0  0  0  0  0  0  0  0  0  0  0  0
   59.6630   27.1920   46.2400 C   0  0  0  0  0  0  0  0  0  0  0  0
   59.8360   25.8110   46.3670 C   0  0  0  0  0  0  0  0  0  0  0  0
   58.6081   21.6255   45.3679 H   0  0  0  0  0  0  0  0  0  0  0  0
   58.0664   22.9196   44.2460 H   0  0  0  0  0  0  0  0  0  0  0  0
   59.7833   22.3916   44.2460 H   0  0  0  0  0  0  0  0  0  0  0  0
   57.2736   24.7514   44.3691 H   0  0  0  0  0  0  0  0  0  0  0  0
   56.9646   27.2112   44.1390 H   0  0  0  0  0  0  0  0  0  0  0  0
   58.6129   29.9019   47.4038 H   0  0  0  0  0  0  0  0  0  0  0  0
   58.3038   32.6533   47.4617 H   0  0  0  0  0  0  0  0  0  0  0  0
   57.9093   34.6660   45.9946 H   0  0  0  0  0  0  0  0  0  0  0  0
   57.6583   34.3579   43.5175 H   0  0  0  0  0  0  0  0  0  0  0  0
   58.1930   29.4190   43.1660 H   0  0  0  0  0  0  0  0  0  0  0  0
   60.3391   27.8770   46.7726 H   0  0  0  0  0  0  0  0  0  0  0  0
   60.6486   25.4190   46.9963 H   0  0  0  0  0  0  0  0  0  0  0  0
  1  2  1  0
  2  3  1  0
  3  4  2  0
  4  5  1  0
  5  6  2  0
  6  7  1  0
  7  8  2  0
  8  9  1  0
  9 10  1  0
 10 11  2  0
 11 12  1  0
 12 13  2  0
 13 14  1  0
 13 15  1  0
 15 16  2  0
  6 17  1  0
 17 18  2  0
 18  3  1  0
 16  7  1  0
 15  9  1  0
  1 19  1  0
  1 20  1  0
  1 21  1  0
  4 22  1  0
  5 23  1  0
  8 24  1  0
 10 25  1  0
 11 26  1  0
 12 27  1  0
 16 28  1  0
 17 29  1  0
 18 30  1  0
M  CHG  1  16   1
M  END
>  <UniqueID>  (56) 
48

>  <SMILES>  (56) 
COc1ccc(-c2cn3cccc(Cl)c3[nH+]2)cc1

>  <Energy>  (56) 
70.38970495004887

>  <Genealogy>  (56) 
COc1ccc(-c2cn3cccc(Cl)c3[nH+]2)cc1 (protonated)
COc1ccc(-c2cn3cccc(Cl)c3[nH+]2)cc1 (3D coordinates assigned)
COc1ccc(-c2cn3cccc(Cl)c3[nH+]2)cc1 (optimized conformer: 70.38970495004887 kcal/mol)

>  <smiles>  (56) 
COc1ccc(-c2cn3cccc(Cl)c3n2)cc1

>  <score_type>  (56) 
oracle

>  <origin>  (56) 
adg

>  <m_score__min__energy>  (56) 
-4.7599999999999998

>  <m_primary>  (56) 
energy

$$$$
56:0
     RDKit          3D

 31 32  0  0  0  0  0  0  0  0999 V2000
   57.7500   32.8910   44.2100 C   0  0  0  0  0  0  0  0  0  0  0  0
   57.5180   31.6130   43.4130 C   0  0  0  0  0  0  0  0  0  0  0  0
   57.3370   30.4730   44.3190 N   0  0  0  0  0  0  0  0  0  0  0  0
   58.2060   30.0490   45.2640 C   0  0  0  0  0  0  0  0  0  0  0  0
   59.4380   30.5880   45.6270 C   0  0  0  0  0  0  0  0  0  0  0  0
   60.1510   29.9420   46.6590 C   0  0  0  0  0  0  0  0  0  0  0  0
   61.5000   30.4560   47.0640 C   0  0  0  0  0  0  0  0  0  0  0  0
   59.6420   28.8070   47.2480 N   0  0  0  0  0  0  0  0  0  0  0  0
   58.4290   28.2800   46.8840 C   0  0  0  0  0  0  0  0  0  0  0  0
   57.9000   27.0390   47.5410 C   0  0  0  0  0  0  0  0  0  0  0  0
   57.7160   28.9250   45.8730 C   0  0  0  0  0  0  0  0  0  0  0  0
   56.5120   28.6770   45.2470 C   0  0  0  0  0  0  0  0  0  0  0  0
   55.6390   27.6300   45.5240 O   0  0  0  0  0  0  0  0  0  0  0  0
   56.3100   29.6220   44.3000 N   0  0  0  0  0  0  0  0  0  0  0  0
   55.1410   29.7220   43.4250 C   0  0  0  0  0  0  0  0  0  0  0  0
   57.7089   32.6648   45.2857 H   0  0  0  0  0  0  0  0  0  0  0  0
   58.7380   33.3049   43.9598 H   0  0  0  0  0  0  0  0  0  0  0  0
   56.9706   33.6258   43.9598 H   0  0  0  0  0  0  0  0  0  0  0  0
   56.6168   31.7305   42.7932 H   0  0  0  0  0  0  0  0  0  0  0  0
   58.3935   31.4263   42.7738 H   0  0  0  0  0  0  0  0  0  0  0  0
   59.8395   31.4826   45.1284 H   0  0  0  0  0  0  0  0  0  0  0  0
   61.5681   30.4820   48.1616 H   0  0  0  0  0  0  0  0  0  0  0  0
   62.2806   29.7923   46.6638 H   0  0  0  0  0  0  0  0  0  0  0  0
   61.6410   31.4709   46.6638 H   0  0  0  0  0  0  0  0  0  0  0  0
   60.1980   28.3330   47.9940 H   0  0  0  0  0  0  0  0  0  0  0  0
   57.9488   27.1535   48.6339 H   0  0  0  0  0  0  0  0  0  0  0  0
   56.8555   26.8791   47.2353 H   0  0  0  0  0  0  0  0  0  0  0  0
   58.5079   26.1747   47.2353 H   0  0  0  0  0  0  0  0  0  0  0  0
   54.2304   29.7999   44.0372 H   0  0  0  0  0  0  0  0  0  0  0  0
   55.2336   30.6155   42.7901 H   0  0  0  0  0  0  0  0  0  0  0  0
   55.0805   28.8258   42.7901 H   0  0  0  0  0  0  0  0  0  0  0  0
  1  2  1  0
  2  3  1  0
  3  4  2  0
  4  5  1  0
  5  6  2  0
  6  7  1  0
  6  8  1  0
  8  9  2  0
  9 10  1  0
  9 11  1  0
 11 12  2  0
 12 13  1  0
 12 14  1  0
 14 15  1  0
 14  3  1  0
 11  4  1  0
  1 16  1  0
  1 17  1  0
  1 18  1  0
  2 19  1  0
  2 20  1  0
  5 21  1  0
  7 22  1  0
  7 23  1  0
  7 24  1  0
  8 25  1  0
 10 26  1  0
 10 27  1  0
 10 28  1  0
 15 29  1  0
 15 30  1  0
 15 31  1  0
M  CHG  3   3   1   8   1  13  -1
M  END
>  <UniqueID>  (57) 
49

>  <SMILES>  (57) 
CC[n+]1c2cc(C)[nH+]c(C)c2c([O-])n1C

>  <Energy>  (57) 
68.4744651949914

>  <Genealogy>  (57) 
CC[n+]1c2cc(C)[nH+]c(C)c2c([O-])n1C (protonated)
CC[n+]1c2cc(C)[nH+]c(C)c2c([O-])n1C (3D coordinates assigned)
CC[n+]1c2cc(C)[nH+]c(C)c2c([O-])n1C (optimized conformer: 68.4744651949914 kcal/mol)

>  <smiles>  (57) 
CC[n+]1c2cc(C)nc(C)c2c([O-])n1C

>  <score_type>  (57) 
oracle

>  <origin>  (57) 
adg

>  <m_score__min__energy>  (57) 
-5.3899999999999997

>  <m_primary>  (57) 
energy

$$$$
57:0
     RDKit          3D

 27 28  0  0  0  0  0  0  0  0999 V2000
   55.8980   24.4620   46.9660 O   0  0  0  0  0  0  0  0  0  0  0  0
   56.1510   25.4330   45.8470 S   0  0  0  0  0  0  0  0  0  0  0  0
   55.9180   24.7560   44.5270 O   0  0  0  0  0  0  0  0  0  0  0  0
   55.0780   26.7160   46.0020 O   0  0  0  0  0  0  0  0  0  0  0  0
   57.8170   26.0160   45.9270 C   0  0  0  0  0  0  0  0  0  0  0  0
   58.8250   25.1480   46.3750 C   0  0  0  0  0  0  0  0  0  0  0  0
   60.1540   25.5730   46.4290 C   0  0  0  0  0  0  0  0  0  0  0  0
   60.4900   26.8700   46.0420 C   0  0  0  0  0  0  0  0  0  0  0  0
   59.4970   27.7460   45.6010 C   0  0  0  0  0  0  0  0  0  0  0  0
   58.1560   27.3300   45.5290 C   0  0  0  0  0  0  0  0  0  0  0  0
   57.1380   28.2570   45.1120 N   0  0  0  0  0  0  0  0  0  0  0  0
   57.3170   29.6830   45.0770 C   0  0  0  0  0  0  0  0  0  0  0  0
   56.9870   30.3920   43.9110 C   0  0  0  0  0  0  0  0  0  0  0  0
   57.1720   31.7770   43.8470 C   0  0  0  0  0  0  0  0  0  0  0  0
   57.7020   32.4640   44.9440 C   0  0  0  0  0  0  0  0  0  0  0  0
   57.9360   34.2010   44.8620 Cl  0  0  0  0  0  0  0  0  0  0  0  0
   58.0510   31.7650   46.1030 C   0  0  0  0  0  0  0  0  0  0  0  0
   57.8660   30.3800   46.1700 C   0  0  0  0  0  0  0  0  0  0  0  0
   58.5660   24.1251   46.6859 H   0  0  0  0  0  0  0  0  0  0  0  0
   60.9372   24.8836   46.7774 H   0  0  0  0  0  0  0  0  0  0  0  0
   61.5377   27.2026   46.0843 H   0  0  0  0  0  0  0  0  0  0  0  0
   59.7661   28.7713   45.3071 H   0  0  0  0  0  0  0  0  0  0  0  0
   56.2020   27.8720   44.8490 H   0  0  0  0  0  0  0  0  0  0  0  0
   56.5801   29.8546   43.0417 H   0  0  0  0  0  0  0  0  0  0  0  0
   56.9005   32.3262   42.9334 H   0  0  0  0  0  0  0  0  0  0  0  0
   58.4719   32.3049   46.9640 H   0  0  0  0  0  0  0  0  0  0  0  0
   58.1508   29.8330   47.0809 H   0  0  0  0  0  0  0  0  0  0  0  0
  1  2  2  0
  2  3  2  0
  2  4  1  0
  2  5  1  0
  5  6  2  0
  6  7  1  0
  7  8  2  0
  8  9  1  0
  9 10  2  0
 10 11  1  0
 11 12  1  0
 12 13  2  0
 13 14  1  0
 14 15  2  0
 15 16  1  0
 15 17  1  0
 17 18  2  0
 10  5  1  0
 18 12  1  0
  6 19  1  0
  7 20  1  0
  8 21  1  0
  9 22  1  0
 11 23  1  0
 13 24  1  0
 14 25  1  0
 17 26  1  0
 18 27  1  0
M  CHG  1   4  -1
M  END
>  <UniqueID>  (58) 
50

>  <SMILES>  (58) 
O=S(=O)([O-])c1ccccc1Nc1ccc(Cl)cc1

>  <Energy>  (58) 
35.21426735251683

>  <Genealogy>  (58) 
O=S(=O)([O-])c1ccccc1Nc1ccc(Cl)cc1 (protonated)
O=S(=O)([O-])c1ccccc1Nc1ccc(Cl)cc1 (3D coordinates assigned)
O=S(=O)([O-])c1ccccc1Nc1ccc(Cl)cc1 (optimized conformer: 35.21426735251683 kcal/mol)

>  <smiles>  (58) 
O=S(=O)(O)c1ccccc1Nc1ccc(Cl)cc1

>  <score_type>  (58) 
oracle

>  <origin>  (58) 
adg

>  <m_score__min__energy>  (58) 
-10.35

>  <m_primary>  (58) 
energy

$$$$
58:0
     RDKit          3D

 40 43  0  0  0  0  0  0  0  0999 V2000
   55.4470   26.2900   46.0340 N   0  0  0  0  0  0  0  0  0  0  0  0
   56.6960   26.5080   45.3810 C   0  0  0  0  0  0  0  0  0  0  0  0
   57.1780   25.5980   44.6550 O   0  0  0  0  0  0  0  0  0  0  0  0
   57.3870   27.8110   45.5140 C   0  0  0  0  0  0  0  0  0  0  0  0
   57.7740   28.2350   46.7960 C   0  0  0  0  0  0  0  0  0  0  0  0
   58.3610   29.4860   46.9900 C   0  0  0  0  0  0  0  0  0  0  0  0
   58.5770   30.3480   45.9040 C   0  0  0  0  0  0  0  0  0  0  0  0
   59.1930   31.6840   46.1120 C   0  0  0  0  0  0  0  0  0  0  0  0
   58.5590   32.8440   45.6330 C   0  0  0  0  0  0  0  0  0  0  0  0
   59.1410   34.0990   45.8250 C   0  0  0  0  0  0  0  0  0  0  0  0
   60.3580   34.2130   46.5000 C   0  0  0  0  0  0  0  0  0  0  0  0
   61.0000   33.0700   47.0000 C   0  0  0  0  0  0  0  0  0  0  0  0
   62.2640   33.1780   47.6780 N   0  0  0  0  0  0  0  0  0  0  0  0
   63.4950   33.0600   47.1180 C   0  0  0  0  0  0  0  0  0  0  0  0
   64.4930   33.2220   48.0210 N   0  0  0  0  0  0  0  0  0  0  0  0
   63.8550   33.4410   49.1820 C   0  0  0  0  0  0  0  0  0  0  0  0
   64.3950   33.6360   50.4480 C   0  0  0  0  0  0  0  0  0  0  0  0
   63.5310   33.7900   51.4950 N   0  0  0  0  0  0  0  0  0  0  0  0
   62.1710   33.7510   51.3270 C   0  0  0  0  0  0  0  0  0  0  0  0
   61.6150   33.5490   50.0500 C   0  0  0  0  0  0  0  0  0  0  0  0
   62.5070   33.4140   48.9850 C   0  0  0  0  0  0  0  0  0  0  0  0
   60.4200   31.8080   46.7910 C   0  0  0  0  0  0  0  0  0  0  0  0
   58.2110   29.9240   44.6170 C   0  0  0  0  0  0  0  0  0  0  0  0
   57.6350   28.6610   44.4060 C   0  0  0  0  0  0  0  0  0  0  0  0
   57.3690   28.2450   43.0580 N   0  0  0  0  0  0  0  0  0  0  0  0
   54.8810   27.0920   46.3920 H   0  0  0  0  0  0  0  0  0  0  0  0
   57.6121   27.5719   47.6586 H   0  0  0  0  0  0  0  0  0  0  0  0
   58.6567   29.7989   48.0022 H   0  0  0  0  0  0  0  0  0  0  0  0
   57.5983   32.7625   45.1035 H   0  0  0  0  0  0  0  0  0  0  0  0
   58.6391   35.0004   45.4433 H   0  0  0  0  0  0  0  0  0  0  0  0
   60.8155   35.2034   46.6404 H   0  0  0  0  0  0  0  0  0  0  0  0
   63.6638   32.8557   46.0504 H   0  0  0  0  0  0  0  0  0  0  0  0
   65.5220   33.1760   47.8510 H   0  0  0  0  0  0  0  0  0  0  0  0
   65.4838   33.6654   50.6020 H   0  0  0  0  0  0  0  0  0  0  0  0
   61.5095   33.8785   52.1966 H   0  0  0  0  0  0  0  0  0  0  0  0
   60.5267   33.4997   49.8981 H   0  0  0  0  0  0  0  0  0  0  0  0
   60.9300   30.9067   47.1619 H   0  0  0  0  0  0  0  0  0  0  0  0
   58.3782   30.5923   43.7594 H   0  0  0  0  0  0  0  0  0  0  0  0
   57.0240   27.2880   42.8310 H   0  0  0  0  0  0  0  0  0  0  0  0
   57.6460   28.8530   42.2550 H   0  0  0  0  0  0  0  0  0  0  0  0
  1  2  1  0
  2  3  2  0
  2  4  1  0
  4  5  2  0
  5  6  1  0
  6  7  2  0
  7  8  1  0
  8  9  2  0
  9 10  1  0
 10 11  2  0
 11 12  1  0
 12 13  1  0
 13 14  1  0
 14 15  2  0
 15 16  1  0
 16 17  2  0
 17 18  1  0
 18 19  2  0
 19 20  1  0
 20 21  2  0
 12 22  2  0
  7 23  1  0
 23 24  2  0
 24 25  1  0
 24  4  1  0
 22  8  1  0
 21 13  1  0
 21 16  1  0
  1 26  1  0
  5 27  1  0
  6 28  1  0
  9 29  1  0
 10 30  1  0
 11 31  1  0
 14 32  1  0
 15 33  1  0
 17 34  1  0
 19 35  1  0
 20 36  1  0
 22 37  1  0
 23 38  1  0
 25 39  1  0
 25 40  1  0
M  CHG  2   1  -1  15   1
M  END
>  <UniqueID>  (59) 
51

>  <SMILES>  (59) 
[NH-]C(=O)c1ccc(-c2cccc(-n3c[nH+]c4cnccc43)c2)cc1N

>  <Energy>  (59) 
100.7614760017279

>  <Genealogy>  (59) 
[NH-]C(=O)c1ccc(-c2cccc(-n3c[nH+]c4cnccc43)c2)cc1N (protonated)
[NH-]C(=O)c1ccc(-c2cccc(-n3c[nH+]c4cnccc43)c2)cc1N (3D coordinates assigned)
[NH-]C(=O)c1ccc(-c2cccc(-n3c[nH+]c4cnccc43)c2)cc1N (optimized conformer: 100.7614760017279 kcal/mol)

>  <smiles>  (59) 
NC(=O)c1ccc(-c2cccc(-n3cnc4cnccc43)c2)cc1N

>  <score_type>  (59) 
oracle

>  <origin>  (59) 
adg

>  <m_score__min__energy>  (59) 
-10.880000000000001

>  <m_primary>  (59) 
energy

$$$$
59:0
     RDKit          3D

 41 42  0  0  0  0  0  0  0  0999 V2000
   55.1630   29.7280   45.0740 O   0  0  0  0  0  0  0  0  0  0  0  0
   56.0630   28.8560   44.9490 C   0  0  0  0  0  0  0  0  0  0  0  0
   57.2680   29.1720   44.0980 C   0  0  0  0  0  0  0  0  0  0  0  0
   56.9320   30.1420   42.9520 C   0  0  0  0  0  0  0  0  0  0  0  0
   57.0920   31.6210   43.3370 C   0  0  0  0  0  0  0  0  0  0  0  0
   57.1210   31.7950   44.7540 O   0  0  0  0  0  0  0  0  0  0  0  0
   57.8960   32.7400   45.4470 C   0  0  0  0  0  0  0  0  0  0  0  0
   58.7220   33.6780   44.7940 C   0  0  0  0  0  0  0  0  0  0  0  0
   59.4720   34.5940   45.5390 C   0  0  0  0  0  0  0  0  0  0  0  0
   59.4100   34.5810   46.9340 C   0  0  0  0  0  0  0  0  0  0  0  0
   58.5980   33.6500   47.5880 C   0  0  0  0  0  0  0  0  0  0  0  0
   57.8470   32.7330   46.8470 C   0  0  0  0  0  0  0  0  0  0  0  0
   55.8900   27.5980   45.6180 N   0  0  0  0  0  0  0  0  0  0  0  0
   56.8910   26.5470   45.7860 C   0  0  0  0  0  0  0  0  0  0  0  0
   57.7690   26.8180   47.0100 C   0  0  0  0  0  0  0  0  0  0  0  0
   58.7950   27.8730   46.7000 C   0  0  0  0  0  0  0  0  0  0  0  0
   59.7000   27.6940   45.6390 C   0  0  0  0  0  0  0  0  0  0  0  0
   60.6320   28.6910   45.3340 C   0  0  0  0  0  0  0  0  0  0  0  0
   60.6610   29.8750   46.0770 C   0  0  0  0  0  0  0  0  0  0  0  0
   59.7550   30.0660   47.1230 C   0  0  0  0  0  0  0  0  0  0  0  0
   58.8210   29.0720   47.4330 C   0  0  0  0  0  0  0  0  0  0  0  0
   58.0407   29.6289   44.7338 H   0  0  0  0  0  0  0  0  0  0  0  0
   57.6220   28.2312   43.6512 H   0  0  0  0  0  0  0  0  0  0  0  0
   57.6017   29.9276   42.1061 H   0  0  0  0  0  0  0  0  0  0  0  0
   55.8739   29.9863   42.6947 H   0  0  0  0  0  0  0  0  0  0  0  0
   58.0324   32.0010   42.9113 H   0  0  0  0  0  0  0  0  0  0  0  0
   56.2289   32.1753   42.9398 H   0  0  0  0  0  0  0  0  0  0  0  0
   58.7767   33.6894   43.6954 H   0  0  0  0  0  0  0  0  0  0  0  0
   60.1120   35.3262   45.0249 H   0  0  0  0  0  0  0  0  0  0  0  0
   59.9998   35.3030   47.5178 H   0  0  0  0  0  0  0  0  0  0  0  0
   58.5499   33.6389   48.6869 H   0  0  0  0  0  0  0  0  0  0  0  0
   57.2126   32.0002   47.3672 H   0  0  0  0  0  0  0  0  0  0  0  0
   56.3806   25.5813   45.9159 H   0  0  0  0  0  0  0  0  0  0  0  0
   57.5317   26.5265   44.8921 H   0  0  0  0  0  0  0  0  0  0  0  0
   57.1355   27.1624   47.8407 H   0  0  0  0  0  0  0  0  0  0  0  0
   58.2876   25.8887   47.2882 H   0  0  0  0  0  0  0  0  0  0  0  0
   59.6749   26.7671   45.0472 H   0  0  0  0  0  0  0  0  0  0  0  0
   61.3435   28.5434   44.5081 H   0  0  0  0  0  0  0  0  0  0  0  0
   61.3974   30.6563   45.8378 H   0  0  0  0  0  0  0  0  0  0  0  0
   59.7761   30.9998   47.7040 H   0  0  0  0  0  0  0  0  0  0  0  0
   58.1047   29.2291   48.2529 H   0  0  0  0  0  0  0  0  0  0  0  0
  1  2  2  0
  2  3  1  0
  3  4  1  0
  4  5  1  0
  5  6  1  0
  6  7  1  0
  7  8  2  0
  8  9  1  0
  9 10  2  0
 10 11  1  0
 11 12  2  0
  2 13  1  0
 13 14  1  0
 14 15  1  0
 15 16  1  0
 16 17  2  0
 17 18  1  0
 18 19  2  0
 19 20  1  0
 20 21  2  0
 12  7  1  0
 21 16  1  0
  3 22  1  0
  3 23  1  0
  4 24  1  0
  4 25  1  0
  5 26  1  0
  5 27  1  0
  8 28  1  0
  9 29  1  0
 10 30  1  0
 11 31  1  0
 12 32  1  0
 14 33  1  0
 14 34  1  0
 15 35  1  0
 15 36  1  0
 17 37  1  0
 18 38  1  0
 19 39  1  0
 20 40  1  0
 21 41  1  0
M  CHG  1  13  -1
M  END
>  <UniqueID>  (60) 
52

>  <SMILES>  (60) 
O=C(CCCOc1ccccc1)[N-]CCc1ccccc1

>  <Energy>  (60) 
35.13507418907913

>  <Genealogy>  (60) 
O=C(CCCOc1ccccc1)[N-]CCc1ccccc1 (protonated)
O=C(CCCOc1ccccc1)[N-]CCc1ccccc1 (3D coordinates assigned)
O=C(CCCOc1ccccc1)[N-]CCc1ccccc1 (optimized conformer: 35.13507418907913 kcal/mol)

>  <smiles>  (60) 
O=C(CCCOc1ccccc1)NCCc1ccccc1

>  <score_type>  (60) 
oracle

>  <origin>  (60) 
adg

>  <m_score__min__energy>  (60) 
-8.9199999999999999

>  <m_primary>  (60) 
energy

$$$$
60:0
     RDKit          3D

 48 50  0  0  0  0  0  0  0  0999 V2000
   59.1590   30.5600   49.2370 C   0  0  0  0  0  0  0  0  0  0  0  0
   60.3370   29.7280   48.7010 C   0  0  0  0  0  0  0  0  0  0  0  0
   60.0980   29.0670   47.3910 N   0  0  2  0  0  0  0  0  0  0  0  0
   60.1490   30.0120   46.2560 C   0  0  0  0  0  0  0  0  0  0  0  0
   60.1980   29.2730   44.9030 C   0  0  0  0  0  0  0  0  0  0  0  0
   59.6500   27.8390   44.9830 C   0  0  0  0  0  0  0  0  0  0  0  0
   58.4760   27.7120   45.9740 C   0  0  2  0  0  0  0  0  0  0  0  0
   57.1950   28.3610   45.4000 C   0  0  0  0  0  0  0  0  0  0  0  0
   57.3610   28.6450   43.9610 N   0  0  0  0  0  0  0  0  0  0  0  0
   56.5660   29.7990   43.5150 C   0  0  0  0  0  0  0  0  0  0  0  0
   57.2390   31.0920   43.8910 C   0  0  0  0  0  0  0  0  0  0  0  0
   57.7860   31.9110   42.8930 C   0  0  0  0  0  0  0  0  0  0  0  0
   58.4640   33.0850   43.2320 C   0  0  0  0  0  0  0  0  0  0  0  0
   58.6120   33.4510   44.5770 C   0  0  0  0  0  0  0  0  0  0  0  0
   59.2980   34.6230   44.9290 C   0  0  0  0  0  0  0  0  0  0  0  0
   59.4440   34.9730   46.2750 C   0  0  0  0  0  0  0  0  0  0  0  0
   58.9090   34.1580   47.2750 C   0  0  0  0  0  0  0  0  0  0  0  0
   58.2230   32.9870   46.9380 C   0  0  0  0  0  0  0  0  0  0  0  0
   58.0670   32.6250   45.5910 C   0  0  0  0  0  0  0  0  0  0  0  0
   57.3840   31.4520   45.2410 C   0  0  0  0  0  0  0  0  0  0  0  0
   58.8400   28.2780   47.3840 C   0  0  0  0  0  0  0  0  0  0  0  0
   59.1734   30.5498   50.3369 H   0  0  0  0  0  0  0  0  0  0  0  0
   59.2488   31.5961   48.8787 H   0  0  0  0  0  0  0  0  0  0  0  0
   58.2126   30.1289   48.8787 H   0  0  0  0  0  0  0  0  0  0  0  0
   61.2043   30.3958   48.5925 H   0  0  0  0  0  0  0  0  0  0  0  0
   60.4959   28.9181   49.4282 H   0  0  0  0  0  0  0  0  0  0  0  0
   60.8920   28.3920   47.2780 H   0  0  0  0  0  0  0  0  0  0  0  0
   59.2531   30.6498   46.2821 H   0  0  0  0  0  0  0  0  0  0  0  0
   61.0639   30.6152   46.3517 H   0  0  0  0  0  0  0  0  0  0  0  0
   59.5988   29.8373   44.1732 H   0  0  0  0  0  0  0  0  0  0  0  0
   61.2539   29.2060   44.6022 H   0  0  0  0  0  0  0  0  0  0  0  0
   59.3028   27.5374   43.9838 H   0  0  0  0  0  0  0  0  0  0  0  0
   60.4623   27.1894   45.3410 H   0  0  0  0  0  0  0  0  0  0  0  0
   58.2699   26.6404   46.1123 H   0  0  0  0  0  0  0  0  0  0  0  0
   56.3475   27.6735   45.5381 H   0  0  0  0  0  0  0  0  0  0  0  0
   57.0061   29.3061   45.9302 H   0  0  0  0  0  0  0  0  0  0  0  0
   57.0220   27.8120   43.4250 H   0  0  0  0  0  0  0  0  0  0  0  0
   56.4519   29.7569   42.4217 H   0  0  0  0  0  0  0  0  0  0  0  0
   55.5823   29.7590   44.0056 H   0  0  0  0  0  0  0  0  0  0  0  0
   57.6807   31.6273   41.8354 H   0  0  0  0  0  0  0  0  0  0  0  0
   58.8829   33.7240   42.4407 H   0  0  0  0  0  0  0  0  0  0  0  0
   59.7217   35.2677   44.1449 H   0  0  0  0  0  0  0  0  0  0  0  0
   59.9819   35.8931   46.5470 H   0  0  0  0  0  0  0  0  0  0  0  0
   59.0277   34.4384   48.3320 H   0  0  0  0  0  0  0  0  0  0  0  0
   57.8049   32.3484   47.7301 H   0  0  0  0  0  0  0  0  0  0  0  0
   56.9596   30.8104   46.0273 H   0  0  0  0  0  0  0  0  0  0  0  0
   58.0187   28.9265   47.7230 H   0  0  0  0  0  0  0  0  0  0  0  0
   58.9902   27.4176   48.0527 H   0  0  0  0  0  0  0  0  0  0  0  0
  1  2  1  0
  2  3  1  0
  3  4  1  0
  4  5  1  0
  5  6  1  0
  6  7  1  0
  7  8  1  0
  8  9  1  0
  9 10  1  0
 10 11  1  0
 11 12  2  0
 12 13  1  0
 13 14  2  0
 14 15  1  0
 15 16  2  0
 16 17  1  0
 17 18  2  0
 18 19  1  0
 19 20  2  0
  7 21  1  0
 21  3  1  0
 20 11  1  0
 19 14  1  0
  1 22  1  0
  1 23  1  0
  1 24  1  0
  2 25  1  0
  2 26  1  0
  3 27  1  6
  4 28  1  0
  4 29  1  0
  5 30  1  0
  5 31  1  0
  6 32  1  0
  6 33  1  0
  7 34  1  1
  8 35  1  0
  8 36  1  0
  9 37  1  0
 10 38  1  0
 10 39  1  0
 12 40  1  0
 13 41  1  0
 15 42  1  0
 16 43  1  0
 17 44  1  0
 18 45  1  0
 20 46  1  0
 21 47  1  0
 21 48  1  0
M  CHG  1   3   1
M  END
>  <UniqueID>  (61) 
53

>  <SMILES>  (61) 
CC[N@@H+]1CCC[C@H](CNCc2ccc3ccccc3c2)C1

>  <Energy>  (61) 
59.25323259784319

>  <Genealogy>  (61) 
CC[NH+]1CCCC(CNCc2ccc3ccccc3c2)C1 (protonated)
CC[N@@H+]1CCC[C@H](CNCc2ccc3ccccc3c2)C1 (chirality)
CC[N@@H+]1CCC[C@H](CNCc2ccc3ccccc3c2)C1 (3D coordinates assigned)
CC[N@@H+]1CCC[C@H](CNCc2ccc3ccccc3c2)C1 (nonaromatic ring conformer: 59.25323259784319 kcal/mol)

>  <smiles>  (61) 
CCN1CCCC(CNCc2ccc3ccccc3c2)C1

>  <score_type>  (61) 
oracle

>  <origin>  (61) 
adg

>  <m_score__min__energy>  (61) 
-6.2800000000000002

>  <m_primary>  (61) 
energy

$$$$
61:0
     RDKit          3D

 39 41  0  0  0  0  0  0  0  0999 V2000
   59.6500   36.1030   46.4730 O   0  0  0  0  0  0  0  0  0  0  0  0
   59.6540   34.8810   46.7780 C   0  0  0  0  0  0  0  0  0  0  0  0
   60.2290   34.4880   48.0320 N   0  0  0  0  0  0  0  0  0  0  0  0
   61.5630   34.0000   48.2360 C   0  0  0  0  0  0  0  0  0  0  0  0
   62.1410   33.9380   49.5170 C   0  0  0  0  0  0  0  0  0  0  0  0
   63.4380   33.4420   49.6800 C   0  0  0  0  0  0  0  0  0  0  0  0
   64.1600   32.9910   48.5720 C   0  0  0  0  0  0  0  0  0  0  0  0
   63.5830   33.0290   47.3000 C   0  0  0  0  0  0  0  0  0  0  0  0
   62.2860   33.5240   47.1340 C   0  0  0  0  0  0  0  0  0  0  0  0
   59.0190   33.9020   45.8630 C   0  0  0  0  0  0  0  0  0  0  0  0
   59.0160   34.1120   44.4730 C   0  0  0  0  0  0  0  0  0  0  0  0
   58.4180   33.1810   43.6180 C   0  0  0  0  0  0  0  0  0  0  0  0
   57.8180   32.0240   44.1370 C   0  0  0  0  0  0  0  0  0  0  0  0
   57.1970   31.0180   43.2070 C   0  0  0  0  0  0  0  0  0  0  0  0
   57.3630   29.6670   43.7400 N   0  0  0  0  0  0  0  0  0  0  0  0
   56.4270   29.0870   44.6630 C   0  0  0  0  0  0  0  0  0  0  0  0
   55.3800   29.7150   44.9740 O   0  0  0  0  0  0  0  0  0  0  0  0
   56.6610   27.7600   45.2580 C   0  0  0  0  0  0  0  0  0  0  0  0
   57.8710   27.1000   45.3730 C   0  0  0  0  0  0  0  0  0  0  0  0
   57.5850   25.9040   45.9970 C   0  0  0  0  0  0  0  0  0  0  0  0
   56.2250   25.9050   46.2240 C   0  0  0  0  0  0  0  0  0  0  0  0
   55.7030   27.0230   45.7740 O   0  0  0  0  0  0  0  0  0  0  0  0
   57.8390   31.8020   45.5220 C   0  0  0  0  0  0  0  0  0  0  0  0
   58.4370   32.7310   46.3770 C   0  0  0  0  0  0  0  0  0  0  0  0
   61.5709   34.2808   50.3930 H   0  0  0  0  0  0  0  0  0  0  0  0
   63.8907   33.4068   50.6819 H   0  0  0  0  0  0  0  0  0  0  0  0
   65.1824   32.6061   48.7011 H   0  0  0  0  0  0  0  0  0  0  0  0
   64.1496   32.6692   46.4285 H   0  0  0  0  0  0  0  0  0  0  0  0
   61.8306   33.5399   46.1328 H   0  0  0  0  0  0  0  0  0  0  0  0
   59.4869   35.0141   44.0554 H   0  0  0  0  0  0  0  0  0  0  0  0
   58.4181   33.3569   42.5322 H   0  0  0  0  0  0  0  0  0  0  0  0
   56.1244   31.2367   43.0992 H   0  0  0  0  0  0  0  0  0  0  0  0
   57.6937   31.0806   42.2275 H   0  0  0  0  0  0  0  0  0  0  0  0
   58.1900   29.1180   43.4190 H   0  0  0  0  0  0  0  0  0  0  0  0
   58.8563   27.4552   45.0367 H   0  0  0  0  0  0  0  0  0  0  0  0
   58.2983   25.1092   46.2606 H   0  0  0  0  0  0  0  0  0  0  0  0
   55.6628   25.0930   46.7083 H   0  0  0  0  0  0  0  0  0  0  0  0
   57.3821   30.8915   45.9370 H   0  0  0  0  0  0  0  0  0  0  0  0
   58.4523   32.5443   47.4609 H   0  0  0  0  0  0  0  0  0  0  0  0
  1  2  2  0
  2  3  1  0
  3  4  1  0
  4  5  2  0
  5  6  1  0
  6  7  2  0
  7  8  1  0
  8  9  2  0
  2 10  1  0
 10 11  2  0
 11 12  1  0
 12 13  2  0
 13 14  1  0
 14 15  1  0
 15 16  1  0
 16 17  2  0
 16 18  1  0
 18 19  2  0
 19 20  1  0
 20 21  2  0
 21 22  1  0
 13 23  1  0
 23 24  2  0
  9  4  1  0
 24 10  1  0
 22 18  1  0
  5 25  1  0
  6 26  1  0
  7 27  1  0
  8 28  1  0
  9 29  1  0
 11 30  1  0
 12 31  1  0
 14 32  1  0
 14 33  1  0
 15 34  1  0
 19 35  1  0
 20 36  1  0
 21 37  1  0
 23 38  1  0
 24 39  1  0
M  CHG  1   3  -1
M  END
>  <UniqueID>  (62) 
54

>  <SMILES>  (62) 
O=C([N-]c1ccccc1)c1ccc(CNC(=O)c2ccco2)cc1

>  <Energy>  (62) 
71.34926053277634

>  <Genealogy>  (62) 
O=C([N-]c1ccccc1)c1ccc(CNC(=O)c2ccco2)cc1 (protonated)
O=C([N-]c1ccccc1)c1ccc(CNC(=O)c2ccco2)cc1 (3D coordinates assigned)
O=C([N-]c1ccccc1)c1ccc(CNC(=O)c2ccco2)cc1 (optimized conformer: 71.34926053277634 kcal/mol)

>  <smiles>  (62) 
O=C(Nc1ccccc1)c1ccc(CNC(=O)c2ccco2)cc1

>  <score_type>  (62) 
oracle

>  <origin>  (62) 
adg

>  <m_score__min__energy>  (62) 
-9.5199999999999996

>  <m_primary>  (62) 
energy

$$$$
62:0
     RDKit          3D

 17 18  0  0  0  0  0  0  0  0999 V2000
   56.9510   21.1490   48.0560 O   0  0  0  0  0  0  0  0  0  0  0  0
   56.7350   22.2940   47.5820 C   0  0  0  0  0  0  0  0  0  0  0  0
   55.4480   22.8390   47.6060 C   0  0  0  0  0  0  0  0  0  0  0  0
   55.2300   24.0780   47.0890 N   0  0  0  0  0  0  0  0  0  0  0  0
   56.2510   24.8030   46.5450 C   0  0  0  0  0  0  0  0  0  0  0  0
   56.0390   26.0870   46.0070 C   0  0  0  0  0  0  0  0  0  0  0  0
   54.7710   26.6600   46.0140 O   0  0  0  0  0  0  0  0  0  0  0  0
   57.1120   26.7990   45.4580 C   0  0  0  0  0  0  0  0  0  0  0  0
   58.3940   26.2410   45.4410 C   0  0  0  0  0  0  0  0  0  0  0  0
   58.6160   24.9680   45.9730 C   0  0  0  0  0  0  0  0  0  0  0  0
   57.5510   24.2480   46.5240 C   0  0  0  0  0  0  0  0  0  0  0  0
   57.7560   23.0090   47.0420 N   0  0  0  0  0  0  0  0  0  0  0  0
   54.6147   22.2680   48.0414 H   0  0  0  0  0  0  0  0  0  0  0  0
   54.2590   24.4640   47.1190 H   0  0  0  0  0  0  0  0  0  0  0  0
   56.9459   27.8020   45.0381 H   0  0  0  0  0  0  0  0  0  0  0  0
   59.2316   26.8067   45.0069 H   0  0  0  0  0  0  0  0  0  0  0  0
   59.6263   24.5331   45.9584 H   0  0  0  0  0  0  0  0  0  0  0  0
  1  2  2  0
  2  3  1  0
  3  4  2  0
  4  5  1  0
  5  6  2  0
  6  7  1  0
  6  8  1  0
  8  9  2  0
  9 10  1  0
 10 11  2  0
 11 12  1  0
 12  2  1  0
 11  5  1  0
  3 13  1  0
  4 14  1  0
  8 15  1  0
  9 16  1  0
 10 17  1  0
M  CHG  3   4   1   7  -1  12  -1
M  END
>  <UniqueID>  (63) 
55

>  <SMILES>  (63) 
O=c1c[nH+]c2c([O-])cccc2[n-]1

>  <Energy>  (63) 
22.427920425620112

>  <Genealogy>  (63) 
O=c1c[nH+]c2c([O-])cccc2[n-]1 (protonated)
O=c1c[nH+]c2c([O-])cccc2[n-]1 (3D coordinates assigned)
O=c1c[nH+]c2c([O-])cccc2[n-]1 (optimized conformer: 22.427920425620112 kcal/mol)

>  <smiles>  (63) 
O=c1cnc2c(O)cccc2[nH]1

>  <score_type>  (63) 
oracle

>  <origin>  (63) 
adg

>  <m_score__min__energy>  (63) 
-8.7200000000000006

>  <m_primary>  (63) 
energy

$$$$
63:0
     RDKit          3D

 38 40  0  0  0  0  0  0  0  0999 V2000
   58.5830   34.1440   46.8850 O   0  0  0  0  0  0  0  0  0  0  0  0
   58.3040   33.1610   46.1470 C   0  0  0  0  0  0  0  0  0  0  0  0
   57.1320   33.2500   45.2190 C   0  0  0  0  0  0  0  0  0  0  0  0
   57.4640   32.3390   43.6720 S   0  0  0  0  0  0  0  0  0  0  0  0
   56.8930   30.7640   44.3040 C   0  0  0  0  0  0  0  0  0  0  0  0
   55.5960   30.4640   44.4930 N   0  0  0  0  0  0  0  0  0  0  0  0
   55.5640   29.2310   44.9650 N   0  0  0  0  0  0  0  0  0  0  0  0
   56.8420   28.8120   45.0510 C   0  0  0  0  0  0  0  0  0  0  0  0
   57.2400   27.4750   45.5390 C   0  0  0  0  0  0  0  0  0  0  0  0
   58.5910   27.0810   45.5210 C   0  0  0  0  0  0  0  0  0  0  0  0
   58.9630   25.8150   45.9830 C   0  0  0  0  0  0  0  0  0  0  0  0
   57.9960   24.9320   46.4680 C   0  0  0  0  0  0  0  0  0  0  0  0
   56.6530   25.3140   46.4920 C   0  0  0  0  0  0  0  0  0  0  0  0
   56.2740   26.5780   46.0300 C   0  0  0  0  0  0  0  0  0  0  0  0
   57.7160   29.7530   44.6390 N   0  0  0  0  0  0  0  0  0  0  0  0
   59.1330   31.9900   46.1440 N   0  0  0  0  0  0  0  0  0  0  0  0
   60.2230   31.7880   47.0590 C   0  0  0  0  0  0  0  0  0  0  0  0
   61.2860   32.7070   47.1170 C   0  0  0  0  0  0  0  0  0  0  0  0
   62.3500   32.5230   48.0170 C   0  0  0  0  0  0  0  0  0  0  0  0
   63.4610   33.5410   48.1010 C   0  0  0  0  0  0  0  0  0  0  0  0
   63.1020   34.5880   48.9300 F   0  0  0  0  0  0  0  0  0  0  0  0
   63.7460   34.0590   46.8490 F   0  0  0  0  0  0  0  0  0  0  0  0
   64.5960   32.9340   48.6060 F   0  0  0  0  0  0  0  0  0  0  0  0
   62.3130   31.4360   48.9040 C   0  0  0  0  0  0  0  0  0  0  0  0
   61.2540   30.5280   48.8640 C   0  0  0  0  0  0  0  0  0  0  0  0
   60.2100   30.6970   47.9490 C   0  0  0  0  0  0  0  0  0  0  0  0
   58.9120   29.5100   47.9220 Cl  0  0  0  0  0  0  0  0  0  0  0  0
   56.2483   32.8170   45.7106 H   0  0  0  0  0  0  0  0  0  0  0  0
   56.9530   34.3076   44.9754 H   0  0  0  0  0  0  0  0  0  0  0  0
   59.3578   27.7724   45.1416 H   0  0  0  0  0  0  0  0  0  0  0  0
   60.0207   25.5135   45.9644 H   0  0  0  0  0  0  0  0  0  0  0  0
   58.2918   23.9366   46.8308 H   0  0  0  0  0  0  0  0  0  0  0  0
   55.8915   24.6188   46.8753 H   0  0  0  0  0  0  0  0  0  0  0  0
   55.2144   26.8727   46.0506 H   0  0  0  0  0  0  0  0  0  0  0  0
   58.9800   31.2860   45.3870 H   0  0  0  0  0  0  0  0  0  0  0  0
   61.2848   33.5812   46.4494 H   0  0  0  0  0  0  0  0  0  0  0  0
   63.1235   31.2989   49.6350 H   0  0  0  0  0  0  0  0  0  0  0  0
   61.2404   29.6737   49.5568 H   0  0  0  0  0  0  0  0  0  0  0  0
  1  2  2  0
  2  3  1  0
  3  4  1  0
  4  5  1  0
  5  6  2  0
  6  7  1  0
  7  8  1  0
  8  9  1  0
  9 10  2  0
 10 11  1  0
 11 12  2  0
 12 13  1  0
 13 14  2  0
  8 15  2  0
  2 16  1  0
 16 17  1  0
 17 18  2  0
 18 19  1  0
 19 20  1  0
 20 21  1  0
 20 22  1  0
 20 23  1  0
 19 24  2  0
 24 25  1  0
 25 26  2  0
 26 27  1  0
 15  5  1  0
 26 17  1  0
 14  9  1  0
  3 28  1  0
  3 29  1  0
 10 30  1  0
 11 31  1  0
 12 32  1  0
 13 33  1  0
 14 34  1  0
 16 35  1  0
 18 36  1  0
 24 37  1  0
 25 38  1  0
M  CHG  1   7  -1
M  END
>  <UniqueID>  (64) 
56

>  <SMILES>  (64) 
O=C(CSc1n[n-]c(-c2ccccc2)n1)Nc1cc(C(F)(F)F)ccc1Cl

>  <Energy>  (64) 
72.82127215281821

>  <Genealogy>  (64) 
O=C(CSc1n[n-]c(-c2ccccc2)n1)Nc1cc(C(F)(F)F)ccc1Cl (protonated)
O=C(CSc1n[n-]c(-c2ccccc2)n1)Nc1cc(C(F)(F)F)ccc1Cl (3D coordinates assigned)
O=C(CSc1n[n-]c(-c2ccccc2)n1)Nc1cc(C(F)(F)F)ccc1Cl (optimized conformer: 72.82127215281821 kcal/mol)

>  <smiles>  (64) 
O=C(CSc1n[nH]c(-c2ccccc2)n1)Nc1cc(C(F)(F)F)ccc1Cl

>  <score_type>  (64) 
oracle

>  <origin>  (64) 
adg

>  <m_score__min__energy>  (64) 
-9.3499999999999996

>  <m_primary>  (64) 
energy

$$$$
64:0
     RDKit          3D

 45 48  0  0  0  0  0  0  0  0999 V2000
   63.3420   33.6590   48.1370 C   0  0  0  0  0  0  0  0  0  0  0  0
   62.0980   34.2130   48.5570 O   0  0  0  0  0  0  0  0  0  0  0  0
   60.8810   34.0180   47.8880 C   0  0  0  0  0  0  0  0  0  0  0  0
   60.8450   34.2090   46.5020 C   0  0  0  0  0  0  0  0  0  0  0  0
   59.6610   34.0070   45.7860 C   0  0  0  0  0  0  0  0  0  0  0  0
   58.4900   33.6160   46.4530 C   0  0  0  0  0  0  0  0  0  0  0  0
   57.2390   33.3180   45.6720 C   0  0  0  0  0  0  0  0  0  0  0  0
   57.6410   32.5790   44.0480 S   0  0  0  0  0  0  0  0  0  0  0  0
   57.1380   30.9180   44.5110 C   0  0  0  0  0  0  0  0  0  0  0  0
   55.8630   30.4890   44.4470 N   0  0  0  0  0  0  0  0  0  0  0  0
   55.8590   29.2320   44.8690 N   0  0  0  0  0  0  0  0  0  0  0  0
   57.1290   28.9190   45.1950 C   0  0  0  0  0  0  0  0  0  0  0  0
   57.5270   27.5910   45.6910 C   0  0  0  0  0  0  0  0  0  0  0  0
   58.8460   27.1500   45.5260 C   0  0  0  0  0  0  0  0  0  0  0  0
   59.2120   25.8880   46.0020 C   0  0  0  0  0  0  0  0  0  0  0  0
   58.2890   25.0920   46.6040 N   0  0  0  0  0  0  0  0  0  0  0  0
   56.9990   25.4900   46.7600 C   0  0  0  0  0  0  0  0  0  0  0  0
   56.5920   26.7440   46.3010 C   0  0  0  0  0  0  0  0  0  0  0  0
   57.9640   29.9600   44.9780 N   0  0  0  0  0  0  0  0  0  0  0  0
   59.4320   29.9760   45.0070 C   0  0  0  0  0  0  0  0  0  0  0  0
   59.9150   30.1830   46.4070 C   0  0  0  0  0  0  0  0  0  0  0  0
   61.2050   30.5480   46.7720 C   0  0  0  0  0  0  0  0  0  0  0  0
   61.3880   30.6000   48.1590 C   0  0  0  0  0  0  0  0  0  0  0  0
   60.2490   30.2690   48.8860 C   0  0  0  0  0  0  0  0  0  0  0  0
   59.0150   29.9080   47.8020 S   0  0  0  0  0  0  0  0  0  0  0  0
   58.5190   33.4390   47.8460 C   0  0  0  0  0  0  0  0  0  0  0  0
   59.7040   33.6350   48.5590 C   0  0  0  0  0  0  0  0  0  0  0  0
   63.9413   33.3921   49.0200 H   0  0  0  0  0  0  0  0  0  0  0  0
   63.1571   32.7582   47.5334 H   0  0  0  0  0  0  0  0  0  0  0  0
   63.8879   34.3991   47.5334 H   0  0  0  0  0  0  0  0  0  0  0  0
   61.7565   34.5209   45.9710 H   0  0  0  0  0  0  0  0  0  0  0  0
   59.6475   34.1551   44.6961 H   0  0  0  0  0  0  0  0  0  0  0  0
   56.6171   32.6135   46.2438 H   0  0  0  0  0  0  0  0  0  0  0  0
   56.6978   34.2608   45.5038 H   0  0  0  0  0  0  0  0  0  0  0  0
   59.5871   27.7911   45.0263 H   0  0  0  0  0  0  0  0  0  0  0  0
   60.2488   25.5382   45.8893 H   0  0  0  0  0  0  0  0  0  0  0  0
   56.2740   24.8227   47.2490 H   0  0  0  0  0  0  0  0  0  0  0  0
   55.5462   27.0645   46.4172 H   0  0  0  0  0  0  0  0  0  0  0  0
   59.8141   29.0165   44.6282 H   0  0  0  0  0  0  0  0  0  0  0  0
   59.7961   30.7991   44.3746 H   0  0  0  0  0  0  0  0  0  0  0  0
   62.0003   30.7729   46.0461 H   0  0  0  0  0  0  0  0  0  0  0  0
   62.3429   30.8766   48.6298 H   0  0  0  0  0  0  0  0  0  0  0  0
   60.1692   30.2471   49.9829 H   0  0  0  0  0  0  0  0  0  0  0  0
   57.6029   33.1442   48.3788 H   0  0  0  0  0  0  0  0  0  0  0  0
   59.7177   33.4895   49.6492 H   0  0  0  0  0  0  0  0  0  0  0  0
  1  2  1  0
  2  3  1  0
  3  4  2  0
  4  5  1  0
  5  6  2  0
  6  7  1  0
  7  8  1  0
  8  9  1  0
  9 10  2  0
 10 11  1  0
 11 12  2  0
 12 13  1  0
 13 14  2  0
 14 15  1  0
 15 16  2  0
 16 17  1  0
 17 18  2  0
 12 19  1  0
 19 20  1  0
 20 21  1  0
 21 22  2  0
 22 23  1  0
 23 24  2  0
 24 25  1  0
  6 26  1  0
 26 27  2  0
 27  3  1  0
 19  9  1  0
 25 21  1  0
 18 13  1  0
  1 28  1  0
  1 29  1  0
  1 30  1  0
  4 31  1  0
  5 32  1  0
  7 33  1  0
  7 34  1  0
 14 35  1  0
 15 36  1  0
 17 37  1  0
 18 38  1  0
 20 39  1  0
 20 40  1  0
 22 41  1  0
 23 42  1  0
 24 43  1  0
 26 44  1  0
 27 45  1  0
M  END
>  <UniqueID>  (65) 
57

>  <SMILES>  (65) 
COc1ccc(CSc2nnc(-c3ccncc3)n2Cc2cccs2)cc1

>  <Energy>  (65) 
105.40255459251769

>  <Genealogy>  (65) 
COc1ccc(CSc2nnc(-c3ccncc3)n2Cc2cccs2)cc1 (3D coordinates assigned)
COc1ccc(CSc2nnc(-c3ccncc3)n2Cc2cccs2)cc1 (optimized conformer: 105.40255459251769 kcal/mol)

>  <smiles>  (65) 
COc1ccc(CSc2nnc(-c3ccncc3)n2Cc2cccs2)cc1

>  <score_type>  (65) 
oracle

>  <origin>  (65) 
adg

>  <m_score__min__energy>  (65) 
-8.4700000000000006

>  <m_primary>  (65) 
energy

$$$$
65:0
     RDKit          3D

 36 38  0  0  0  0  0  0  0  0999 V2000
   60.2820   30.3510   49.1200 C   0  0  0  0  0  0  0  0  0  0  0  0
   60.7180   31.2650   48.0590 N   0  0  0  0  0  0  0  0  0  0  0  0
   60.3690   32.6920   48.1220 C   0  0  0  0  0  0  0  0  0  0  0  0
   59.5700   33.0900   46.9090 C   0  0  0  0  0  0  0  0  0  0  0  0
   60.0720   34.0330   45.9990 C   0  0  0  0  0  0  0  0  0  0  0  0
   59.3110   34.4160   44.8900 C   0  0  0  0  0  0  0  0  0  0  0  0
   58.0470   33.8600   44.6810 C   0  0  0  0  0  0  0  0  0  0  0  0
   57.5370   32.9160   45.5840 C   0  0  0  0  0  0  0  0  0  0  0  0
   56.2770   32.3550   45.3880 O   0  0  0  0  0  0  0  0  0  0  0  0
   58.2980   32.5340   46.6950 C   0  0  0  0  0  0  0  0  0  0  0  0
   61.5170   30.7580   46.9730 C   0  0  0  0  0  0  0  0  0  0  0  0
   62.7050   31.1560   46.8270 O   0  0  0  0  0  0  0  0  0  0  0  0
   60.9780   29.7670   46.0880 N   0  0  0  0  0  0  0  0  0  0  0  0
   59.5940   29.5690   45.7650 C   0  0  0  0  0  0  0  0  0  0  0  0
   58.7950   28.8100   46.6550 C   0  0  0  0  0  0  0  0  0  0  0  0
   57.4250   28.6090   46.4040 C   0  0  0  0  0  0  0  0  0  0  0  0
   56.8850   29.1930   45.2630 C   0  0  0  0  0  0  0  0  0  0  0  0
   55.6130   29.1490   44.8340 N   0  0  0  0  0  0  0  0  0  0  0  0
   55.5520   29.8640   43.7130 N   0  0  0  0  0  0  0  0  0  0  0  0
   56.7800   30.3630   43.4330 C   0  0  0  0  0  0  0  0  0  0  0  0
   57.6440   29.9410   44.4130 C   0  0  0  0  0  0  0  0  0  0  0  0
   59.0010   30.1650   44.6240 C   0  0  0  0  0  0  0  0  0  0  0  0
   60.4960   30.7996   50.1013 H   0  0  0  0  0  0  0  0  0  0  0  0
   59.2009   30.1706   49.0272 H   0  0  0  0  0  0  0  0  0  0  0  0
   60.8221   29.3972   49.0272 H   0  0  0  0  0  0  0  0  0  0  0  0
   59.7724   32.8798   49.0269 H   0  0  0  0  0  0  0  0  0  0  0  0
   61.2948   33.2853   48.1504 H   0  0  0  0  0  0  0  0  0  0  0  0
   61.0677   34.4725   46.1586 H   0  0  0  0  0  0  0  0  0  0  0  0
   59.7088   35.1568   44.1808 H   0  0  0  0  0  0  0  0  0  0  0  0
   57.4510   34.1628   43.8074 H   0  0  0  0  0  0  0  0  0  0  0  0
   56.1590   31.3610   45.2330 H   0  0  0  0  0  0  0  0  0  0  0  0
   57.8978   31.7945   47.4042 H   0  0  0  0  0  0  0  0  0  0  0  0
   59.2517   28.3717   47.5546 H   0  0  0  0  0  0  0  0  0  0  0  0
   56.8030   28.0110   47.0863 H   0  0  0  0  0  0  0  0  0  0  0  0
   57.0394   30.9956   42.5713 H   0  0  0  0  0  0  0  0  0  0  0  0
   59.5917   30.7819   43.9308 H   0  0  0  0  0  0  0  0  0  0  0  0
  1  2  1  0
  2  3  1  0
  3  4  1  0
  4  5  2  0
  5  6  1  0
  6  7  2  0
  7  8  1  0
  8  9  1  0
  8 10  2  0
  2 11  1  0
 11 12  2  0
 11 13  1  0
 13 14  1  0
 14 15  2  0
 15 16  1  0
 16 17  2  0
 17 18  1  0
 18 19  1  0
 19 20  2  0
 20 21  1  0
 21 22  2  0
 10  4  1  0
 22 14  1  0
 21 17  1  0
  1 23  1  0
  1 24  1  0
  1 25  1  0
  3 26  1  0
  3 27  1  0
  5 28  1  0
  6 29  1  0
  7 30  1  0
  9 31  1  0
 10 32  1  0
 15 33  1  0
 16 34  1  0
 20 35  1  0
 22 36  1  0
M  CHG  2  13  -1  18  -1
M  END
>  <UniqueID>  (66) 
58

>  <SMILES>  (66) 
CN(Cc1cccc(O)c1)C(=O)[N-]c1ccc2[n-]ncc2c1

>  <Energy>  (66) 
75.42718871304542

>  <Genealogy>  (66) 
CN(Cc1cccc(O)c1)C(=O)[N-]c1ccc2[n-]ncc2c1 (protonated)
CN(Cc1cccc(O)c1)C(=O)[N-]c1ccc2[n-]ncc2c1 (3D coordinates assigned)
CN(Cc1cccc(O)c1)C(=O)[N-]c1ccc2[n-]ncc2c1 (optimized conformer: 75.42718871304542 kcal/mol)

>  <smiles>  (66) 
CN(Cc1cccc(O)c1)C(=O)Nc1ccc2[nH]ncc2c1

>  <score_type>  (66) 
oracle

>  <origin>  (66) 
adg

>  <m_score__min__energy>  (66) 
-9.7200000000000006

>  <m_primary>  (66) 
energy

$$$$
66:0
     RDKit          3D

 33 36  0  0  0  0  0  0  0  0999 V2000
   54.7690   29.3580   43.8120 O   0  0  0  0  0  0  0  0  0  0  0  0
   55.8140   29.4980   44.4980 C   0  0  0  0  0  0  0  0  0  0  0  0
   56.3230   28.4410   45.1790 N   0  0  0  0  0  0  0  0  0  0  0  0
   57.4450   28.5710   45.9310 C   0  0  0  0  0  0  0  0  0  0  0  0
   58.0990   29.8080   46.0210 C   0  0  0  0  0  0  0  0  0  0  0  0
   59.2630   29.9450   46.9280 C   0  0  0  0  0  0  0  0  0  0  0  0
   60.4920   30.4100   46.4360 C   0  0  0  0  0  0  0  0  0  0  0  0
   61.5810   30.5250   47.3040 C   0  0  0  0  0  0  0  0  0  0  0  0
   61.4510   30.1800   48.6120 N   0  0  0  0  0  0  0  0  0  0  0  0
   60.2760   29.7160   49.1130 C   0  0  0  0  0  0  0  0  0  0  0  0
   59.1620   29.5850   48.2800 C   0  0  0  0  0  0  0  0  0  0  0  0
   57.5660   30.8930   45.2830 C   0  0  0  0  0  0  0  0  0  0  0  0
   58.2180   32.2190   45.2270 C   0  0  0  0  0  0  0  0  0  0  0  0
   58.4540   32.9940   44.0910 C   0  0  0  0  0  0  0  0  0  0  0  0
   59.0110   34.1780   44.4300 N   0  0  0  0  0  0  0  0  0  0  0  0
   59.1200   34.1660   45.7700 C   0  0  0  0  0  0  0  0  0  0  0  0
   59.6360   35.1750   46.5810 C   0  0  0  0  0  0  0  0  0  0  0  0
   59.6580   34.9550   47.9710 C   0  0  0  0  0  0  0  0  0  0  0  0
   59.1710   33.7450   48.5110 C   0  0  0  0  0  0  0  0  0  0  0  0
   58.6560   32.7440   47.6670 C   0  0  0  0  0  0  0  0  0  0  0  0
   58.6410   32.9920   46.2930 C   0  0  0  0  0  0  0  0  0  0  0  0
   56.4350   30.7030   44.5510 N   0  0  0  0  0  0  0  0  0  0  0  0
   57.8438   27.7009   46.4731 H   0  0  0  0  0  0  0  0  0  0  0  0
   60.5974   30.6819   45.3754 H   0  0  0  0  0  0  0  0  0  0  0  0
   62.5459   30.8957   46.9276 H   0  0  0  0  0  0  0  0  0  0  0  0
   60.2019   29.4431   50.1760 H   0  0  0  0  0  0  0  0  0  0  0  0
   58.2122   29.2022   48.6816 H   0  0  0  0  0  0  0  0  0  0  0  0
   58.2192   32.6843   43.0619 H   0  0  0  0  0  0  0  0  0  0  0  0
   59.2870   34.9470   43.7810 H   0  0  0  0  0  0  0  0  0  0  0  0
   60.0140   36.1132   46.1487 H   0  0  0  0  0  0  0  0  0  0  0  0
   60.0572   35.7309   48.6408 H   0  0  0  0  0  0  0  0  0  0  0  0
   59.1943   33.5837   49.5989 H   0  0  0  0  0  0  0  0  0  0  0  0
   58.2772   31.7960   48.0766 H   0  0  0  0  0  0  0  0  0  0  0  0
  1  2  2  0
  2  3  1  0
  3  4  2  0
  4  5  1  0
  5  6  1  0
  6  7  2  0
  7  8  1  0
  8  9  2  0
  9 10  1  0
 10 11  2  0
  5 12  2  0
 12 13  1  0
 13 14  2  0
 14 15  1  0
 15 16  1  0
 16 17  2  0
 17 18  1  0
 18 19  2  0
 19 20  1  0
 20 21  2  0
 12 22  1  0
 22  2  1  0
 11  6  1  0
 21 13  1  0
 21 16  1  0
  4 23  1  0
  7 24  1  0
  8 25  1  0
 10 26  1  0
 11 27  1  0
 14 28  1  0
 15 29  1  0
 17 30  1  0
 18 31  1  0
 19 32  1  0
 20 33  1  0
M  CHG  1  22  -1
M  END
>  <UniqueID>  (67) 
59

>  <SMILES>  (67) 
O=c1ncc(-c2ccncc2)c(-c2c[nH]c3ccccc23)[n-]1

>  <Energy>  (67) 
83.97084851574728

>  <Genealogy>  (67) 
O=c1ncc(-c2ccncc2)c(-c2c[nH]c3ccccc23)[n-]1 (protonated)
O=c1ncc(-c2ccncc2)c(-c2c[nH]c3ccccc23)[n-]1 (3D coordinates assigned)
O=c1ncc(-c2ccncc2)c(-c2c[nH]c3ccccc23)[n-]1 (optimized conformer: 83.97084851574728 kcal/mol)

>  <smiles>  (67) 
O=c1ncc(-c2ccncc2)c(-c2c[nH]c3ccccc23)[nH]1

>  <score_type>  (67) 
oracle

>  <origin>  (67) 
adg

>  <m_score__min__energy>  (67) 
-9.0600000000000005

>  <m_primary>  (67) 
energy

$$$$
67:0
     RDKit          3D

 25 26  0  0  0  0  0  0  0  0999 V2000
   59.8560   34.0770   48.3550 C   0  0  0  0  0  0  0  0  0  0  0  0
   60.0470   34.9440   47.2750 C   0  0  0  0  0  0  0  0  0  0  0  0
   59.2480   34.8310   46.1340 C   0  0  0  0  0  0  0  0  0  0  0  0
   58.2420   33.8510   46.0690 C   0  0  0  0  0  0  0  0  0  0  0  0
   57.4030   33.7040   44.8280 C   0  0  0  0  0  0  0  0  0  0  0  0
   58.0750   32.7570   43.8330 C   0  0  0  0  0  0  0  0  0  0  0  0
   57.3610   31.4850   43.7910 N   0  0  0  0  0  0  0  0  0  0  0  0
   56.9750   30.8310   42.6810 C   0  0  0  0  0  0  0  0  0  0  0  0
   56.2760   29.7070   43.0630 C   0  0  0  0  0  0  0  0  0  0  0  0
   56.2690   29.7500   44.4450 C   0  0  0  0  0  0  0  0  0  0  0  0
   56.9290   30.8460   44.8660 N   0  0  0  0  0  0  0  0  0  0  0  0
   58.0650   32.9740   47.1530 C   0  0  0  0  0  0  0  0  0  0  0  0
   58.8680   33.0910   48.2920 C   0  0  0  0  0  0  0  0  0  0  0  0
   60.4831   34.1710   49.2538 H   0  0  0  0  0  0  0  0  0  0  0  0
   60.8281   35.7170   47.3235 H   0  0  0  0  0  0  0  0  0  0  0  0
   59.4067   35.5110   45.2840 H   0  0  0  0  0  0  0  0  0  0  0  0
   56.4179   33.2993   45.1034 H   0  0  0  0  0  0  0  0  0  0  0  0
   57.2905   34.6917   44.3570 H   0  0  0  0  0  0  0  0  0  0  0  0
   58.0644   33.2134   42.8322 H   0  0  0  0  0  0  0  0  0  0  0  0
   59.1125   32.5773   44.1513 H   0  0  0  0  0  0  0  0  0  0  0  0
   57.1819   31.1404   41.6459 H   0  0  0  0  0  0  0  0  0  0  0  0
   55.8235   28.9441   42.4125 H   0  0  0  0  0  0  0  0  0  0  0  0
   55.7967   29.0034   45.1003 H   0  0  0  0  0  0  0  0  0  0  0  0
   57.2921   32.1928   47.1053 H   0  0  0  0  0  0  0  0  0  0  0  0
   58.7215   32.4056   49.1398 H   0  0  0  0  0  0  0  0  0  0  0  0
  1  2  2  0
  2  3  1  0
  3  4  2  0
  4  5  1  0
  5  6  1  0
  6  7  1  0
  7  8  1  0
  8  9  2  0
  9 10  1  0
 10 11  2  0
  4 12  1  0
 12 13  2  0
 13  1  1  0
 11  7  1  0
  1 14  1  0
  2 15  1  0
  3 16  1  0
  5 17  1  0
  5 18  1  0
  6 19  1  0
  6 20  1  0
  8 21  1  0
  9 22  1  0
 10 23  1  0
 12 24  1  0
 13 25  1  0
M  END
>  <UniqueID>  (68) 
60

>  <SMILES>  (68) 
c1ccc(CCn2cccn2)cc1

>  <Energy>  (68) 
50.76375829804288

>  <Genealogy>  (68) 
c1ccc(CCn2cccn2)cc1 (3D coordinates assigned)
c1ccc(CCn2cccn2)cc1 (optimized conformer: 50.76375829804288 kcal/mol)

>  <smiles>  (68) 
c1ccc(CCn2cccn2)cc1

>  <score_type>  (68) 
oracle

>  <origin>  (68) 
adg

>  <m_score__min__energy>  (68) 
-5.71

>  <m_primary>  (68) 
energy

$$$$
68:0
     RDKit          3D

 36 38  0  0  1  0  0  0  0  0999 V2000
   56.6160   22.0120   48.9730 C   0  0  0  0  0  0  0  0  0  0  0  0
   57.3170   22.7500   47.9970 O   0  0  0  0  0  0  0  0  0  0  0  0
   56.6070   23.6290   47.1940 C   0  0  0  0  0  0  0  0  0  0  0  0
   55.3840   23.2700   46.6670 C   0  0  0  0  0  0  0  0  0  0  0  0
   54.6460   24.1150   45.8630 C   0  0  0  0  0  0  0  0  0  0  0  0
   55.1910   25.3750   45.5950 C   0  0  0  0  0  0  0  0  0  0  0  0
   56.4130   25.7590   46.1090 C   0  0  0  0  0  0  0  0  0  0  0  0
   56.9090   27.0910   45.7800 C   0  0  0  0  0  0  0  0  0  0  0  0
   58.1530   27.5840   45.9190 N   0  0  0  0  0  0  0  0  0  0  0  0
   58.1880   28.8310   45.5040 O   0  0  0  0  0  0  0  0  0  0  0  0
   56.9800   29.1440   45.1010 C   0  0  0  0  0  0  0  0  0  0  0  0
   56.5850   30.2540   44.6280 N   0  0  0  0  0  0  0  0  0  0  0  0
   57.3310   31.4480   44.8320 C   0  0  0  0  0  0  0  0  0  0  0  0
   57.7750   31.6980   46.1150 C   0  0  0  0  0  0  0  0  0  0  0  0
   58.5070   32.8240   46.4330 C   0  0  0  0  0  0  0  0  0  0  0  0
   58.8060   33.7370   45.4170 C   0  0  0  0  0  0  0  0  0  0  0  0
   59.5970   34.9450   45.7790 C   0  0  0  0  0  0  0  0  0  0  0  0
   58.3620   33.4850   44.1350 C   0  0  0  0  0  0  0  0  0  0  0  0
   57.6200   32.3420   43.8220 C   0  0  0  0  0  0  0  0  0  0  0  0
   56.1540   28.0700   45.2630 N   0  0  0  0  0  0  0  0  0  0  0  0
   57.1300   24.8930   46.9110 C   0  0  0  0  0  0  0  0  0  0  0  0
   56.9281   22.3405   49.9753 H   0  0  0  0  0  0  0  0  0  0  0  0
   55.5354   22.1784   48.8525 H   0  0  0  0  0  0  0  0  0  0  0  0
   56.8378   20.9413   48.8525 H   0  0  0  0  0  0  0  0  0  0  0  0
   54.9815   22.2723   46.8962 H   0  0  0  0  0  0  0  0  0  0  0  0
   53.6723   23.8110   45.4512 H   0  0  0  0  0  0  0  0  0  0  0  0
   54.6320   26.0771   44.9590 H   0  0  0  0  0  0  0  0  0  0  0  0
   57.5375   30.9759   46.9101 H   0  0  0  0  0  0  0  0  0  0  0  0
   58.8480   32.9995   47.4640 H   0  0  0  0  0  0  0  0  0  0  0  0
   59.6537   35.0316   46.8741 H   0  0  0  0  0  0  0  0  0  0  0  0
   60.6123   34.8560   45.3652 H   0  0  0  0  0  0  0  0  0  0  0  0
   59.1095   35.8401   45.3652 H   0  0  0  0  0  0  0  0  0  0  0  0
   58.5985   34.2038   43.3366 H   0  0  0  0  0  0  0  0  0  0  0  0
   57.2745   32.1598   42.7937 H   0  0  0  0  0  0  0  0  0  0  0  0
   55.1510   28.0440   45.0250 H   0  0  0  0  0  0  0  0  0  0  0  0
   58.1039   25.1958   47.3231 H   0  0  0  0  0  0  0  0  0  0  0  0
  1  2  1  0
  2  3  1  0
  3  4  2  0
  4  5  1  0
  5  6  2  0
  6  7  1  0
  7  8  1  0
  8  9  2  0
  9 10  1  0
 10 11  1  0
 11 12  2  0
 12 13  1  0
 13 14  2  0
 14 15  1  0
 15 16  2  0
 16 17  1  0
 16 18  1  0
 18 19  2  0
 11 20  1  0
  7 21  2  0
 21  3  1  0
 20  8  1  0
 19 13  1  0
  1 22  1  0
  1 23  1  0
  1 24  1  0
  4 25  1  0
  5 26  1  0
  6 27  1  0
 14 28  1  0
 15 29  1  0
 17 30  1  0
 17 31  1  0
 17 32  1  0
 18 33  1  0
 19 34  1  0
 20 35  1  0
 21 36  1  0
M  END
>  <smiles>  (69) 
COc1cccc(-c2noc(=Nc3ccc(C)cc3)[nH]2)c1

>  <score_type>  (69) 
oracle

>  <origin>  (69) 
adg

>  <m_score__min__energy>  (69) 
-7.6200000000000001

>  <m_primary>  (69) 
energy

$$$$
69:0
     RDKit          3D

 83 89  0  0  0  0  0  0  0  0999 V2000
   60.4870   31.3180   54.3200 C   0  0  0  0  0  0  0  0  0  0  0  0
   59.8230   30.0550   54.3940 O   0  0  0  0  0  0  0  0  0  0  0  0
   60.3230   28.8570   53.8590 C   0  0  0  0  0  0  0  0  0  0  0  0
   61.6840   28.6910   53.5370 C   0  0  0  0  0  0  0  0  0  0  0  0
   62.1430   27.4820   52.9820 C   0  0  0  0  0  0  0  0  0  0  0  0
   63.4840   27.3180   52.5830 C   0  0  0  0  0  0  0  0  0  0  0  0
   64.3840   28.3890   52.7400 O   0  0  0  0  0  0  0  0  0  0  0  0
   64.3500   29.5460   51.9550 C   0  0  0  0  0  0  0  0  0  0  0  0
   63.2300   29.8520   51.1700 C   0  0  0  0  0  0  0  0  0  0  0  0
   63.1950   31.0410   50.4340 C   0  0  0  0  0  0  0  0  0  0  0  0
   64.2800   31.9270   50.4690 C   0  0  0  0  0  0  0  0  0  0  0  0
   64.1640   33.1940   49.8020 N   0  0  0  0  0  0  0  0  0  0  0  0
   63.6620   33.3950   48.4740 C   0  0  0  0  0  0  0  0  0  0  0  0
   64.4900   33.4600   47.5230 O   0  0  0  0  0  0  0  0  0  0  0  0
   62.1930   33.4390   48.1920 C   0  0  0  0  0  0  0  0  0  0  0  0
   61.2940   33.0840   49.1560 N   0  0  0  0  0  0  0  0  0  0  0  0
   59.9680   33.1650   48.9780 N   0  0  0  0  0  0  0  0  0  0  0  0
   59.1280   32.9590   50.1360 C   0  0  0  0  0  0  0  0  0  0  0  0
   58.3000   31.8300   50.2160 C   0  0  0  0  0  0  0  0  0  0  0  0
   57.5530   31.5780   51.3720 C   0  0  0  0  0  0  0  0  0  0  0  0
   57.6390   32.4470   52.4630 C   0  0  0  0  0  0  0  0  0  0  0  0
   58.4640   33.5720   52.3950 C   0  0  0  0  0  0  0  0  0  0  0  0
   59.2130   33.8260   51.2410 C   0  0  0  0  0  0  0  0  0  0  0  0
   59.4450   33.4890   47.7460 C   0  0  0  0  0  0  0  0  0  0  0  0
   58.0540   33.4390   47.4800 C   0  0  0  0  0  0  0  0  0  0  0  0
   57.5520   33.7790   46.2230 C   0  0  0  0  0  0  0  0  0  0  0  0
   58.4190   34.1810   45.2080 C   0  0  0  0  0  0  0  0  0  0  0  0
   59.7950   34.2150   45.4410 C   0  0  0  0  0  0  0  0  0  0  0  0
   60.3240   33.8550   46.6990 C   0  0  0  0  0  0  0  0  0  0  0  0
   61.7080   33.8490   46.9340 C   0  0  0  0  0  0  0  0  0  0  0  0
   62.5080   34.1830   46.0140 O   0  0  0  0  0  0  0  0  0  0  0  0
   65.4390   31.5750   51.1870 C   0  0  0  0  0  0  0  0  0  0  0  0
   65.4640   30.3960   51.9380 C   0  0  0  0  0  0  0  0  0  0  0  0
   66.5640   30.0920   52.6730 F   0  0  0  0  0  0  0  0  0  0  0  0
   63.8850   26.0870   52.0330 C   0  0  0  0  0  0  0  0  0  0  0  0
   62.9560   25.0500   51.9030 C   0  0  0  0  0  0  0  0  0  0  0  0
   61.6630   25.2370   52.2720 N   0  0  0  0  0  0  0  0  0  0  0  0
   61.2330   26.4160   52.7940 C   0  0  0  0  0  0  0  0  0  0  0  0
   59.8850   26.5790   53.1220 C   0  0  0  0  0  0  0  0  0  0  0  0
   59.4180   27.8080   53.6200 C   0  0  0  0  0  0  0  0  0  0  0  0
   58.0540   28.0390   53.8640 O   0  0  0  0  0  0  0  0  0  0  0  0
   57.2130   28.9060   53.0950 C   0  0  0  0  0  0  0  0  0  0  0  0
   55.8460   29.1300   53.7640 C   0  0  0  0  0  0  0  0  0  0  0  0
   54.6860   29.0810   52.7540 C   0  0  0  0  0  0  0  0  0  0  0  0
   54.0160   30.3950   52.6370 N   0  0  0  0  0  0  0  0  0  0  0  0
   53.7350   30.7130   51.2320 C   0  0  0  0  0  0  0  0  0  0  0  0
   52.5420   31.6500   51.2290 C   0  0  0  0  0  0  0  0  0  0  0  0
   51.7820   31.3240   52.5000 C   0  0  0  0  0  0  0  0  0  0  0  0
   52.7090   30.4290   53.3160 C   0  0  0  0  0  0  0  0  0  0  0  0
   60.6824   31.6897   55.3367 H   0  0  0  0  0  0  0  0  0  0  0  0
   61.4399   31.2004   53.7832 H   0  0  0  0  0  0  0  0  0  0  0  0
   59.8499   32.0363   53.7832 H   0  0  0  0  0  0  0  0  0  0  0  0
   62.3929   29.5118   53.7205 H   0  0  0  0  0  0  0  0  0  0  0  0
   62.3782   29.1569   51.1326 H   0  0  0  0  0  0  0  0  0  0  0  0
   62.3113   31.2817   49.8247 H   0  0  0  0  0  0  0  0  0  0  0  0
   61.6390   32.7840   50.0900 H   0  0  0  0  0  0  0  0  0  0  0  0
   58.2373   31.1374   49.3637 H   0  0  0  0  0  0  0  0  0  0  0  0
   56.8980   30.6957   51.4220 H   0  0  0  0  0  0  0  0  0  0  0  0
   57.0574   32.2452   53.3746 H   0  0  0  0  0  0  0  0  0  0  0  0
   58.5250   34.2601   53.2510 H   0  0  0  0  0  0  0  0  0  0  0  0
   59.8707   34.7066   51.1973 H   0  0  0  0  0  0  0  0  0  0  0  0
   57.3605   33.1280   48.2751 H   0  0  0  0  0  0  0  0  0  0  0  0
   56.4697   33.7297   46.0327 H   0  0  0  0  0  0  0  0  0  0  0  0
   58.0195   34.4710   44.2250 H   0  0  0  0  0  0  0  0  0  0  0  0
   60.4752   34.5261   44.6344 H   0  0  0  0  0  0  0  0  0  0  0  0
   66.3242   32.2273   51.1570 H   0  0  0  0  0  0  0  0  0  0  0  0
   64.9252   25.9407   51.7065 H   0  0  0  0  0  0  0  0  0  0  0  0
   63.2746   24.0775   51.4996 H   0  0  0  0  0  0  0  0  0  0  0  0
   59.1849   25.7409   52.9899 H   0  0  0  0  0  0  0  0  0  0  0  0
   57.7155   29.8779   52.9810 H   0  0  0  0  0  0  0  0  0  0  0  0
   57.0382   28.4298   52.1190 H   0  0  0  0  0  0  0  0  0  0  0  0
   55.6898   28.3467   54.5203 H   0  0  0  0  0  0  0  0  0  0  0  0
   55.8541   30.1317   54.2185 H   0  0  0  0  0  0  0  0  0  0  0  0
   55.0811   28.7918   51.7690 H   0  0  0  0  0  0  0  0  0  0  0  0
   53.9482   28.3467   53.1096 H   0  0  0  0  0  0  0  0  0  0  0  0
   54.6051   31.2052   50.7731 H   0  0  0  0  0  0  0  0  0  0  0  0
   53.5243   29.8013   50.6538 H   0  0  0  0  0  0  0  0  0  0  0  0
   52.8743   32.6986   51.2357 H   0  0  0  0  0  0  0  0  0  0  0  0
   51.9191   31.5221   50.3314 H   0  0  0  0  0  0  0  0  0  0  0  0
   51.5506   32.2448   53.0556 H   0  0  0  0  0  0  0  0  0  0  0  0
   50.8240   30.8281   52.2848 H   0  0  0  0  0  0  0  0  0  0  0  0
   52.8252   30.8372   54.3308 H   0  0  0  0  0  0  0  0  0  0  0  0
   52.2912   29.4146   53.3956 H   0  0  0  0  0  0  0  0  0  0  0  0
  1  2  1  0
  2  3  1  0
  3  4  2  0
  4  5  1  0
  5  6  2  0
  6  7  1  0
  7  8  1  0
  8  9  2  0
  9 10  1  0
 10 11  2  0
 11 12  1  0
 12 13  1  0
 13 14  2  0
 13 15  1  0
 15 16  2  0
 16 17  1  0
 17 18  1  0
 18 19  2  0
 19 20  1  0
 20 21  2  0
 21 22  1  0
 22 23  2  0
 17 24  1  0
 24 25  2  0
 25 26  1  0
 26 27  2  0
 27 28  1  0
 28 29  2  0
 29 30  1  0
 30 31  2  0
 11 32  1  0
 32 33  2  0
 33 34  1  0
  6 35  1  0
 35 36  2  0
 36 37  1  0
 37 38  2  0
 38 39  1  0
 39 40  2  0
 40 41  1  0
 41 42  1  0
 42 43  1  0
 43 44  1  0
 44 45  1  0
 45 46  1  0
 46 47  1  0
 47 48  1  0
 48 49  1  0
 40  3  1  0
 49 45  1  0
 38  5  1  0
 33  8  1  0
 30 15  1  0
 23 18  1  0
 29 24  1  0
  1 50  1  0
  1 51  1  0
  1 52  1  0
  4 53  1  0
  9 54  1  0
 10 55  1  0
 16 56  1  0
 19 57  1  0
 20 58  1  0
 21 59  1  0
 22 60  1  0
 23 61  1  0
 25 62  1  0
 26 63  1  0
 27 64  1  0
 28 65  1  0
 32 66  1  0
 35 67  1  0
 36 68  1  0
 39 69  1  0
 42 70  1  0
 42 71  1  0
 43 72  1  0
 43 73  1  0
 44 74  1  0
 44 75  1  0
 46 76  1  0
 46 77  1  0
 47 78  1  0
 47 79  1  0
 48 80  1  0
 48 81  1  0
 49 82  1  0
 49 83  1  0
M  CHG  2  12  -1  16   1
M  END
>  <UniqueID>  (70) 
61

>  <SMILES>  (70) 
COc1cc2c(Oc3ccc([N-]C(=O)c4[nH+]n(-c5ccccc5)c5ccccc5c4=O)cc3F)ccnc2cc1OCCCN1CCCC1

>  <Energy>  (70) 
133.23676241960078

>  <Genealogy>  (70) 
COc1cc2c(Oc3ccc([N-]C(=O)c4[nH+]n(-c5ccccc5)c5ccccc5c4=O)cc3F)ccnc2cc1OCCCN1CCCC1 (protonated)
COc1cc2c(Oc3ccc([N-]C(=O)c4[nH+]n(-c5ccccc5)c5ccccc5c4=O)cc3F)ccnc2cc1OCCCN1CCCC1 (3D coordinates assigned)
COc1cc2c(Oc3ccc([N-]C(=O)c4[nH+]n(-c5ccccc5)c5ccccc5c4=O)cc3F)ccnc2cc1OCCCN1CCCC1 (nonaromatic ring conformer: 133.23676241960078 kcal/mol)

>  <smiles>  (70) 
COc1cc2c(Oc3ccc(NC(=O)c4nn(-c5ccccc5)c5ccccc5c4=O)cc3F)ccnc2cc1OCCCN1CCCC1

>  <score_type>  (70) 
oracle

>  <origin>  (70) 
adg

>  <m_score__min__energy>  (70) 
-8.8200000000000003

>  <m_primary>  (70) 
energy

$$$$
70:0
     RDKit          3D

 33 35  0  0  0  0  0  0  0  0999 V2000
   55.2310   26.7040   45.9780 N   0  0  0  0  0  0  0  0  0  0  0  0
   56.1700   25.8620   46.6430 C   0  0  0  0  0  0  0  0  0  0  0  0
   55.8740   24.6630   46.8890 O   0  0  0  0  0  0  0  0  0  0  0  0
   57.5230   26.3910   47.0040 C   0  0  0  0  0  0  0  0  0  0  0  0
   58.2540   26.8930   45.7590 C   0  0  0  0  0  0  0  0  0  0  0  0
   57.8520   28.2640   45.4610 N   0  0  0  0  0  0  0  0  0  0  0  0
   58.4690   29.3820   45.8940 C   0  0  0  0  0  0  0  0  0  0  0  0
   57.8300   30.4720   45.3270 C   0  0  0  0  0  0  0  0  0  0  0  0
   58.2050   31.8950   45.4730 C   0  0  0  0  0  0  0  0  0  0  0  0
   58.1650   32.7610   44.3560 C   0  0  0  0  0  0  0  0  0  0  0  0
   58.4990   34.1260   44.4860 C   0  0  0  0  0  0  0  0  0  0  0  0
   58.8850   34.6510   45.7300 C   0  0  0  0  0  0  0  0  0  0  0  0
   58.9320   33.7820   46.8170 C   0  0  0  0  0  0  0  0  0  0  0  0
   59.3170   34.0780   48.0690 N   0  0  0  0  0  0  0  0  0  0  0  0
   59.2530   32.9200   48.7600 C   0  0  0  0  0  0  0  0  0  0  0  0
   58.8210   31.8820   47.9420 C   0  0  0  0  0  0  0  0  0  0  0  0
   58.6070   32.4520   46.7000 C   0  0  0  0  0  0  0  0  0  0  0  0
   56.8330   29.9350   44.5260 C   0  0  0  0  0  0  0  0  0  0  0  0
   56.8770   28.5940   44.6320 N   0  0  0  0  0  0  0  0  0  0  0  0
   55.5400   27.3700   45.2360 H   0  0  0  0  0  0  0  0  0  0  0  0
   57.4082   27.2220   47.7155 H   0  0  0  0  0  0  0  0  0  0  0  0
   58.1114   25.5800   47.4579 H   0  0  0  0  0  0  0  0  0  0  0  0
   59.3391   26.8624   45.9369 H   0  0  0  0  0  0  0  0  0  0  0  0
   57.9967   26.2484   44.9056 H   0  0  0  0  0  0  0  0  0  0  0  0
   59.3295   29.4214   46.5781 H   0  0  0  0  0  0  0  0  0  0  0  0
   57.8697   32.3656   43.3729 H   0  0  0  0  0  0  0  0  0  0  0  0
   58.4566   34.7842   43.6056 H   0  0  0  0  0  0  0  0  0  0  0  0
   59.1420   35.7147   45.8421 H   0  0  0  0  0  0  0  0  0  0  0  0
   59.6270   35.0070   48.4320 H   0  0  0  0  0  0  0  0  0  0  0  0
   59.5078   32.8124   49.8247 H   0  0  0  0  0  0  0  0  0  0  0  0
   58.6791   30.8282   48.2236 H   0  0  0  0  0  0  0  0  0  0  0  0
   56.1259   30.5083   43.9085 H   0  0  0  0  0  0  0  0  0  0  0  0
   56.2680   27.9160   44.1220 H   0  0  0  0  0  0  0  0  0  0  0  0
  1  2  1  0
  2  3  2  0
  2  4  1  0
  4  5  1  0
  5  6  1  0
  6  7  1  0
  7  8  2  0
  8  9  1  0
  9 10  2  0
 10 11  1  0
 11 12  2  0
 12 13  1  0
 13 14  1  0
 14 15  1  0
 15 16  2  0
 16 17  1  0
  8 18  1  0
 18 19  2  0
 19  6  1  0
 17  9  1  0
 17 13  2  0
  1 20  1  0
  4 21  1  0
  4 22  1  0
  5 23  1  0
  5 24  1  0
  7 25  1  0
 10 26  1  0
 11 27  1  0
 12 28  1  0
 14 29  1  0
 15 30  1  0
 16 31  1  0
 18 32  1  0
 19 33  1  0
M  CHG  2   1  -1  19   1
M  END
>  <UniqueID>  (71) 
62

>  <SMILES>  (71) 
[NH-]C(=O)CCn1cc(-c2cccc3[nH]ccc23)c[nH+]1

>  <Energy>  (71) 
96.89463353713802

>  <Genealogy>  (71) 
[NH-]C(=O)CCn1cc(-c2cccc3[nH]ccc23)c[nH+]1 (protonated)
[NH-]C(=O)CCn1cc(-c2cccc3[nH]ccc23)c[nH+]1 (3D coordinates assigned)
[NH-]C(=O)CCn1cc(-c2cccc3[nH]ccc23)c[nH+]1 (optimized conformer: 96.89463353713802 kcal/mol)

>  <smiles>  (71) 
NC(=O)CCn1cc(-c2cccc3[nH]ccc23)cn1

>  <score_type>  (71) 
oracle

>  <origin>  (71) 
adg

>  <m_score__min__energy>  (71) 
-8.8499999999999996

>  <m_primary>  (71) 
energy

$$$$
71:0
     RDKit          3D

 56 60  0  0  0  0  0  0  0  0999 V2000
   54.8550   23.3430   45.4300 H   0  0  0  0  0  0  0  0  0  0  0  0
   54.7240   24.1670   46.0550 N   0  0  0  0  0  0  0  0  0  0  0  0
   55.5700   25.1470   46.1190 C   0  0  0  0  0  0  0  0  0  0  0  0
   55.2890   26.3820   45.6360 N   0  0  0  0  0  0  0  0  0  0  0  0
   54.4080   26.7130   45.1840 H   0  0  0  0  0  0  0  0  0  0  0  0
   56.4130   27.0820   45.8650 C   0  0  0  0  0  0  0  0  0  0  0  0
   56.6680   28.4160   45.5640 C   0  0  0  0  0  0  0  0  0  0  0  0
   55.9072   29.0413   45.0738 H   0  0  0  0  0  0  0  0  0  0  0  0
   57.9350   28.9450   45.9070 C   0  0  0  0  0  0  0  0  0  0  0  0
   58.2350   30.3690   45.6200 C   0  0  0  0  0  0  0  0  0  0  0  0
   57.9280   30.9200   44.3640 C   0  0  0  0  0  0  0  0  0  0  0  0
   57.4897   30.2825   43.5820 H   0  0  0  0  0  0  0  0  0  0  0  0
   58.1740   32.2690   44.0990 C   0  0  0  0  0  0  0  0  0  0  0  0
   57.9222   32.6896   43.1143 H   0  0  0  0  0  0  0  0  0  0  0  0
   58.7410   33.0880   45.0850 C   0  0  0  0  0  0  0  0  0  0  0  0
   58.9730   34.4500   44.8350 C   0  0  0  0  0  0  0  0  0  0  0  0
   58.7131   34.8814   43.8571 H   0  0  0  0  0  0  0  0  0  0  0  0
   59.5340   35.2580   45.8280 C   0  0  0  0  0  0  0  0  0  0  0  0
   59.7119   36.3253   45.6301 H   0  0  0  0  0  0  0  0  0  0  0  0
   59.8700   34.7150   47.0720 C   0  0  0  0  0  0  0  0  0  0  0  0
   60.3152   35.3555   47.8476 H   0  0  0  0  0  0  0  0  0  0  0  0
   59.6420   33.3610   47.3330 C   0  0  0  0  0  0  0  0  0  0  0  0
   59.9078   32.9387   48.3133 H   0  0  0  0  0  0  0  0  0  0  0  0
   59.0740   32.5380   46.3460 C   0  0  0  0  0  0  0  0  0  0  0  0
   58.8240   31.1810   46.6040 C   0  0  0  0  0  0  0  0  0  0  0  0
   59.0904   30.7513   47.5809 H   0  0  0  0  0  0  0  0  0  0  0  0
   58.9160   28.1080   46.5160 C   0  0  0  0  0  0  0  0  0  0  0  0
   60.1870   28.6390   46.7950 O   0  0  0  0  0  0  0  0  0  0  0  0
   60.6730   28.9210   48.1040 C   0  0  0  0  0  0  0  0  0  0  0  0
   59.9738   28.5153   48.8500 H   0  0  0  0  0  0  0  0  0  0  0  0
   61.6610   28.4559   48.2364 H   0  0  0  0  0  0  0  0  0  0  0  0
   60.7595   30.0096   48.2364 H   0  0  0  0  0  0  0  0  0  0  0  0
   58.6060   26.7570   46.8080 C   0  0  0  0  0  0  0  0  0  0  0  0
   59.3445   26.0987   47.2889 H   0  0  0  0  0  0  0  0  0  0  0  0
   57.3390   26.2850   46.4690 C   0  0  0  0  0  0  0  0  0  0  0  0
   56.8220   25.0520   46.6510 N   0  0  0  0  0  0  0  0  0  0  0  0
   57.4880   23.9030   47.2750 C   0  0  0  0  0  0  0  0  0  0  0  0
   58.5733   23.9883   47.1176 H   0  0  0  0  0  0  0  0  0  0  0  0
   57.2508   23.9038   48.3491 H   0  0  0  0  0  0  0  0  0  0  0  0
   56.9970   22.5820   46.6700 C   0  0  0  0  0  0  0  0  0  0  0  0
   56.9606   21.8136   47.4563 H   0  0  0  0  0  0  0  0  0  0  0  0
   55.9935   22.7328   46.2454 H   0  0  0  0  0  0  0  0  0  0  0  0
   57.9150   22.1390   45.5950 N   0  0  0  0  0  0  0  0  0  0  0  0
   58.0990   23.1790   44.5650 C   0  0  0  0  0  0  0  0  0  0  0  0
   58.3568   24.1284   45.0571 H   0  0  0  0  0  0  0  0  0  0  0  0
   58.9054   22.8580   43.8892 H   0  0  0  0  0  0  0  0  0  0  0  0
   56.8110   23.3790   43.7270 C   0  0  0  0  0  0  0  0  0  0  0  0
   56.2984   24.2853   44.0818 H   0  0  0  0  0  0  0  0  0  0  0  0
   57.1127   23.4661   42.6728 H   0  0  0  0  0  0  0  0  0  0  0  0
   55.9120   22.2810   43.8250 O   0  0  0  0  0  0  0  0  0  0  0  0
   56.6200   21.0630   43.7330 C   0  0  0  0  0  0  0  0  0  0  0  0
   55.9028   20.2325   43.6561 H   0  0  0  0  0  0  0  0  0  0  0  0
   57.2636   21.0925   42.8415 H   0  0  0  0  0  0  0  0  0  0  0  0
   57.5040   20.8560   44.9790 C   0  0  0  0  0  0  0  0  0  0  0  0
   56.9391   20.2722   45.7207 H   0  0  0  0  0  0  0  0  0  0  0  0
   58.4150   20.3274   44.6617 H   0  0  0  0  0  0  0  0  0  0  0  0
  1  2  1  0
  2  3  2  0
  3  4  1  0
  4  5  1  0
  4  6  1  0
  6  7  2  0
  7  8  1  0
  7  9  1  0
  9 10  1  0
 10 11  2  0
 11 12  1  0
 11 13  1  0
 13 14  1  0
 13 15  2  0
 15 16  1  0
 16 17  1  0
 16 18  2  0
 18 19  1  0
 18 20  1  0
 20 21  1  0
 20 22  2  0
 22 23  1  0
 22 24  1  0
 24 25  2  0
 25 26  1  0
  9 27  2  0
 27 28  1  0
 28 29  1  0
 29 30  1  0
 29 31  1  0
 29 32  1  0
 27 33  1  0
 33 34  1  0
 33 35  2  0
 35 36  1  0
 36 37  1  0
 37 38  1  0
 37 39  1  0
 37 40  1  0
 40 41  1  0
 40 42  1  0
 40 43  1  0
 43 44  1  0
 44 45  1  0
 44 46  1  0
 44 47  1  0
 47 48  1  0
 47 49  1  0
 47 50  1  0
 50 51  1  0
 51 52  1  0
 51 53  1  0
 51 54  1  0
 54 55  1  0
 54 56  1  0
 36  3  1  0
 54 43  1  0
 35  6  1  0
 25 10  1  0
 24 15  1  0
M  END
>  <UniqueID>  (72) 
63

>  <SMILES>  (72) 
[H]/N=c1/[nH]c2cc(-c3ccc4ccccc4c3)c(OC)cc2n1CCN1CCOCC1

>  <Energy>  (72) 
121.89630215961527

>  <Genealogy>  (72) 
[H]/N=c1/[nH]c2cc(-c3ccc4ccccc4c3)c(OC)cc2n1CCN1CCOCC1 (cis-trans isomerization)
[H]/N=c1/[nH]c2cc(-c3ccc4ccccc4c3)c(OC)cc2n1CCN1CCOCC1 (3D coordinates assigned)
[H]/N=c1/[nH]c2cc(-c3ccc4ccccc4c3)c(OC)cc2n1CCN1CCOCC1 (nonaromatic ring conformer: 121.89630215961527 kcal/mol)

>  <smiles>  (72) 
COc1cc2c(cc1-c1ccc3ccccc3c1)[nH]c(=N)n2CCN1CCOCC1

>  <score_type>  (72) 
oracle

>  <origin>  (72) 
adg

>  <m_score__min__energy>  (72) 
-9.2100000000000009

>  <m_primary>  (72) 
energy

$$$$
72:0
     RDKit          3D

 35 37  0  0  0  0  0  0  0  0999 V2000
   56.6590   33.4280   43.7730 H   0  0  0  0  0  0  0  0  0  0  0  0
   57.1300   33.5130   44.7010 N   0  0  0  0  0  0  0  0  0  0  0  0
   57.8040   32.5490   45.2480 C   0  0  0  0  0  0  0  0  0  0  0  0
   58.7590   32.8800   46.2180 O   0  0  0  0  0  0  0  0  0  0  0  0
   59.5130   31.8960   46.8500 C   0  0  0  0  0  0  0  0  0  0  0  0
   59.4480   30.5740   46.4590 C   0  0  0  0  0  0  0  0  0  0  0  0
   60.5540   29.6880   47.3700 S   0  0  0  0  0  0  0  0  0  0  0  0
   61.0760   30.9940   48.3030 C   0  0  0  0  0  0  0  0  0  0  0  0
   62.0520   30.9080   49.4270 C   0  0  0  0  0  0  0  0  0  0  0  0
   61.5132   30.9555   50.3849 H   0  0  0  0  0  0  0  0  0  0  0  0
   62.6025   29.9579   49.3627 H   0  0  0  0  0  0  0  0  0  0  0  0
   62.7602   31.7472   49.3627 H   0  0  0  0  0  0  0  0  0  0  0  0
   60.4020   32.1430   47.9010 C   0  0  0  0  0  0  0  0  0  0  0  0
   60.5513   33.1325   48.3577 H   0  0  0  0  0  0  0  0  0  0  0  0
   58.6970   30.1350   45.2340 C   0  0  1  0  0  0  0  0  0  0  0  0
   59.3880   30.1971   44.3804 H   0  0  0  0  0  0  0  0  0  0  0  0
   58.2410   28.6910   45.3560 C   0  0  0  0  0  0  0  0  0  0  0  0
   59.1580   27.6460   45.1690 C   0  0  0  0  0  0  0  0  0  0  0  0
   60.2103   27.8763   44.9460 H   0  0  0  0  0  0  0  0  0  0  0  0
   58.7440   26.3130   45.2640 C   0  0  0  0  0  0  0  0  0  0  0  0
   59.4733   25.5021   45.1207 H   0  0  0  0  0  0  0  0  0  0  0  0
   57.3990   26.0040   45.5420 C   0  0  0  0  0  0  0  0  0  0  0  0
   56.9410   24.6810   45.6470 O   0  0  0  0  0  0  0  0  0  0  0  0
   56.3970   23.9290   44.5670 C   0  0  0  0  0  0  0  0  0  0  0  0
   55.7959   23.0981   44.9649 H   0  0  0  0  0  0  0  0  0  0  0  0
   55.7597   24.5804   43.9509 H   0  0  0  0  0  0  0  0  0  0  0  0
   57.2151   23.5276   43.9509 H   0  0  0  0  0  0  0  0  0  0  0  0
   56.4810   27.0480   45.7210 C   0  0  0  0  0  0  0  0  0  0  0  0
   55.1480   26.7630   45.9940 O   0  0  0  0  0  0  0  0  0  0  0  0
   56.8970   28.3800   45.6250 C   0  0  0  0  0  0  0  0  0  0  0  0
   56.1662   29.1908   45.7612 H   0  0  0  0  0  0  0  0  0  0  0  0
   57.4920   31.0820   44.9400 C   0  0  2  0  0  0  0  0  0  0  0  0
   56.6658   30.8077   45.6124 H   0  0  0  0  0  0  0  0  0  0  0  0
   57.0680   30.9010   43.5380 C   0  0  0  0  0  0  0  0  0  0  0  0
   56.7360   30.7570   42.4390 N   0  0  0  0  0  0  0  0  0  0  0  0
  1  2  1  0
  2  3  2  0
  3  4  1  0
  4  5  1  0
  5  6  2  0
  6  7  1  0
  7  8  1  0
  8  9  1  0
  9 10  1  0
  9 11  1  0
  9 12  1  0
  8 13  2  0
 13 14  1  0
  6 15  1  0
 15 16  1  6
 15 17  1  0
 17 18  2  0
 18 19  1  0
 18 20  1  0
 20 21  1  0
 20 22  2  0
 22 23  1  0
 23 24  1  0
 24 25  1  0
 24 26  1  0
 24 27  1  0
 22 28  1  0
 28 29  1  0
 28 30  2  0
 30 31  1  0
 15 32  1  0
 32 33  1  1
 32 34  1  0
 34 35  3  0
 32  3  1  0
 13  5  1  0
 30 17  1  0
M  CHG  1  29  -1
M  END
>  <UniqueID>  (73) 
64

>  <SMILES>  (73) 
[H]/N=C1/Oc2cc(C)sc2[C@@H](c2ccc(OC)c([O-])c2)[C@@H]1C#N

>  <Energy>  (73) 
66.12619610095591

>  <Genealogy>  (73) 
COc1ccc(C2c3sc(C)cc3OC(=N)C2C#N)cc1[O-] (protonated)
COc1ccc([C@@H]2c3sc(C)cc3OC(=N)[C@H]2C#N)cc1[O-] (chirality)
[H]/N=C1/Oc2cc(C)sc2[C@@H](c2ccc(OC)c([O-])c2)[C@@H]1C#N (cis-trans isomerization)
[H]/N=C1/Oc2cc(C)sc2[C@@H](c2ccc(OC)c([O-])c2)[C@@H]1C#N (3D coordinates assigned)
[H]/N=C1/Oc2cc(C)sc2[C@@H](c2ccc(OC)c([O-])c2)[C@@H]1C#N (nonaromatic ring conformer: 66.12619610095591 kcal/mol)

>  <smiles>  (73) 
COc1ccc(C2c3sc(C)cc3OC(=N)C2C#N)cc1O

>  <score_type>  (73) 
oracle

>  <origin>  (73) 
adg

>  <m_score__min__energy>  (73) 
-10.630000000000001

>  <m_primary>  (73) 
energy

$$$$
73:0
     RDKit          3D

 60 63  0  0  0  0  0  0  0  0999 V2000
   55.5109   24.8850   46.7381 H   0  0  0  0  0  0  0  0  0  0  0  0
   56.1530   25.5940   46.1950 C   0  0  0  0  0  0  0  0  0  0  0  0
   55.7150   26.8590   45.9580 N   0  0  0  0  0  0  0  0  0  0  0  0
   56.4700   27.7670   45.2860 C   0  0  0  0  0  0  0  0  0  0  0  0
   55.9350   29.0720   45.0260 N   0  0  0  0  0  0  0  0  0  0  0  0
   56.5870   30.0770   44.5100 C   0  0  0  0  0  0  0  0  0  0  0  0
   56.5250   30.2730   43.1650 N   0  0  0  0  0  0  0  0  0  0  0  0
   57.1930   31.2810   42.5460 C   0  0  0  0  0  0  0  0  0  0  0  0
   57.1093   31.4069   41.4564 H   0  0  0  0  0  0  0  0  0  0  0  0
   57.9850   32.1570   43.2890 C   0  0  0  0  0  0  0  0  0  0  0  0
   58.5224   32.9758   42.7882 H   0  0  0  0  0  0  0  0  0  0  0  0
   58.0930   31.9890   44.6780 C   0  0  0  0  0  0  0  0  0  0  0  0
   58.9310   32.9030   45.4950 C   0  0  0  0  0  0  0  0  0  0  0  0
   58.7590   34.2970   45.4130 C   0  0  0  0  0  0  0  0  0  0  0  0
   58.0283   34.7174   44.7063 H   0  0  0  0  0  0  0  0  0  0  0  0
   59.5110   35.1500   46.2240 C   0  0  0  0  0  0  0  0  0  0  0  0
   59.3688   36.2385   46.1538 H   0  0  0  0  0  0  0  0  0  0  0  0
   60.4430   34.6270   47.1240 C   0  0  0  0  0  0  0  0  0  0  0  0
   61.0191   35.3036   47.7723 H   0  0  0  0  0  0  0  0  0  0  0  0
   60.6460   33.2410   47.2030 C   0  0  0  0  0  0  0  0  0  0  0  0
   61.6240   32.6670   48.1930 C   0  0  0  0  0  0  0  0  0  0  0  0
   61.1923   31.7614   48.6441 H   0  0  0  0  0  0  0  0  0  0  0  0
   61.8258   33.4197   48.9694 H   0  0  0  0  0  0  0  0  0  0  0  0
   62.9440   32.3050   47.5000 C   0  0  0  0  0  0  0  0  0  0  0  0
   62.7608   31.4941   46.7797 H   0  0  0  0  0  0  0  0  0  0  0  0
   63.6648   31.9858   48.2672 H   0  0  0  0  0  0  0  0  0  0  0  0
   63.5250   33.5070   46.7600 C   0  0  0  0  0  0  0  0  0  0  0  0
   63.8834   34.2484   47.4893 H   0  0  0  0  0  0  0  0  0  0  0  0
   64.3638   33.1785   46.1287 H   0  0  0  0  0  0  0  0  0  0  0  0
   62.7465   33.9603   46.1287 H   0  0  0  0  0  0  0  0  0  0  0  0
   59.8860   32.3860   46.3890 C   0  0  0  0  0  0  0  0  0  0  0  0
   60.0393   31.2985   46.4511 H   0  0  0  0  0  0  0  0  0  0  0  0
   57.3860   30.9400   45.2900 C   0  0  0  0  0  0  0  0  0  0  0  0
   57.4554   30.7915   46.3777 H   0  0  0  0  0  0  0  0  0  0  0  0
   57.7560   27.4170   44.8530 C   0  0  0  0  0  0  0  0  0  0  0  0
   58.3893   28.1556   44.3397 H   0  0  0  0  0  0  0  0  0  0  0  0
   58.2250   26.1240   45.0790 C   0  0  0  0  0  0  0  0  0  0  0  0
   59.2279   25.8364   44.7306 H   0  0  0  0  0  0  0  0  0  0  0  0
   57.4230   25.1880   45.7490 C   0  0  0  0  0  0  0  0  0  0  0  0
   57.8720   23.8280   45.9220 N   0  0  0  0  0  0  0  0  0  0  0  0
   59.0790   23.3570   45.2340 C   0  0  0  0  0  0  0  0  0  0  0  0
   59.2140   23.9305   44.3051 H   0  0  0  0  0  0  0  0  0  0  0  0
   59.9461   23.5002   45.8955 H   0  0  0  0  0  0  0  0  0  0  0  0
   58.9520   21.8610   44.8930 C   0  0  0  0  0  0  0  0  0  0  0  0
   59.5935   21.6373   44.0279 H   0  0  0  0  0  0  0  0  0  0  0  0
   59.2619   21.2816   45.7752 H   0  0  0  0  0  0  0  0  0  0  0  0
   57.5550   21.4880   44.5640 N   0  0  0  0  0  0  0  0  0  0  0  0
   57.0430   22.1300   43.3290 C   0  0  0  0  0  0  0  0  0  0  0  0
   57.8348   22.7646   42.9044 H   0  0  0  0  0  0  0  0  0  0  0  0
   56.7520   21.3337   42.6282 H   0  0  0  0  0  0  0  0  0  0  0  0
   55.8100   22.9940   43.6000 C   0  0  0  0  0  0  0  0  0  0  0  0
   55.6649   23.0957   44.6856 H   0  0  0  0  0  0  0  0  0  0  0  0
   55.9547   23.9893   43.1546 H   0  0  0  0  0  0  0  0  0  0  0  0
   54.9238   22.5183   43.1546 H   0  0  0  0  0  0  0  0  0  0  0  0
   56.6400   21.6990   45.7190 C   0  0  0  0  0  0  0  0  0  0  0  0
   55.6385   21.9345   45.3297 H   0  0  0  0  0  0  0  0  0  0  0  0
   56.6536   20.7728   46.3123 H   0  0  0  0  0  0  0  0  0  0  0  0
   57.0780   22.8420   46.6590 C   0  0  0  0  0  0  0  0  0  0  0  0
   56.1855   23.3322   47.0751 H   0  0  0  0  0  0  0  0  0  0  0  0
   57.6903   22.4234   47.4714 H   0  0  0  0  0  0  0  0  0  0  0  0
  1  2  1  0
  2  3  2  0
  3  4  1  0
  4  5  1  0
  5  6  2  0
  6  7  1  0
  7  8  1  0
  8  9  1  0
  8 10  2  0
 10 11  1  0
 10 12  1  0
 12 13  1  0
 13 14  2  0
 14 15  1  0
 14 16  1  0
 16 17  1  0
 16 18  2  0
 18 19  1  0
 18 20  1  0
 20 21  1  0
 21 22  1  0
 21 23  1  0
 21 24  1  0
 24 25  1  0
 24 26  1  0
 24 27  1  0
 27 28  1  0
 27 29  1  0
 27 30  1  0
 20 31  2  0
 31 32  1  0
 12 33  2  0
 33 34  1  0
  4 35  2  0
 35 36  1  0
 35 37  1  0
 37 38  1  0
 37 39  2  0
 39 40  1  0
 40 41  1  0
 41 42  1  0
 41 43  1  0
 41 44  1  0
 44 45  1  0
 44 46  1  0
 44 47  1  0
 47 48  1  0
 48 49  1  0
 48 50  1  0
 48 51  1  0
 51 52  1  0
 51 53  1  0
 51 54  1  0
 47 55  1  0
 55 56  1  0
 55 57  1  0
 55 58  1  0
 58 59  1  0
 58 60  1  0
 39  2  1  0
 58 40  1  0
 33  6  1  0
 31 13  1  0
M  CHG  1   7  -1
M  END
>  <UniqueID>  (74) 
65

>  <SMILES>  (74) 
CCCc1cccc(-c2cc[n-]/c(=N/c3ccc(N4CCN(CC)CC4)cn3)c2)c1

>  <Energy>  (74) 
84.38758115881927

>  <Genealogy>  (74) 
CCCc1cccc(-c2cc[n-]c(=Nc3ccc(N4CCN(CC)CC4)cn3)c2)c1 (protonated)
CCCc1cccc(-c2cc[n-]/c(=N/c3ccc(N4CCN(CC)CC4)cn3)c2)c1 (cis-trans isomerization)
CCCc1cccc(-c2cc[n-]/c(=N/c3ccc(N4CCN(CC)CC4)cn3)c2)c1 (3D coordinates assigned)
CCCc1cccc(-c2cc[n-]/c(=N/c3ccc(N4CCN(CC)CC4)cn3)c2)c1 (nonaromatic ring conformer: 84.38758115881927 kcal/mol)

>  <smiles>  (74) 
CCCc1cccc(-c2cc[nH]c(=Nc3ccc(N4CCN(CC)CC4)cn3)c2)c1

>  <score_type>  (74) 
oracle

>  <origin>  (74) 
adg

>  <m_score__min__energy>  (74) 
-10.68

>  <m_primary>  (74) 
energy

$$$$
74:0
     RDKit          3D

 46 48  0  0  0  0  0  0  0  0999 V2000
   57.1590   23.7020   43.8890 C   0  0  0  0  0  0  0  0  0  0  0  0
   57.5840   24.6050   44.9040 O   0  0  0  0  0  0  0  0  0  0  0  0
   57.5570   26.0010   44.7840 C   0  0  0  0  0  0  0  0  0  0  0  0
   57.0110   26.8350   45.7790 C   0  0  0  0  0  0  0  0  0  0  0  0
   57.0080   28.2240   45.6120 C   0  0  0  0  0  0  0  0  0  0  0  0
   57.5500   28.8020   44.4520 C   0  0  0  0  0  0  0  0  0  0  0  0
   57.5490   30.2680   44.2710 C   0  0  0  0  0  0  0  0  0  0  0  0
   57.2100   31.1440   45.2410 N   0  0  0  0  0  0  0  0  0  0  0  0
   57.3500   32.3390   44.6370 C   0  0  0  0  0  0  0  0  0  0  0  0
   57.0560   33.6590   45.3000 C   0  0  0  0  0  0  0  0  0  0  0  0
   58.1650   34.1450   46.1510 N   0  0  0  0  0  0  0  0  0  0  0  0
   59.3170   34.5920   45.3470 C   0  0  0  0  0  0  0  0  0  0  0  0
   58.5570   33.1580   47.1830 C   0  0  0  0  0  0  0  0  0  0  0  0
   59.8910   32.4860   46.8330 C   0  0  0  0  0  0  0  0  0  0  0  0
   59.8280   30.9950   47.0450 C   0  0  0  0  0  0  0  0  0  0  0  0
   59.2200   30.4700   48.1980 C   0  0  0  0  0  0  0  0  0  0  0  0
   59.1920   29.0890   48.4130 C   0  0  0  0  0  0  0  0  0  0  0  0
   59.7780   28.2240   47.4850 C   0  0  0  0  0  0  0  0  0  0  0  0
   60.3930   28.7390   46.3410 C   0  0  0  0  0  0  0  0  0  0  0  0
   60.4230   30.1200   46.1220 C   0  0  0  0  0  0  0  0  0  0  0  0
   57.7590   32.1530   43.3360 C   0  0  0  0  0  0  0  0  0  0  0  0
   57.8730   30.8640   43.1430 O   0  0  0  0  0  0  0  0  0  0  0  0
   58.0940   27.9690   43.4620 C   0  0  0  0  0  0  0  0  0  0  0  0
   58.0960   26.5810   43.6300 C   0  0  0  0  0  0  0  0  0  0  0  0
   56.7346   22.8003   44.3547 H   0  0  0  0  0  0  0  0  0  0  0  0
   56.3943   24.1864   43.2640 H   0  0  0  0  0  0  0  0  0  0  0  0
   58.0196   23.4215   43.2640 H   0  0  0  0  0  0  0  0  0  0  0  0
   56.5850   26.3923   46.6914 H   0  0  0  0  0  0  0  0  0  0  0  0
   56.5785   28.8676   46.3939 H   0  0  0  0  0  0  0  0  0  0  0  0
   56.8621   34.4075   44.5176 H   0  0  0  0  0  0  0  0  0  0  0  0
   56.1844   33.5088   45.9540 H   0  0  0  0  0  0  0  0  0  0  0  0
   60.1308   34.9078   46.0163 H   0  0  0  0  0  0  0  0  0  0  0  0
   59.6648   33.7636   44.7124 H   0  0  0  0  0  0  0  0  0  0  0  0
   59.0150   35.4382   44.7124 H   0  0  0  0  0  0  0  0  0  0  0  0
   58.6575   33.6718   48.1504 H   0  0  0  0  0  0  0  0  0  0  0  0
   57.7797   32.3814   47.2339 H   0  0  0  0  0  0  0  0  0  0  0  0
   60.1274   32.6878   45.7778 H   0  0  0  0  0  0  0  0  0  0  0  0
   60.6693   32.8969   47.4929 H   0  0  0  0  0  0  0  0  0  0  0  0
   58.7643   31.1484   48.9343 H   0  0  0  0  0  0  0  0  0  0  0  0
   58.7082   28.6828   49.3135 H   0  0  0  0  0  0  0  0  0  0  0  0
   59.7551   27.1375   47.6552 H   0  0  0  0  0  0  0  0  0  0  0  0
   60.8543   28.0572   45.6114 H   0  0  0  0  0  0  0  0  0  0  0  0
   60.9144   30.5220   45.2237 H   0  0  0  0  0  0  0  0  0  0  0  0
   57.9540   32.9424   42.5952 H   0  0  0  0  0  0  0  0  0  0  0  0
   58.5209   28.4104   42.5494 H   0  0  0  0  0  0  0  0  0  0  0  0
   58.5255   25.9384   42.8473 H   0  0  0  0  0  0  0  0  0  0  0  0
  1  2  1  0
  2  3  1  0
  3  4  2  0
  4  5  1  0
  5  6  2  0
  6  7  1  0
  7  8  2  0
  8  9  1  0
  9 10  1  0
 10 11  1  0
 11 12  1  0
 11 13  1  0
 13 14  1  0
 14 15  1  0
 15 16  2  0
 16 17  1  0
 17 18  2  0
 18 19  1  0
 19 20  2  0
  9 21  2  0
 21 22  1  0
  6 23  1  0
 23 24  2  0
 24  3  1  0
 22  7  1  0
 20 15  1  0
  1 25  1  0
  1 26  1  0
  1 27  1  0
  4 28  1  0
  5 29  1  0
 10 30  1  0
 10 31  1  0
 12 32  1  0
 12 33  1  0
 12 34  1  0
 13 35  1  0
 13 36  1  0
 14 37  1  0
 14 38  1  0
 16 39  1  0
 17 40  1  0
 18 41  1  0
 19 42  1  0
 20 43  1  0
 21 44  1  0
 23 45  1  0
 24 46  1  0
M  END
>  <UniqueID>  (75) 
66

>  <SMILES>  (75) 
COc1ccc(-c2nc(CN(C)CCc3ccccc3)co2)cc1

>  <Energy>  (75) 
76.75586701200943

>  <Genealogy>  (75) 
COc1ccc(-c2nc(CN(C)CCc3ccccc3)co2)cc1 (3D coordinates assigned)
COc1ccc(-c2nc(CN(C)CCc3ccccc3)co2)cc1 (optimized conformer: 76.75586701200943 kcal/mol)

>  <smiles>  (75) 
COc1ccc(-c2nc(CN(C)CCc3ccccc3)co2)cc1

>  <score_type>  (75) 
oracle

>  <origin>  (75) 
adg

>  <m_score__min__energy>  (75) 
-7.6399999999999997

>  <m_primary>  (75) 
energy

$$$$
75:0
     RDKit          3D

 33 32  0  0  0  0  0  0  0  0999 V2000
   55.7880   29.0560   45.0210 N   0  0  0  0  0  0  0  0  0  0  0  0
   55.5060   30.0130   43.9510 C   0  0  0  0  0  0  0  0  0  0  0  0
   56.7370   30.2660   43.0570 C   0  0  0  0  0  0  0  0  0  0  0  0
   57.9670   30.7790   43.8380 C   0  0  0  0  0  0  0  0  0  0  0  0
   58.6090   29.7160   44.7510 C   0  0  0  0  0  0  0  0  0  0  0  0
   58.6680   28.2950   44.1510 C   0  0  0  0  0  0  0  0  0  0  0  0
   57.7130   27.3550   44.7690 N   0  0  0  0  0  0  0  0  0  0  0  0
   58.2320   25.9680   44.8600 C   0  0  0  0  0  0  0  0  0  0  0  0
   57.1540   24.9590   45.3000 C   0  0  0  0  0  0  0  0  0  0  0  0
   56.2420   25.4800   46.4230 C   0  0  0  0  0  0  0  0  0  0  0  0
   55.5030   26.6620   45.9900 N   0  0  0  0  0  0  0  0  0  0  0  0
   55.5590   29.4870   45.9450 H   0  0  0  0  0  0  0  0  0  0  0  0
   55.1770   28.2160   44.8990 H   0  0  0  0  0  0  0  0  0  0  0  0
   54.6906   29.6174   43.3276 H   0  0  0  0  0  0  0  0  0  0  0  0
   55.2252   30.9687   44.4177 H   0  0  0  0  0  0  0  0  0  0  0  0
   57.0076   29.3222   42.5610 H   0  0  0  0  0  0  0  0  0  0  0  0
   56.4597   31.0496   42.3365 H   0  0  0  0  0  0  0  0  0  0  0  0
   58.7226   31.1163   43.1132 H   0  0  0  0  0  0  0  0  0  0  0  0
   57.6172   31.5933   44.4895 H   0  0  0  0  0  0  0  0  0  0  0  0
   59.6374   30.0349   44.9763 H   0  0  0  0  0  0  0  0  0  0  0  0
   57.9692   29.6482   45.6433 H   0  0  0  0  0  0  0  0  0  0  0  0
   58.4449   28.3615   43.0759 H   0  0  0  0  0  0  0  0  0  0  0  0
   59.6778   27.9039   44.3441 H   0  0  0  0  0  0  0  0  0  0  0  0
   57.4050   27.7230   45.6970 H   0  0  0  0  0  0  0  0  0  0  0  0
   56.8580   27.3420   44.1650 H   0  0  0  0  0  0  0  0  0  0  0  0
   58.6122   25.6687   43.8721 H   0  0  0  0  0  0  0  0  0  0  0  0
   59.0265   25.9591   45.6207 H   0  0  0  0  0  0  0  0  0  0  0  0
   56.5281   24.7171   44.4283 H   0  0  0  0  0  0  0  0  0  0  0  0
   57.6804   24.0780   45.6958 H   0  0  0  0  0  0  0  0  0  0  0  0
   55.5278   24.6912   46.7016 H   0  0  0  0  0  0  0  0  0  0  0  0
   56.8684   25.7542   47.2847 H   0  0  0  0  0  0  0  0  0  0  0  0
   55.8680   27.4820   46.5260 H   0  0  0  0  0  0  0  0  0  0  0  0
   55.7360   26.8480   44.9870 H   0  0  0  0  0  0  0  0  0  0  0  0
  1  2  1  0
  2  3  1  0
  3  4  1  0
  4  5  1  0
  5  6  1  0
  6  7  1  0
  7  8  1  0
  8  9  1  0
  9 10  1  0
 10 11  1  0
  1 12  1  0
  1 13  1  0
  2 14  1  0
  2 15  1  0
  3 16  1  0
  3 17  1  0
  4 18  1  0
  4 19  1  0
  5 20  1  0
  5 21  1  0
  6 22  1  0
  6 23  1  0
  7 24  1  0
  7 25  1  0
  8 26  1  0
  8 27  1  0
  9 28  1  0
  9 29  1  0
 10 30  1  0
 10 31  1  0
 11 32  1  0
 11 33  1  0
M  CHG  1   7   1
M  END
>  <UniqueID>  (76) 
67

>  <SMILES>  (76) 
NCCCCC[NH2+]CCCN

>  <Energy>  (76) 
24.59047092014458

>  <Genealogy>  (76) 
NCCCCC[NH2+]CCCN (protonated)
NCCCCC[NH2+]CCCN (3D coordinates assigned)
NCCCCC[NH2+]CCCN (optimized conformer: 24.59047092014458 kcal/mol)

>  <smiles>  (76) 
NCCCCCNCCCN

>  <score_type>  (76) 
oracle

>  <origin>  (76) 
adg

>  <m_score__min__energy>  (76) 
-3.3199999999999998

>  <m_primary>  (76) 
energy

$$$$
76:0
     RDKit          3D

 41 42  0  0  0  0  0  0  0  0999 V2000
   58.4920   27.9450   43.7620 C   0  0  0  0  0  0  0  0  0  0  0  0
   57.2690   28.0730   44.5830 N   0  0  2  0  0  0  0  0  0  0  0  0
   56.6810   29.3940   44.4820 C   0  0  0  0  0  0  0  0  0  0  0  0
   55.4890   29.6030   44.8490 O   0  0  0  0  0  0  0  0  0  0  0  0
   57.4350   30.4310   43.9130 O   0  0  0  0  0  0  0  0  0  0  0  0
   57.7870   31.6270   44.5560 C   0  0  0  0  0  0  0  0  0  0  0  0
   57.8190   31.6450   45.9560 C   0  0  0  0  0  0  0  0  0  0  0  0
   58.1730   32.8100   46.6400 C   0  0  0  0  0  0  0  0  0  0  0  0
   58.4800   33.9740   45.9300 C   0  0  0  0  0  0  0  0  0  0  0  0
   58.4270   33.9730   44.5330 C   0  0  0  0  0  0  0  0  0  0  0  0
   58.0760   32.8070   43.8460 C   0  0  0  0  0  0  0  0  0  0  0  0
   57.4450   27.6630   46.0150 C   0  0  1  0  0  0  0  0  0  0  0  0
   56.5080   26.4920   46.4060 C   0  0  0  0  0  0  0  0  0  0  0  0
   55.2780   26.5710   45.7370 O   0  0  0  0  0  0  0  0  0  0  0  0
   58.9070   27.3040   46.4160 C   0  0  0  0  0  0  0  0  0  0  0  0
   59.6750   28.4580   47.0100 C   0  0  0  0  0  0  0  0  0  0  0  0
   60.3340   29.3770   46.1750 C   0  0  0  0  0  0  0  0  0  0  0  0
   61.0710   30.4290   46.7260 C   0  0  0  0  0  0  0  0  0  0  0  0
   61.1490   30.5780   48.1130 C   0  0  0  0  0  0  0  0  0  0  0  0
   60.4800   29.6830   48.9510 C   0  0  0  0  0  0  0  0  0  0  0  0
   59.7410   28.6280   48.4040 C   0  0  0  0  0  0  0  0  0  0  0  0
   59.3680   27.8533   44.4209 H   0  0  0  0  0  0  0  0  0  0  0  0
   58.4154   27.0500   43.1271 H   0  0  0  0  0  0  0  0  0  0  0  0
   58.6024   28.8365   43.1271 H   0  0  0  0  0  0  0  0  0  0  0  0
   56.5590   27.4360   44.1520 H   0  0  0  0  0  0  0  0  0  0  0  0
   57.5637   30.7360   46.5203 H   0  0  0  0  0  0  0  0  0  0  0  0
   58.2103   32.8115   47.7394 H   0  0  0  0  0  0  0  0  0  0  0  0
   58.7630   34.8898   46.4697 H   0  0  0  0  0  0  0  0  0  0  0  0
   58.6617   34.8906   43.9737 H   0  0  0  0  0  0  0  0  0  0  0  0
   58.0256   32.8121   42.7472 H   0  0  0  0  0  0  0  0  0  0  0  0
   57.1705   28.5665   46.5792 H   0  0  0  0  0  0  0  0  0  0  0  0
   56.9962   25.5415   46.1450 H   0  0  0  0  0  0  0  0  0  0  0  0
   56.3163   26.5505   47.4876 H   0  0  0  0  0  0  0  0  0  0  0  0
   55.1450   27.5260   45.5010 H   0  0  0  0  0  0  0  0  0  0  0  0
   58.8741   26.4913   47.1565 H   0  0  0  0  0  0  0  0  0  0  0  0
   59.4300   27.0115   45.4936 H   0  0  0  0  0  0  0  0  0  0  0  0
   60.2693   29.2676   45.0824 H   0  0  0  0  0  0  0  0  0  0  0  0
   61.5902   31.1404   46.0669 H   0  0  0  0  0  0  0  0  0  0  0  0
   61.7376   31.4006   48.5453 H   0  0  0  0  0  0  0  0  0  0  0  0
   60.5341   29.8076   50.0426 H   0  0  0  0  0  0  0  0  0  0  0  0
   59.2099   27.9293   49.0671 H   0  0  0  0  0  0  0  0  0  0  0  0
  1  2  1  0
  2  3  1  0
  3  4  2  0
  3  5  1  0
  5  6  1  0
  6  7  2  0
  7  8  1  0
  8  9  2  0
  9 10  1  0
 10 11  2  0
  2 12  1  0
 12 13  1  0
 13 14  1  0
 12 15  1  0
 15 16  1  0
 16 17  2  0
 17 18  1  0
 18 19  2  0
 19 20  1  0
 20 21  2  0
 11  6  1  0
 21 16  1  0
  1 22  1  0
  1 23  1  0
  1 24  1  0
  2 25  1  6
  7 26  1  0
  8 27  1  0
  9 28  1  0
 10 29  1  0
 11 30  1  0
 12 31  1  1
 13 32  1  0
 13 33  1  0
 14 34  1  0
 15 35  1  0
 15 36  1  0
 17 37  1  0
 18 38  1  0
 19 39  1  0
 20 40  1  0
 21 41  1  0
M  CHG  1   2   1
M  END
>  <UniqueID>  (77) 
68

>  <SMILES>  (77) 
C[N@H+](C(=O)Oc1ccccc1)[C@@H](CO)Cc1ccccc1

>  <Energy>  (77) 
50.95208921834656

>  <Genealogy>  (77) 
C[NH+](C(=O)Oc1ccccc1)C(CO)Cc1ccccc1 (protonated)
C[N@H+](C(=O)Oc1ccccc1)[C@@H](CO)Cc1ccccc1 (chirality)
C[N@H+](C(=O)Oc1ccccc1)[C@@H](CO)Cc1ccccc1 (3D coordinates assigned)
C[N@H+](C(=O)Oc1ccccc1)[C@@H](CO)Cc1ccccc1 (optimized conformer: 50.95208921834656 kcal/mol)

>  <smiles>  (77) 
CN(C(=O)Oc1ccccc1)C(CO)Cc1ccccc1

>  <score_type>  (77) 
oracle

>  <origin>  (77) 
adg

>  <m_score__min__energy>  (77) 
-6.29

>  <m_primary>  (77) 
energy

$$$$
77:0
     RDKit          3D

 37 39  0  0  0  0  0  0  0  0999 V2000
   54.3690   28.9560   44.5340 H   0  0  0  0  0  0  0  0  0  0  0  0
   55.1160   29.4300   43.9770 N   0  0  0  0  0  0  0  0  0  0  0  0
   56.1190   30.0130   44.5520 C   0  0  0  0  0  0  0  0  0  0  0  0
   56.2420   31.3750   44.4910 N   0  0  0  0  0  0  0  0  0  0  0  0
   57.2990   31.9590   45.1020 C   0  0  0  0  0  0  0  0  0  0  0  0
   58.2380   31.2340   45.7740 C   0  0  0  0  0  0  0  0  0  0  0  0
   59.1570   32.1380   46.2730 C   0  0  0  0  0  0  0  0  0  0  0  0
   60.6020   31.7750   47.2760 S   0  0  0  0  0  0  0  0  0  0  0  0
   59.6220   31.2320   48.6770 C   0  0  0  0  0  0  0  0  0  0  0  0
   58.7910   32.1400   49.3420 C   0  0  0  0  0  0  0  0  0  0  0  0
   58.7441   33.1870   49.0080 H   0  0  0  0  0  0  0  0  0  0  0  0
   58.0200   31.7200   50.4300 C   0  0  0  0  0  0  0  0  0  0  0  0
   57.3622   32.4363   50.9440 H   0  0  0  0  0  0  0  0  0  0  0  0
   58.0820   30.3830   50.8710 C   0  0  0  0  0  0  0  0  0  0  0  0
   57.3280   29.9040   51.9560 O   0  0  0  0  0  0  0  0  0  0  0  0
   56.3360   30.6410   52.6690 C   0  0  0  0  0  0  0  0  0  0  0  0
   56.2620   30.2480   53.6937 H   0  0  0  0  0  0  0  0  0  0  0  0
   56.6287   31.7012   52.6854 H   0  0  0  0  0  0  0  0  0  0  0  0
   54.9770   30.5200   51.9880 C   0  0  0  0  0  0  0  0  0  0  0  0
   54.1889   30.4498   52.7522 H   0  0  0  0  0  0  0  0  0  0  0  0
   54.8012   31.4060   51.3603 H   0  0  0  0  0  0  0  0  0  0  0  0
   54.9605   29.6168   51.3603 H   0  0  0  0  0  0  0  0  0  0  0  0
   58.9240   29.4850   50.2040 C   0  0  0  0  0  0  0  0  0  0  0  0
   58.9801   28.4388   50.5392 H   0  0  0  0  0  0  0  0  0  0  0  0
   59.6940   29.9060   49.1160 C   0  0  0  0  0  0  0  0  0  0  0  0
   60.3576   29.1934   48.6043 H   0  0  0  0  0  0  0  0  0  0  0  0
   58.7180   33.3910   45.8380 C   0  0  0  0  0  0  0  0  0  0  0  0
   59.3510   34.7060   46.1610 C   0  0  0  0  0  0  0  0  0  0  0  0
   59.4091   34.8266   47.2528 H   0  0  0  0  0  0  0  0  0  0  0  0
   60.3641   34.7400   45.7339 H   0  0  0  0  0  0  0  0  0  0  0  0
   58.7456   35.5191   45.7339 H   0  0  0  0  0  0  0  0  0  0  0  0
   57.5680   33.2740   45.1310 N   0  0  0  0  0  0  0  0  0  0  0  0
   57.0060   34.0420   44.7030 H   0  0  0  0  0  0  0  0  0  0  0  0
   58.1280   29.8490   45.8330 C   0  0  0  0  0  0  0  0  0  0  0  0
   58.9890   29.1470   46.4270 O   0  0  0  0  0  0  0  0  0  0  0  0
   57.0580   29.2610   45.2170 N   0  0  0  0  0  0  0  0  0  0  0  0
   56.9560   28.2210   45.2520 H   0  0  0  0  0  0  0  0  0  0  0  0
  1  2  1  0
  2  3  2  0
  3  4  1  0
  4  5  1  0
  5  6  2  0
  6  7  1  0
  7  8  1  0
  8  9  1  0
  9 10  2  0
 10 11  1  0
 10 12  1  0
 12 13  1  0
 12 14  2  0
 14 15  1  0
 15 16  1  0
 16 17  1  0
 16 18  1  0
 16 19  1  0
 19 20  1  0
 19 21  1  0
 19 22  1  0
 14 23  1  0
 23 24  1  0
 23 25  2  0
 25 26  1  0
  7 27  2  0
 27 28  1  0
 28 29  1  0
 28 30  1  0
 28 31  1  0
 27 32  1  0
 32 33  1  0
  6 34  1  0
 34 35  2  0
 34 36  1  0
 36 37  1  0
 36  3  1  0
 32  5  1  0
 25  9  1  0
M  CHG  1   4  -1
M  END
>  <UniqueID>  (78) 
69

>  <SMILES>  (78) 
[H]/N=c1\[n-]c2[nH]c(C)c(Sc3ccc(OCC)cc3)c2c(=O)[nH]1

>  <Energy>  (78) 
67.73607811188029

>  <Genealogy>  (78) 
CCOc1ccc(Sc2c(C)[nH]c3[n-]c(=N)[nH]c(=O)c23)cc1 (protonated)
[H]/N=c1\[n-]c2[nH]c(C)c(Sc3ccc(OCC)cc3)c2c(=O)[nH]1 (cis-trans isomerization)
[H]/N=c1\[n-]c2[nH]c(C)c(Sc3ccc(OCC)cc3)c2c(=O)[nH]1 (3D coordinates assigned)
[H]/N=c1\[n-]c2[nH]c(C)c(Sc3ccc(OCC)cc3)c2c(=O)[nH]1 (optimized conformer: 67.73607811188029 kcal/mol)

>  <smiles>  (78) 
CCOc1ccc(Sc2c(C)[nH]c3[nH]c(=N)[nH]c(=O)c23)cc1

>  <score_type>  (78) 
oracle

>  <origin>  (78) 
adg

>  <m_score__min__energy>  (78) 
-8.2200000000000006

>  <m_primary>  (78) 
energy

$$$$
78:0
     RDKit          3D

 36 37  0  0  0  0  0  0  0  0999 V2000
   63.5690   33.5150   48.4690 C   0  0  0  0  0  0  0  0  0  0  0  0
   62.3060   34.5070   49.3270 S   0  0  0  0  0  0  0  0  0  0  0  0
   61.0090   34.0810   48.1640 C   0  0  0  0  0  0  0  0  0  0  0  0
   59.7580   33.6640   48.6300 C   0  0  0  0  0  0  0  0  0  0  0  0
   58.7460   33.3350   47.7230 C   0  0  0  0  0  0  0  0  0  0  0  0
   58.9680   33.4390   46.3440 C   0  0  0  0  0  0  0  0  0  0  0  0
   57.9170   33.0680   45.4420 N   0  0  0  0  0  0  0  0  0  0  0  0
   57.5210   31.7300   45.1180 C   0  0  0  0  0  0  0  0  0  0  0  0
   56.3280   31.5170   44.7730 O   0  0  0  0  0  0  0  0  0  0  0  0
   58.4840   30.6650   45.0850 N   0  0  0  0  0  0  0  0  0  0  0  0
   58.1410   29.2690   45.1200 C   0  0  0  0  0  0  0  0  0  0  0  0
   57.7270   28.6920   46.3280 C   0  0  0  0  0  0  0  0  0  0  0  0
   57.3680   27.3420   46.3810 C   0  0  0  0  0  0  0  0  0  0  0  0
   57.3970   26.5500   45.2290 C   0  0  0  0  0  0  0  0  0  0  0  0
   57.0270   25.2030   45.3420 O   0  0  0  0  0  0  0  0  0  0  0  0
   55.4940   24.6520   45.8640 S   0  0  0  0  0  0  0  0  0  0  0  0
   54.3930   25.9830   45.8850 N   0  0  0  0  0  0  0  0  0  0  0  0
   54.9830   23.6010   44.9180 O   0  0  0  0  0  0  0  0  0  0  0  0
   55.6040   24.0760   47.2480 O   0  0  0  0  0  0  0  0  0  0  0  0
   57.7910   27.1320   44.0090 C   0  0  0  0  0  0  0  0  0  0  0  0
   58.1530   28.4820   43.9550 C   0  0  0  0  0  0  0  0  0  0  0  0
   60.2360   33.8380   45.8790 C   0  0  0  0  0  0  0  0  0  0  0  0
   61.2470   34.1660   46.7880 C   0  0  0  0  0  0  0  0  0  0  0  0
   64.2077   33.0134   49.2110 H   0  0  0  0  0  0  0  0  0  0  0  0
   63.0764   32.7598   47.8389 H   0  0  0  0  0  0  0  0  0  0  0  0
   64.1859   34.1725   47.8389 H   0  0  0  0  0  0  0  0  0  0  0  0
   59.5700   33.5948   49.7116 H   0  0  0  0  0  0  0  0  0  0  0  0
   57.7691   32.9923   48.0949 H   0  0  0  0  0  0  0  0  0  0  0  0
   59.4870   30.9230   44.9420 H   0  0  0  0  0  0  0  0  0  0  0  0
   57.6842   29.3052   47.2402 H   0  0  0  0  0  0  0  0  0  0  0  0
   57.0595   26.8981   47.3390 H   0  0  0  0  0  0  0  0  0  0  0  0
   54.7880   26.7160   45.2550 H   0  0  0  0  0  0  0  0  0  0  0  0
   57.8142   26.5221   43.0939 H   0  0  0  0  0  0  0  0  0  0  0  0
   58.4489   28.9307   42.9952 H   0  0  0  0  0  0  0  0  0  0  0  0
   60.4318   33.8918   44.7979 H   0  0  0  0  0  0  0  0  0  0  0  0
   62.2313   34.4915   46.4203 H   0  0  0  0  0  0  0  0  0  0  0  0
  1  2  1  0
  2  3  1  0
  3  4  2  0
  4  5  1  0
  5  6  2  0
  6  7  1  0
  7  8  1  0
  8  9  2  0
  8 10  1  0
 10 11  1  0
 11 12  2  0
 12 13  1  0
 13 14  2  0
 14 15  1  0
 15 16  1  0
 16 17  1  0
 16 18  2  0
 16 19  2  0
 14 20  1  0
 20 21  2  0
  6 22  1  0
 22 23  2  0
 23  3  1  0
 21 11  1  0
  1 24  1  0
  1 25  1  0
  1 26  1  0
  4 27  1  0
  5 28  1  0
 10 29  1  0
 12 30  1  0
 13 31  1  0
 17 32  1  0
 20 33  1  0
 21 34  1  0
 22 35  1  0
 23 36  1  0
M  CHG  2   7  -1  17  -1
M  END
>  <UniqueID>  (79) 
70

>  <SMILES>  (79) 
CSc1ccc([N-]C(=O)Nc2ccc(OS([NH-])(=O)=O)cc2)cc1

>  <Energy>  (79) 
36.98815127082952

>  <Genealogy>  (79) 
CSc1ccc([N-]C(=O)Nc2ccc(OS([NH-])(=O)=O)cc2)cc1 (protonated)
CSc1ccc([N-]C(=O)Nc2ccc(OS([NH-])(=O)=O)cc2)cc1 (3D coordinates assigned)
CSc1ccc([N-]C(=O)Nc2ccc(OS([NH-])(=O)=O)cc2)cc1 (optimized conformer: 36.98815127082952 kcal/mol)

>  <smiles>  (79) 
CSc1ccc(NC(=O)Nc2ccc(OS(N)(=O)=O)cc2)cc1

>  <score_type>  (79) 
oracle

>  <origin>  (79) 
adg

>  <m_score__min__energy>  (79) 
-11.289999999999999

>  <m_primary>  (79) 
energy

$$$$
79:0
     RDKit          3D

 31 33  0  0  0  0  0  0  0  0999 V2000
   64.1110   33.4380   48.8380 C   0  0  0  0  0  0  0  0  0  0  0  0
   62.7660   33.6350   48.2050 C   0  0  0  0  0  0  0  0  0  0  0  0
   62.6320   33.6120   46.8080 C   0  0  0  0  0  0  0  0  0  0  0  0
   61.3860   33.8320   46.2150 C   0  0  0  0  0  0  0  0  0  0  0  0
   60.2610   34.1000   47.0110 C   0  0  0  0  0  0  0  0  0  0  0  0
   58.9150   34.3010   46.3770 C   0  0  0  0  0  0  0  0  0  0  0  0
   57.7130   33.1560   47.1290 S   0  0  0  0  0  0  0  0  0  0  0  0
   57.8780   31.9400   45.8220 C   0  0  0  0  0  0  0  0  0  0  0  0
   57.0020   31.9500   44.7760 N   0  0  0  0  0  0  0  0  0  0  0  0
   57.0910   31.0410   43.7590 C   0  0  0  0  0  0  0  0  0  0  0  0
   58.0710   30.0930   43.7660 N   0  0  0  0  0  0  0  0  0  0  0  0
   58.9500   30.0720   44.7970 C   0  0  0  0  0  0  0  0  0  0  0  0
   60.2260   29.0080   45.0270 S   0  0  0  0  0  0  0  0  0  0  0  0
   60.7230   29.7040   46.4890 C   0  0  0  0  0  0  0  0  0  0  0  0
   59.8840   30.7760   46.8010 C   0  0  0  0  0  0  0  0  0  0  0  0
   58.8870   30.9740   45.8380 C   0  0  0  0  0  0  0  0  0  0  0  0
   60.3960   34.1260   48.4070 C   0  0  0  0  0  0  0  0  0  0  0  0
   61.6430   33.9060   49.0000 C   0  0  0  0  0  0  0  0  0  0  0  0
   64.0067   33.4533   49.9329 H   0  0  0  0  0  0  0  0  0  0  0  0
   64.5263   32.4694   48.5227 H   0  0  0  0  0  0  0  0  0  0  0  0
   64.7866   34.2468   48.5227 H   0  0  0  0  0  0  0  0  0  0  0  0
   63.5122   33.4198   46.1769 H   0  0  0  0  0  0  0  0  0  0  0  0
   61.2862   33.7951   45.1202 H   0  0  0  0  0  0  0  0  0  0  0  0
   58.5846   35.3377   46.5385 H   0  0  0  0  0  0  0  0  0  0  0  0
   58.9847   34.1027   45.2973 H   0  0  0  0  0  0  0  0  0  0  0  0
   56.3682   31.0745   42.9305 H   0  0  0  0  0  0  0  0  0  0  0  0
   58.1410   29.3970   42.9910 H   0  0  0  0  0  0  0  0  0  0  0  0
   61.5739   29.3646   47.0978 H   0  0  0  0  0  0  0  0  0  0  0  0
   59.9942   31.3959   47.7030 H   0  0  0  0  0  0  0  0  0  0  0  0
   59.5165   34.3204   49.0383 H   0  0  0  0  0  0  0  0  0  0  0  0
   61.7436   33.9457   50.0947 H   0  0  0  0  0  0  0  0  0  0  0  0
  1  2  1  0
  2  3  2  0
  3  4  1  0
  4  5  2  0
  5  6  1  0
  6  7  1  0
  7  8  1  0
  8  9  2  0
  9 10  1  0
 10 11  2  0
 11 12  1  0
 12 13  1  0
 13 14  1  0
 14 15  2  0
 15 16  1  0
  5 17  1  0
 17 18  2  0
 18  2  1  0
 16  8  1  0
 16 12  2  0
  1 19  1  0
  1 20  1  0
  1 21  1  0
  3 22  1  0
  4 23  1  0
  6 24  1  0
  6 25  1  0
 10 26  1  0
 11 27  1  0
 14 28  1  0
 15 29  1  0
 17 30  1  0
 18 31  1  0
M  CHG  1  11   1
M  END
>  <UniqueID>  (80) 
71

>  <SMILES>  (80) 
Cc1ccc(CSc2nc[nH+]c3sccc23)cc1

>  <Energy>  (80) 
60.81101261178713

>  <Genealogy>  (80) 
Cc1ccc(CSc2nc[nH+]c3sccc23)cc1 (protonated)
Cc1ccc(CSc2nc[nH+]c3sccc23)cc1 (3D coordinates assigned)
Cc1ccc(CSc2nc[nH+]c3sccc23)cc1 (optimized conformer: 60.81101261178713 kcal/mol)

>  <smiles>  (80) 
Cc1ccc(CSc2ncnc3sccc23)cc1

>  <score_type>  (80) 
oracle

>  <origin>  (80) 
adg

>  <m_score__min__energy>  (80) 
-6.1299999999999999

>  <m_primary>  (80) 
energy

$$$$
80:0
     RDKit          3D

 40 41  0  0  0  0  0  0  0  0999 V2000
   53.5650   23.8140   45.2230 C   0  0  0  0  0  0  0  0  0  0  0  0
   54.8890   24.4950   45.2200 C   0  0  0  0  0  0  0  0  0  0  0  0
   55.1990   25.5270   46.0350 N   0  0  0  0  0  0  0  0  0  0  0  0
   56.4910   25.9240   45.8800 C   0  0  0  0  0  0  0  0  0  0  0  0
   57.0640   27.0740   46.6510 C   0  0  0  0  0  0  0  0  0  0  0  0
   58.0670   27.7750   45.8460 N   0  0  0  0  0  0  0  0  0  0  0  0
   59.3520   27.3940   45.7060 C   0  0  0  0  0  0  0  0  0  0  0  0
   60.0140   28.2640   44.8660 C   0  0  0  0  0  0  0  0  0  0  0  0
   59.0940   29.2160   44.4760 C   0  0  0  0  0  0  0  0  0  0  0  0
   57.9020   28.8920   45.0990 C   0  0  0  0  0  0  0  0  0  0  0  0
   56.6290   29.6190   44.9280 C   0  0  0  0  0  0  0  0  0  0  0  0
   55.5530   28.9690   44.8680 O   0  0  0  0  0  0  0  0  0  0  0  0
   56.5720   31.0480   44.8430 N   0  0  0  0  0  0  0  0  0  0  0  0
   57.6830   31.9070   44.4390 C   0  0  0  0  0  0  0  0  0  0  0  0
   58.1880   32.7630   45.6260 C   0  0  0  0  0  0  0  0  0  0  0  0
   58.8830   31.8400   46.6460 C   0  0  0  0  0  0  0  0  0  0  0  0
   59.2010   33.8170   45.1330 C   0  0  0  0  0  0  0  0  0  0  0  0
   57.0030   33.4700   46.3160 C   0  0  0  0  0  0  0  0  0  0  0  0
   57.2250   25.1970   44.9450 C   0  0  0  0  0  0  0  0  0  0  0  0
   56.2130   24.0180   44.3010 S   0  0  0  0  0  0  0  0  0  0  0  0
   53.2408   23.6472   46.2608 H   0  0  0  0  0  0  0  0  0  0  0  0
   52.8272   24.4445   44.7052 H   0  0  0  0  0  0  0  0  0  0  0  0
   53.6488   22.8471   44.7052 H   0  0  0  0  0  0  0  0  0  0  0  0
   56.2564   27.7730   46.9141 H   0  0  0  0  0  0  0  0  0  0  0  0
   57.5421   26.6903   47.5644 H   0  0  0  0  0  0  0  0  0  0  0  0
   59.8062   26.5173   46.1909 H   0  0  0  0  0  0  0  0  0  0  0  0
   61.0706   28.2099   44.5650 H   0  0  0  0  0  0  0  0  0  0  0  0
   59.2735   30.0663   43.8016 H   0  0  0  0  0  0  0  0  0  0  0  0
   58.5082   31.2783   44.0731 H   0  0  0  0  0  0  0  0  0  0  0  0
   57.3304   32.5834   43.6464 H   0  0  0  0  0  0  0  0  0  0  0  0
   58.6355   32.1687   47.6661 H   0  0  0  0  0  0  0  0  0  0  0  0
   58.5373   30.8060   46.4999 H   0  0  0  0  0  0  0  0  0  0  0  0
   59.9723   31.8865   46.4999 H   0  0  0  0  0  0  0  0  0  0  0  0
   59.6714   34.3064   45.9985 H   0  0  0  0  0  0  0  0  0  0  0  0
   59.9745   33.3257   44.5245 H   0  0  0  0  0  0  0  0  0  0  0  0
   58.6794   34.5704   44.5245 H   0  0  0  0  0  0  0  0  0  0  0  0
   57.1197   33.4004   47.4076 H   0  0  0  0  0  0  0  0  0  0  0  0
   56.9824   34.5282   46.0162 H   0  0  0  0  0  0  0  0  0  0  0  0
   56.0620   32.9856   46.0162 H   0  0  0  0  0  0  0  0  0  0  0  0
   58.2784   25.3643   44.6760 H   0  0  0  0  0  0  0  0  0  0  0  0
  1  2  1  0
  2  3  2  0
  3  4  1  0
  4  5  1  0
  5  6  1  0
  6  7  1  0
  7  8  2  0
  8  9  1  0
  9 10  2  0
 10 11  1  0
 11 12  2  0
 11 13  1  0
 13 14  1  0
 14 15  1  0
 15 16  1  0
 15 17  1  0
 15 18  1  0
  4 19  2  0
 19 20  1  0
 20  2  1  0
 10  6  1  0
  1 21  1  0
  1 22  1  0
  1 23  1  0
  5 24  1  0
  5 25  1  0
  7 26  1  0
  8 27  1  0
  9 28  1  0
 14 29  1  0
 14 30  1  0
 16 31  1  0
 16 32  1  0
 16 33  1  0
 17 34  1  0
 17 35  1  0
 17 36  1  0
 18 37  1  0
 18 38  1  0
 18 39  1  0
 19 40  1  0
M  CHG  1  13  -1
M  END
>  <UniqueID>  (81) 
72

>  <SMILES>  (81) 
Cc1nc(Cn2cccc2C(=O)[N-]CC(C)(C)C)cs1

>  <Energy>  (81) 
88.48346100093606

>  <Genealogy>  (81) 
Cc1nc(Cn2cccc2C(=O)[N-]CC(C)(C)C)cs1 (protonated)
Cc1nc(Cn2cccc2C(=O)[N-]CC(C)(C)C)cs1 (3D coordinates assigned)
Cc1nc(Cn2cccc2C(=O)[N-]CC(C)(C)C)cs1 (optimized conformer: 88.48346100093606 kcal/mol)

>  <smiles>  (81) 
Cc1nc(Cn2cccc2C(=O)NCC(C)(C)C)cs1

>  <score_type>  (81) 
oracle

>  <origin>  (81) 
adg

>  <m_score__min__energy>  (81) 
-8.75

>  <m_primary>  (81) 
energy

$$$$
81:0
     RDKit          3D

 27 29  0  0  0  0  0  0  0  0999 V2000
   56.5040   30.4610   51.9650 O   0  0  0  0  0  0  0  0  0  0  0  0
   56.2350   29.4860   52.7200 C   0  0  0  0  0  0  0  0  0  0  0  0
   54.9100   29.2530   53.1340 C   0  0  0  0  0  0  0  0  0  0  0  0
   53.7940   30.1490   52.7370 C   0  0  0  0  0  0  0  0  0  0  0  0
   52.8140   30.5200   53.6760 C   0  0  0  0  0  0  0  0  0  0  0  0
   51.7670   31.3710   53.3060 C   0  0  0  0  0  0  0  0  0  0  0  0
   51.6910   31.8640   52.0010 C   0  0  0  0  0  0  0  0  0  0  0  0
   50.6500   32.7090   51.6360 O   0  0  0  0  0  0  0  0  0  0  0  0
   52.6640   31.5070   51.0630 C   0  0  0  0  0  0  0  0  0  0  0  0
   53.7130   30.6570   51.4280 C   0  0  0  0  0  0  0  0  0  0  0  0
   54.6540   28.1330   53.9410 C   0  0  0  0  0  0  0  0  0  0  0  0
   55.6370   27.3210   54.3140 O   0  0  0  0  0  0  0  0  0  0  0  0
   56.9010   27.5110   53.9530 C   0  0  0  0  0  0  0  0  0  0  0  0
   57.8860   26.6170   54.3840 C   0  0  0  0  0  0  0  0  0  0  0  0
   59.2200   26.8050   54.0090 C   0  0  0  0  0  0  0  0  0  0  0  0
   60.1950   25.9140   54.4400 O   0  0  0  0  0  0  0  0  0  0  0  0
   59.5740   27.8890   53.1990 C   0  0  0  0  0  0  0  0  0  0  0  0
   58.5970   28.7900   52.7620 C   0  0  0  0  0  0  0  0  0  0  0  0
   57.2530   28.6100   53.1360 C   0  0  0  0  0  0  0  0  0  0  0  0
   52.8714   30.1390   54.7063 H   0  0  0  0  0  0  0  0  0  0  0  0
   51.0018   31.6526   54.0443 H   0  0  0  0  0  0  0  0  0  0  0  0
   52.6045   31.8954   50.0356 H   0  0  0  0  0  0  0  0  0  0  0  0
   54.4790   30.3843   50.6871 H   0  0  0  0  0  0  0  0  0  0  0  0
   53.6249   27.9249   54.2691 H   0  0  0  0  0  0  0  0  0  0  0  0
   57.6106   25.7629   55.0202 H   0  0  0  0  0  0  0  0  0  0  0  0
   60.6240   28.0335   52.9046 H   0  0  0  0  0  0  0  0  0  0  0  0
   58.8804   29.6407   52.1248 H   0  0  0  0  0  0  0  0  0  0  0  0
  1  2  2  0
  2  3  1  0
  3  4  1  0
  4  5  2  0
  5  6  1  0
  6  7  2  0
  7  8  1  0
  7  9  1  0
  9 10  2  0
  3 11  2  0
 11 12  1  0
 12 13  1  0
 13 14  2  0
 14 15  1  0
 15 16  1  0
 15 17  2  0
 17 18  1  0
 18 19  2  0
 19  2  1  0
 10  4  1  0
 19 13  1  0
  5 20  1  0
  6 21  1  0
  9 22  1  0
 10 23  1  0
 11 24  1  0
 14 25  1  0
 17 26  1  0
 18 27  1  0
M  CHG  2   8  -1  16  -1
M  END
>  <UniqueID>  (82) 
73

>  <SMILES>  (82) 
O=c1c(-c2ccc([O-])cc2)coc2cc([O-])ccc12

>  <Energy>  (82) 
42.433717860416756

>  <Genealogy>  (82) 
O=c1c(-c2ccc([O-])cc2)coc2cc([O-])ccc12 (protonated)
O=c1c(-c2ccc([O-])cc2)coc2cc([O-])ccc12 (3D coordinates assigned)
O=c1c(-c2ccc([O-])cc2)coc2cc([O-])ccc12 (optimized conformer: 42.433717860416756 kcal/mol)

>  <smiles>  (82) 
O=c1c(-c2ccc(O)cc2)coc2cc(O)ccc12

>  <score_type>  (82) 
oracle

>  <origin>  (82) 
adg

>  <m_score__min__energy>  (82) 
-10.15

>  <m_primary>  (82) 
energy

$$$$
82:0
     RDKit          3D

 39 40  0  0  0  0  0  0  0  0999 V2000
   50.5780   33.1100   53.3700 C   0  0  0  0  0  0  0  0  0  0  0  0
   50.2670   32.7110   52.0040 N   0  0  0  0  0  0  0  0  0  0  0  0
   51.1560   31.9960   51.1380 C   0  0  0  0  0  0  0  0  0  0  0  0
   50.9540   32.0370   49.8950 O   0  0  0  0  0  0  0  0  0  0  0  0
   52.2760   31.1830   51.6550 C   0  0  0  0  0  0  0  0  0  0  0  0
   52.0380   30.0860   52.4950 C   0  0  0  0  0  0  0  0  0  0  0  0
   53.1070   29.3480   53.0100 C   0  0  0  0  0  0  0  0  0  0  0  0
   54.4200   29.7030   52.6930 C   0  0  0  0  0  0  0  0  0  0  0  0
   54.6770   30.7950   51.8530 C   0  0  0  0  0  0  0  0  0  0  0  0
   56.0390   31.1650   51.5770 N   0  0  0  0  0  0  0  0  0  0  0  0
   57.1750   30.5690   52.2200 C   0  0  0  0  0  0  0  0  0  0  0  0
   57.0590   30.0280   53.3520 O   0  0  0  0  0  0  0  0  0  0  0  0
   58.5200   30.6240   51.5580 C   0  0  0  0  0  0  0  0  0  0  0  0
   58.5670   31.6920   50.6330 O   0  0  0  0  0  0  0  0  0  0  0  0
   59.0680   31.2490   49.3870 C   0  0  0  0  0  0  0  0  0  0  0  0
   59.0430   32.3980   48.4220 C   0  0  0  0  0  0  0  0  0  0  0  0
   59.7660   33.5710   48.6880 C   0  0  0  0  0  0  0  0  0  0  0  0
   59.7060   34.6500   47.8000 C   0  0  0  0  0  0  0  0  0  0  0  0
   58.9150   34.5690   46.6500 C   0  0  0  0  0  0  0  0  0  0  0  0
   58.1800   33.4090   46.3870 C   0  0  0  0  0  0  0  0  0  0  0  0
   58.2380   32.3290   47.2730 C   0  0  0  0  0  0  0  0  0  0  0  0
   53.5980   31.5480   51.3560 C   0  0  0  0  0  0  0  0  0  0  0  0
   50.0584   32.4434   54.0740 H   0  0  0  0  0  0  0  0  0  0  0  0
   51.6636   33.0418   53.5338 H   0  0  0  0  0  0  0  0  0  0  0  0
   50.2468   34.1461   53.5338 H   0  0  0  0  0  0  0  0  0  0  0  0
   51.0054   29.8051   52.7497 H   0  0  0  0  0  0  0  0  0  0  0  0
   52.9141   28.4863   53.6659 H   0  0  0  0  0  0  0  0  0  0  0  0
   55.2579   29.1217   53.1053 H   0  0  0  0  0  0  0  0  0  0  0  0
   56.2150   31.9190   50.8750 H   0  0  0  0  0  0  0  0  0  0  0  0
   59.2957   30.7724   52.3236 H   0  0  0  0  0  0  0  0  0  0  0  0
   58.6951   29.6788   51.0232 H   0  0  0  0  0  0  0  0  0  0  0  0
   60.1009   30.8910   49.5096 H   0  0  0  0  0  0  0  0  0  0  0  0
   58.4470   30.4253   49.0050 H   0  0  0  0  0  0  0  0  0  0  0  0
   60.3814   33.6420   49.5970 H   0  0  0  0  0  0  0  0  0  0  0  0
   60.2822   35.5639   48.0068 H   0  0  0  0  0  0  0  0  0  0  0  0
   58.8709   35.4180   45.9520 H   0  0  0  0  0  0  0  0  0  0  0  0
   57.5562   33.3461   45.4832 H   0  0  0  0  0  0  0  0  0  0  0  0
   57.6507   31.4214   47.0694 H   0  0  0  0  0  0  0  0  0  0  0  0
   53.7917   32.4301   50.7279 H   0  0  0  0  0  0  0  0  0  0  0  0
  1  2  1  0
  2  3  1  0
  3  4  2  0
  3  5  1  0
  5  6  2  0
  6  7  1  0
  7  8  2  0
  8  9  1  0
  9 10  1  0
 10 11  1  0
 11 12  2  0
 11 13  1  0
 13 14  1  0
 14 15  1  0
 15 16  1  0
 16 17  2  0
 17 18  1  0
 18 19  2  0
 19 20  1  0
 20 21  2  0
  9 22  2  0
 22  5  1  0
 21 16  1  0
  1 23  1  0
  1 24  1  0
  1 25  1  0
  6 26  1  0
  7 27  1  0
  8 28  1  0
 10 29  1  0
 13 30  1  0
 13 31  1  0
 15 32  1  0
 15 33  1  0
 17 34  1  0
 18 35  1  0
 19 36  1  0
 20 37  1  0
 21 38  1  0
 22 39  1  0
M  CHG  1   2  -1
M  END
>  <UniqueID>  (83) 
74

>  <SMILES>  (83) 
C[N-]C(=O)c1cccc(NC(=O)COCc2ccccc2)c1

>  <Energy>  (83) 
45.87304071785423

>  <Genealogy>  (83) 
C[N-]C(=O)c1cccc(NC(=O)COCc2ccccc2)c1 (protonated)
C[N-]C(=O)c1cccc(NC(=O)COCc2ccccc2)c1 (3D coordinates assigned)
C[N-]C(=O)c1cccc(NC(=O)COCc2ccccc2)c1 (optimized conformer: 45.87304071785423 kcal/mol)

>  <smiles>  (83) 
CNC(=O)c1cccc(NC(=O)COCc2ccccc2)c1

>  <score_type>  (83) 
oracle

>  <origin>  (83) 
adg

>  <m_score__min__energy>  (83) 
-10.710000000000001

>  <m_primary>  (83) 
energy

$$$$
83:0
     RDKit          3D

 40 42  0  0  0  0  0  0  0  0999 V2000
   59.8750   27.3600   46.0890 C   0  0  0  0  0  0  0  0  0  0  0  0
   59.1080   28.6230   45.8400 C   0  0  0  0  0  0  0  0  0  0  0  0
   57.8360   28.7150   45.3030 C   0  0  0  0  0  0  0  0  0  0  0  0
   57.0210   27.6170   44.8780 N   0  0  0  0  0  0  0  0  0  0  0  0
   56.5400   26.3010   45.8940 S   0  0  0  0  0  0  0  0  0  0  0  0
   57.1960   26.4530   47.2380 O   0  0  0  0  0  0  0  0  0  0  0  0
   55.0490   26.3370   46.0730 O   0  0  0  0  0  0  0  0  0  0  0  0
   56.9880   24.7720   45.1460 C   0  0  0  0  0  0  0  0  0  0  0  0
   58.1480   24.0940   45.5470 C   0  0  0  0  0  0  0  0  0  0  0  0
   58.5070   22.8910   44.9280 C   0  0  0  0  0  0  0  0  0  0  0  0
   57.7090   22.3610   43.9120 C   0  0  0  0  0  0  0  0  0  0  0  0
   56.5490   23.0300   43.5140 C   0  0  0  0  0  0  0  0  0  0  0  0
   56.1870   24.2320   44.1320 C   0  0  0  0  0  0  0  0  0  0  0  0
   57.5520   30.0660   45.2910 C   0  0  0  0  0  0  0  0  0  0  0  0
   56.5020   30.6060   44.8540 O   0  0  0  0  0  0  0  0  0  0  0  0
   58.6000   30.7470   45.7980 N   0  0  0  0  0  0  0  0  0  0  0  0
   58.6890   32.1760   45.9240 C   0  0  0  0  0  0  0  0  0  0  0  0
   59.0000   32.7630   47.1610 C   0  0  0  0  0  0  0  0  0  0  0  0
   59.0940   34.1520   47.2800 C   0  0  0  0  0  0  0  0  0  0  0  0
   58.8840   34.9630   46.1620 C   0  0  0  0  0  0  0  0  0  0  0  0
   58.5900   34.3870   44.9240 C   0  0  0  0  0  0  0  0  0  0  0  0
   58.4960   32.9970   44.8020 C   0  0  0  0  0  0  0  0  0  0  0  0
   59.5420   29.8710   46.1440 N   0  0  0  0  0  0  0  0  0  0  0  0
   60.8370   30.2100   46.7380 C   0  0  0  0  0  0  0  0  0  0  0  0
   59.9732   27.1983   47.1726 H   0  0  0  0  0  0  0  0  0  0  0  0
   59.3397   26.5111   45.6386 H   0  0  0  0  0  0  0  0  0  0  0  0
   60.8751   27.4435   45.6386 H   0  0  0  0  0  0  0  0  0  0  0  0
   58.7767   24.5080   46.3491 H   0  0  0  0  0  0  0  0  0  0  0  0
   59.4190   22.3624   45.2423 H   0  0  0  0  0  0  0  0  0  0  0  0
   57.9938   21.4167   43.4250 H   0  0  0  0  0  0  0  0  0  0  0  0
   55.9199   22.6116   42.7145 H   0  0  0  0  0  0  0  0  0  0  0  0
   55.2705   24.7544   43.8205 H   0  0  0  0  0  0  0  0  0  0  0  0
   59.1706   32.1258   48.0413 H   0  0  0  0  0  0  0  0  0  0  0  0
   59.3331   34.6064   48.2528 H   0  0  0  0  0  0  0  0  0  0  0  0
   58.9503   36.0569   46.2569 H   0  0  0  0  0  0  0  0  0  0  0  0
   58.4322   35.0275   44.0438 H   0  0  0  0  0  0  0  0  0  0  0  0
   58.2703   32.5460   43.8244 H   0  0  0  0  0  0  0  0  0  0  0  0
   60.7543   30.1883   47.8347 H   0  0  0  0  0  0  0  0  0  0  0  0
   61.5921   29.4793   46.4127 H   0  0  0  0  0  0  0  0  0  0  0  0
   61.1372   31.2170   46.4127 H   0  0  0  0  0  0  0  0  0  0  0  0
  1  2  1  0
  2  3  2  0
  3  4  1  0
  4  5  1  0
  5  6  2  0
  5  7  2  0
  5  8  1  0
  8  9  2  0
  9 10  1  0
 10 11  2  0
 11 12  1  0
 12 13  2  0
  3 14  1  0
 14 15  2  0
 14 16  1  0
 16 17  1  0
 17 18  2  0
 18 19  1  0
 19 20  2  0
 20 21  1  0
 21 22  2  0
 16 23  1  0
 23 24  1  0
 23  2  1  0
 13  8  1  0
 22 17  1  0
  1 25  1  0
  1 26  1  0
  1 27  1  0
  9 28  1  0
 10 29  1  0
 11 30  1  0
 12 31  1  0
 13 32  1  0
 18 33  1  0
 19 34  1  0
 20 35  1  0
 21 36  1  0
 22 37  1  0
 24 38  1  0
 24 39  1  0
 24 40  1  0
M  CHG  1   4  -1
M  END
>  <UniqueID>  (84) 
75

>  <SMILES>  (84) 
Cc1c([N-]S(=O)(=O)c2ccccc2)c(=O)n(-c2ccccc2)n1C

>  <Energy>  (84) 
85.84957147015713

>  <Genealogy>  (84) 
Cc1c([N-]S(=O)(=O)c2ccccc2)c(=O)n(-c2ccccc2)n1C (protonated)
Cc1c([N-]S(=O)(=O)c2ccccc2)c(=O)n(-c2ccccc2)n1C (3D coordinates assigned)
Cc1c([N-]S(=O)(=O)c2ccccc2)c(=O)n(-c2ccccc2)n1C (optimized conformer: 85.84957147015713 kcal/mol)

>  <smiles>  (84) 
Cc1c(NS(=O)(=O)c2ccccc2)c(=O)n(-c2ccccc2)n1C

>  <score_type>  (84) 
oracle

>  <origin>  (84) 
adg

>  <m_score__min__energy>  (84) 
-10.01

>  <m_primary>  (84) 
energy

$$$$
84:0
     RDKit          3D

 39 42  0  0  0  0  0  0  0  0999 V2000
   63.2551   33.2760   46.9676 H   0  0  0  0  0  0  0  0  0  0  0  0
   62.3880   32.8160   47.4640 C   0  0  0  0  0  0  0  0  0  0  0  0
   61.6570   33.5420   48.4060 C   0  0  0  0  0  0  0  0  0  0  0  0
   61.9573   34.5691   48.6606 H   0  0  0  0  0  0  0  0  0  0  0  0
   60.5450   32.9670   49.0260 C   0  0  0  0  0  0  0  0  0  0  0  0
   59.9689   33.5464   49.7625 H   0  0  0  0  0  0  0  0  0  0  0  0
   60.1570   31.6480   48.7130 C   0  0  0  0  0  0  0  0  0  0  0  0
   59.0110   31.0610   49.2740 O   0  0  0  0  0  0  0  0  0  0  0  0
   58.2540   31.6240   50.3410 C   0  0  0  0  0  0  0  0  0  0  0  0
   58.6826   31.3053   51.3026 H   0  0  0  0  0  0  0  0  0  0  0  0
   58.2834   32.7215   50.2722 H   0  0  0  0  0  0  0  0  0  0  0  0
   57.2114   31.2801   50.2722 H   0  0  0  0  0  0  0  0  0  0  0  0
   57.5120   32.5310   45.0270 C   0  0  0  0  0  0  0  0  0  0  0  0
   56.6750   31.5060   44.4730 N   0  0  0  0  0  0  0  0  0  0  0  0
   56.6160   30.2670   44.8680 C   0  0  0  0  0  0  0  0  0  0  0  0
   58.7190   30.0610   46.1700 N   0  0  0  0  0  0  0  0  0  0  0  0
   57.5420   29.6370   45.6520 C   0  0  0  0  0  0  0  0  0  0  0  0
   59.4340   29.1830   46.9370 C   0  0  0  0  0  0  0  0  0  0  0  0
   60.5760   29.5590   47.4310 N   0  0  0  0  0  0  0  0  0  0  0  0
   60.9270   30.9040   47.7910 C   0  0  0  0  0  0  0  0  0  0  0  0
   62.0190   31.5070   47.1520 C   0  0  0  0  0  0  0  0  0  0  0  0
   62.5896   30.9440   46.3987 H   0  0  0  0  0  0  0  0  0  0  0  0
   58.1570   33.9990   46.8550 C   0  0  0  0  0  0  0  0  0  0  0  0
   58.0476   34.3217   47.9009 H   0  0  0  0  0  0  0  0  0  0  0  0
   59.0930   34.6240   46.0250 C   0  0  0  0  0  0  0  0  0  0  0  0
   59.8630   35.6300   46.5070 F   0  0  0  0  0  0  0  0  0  0  0  0
   59.2240   34.2210   44.6930 C   0  0  0  0  0  0  0  0  0  0  0  0
   59.9545   34.7182   44.0379 H   0  0  0  0  0  0  0  0  0  0  0  0
   57.3600   32.9640   46.3560 C   0  0  0  0  0  0  0  0  0  0  0  0
   56.6114   32.4869   47.0056 H   0  0  0  0  0  0  0  0  0  0  0  0
   55.5990   29.3980   44.6400 N   0  0  0  0  0  0  0  0  0  0  0  0
   54.7130   29.5830   44.1210 H   0  0  0  0  0  0  0  0  0  0  0  0
   55.8620   28.2400   45.2440 N   0  0  0  0  0  0  0  0  0  0  0  0
   57.0530   28.3900   45.8570 C   0  0  0  0  0  0  0  0  0  0  0  0
   57.7680   27.4870   46.6250 C   0  0  0  0  0  0  0  0  0  0  0  0
   57.3921   26.4693   46.8066 H   0  0  0  0  0  0  0  0  0  0  0  0
   58.9580   27.9070   47.1490 N   0  0  0  0  0  0  0  0  0  0  0  0
   58.4270   33.1860   44.1920 C   0  0  0  0  0  0  0  0  0  0  0  0
   58.5191   32.8851   43.1380 H   0  0  0  0  0  0  0  0  0  0  0  0
  1  2  1  0
  2  3  2  0
  3  4  1  0
  3  5  1  0
  5  6  1  0
  5  7  2  0
  7  8  1  0
  8  9  1  0
  9 10  1  0
  9 11  1  0
  9 12  1  0
  7 13  1  0
 13 14  1  0
 14 15  2  0
 15 16  1  0
 16 17  2  0
 17 18  1  0
 18 19  2  0
 19 20  1  0
 20 21  2  0
 21 22  1  0
 21 23  1  0
 23 24  1  0
 23 25  2  0
 25 26  1  0
 25 27  1  0
 27 28  1  0
 27 29  2  0
 29 30  1  0
 18 31  1  0
 31 32  1  0
 31 33  1  0
 33 34  1  0
 34 35  2  0
 35 36  1  0
 35 37  1  0
 13 38  2  0
 38 39  1  0
 38  2  1  0
 37 15  1  0
 34 17  1  0
 29 20  1  0
M  CHG  2  33  -1  37  -1
M  END
>  <UniqueID>  (85) 
76

>  <SMILES>  (85) 
COc1ccccc1/N=c1/nc2/c(=N/c3ccc(F)cc3)[nH][n-]c2c[n-]1

>  <Energy>  (85) 
102.38028048070227

>  <Genealogy>  (85) 
COc1ccccc1N=c1nc2c(=Nc3ccc(F)cc3)[nH][n-]c2c[n-]1 (protonated)
COc1ccccc1/N=c1/nc2/c(=N/c3ccc(F)cc3)[nH][n-]c2c[n-]1 (cis-trans isomerization)
COc1ccccc1/N=c1/nc2/c(=N/c3ccc(F)cc3)[nH][n-]c2c[n-]1 (3D coordinates assigned)
COc1ccccc1/N=c1/nc2/c(=N/c3ccc(F)cc3)[nH][n-]c2c[n-]1 (optimized conformer: 102.38028048070227 kcal/mol)

>  <smiles>  (85) 
COc1ccccc1N=c1nc2c(=Nc3ccc(F)cc3)[nH][nH]c2c[nH]1

>  <score_type>  (85) 
oracle

>  <origin>  (85) 
adg

>  <m_score__min__energy>  (85) 
-10.720000000000001

>  <m_primary>  (85) 
energy

$$$$
85:0
     RDKit          3D

 53 55  0  0  0  0  0  0  0  0999 V2000
   55.8840   22.6070   48.4210 C   0  0  0  0  0  0  0  0  0  0  0  0
   57.1400   22.9920   47.8700 O   0  0  0  0  0  0  0  0  0  0  0  0
   57.2930   23.7610   46.7070 C   0  0  0  0  0  0  0  0  0  0  0  0
   57.1490   25.1500   46.8050 C   0  0  0  0  0  0  0  0  0  0  0  0
   57.2950   25.9600   45.6750 C   0  0  0  0  0  0  0  0  0  0  0  0
   57.5780   25.3890   44.4260 C   0  0  0  0  0  0  0  0  0  0  0  0
   57.7690   26.2690   43.2220 C   0  0  0  0  0  0  0  0  0  0  0  0
   57.6130   27.6720   43.5980 N   0  0  0  0  0  0  0  0  0  0  0  0
   58.6620   28.4160   44.2400 C   0  0  0  0  0  0  0  0  0  0  0  0
   59.7490   27.8420   44.5220 O   0  0  0  0  0  0  0  0  0  0  0  0
   58.4810   29.8430   44.5980 C   0  0  0  0  0  0  0  0  0  0  0  0
   57.6620   30.6650   43.8090 C   0  0  0  0  0  0  0  0  0  0  0  0
   57.4930   32.0140   44.1250 C   0  0  0  0  0  0  0  0  0  0  0  0
   58.1350   32.5720   45.2460 C   0  0  0  0  0  0  0  0  0  0  0  0
   57.9930   33.9300   45.5750 O   0  0  0  0  0  0  0  0  0  0  0  0
   58.8930   34.9580   45.1760 C   0  0  0  0  0  0  0  0  0  0  0  0
   58.9420   31.7480   46.0550 C   0  0  0  0  0  0  0  0  0  0  0  0
   59.7800   32.3930   47.4790 S   0  0  0  0  0  0  0  0  0  0  0  0
   59.2190   33.7410   47.8360 O   0  0  0  0  0  0  0  0  0  0  0  0
   59.5360   31.4750   48.6460 O   0  0  0  0  0  0  0  0  0  0  0  0
   61.5000   32.5330   47.2120 N   0  0  0  0  0  0  0  0  0  0  0  0
   61.8230   33.8340   46.6080 C   0  0  0  0  0  0  0  0  0  0  0  0
   63.3450   33.9440   46.3760 C   0  0  0  0  0  0  0  0  0  0  0  0
   64.0460   32.8290   46.9000 O   0  0  0  0  0  0  0  0  0  0  0  0
   63.7360   32.6690   48.2700 C   0  0  0  0  0  0  0  0  0  0  0  0
   62.2370   32.3640   48.4740 C   0  0  0  0  0  0  0  0  0  0  0  0
   59.1060   30.3940   45.7300 C   0  0  0  0  0  0  0  0  0  0  0  0
   57.7300   23.9970   44.3240 C   0  0  0  0  0  0  0  0  0  0  0  0
   57.5870   23.1870   45.4550 C   0  0  0  0  0  0  0  0  0  0  0  0
   55.9442   22.6255   49.5192 H   0  0  0  0  0  0  0  0  0  0  0  0
   55.1057   23.3078   48.0846 H   0  0  0  0  0  0  0  0  0  0  0  0
   55.6322   21.5904   48.0846 H   0  0  0  0  0  0  0  0  0  0  0  0
   56.9192   25.6076   47.7786 H   0  0  0  0  0  0  0  0  0  0  0  0
   57.1873   27.0509   45.7661 H   0  0  0  0  0  0  0  0  0  0  0  0
   58.7777   26.1118   42.8124 H   0  0  0  0  0  0  0  0  0  0  0  0
   57.0141   26.0125   42.4642 H   0  0  0  0  0  0  0  0  0  0  0  0
   56.6600   28.0900   43.5070 H   0  0  0  0  0  0  0  0  0  0  0  0
   57.1482   30.2422   42.9331 H   0  0  0  0  0  0  0  0  0  0  0  0
   56.8526   32.6462   43.4924 H   0  0  0  0  0  0  0  0  0  0  0  0
   59.3163   35.4415   46.0687 H   0  0  0  0  0  0  0  0  0  0  0  0
   59.7049   34.5218   44.5755 H   0  0  0  0  0  0  0  0  0  0  0  0
   58.3533   35.7051   44.5755 H   0  0  0  0  0  0  0  0  0  0  0  0
   61.2998   33.9287   45.6450 H   0  0  0  0  0  0  0  0  0  0  0  0
   61.5019   34.6375   47.2872 H   0  0  0  0  0  0  0  0  0  0  0  0
   63.5354   34.0063   45.2944 H   0  0  0  0  0  0  0  0  0  0  0  0
   63.7029   34.8444   46.8967 H   0  0  0  0  0  0  0  0  0  0  0  0
   64.3295   31.8370   48.6769 H   0  0  0  0  0  0  0  0  0  0  0  0
   63.9733   33.6080   48.7915 H   0  0  0  0  0  0  0  0  0  0  0  0
   62.1229   31.3273   48.8237 H   0  0  0  0  0  0  0  0  0  0  0  0
   61.8302   33.0629   49.2197 H   0  0  0  0  0  0  0  0  0  0  0  0
   59.7321   29.7544   46.3694 H   0  0  0  0  0  0  0  0  0  0  0  0
   57.9626   23.5415   43.3501 H   0  0  0  0  0  0  0  0  0  0  0  0
   57.7047   22.0969   45.3664 H   0  0  0  0  0  0  0  0  0  0  0  0
  1  2  1  0
  2  3  1  0
  3  4  2  0
  4  5  1  0
  5  6  2  0
  6  7  1  0
  7  8  1  0
  8  9  1  0
  9 10  2  0
  9 11  1  0
 11 12  2  0
 12 13  1  0
 13 14  2  0
 14 15  1  0
 15 16  1  0
 14 17  1  0
 17 18  1  0
 18 19  2  0
 18 20  2  0
 18 21  1  0
 21 22  1  0
 22 23  1  0
 23 24  1  0
 24 25  1  0
 25 26  1  0
 17 27  2  0
  6 28  1  0
 28 29  2  0
 29  3  1  0
 27 11  1  0
 26 21  1  0
  1 30  1  0
  1 31  1  0
  1 32  1  0
  4 33  1  0
  5 34  1  0
  7 35  1  0
  7 36  1  0
  8 37  1  0
 12 38  1  0
 13 39  1  0
 16 40  1  0
 16 41  1  0
 16 42  1  0
 22 43  1  0
 22 44  1  0
 23 45  1  0
 23 46  1  0
 25 47  1  0
 25 48  1  0
 26 49  1  0
 26 50  1  0
 27 51  1  0
 28 52  1  0
 29 53  1  0
M  END
>  <UniqueID>  (86) 
77

>  <SMILES>  (86) 
COc1ccc(CNC(=O)c2ccc(OC)c(S(=O)(=O)N3CCOCC3)c2)cc1

>  <Energy>  (86) 
60.56921226639484

>  <Genealogy>  (86) 
COc1ccc(CNC(=O)c2ccc(OC)c(S(=O)(=O)N3CCOCC3)c2)cc1 (3D coordinates assigned)
COc1ccc(CNC(=O)c2ccc(OC)c(S(=O)(=O)N3CCOCC3)c2)cc1 (nonaromatic ring conformer: 60.56921226639484 kcal/mol)

>  <smiles>  (86) 
COc1ccc(CNC(=O)c2ccc(OC)c(S(=O)(=O)N3CCOCC3)c2)cc1

>  <score_type>  (86) 
oracle

>  <origin>  (86) 
adg

>  <m_score__min__energy>  (86) 
-9.1199999999999992

>  <m_primary>  (86) 
energy

$$$$
86:0
     RDKit          3D

 48 52  0  0  0  0  0  0  0  0999 V2000
   58.9140   34.1830   52.1450 C   0  0  0  0  0  0  0  0  0  0  0  0
   59.8880   34.0370   51.1170 O   0  0  0  0  0  0  0  0  0  0  0  0
   59.6140   33.5660   49.8230 C   0  0  0  0  0  0  0  0  0  0  0  0
   59.7310   34.3890   48.6880 C   0  0  0  0  0  0  0  0  0  0  0  0
   59.4530   33.8850   47.4150 C   0  0  0  0  0  0  0  0  0  0  0  0
   59.5470   34.6990   46.3330 N   0  0  0  0  0  0  0  0  0  0  0  0
   59.2790   34.2610   45.1030 N   0  0  0  0  0  0  0  0  0  0  0  0
   58.9060   32.9770   44.8730 C   0  0  0  0  0  0  0  0  0  0  0  0
   58.8020   32.0730   45.9370 C   0  0  0  0  0  0  0  0  0  0  0  0
   58.4410   30.6680   45.6420 C   0  0  0  0  0  0  0  0  0  0  0  0
   59.3610   29.6360   45.8630 C   0  0  0  0  0  0  0  0  0  0  0  0
   59.0090   28.3130   45.5990 C   0  0  0  0  0  0  0  0  0  0  0  0
   57.7170   28.0200   45.1220 C   0  0  0  0  0  0  0  0  0  0  0  0
   57.2940   26.6290   44.8160 C   0  0  0  0  0  0  0  0  0  0  0  0
   57.7950   25.9420   43.6940 C   0  0  0  0  0  0  0  0  0  0  0  0
   57.3960   24.6320   43.4220 C   0  0  0  0  0  0  0  0  0  0  0  0
   56.4890   23.9760   44.2710 C   0  0  0  0  0  0  0  0  0  0  0  0
   56.0630   22.6550   44.0260 C   0  0  0  0  0  0  0  0  0  0  0  0
   56.4840   22.0130   43.0270 O   0  0  0  0  0  0  0  0  0  0  0  0
   55.1860   22.0560   44.8770 N   0  0  0  0  0  0  0  0  0  0  0  0
   54.6960   22.6930   45.9710 C   0  0  0  0  0  0  0  0  0  0  0  0
   55.0860   24.0010   46.2580 C   0  0  0  0  0  0  0  0  0  0  0  0
   55.9880   24.6530   45.4070 C   0  0  0  0  0  0  0  0  0  0  0  0
   56.3960   25.9680   45.6740 C   0  0  0  0  0  0  0  0  0  0  0  0
   56.8400   29.0430   44.9220 N   0  0  0  0  0  0  0  0  0  0  0  0
   57.1630   30.3390   45.1720 C   0  0  0  0  0  0  0  0  0  0  0  0
   59.0650   32.5390   47.2480 C   0  0  0  0  0  0  0  0  0  0  0  0
   58.9270   31.7250   48.3880 C   0  0  0  0  0  0  0  0  0  0  0  0
   59.2080   32.2310   49.6730 C   0  0  0  0  0  0  0  0  0  0  0  0
   59.0910   31.4390   50.8260 O   0  0  0  0  0  0  0  0  0  0  0  0
   57.8630   30.9390   51.3440 C   0  0  0  0  0  0  0  0  0  0  0  0
   59.4037   34.1096   53.1272 H   0  0  0  0  0  0  0  0  0  0  0  0
   58.4260   35.1643   52.0510 H   0  0  0  0  0  0  0  0  0  0  0  0
   58.1597   33.3879   52.0510 H   0  0  0  0  0  0  0  0  0  0  0  0
   60.0437   35.4372   48.8037 H   0  0  0  0  0  0  0  0  0  0  0  0
   58.6847   32.6453   43.8478 H   0  0  0  0  0  0  0  0  0  0  0  0
   60.3652   29.8698   46.2463 H   0  0  0  0  0  0  0  0  0  0  0  0
   59.7357   27.5035   45.7623 H   0  0  0  0  0  0  0  0  0  0  0  0
   58.5090   26.4431   43.0239 H   0  0  0  0  0  0  0  0  0  0  0  0
   57.7937   24.1110   42.5386 H   0  0  0  0  0  0  0  0  0  0  0  0
   53.9878   22.1750   46.6345 H   0  0  0  0  0  0  0  0  0  0  0  0
   54.6888   24.5163   47.1450 H   0  0  0  0  0  0  0  0  0  0  0  0
   56.0100   26.4879   46.5632 H   0  0  0  0  0  0  0  0  0  0  0  0
   56.4190   31.1318   45.0049 H   0  0  0  0  0  0  0  0  0  0  0  0
   58.5961   30.6821   48.2747 H   0  0  0  0  0  0  0  0  0  0  0  0
   57.8962   30.9525   52.4434 H   0  0  0  0  0  0  0  0  0  0  0  0
   57.0332   31.5709   50.9944 H   0  0  0  0  0  0  0  0  0  0  0  0
   57.7106   29.9072   50.9944 H   0  0  0  0  0  0  0  0  0  0  0  0
  1  2  1  0
  2  3  1  0
  3  4  2  0
  4  5  1  0
  5  6  2  0
  6  7  1  0
  7  8  2  0
  8  9  1  0
  9 10  1  0
 10 11  2  0
 11 12  1  0
 12 13  2  0
 13 14  1  0
 14 15  2  0
 15 16  1  0
 16 17  2  0
 17 18  1  0
 18 19  2  0
 18 20  1  0
 20 21  1  0
 21 22  2  0
 22 23  1  0
 23 24  2  0
 13 25  1  0
 25 26  2  0
  9 27  2  0
 27 28  1  0
 28 29  2  0
 29 30  1  0
 30 31  1  0
 29  3  1  0
 27  5  1  0
 26 10  1  0
 24 14  1  0
 23 17  1  0
  1 32  1  0
  1 33  1  0
  1 34  1  0
  4 35  1  0
  8 36  1  0
 11 37  1  0
 12 38  1  0
 15 39  1  0
 16 40  1  0
 21 41  1  0
 22 42  1  0
 24 43  1  0
 26 44  1  0
 28 45  1  0
 31 46  1  0
 31 47  1  0
 31 48  1  0
M  CHG  1  20  -1
M  END
>  <UniqueID>  (87) 
78

>  <SMILES>  (87) 
COc1cc2nncc(-c3ccc(-c4ccc5c(=O)[n-]ccc5c4)nc3)c2cc1OC

>  <Energy>  (87) 
76.36370009279658

>  <Genealogy>  (87) 
COc1cc2nncc(-c3ccc(-c4ccc5c(=O)[n-]ccc5c4)nc3)c2cc1OC (protonated)
COc1cc2nncc(-c3ccc(-c4ccc5c(=O)[n-]ccc5c4)nc3)c2cc1OC (3D coordinates assigned)
COc1cc2nncc(-c3ccc(-c4ccc5c(=O)[n-]ccc5c4)nc3)c2cc1OC (optimized conformer: 76.36370009279658 kcal/mol)

>  <smiles>  (87) 
COc1cc2nncc(-c3ccc(-c4ccc5c(=O)[nH]ccc5c4)nc3)c2cc1OC

>  <score_type>  (87) 
oracle

>  <origin>  (87) 
adg

>  <m_score__min__energy>  (87) 
-9.5600000000000005

>  <m_primary>  (87) 
energy

$$$$
87:0
     RDKit          3D

 27 28  0  0  0  0  0  0  0  0999 V2000
   58.9965   30.9952   47.4545 H   0  0  0  0  0  0  0  0  0  0  0  0
   58.5750   30.0210   47.1660 C   0  0  0  0  0  0  0  0  0  0  0  0
   58.4961   29.2140   47.9093 H   0  0  0  0  0  0  0  0  0  0  0  0
   58.1570   29.8170   45.9070 C   0  0  0  0  0  0  0  0  0  0  0  0
   57.5990   28.6400   45.3810 C   0  0  0  0  0  0  0  0  0  0  0  0
   57.5320   27.3920   45.8850 C   0  0  0  0  0  0  0  0  0  0  0  0
   58.3586   27.0682   46.5345 H   0  0  0  0  0  0  0  0  0  0  0  0
   56.4510   26.4250   45.6430 C   0  0  0  0  0  0  0  0  0  0  0  0
   55.1670   26.7130   45.9930 N   0  0  0  0  0  0  0  0  0  0  0  0
   54.1960   25.8130   45.8370 N   0  0  0  0  0  0  0  0  0  0  0  0
   54.4600   24.5780   45.3430 C   0  0  0  0  0  0  0  0  0  0  0  0
   53.5280   23.7420   45.2000 O   0  0  0  0  0  0  0  0  0  0  0  0
   55.7770   24.2550   45.0080 C   0  0  0  0  0  0  0  0  0  0  0  0
   56.0700   23.1150   44.5590 O   0  0  0  0  0  0  0  0  0  0  0  0
   56.7510   25.1860   45.1760 N   0  0  0  0  0  0  0  0  0  0  0  0
   57.0850   28.9750   44.1410 C   0  0  0  0  0  0  0  0  0  0  0  0
   56.5338   28.3108   43.4591 H   0  0  0  0  0  0  0  0  0  0  0  0
   57.3960   30.3020   43.9230 C   0  0  0  0  0  0  0  0  0  0  0  0
   57.0300   31.0680   42.6890 C   0  0  0  0  0  0  0  0  0  0  0  0
   56.5720   32.0265   42.9747 H   0  0  0  0  0  0  0  0  0  0  0  0
   57.9350   31.2573   42.0930 H   0  0  0  0  0  0  0  0  0  0  0  0
   56.3142   30.4828   42.0930 H   0  0  0  0  0  0  0  0  0  0  0  0
   58.0670   30.8100   44.9830 N   0  0  0  0  0  0  0  0  0  0  0  0
   58.4880   32.2050   45.1490 C   0  0  0  0  0  0  0  0  0  0  0  0
   58.5593   32.4414   46.2209 H   0  0  0  0  0  0  0  0  0  0  0  0
   59.4701   32.3505   44.6753 H   0  0  0  0  0  0  0  0  0  0  0  0
   57.7504   32.8695   44.6753 H   0  0  0  0  0  0  0  0  0  0  0  0
  1  2  1  0
  2  3  1  0
  2  4  2  0
  4  5  1  0
  5  6  2  0
  6  7  1  0
  6  8  1  0
  8  9  2  0
  9 10  1  0
 10 11  1  0
 11 12  2  0
 11 13  1  0
 13 14  2  0
 13 15  1  0
  5 16  1  0
 16 17  1  0
 16 18  2  0
 18 19  1  0
 19 20  1  0
 19 21  1  0
 19 22  1  0
 18 23  1  0
 23 24  1  0
 24 25  1  0
 24 26  1  0
 24 27  1  0
 23  4  1  0
 15  8  1  0
M  CHG  2  10  -1  15  -1
M  END
>  <UniqueID>  (88) 
79

>  <SMILES>  (88) 
C=c1/c(=C\c2n[n-]c(=O)c(=O)[n-]2)cc(C)n1C

>  <Energy>  (88) 
69.02721911707262

>  <Genealogy>  (88) 
C=c1c(=Cc2n[n-]c(=O)c(=O)[n-]2)cc(C)n1C (protonated)
C=c1/c(=C\c2n[n-]c(=O)c(=O)[n-]2)cc(C)n1C (cis-trans isomerization)
C=c1/c(=C\c2n[n-]c(=O)c(=O)[n-]2)cc(C)n1C (3D coordinates assigned)
C=c1/c(=C\c2n[n-]c(=O)c(=O)[n-]2)cc(C)n1C (optimized conformer: 69.02721911707262 kcal/mol)

>  <smiles>  (88) 
C=c1c(=Cc2n[nH]c(=O)c(=O)[nH]2)cc(C)n1C

>  <score_type>  (88) 
oracle

>  <origin>  (88) 
adg

>  <m_score__min__energy>  (88) 
-11.220000000000001

>  <m_primary>  (88) 
energy

$$$$
88:0
     RDKit          3D

 28 30  0  0  0  0  0  0  0  0999 V2000
   59.2820   34.6430   44.5250 O   0  0  0  0  0  0  0  0  0  0  0  0
   58.8670   33.6080   45.1190 C   0  0  0  0  0  0  0  0  0  0  0  0
   58.2260   32.6020   44.3790 C   0  0  0  0  0  0  0  0  0  0  0  0
   58.0390   32.7020   42.9860 C   0  0  0  0  0  0  0  0  0  0  0  0
   57.3950   31.6760   42.2880 C   0  0  0  0  0  0  0  0  0  0  0  0
   56.9330   30.5480   42.9680 C   0  0  0  0  0  0  0  0  0  0  0  0
   57.1130   30.4400   44.3500 C   0  0  0  0  0  0  0  0  0  0  0  0
   57.7590   31.4650   45.0600 C   0  0  0  0  0  0  0  0  0  0  0  0
   57.9310   31.3670   46.4040 N   0  0  0  0  0  0  0  0  0  0  0  0
   58.5530   32.3480   47.1170 C   0  0  0  0  0  0  0  0  0  0  0  0
   58.6940   32.1450   48.7470 S   0  0  0  0  0  0  0  0  0  0  0  0
   59.0380   33.4720   46.4790 N   0  0  0  0  0  0  0  0  0  0  0  0
   59.7010   34.5560   47.2400 C   0  0  0  0  0  0  0  0  0  0  0  0
   61.1350   34.2140   47.5090 C   0  0  0  0  0  0  0  0  0  0  0  0
   62.0750   33.8190   46.5640 C   0  0  0  0  0  0  0  0  0  0  0  0
   63.3280   33.5350   47.1200 C   0  0  0  0  0  0  0  0  0  0  0  0
   63.3770   33.6980   48.4990 C   0  0  0  0  0  0  0  0  0  0  0  0
   61.8590   34.1920   49.0270 S   0  0  0  0  0  0  0  0  0  0  0  0
   58.4007   33.5896   42.4463 H   0  0  0  0  0  0  0  0  0  0  0  0
   57.2521   31.7579   41.2004 H   0  0  0  0  0  0  0  0  0  0  0  0
   56.4265   29.7428   42.4156 H   0  0  0  0  0  0  0  0  0  0  0  0
   56.7476   29.5497   44.8828 H   0  0  0  0  0  0  0  0  0  0  0  0
   57.5740   30.5200   46.9050 H   0  0  0  0  0  0  0  0  0  0  0  0
   59.6553   35.4872   46.6562 H   0  0  0  0  0  0  0  0  0  0  0  0
   59.1813   34.6822   48.2012 H   0  0  0  0  0  0  0  0  0  0  0  0
   61.8565   33.7379   45.4890 H   0  0  0  0  0  0  0  0  0  0  0  0
   64.1928   33.2130   46.5213 H   0  0  0  0  0  0  0  0  0  0  0  0
   64.2581   33.5322   49.1363 H   0  0  0  0  0  0  0  0  0  0  0  0
  1  2  2  0
  2  3  1  0
  3  4  2  0
  4  5  1  0
  5  6  2  0
  6  7  1  0
  7  8  2  0
  8  9  1  0
  9 10  1  0
 10 11  2  0
 10 12  1  0
 12 13  1  0
 13 14  1  0
 14 15  2  0
 15 16  1  0
 16 17  2  0
 17 18  1  0
 12  2  1  0
 18 14  1  0
  8  3  1  0
  4 19  1  0
  5 20  1  0
  6 21  1  0
  7 22  1  0
  9 23  1  0
 13 24  1  0
 13 25  1  0
 15 26  1  0
 16 27  1  0
 17 28  1  0
M  END
>  <UniqueID>  (89) 
80

>  <SMILES>  (89) 
O=c1c2ccccc2[nH]c(=S)n1Cc1cccs1

>  <Energy>  (89) 
66.36463351822493

>  <Genealogy>  (89) 
O=c1c2ccccc2[nH]c(=S)n1Cc1cccs1 (3D coordinates assigned)
O=c1c2ccccc2[nH]c(=S)n1Cc1cccs1 (optimized conformer: 66.36463351822493 kcal/mol)

>  <smiles>  (89) 
O=c1c2ccccc2[nH]c(=S)n1Cc1cccs1

>  <score_type>  (89) 
oracle

>  <origin>  (89) 
adg

>  <m_score__min__energy>  (89) 
-6.75

>  <m_primary>  (89) 
energy

$$$$
89:0
     RDKit          3D

 49 52  0  0  0  0  0  0  0  0999 V2000
   56.1330   29.5460   42.5000 F   0  0  0  0  0  0  0  0  0  0  0  0
   56.7530   30.6210   43.0460 C   0  0  0  0  0  0  0  0  0  0  0  0
   57.3700   31.5640   42.2200 C   0  0  0  0  0  0  0  0  0  0  0  0
   58.0110   32.6750   42.7770 C   0  0  0  0  0  0  0  0  0  0  0  0
   58.0390   32.8490   44.1750 C   0  0  0  0  0  0  0  0  0  0  0  0
   58.6680   33.9440   44.7850 O   0  0  0  0  0  0  0  0  0  0  0  0
   58.4070   34.3840   46.1160 C   0  0  0  0  0  0  0  0  0  0  0  0
   59.5590   33.9700   47.0210 C   0  0  0  0  0  0  0  0  0  0  0  0
   60.1820   32.8020   46.4940 O   0  0  0  0  0  0  0  0  0  0  0  0
   60.1940   31.5810   47.1730 C   0  0  0  0  0  0  0  0  0  0  0  0
   59.6250   30.4570   46.5750 C   0  0  0  0  0  0  0  0  0  0  0  0
   59.6460   29.2350   47.2640 C   0  0  0  0  0  0  0  0  0  0  0  0
   59.0570   28.0150   46.6550 C   0  0  0  0  0  0  0  0  0  0  0  0
   58.4960   27.0090   47.4610 C   0  0  0  0  0  0  0  0  0  0  0  0
   57.9450   25.8610   46.8840 C   0  0  0  0  0  0  0  0  0  0  0  0
   57.9430   25.6940   45.4880 C   0  0  0  0  0  0  0  0  0  0  0  0
   57.3560   24.4750   44.8760 C   0  0  0  0  0  0  0  0  0  0  0  0
   55.9720   24.3910   44.6300 C   0  0  0  0  0  0  0  0  0  0  0  0
   55.4240   23.2410   44.0530 C   0  0  0  0  0  0  0  0  0  0  0  0
   56.2470   22.1660   43.7150 C   0  0  0  0  0  0  0  0  0  0  0  0
   57.6210   22.2360   43.9530 C   0  0  0  0  0  0  0  0  0  0  0  0
   58.1750   23.3830   44.5300 C   0  0  0  0  0  0  0  0  0  0  0  0
   58.5040   26.7010   44.6830 C   0  0  0  0  0  0  0  0  0  0  0  0
   59.0560   27.8480   45.2600 C   0  0  0  0  0  0  0  0  0  0  0  0
   60.2250   29.1790   48.5000 N   0  0  0  0  0  0  0  0  0  0  0  0
   60.7730   30.2870   49.0680 C   0  0  0  0  0  0  0  0  0  0  0  0
   60.7560   31.4730   48.4070 N   0  0  0  0  0  0  0  0  0  0  0  0
   57.4170   31.8980   44.9950 C   0  0  0  0  0  0  0  0  0  0  0  0
   56.7760   30.7890   44.4340 C   0  0  0  0  0  0  0  0  0  0  0  0
   56.1780   29.8750   45.2390 F   0  0  0  0  0  0  0  0  0  0  0  0
   57.3515   31.4320   41.1281 H   0  0  0  0  0  0  0  0  0  0  0  0
   58.4945   33.4149   42.1222 H   0  0  0  0  0  0  0  0  0  0  0  0
   58.3069   35.4794   46.1273 H   0  0  0  0  0  0  0  0  0  0  0  0
   57.4738   33.9274   46.4774 H   0  0  0  0  0  0  0  0  0  0  0  0
   60.2950   34.7858   47.0739 H   0  0  0  0  0  0  0  0  0  0  0  0
   59.1743   33.7567   48.0292 H   0  0  0  0  0  0  0  0  0  0  0  0
   59.1664   30.5275   45.5776 H   0  0  0  0  0  0  0  0  0  0  0  0
   58.4905   27.1261   48.5547 H   0  0  0  0  0  0  0  0  0  0  0  0
   57.5096   25.0822   47.5273 H   0  0  0  0  0  0  0  0  0  0  0  0
   55.3178   25.2352   44.8933 H   0  0  0  0  0  0  0  0  0  0  0  0
   54.3417   23.1837   43.8652 H   0  0  0  0  0  0  0  0  0  0  0  0
   55.8131   21.2630   43.2608 H   0  0  0  0  0  0  0  0  0  0  0  0
   58.2686   21.3878   43.6863 H   0  0  0  0  0  0  0  0  0  0  0  0
   59.2582   23.4326   44.7149 H   0  0  0  0  0  0  0  0  0  0  0  0
   58.5085   26.5850   43.5891 H   0  0  0  0  0  0  0  0  0  0  0  0
   59.4931   28.6261   44.6169 H   0  0  0  0  0  0  0  0  0  0  0  0
   60.2350   28.2870   49.0420 H   0  0  0  0  0  0  0  0  0  0  0  0
   61.2313   30.2220   50.0659 H   0  0  0  0  0  0  0  0  0  0  0  0
   57.4331   32.0247   46.0876 H   0  0  0  0  0  0  0  0  0  0  0  0
  1  2  1  0
  2  3  2  0
  3  4  1  0
  4  5  2  0
  5  6  1  0
  6  7  1  0
  7  8  1  0
  8  9  1  0
  9 10  1  0
 10 11  2  0
 11 12  1  0
 12 13  1  0
 13 14  2  0
 14 15  1  0
 15 16  2  0
 16 17  1  0
 17 18  2  0
 18 19  1  0
 19 20  2  0
 20 21  1  0
 21 22  2  0
 16 23  1  0
 23 24  2  0
 12 25  2  0
 25 26  1  0
 26 27  2  0
  5 28  1  0
 28 29  2  0
 29 30  1  0
 29  2  1  0
 27 10  1  0
 24 13  1  0
 22 17  1  0
  3 31  1  0
  4 32  1  0
  7 33  1  0
  7 34  1  0
  8 35  1  0
  8 36  1  0
 11 37  1  0
 14 38  1  0
 15 39  1  0
 18 40  1  0
 19 41  1  0
 20 42  1  0
 21 43  1  0
 22 44  1  0
 23 45  1  0
 24 46  1  0
 25 47  1  0
 26 48  1  0
 28 49  1  0
M  CHG  1  25   1
M  END
>  <UniqueID>  (90) 
81

>  <SMILES>  (90) 
Fc1ccc(OCCOc2cc(-c3ccc(-c4ccccc4)cc3)[nH+]cn2)cc1F

>  <Energy>  (90) 
60.01007074523362

>  <Genealogy>  (90) 
Fc1ccc(OCCOc2cc(-c3ccc(-c4ccccc4)cc3)[nH+]cn2)cc1F (protonated)
Fc1ccc(OCCOc2cc(-c3ccc(-c4ccccc4)cc3)[nH+]cn2)cc1F (3D coordinates assigned)
Fc1ccc(OCCOc2cc(-c3ccc(-c4ccccc4)cc3)[nH+]cn2)cc1F (optimized conformer: 60.01007074523362 kcal/mol)

>  <smiles>  (90) 
Fc1ccc(OCCOc2cc(-c3ccc(-c4ccccc4)cc3)ncn2)cc1F

>  <score_type>  (90) 
oracle

>  <origin>  (90) 
adg

>  <m_score__min__energy>  (90) 
-7.2400000000000002

>  <m_primary>  (90) 
energy

$$$$
90:0
     RDKit          3D

 33 34  0  0  0  0  0  0  0  0999 V2000
   57.4170   33.5530   44.9930 C   0  0  0  0  0  0  0  0  0  0  0  0
   57.6970   32.0840   44.8670 C   0  0  0  0  0  0  0  0  0  0  0  0
   57.0070   31.3120   43.9210 C   0  0  0  0  0  0  0  0  0  0  0  0
   57.2400   29.9360   43.8280 C   0  0  0  0  0  0  0  0  0  0  0  0
   58.1480   29.3100   44.6970 C   0  0  0  0  0  0  0  0  0  0  0  0
   58.4140   27.8320   44.5900 C   0  0  0  0  0  0  0  0  0  0  0  0
   57.6920   27.0990   45.6290 N   0  0  0  0  0  0  0  0  0  0  0  0
   57.1060   25.8060   45.4220 C   0  0  0  0  0  0  0  0  0  0  0  0
   56.3410   25.0750   46.6770 S   0  0  0  0  0  0  0  0  0  0  0  0
   57.0360   25.2350   44.1050 N   0  0  0  0  0  0  0  0  0  0  0  0
   57.1030   23.8250   43.8310 C   0  0  0  0  0  0  0  0  0  0  0  0
   58.0860   23.0420   44.4500 C   0  0  0  0  0  0  0  0  0  0  0  0
   58.1420   21.6680   44.2090 C   0  0  0  0  0  0  0  0  0  0  0  0
   57.2000   21.0830   43.3620 C   0  0  0  0  0  0  0  0  0  0  0  0
   56.2340   21.8480   42.7870 N   0  0  0  0  0  0  0  0  0  0  0  0
   56.1610   23.1890   43.0030 C   0  0  0  0  0  0  0  0  0  0  0  0
   58.8360   30.0840   45.6450 C   0  0  0  0  0  0  0  0  0  0  0  0
   58.6040   31.4590   45.7380 C   0  0  0  0  0  0  0  0  0  0  0  0
   57.3649   33.8264   46.0572 H   0  0  0  0  0  0  0  0  0  0  0  0
   58.2227   34.1228   44.5071 H   0  0  0  0  0  0  0  0  0  0  0  0
   56.4582   33.7865   44.5071 H   0  0  0  0  0  0  0  0  0  0  0  0
   56.2794   31.7908   43.2492 H   0  0  0  0  0  0  0  0  0  0  0  0
   56.7091   29.3412   43.0701 H   0  0  0  0  0  0  0  0  0  0  0  0
   58.0845   27.4766   43.6025 H   0  0  0  0  0  0  0  0  0  0  0  0
   59.4923   27.6571   44.7191 H   0  0  0  0  0  0  0  0  0  0  0  0
   57.6610   27.5180   46.5870 H   0  0  0  0  0  0  0  0  0  0  0  0
   56.8810   25.8780   43.2990 H   0  0  0  0  0  0  0  0  0  0  0  0
   58.8152   23.5107   45.1273 H   0  0  0  0  0  0  0  0  0  0  0  0
   58.9212   21.0525   44.6823 H   0  0  0  0  0  0  0  0  0  0  0  0
   57.2389   20.0025   43.1593 H   0  0  0  0  0  0  0  0  0  0  0  0
   55.3624   23.7780   42.5283 H   0  0  0  0  0  0  0  0  0  0  0  0
   59.5620   29.6053   46.3186 H   0  0  0  0  0  0  0  0  0  0  0  0
   59.1339   32.0540   46.4964 H   0  0  0  0  0  0  0  0  0  0  0  0
  1  2  1  0
  2  3  2  0
  3  4  1  0
  4  5  2  0
  5  6  1  0
  6  7  1  0
  7  8  1  0
  8  9  2  0
  8 10  1  0
 10 11  1  0
 11 12  2  0
 12 13  1  0
 13 14  2  0
 14 15  1  0
 15 16  2  0
  5 17  1  0
 17 18  2  0
 18  2  1  0
 16 11  1  0
  1 19  1  0
  1 20  1  0
  1 21  1  0
  3 22  1  0
  4 23  1  0
  6 24  1  0
  6 25  1  0
  7 26  1  0
 10 27  1  0
 12 28  1  0
 13 29  1  0
 14 30  1  0
 16 31  1  0
 17 32  1  0
 18 33  1  0
M  END
>  <UniqueID>  (91) 
82

>  <SMILES>  (91) 
Cc1ccc(CNC(=S)Nc2cccnc2)cc1

>  <Energy>  (91) 
36.43490308336795

>  <Genealogy>  (91) 
Cc1ccc(CNC(=S)Nc2cccnc2)cc1 (3D coordinates assigned)
Cc1ccc(CNC(=S)Nc2cccnc2)cc1 (optimized conformer: 36.43490308336795 kcal/mol)

>  <smiles>  (91) 
Cc1ccc(CNC(=S)Nc2cccnc2)cc1

>  <score_type>  (91) 
oracle

>  <origin>  (91) 
adg

>  <m_score__min__energy>  (91) 
-6.75

>  <m_primary>  (91) 
energy

$$$$
91:0
     RDKit          3D

 41 42  0  0  0  0  0  0  0  0999 V2000
   55.5580   29.7390   44.2490 C   0  0  0  0  0  0  0  0  0  0  0  0
   56.4800   30.0140   43.0550 C   0  0  0  0  0  0  0  0  0  0  0  0
   57.7450   30.6800   43.4580 N   0  0  0  0  0  0  0  0  0  0  0  0
   57.7990   32.0980   42.9980 C   0  0  0  0  0  0  0  0  0  0  0  0
   57.4290   33.0990   44.1080 C   0  0  0  0  0  0  0  0  0  0  0  0
   58.3040   32.9730   45.3030 N   0  0  0  0  0  0  0  0  0  0  0  0
   59.3600   34.0060   45.3340 C   0  0  0  0  0  0  0  0  0  0  0  0
   59.7410   34.3580   46.7490 C   0  0  0  0  0  0  0  0  0  0  0  0
   58.9120   34.9800   47.4660 O   0  0  0  0  0  0  0  0  0  0  0  0
   61.0410   33.9630   47.3360 C   0  0  0  0  0  0  0  0  0  0  0  0
   62.1440   33.8430   46.4750 C   0  0  0  0  0  0  0  0  0  0  0  0
   63.4070   33.5210   46.9740 C   0  0  0  0  0  0  0  0  0  0  0  0
   63.5840   33.3100   48.3410 C   0  0  0  0  0  0  0  0  0  0  0  0
   62.4950   33.4040   49.2100 C   0  0  0  0  0  0  0  0  0  0  0  0
   61.2120   33.7090   48.7220 C   0  0  0  0  0  0  0  0  0  0  0  0
   60.0620   33.7550   49.6910 C   0  0  0  0  0  0  0  0  0  0  0  0
   58.8910   31.6220   45.4590 C   0  0  0  0  0  0  0  0  0  0  0  0
   57.9420   30.5450   44.9250 C   0  0  0  0  0  0  0  0  0  0  0  0
   56.1114   29.9041   45.1852 H   0  0  0  0  0  0  0  0  0  0  0  0
   54.6939   30.4185   44.2091 H   0  0  0  0  0  0  0  0  0  0  0  0
   55.2073   28.6972   44.2091 H   0  0  0  0  0  0  0  0  0  0  0  0
   56.7235   29.0576   42.5691 H   0  0  0  0  0  0  0  0  0  0  0  0
   55.9484   30.6905   42.3696 H   0  0  0  0  0  0  0  0  0  0  0  0
   58.5410   30.1710   43.0030 H   0  0  0  0  0  0  0  0  0  0  0  0
   58.8203   32.3171   42.6531 H   0  0  0  0  0  0  0  0  0  0  0  0
   57.0623   32.2125   42.1892 H   0  0  0  0  0  0  0  0  0  0  0  0
   57.5226   34.1195   43.7083 H   0  0  0  0  0  0  0  0  0  0  0  0
   56.3981   32.8815   44.4242 H   0  0  0  0  0  0  0  0  0  0  0  0
   60.2482   33.6262   44.8078 H   0  0  0  0  0  0  0  0  0  0  0  0
   58.9741   34.9116   44.8431 H   0  0  0  0  0  0  0  0  0  0  0  0
   62.0110   34.0046   45.3951 H   0  0  0  0  0  0  0  0  0  0  0  0
   64.2631   33.4336   46.2888 H   0  0  0  0  0  0  0  0  0  0  0  0
   64.5824   33.0693   48.7351 H   0  0  0  0  0  0  0  0  0  0  0  0
   62.6423   33.2377   50.2873 H   0  0  0  0  0  0  0  0  0  0  0  0
   60.4492   33.7395   50.7205 H   0  0  0  0  0  0  0  0  0  0  0  0
   59.4839   34.6770   49.5305 H   0  0  0  0  0  0  0  0  0  0  0  0
   59.4121   32.8821   49.5305 H   0  0  0  0  0  0  0  0  0  0  0  0
   59.8382   31.5750   44.9016 H   0  0  0  0  0  0  0  0  0  0  0  0
   59.0635   31.4369   46.5295 H   0  0  0  0  0  0  0  0  0  0  0  0
   58.3674   29.5536   45.1399 H   0  0  0  0  0  0  0  0  0  0  0  0
   56.9667   30.6647   45.4194 H   0  0  0  0  0  0  0  0  0  0  0  0
  1  2  1  0
  2  3  1  0
  3  4  1  0
  4  5  1  0
  5  6  1  0
  6  7  1  0
  7  8  1  0
  8  9  2  0
  8 10  1  0
 10 11  2  0
 11 12  1  0
 12 13  2  0
 13 14  1  0
 14 15  2  0
 15 16  1  0
  6 17  1  0
 17 18  1  0
 18  3  1  0
 15 10  1  0
  1 19  1  0
  1 20  1  0
  1 21  1  0
  2 22  1  0
  2 23  1  0
  3 24  1  0
  4 25  1  0
  4 26  1  0
  5 27  1  0
  5 28  1  0
  7 29  1  0
  7 30  1  0
 11 31  1  0
 12 32  1  0
 13 33  1  0
 14 34  1  0
 16 35  1  0
 16 36  1  0
 16 37  1  0
 17 38  1  0
 17 39  1  0
 18 40  1  0
 18 41  1  0
M  CHG  1   3   1
M  END
>  <UniqueID>  (92) 
83

>  <SMILES>  (92) 
CC[NH+]1CCN(CC(=O)c2ccccc2C)CC1

>  <Energy>  (92) 
57.972564470250106

>  <Genealogy>  (92) 
CC[NH+]1CCN(CC(=O)c2ccccc2C)CC1 (protonated)
CC[NH+]1CCN(CC(=O)c2ccccc2C)CC1 (3D coordinates assigned)
CC[NH+]1CCN(CC(=O)c2ccccc2C)CC1 (nonaromatic ring conformer: 57.972564470250106 kcal/mol)

>  <smiles>  (92) 
CCN1CCN(CC(=O)c2ccccc2C)CC1

>  <score_type>  (92) 
oracle

>  <origin>  (92) 
adg

>  <m_score__min__energy>  (92) 
-5.2999999999999998

>  <m_primary>  (92) 
energy

$$$$
92:0
     RDKit          3D

 29 30  0  0  0  0  0  0  0  0999 V2000
   57.0170   33.8450   45.6190 C   0  0  0  0  0  0  0  0  0  0  0  0
   58.0740   32.7920   45.8450 C   0  0  0  0  0  0  0  0  0  0  0  0
   57.8480   31.4670   45.4510 C   0  0  0  0  0  0  0  0  0  0  0  0
   56.6330   31.1010   44.8770 O   0  0  0  0  0  0  0  0  0  0  0  0
   58.8540   30.5120   45.6400 C   0  0  0  0  0  0  0  0  0  0  0  0
   58.6310   29.0700   45.2680 C   0  0  0  0  0  0  0  0  0  0  0  0
   59.8200   28.2790   45.6020 C   0  0  0  0  0  0  0  0  0  0  0  0
   60.7570   27.6540   45.8650 N   0  0  0  0  0  0  0  0  0  0  0  0
   60.0320   30.8890   46.2110 N   0  0  0  0  0  0  0  0  0  0  0  0
   60.2780   32.1580   46.5630 N   0  0  0  0  0  0  0  0  0  0  0  0
   61.5600   32.4830   47.1380 C   0  0  0  0  0  0  0  0  0  0  0  0
   62.0500   31.7430   48.2270 C   0  0  0  0  0  0  0  0  0  0  0  0
   63.2990   32.0430   48.7790 C   0  0  0  0  0  0  0  0  0  0  0  0
   64.0710   33.0780   48.2430 C   0  0  0  0  0  0  0  0  0  0  0  0
   63.5960   33.8120   47.1540 C   0  0  0  0  0  0  0  0  0  0  0  0
   62.3460   33.5150   46.6000 C   0  0  0  0  0  0  0  0  0  0  0  0
   59.3220   33.1280   46.3940 C   0  0  0  0  0  0  0  0  0  0  0  0
   59.5530   34.3190   46.7440 O   0  0  0  0  0  0  0  0  0  0  0  0
   56.6501   34.2105   46.5895 H   0  0  0  0  0  0  0  0  0  0  0  0
   57.4491   34.6823   45.0514 H   0  0  0  0  0  0  0  0  0  0  0  0
   56.1813   33.4098   45.0514 H   0  0  0  0  0  0  0  0  0  0  0  0
   57.7654   28.6797   45.8233 H   0  0  0  0  0  0  0  0  0  0  0  0
   58.4413   29.0000   44.1868 H   0  0  0  0  0  0  0  0  0  0  0  0
   60.7720   30.1640   46.3550 H   0  0  0  0  0  0  0  0  0  0  0  0
   61.4482   30.9238   48.6473 H   0  0  0  0  0  0  0  0  0  0  0  0
   63.6746   31.4642   49.6357 H   0  0  0  0  0  0  0  0  0  0  0  0
   65.0528   33.3143   48.6791 H   0  0  0  0  0  0  0  0  0  0  0  0
   64.2052   34.6245   46.7313 H   0  0  0  0  0  0  0  0  0  0  0  0
   61.9773   34.0923   45.7393 H   0  0  0  0  0  0  0  0  0  0  0  0
  1  2  1  0
  2  3  2  0
  3  4  1  0
  3  5  1  0
  5  6  1  0
  6  7  1  0
  7  8  3  0
  5  9  2  0
  9 10  1  0
 10 11  1  0
 11 12  2  0
 12 13  1  0
 13 14  2  0
 14 15  1  0
 15 16  2  0
 10 17  1  0
 17 18  2  0
 17  2  1  0
 16 11  1  0
  1 19  1  0
  1 20  1  0
  1 21  1  0
  6 22  1  0
  6 23  1  0
  9 24  1  0
 12 25  1  0
 13 26  1  0
 14 27  1  0
 15 28  1  0
 16 29  1  0
M  CHG  2   4  -1   9   1
M  END
>  <UniqueID>  (93) 
84

>  <SMILES>  (93) 
Cc1c([O-])c(CC#N)[nH+]n(-c2ccccc2)c1=O

>  <Energy>  (93) 
37.55134215556593

>  <Genealogy>  (93) 
Cc1c([O-])c(CC#N)[nH+]n(-c2ccccc2)c1=O (protonated)
Cc1c([O-])c(CC#N)[nH+]n(-c2ccccc2)c1=O (3D coordinates assigned)
Cc1c([O-])c(CC#N)[nH+]n(-c2ccccc2)c1=O (optimized conformer: 37.55134215556593 kcal/mol)

>  <smiles>  (93) 
Cc1c(O)c(CC#N)nn(-c2ccccc2)c1=O

>  <score_type>  (93) 
oracle

>  <origin>  (93) 
adg

>  <m_score__min__energy>  (93) 
-7.25

>  <m_primary>  (93) 
energy

$$$$
93:0
     RDKit          3D

 50 52  0  0  0  0  0  0  0  0999 V2000
   60.5160   29.4530   46.0060 C   0  0  0  0  0  0  0  0  0  0  0  0
   60.1330   28.0160   45.6670 C   0  0  0  0  0  0  0  0  0  0  0  0
   58.6420   27.8440   45.6550 C   0  0  0  0  0  0  0  0  0  0  0  0
   58.0480   26.7290   46.2590 C   0  0  0  0  0  0  0  0  0  0  0  0
   56.6570   26.6180   46.2310 C   0  0  0  0  0  0  0  0  0  0  0  0
   56.0890   25.6310   46.7680 O   0  0  0  0  0  0  0  0  0  0  0  0
   55.9130   27.5780   45.6240 N   0  0  0  0  0  0  0  0  0  0  0  0
   56.5040   28.6480   45.0290 C   0  0  0  0  0  0  0  0  0  0  0  0
   55.4950   29.9060   44.2530 S   0  0  0  0  0  0  0  0  0  0  0  0
   56.7210   30.3190   42.9650 C   0  0  0  0  0  0  0  0  0  0  0  0
   57.6560   31.3780   43.4600 C   0  0  0  0  0  0  0  0  0  0  0  0
   58.2640   32.1000   42.6250 O   0  0  0  0  0  0  0  0  0  0  0  0
   57.8580   31.5610   44.8700 N   0  0  0  0  0  0  0  0  0  0  0  0
   58.5330   32.6920   45.4450 C   0  0  0  0  0  0  0  0  0  0  0  0
   58.5510   33.9090   44.7480 C   0  0  0  0  0  0  0  0  0  0  0  0
   59.2370   35.0100   45.2660 C   0  0  0  0  0  0  0  0  0  0  0  0
   59.9170   34.9050   46.4810 C   0  0  0  0  0  0  0  0  0  0  0  0
   59.9180   33.6930   47.1840 C   0  0  0  0  0  0  0  0  0  0  0  0
   60.8130   33.5570   48.6970 S   0  0  0  0  0  0  0  0  0  0  0  0
   60.8140   32.1250   49.1560 O   0  0  0  0  0  0  0  0  0  0  0  0
   60.1090   34.3830   49.7370 O   0  0  0  0  0  0  0  0  0  0  0  0
   62.4510   34.1470   48.5060 N   0  0  0  0  0  0  0  0  0  0  0  0
   63.0410   33.7320   47.2210 C   0  0  0  0  0  0  0  0  0  0  0  0
   63.4120   32.2300   47.2040 C   0  0  0  0  0  0  0  0  0  0  0  0
   63.5100   31.6540   48.4960 O   0  0  0  0  0  0  0  0  0  0  0  0
   64.1770   32.5350   49.3730 C   0  0  0  0  0  0  0  0  0  0  0  0
   63.3050   33.7730   49.6550 C   0  0  0  0  0  0  0  0  0  0  0  0
   59.2390   32.5840   46.6560 C   0  0  0  0  0  0  0  0  0  0  0  0
   57.8580   28.7750   45.0480 N   0  0  0  0  0  0  0  0  0  0  0  0
   60.5487   29.5757   47.0986 H   0  0  0  0  0  0  0  0  0  0  0  0
   61.5056   29.6785   45.5819 H   0  0  0  0  0  0  0  0  0  0  0  0
   59.7699   30.1411   45.5819 H   0  0  0  0  0  0  0  0  0  0  0  0
   60.5321   27.7623   44.6739 H   0  0  0  0  0  0  0  0  0  0  0  0
   60.5558   27.3509   46.4343 H   0  0  0  0  0  0  0  0  0  0  0  0
   58.6639   25.9578   46.7447 H   0  0  0  0  0  0  0  0  0  0  0  0
   57.2966   29.4172   42.7091 H   0  0  0  0  0  0  0  0  0  0  0  0
   56.1937   30.6939   42.0754 H   0  0  0  0  0  0  0  0  0  0  0  0
   57.5590   30.7910   45.5120 H   0  0  0  0  0  0  0  0  0  0  0  0
   58.0217   33.9969   43.7877 H   0  0  0  0  0  0  0  0  0  0  0  0
   59.2415   35.9622   44.7153 H   0  0  0  0  0  0  0  0  0  0  0  0
   60.4530   35.7755   46.8871 H   0  0  0  0  0  0  0  0  0  0  0  0
   62.3139   33.9260   46.4187 H   0  0  0  0  0  0  0  0  0  0  0  0
   63.9657   34.3091   47.0729 H   0  0  0  0  0  0  0  0  0  0  0  0
   62.6395   31.6875   46.6393 H   0  0  0  0  0  0  0  0  0  0  0  0
   64.4055   32.1488   46.7388 H   0  0  0  0  0  0  0  0  0  0  0  0
   64.3857   32.0152   50.3197 H   0  0  0  0  0  0  0  0  0  0  0  0
   65.1181   32.8600   48.9053 H   0  0  0  0  0  0  0  0  0  0  0  0
   62.6581   33.5579   50.5183 H   0  0  0  0  0  0  0  0  0  0  0  0
   63.9823   34.6169   49.8526 H   0  0  0  0  0  0  0  0  0  0  0  0
   59.2593   31.6242   47.1930 H   0  0  0  0  0  0  0  0  0  0  0  0
  1  2  1  0
  2  3  1  0
  3  4  2  0
  4  5  1  0
  5  6  2  0
  5  7  1  0
  7  8  1  0
  8  9  1  0
  9 10  1  0
 10 11  1  0
 11 12  2  0
 11 13  1  0
 13 14  1  0
 14 15  2  0
 15 16  1  0
 16 17  2  0
 17 18  1  0
 18 19  1  0
 19 20  2  0
 19 21  2  0
 19 22  1  0
 22 23  1  0
 23 24  1  0
 24 25  1  0
 25 26  1  0
 26 27  1  0
 18 28  2  0
  8 29  2  0
 29  3  1  0
 28 14  1  0
 27 22  1  0
  1 30  1  0
  1 31  1  0
  1 32  1  0
  2 33  1  0
  2 34  1  0
  4 35  1  0
 10 36  1  0
 10 37  1  0
 13 38  1  0
 15 39  1  0
 16 40  1  0
 17 41  1  0
 23 42  1  0
 23 43  1  0
 24 44  1  0
 24 45  1  0
 26 46  1  0
 26 47  1  0
 27 48  1  0
 27 49  1  0
 28 50  1  0
M  CHG  1   7  -1
M  END
>  <UniqueID>  (94) 
85

>  <SMILES>  (94) 
CCc1cc(=O)[n-]c(SCC(=O)Nc2cccc(S(=O)(=O)N3CCOCC3)c2)n1

>  <Energy>  (94) 
52.63358663456721

>  <Genealogy>  (94) 
CCc1cc(=O)[n-]c(SCC(=O)Nc2cccc(S(=O)(=O)N3CCOCC3)c2)n1 (protonated)
CCc1cc(=O)[n-]c(SCC(=O)Nc2cccc(S(=O)(=O)N3CCOCC3)c2)n1 (3D coordinates assigned)
CCc1cc(=O)[n-]c(SCC(=O)Nc2cccc(S(=O)(=O)N3CCOCC3)c2)n1 (nonaromatic ring conformer: 52.63358663456721 kcal/mol)

>  <smiles>  (94) 
CCc1cc(=O)[nH]c(SCC(=O)Nc2cccc(S(=O)(=O)N3CCOCC3)c2)n1

>  <score_type>  (94) 
oracle

>  <origin>  (94) 
adg

>  <m_score__min__energy>  (94) 
-11.15

>  <m_primary>  (94) 
energy

$$$$
94:0
     RDKit          3D

 46 49  0  0  0  0  0  0  0  0999 V2000
   55.1440   29.3640   44.8430 O   0  0  0  0  0  0  0  0  0  0  0  0
   56.3790   29.5780   44.9670 C   0  0  0  0  0  0  0  0  0  0  0  0
   56.8600   30.9280   44.8870 N   0  0  0  0  0  0  0  0  0  0  0  0
   58.2470   31.3240   44.6540 C   0  0  0  0  0  0  0  0  0  0  0  0
   58.5670   32.5920   45.4020 C   0  0  0  0  0  0  0  0  0  0  0  0
   58.8830   33.7730   44.7090 C   0  0  0  0  0  0  0  0  0  0  0  0
   59.2270   34.9310   45.4100 C   0  0  0  0  0  0  0  0  0  0  0  0
   59.2480   34.9230   46.8070 C   0  0  0  0  0  0  0  0  0  0  0  0
   58.9270   33.7550   47.5050 C   0  0  0  0  0  0  0  0  0  0  0  0
   58.5910   32.5910   46.8060 C   0  0  0  0  0  0  0  0  0  0  0  0
   57.2820   28.4400   45.2240 C   0  0  0  0  0  0  0  0  0  0  0  0
   57.6290   27.5570   44.1910 C   0  0  0  0  0  0  0  0  0  0  0  0
   58.5090   26.5010   44.4340 C   0  0  0  0  0  0  0  0  0  0  0  0
   59.0520   26.3110   45.7170 C   0  0  0  0  0  0  0  0  0  0  0  0
   59.9600   25.2350   45.9970 N   0  0  0  0  0  0  0  0  0  0  0  0
   59.6910   23.8440   45.7720 C   0  0  0  0  0  0  0  0  0  0  0  0
   60.6610   23.0610   45.6030 O   0  0  0  0  0  0  0  0  0  0  0  0
   58.3160   23.3080   45.7060 C   0  0  0  0  0  0  0  0  0  0  0  0
   57.7890   22.7960   44.5090 C   0  0  0  0  0  0  0  0  0  0  0  0
   56.4820   22.3060   44.4920 C   0  0  0  0  0  0  0  0  0  0  0  0
   56.0020   21.8470   43.4210 O   0  0  0  0  0  0  0  0  0  0  0  0
   55.7230   22.3300   45.6740 C   0  0  0  0  0  0  0  0  0  0  0  0
   54.3990   21.8610   45.7250 C   0  0  0  0  0  0  0  0  0  0  0  0
   53.6880   21.9010   46.9290 C   0  0  0  0  0  0  0  0  0  0  0  0
   54.2900   22.4050   48.0850 C   0  0  0  0  0  0  0  0  0  0  0  0
   55.6060   22.8760   48.0440 C   0  0  0  0  0  0  0  0  0  0  0  0
   56.3270   22.8440   46.8450 C   0  0  0  0  0  0  0  0  0  0  0  0
   57.5770   23.2990   46.8120 O   0  0  0  0  0  0  0  0  0  0  0  0
   58.6650   27.1630   46.7580 C   0  0  0  0  0  0  0  0  0  0  0  0
   57.7850   28.2220   46.5150 C   0  0  0  0  0  0  0  0  0  0  0  0
   58.9154   30.5215   44.9995 H   0  0  0  0  0  0  0  0  0  0  0  0
   58.3904   31.5003   43.5777 H   0  0  0  0  0  0  0  0  0  0  0  0
   58.8593   33.7855   43.6093 H   0  0  0  0  0  0  0  0  0  0  0  0
   59.4816   35.8501   44.8618 H   0  0  0  0  0  0  0  0  0  0  0  0
   59.5173   35.8362   47.3580 H   0  0  0  0  0  0  0  0  0  0  0  0
   58.9387   33.7514   48.6049 H   0  0  0  0  0  0  0  0  0  0  0  0
   58.3448   31.6719   47.3579 H   0  0  0  0  0  0  0  0  0  0  0  0
   57.2060   27.6972   43.1853 H   0  0  0  0  0  0  0  0  0  0  0  0
   58.7789   25.8144   43.6181 H   0  0  0  0  0  0  0  0  0  0  0  0
   58.3999   22.7813   43.5943 H   0  0  0  0  0  0  0  0  0  0  0  0
   53.9217   21.4623   44.8177 H   0  0  0  0  0  0  0  0  0  0  0  0
   52.6515   21.5345   46.9659 H   0  0  0  0  0  0  0  0  0  0  0  0
   53.7272   22.4313   49.0297 H   0  0  0  0  0  0  0  0  0  0  0  0
   56.0756   23.2726   48.9563 H   0  0  0  0  0  0  0  0  0  0  0  0
   59.0555   26.9984   47.7731 H   0  0  0  0  0  0  0  0  0  0  0  0
   57.4861   28.8864   47.3391 H   0  0  0  0  0  0  0  0  0  0  0  0
  1  2  2  0
  2  3  1  0
  3  4  1  0
  4  5  1  0
  5  6  2  0
  6  7  1  0
  7  8  2  0
  8  9  1  0
  9 10  2  0
  2 11  1  0
 11 12  2  0
 12 13  1  0
 13 14  2  0
 14 15  1  0
 15 16  1  0
 16 17  2  0
 16 18  1  0
 18 19  2  0
 19 20  1  0
 20 21  2  0
 20 22  1  0
 22 23  2  0
 23 24  1  0
 24 25  2  0
 25 26  1  0
 26 27  2  0
 27 28  1  0
 14 29  1  0
 29 30  2  0
 10  5  1  0
 30 11  1  0
 28 18  1  0
 27 22  1  0
  4 31  1  0
  4 32  1  0
  6 33  1  0
  7 34  1  0
  8 35  1  0
  9 36  1  0
 10 37  1  0
 12 38  1  0
 13 39  1  0
 19 40  1  0
 23 41  1  0
 24 42  1  0
 25 43  1  0
 26 44  1  0
 29 45  1  0
 30 46  1  0
M  CHG  2   3  -1  15  -1
M  END
>  <UniqueID>  (95) 
86

>  <SMILES>  (95) 
O=C([N-]Cc1ccccc1)c1ccc([N-]C(=O)c2cc(=O)c3ccccc3o2)cc1

>  <Energy>  (95) 
62.50719433189978

>  <Genealogy>  (95) 
O=C([N-]Cc1ccccc1)c1ccc([N-]C(=O)c2cc(=O)c3ccccc3o2)cc1 (protonated)
O=C([N-]Cc1ccccc1)c1ccc([N-]C(=O)c2cc(=O)c3ccccc3o2)cc1 (3D coordinates assigned)
O=C([N-]Cc1ccccc1)c1ccc([N-]C(=O)c2cc(=O)c3ccccc3o2)cc1 (optimized conformer: 62.50719433189978 kcal/mol)

>  <smiles>  (95) 
O=C(NCc1ccccc1)c1ccc(NC(=O)c2cc(=O)c3ccccc3o2)cc1

>  <score_type>  (95) 
oracle

>  <origin>  (95) 
adg

>  <m_score__min__energy>  (95) 
-11.779999999999999

>  <m_primary>  (95) 
energy

$$$$
95:0
     RDKit          3D

 25 27  0  0  0  0  0  0  0  0999 V2000
   55.8950   29.7140   42.9810 C   0  0  0  0  0  0  0  0  0  0  0  0
   55.9440   30.1090   44.3460 O   0  0  0  0  0  0  0  0  0  0  0  0
   57.0150   30.8270   44.8930 C   0  0  0  0  0  0  0  0  0  0  0  0
   56.9530   32.1890   44.9760 N   0  0  0  0  0  0  0  0  0  0  0  0
   57.9930   32.8760   45.5060 C   0  0  0  0  0  0  0  0  0  0  0  0
   58.0850   34.2400   45.6600 C   0  0  0  0  0  0  0  0  0  0  0  0
   59.3250   34.4560   46.2420 C   0  0  0  0  0  0  0  0  0  0  0  0
   59.9240   33.2160   46.4130 C   0  0  0  0  0  0  0  0  0  0  0  0
   59.0940   32.2560   45.9560 N   0  0  0  0  0  0  0  0  0  0  0  0
   59.2310   30.8990   45.9080 C   0  0  0  0  0  0  0  0  0  0  0  0
   60.3810   30.2400   46.3770 C   0  0  0  0  0  0  0  0  0  0  0  0
   60.4680   28.8480   46.3020 C   0  0  0  0  0  0  0  0  0  0  0  0
   59.4170   28.1030   45.7630 C   0  0  0  0  0  0  0  0  0  0  0  0
   58.2680   28.7430   45.2920 C   0  0  0  0  0  0  0  0  0  0  0  0
   58.1620   30.1430   45.3590 C   0  0  0  0  0  0  0  0  0  0  0  0
   55.7598   28.6241   42.9193 H   0  0  0  0  0  0  0  0  0  0  0  0
   55.0523   30.2167   42.4838 H   0  0  0  0  0  0  0  0  0  0  0  0
   56.8350   29.9956   42.4838 H   0  0  0  0  0  0  0  0  0  0  0  0
   57.3363   34.9963   45.3815 H   0  0  0  0  0  0  0  0  0  0  0  0
   59.7546   35.4305   46.5173 H   0  0  0  0  0  0  0  0  0  0  0  0
   60.9179   33.0434   46.8516 H   0  0  0  0  0  0  0  0  0  0  0  0
   61.2124   30.8208   46.8031 H   0  0  0  0  0  0  0  0  0  0  0  0
   61.3694   28.3357   46.6695 H   0  0  0  0  0  0  0  0  0  0  0  0
   59.4942   27.0070   45.7090 H   0  0  0  0  0  0  0  0  0  0  0  0
   57.4444   28.1500   44.8677 H   0  0  0  0  0  0  0  0  0  0  0  0
  1  2  1  0
  2  3  1  0
  3  4  2  0
  4  5  1  0
  5  6  2  0
  6  7  1  0
  7  8  2  0
  8  9  1  0
  9 10  1  0
 10 11  2  0
 11 12  1  0
 12 13  2  0
 13 14  1  0
 14 15  2  0
 15  3  1  0
  9  5  1  0
 15 10  1  0
  1 16  1  0
  1 17  1  0
  1 18  1  0
  6 19  1  0
  7 20  1  0
  8 21  1  0
 11 22  1  0
 12 23  1  0
 13 24  1  0
 14 25  1  0
M  END
>  <UniqueID>  (96) 
87

>  <SMILES>  (96) 
COc1nc2cccn2c2ccccc12

>  <Energy>  (96) 
62.34261984622095

>  <Genealogy>  (96) 
COc1nc2cccn2c2ccccc12 (3D coordinates assigned)
COc1nc2cccn2c2ccccc12 (optimized conformer: 62.34261984622095 kcal/mol)

>  <smiles>  (96) 
COc1nc2cccn2c2ccccc12

>  <score_type>  (96) 
oracle

>  <origin>  (96) 
adg

>  <m_score__min__energy>  (96) 
-5.7300000000000004

>  <m_primary>  (96) 
energy

$$$$
