0:0
     RDKit          3D

 65 68  0  0  0  0  0  0  0  0999 V2000
   62.2240   33.2030   52.5290 C   0  0  0  0  0  0  0  0  0  0  0  0
   61.9200   31.7920   53.0100 C   0  0  0  0  0  0  0  0  0  0  0  0
   61.2010   31.0380   51.9810 N   0  0  0  0  0  0  0  0  0  0  0  0
   59.7690   31.1300   51.8610 C   0  0  0  0  0  0  0  0  0  0  0  0
   58.9420   30.1220   52.3880 C   0  0  0  0  0  0  0  0  0  0  0  0
   57.5510   30.2240   52.2800 C   0  0  0  0  0  0  0  0  0  0  0  0
   56.9750   31.3300   51.6500 C   0  0  0  0  0  0  0  0  0  0  0  0
   57.7890   32.3350   51.1220 C   0  0  0  0  0  0  0  0  0  0  0  0
   59.1800   32.2330   51.2200 C   0  0  0  0  0  0  0  0  0  0  0  0
   62.1150   30.1060   50.8310 S   0  0  0  0  0  0  0  0  0  0  0  0
   63.0460   30.9930   50.0510 O   0  0  0  0  0  0  0  0  0  0  0  0
   62.9440   29.0930   51.5720 O   0  0  0  0  0  0  0  0  0  0  0  0
   61.0170   29.2990   49.7140 C   0  0  0  0  0  0  0  0  0  0  0  0
   60.8740   27.9070   49.7610 C   0  0  0  0  0  0  0  0  0  0  0  0
   60.0170   27.2550   48.8700 C   0  0  0  0  0  0  0  0  0  0  0  0
   59.2720   27.9940   47.9340 C   0  0  0  0  0  0  0  0  0  0  0  0
   58.4040   27.3650   46.9800 N   0  0  0  0  0  0  0  0  0  0  0  0
   58.3510   27.6200   45.5690 C   0  0  0  0  0  0  0  0  0  0  0  0
   59.3980   27.5720   44.8680 O   0  0  0  0  0  0  0  0  0  0  0  0
   57.0270   27.8420   44.8970 C   0  0  0  0  0  0  0  0  0  0  0  0
   56.4790   29.1540   45.2370 N   0  0  0  0  0  0  0  0  0  0  0  0
   56.5820   30.2800   44.3590 C   0  0  0  0  0  0  0  0  0  0  0  0
   57.0020   30.1270   43.1800 O   0  0  0  0  0  0  0  0  0  0  0  0
   56.2930   31.5880   44.8610 N   0  0  0  0  0  0  0  0  0  0  0  0
   57.2830   32.5340   45.2760 C   0  0  0  0  0  0  0  0  0  0  0  0
   57.5830   33.6630   44.4980 C   0  0  0  0  0  0  0  0  0  0  0  0
   58.5380   34.5830   44.9380 C   0  0  0  0  0  0  0  0  0  0  0  0
   59.2190   34.3680   46.1410 C   0  0  0  0  0  0  0  0  0  0  0  0
   58.9520   33.2270   46.9060 C   0  0  0  0  0  0  0  0  0  0  0  0
   59.6860   33.0100   48.0810 O   0  0  0  0  0  0  0  0  0  0  0  0
   61.0810   33.1360   48.1960 C   0  0  0  0  0  0  0  0  0  0  0  0
   61.6030   33.9240   49.2300 C   0  0  0  0  0  0  0  0  0  0  0  0
   62.9850   34.0920   49.3660 C   0  0  0  0  0  0  0  0  0  0  0  0
   63.8570   33.4740   48.4640 C   0  0  0  0  0  0  0  0  0  0  0  0
   63.3460   32.6970   47.4200 C   0  0  0  0  0  0  0  0  0  0  0  0
   61.9650   32.5360   47.2770 C   0  0  0  0  0  0  0  0  0  0  0  0
   57.9440   32.3390   46.4940 C   0  0  0  0  0  0  0  0  0  0  0  0
   59.4370   29.3840   47.8760 C   0  0  0  0  0  0  0  0  0  0  0  0
   60.3040   30.0350   48.7600 C   0  0  0  0  0  0  0  0  0  0  0  0
   62.3663   33.8636   53.3970 H   0  0  0  0  0  0  0  0  0  0  0  0
   63.1407   33.1936   51.9211 H   0  0  0  0  0  0  0  0  0  0  0  0
   61.3847   33.5720   51.9211 H   0  0  0  0  0  0  0  0  0  0  0  0
   62.8646   31.2777   53.2406 H   0  0  0  0  0  0  0  0  0  0  0  0
   61.2893   31.8531   53.9092 H   0  0  0  0  0  0  0  0  0  0  0  0
   59.3905   29.2503   52.8869 H   0  0  0  0  0  0  0  0  0  0  0  0
   56.9091   29.4314   52.6921 H   0  0  0  0  0  0  0  0  0  0  0  0
   55.8808   31.4094   51.5698 H   0  0  0  0  0  0  0  0  0  0  0  0
   57.3353   33.2073   50.6288 H   0  0  0  0  0  0  0  0  0  0  0  0
   59.8173   33.0212   50.7926 H   0  0  0  0  0  0  0  0  0  0  0  0
   61.4390   27.3236   50.5029 H   0  0  0  0  0  0  0  0  0  0  0  0
   59.9249   26.1593   48.9011 H   0  0  0  0  0  0  0  0  0  0  0  0
   57.1622   27.7804   43.8071 H   0  0  0  0  0  0  0  0  0  0  0  0
   56.3249   27.0692   45.2432 H   0  0  0  0  0  0  0  0  0  0  0  0
   56.0430   29.2890   46.1780 H   0  0  0  0  0  0  0  0  0  0  0  0
   57.0656   33.8237   43.5407 H   0  0  0  0  0  0  0  0  0  0  0  0
   58.7549   35.4785   44.3371 H   0  0  0  0  0  0  0  0  0  0  0  0
   59.9662   35.0976   46.4864 H   0  0  0  0  0  0  0  0  0  0  0  0
   60.9210   34.4143   49.9403 H   0  0  0  0  0  0  0  0  0  0  0  0
   63.3860   34.7103   50.1826 H   0  0  0  0  0  0  0  0  0  0  0  0
   64.9441   33.5991   48.5758 H   0  0  0  0  0  0  0  0  0  0  0  0
   64.0319   32.2116   46.7101 H   0  0  0  0  0  0  0  0  0  0  0  0
   61.5665   31.9385   46.4438 H   0  0  0  0  0  0  0  0  0  0  0  0
   57.6728   31.4854   47.1327 H   0  0  0  0  0  0  0  0  0  0  0  0
   58.8800   29.9685   47.1289 H   0  0  0  0  0  0  0  0  0  0  0  0
   60.4258   31.1269   48.7055 H   0  0  0  0  0  0  0  0  0  0  0  0
  1  2  1  0
  2  3  1  0
  3  4  1  0
  4  5  2  0
  5  6  1  0
  6  7  2  0
  7  8  1  0
  8  9  2  0
  3 10  1  0
 10 11  2  0
 10 12  2  0
 10 13  1  0
 13 14  2  0
 14 15  1  0
 15 16  2  0
 16 17  1  0
 17 18  1  0
 18 19  2  0
 18 20  1  0
 20 21  1  0
 21 22  1  0
 22 23  2  0
 22 24  1  0
 24 25  1  0
 25 26  2  0
 26 27  1  0
 27 28  2  0
 28 29  1  0
 29 30  1  0
 30 31  1  0
 31 32  2  0
 32 33  1  0
 33 34  2  0
 34 35  1  0
 35 36  2  0
 29 37  2  0
 16 38  1  0
 38 39  2  0
  9  4  1  0
 39 13  1  0
 37 25  1  0
 36 31  1  0
  1 40  1  0
  1 41  1  0
  1 42  1  0
  2 43  1  0
  2 44  1  0
  5 45  1  0
  6 46  1  0
  7 47  1  0
  8 48  1  0
  9 49  1  0
 14 50  1  0
 15 51  1  0
 20 52  1  0
 20 53  1  0
 21 54  1  0
 26 55  1  0
 27 56  1  0
 28 57  1  0
 32 58  1  0
 33 59  1  0
 34 60  1  0
 35 61  1  0
 36 62  1  0
 37 63  1  0
 38 64  1  0
 39 65  1  0
M  CHG  2  17  -1  24  -1
M  END
>  <UniqueID>  (1) 
1

>  <SMILES>  (1) 
CCN(c1ccccc1)S(=O)(=O)c1ccc([N-]C(=O)CNC(=O)[N-]c2cccc(Oc3ccccc3)c2)cc1

>  <Energy>  (1) 
80.76577571119489

>  <Genealogy>  (1) 
CCN(c1ccccc1)S(=O)(=O)c1ccc([N-]C(=O)CNC(=O)[N-]c2cccc(Oc3ccccc3)c2)cc1 (protonated)
CCN(c1ccccc1)S(=O)(=O)c1ccc([N-]C(=O)CNC(=O)[N-]c2cccc(Oc3ccccc3)c2)cc1 (3D coordinates assigned)
CCN(c1ccccc1)S(=O)(=O)c1ccc([N-]C(=O)CNC(=O)[N-]c2cccc(Oc3ccccc3)c2)cc1 (optimized conformer: 80.76577571119489 kcal/mol)

>  <smiles>  (1) 
CCN(c1ccccc1)S(=O)(=O)c1ccc(NC(=O)CNC(=O)Nc2cccc(Oc3ccccc3)c2)cc1

>  <score_type>  (1) 
oracle

>  <origin>  (1) 
adg

>  <m_score__min__energy>  (1) 
-12.210000000000001

>  <m_primary>  (1) 
energy

$$$$
1:0
     RDKit          3D

 64 67  0  0  0  0  0  0  0  0999 V2000
   57.4580   24.3570   48.6100 C   0  0  0  0  0  0  0  0  0  0  0  0
   57.0960   24.6940   47.3630 C   0  0  0  0  0  0  0  0  0  0  0  0
   56.3820   23.6730   46.5120 C   0  0  0  0  0  0  0  0  0  0  0  0
   55.7180   24.2840   45.2760 C   0  0  1  0  0  0  0  0  0  0  0  0
   54.4190   24.9720   45.6210 C   0  0  0  0  0  0  0  0  0  0  0  0
   53.3210   24.3600   45.5500 O   0  0  0  0  0  0  0  0  0  0  0  0
   54.4290   26.3130   45.9890 O   0  0  0  0  0  0  0  0  0  0  0  0
   56.6910   25.2120   44.5430 C   0  0  0  0  0  0  0  0  0  0  0  0
   57.1930   26.2840   45.4160 N   0  0  0  0  0  0  0  0  0  0  0  0
   57.6030   27.5410   44.8390 C   0  0  0  0  0  0  0  0  0  0  0  0
   58.6300   27.5830   44.1080 O   0  0  0  0  0  0  0  0  0  0  0  0
   56.8230   28.7330   45.0380 N   0  0  0  0  0  0  0  0  0  0  0  0
   57.1660   29.9760   44.4080 C   0  0  0  0  0  0  0  0  0  0  0  0
   56.8450   30.1740   43.0580 C   0  0  0  0  0  0  0  0  0  0  0  0
   57.1670   31.3720   42.4230 C   0  0  0  0  0  0  0  0  0  0  0  0
   57.8080   32.3870   43.1300 C   0  0  0  0  0  0  0  0  0  0  0  0
   58.1370   32.2150   44.4800 C   0  0  0  0  0  0  0  0  0  0  0  0
   58.9280   33.5580   45.2990 Cl  0  0  0  0  0  0  0  0  0  0  0  0
   57.8210   31.0000   45.1370 C   0  0  0  0  0  0  0  0  0  0  0  0
   58.1270   30.7930   46.6090 C   0  0  0  0  0  0  0  0  0  0  0  0
   58.8160   29.5000   46.8160 N   0  0  0  0  0  0  0  0  0  0  0  0
   60.0890   29.4240   46.0730 C   0  0  0  0  0  0  0  0  0  0  0  0
   61.1990   30.2280   46.7720 C   0  0  0  0  0  0  0  0  0  0  0  0
   61.3270   29.9310   48.2230 N   0  0  0  0  0  0  0  0  0  0  0  0
   61.2720   31.1610   49.0450 C   0  0  0  0  0  0  0  0  0  0  0  0
   62.6570   31.6420   49.3930 C   0  0  0  0  0  0  0  0  0  0  0  0
   63.2870   32.6270   48.6150 C   0  0  0  0  0  0  0  0  0  0  0  0
   64.5670   33.0770   48.9540 C   0  0  0  0  0  0  0  0  0  0  0  0
   65.2250   32.5500   50.0690 C   0  0  0  0  0  0  0  0  0  0  0  0
   66.8280   33.1220   50.4970 Cl  0  0  0  0  0  0  0  0  0  0  0  0
   64.6020   31.5690   50.8470 C   0  0  0  0  0  0  0  0  0  0  0  0
   63.3240   31.1150   50.5110 C   0  0  0  0  0  0  0  0  0  0  0  0
   60.3950   28.8830   48.6980 C   0  0  0  0  0  0  0  0  0  0  0  0
   58.9460   29.1480   48.2540 C   0  0  0  0  0  0  0  0  0  0  0  0
   57.4430   26.0790   46.8540 C   0  0  0  0  0  0  0  0  0  0  0  0
   57.9795   25.0862   49.2474 H   0  0  0  0  0  0  0  0  0  0  0  0
   57.2333   23.3514   48.9952 H   0  0  0  0  0  0  0  0  0  0  0  0
   57.1124   22.9198   46.1813 H   0  0  0  0  0  0  0  0  0  0  0  0
   55.5857   23.2300   47.1282 H   0  0  0  0  0  0  0  0  0  0  0  0
   55.4600   23.4659   44.5874 H   0  0  0  0  0  0  0  0  0  0  0  0
   57.5442   24.6187   44.1824 H   0  0  0  0  0  0  0  0  0  0  0  0
   56.1502   25.6797   43.7071 H   0  0  0  0  0  0  0  0  0  0  0  0
   55.8810   28.6520   45.4800 H   0  0  0  0  0  0  0  0  0  0  0  0
   56.3352   29.3779   42.4956 H   0  0  0  0  0  0  0  0  0  0  0  0
   56.9147   31.5164   41.3621 H   0  0  0  0  0  0  0  0  0  0  0  0
   58.0576   33.3310   42.6236 H   0  0  0  0  0  0  0  0  0  0  0  0
   58.7740   31.6092   46.9629 H   0  0  0  0  0  0  0  0  0  0  0  0
   57.1823   30.7880   47.1725 H   0  0  0  0  0  0  0  0  0  0  0  0
   60.4000   28.3712   46.0036 H   0  0  0  0  0  0  0  0  0  0  0  0
   59.9306   29.8525   45.0723 H   0  0  0  0  0  0  0  0  0  0  0  0
   62.1568   29.9951   46.2838 H   0  0  0  0  0  0  0  0  0  0  0  0
   60.9311   31.2912   46.6833 H   0  0  0  0  0  0  0  0  0  0  0  0
   60.7496   31.9475   48.4806 H   0  0  0  0  0  0  0  0  0  0  0  0
   60.7356   30.9344   49.9782 H   0  0  0  0  0  0  0  0  0  0  0  0
   62.7726   33.0454   47.7373 H   0  0  0  0  0  0  0  0  0  0  0  0
   65.0574   33.8479   48.3414 H   0  0  0  0  0  0  0  0  0  0  0  0
   65.1189   31.1541   51.7249 H   0  0  0  0  0  0  0  0  0  0  0  0
   62.8384   30.3418   51.1245 H   0  0  0  0  0  0  0  0  0  0  0  0
   60.7175   27.9124   48.2931 H   0  0  0  0  0  0  0  0  0  0  0  0
   60.4166   28.8857   49.7978 H   0  0  0  0  0  0  0  0  0  0  0  0
   58.3532   28.2412   48.4444 H   0  0  0  0  0  0  0  0  0  0  0  0
   58.5867   30.0134   48.8302 H   0  0  0  0  0  0  0  0  0  0  0  0
   58.5114   26.2573   47.0455 H   0  0  0  0  0  0  0  0  0  0  0  0
   56.7862   26.7814   47.3881 H   0  0  0  0  0  0  0  0  0  0  0  0
  1  2  2  0
  2  3  1  0
  3  4  1  0
  4  5  1  0
  5  6  2  0
  5  7  1  0
  4  8  1  0
  8  9  1  0
  9 10  1  0
 10 11  2  0
 10 12  1  0
 12 13  1  0
 13 14  2  0
 14 15  1  0
 15 16  2  0
 16 17  1  0
 17 18  1  0
 17 19  2  0
 19 20  1  0
 20 21  1  0
 21 22  1  0
 22 23  1  0
 23 24  1  0
 24 25  1  0
 25 26  1  0
 26 27  2  0
 27 28  1  0
 28 29  2  0
 29 30  1  0
 29 31  1  0
 31 32  2  0
 24 33  1  0
 33 34  1  0
  9 35  1  0
 35  2  1  0
 19 13  1  0
 34 21  1  0
 32 26  1  0
  1 36  1  0
  1 37  1  0
  3 38  1  0
  3 39  1  0
  4 40  1  6
  8 41  1  0
  8 42  1  0
 12 43  1  0
 14 44  1  0
 15 45  1  0
 16 46  1  0
 20 47  1  0
 20 48  1  0
 22 49  1  0
 22 50  1  0
 23 51  1  0
 23 52  1  0
 25 53  1  0
 25 54  1  0
 27 55  1  0
 28 56  1  0
 31 57  1  0
 32 58  1  0
 33 59  1  0
 33 60  1  0
 34 61  1  0
 34 62  1  0
 35 63  1  0
 35 64  1  0
M  CHG  1   7  -1
M  END
>  <UniqueID>  (2) 
2

>  <SMILES>  (2) 
C=C1C[C@@H](C(=O)[O-])CN(C(=O)Nc2cccc(Cl)c2CN2CCN(Cc3ccc(Cl)cc3)CC2)C1

>  <Energy>  (2) 
87.75162547145457

>  <Genealogy>  (2) 
C=C1CC(C(=O)[O-])CN(C(=O)Nc2cccc(Cl)c2CN2CCN(Cc3ccc(Cl)cc3)CC2)C1 (protonated)
C=C1C[C@@H](C(=O)[O-])CN(C(=O)Nc2cccc(Cl)c2CN2CCN(Cc3ccc(Cl)cc3)CC2)C1 (chirality)
C=C1C[C@@H](C(=O)[O-])CN(C(=O)Nc2cccc(Cl)c2CN2CCN(Cc3ccc(Cl)cc3)CC2)C1 (3D coordinates assigned)
C=C1C[C@@H](C(=O)[O-])CN(C(=O)Nc2cccc(Cl)c2CN2CCN(Cc3ccc(Cl)cc3)CC2)C1 (nonaromatic ring conformer: 87.75162547145457 kcal/mol)

>  <smiles>  (2) 
C=C1CC(C(=O)O)CN(C(=O)Nc2cccc(Cl)c2CN2CCN(Cc3ccc(Cl)cc3)CC2)C1

>  <score_type>  (2) 
oracle

>  <origin>  (2) 
adg

>  <m_score__min__energy>  (2) 
-11.949999999999999

>  <m_primary>  (2) 
energy

$$$$
2:0
     RDKit          3D

 47 49  0  0  0  0  0  0  0  0999 V2000
   56.9280   28.7960   53.3990 C   0  0  0  0  0  0  0  0  0  0  0  0
   55.6350   29.3570   52.8710 C   0  0  0  0  0  0  0  0  0  0  0  0
   54.4680   28.5800   52.9340 C   0  0  0  0  0  0  0  0  0  0  0  0
   53.2450   29.0680   52.4520 C   0  0  0  0  0  0  0  0  0  0  0  0
   52.0830   28.2320   52.5460 N   0  0  0  0  0  0  0  0  0  0  0  0
   53.1890   30.3600   51.8810 C   0  0  0  0  0  0  0  0  0  0  0  0
   51.6780   31.0380   51.2560 S   0  0  0  0  0  0  0  0  0  0  0  0
   51.3990   30.5180   49.8730 O   0  0  0  0  0  0  0  0  0  0  0  0
   50.5410   30.6530   52.1580 O   0  0  0  0  0  0  0  0  0  0  0  0
   51.8040   32.7120   51.1800 O   0  0  0  0  0  0  0  0  0  0  0  0
   54.3600   31.1260   51.8010 C   0  0  0  0  0  0  0  0  0  0  0  0
   55.5810   30.6450   52.3000 C   0  0  0  0  0  0  0  0  0  0  0  0
   56.7740   31.4420   52.1810 N   0  0  0  0  0  0  0  0  0  0  0  0
   57.6960   31.3410   51.0820 C   0  0  0  0  0  0  0  0  0  0  0  0
   58.5940   30.2650   51.0280 C   0  0  0  0  0  0  0  0  0  0  0  0
   59.4910   30.1460   49.9620 C   0  0  0  0  0  0  0  0  0  0  0  0
   59.5070   31.1090   48.9470 C   0  0  0  0  0  0  0  0  0  0  0  0
   60.6220   30.9300   47.5550 S   0  0  0  0  0  0  0  0  0  0  0  0
   59.3520   31.3930   46.3760 C   0  0  0  0  0  0  0  0  0  0  0  0
   59.1330   32.7430   46.0760 C   0  0  0  0  0  0  0  0  0  0  0  0
   58.1580   33.1020   45.1430 C   0  0  0  0  0  0  0  0  0  0  0  0
   57.4010   32.1150   44.5040 C   0  0  0  0  0  0  0  0  0  0  0  0
   57.6190   30.7610   44.7960 C   0  0  0  0  0  0  0  0  0  0  0  0
   56.6700   29.5210   43.9850 S   0  0  0  0  0  0  0  0  0  0  0  0
   55.1300   29.3690   44.7570 N   0  0  0  0  0  0  0  0  0  0  0  0
   57.3990   28.2090   44.0530 O   0  0  0  0  0  0  0  0  0  0  0  0
   56.4520   29.8990   42.5470 O   0  0  0  0  0  0  0  0  0  0  0  0
   58.5890   30.4040   45.7440 C   0  0  0  0  0  0  0  0  0  0  0  0
   58.6420   32.2050   49.0130 C   0  0  0  0  0  0  0  0  0  0  0  0
   57.7430   32.3250   50.0760 C   0  0  0  0  0  0  0  0  0  0  0  0
   56.9092   28.8041   54.4988 H   0  0  0  0  0  0  0  0  0  0  0  0
   57.0524   27.7630   53.0420 H   0  0  0  0  0  0  0  0  0  0  0  0
   57.7674   29.4109   53.0420 H   0  0  0  0  0  0  0  0  0  0  0  0
   54.5135   27.5707   53.3690 H   0  0  0  0  0  0  0  0  0  0  0  0
   51.1580   28.6400   52.8120 H   0  0  0  0  0  0  0  0  0  0  0  0
   52.1120   27.2050   52.3710 H   0  0  0  0  0  0  0  0  0  0  0  0
   54.3217   32.1232   51.3383 H   0  0  0  0  0  0  0  0  0  0  0  0
   57.0100   32.1000   52.9590 H   0  0  0  0  0  0  0  0  0  0  0  0
   58.5926   29.5106   51.8286 H   0  0  0  0  0  0  0  0  0  0  0  0
   60.1853   29.2938   49.9213 H   0  0  0  0  0  0  0  0  0  0  0  0
   59.7291   33.5210   46.5754 H   0  0  0  0  0  0  0  0  0  0  0  0
   57.9851   34.1631   44.9103 H   0  0  0  0  0  0  0  0  0  0  0  0
   56.6328   32.4015   43.7706 H   0  0  0  0  0  0  0  0  0  0  0  0
   54.5230   28.8060   44.1200 H   0  0  0  0  0  0  0  0  0  0  0  0
   58.7506   29.3445   45.9915 H   0  0  0  0  0  0  0  0  0  0  0  0
   58.6690   32.9741   48.2270 H   0  0  0  0  0  0  0  0  0  0  0  0
   57.0686   33.1925   50.1271 H   0  0  0  0  0  0  0  0  0  0  0  0
  1  2  1  0
  2  3  2  0
  3  4  1  0
  4  5  1  0
  4  6  2  0
  6  7  1  0
  7  8  2  0
  7  9  2  0
  7 10  1  0
  6 11  1  0
 11 12  2  0
 12 13  1  0
 13 14  1  0
 14 15  2  0
 15 16  1  0
 16 17  2  0
 17 18  1  0
 18 19  1  0
 19 20  2  0
 20 21  1  0
 21 22  2  0
 22 23  1  0
 23 24  1  0
 24 25  1  0
 24 26  2  0
 24 27  2  0
 23 28  2  0
 17 29  1  0
 29 30  2  0
 12  2  1  0
 30 14  1  0
 28 19  1  0
  1 31  1  0
  1 32  1  0
  1 33  1  0
  3 34  1  0
  5 35  1  0
  5 36  1  0
 11 37  1  0
 13 38  1  0
 15 39  1  0
 16 40  1  0
 20 41  1  0
 21 42  1  0
 22 43  1  0
 25 44  1  0
 28 45  1  0
 29 46  1  0
 30 47  1  0
M  CHG  2  10  -1  25  -1
M  END
>  <UniqueID>  (3) 
3

>  <SMILES>  (3) 
Cc1cc(N)c(S(=O)(=O)[O-])cc1Nc1ccc(Sc2cccc(S([NH-])(=O)=O)c2)cc1

>  <Energy>  (3) 
52.24311541938785

>  <Genealogy>  (3) 
Cc1cc(N)c(S(=O)(=O)[O-])cc1Nc1ccc(Sc2cccc(S([NH-])(=O)=O)c2)cc1 (protonated)
Cc1cc(N)c(S(=O)(=O)[O-])cc1Nc1ccc(Sc2cccc(S([NH-])(=O)=O)c2)cc1 (3D coordinates assigned)
Cc1cc(N)c(S(=O)(=O)[O-])cc1Nc1ccc(Sc2cccc(S([NH-])(=O)=O)c2)cc1 (optimized conformer: 52.24311541938785 kcal/mol)

>  <smiles>  (3) 
Cc1cc(N)c(S(=O)(=O)O)cc1Nc1ccc(Sc2cccc(S(N)(=O)=O)c2)cc1

>  <score_type>  (3) 
oracle

>  <origin>  (3) 
adg

>  <m_score__min__energy>  (3) 
-15.140000000000001

>  <m_primary>  (3) 
energy

$$$$
3:0
     RDKit          3D

 41 43  0  0  0  0  0  0  0  0999 V2000
   58.2460   25.7510   47.1370 C   0  0  0  0  0  0  0  0  0  0  0  0
   58.4200   26.9540   46.2570 C   0  0  0  0  0  0  0  0  0  0  0  0
   59.6510   27.2010   45.6340 C   0  0  0  0  0  0  0  0  0  0  0  0
   59.8030   28.3040   44.7910 C   0  0  0  0  0  0  0  0  0  0  0  0
   58.7230   29.1560   44.5470 C   0  0  0  0  0  0  0  0  0  0  0  0
   57.4730   28.9030   45.1350 C   0  0  0  0  0  0  0  0  0  0  0  0
   56.3270   29.8030   44.8590 C   0  0  0  0  0  0  0  0  0  0  0  0
   55.1800   29.3090   44.6910 O   0  0  0  0  0  0  0  0  0  0  0  0
   56.4880   31.2230   44.7280 N   0  0  0  0  0  0  0  0  0  0  0  0
   57.5780   32.0040   45.2380 C   0  0  0  0  0  0  0  0  0  0  0  0
   58.0730   31.8200   46.5400 C   0  0  0  0  0  0  0  0  0  0  0  0
   59.1320   32.6030   47.0090 C   0  0  0  0  0  0  0  0  0  0  0  0
   59.6870   33.6050   46.1940 C   0  0  0  0  0  0  0  0  0  0  0  0
   60.7840   34.4170   46.6370 N   0  0  0  0  0  0  0  0  0  0  0  0
   62.1250   33.9710   46.8840 C   0  0  0  0  0  0  0  0  0  0  0  0
   62.9980   34.1700   45.9990 O   0  0  0  0  0  0  0  0  0  0  0  0
   62.5210   33.3700   48.1790 C   0  0  0  0  0  0  0  0  0  0  0  0
   62.9920   34.2050   49.2080 C   0  0  0  0  0  0  0  0  0  0  0  0
   63.3800   33.6670   50.4380 C   0  0  0  0  0  0  0  0  0  0  0  0
   63.3040   32.2920   50.6550 C   0  0  0  0  0  0  0  0  0  0  0  0
   62.8400   31.4490   49.6430 C   0  0  0  0  0  0  0  0  0  0  0  0
   62.4480   31.9760   48.4060 C   0  0  0  0  0  0  0  0  0  0  0  0
   61.8160   30.8650   47.1950 Cl  0  0  0  0  0  0  0  0  0  0  0  0
   59.1910   33.7860   44.8970 C   0  0  0  0  0  0  0  0  0  0  0  0
   58.1340   33.0010   44.4290 C   0  0  0  0  0  0  0  0  0  0  0  0
   57.3320   27.8030   45.9990 C   0  0  0  0  0  0  0  0  0  0  0  0
   58.2905   26.0590   48.1921 H   0  0  0  0  0  0  0  0  0  0  0  0
   57.2711   25.2847   46.9320 H   0  0  0  0  0  0  0  0  0  0  0  0
   59.0488   25.0275   46.9320 H   0  0  0  0  0  0  0  0  0  0  0  0
   60.5000   26.5240   45.8096 H   0  0  0  0  0  0  0  0  0  0  0  0
   60.7759   28.5025   44.3177 H   0  0  0  0  0  0  0  0  0  0  0  0
   58.8524   30.0294   43.8910 H   0  0  0  0  0  0  0  0  0  0  0  0
   57.6253   31.0565   47.1932 H   0  0  0  0  0  0  0  0  0  0  0  0
   59.5325   32.4344   48.0195 H   0  0  0  0  0  0  0  0  0  0  0  0
   63.0555   35.2907   49.0433 H   0  0  0  0  0  0  0  0  0  0  0  0
   63.7460   34.3295   51.2362 H   0  0  0  0  0  0  0  0  0  0  0  0
   63.6098   31.8708   51.6241 H   0  0  0  0  0  0  0  0  0  0  0  0
   62.7820   30.3646   49.8184 H   0  0  0  0  0  0  0  0  0  0  0  0
   59.6359   34.5504   44.2430 H   0  0  0  0  0  0  0  0  0  0  0  0
   57.7361   33.1681   43.4172 H   0  0  0  0  0  0  0  0  0  0  0  0
   56.3611   27.6058   46.4769 H   0  0  0  0  0  0  0  0  0  0  0  0
  1  2  1  0
  2  3  2  0
  3  4  1  0
  4  5  2  0
  5  6  1  0
  6  7  1  0
  7  8  2  0
  7  9  1  0
  9 10  1  0
 10 11  2  0
 11 12  1  0
 12 13  2  0
 13 14  1  0
 14 15  1  0
 15 16  2  0
 15 17  1  0
 17 18  2  0
 18 19  1  0
 19 20  2  0
 20 21  1  0
 21 22  2  0
 22 23  1  0
 13 24  1  0
 24 25  2  0
  6 26  2  0
 26  2  1  0
 25 10  1  0
 22 17  1  0
  1 27  1  0
  1 28  1  0
  1 29  1  0
  3 30  1  0
  4 31  1  0
  5 32  1  0
 11 33  1  0
 12 34  1  0
 18 35  1  0
 19 36  1  0
 20 37  1  0
 21 38  1  0
 24 39  1  0
 25 40  1  0
 26 41  1  0
M  CHG  2   9  -1  14  -1
M  END
>  <UniqueID>  (4) 
4

>  <SMILES>  (4) 
Cc1cccc(C(=O)[N-]c2ccc([N-]C(=O)c3ccccc3Cl)cc2)c1

>  <Energy>  (4) 
58.681934624255646

>  <Genealogy>  (4) 
Cc1cccc(C(=O)[N-]c2ccc([N-]C(=O)c3ccccc3Cl)cc2)c1 (protonated)
Cc1cccc(C(=O)[N-]c2ccc([N-]C(=O)c3ccccc3Cl)cc2)c1 (3D coordinates assigned)
Cc1cccc(C(=O)[N-]c2ccc([N-]C(=O)c3ccccc3Cl)cc2)c1 (optimized conformer: 58.681934624255646 kcal/mol)

>  <smiles>  (4) 
Cc1cccc(C(=O)Nc2ccc(NC(=O)c3ccccc3Cl)cc2)c1

>  <score_type>  (4) 
oracle

>  <origin>  (4) 
adg

>  <m_score__min__energy>  (4) 
-11.19

>  <m_primary>  (4) 
energy

$$$$
4:0
     RDKit          3D

 28 29  0  0  0  0  0  0  0  0999 V2000
   57.5060   31.2010   42.9950 O   0  0  0  0  0  0  0  0  0  0  0  0
   56.7160   30.8540   43.9110 C   0  0  0  0  0  0  0  0  0  0  0  0
   55.7370   29.7450   43.6400 C   0  0  0  0  0  0  0  0  0  0  0  0
   55.5130   28.9730   44.8590 N   0  0  0  0  0  0  0  0  0  0  0  0
   56.4370   28.0410   45.4330 C   0  0  0  0  0  0  0  0  0  0  0  0
   55.9830   26.9950   45.9670 O   0  0  0  0  0  0  0  0  0  0  0  0
   57.8940   28.2700   45.4420 C   0  0  0  0  0  0  0  0  0  0  0  0
   58.5970   28.9250   46.4470 C   0  0  0  0  0  0  0  0  0  0  0  0
   59.9570   29.0910   46.1560 C   0  0  0  0  0  0  0  0  0  0  0  0
   60.3270   28.5920   44.9150 C   0  0  0  0  0  0  0  0  0  0  0  0
   58.9610   27.9460   44.1810 S   0  0  0  0  0  0  0  0  0  0  0  0
   56.8820   31.4240   45.2170 N   0  0  0  0  0  0  0  0  0  0  0  0
   57.6990   32.5490   45.5590 C   0  0  0  0  0  0  0  0  0  0  0  0
   58.1790   32.7400   46.8670 C   0  0  0  0  0  0  0  0  0  0  0  0
   58.9600   33.8590   47.1720 C   0  0  0  0  0  0  0  0  0  0  0  0
   59.2460   34.8050   46.1830 C   0  0  0  0  0  0  0  0  0  0  0  0
   60.0050   35.8880   46.4800 F   0  0  0  0  0  0  0  0  0  0  0  0
   58.7390   34.6390   44.8910 C   0  0  0  0  0  0  0  0  0  0  0  0
   57.9600   33.5200   44.5840 C   0  0  0  0  0  0  0  0  0  0  0  0
   54.7834   30.1750   43.2998 H   0  0  0  0  0  0  0  0  0  0  0  0
   56.1445   29.0835   42.8613 H   0  0  0  0  0  0  0  0  0  0  0  0
   58.1310   29.2780   47.3788 H   0  0  0  0  0  0  0  0  0  0  0  0
   60.6655   29.5719   46.8465 H   0  0  0  0  0  0  0  0  0  0  0  0
   61.3397   28.6154   44.4861 H   0  0  0  0  0  0  0  0  0  0  0  0
   57.9395   32.0075   47.6519 H   0  0  0  0  0  0  0  0  0  0  0  0
   59.3500   33.9952   48.1915 H   0  0  0  0  0  0  0  0  0  0  0  0
   58.9532   35.3893   44.1157 H   0  0  0  0  0  0  0  0  0  0  0  0
   57.5494   33.4012   43.5705 H   0  0  0  0  0  0  0  0  0  0  0  0
  1  2  2  0
  2  3  1  0
  3  4  1  0
  4  5  1  0
  5  6  2  0
  5  7  1  0
  7  8  2  0
  8  9  1  0
  9 10  2  0
 10 11  1  0
  2 12  1  0
 12 13  1  0
 13 14  2  0
 14 15  1  0
 15 16  2  0
 16 17  1  0
 16 18  1  0
 18 19  2  0
 11  7  1  0
 19 13  1  0
  3 20  1  0
  3 21  1  0
  8 22  1  0
  9 23  1  0
 10 24  1  0
 14 25  1  0
 15 26  1  0
 18 27  1  0
 19 28  1  0
M  CHG  2   4  -1  12  -1
M  END
>  <UniqueID>  (5) 
5

>  <SMILES>  (5) 
O=C(C[N-]C(=O)c1cccs1)[N-]c1ccc(F)cc1

>  <Energy>  (5) 
58.93163098087656

>  <Genealogy>  (5) 
O=C(C[N-]C(=O)c1cccs1)[N-]c1ccc(F)cc1 (protonated)
O=C(C[N-]C(=O)c1cccs1)[N-]c1ccc(F)cc1 (3D coordinates assigned)
O=C(C[N-]C(=O)c1cccs1)[N-]c1ccc(F)cc1 (optimized conformer: 58.93163098087656 kcal/mol)

>  <smiles>  (5) 
O=C(CNC(=O)c1cccs1)Nc1ccc(F)cc1

>  <score_type>  (5) 
oracle

>  <origin>  (5) 
adg

>  <m_score__min__energy>  (5) 
-10.140000000000001

>  <m_primary>  (5) 
energy

$$$$
5:0
     RDKit          3D

 53 57  0  0  0  0  0  0  0  0999 V2000
   57.0470   31.5940   42.1400 C   0  0  0  0  0  0  0  0  0  0  0  0
   56.9470   30.6320   43.6370 S   0  0  0  0  0  0  0  0  0  0  0  0
   55.7580   29.7140   43.5880 O   0  0  0  0  0  0  0  0  0  0  0  0
   58.1970   29.8050   43.7440 O   0  0  0  0  0  0  0  0  0  0  0  0
   56.8500   31.6650   45.0280 N   0  0  0  0  0  0  0  0  0  0  0  0
   57.8700   32.5650   45.4850 C   0  0  0  0  0  0  0  0  0  0  0  0
   58.2860   33.5740   44.6090 C   0  0  0  0  0  0  0  0  0  0  0  0
   59.2760   34.4790   44.9840 C   0  0  0  0  0  0  0  0  0  0  0  0
   59.8630   34.3920   46.2450 C   0  0  0  0  0  0  0  0  0  0  0  0
   59.4780   33.3840   47.1400 C   0  0  0  0  0  0  0  0  0  0  0  0
   60.1260   33.3280   48.4720 C   0  0  0  0  0  0  0  0  0  0  0  0
   59.3930   33.5110   49.5310 N   0  0  0  0  0  0  0  0  0  0  0  0
   59.9430   33.5810   50.7980 O   0  0  0  0  0  0  0  0  0  0  0  0
   61.3200   33.8990   51.0090 C   0  0  0  0  0  0  0  0  0  0  0  0
   62.1680   33.3570   49.8920 C   0  0  0  0  0  0  0  0  0  0  0  0
   63.5480   33.1860   50.0700 C   0  0  0  0  0  0  0  0  0  0  0  0
   64.3380   32.7120   49.0200 C   0  0  0  0  0  0  0  0  0  0  0  0
   63.7550   32.4060   47.7880 C   0  0  0  0  0  0  0  0  0  0  0  0
   62.3830   32.5890   47.5980 C   0  0  0  0  0  0  0  0  0  0  0  0
   61.5840   33.0970   48.6380 C   0  0  0  0  0  0  0  0  0  0  0  0
   58.5150   32.4210   46.7350 C   0  0  0  0  0  0  0  0  0  0  0  0
   58.1780   31.3140   47.5870 N   0  0  0  0  0  0  0  0  0  0  0  0
   58.8770   30.2640   47.9340 C   0  0  0  0  0  0  0  0  0  0  0  0
   59.6320   30.3840   49.1050 C   0  0  0  0  0  0  0  0  0  0  0  0
   60.5880   29.4270   49.4290 C   0  0  0  0  0  0  0  0  0  0  0  0
   60.7790   28.3510   48.6270 N   0  0  0  0  0  0  0  0  0  0  0  0
   60.0020   28.1300   47.5290 C   0  0  0  0  0  0  0  0  0  0  0  0
   60.1960   26.9700   46.7640 C   0  0  0  0  0  0  0  0  0  0  0  0
   59.3540   26.6830   45.6920 C   0  0  0  0  0  0  0  0  0  0  0  0
   58.2820   27.5270   45.3940 C   0  0  0  0  0  0  0  0  0  0  0  0
   57.3830   27.1970   44.3310 N   0  0  0  0  0  0  0  0  0  0  0  0
   58.0830   28.6920   46.1470 C   0  0  0  0  0  0  0  0  0  0  0  0
   58.9820   29.0570   47.1740 C   0  0  0  0  0  0  0  0  0  0  0  0
   57.1576   32.6583   42.3948 H   0  0  0  0  0  0  0  0  0  0  0  0
   57.9159   31.2658   41.5506 H   0  0  0  0  0  0  0  0  0  0  0  0
   56.1292   31.4516   41.5506 H   0  0  0  0  0  0  0  0  0  0  0  0
   57.8259   33.6532   43.6130 H   0  0  0  0  0  0  0  0  0  0  0  0
   59.5954   35.2644   44.2832 H   0  0  0  0  0  0  0  0  0  0  0  0
   60.6337   35.1193   46.5401 H   0  0  0  0  0  0  0  0  0  0  0  0
   61.4356   34.9920   51.0524 H   0  0  0  0  0  0  0  0  0  0  0  0
   61.6473   33.4427   51.9548 H   0  0  0  0  0  0  0  0  0  0  0  0
   64.0099   33.4257   51.0391 H   0  0  0  0  0  0  0  0  0  0  0  0
   65.4205   32.5795   49.1635 H   0  0  0  0  0  0  0  0  0  0  0  0
   64.3768   32.0205   46.9666 H   0  0  0  0  0  0  0  0  0  0  0  0
   61.9256   32.3346   46.6305 H   0  0  0  0  0  0  0  0  0  0  0  0
   59.4687   31.2413   49.7746 H   0  0  0  0  0  0  0  0  0  0  0  0
   61.1922   29.5440   50.3408 H   0  0  0  0  0  0  0  0  0  0  0  0
   61.5250   27.6650   48.8900 H   0  0  0  0  0  0  0  0  0  0  0  0
   61.0182   26.2828   47.0123 H   0  0  0  0  0  0  0  0  0  0  0  0
   59.5342   25.7883   45.0780 H   0  0  0  0  0  0  0  0  0  0  0  0
   57.0000   27.9390   43.7030 H   0  0  0  0  0  0  0  0  0  0  0  0
   57.0970   26.2060   44.1610 H   0  0  0  0  0  0  0  0  0  0  0  0
   57.2137   29.3320   45.9353 H   0  0  0  0  0  0  0  0  0  0  0  0
  1  2  1  0
  2  3  2  0
  2  4  2  0
  2  5  1  0
  5  6  1  0
  6  7  2  0
  7  8  1  0
  8  9  2  0
  9 10  1  0
 10 11  1  0
 11 12  2  0
 12 13  1  0
 13 14  1  0
 14 15  1  0
 15 16  2  0
 16 17  1  0
 17 18  2  0
 18 19  1  0
 19 20  2  0
 10 21  2  0
 21 22  1  0
 22 23  2  3
 23 24  1  0
 24 25  2  0
 25 26  1  0
 26 27  1  0
 27 28  2  0
 28 29  1  0
 29 30  2  0
 30 31  1  0
 30 32  1  0
 32 33  2  0
 21  6  1  0
 33 23  1  0
 20 11  1  0
 33 27  1  0
 20 15  1  0
  1 34  1  0
  1 35  1  0
  1 36  1  0
  7 37  1  0
  8 38  1  0
  9 39  1  0
 14 40  1  0
 14 41  1  0
 16 42  1  0
 17 43  1  0
 18 44  1  0
 19 45  1  0
 24 46  1  0
 25 47  1  0
 26 48  1  0
 28 49  1  0
 29 50  1  0
 31 51  1  0
 31 52  1  0
 32 53  1  0
M  CHG  1   5  -1
M  END
>  <UniqueID>  (6) 
6

>  <SMILES>  (6) 
CS(=O)(=O)[N-]c1cccc(C2=NOCc3ccccc32)c1N=c1cc[nH]c2ccc(N)cc12

>  <Energy>  (6) 
90.40141154003393

>  <Genealogy>  (6) 
CS(=O)(=O)[N-]c1cccc(C2=NOCc3ccccc32)c1N=c1cc[nH]c2ccc(N)cc12 (protonated)
CS(=O)(=O)[N-]c1cccc(C2=NOCc3ccccc32)c1N=c1cc[nH]c2ccc(N)cc12 (3D coordinates assigned)
CS(=O)(=O)[N-]c1cccc(C2=NOCc3ccccc32)c1N=c1cc[nH]c2ccc(N)cc12 (nonaromatic ring conformer: 90.40141154003393 kcal/mol)

>  <smiles>  (6) 
CS(=O)(=O)Nc1cccc(C2=NOCc3ccccc32)c1N=c1cc[nH]c2ccc(N)cc12

>  <score_type>  (6) 
oracle

>  <origin>  (6) 
adg

>  <m_score__min__energy>  (6) 
-11.449999999999999

>  <m_primary>  (6) 
energy

$$$$
6:0
     RDKit          3D

 32 34  0  0  0  0  0  0  0  0999 V2000
   57.8950   27.5960   43.9640 O   0  0  0  0  0  0  0  0  0  0  0  0
   57.2690   28.2360   44.8530 C   0  0  0  0  0  0  0  0  0  0  0  0
   56.2880   27.5600   45.6490 N   0  0  0  0  0  0  0  0  0  0  0  0
   56.5130   26.2650   46.2820 C   0  0  0  0  0  0  0  0  0  0  0  0
   55.6750   25.2110   45.6230 C   0  0  0  0  0  0  0  0  0  0  0  0
   56.2410   24.3220   44.7030 C   0  0  0  0  0  0  0  0  0  0  0  0
   55.4140   23.3730   44.0970 C   0  0  0  0  0  0  0  0  0  0  0  0
   55.8970   22.5580   43.2670 O   0  0  0  0  0  0  0  0  0  0  0  0
   54.0880   23.3310   44.4030 N   0  0  0  0  0  0  0  0  0  0  0  0
   53.5540   24.2090   45.2960 C   0  0  0  0  0  0  0  0  0  0  0  0
   52.3260   24.1650   45.5690 O   0  0  0  0  0  0  0  0  0  0  0  0
   54.3450   25.1390   45.8950 N   0  0  0  0  0  0  0  0  0  0  0  0
   57.5430   29.6810   45.0770 C   0  0  0  0  0  0  0  0  0  0  0  0
   58.7280   30.0790   45.7200 C   0  0  0  0  0  0  0  0  0  0  0  0
   58.9870   31.4350   45.9290 C   0  0  0  0  0  0  0  0  0  0  0  0
   60.1600   31.8680   46.5680 C   0  0  0  0  0  0  0  0  0  0  0  0
   60.3860   33.2350   46.7600 C   0  0  0  0  0  0  0  0  0  0  0  0
   61.9810   33.8260   47.6280 Br  0  0  0  0  0  0  0  0  0  0  0  0
   59.4450   34.1710   46.3150 C   0  0  0  0  0  0  0  0  0  0  0  0
   58.2760   33.7450   45.6780 C   0  0  0  0  0  0  0  0  0  0  0  0
   58.0420   32.3790   45.4820 C   0  0  0  0  0  0  0  0  0  0  0  0
   56.9310   31.9770   44.8770 O   0  0  0  0  0  0  0  0  0  0  0  0
   56.6480   30.6950   44.6600 C   0  0  0  0  0  0  0  0  0  0  0  0
   55.5700   30.4060   44.0780 O   0  0  0  0  0  0  0  0  0  0  0  0
   57.5752   25.9950   46.1884 H   0  0  0  0  0  0  0  0  0  0  0  0
   56.2334   26.3324   47.3437 H   0  0  0  0  0  0  0  0  0  0  0  0
   57.3133   24.3691   44.4621 H   0  0  0  0  0  0  0  0  0  0  0  0
   53.4740   22.6200   43.9460 H   0  0  0  0  0  0  0  0  0  0  0  0
   59.4511   29.3223   46.0584 H   0  0  0  0  0  0  0  0  0  0  0  0
   60.9003   31.1331   46.9172 H   0  0  0  0  0  0  0  0  0  0  0  0
   59.6261   35.2453   46.4671 H   0  0  0  0  0  0  0  0  0  0  0  0
   57.5392   34.4841   45.3304 H   0  0  0  0  0  0  0  0  0  0  0  0
  1  2  2  0
  2  3  1  0
  3  4  1  0
  4  5  1  0
  5  6  2  0
  6  7  1  0
  7  8  2  0
  7  9  1  0
  9 10  1  0
 10 11  2  0
 10 12  1  0
  2 13  1  0
 13 14  2  0
 14 15  1  0
 15 16  2  0
 16 17  1  0
 17 18  1  0
 17 19  2  0
 19 20  1  0
 20 21  2  0
 21 22  1  0
 22 23  1  0
 23 24  2  0
 12  5  1  0
 23 13  1  0
 21 15  1  0
  4 25  1  0
  4 26  1  0
  6 27  1  0
  9 28  1  0
 14 29  1  0
 16 30  1  0
 19 31  1  0
 20 32  1  0
M  CHG  2   3  -1  12  -1
M  END
>  <UniqueID>  (7) 
7

>  <SMILES>  (7) 
O=C([N-]Cc1cc(=O)[nH]c(=O)[n-]1)c1cc2cc(Br)ccc2oc1=O

>  <Energy>  (7) 
39.5598945744637

>  <Genealogy>  (7) 
O=C([N-]Cc1cc(=O)[nH]c(=O)[n-]1)c1cc2cc(Br)ccc2oc1=O (protonated)
O=C([N-]Cc1cc(=O)[nH]c(=O)[n-]1)c1cc2cc(Br)ccc2oc1=O (3D coordinates assigned)
O=C([N-]Cc1cc(=O)[nH]c(=O)[n-]1)c1cc2cc(Br)ccc2oc1=O (optimized conformer: 39.5598945744637 kcal/mol)

>  <smiles>  (7) 
O=C(NCc1cc(=O)[nH]c(=O)[nH]1)c1cc2cc(Br)ccc2oc1=O

>  <score_type>  (7) 
oracle

>  <origin>  (7) 
adg

>  <m_score__min__energy>  (7) 
-11.890000000000001

>  <m_primary>  (7) 
energy

$$$$
7:0
     RDKit          3D

 44 46  0  0  0  0  0  0  0  0999 V2000
   61.5500   29.0900   50.6400 C   0  0  0  0  0  0  0  0  0  0  0  0
   61.5120   30.5060   50.0590 C   0  0  0  0  0  0  0  0  0  0  0  0
   60.4720   31.3810   50.7630 C   0  0  0  0  0  0  0  0  0  0  0  0
   61.3070   30.4740   48.5960 N   0  0  0  0  0  0  0  0  0  0  0  0
   62.0120   31.1090   47.6100 C   0  0  0  0  0  0  0  0  0  0  0  0
   63.5550   32.0020   47.8480 S   0  0  0  0  0  0  0  0  0  0  0  0
   63.0540   33.4730   46.8820 C   0  0  0  0  0  0  0  0  0  0  0  0
   61.6040   33.8290   47.1080 C   0  0  0  0  0  0  0  0  0  0  0  0
   60.7240   33.8520   46.0120 C   0  0  0  0  0  0  0  0  0  0  0  0
   59.3790   34.1820   46.1880 C   0  0  0  0  0  0  0  0  0  0  0  0
   58.8950   34.4950   47.4580 C   0  0  0  0  0  0  0  0  0  0  0  0
   59.7560   34.4820   48.5580 C   0  0  0  0  0  0  0  0  0  0  0  0
   61.1090   34.1540   48.3930 C   0  0  0  0  0  0  0  0  0  0  0  0
   61.9710   34.1720   49.5510 C   0  0  0  0  0  0  0  0  0  0  0  0
   62.6620   34.1850   50.4790 N   0  0  0  0  0  0  0  0  0  0  0  0
   61.4370   31.0170   46.3840 N   0  0  0  0  0  0  0  0  0  0  0  0
   60.3380   30.2830   46.6160 C   0  0  0  0  0  0  0  0  0  0  0  0
   59.3770   29.8940   45.6870 C   0  0  0  0  0  0  0  0  0  0  0  0
   58.2830   29.1340   46.1460 C   0  0  0  0  0  0  0  0  0  0  0  0
   57.0280   28.6270   45.0210 S   0  0  0  0  0  0  0  0  0  0  0  0
   57.7520   28.0960   43.5460 N   0  0  0  0  0  0  0  0  0  0  0  0
   56.2310   27.5020   45.6220 O   0  0  0  0  0  0  0  0  0  0  0  0
   56.1020   29.7770   44.7410 O   0  0  0  0  0  0  0  0  0  0  0  0
   58.1800   28.8030   47.5180 C   0  0  0  0  0  0  0  0  0  0  0  0
   59.1680   29.2150   48.4320 C   0  0  0  0  0  0  0  0  0  0  0  0
   60.2470   29.9570   47.9380 C   0  0  0  0  0  0  0  0  0  0  0  0
   61.5485   29.1443   51.7387 H   0  0  0  0  0  0  0  0  0  0  0  0
   60.6666   28.5301   50.2994 H   0  0  0  0  0  0  0  0  0  0  0  0
   62.4622   28.5783   50.2994 H   0  0  0  0  0  0  0  0  0  0  0  0
   62.4922   30.9691   50.2452 H   0  0  0  0  0  0  0  0  0  0  0  0
   60.5879   31.2835   51.8525 H   0  0  0  0  0  0  0  0  0  0  0  0
   60.6186   32.4314   50.4712 H   0  0  0  0  0  0  0  0  0  0  0  0
   59.4621   31.0569   50.4712 H   0  0  0  0  0  0  0  0  0  0  0  0
   63.6804   34.3258   47.1825 H   0  0  0  0  0  0  0  0  0  0  0  0
   63.1853   33.2405   45.8149 H   0  0  0  0  0  0  0  0  0  0  0  0
   61.0985   33.6078   45.0069 H   0  0  0  0  0  0  0  0  0  0  0  0
   58.6995   34.1952   45.3231 H   0  0  0  0  0  0  0  0  0  0  0  0
   57.8342   34.7524   47.5936 H   0  0  0  0  0  0  0  0  0  0  0  0
   59.3707   34.7302   49.5580 H   0  0  0  0  0  0  0  0  0  0  0  0
   59.4690   30.1716   44.6266 H   0  0  0  0  0  0  0  0  0  0  0  0
   58.0210   28.9510   43.0110 H   0  0  0  0  0  0  0  0  0  0  0  0
   57.0040   27.6180   42.9940 H   0  0  0  0  0  0  0  0  0  0  0  0
   57.3192   28.2179   47.8738 H   0  0  0  0  0  0  0  0  0  0  0  0
   59.0944   28.9620   49.5000 H   0  0  0  0  0  0  0  0  0  0  0  0
  1  2  1  0
  2  3  1  0
  2  4  1  0
  4  5  1  0
  5  6  1  0
  6  7  1  0
  7  8  1  0
  8  9  2  0
  9 10  1  0
 10 11  2  0
 11 12  1  0
 12 13  2  0
 13 14  1  0
 14 15  3  0
  5 16  2  0
 16 17  1  0
 17 18  2  0
 18 19  1  0
 19 20  1  0
 20 21  1  0
 20 22  2  0
 20 23  2  0
 19 24  2  0
 24 25  1  0
 25 26  2  0
 26  4  1  0
 13  8  1  0
 26 17  1  0
  1 27  1  0
  1 28  1  0
  1 29  1  0
  2 30  1  0
  3 31  1  0
  3 32  1  0
  3 33  1  0
  7 34  1  0
  7 35  1  0
  9 36  1  0
 10 37  1  0
 11 38  1  0
 12 39  1  0
 18 40  1  0
 21 41  1  0
 21 42  1  0
 24 43  1  0
 25 44  1  0
M  END
>  <UniqueID>  (8) 
8

>  <SMILES>  (8) 
CC(C)n1c(SCc2ccccc2C#N)nc2cc(S(N)(=O)=O)ccc21

>  <Energy>  (8) 
75.97524355883701

>  <Genealogy>  (8) 
CC(C)n1c(SCc2ccccc2C#N)nc2cc(S(N)(=O)=O)ccc21 (3D coordinates assigned)
CC(C)n1c(SCc2ccccc2C#N)nc2cc(S(N)(=O)=O)ccc21 (optimized conformer: 75.97524355883701 kcal/mol)

>  <smiles>  (8) 
CC(C)n1c(SCc2ccccc2C#N)nc2cc(S(N)(=O)=O)ccc21

>  <score_type>  (8) 
oracle

>  <origin>  (8) 
adg

>  <m_score__min__energy>  (8) 
-8.1899999999999995

>  <m_primary>  (8) 
energy

$$$$
8:0
     RDKit          3D

 36 38  0  0  0  0  0  0  0  0999 V2000
   55.6466   28.8507   43.8113 H   0  0  0  0  0  0  0  0  0  0  0  0
   56.2610   29.7630   43.8270 C   0  0  0  0  0  0  0  0  0  0  0  0
   56.6630   30.2910   45.0140 N   0  0  0  0  0  0  0  0  0  0  0  0
   57.4170   31.4230   45.0910 C   0  0  0  0  0  0  0  0  0  0  0  0
   57.7690   31.8500   46.2710 N   0  0  0  0  0  0  0  0  0  0  0  0
   59.0950   32.0230   46.7920 C   0  0  0  0  0  0  0  0  0  0  0  0
   59.9130   33.4920   46.9270 S   0  0  0  0  0  0  0  0  0  0  0  0
   61.2210   32.7970   47.7190 C   0  0  0  0  0  0  0  0  0  0  0  0
   62.7670   33.7490   48.2950 Br  0  0  0  0  0  0  0  0  0  0  0  0
   61.0420   31.4720   47.9170 N   0  0  0  0  0  0  0  0  0  0  0  0
   59.8490   31.0330   47.4290 C   0  0  0  0  0  0  0  0  0  0  0  0
   59.4570   29.6160   47.5510 C   0  0  0  0  0  0  0  0  0  0  0  0
   60.0270   28.8990   48.4170 O   0  0  0  0  0  0  0  0  0  0  0  0
   58.4030   29.0620   46.7480 N   0  0  0  0  0  0  0  0  0  0  0  0
   57.6500   29.7030   46.4100 H   0  0  0  0  0  0  0  0  0  0  0  0
   58.2610   27.6530   46.5020 C   0  0  0  0  0  0  0  0  0  0  0  0
   57.0320   27.0100   46.7400 C   0  0  0  0  0  0  0  0  0  0  0  0
   56.1556   27.6020   47.0424 H   0  0  0  0  0  0  0  0  0  0  0  0
   56.9170   25.6250   46.5950 C   0  0  0  0  0  0  0  0  0  0  0  0
   55.9488   25.1326   46.7686 H   0  0  0  0  0  0  0  0  0  0  0  0
   58.0300   24.8660   46.2300 C   0  0  0  0  0  0  0  0  0  0  0  0
   57.9400   23.7749   46.1235 H   0  0  0  0  0  0  0  0  0  0  0  0
   59.2570   25.4900   46.0000 C   0  0  0  0  0  0  0  0  0  0  0  0
   60.1341   24.8858   45.7250 H   0  0  0  0  0  0  0  0  0  0  0  0
   59.3790   26.8800   46.1170 C   0  0  0  0  0  0  0  0  0  0  0  0
   60.6190   27.4680   45.8520 O   0  0  0  0  0  0  0  0  0  0  0  0
   60.7610   28.5800   44.9730 C   0  0  0  0  0  0  0  0  0  0  0  0
   60.6014   29.5125   45.5342 H   0  0  0  0  0  0  0  0  0  0  0  0
   59.8310   28.4880   43.9530 F   0  0  0  0  0  0  0  0  0  0  0  0
   62.0300   28.5670   44.4270 F   0  0  0  0  0  0  0  0  0  0  0  0
   57.8230   32.0540   43.8960 C   0  0  0  0  0  0  0  0  0  0  0  0
   58.4546   32.9539   43.9307 H   0  0  0  0  0  0  0  0  0  0  0  0
   57.4160   31.5260   42.6690 C   0  0  0  0  0  0  0  0  0  0  0  0
   57.7182   32.0170   41.7322 H   0  0  0  0  0  0  0  0  0  0  0  0
   56.6270   30.3770   42.6300 C   0  0  0  0  0  0  0  0  0  0  0  0
   56.2974   29.9602   41.6668 H   0  0  0  0  0  0  0  0  0  0  0  0
  1  2  1  0
  2  3  1  0
  3  4  1  0
  4  5  2  0
  5  6  1  0
  6  7  1  0
  7  8  1  0
  8  9  1  0
  8 10  2  0
 10 11  1  0
 11 12  1  0
 12 13  2  0
 12 14  1  0
 14 15  1  0
 14 16  1  0
 16 17  2  0
 17 18  1  0
 17 19  1  0
 19 20  1  0
 19 21  2  0
 21 22  1  0
 21 23  1  0
 23 24  1  0
 23 25  2  0
 25 26  1  0
 26 27  1  0
 27 28  1  0
 27 29  1  0
 27 30  1  0
  4 31  1  0
 31 32  1  0
 31 33  2  0
 33 34  1  0
 33 35  1  0
 35 36  1  0
 35  2  2  0
 11  6  2  0
 25 16  1  0
M  CHG  1   3  -1
M  END
>  <UniqueID>  (9) 
9

>  <SMILES>  (9) 
O=C(Nc1ccccc1OC(F)F)c1nc(Br)sc1/N=c1\cccc[n-]1

>  <Energy>  (9) 
89.83729502367471

>  <Genealogy>  (9) 
O=C(Nc1ccccc1OC(F)F)c1nc(Br)sc1N=c1cccc[n-]1 (protonated)
O=C(Nc1ccccc1OC(F)F)c1nc(Br)sc1/N=c1\cccc[n-]1 (cis-trans isomerization)
O=C(Nc1ccccc1OC(F)F)c1nc(Br)sc1/N=c1\cccc[n-]1 (3D coordinates assigned)
O=C(Nc1ccccc1OC(F)F)c1nc(Br)sc1/N=c1\cccc[n-]1 (optimized conformer: 89.83729502367471 kcal/mol)

>  <smiles>  (9) 
O=C(Nc1ccccc1OC(F)F)c1nc(Br)sc1N=c1cccc[nH]1

>  <score_type>  (9) 
oracle

>  <origin>  (9) 
adg

>  <m_score__min__energy>  (9) 
-9.2200000000000006

>  <m_primary>  (9) 
energy

$$$$
9:0
     RDKit          3D

 39 41  0  0  0  0  0  0  0  0999 V2000
   54.9410   26.3330   45.9520 N   0  0  0  0  0  0  0  0  0  0  0  0
   56.3530   25.3520   46.1180 S   0  0  0  0  0  0  0  0  0  0  0  0
   56.1910   24.4350   47.2990 O   0  0  0  0  0  0  0  0  0  0  0  0
   56.5310   24.5170   44.8810 O   0  0  0  0  0  0  0  0  0  0  0  0
   57.7610   26.3830   46.3480 C   0  0  0  0  0  0  0  0  0  0  0  0
   58.9490   26.1160   45.6560 C   0  0  0  0  0  0  0  0  0  0  0  0
   60.0560   26.9530   45.8130 C   0  0  0  0  0  0  0  0  0  0  0  0
   59.9860   28.0560   46.6670 C   0  0  0  0  0  0  0  0  0  0  0  0
   58.8110   28.3260   47.3810 C   0  0  0  0  0  0  0  0  0  0  0  0
   58.7730   29.4820   48.2300 N   0  0  0  0  0  0  0  0  0  0  0  0
   59.7490   30.5320   48.2920 C   0  0  0  0  0  0  0  0  0  0  0  0
   60.8340   30.3500   48.9080 O   0  0  0  0  0  0  0  0  0  0  0  0
   59.5070   31.8120   47.5860 C   0  0  0  0  0  0  0  0  0  0  0  0
   59.8200   33.0350   48.1960 C   0  0  0  0  0  0  0  0  0  0  0  0
   59.6010   34.2310   47.5190 C   0  0  0  0  0  0  0  0  0  0  0  0
   59.0610   34.2080   46.2320 C   0  0  0  0  0  0  0  0  0  0  0  0
   58.8830   35.2990   45.6250 O   0  0  0  0  0  0  0  0  0  0  0  0
   58.7350   33.0130   45.6390 N   0  0  0  0  0  0  0  0  0  0  0  0
   58.1920   32.9780   44.2710 C   0  0  0  0  0  0  0  0  0  0  0  0
   57.3840   31.7360   44.0720 C   0  0  0  0  0  0  0  0  0  0  0  0
   57.5660   30.8080   43.0660 C   0  0  0  0  0  0  0  0  0  0  0  0
   56.5800   29.8640   43.2540 C   0  0  0  0  0  0  0  0  0  0  0  0
   55.8590   30.2750   44.3570 C   0  0  0  0  0  0  0  0  0  0  0  0
   56.3600   31.3960   44.8210 O   0  0  0  0  0  0  0  0  0  0  0  0
   58.9630   31.8310   46.2910 C   0  0  0  0  0  0  0  0  0  0  0  0
   57.6900   27.4960   47.2000 C   0  0  0  0  0  0  0  0  0  0  0  0
   55.1650   27.0720   45.2490 H   0  0  0  0  0  0  0  0  0  0  0  0
   59.0104   25.2449   44.9871 H   0  0  0  0  0  0  0  0  0  0  0  0
   60.9851   26.7431   45.2628 H   0  0  0  0  0  0  0  0  0  0  0  0
   60.8583   28.7165   46.7797 H   0  0  0  0  0  0  0  0  0  0  0  0
   60.2399   33.0492   49.2126 H   0  0  0  0  0  0  0  0  0  0  0  0
   59.8522   35.1899   47.9958 H   0  0  0  0  0  0  0  0  0  0  0  0
   57.5521   33.8582   44.1107 H   0  0  0  0  0  0  0  0  0  0  0  0
   59.0247   32.9855   43.5522 H   0  0  0  0  0  0  0  0  0  0  0  0
   58.3357   30.8198   42.2802 H   0  0  0  0  0  0  0  0  0  0  0  0
   56.4030   28.9638   42.6471 H   0  0  0  0  0  0  0  0  0  0  0  0
   54.9952   29.7435   44.7828 H   0  0  0  0  0  0  0  0  0  0  0  0
   58.7164   30.8816   45.7932 H   0  0  0  0  0  0  0  0  0  0  0  0
   56.7522   27.7205   47.7293 H   0  0  0  0  0  0  0  0  0  0  0  0
  1  2  1  0
  2  3  2  0
  2  4  2  0
  2  5  1  0
  5  6  2  0
  6  7  1  0
  7  8  2  0
  8  9  1  0
  9 10  1  0
 10 11  1  0
 11 12  2  0
 11 13  1  0
 13 14  1  0
 14 15  2  0
 15 16  1  0
 16 17  2  0
 16 18  1  0
 18 19  1  0
 19 20  1  0
 20 21  2  0
 21 22  1  0
 22 23  2  0
 23 24  1  0
 18 25  1  0
  9 26  2  0
 26  5  1  0
 25 13  2  0
 24 20  1  0
  1 27  1  0
  6 28  1  0
  7 29  1  0
  8 30  1  0
 14 31  1  0
 15 32  1  0
 19 33  1  0
 19 34  1  0
 21 35  1  0
 22 36  1  0
 23 37  1  0
 25 38  1  0
 26 39  1  0
M  CHG  2   1  -1  10  -1
M  END
>  <UniqueID>  (10) 
10

>  <SMILES>  (10) 
[NH-]S(=O)(=O)c1cccc([N-]C(=O)c2ccc(=O)n(Cc3ccco3)c2)c1

>  <Energy>  (10) 
72.31496351619829

>  <Genealogy>  (10) 
[NH-]S(=O)(=O)c1cccc([N-]C(=O)c2ccc(=O)n(Cc3ccco3)c2)c1 (protonated)
[NH-]S(=O)(=O)c1cccc([N-]C(=O)c2ccc(=O)n(Cc3ccco3)c2)c1 (3D coordinates assigned)
[NH-]S(=O)(=O)c1cccc([N-]C(=O)c2ccc(=O)n(Cc3ccco3)c2)c1 (optimized conformer: 72.31496351619829 kcal/mol)

>  <smiles>  (10) 
NS(=O)(=O)c1cccc(NC(=O)c2ccc(=O)n(Cc3ccco3)c2)c1

>  <score_type>  (10) 
oracle

>  <origin>  (10) 
adg

>  <m_score__min__energy>  (10) 
-13.279999999999999

>  <m_primary>  (10) 
energy

$$$$
10:0
     RDKit          3D

 47 49  0  0  0  0  0  0  0  0999 V2000
   58.9700   34.8680   44.9520 C   0  0  0  0  0  0  0  0  0  0  0  0
   57.6710   34.0670   44.9780 C   0  0  0  0  0  0  0  0  0  0  0  0
   57.9480   32.6200   45.1400 N   0  0  0  0  0  0  0  0  0  0  0  0
   57.8330   31.8070   44.0350 C   0  0  0  0  0  0  0  0  0  0  0  0
   57.4860   32.2780   42.9160 O   0  0  0  0  0  0  0  0  0  0  0  0
   58.0970   30.4420   44.1180 C   0  0  0  0  0  0  0  0  0  0  0  0
   58.4700   29.8710   45.3270 C   0  0  0  0  0  0  0  0  0  0  0  0
   58.8040   28.0980   45.3520 S   0  0  0  0  0  0  0  0  0  0  0  0
   57.0950   27.5910   44.9460 C   0  0  0  0  0  0  0  0  0  0  0  0
   56.5040   26.7610   46.0510 C   0  0  0  0  0  0  0  0  0  0  0  0
   57.2560   26.3620   46.9790 O   0  0  0  0  0  0  0  0  0  0  0  0
   55.1120   26.4160   46.0970 N   0  0  0  0  0  0  0  0  0  0  0  0
   54.5150   25.1750   45.6090 C   0  0  0  0  0  0  0  0  0  0  0  0
   55.5730   24.2170   45.1320 C   0  0  0  0  0  0  0  0  0  0  0  0
   56.4320   23.5900   46.0510 C   0  0  0  0  0  0  0  0  0  0  0  0
   57.4180   22.7050   45.6040 C   0  0  0  0  0  0  0  0  0  0  0  0
   57.5570   22.4340   44.2340 C   0  0  0  0  0  0  0  0  0  0  0  0
   58.6040   21.4680   43.7650 C   0  0  0  0  0  0  0  0  0  0  0  0
   56.6760   23.0310   43.3180 C   0  0  0  0  0  0  0  0  0  0  0  0
   55.6930   23.9180   43.7650 C   0  0  0  0  0  0  0  0  0  0  0  0
   58.5830   30.6820   46.4710 C   0  0  0  0  0  0  0  0  0  0  0  0
   58.9610   30.1370   47.7160 C   0  0  0  0  0  0  0  0  0  0  0  0
   59.0290   30.9400   48.8520 C   0  0  0  0  0  0  0  0  0  0  0  0
   58.7180   32.2920   48.7710 C   0  0  0  0  0  0  0  0  0  0  0  0
   58.3520   32.8570   47.5500 C   0  0  0  0  0  0  0  0  0  0  0  0
   58.2910   32.0740   46.3680 C   0  0  0  0  0  0  0  0  0  0  0  0
   59.2971   35.0697   45.9827 H   0  0  0  0  0  0  0  0  0  0  0  0
   59.7459   34.2913   44.4273 H   0  0  0  0  0  0  0  0  0  0  0  0
   58.8031   35.8203   44.4273 H   0  0  0  0  0  0  0  0  0  0  0  0
   57.0514   34.4119   45.8189 H   0  0  0  0  0  0  0  0  0  0  0  0
   57.1431   34.2204   44.0252 H   0  0  0  0  0  0  0  0  0  0  0  0
   58.0094   29.8126   43.2201 H   0  0  0  0  0  0  0  0  0  0  0  0
   56.4776   28.4898   44.8013 H   0  0  0  0  0  0  0  0  0  0  0  0
   57.1169   26.9873   44.0267 H   0  0  0  0  0  0  0  0  0  0  0  0
   53.9458   24.7050   46.4245 H   0  0  0  0  0  0  0  0  0  0  0  0
   53.8528   25.4141   44.7638 H   0  0  0  0  0  0  0  0  0  0  0  0
   56.3282   23.7964   47.1265 H   0  0  0  0  0  0  0  0  0  0  0  0
   58.0875   22.2192   46.3291 H   0  0  0  0  0  0  0  0  0  0  0  0
   59.0983   21.0119   44.6354 H   0  0  0  0  0  0  0  0  0  0  0  0
   58.1318   20.6817   43.1578 H   0  0  0  0  0  0  0  0  0  0  0  0
   59.3498   22.0019   43.1578 H   0  0  0  0  0  0  0  0  0  0  0  0
   56.7598   22.7999   42.2458 H   0  0  0  0  0  0  0  0  0  0  0  0
   55.0087   24.3851   43.0414 H   0  0  0  0  0  0  0  0  0  0  0  0
   59.2045   29.0669   47.7904 H   0  0  0  0  0  0  0  0  0  0  0  0
   59.3296   30.5029   49.8156 H   0  0  0  0  0  0  0  0  0  0  0  0
   58.7607   32.9190   49.6738 H   0  0  0  0  0  0  0  0  0  0  0  0
   58.1063   33.9281   47.5021 H   0  0  0  0  0  0  0  0  0  0  0  0
  1  2  1  0
  2  3  1  0
  3  4  1  0
  4  5  2  0
  4  6  1  0
  6  7  2  0
  7  8  1  0
  8  9  1  0
  9 10  1  0
 10 11  2  0
 10 12  1  0
 12 13  1  0
 13 14  1  0
 14 15  2  0
 15 16  1  0
 16 17  2  0
 17 18  1  0
 17 19  1  0
 19 20  2  0
  7 21  1  0
 21 22  2  0
 22 23  1  0
 23 24  2  0
 24 25  1  0
 25 26  2  0
 26  3  1  0
 20 14  1  0
 26 21  1  0
  1 27  1  0
  1 28  1  0
  1 29  1  0
  2 30  1  0
  2 31  1  0
  6 32  1  0
  9 33  1  0
  9 34  1  0
 13 35  1  0
 13 36  1  0
 15 37  1  0
 16 38  1  0
 18 39  1  0
 18 40  1  0
 18 41  1  0
 19 42  1  0
 20 43  1  0
 22 44  1  0
 23 45  1  0
 24 46  1  0
 25 47  1  0
M  CHG  1  12  -1
M  END
>  <UniqueID>  (11) 
11

>  <SMILES>  (11) 
CCn1c(=O)cc(SCC(=O)[N-]Cc2ccc(C)cc2)c2ccccc21

>  <Energy>  (11) 
51.254006963503755

>  <Genealogy>  (11) 
CCn1c(=O)cc(SCC(=O)[N-]Cc2ccc(C)cc2)c2ccccc21 (protonated)
CCn1c(=O)cc(SCC(=O)[N-]Cc2ccc(C)cc2)c2ccccc21 (3D coordinates assigned)
CCn1c(=O)cc(SCC(=O)[N-]Cc2ccc(C)cc2)c2ccccc21 (optimized conformer: 51.254006963503755 kcal/mol)

>  <smiles>  (11) 
CCn1c(=O)cc(SCC(=O)NCc2ccc(C)cc2)c2ccccc21

>  <score_type>  (11) 
oracle

>  <origin>  (11) 
adg

>  <m_score__min__energy>  (11) 
-10.06

>  <m_primary>  (11) 
energy

$$$$
11:0
     RDKit          3D

 44 46  0  0  0  0  0  0  0  0999 V2000
   55.5640   24.8840   46.0720 C   0  0  0  0  0  0  0  0  0  0  0  0
   56.5410   25.9980   45.8740 C   0  0  0  0  0  0  0  0  0  0  0  0
   57.9170   25.7490   45.9180 C   0  0  0  0  0  0  0  0  0  0  0  0
   58.8080   26.8020   45.7130 C   0  0  0  0  0  0  0  0  0  0  0  0
   58.3240   28.0890   45.4730 C   0  0  0  0  0  0  0  0  0  0  0  0
   56.9320   28.3140   45.4500 C   0  0  0  0  0  0  0  0  0  0  0  0
   56.4140   29.4880   45.2210 N   0  0  0  0  0  0  0  0  0  0  0  0
   56.9350   30.5160   44.3670 C   0  0  0  0  0  0  0  0  0  0  0  0
   56.5620   30.5540   43.1640 O   0  0  0  0  0  0  0  0  0  0  0  0
   57.7630   31.6490   44.9280 C   0  0  0  0  0  0  0  0  0  0  0  0
   58.1740   31.3490   46.3890 C   0  0  0  0  0  0  0  0  0  0  0  0
   58.3990   32.6200   47.2330 C   0  0  0  0  0  0  0  0  0  0  0  0
   58.7870   33.7620   46.3930 N   0  0  0  0  0  0  0  0  0  0  0  0
   59.8410   34.6490   46.8060 C   0  0  0  0  0  0  0  0  0  0  0  0
   59.6690   35.8960   46.7210 O   0  0  0  0  0  0  0  0  0  0  0  0
   61.1400   34.1240   47.2900 C   0  0  0  0  0  0  0  0  0  0  0  0
   62.1690   33.8400   46.3740 C   0  0  0  0  0  0  0  0  0  0  0  0
   63.4030   33.3570   46.8220 C   0  0  0  0  0  0  0  0  0  0  0  0
   63.6240   33.1610   48.1860 C   0  0  0  0  0  0  0  0  0  0  0  0
   62.6140   33.4500   49.1070 C   0  0  0  0  0  0  0  0  0  0  0  0
   61.3770   33.9340   48.6660 C   0  0  0  0  0  0  0  0  0  0  0  0
   60.4090   34.1920   49.5810 F   0  0  0  0  0  0  0  0  0  0  0  0
   57.9490   34.1380   45.2440 C   0  0  0  0  0  0  0  0  0  0  0  0
   57.0170   32.9920   44.8250 C   0  0  0  0  0  0  0  0  0  0  0  0
   56.0910   27.2610   45.6380 N   0  0  0  0  0  0  0  0  0  0  0  0
   55.4149   24.7140   47.1485 H   0  0  0  0  0  0  0  0  0  0  0  0
   54.6038   25.1513   45.6066 H   0  0  0  0  0  0  0  0  0  0  0  0
   55.9543   23.9669   45.6066 H   0  0  0  0  0  0  0  0  0  0  0  0
   58.2921   24.7333   46.1122 H   0  0  0  0  0  0  0  0  0  0  0  0
   59.8922   26.6183   45.7404 H   0  0  0  0  0  0  0  0  0  0  0  0
   59.0229   28.9213   45.3031 H   0  0  0  0  0  0  0  0  0  0  0  0
   58.6782   31.7342   44.3237 H   0  0  0  0  0  0  0  0  0  0  0  0
   57.3782   30.7534   46.8602 H   0  0  0  0  0  0  0  0  0  0  0  0
   59.1311   30.8080   46.3535 H   0  0  0  0  0  0  0  0  0  0  0  0
   57.4674   32.8665   47.7635 H   0  0  0  0  0  0  0  0  0  0  0  0
   59.2140   32.4221   47.9448 H   0  0  0  0  0  0  0  0  0  0  0  0
   62.0022   33.9988   45.2984 H   0  0  0  0  0  0  0  0  0  0  0  0
   64.2001   33.1314   46.0983 H   0  0  0  0  0  0  0  0  0  0  0  0
   64.5942   32.7787   48.5362 H   0  0  0  0  0  0  0  0  0  0  0  0
   62.7915   33.2967   50.1817 H   0  0  0  0  0  0  0  0  0  0  0  0
   57.3395   35.0119   45.5175 H   0  0  0  0  0  0  0  0  0  0  0  0
   58.6110   34.3703   44.3968 H   0  0  0  0  0  0  0  0  0  0  0  0
   56.1394   32.9741   45.4879 H   0  0  0  0  0  0  0  0  0  0  0  0
   56.6931   33.1488   43.7855 H   0  0  0  0  0  0  0  0  0  0  0  0
  1  2  1  0
  2  3  2  0
  3  4  1  0
  4  5  2  0
  5  6  1  0
  6  7  2  3
  7  8  1  0
  8  9  2  0
  8 10  1  0
 10 11  1  0
 11 12  1  0
 12 13  1  0
 13 14  1  0
 14 15  2  0
 14 16  1  0
 16 17  2  0
 17 18  1  0
 18 19  2  0
 19 20  1  0
 20 21  2  0
 21 22  1  0
 13 23  1  0
 23 24  1  0
  6 25  1  0
 25  2  1  0
 24 10  1  0
 21 16  1  0
  1 26  1  0
  1 27  1  0
  1 28  1  0
  3 29  1  0
  4 30  1  0
  5 31  1  0
 10 32  1  0
 11 33  1  0
 11 34  1  0
 12 35  1  0
 12 36  1  0
 17 37  1  0
 18 38  1  0
 19 39  1  0
 20 40  1  0
 23 41  1  0
 23 42  1  0
 24 43  1  0
 24 44  1  0
M  CHG  1  25  -1
M  END
>  <UniqueID>  (12) 
12

>  <SMILES>  (12) 
Cc1cccc(=NC(=O)C2CCN(C(=O)c3ccccc3F)CC2)[n-]1

>  <Energy>  (12) 
61.209035237796655

>  <Genealogy>  (12) 
Cc1cccc(=NC(=O)C2CCN(C(=O)c3ccccc3F)CC2)[n-]1 (protonated)
Cc1cccc(=NC(=O)C2CCN(C(=O)c3ccccc3F)CC2)[n-]1 (3D coordinates assigned)
Cc1cccc(=NC(=O)C2CCN(C(=O)c3ccccc3F)CC2)[n-]1 (nonaromatic ring conformer: 61.209035237796655 kcal/mol)

>  <smiles>  (12) 
Cc1cccc(=NC(=O)C2CCN(C(=O)c3ccccc3F)CC2)[nH]1

>  <score_type>  (12) 
oracle

>  <origin>  (12) 
adg

>  <m_score__min__energy>  (12) 
-10.67

>  <m_primary>  (12) 
energy

$$$$
12:0
     RDKit          3D

 50 53  0  0  0  0  0  0  0  0999 V2000
   56.0370   29.7320   43.1390 O   0  0  0  0  0  0  0  0  0  0  0  0
   56.3760   29.7350   44.3520 C   0  0  0  0  0  0  0  0  0  0  0  0
   55.9330   28.6590   45.1920 N   0  0  0  0  0  0  0  0  0  0  0  0
   56.7810   27.7130   45.8580 C   0  0  0  0  0  0  0  0  0  0  0  0
   56.5980   26.3480   45.6180 C   0  0  0  0  0  0  0  0  0  0  0  0
   57.4070   25.4050   46.2570 C   0  0  0  0  0  0  0  0  0  0  0  0
   58.4050   25.8210   47.1420 C   0  0  0  0  0  0  0  0  0  0  0  0
   58.6060   27.1860   47.3940 C   0  0  0  0  0  0  0  0  0  0  0  0
   59.6410   27.5930   48.3080 N   0  0  0  0  0  0  0  0  0  0  0  0
   59.6210   28.8360   49.0340 C   0  0  0  0  0  0  0  0  0  0  0  0
   58.5590   29.5150   49.0880 O   0  0  0  0  0  0  0  0  0  0  0  0
   60.8170   29.3100   49.7700 C   0  0  0  0  0  0  0  0  0  0  0  0
   61.4730   30.4990   49.4000 C   0  0  0  0  0  0  0  0  0  0  0  0
   62.5980   30.9360   50.1080 C   0  0  0  0  0  0  0  0  0  0  0  0
   63.0770   30.1960   51.1910 C   0  0  0  0  0  0  0  0  0  0  0  0
   62.4290   29.0200   51.5730 C   0  0  0  0  0  0  0  0  0  0  0  0
   61.3030   28.5780   50.8700 C   0  0  0  0  0  0  0  0  0  0  0  0
   57.8160   28.1310   46.7140 C   0  0  0  0  0  0  0  0  0  0  0  0
   57.1770   30.8650   44.8800 C   0  0  0  0  0  0  0  0  0  0  0  0
   58.4600   30.6510   45.4140 C   0  0  0  0  0  0  0  0  0  0  0  0
   59.2120   31.7220   45.9010 C   0  0  0  0  0  0  0  0  0  0  0  0
   58.6960   33.0290   45.8570 C   0  0  0  0  0  0  0  0  0  0  0  0
   59.4110   34.1310   46.3530 O   0  0  0  0  0  0  0  0  0  0  0  0
   60.6100   34.0730   47.0790 C   0  0  0  0  0  0  0  0  0  0  0  0
   61.8010   33.8210   46.3880 C   0  0  0  0  0  0  0  0  0  0  0  0
   63.0160   33.7330   47.0770 C   0  0  0  0  0  0  0  0  0  0  0  0
   63.0450   33.8860   48.4650 C   0  0  0  0  0  0  0  0  0  0  0  0
   61.8590   34.1190   49.1670 C   0  0  0  0  0  0  0  0  0  0  0  0
   60.6450   34.2080   48.4800 C   0  0  0  0  0  0  0  0  0  0  0  0
   57.4070   33.2390   45.3560 C   0  0  0  0  0  0  0  0  0  0  0  0
   56.6520   32.1670   44.8720 C   0  0  0  0  0  0  0  0  0  0  0  0
   55.8134   26.0148   44.9228 H   0  0  0  0  0  0  0  0  0  0  0  0
   57.2579   24.3326   46.0629 H   0  0  0  0  0  0  0  0  0  0  0  0
   59.0368   25.0735   47.6441 H   0  0  0  0  0  0  0  0  0  0  0  0
   60.3610   26.8840   48.5690 H   0  0  0  0  0  0  0  0  0  0  0  0
   61.0992   31.0880   48.5495 H   0  0  0  0  0  0  0  0  0  0  0  0
   63.1065   31.8650   49.8107 H   0  0  0  0  0  0  0  0  0  0  0  0
   63.9644   30.5395   51.7428 H   0  0  0  0  0  0  0  0  0  0  0  0
   62.8045   28.4396   52.4286 H   0  0  0  0  0  0  0  0  0  0  0  0
   60.7943   27.6528   51.1787 H   0  0  0  0  0  0  0  0  0  0  0  0
   58.0092   29.2050   46.8528 H   0  0  0  0  0  0  0  0  0  0  0  0
   58.8743   29.6326   45.4484 H   0  0  0  0  0  0  0  0  0  0  0  0
   60.2127   31.5423   46.3210 H   0  0  0  0  0  0  0  0  0  0  0  0
   61.7818   33.6912   45.2959 H   0  0  0  0  0  0  0  0  0  0  0  0
   63.9485   33.5433   46.5252 H   0  0  0  0  0  0  0  0  0  0  0  0
   64.0010   33.8231   49.0055 H   0  0  0  0  0  0  0  0  0  0  0  0
   61.8811   34.2324   50.2609 H   0  0  0  0  0  0  0  0  0  0  0  0
   59.7127   34.3843   49.0365 H   0  0  0  0  0  0  0  0  0  0  0  0
   56.9847   34.2546   45.3428 H   0  0  0  0  0  0  0  0  0  0  0  0
   55.6390   32.3448   44.4819 H   0  0  0  0  0  0  0  0  0  0  0  0
  1  2  2  0
  2  3  1  0
  3  4  1  0
  4  5  2  0
  5  6  1  0
  6  7  2  0
  7  8  1  0
  8  9  1  0
  9 10  1  0
 10 11  2  0
 10 12  1  0
 12 13  2  0
 13 14  1  0
 14 15  2  0
 15 16  1  0
 16 17  2  0
  8 18  2  0
  2 19  1  0
 19 20  2  0
 20 21  1  0
 21 22  2  0
 22 23  1  0
 23 24  1  0
 24 25  2  0
 25 26  1  0
 26 27  2  0
 27 28  1  0
 28 29  2  0
 22 30  1  0
 30 31  2  0
 18  4  1  0
 31 19  1  0
 17 12  1  0
 29 24  1  0
  5 32  1  0
  6 33  1  0
  7 34  1  0
  9 35  1  0
 13 36  1  0
 14 37  1  0
 15 38  1  0
 16 39  1  0
 17 40  1  0
 18 41  1  0
 20 42  1  0
 21 43  1  0
 25 44  1  0
 26 45  1  0
 27 46  1  0
 28 47  1  0
 29 48  1  0
 30 49  1  0
 31 50  1  0
M  CHG  1   3  -1
M  END
>  <UniqueID>  (13) 
13

>  <SMILES>  (13) 
O=C([N-]c1cccc(NC(=O)c2ccccc2)c1)c1ccc(Oc2ccccc2)cc1

>  <Energy>  (13) 
71.60299754347845

>  <Genealogy>  (13) 
O=C([N-]c1cccc(NC(=O)c2ccccc2)c1)c1ccc(Oc2ccccc2)cc1 (protonated)
O=C([N-]c1cccc(NC(=O)c2ccccc2)c1)c1ccc(Oc2ccccc2)cc1 (3D coordinates assigned)
O=C([N-]c1cccc(NC(=O)c2ccccc2)c1)c1ccc(Oc2ccccc2)cc1 (optimized conformer: 71.60299754347845 kcal/mol)

>  <smiles>  (13) 
O=C(Nc1cccc(NC(=O)c2ccc(Oc3ccccc3)cc2)c1)c1ccccc1

>  <score_type>  (13) 
oracle

>  <origin>  (13) 
adg

>  <m_score__min__energy>  (13) 
-10.82

>  <m_primary>  (13) 
energy

$$$$
13:0
     RDKit          3D

 57 59  0  0  0  0  0  0  0  0999 V2000
   55.9030   24.1210   46.8980 C   0  0  0  0  0  0  0  0  0  0  0  0
   55.9090   25.5320   46.7020 O   0  0  0  0  0  0  0  0  0  0  0  0
   57.0270   26.2690   46.2800 C   0  0  0  0  0  0  0  0  0  0  0  0
   58.3340   25.9840   46.7240 C   0  0  0  0  0  0  0  0  0  0  0  0
   59.4150   26.7420   46.2620 C   0  0  0  0  0  0  0  0  0  0  0  0
   59.2060   27.7870   45.3580 C   0  0  0  0  0  0  0  0  0  0  0  0
   57.9070   28.0930   44.9190 C   0  0  0  0  0  0  0  0  0  0  0  0
   57.6860   29.1880   43.9050 C   0  0  0  0  0  0  0  0  0  0  0  0
   57.0200   30.3960   44.5180 C   0  0  0  0  0  0  0  0  0  0  0  0
   55.7590   30.4860   44.4980 O   0  0  0  0  0  0  0  0  0  0  0  0
   57.7970   31.4180   45.1810 N   0  0  0  0  0  0  0  0  0  0  0  0
   57.1530   32.6780   45.5730 C   0  0  0  0  0  0  0  0  0  0  0  0
   58.1340   33.8690   45.4960 C   0  0  0  0  0  0  0  0  0  0  0  0
   59.5560   33.5120   45.7500 N   0  0  0  0  0  0  0  0  0  0  0  0
   60.2880   34.6140   46.4100 C   0  0  0  0  0  0  0  0  0  0  0  0
   60.6550   34.2380   47.8250 C   0  0  0  0  0  0  0  0  0  0  0  0
   61.9890   33.9550   48.1490 C   0  0  0  0  0  0  0  0  0  0  0  0
   62.3510   33.6300   49.4700 C   0  0  0  0  0  0  0  0  0  0  0  0
   63.6700   33.3140   49.8290 O   0  0  0  0  0  0  0  0  0  0  0  0
   64.4870   32.3650   49.1480 C   0  0  0  0  0  0  0  0  0  0  0  0
   61.3680   33.6140   50.4710 C   0  0  0  0  0  0  0  0  0  0  0  0
   61.7460   33.3020   51.7800 O   0  0  0  0  0  0  0  0  0  0  0  0
   60.0260   33.9070   50.1580 C   0  0  0  0  0  0  0  0  0  0  0  0
   59.0720   33.8860   51.1890 O   0  0  0  0  0  0  0  0  0  0  0  0
   58.6270   32.7120   51.8580 C   0  0  0  0  0  0  0  0  0  0  0  0
   59.6790   34.2130   48.8310 C   0  0  0  0  0  0  0  0  0  0  0  0
   59.6980   32.2650   46.5180 C   0  0  0  0  0  0  0  0  0  0  0  0
   59.1370   31.1030   45.6970 C   0  0  0  0  0  0  0  0  0  0  0  0
   56.8240   27.3240   45.3790 C   0  0  0  0  0  0  0  0  0  0  0  0
   55.9021   23.9005   47.9757 H   0  0  0  0  0  0  0  0  0  0  0  0
   55.0030   23.6903   46.4348 H   0  0  0  0  0  0  0  0  0  0  0  0
   56.7993   23.6827   46.4348 H   0  0  0  0  0  0  0  0  0  0  0  0
   58.5044   25.1630   47.4360 H   0  0  0  0  0  0  0  0  0  0  0  0
   60.4330   26.5148   46.6114 H   0  0  0  0  0  0  0  0  0  0  0  0
   60.0614   28.3719   44.9889 H   0  0  0  0  0  0  0  0  0  0  0  0
   58.6589   29.4904   43.4902 H   0  0  0  0  0  0  0  0  0  0  0  0
   57.0244   28.7961   43.1184 H   0  0  0  0  0  0  0  0  0  0  0  0
   56.3054   32.8701   44.8987 H   0  0  0  0  0  0  0  0  0  0  0  0
   56.8135   32.5801   46.6147 H   0  0  0  0  0  0  0  0  0  0  0  0
   58.0640   34.3078   44.4897 H   0  0  0  0  0  0  0  0  0  0  0  0
   57.8396   34.5698   46.2911 H   0  0  0  0  0  0  0  0  0  0  0  0
   61.2063   34.8279   45.8434 H   0  0  0  0  0  0  0  0  0  0  0  0
   59.6405   35.5028   46.4367 H   0  0  0  0  0  0  0  0  0  0  0  0
   62.7594   33.9871   47.3645 H   0  0  0  0  0  0  0  0  0  0  0  0
   65.0204   31.7454   49.8839 H   0  0  0  0  0  0  0  0  0  0  0  0
   63.8549   31.7227   48.5173 H   0  0  0  0  0  0  0  0  0  0  0  0
   65.2162   32.8946   48.5173 H   0  0  0  0  0  0  0  0  0  0  0  0
   62.7040   33.0840   52.0230 H   0  0  0  0  0  0  0  0  0  0  0  0
   58.6852   32.8655   52.9457 H   0  0  0  0  0  0  0  0  0  0  0  0
   57.5860   32.4997   51.5728 H   0  0  0  0  0  0  0  0  0  0  0  0
   59.2657   31.8631   51.5728 H   0  0  0  0  0  0  0  0  0  0  0  0
   58.6315   34.4350   48.5793 H   0  0  0  0  0  0  0  0  0  0  0  0
   60.7616   32.0841   46.7328 H   0  0  0  0  0  0  0  0  0  0  0  0
   59.1455   32.3492   47.4654 H   0  0  0  0  0  0  0  0  0  0  0  0
   59.8102   30.9033   44.8503 H   0  0  0  0  0  0  0  0  0  0  0  0
   59.0619   30.2195   46.3479 H   0  0  0  0  0  0  0  0  0  0  0  0
   55.8066   27.5522   45.0285 H   0  0  0  0  0  0  0  0  0  0  0  0
  1  2  1  0
  2  3  1  0
  3  4  2  0
  4  5  1  0
  5  6  2  0
  6  7  1  0
  7  8  1  0
  8  9  1  0
  9 10  2  0
  9 11  1  0
 11 12  1  0
 12 13  1  0
 13 14  1  0
 14 15  1  0
 15 16  1  0
 16 17  2  0
 17 18  1  0
 18 19  1  0
 19 20  1  0
 18 21  2  0
 21 22  1  0
 21 23  1  0
 23 24  1  0
 24 25  1  0
 23 26  2  0
 14 27  1  0
 27 28  1  0
  7 29  2  0
 29  3  1  0
 28 11  1  0
 26 16  1  0
  1 30  1  0
  1 31  1  0
  1 32  1  0
  4 33  1  0
  5 34  1  0
  6 35  1  0
  8 36  1  0
  8 37  1  0
 12 38  1  0
 12 39  1  0
 13 40  1  0
 13 41  1  0
 15 42  1  0
 15 43  1  0
 17 44  1  0
 20 45  1  0
 20 46  1  0
 20 47  1  0
 22 48  1  0
 25 49  1  0
 25 50  1  0
 25 51  1  0
 26 52  1  0
 27 53  1  0
 27 54  1  0
 28 55  1  0
 28 56  1  0
 29 57  1  0
M  END
>  <UniqueID>  (14) 
14

>  <SMILES>  (14) 
COc1cccc(CC(=O)N2CCN(Cc3cc(OC)c(O)c(OC)c3)CC2)c1

>  <Energy>  (14) 
62.66134161993374

>  <Genealogy>  (14) 
COc1cccc(CC(=O)N2CCN(Cc3cc(OC)c(O)c(OC)c3)CC2)c1 (3D coordinates assigned)
COc1cccc(CC(=O)N2CCN(Cc3cc(OC)c(O)c(OC)c3)CC2)c1 (nonaromatic ring conformer: 62.66134161993374 kcal/mol)

>  <smiles>  (14) 
COc1cccc(CC(=O)N2CCN(Cc3cc(OC)c(O)c(OC)c3)CC2)c1

>  <score_type>  (14) 
oracle

>  <origin>  (14) 
adg

>  <m_score__min__energy>  (14) 
-8.3499999999999996

>  <m_primary>  (14) 
energy

$$$$
14:0
     RDKit          3D

 70 73  0  0  0  0  0  0  0  0999 V2000
   62.5450   31.4300   47.6700 C   0  0  0  0  0  0  0  0  0  0  0  0
   62.4730   32.8730   47.1200 C   0  0  0  0  0  0  0  0  0  0  0  0
   62.6620   33.8320   48.3150 C   0  0  0  0  0  0  0  0  0  0  0  0
   61.1890   33.1800   46.4200 N   0  0  0  0  0  0  0  0  0  0  0  0
   60.1300   32.1700   46.7240 C   0  0  0  0  0  0  0  0  0  0  0  0
   58.9970   32.7170   47.6090 C   0  0  0  0  0  0  0  0  0  0  0  0
   58.3000   33.9360   46.9600 C   0  0  0  0  0  0  0  0  0  0  0  0
   57.0580   33.4950   46.1530 C   0  0  0  0  0  0  0  0  0  0  0  0
   57.2860   33.5680   44.7080 N   0  0  0  0  0  0  0  0  0  0  0  0
   57.7890   32.5320   43.8540 C   0  0  0  0  0  0  0  0  0  0  0  0
   58.3430   32.8650   42.7730 O   0  0  0  0  0  0  0  0  0  0  0  0
   57.6850   31.0960   44.1860 C   0  0  0  0  0  0  0  0  0  0  0  0
   56.4180   30.5020   44.3030 C   0  0  0  0  0  0  0  0  0  0  0  0
   56.2980   29.1310   44.5530 C   0  0  0  0  0  0  0  0  0  0  0  0
   57.4450   28.3340   44.6820 C   0  0  0  0  0  0  0  0  0  0  0  0
   57.3580   26.9210   44.8890 N   0  0  0  0  0  0  0  0  0  0  0  0
   57.6090   26.1510   46.4240 S   0  0  0  0  0  0  0  0  0  0  0  0
   56.2720   25.9890   47.0920 O   0  0  0  0  0  0  0  0  0  0  0  0
   58.2230   24.7890   46.2550 O   0  0  0  0  0  0  0  0  0  0  0  0
   58.6570   27.1610   47.4200 C   0  0  0  0  0  0  0  0  0  0  0  0
   58.2940   28.4840   47.6950 C   0  0  0  0  0  0  0  0  0  0  0  0
   59.1030   29.2860   48.5030 C   0  0  0  0  0  0  0  0  0  0  0  0
   60.2920   28.7830   49.0430 C   0  0  0  0  0  0  0  0  0  0  0  0
   61.0790   29.6520   49.8730 N   0  0  0  0  0  0  0  0  0  0  0  0
   60.5630   31.0410   50.7780 S   0  0  0  0  0  0  0  0  0  0  0  0
   61.5000   31.2090   51.9380 O   0  0  0  0  0  0  0  0  0  0  0  0
   60.6390   32.2930   49.9520 O   0  0  0  0  0  0  0  0  0  0  0  0
   58.9250   30.7860   51.3950 C   0  0  0  0  0  0  0  0  0  0  0  0
   57.9420   31.7640   51.1690 C   0  0  0  0  0  0  0  0  0  0  0  0
   56.6420   31.5800   51.6500 C   0  0  0  0  0  0  0  0  0  0  0  0
   56.3140   30.4250   52.3670 C   0  0  0  0  0  0  0  0  0  0  0  0
   57.2880   29.4480   52.6010 C   0  0  0  0  0  0  0  0  0  0  0  0
   58.5890   29.6230   52.1180 C   0  0  0  0  0  0  0  0  0  0  0  0
   59.5060   28.6520   52.3400 F   0  0  0  0  0  0  0  0  0  0  0  0
   60.6620   27.4560   48.7570 C   0  0  0  0  0  0  0  0  0  0  0  0
   59.8500   26.6530   47.9500 C   0  0  0  0  0  0  0  0  0  0  0  0
   58.7070   28.9280   44.5830 C   0  0  0  0  0  0  0  0  0  0  0  0
   58.8290   30.2930   44.3110 C   0  0  0  0  0  0  0  0  0  0  0  0
   59.2830   34.7520   46.0880 C   0  0  0  0  0  0  0  0  0  0  0  0
   60.7230   34.5810   46.5840 C   0  0  0  0  0  0  0  0  0  0  0  0
   62.5437   31.4563   48.7697 H   0  0  0  0  0  0  0  0  0  0  0  0
   61.6742   30.8587   47.3158 H   0  0  0  0  0  0  0  0  0  0  0  0
   63.4683   30.9483   47.3158 H   0  0  0  0  0  0  0  0  0  0  0  0
   63.2624   32.9951   46.3637 H   0  0  0  0  0  0  0  0  0  0  0  0
   62.5517   33.2722   49.2554 H   0  0  0  0  0  0  0  0  0  0  0  0
   63.6657   34.2799   48.2705 H   0  0  0  0  0  0  0  0  0  0  0  0
   61.9033   34.6272   48.2705 H   0  0  0  0  0  0  0  0  0  0  0  0
   59.6947   31.8253   45.7744 H   0  0  0  0  0  0  0  0  0  0  0  0
   60.6117   31.3539   47.2825 H   0  0  0  0  0  0  0  0  0  0  0  0
   58.2524   31.9227   47.7659 H   0  0  0  0  0  0  0  0  0  0  0  0
   59.4352   33.0417   48.5643 H   0  0  0  0  0  0  0  0  0  0  0  0
   57.9573   34.5983   47.7686 H   0  0  0  0  0  0  0  0  0  0  0  0
   56.8108   32.4572   46.4212 H   0  0  0  0  0  0  0  0  0  0  0  0
   56.2325   34.1785   46.4009 H   0  0  0  0  0  0  0  0  0  0  0  0
   55.5136   31.1191   44.1973 H   0  0  0  0  0  0  0  0  0  0  0  0
   55.3009   28.6764   44.6487 H   0  0  0  0  0  0  0  0  0  0  0  0
   57.3655   28.8951   47.2721 H   0  0  0  0  0  0  0  0  0  0  0  0
   58.8029   30.3224   48.7169 H   0  0  0  0  0  0  0  0  0  0  0  0
   58.1959   32.6777   50.6117 H   0  0  0  0  0  0  0  0  0  0  0  0
   55.8749   32.3461   51.4638 H   0  0  0  0  0  0  0  0  0  0  0  0
   55.2912   30.2847   52.7467 H   0  0  0  0  0  0  0  0  0  0  0  0
   57.0300   28.5402   53.1661 H   0  0  0  0  0  0  0  0  0  0  0  0
   61.5958   27.0477   49.1708 H   0  0  0  0  0  0  0  0  0  0  0  0
   60.1495   25.6176   47.7304 H   0  0  0  0  0  0  0  0  0  0  0  0
   59.6106   28.3159   44.7203 H   0  0  0  0  0  0  0  0  0  0  0  0
   59.8270   30.7406   44.1942 H   0  0  0  0  0  0  0  0  0  0  0  0
   59.2165   34.4029   45.0470 H   0  0  0  0  0  0  0  0  0  0  0  0
   59.0120   35.8161   46.1536 H   0  0  0  0  0  0  0  0  0  0  0  0
   61.3817   35.2473   46.0076 H   0  0  0  0  0  0  0  0  0  0  0  0
   60.7532   34.8333   47.6542 H   0  0  0  0  0  0  0  0  0  0  0  0
  1  2  1  0
  2  3  1  0
  2  4  1  0
  4  5  1  0
  5  6  1  0
  6  7  1  0
  7  8  1  0
  8  9  1  0
  9 10  1  0
 10 11  2  0
 10 12  1  0
 12 13  2  0
 13 14  1  0
 14 15  2  0
 15 16  1  0
 16 17  1  0
 17 18  2  0
 17 19  2  0
 17 20  1  0
 20 21  2  0
 21 22  1  0
 22 23  2  0
 23 24  1  0
 24 25  1  0
 25 26  2  0
 25 27  2  0
 25 28  1  0
 28 29  2  0
 29 30  1  0
 30 31  2  0
 31 32  1  0
 32 33  2  0
 33 34  1  0
 23 35  1  0
 35 36  2  0
 15 37  1  0
 37 38  2  0
  7 39  1  0
 39 40  1  0
 40  4  1  0
 38 12  1  0
 36 20  1  0
 33 28  1  0
  1 41  1  0
  1 42  1  0
  1 43  1  0
  2 44  1  0
  3 45  1  0
  3 46  1  0
  3 47  1  0
  5 48  1  0
  5 49  1  0
  6 50  1  0
  6 51  1  0
  7 52  1  0
  8 53  1  0
  8 54  1  0
 13 55  1  0
 14 56  1  0
 21 57  1  0
 22 58  1  0
 29 59  1  0
 30 60  1  0
 31 61  1  0
 32 62  1  0
 35 63  1  0
 36 64  1  0
 37 65  1  0
 38 66  1  0
 39 67  1  0
 39 68  1  0
 40 69  1  0
 40 70  1  0
M  CHG  3   9  -1  16  -1  24  -1
M  END
>  <UniqueID>  (15) 
15

>  <SMILES>  (15) 
CC(C)N1CCC(C[N-]C(=O)c2ccc([N-]S(=O)(=O)c3ccc([N-]S(=O)(=O)c4ccccc4F)cc3)cc2)CC1

>  <Energy>  (15) 
101.76520245499304

>  <Genealogy>  (15) 
CC(C)N1CCC(C[N-]C(=O)c2ccc([N-]S(=O)(=O)c3ccc([N-]S(=O)(=O)c4ccccc4F)cc3)cc2)CC1 (protonated)
CC(C)N1CCC(C[N-]C(=O)c2ccc([N-]S(=O)(=O)c3ccc([N-]S(=O)(=O)c4ccccc4F)cc3)cc2)CC1 (3D coordinates assigned)
CC(C)N1CCC(C[N-]C(=O)c2ccc([N-]S(=O)(=O)c3ccc([N-]S(=O)(=O)c4ccccc4F)cc3)cc2)CC1 (nonaromatic ring conformer: 101.76520245499304 kcal/mol)

>  <smiles>  (15) 
CC(C)N1CCC(CNC(=O)c2ccc(NS(=O)(=O)c3ccc(NS(=O)(=O)c4ccccc4F)cc3)cc2)CC1

>  <score_type>  (15) 
oracle

>  <origin>  (15) 
adg

>  <m_score__min__energy>  (15) 
-13.57

>  <m_primary>  (15) 
energy

$$$$
15:0
     RDKit          3D

 44 46  0  0  0  0  0  0  0  0999 V2000
   54.7940   29.2310   42.6160 H   0  0  0  0  0  0  0  0  0  0  0  0
   54.7630   29.7180   43.5400 N   0  0  0  0  0  0  0  0  0  0  0  0
   55.7720   29.6950   44.3510 C   0  0  0  0  0  0  0  0  0  0  0  0
   56.6010   30.7680   44.4370 N   0  0  0  0  0  0  0  0  0  0  0  0
   57.6620   30.7450   45.2820 C   0  0  0  0  0  0  0  0  0  0  0  0
   58.5430   31.9490   45.4240 C   0  0  0  0  0  0  0  0  0  0  0  0
   59.5652   31.6901   45.1109 H   0  0  0  0  0  0  0  0  0  0  0  0
   58.1496   32.7580   44.7910 H   0  0  0  0  0  0  0  0  0  0  0  0
   58.5630   32.3890   46.7840 O   0  0  0  0  0  0  0  0  0  0  0  0
   59.6680   32.9560   47.4410 C   0  0  0  0  0  0  0  0  0  0  0  0
   60.9540   32.9960   46.8720 C   0  0  0  0  0  0  0  0  0  0  0  0
   61.1165   32.5978   45.8596 H   0  0  0  0  0  0  0  0  0  0  0  0
   62.0270   33.5390   47.5860 C   0  0  0  0  0  0  0  0  0  0  0  0
   63.0302   33.5586   47.1353 H   0  0  0  0  0  0  0  0  0  0  0  0
   61.8300   34.0600   48.8770 C   0  0  0  0  0  0  0  0  0  0  0  0
   62.8770   34.5980   49.6390 O   0  0  0  0  0  0  0  0  0  0  0  0
   63.6540   33.8550   50.5730 C   0  0  0  0  0  0  0  0  0  0  0  0
   63.3625   34.1338   51.5964 H   0  0  0  0  0  0  0  0  0  0  0  0
   63.4791   32.7795   50.4220 H   0  0  0  0  0  0  0  0  0  0  0  0
   64.7206   34.0778   50.4220 H   0  0  0  0  0  0  0  0  0  0  0  0
   60.5430   34.0460   49.4280 C   0  0  0  0  0  0  0  0  0  0  0  0
   60.3741   34.4666   50.4303 H   0  0  0  0  0  0  0  0  0  0  0  0
   59.4710   33.5020   48.7150 C   0  0  0  0  0  0  0  0  0  0  0  0
   58.4643   33.5029   49.1585 H   0  0  0  0  0  0  0  0  0  0  0  0
   57.8820   29.6510   46.0520 N   0  0  0  0  0  0  0  0  0  0  0  0
   57.0580   28.5730   45.9780 C   0  0  0  0  0  0  0  0  0  0  0  0
   57.2380   27.5430   46.7530 N   0  0  0  0  0  0  0  0  0  0  0  0
   57.5660   26.2120   46.3170 C   0  0  0  0  0  0  0  0  0  0  0  0
   58.9040   25.7850   46.2310 C   0  0  0  0  0  0  0  0  0  0  0  0
   59.7162   26.4699   46.5160 H   0  0  0  0  0  0  0  0  0  0  0  0
   59.2060   24.4970   45.7860 C   0  0  0  0  0  0  0  0  0  0  0  0
   60.2536   24.1660   45.7309 H   0  0  0  0  0  0  0  0  0  0  0  0
   58.1800   23.6290   45.4110 C   0  0  0  0  0  0  0  0  0  0  0  0
   58.4194   22.6115   45.0683 H   0  0  0  0  0  0  0  0  0  0  0  0
   56.8490   24.0500   45.4700 C   0  0  0  0  0  0  0  0  0  0  0  0
   56.0441   23.3647   45.1660 H   0  0  0  0  0  0  0  0  0  0  0  0
   56.5330   25.3480   45.9170 C   0  0  0  0  0  0  0  0  0  0  0  0
   55.2080   25.8090   45.9870 O   0  0  0  0  0  0  0  0  0  0  0  0
   54.0660   25.0380   45.6250 C   0  0  0  0  0  0  0  0  0  0  0  0
   53.5537   24.6921   46.5349 H   0  0  0  0  0  0  0  0  0  0  0  0
   53.3787   25.6577   45.0303 H   0  0  0  0  0  0  0  0  0  0  0  0
   54.3838   24.1689   45.0303 H   0  0  0  0  0  0  0  0  0  0  0  0
   55.9990   28.5990   45.1250 N   0  0  0  0  0  0  0  0  0  0  0  0
   55.3540   27.7770   45.0690 H   0  0  0  0  0  0  0  0  0  0  0  0
  1  2  1  0
  2  3  2  0
  3  4  1  0
  4  5  2  0
  5  6  1  0
  6  7  1  0
  6  8  1  0
  6  9  1  0
  9 10  1  0
 10 11  2  0
 11 12  1  0
 11 13  1  0
 13 14  1  0
 13 15  2  0
 15 16  1  0
 16 17  1  0
 17 18  1  0
 17 19  1  0
 17 20  1  0
 15 21  1  0
 21 22  1  0
 21 23  2  0
 23 24  1  0
  5 25  1  0
 25 26  1  0
 26 27  2  0
 27 28  1  0
 28 29  2  0
 29 30  1  0
 29 31  1  0
 31 32  1  0
 31 33  2  0
 33 34  1  0
 33 35  1  0
 35 36  1  0
 35 37  2  0
 37 38  1  0
 38 39  1  0
 39 40  1  0
 39 41  1  0
 39 42  1  0
 26 43  1  0
 43 44  1  0
 43  3  1  0
 23 10  1  0
 37 28  1  0
M  CHG  1  25  -1
M  END
>  <UniqueID>  (16) 
16

>  <SMILES>  (16) 
[H]/N=c1\nc(COc2ccc(OC)cc2)[n-]/c(=N\c2ccccc2OC)[nH]1

>  <Energy>  (16) 
48.72639921201813

>  <Genealogy>  (16) 
COc1ccc(OCc2nc(=N)[nH]c(=Nc3ccccc3OC)[n-]2)cc1 (protonated)
[H]/N=c1\nc(COc2ccc(OC)cc2)[n-]/c(=N\c2ccccc2OC)[nH]1 (cis-trans isomerization)
[H]/N=c1\nc(COc2ccc(OC)cc2)[n-]/c(=N\c2ccccc2OC)[nH]1 (3D coordinates assigned)
[H]/N=c1\nc(COc2ccc(OC)cc2)[n-]/c(=N\c2ccccc2OC)[nH]1 (optimized conformer: 48.72639921201813 kcal/mol)

>  <smiles>  (16) 
COc1ccc(OCc2nc(=N)[nH]c(=Nc3ccccc3OC)[nH]2)cc1

>  <score_type>  (16) 
oracle

>  <origin>  (16) 
adg

>  <m_score__min__energy>  (16) 
-8.6300000000000008

>  <m_primary>  (16) 
energy

$$$$
16:0
     RDKit          3D

 54 57  0  0  0  0  0  0  0  0999 V2000
   63.4240   32.9600   52.6400 O   0  0  0  0  0  0  0  0  0  0  0  0
   62.4180   32.5500   52.0030 C   0  0  0  0  0  0  0  0  0  0  0  0
   62.6260   31.7150   50.8550 N   0  0  0  0  0  0  0  0  0  0  0  0
   62.8800   32.1660   49.5170 C   0  0  0  0  0  0  0  0  0  0  0  0
   62.4930   31.3460   48.4500 C   0  0  0  0  0  0  0  0  0  0  0  0
   62.7290   31.7420   47.1310 C   0  0  0  0  0  0  0  0  0  0  0  0
   63.3380   32.9720   46.8680 C   0  0  0  0  0  0  0  0  0  0  0  0
   63.6990   33.8120   47.9230 C   0  0  0  0  0  0  0  0  0  0  0  0
   63.4590   33.4260   49.2500 C   0  0  0  0  0  0  0  0  0  0  0  0
   63.7690   34.2980   50.2920 O   0  0  0  0  0  0  0  0  0  0  0  0
   61.0640   33.0020   52.4070 C   0  0  0  0  0  0  0  0  0  0  0  0
   60.5950   32.6980   53.6990 C   0  0  0  0  0  0  0  0  0  0  0  0
   59.3130   33.0850   54.0970 C   0  0  0  0  0  0  0  0  0  0  0  0
   58.4830   33.7730   53.2130 C   0  0  0  0  0  0  0  0  0  0  0  0
   58.9310   34.0770   51.9270 C   0  0  0  0  0  0  0  0  0  0  0  0
   60.2150   33.6870   51.5060 C   0  0  0  0  0  0  0  0  0  0  0  0
   60.6880   34.0780   50.2060 N   0  0  0  0  0  0  0  0  0  0  0  0
   59.9590   33.8640   48.9840 C   0  0  0  0  0  0  0  0  0  0  0  0
   58.9230   32.9160   48.9050 C   0  0  0  0  0  0  0  0  0  0  0  0
   58.2540   32.7000   47.6960 C   0  0  0  0  0  0  0  0  0  0  0  0
   58.6160   33.4180   46.5500 C   0  0  0  0  0  0  0  0  0  0  0  0
   57.7760   33.1370   45.0220 S   0  0  0  0  0  0  0  0  0  0  0  0
   58.7660   33.2280   43.8940 O   0  0  0  0  0  0  0  0  0  0  0  0
   56.7440   34.2130   44.8210 O   0  0  0  0  0  0  0  0  0  0  0  0
   56.9980   31.5760   44.9830 N   0  0  0  0  0  0  0  0  0  0  0  0
   57.8560   30.5550   45.6050 C   0  0  0  0  0  0  0  0  0  0  0  0
   57.2570   29.1470   45.4040 C   0  0  0  0  0  0  0  0  0  0  0  0
   55.9500   29.2170   44.8650 O   0  0  0  0  0  0  0  0  0  0  0  0
   55.9950   29.8090   43.5780 C   0  0  0  0  0  0  0  0  0  0  0  0
   56.6770   31.1940   43.5990 C   0  0  0  0  0  0  0  0  0  0  0  0
   59.6590   34.3520   46.6210 C   0  0  0  0  0  0  0  0  0  0  0  0
   60.3280   34.5700   47.8290 C   0  0  0  0  0  0  0  0  0  0  0  0
   61.9999   30.3836   48.6515 H   0  0  0  0  0  0  0  0  0  0  0  0
   62.4352   31.0851   46.2990 H   0  0  0  0  0  0  0  0  0  0  0  0
   63.5329   33.2783   45.8296 H   0  0  0  0  0  0  0  0  0  0  0  0
   64.1741   34.7815   47.7126 H   0  0  0  0  0  0  0  0  0  0  0  0
   63.8150   33.9820   51.2550 H   0  0  0  0  0  0  0  0  0  0  0  0
   61.2427   32.1517   54.4004 H   0  0  0  0  0  0  0  0  0  0  0  0
   58.9576   32.8463   55.1103 H   0  0  0  0  0  0  0  0  0  0  0  0
   57.4742   34.0764   53.5296 H   0  0  0  0  0  0  0  0  0  0  0  0
   58.2742   34.6264   51.2365 H   0  0  0  0  0  0  0  0  0  0  0  0
   61.6100   34.5700   50.1500 H   0  0  0  0  0  0  0  0  0  0  0  0
   58.6375   32.3416   49.7986 H   0  0  0  0  0  0  0  0  0  0  0  0
   57.4395   31.9624   47.6453 H   0  0  0  0  0  0  0  0  0  0  0  0
   58.8543   30.5923   45.1446 H   0  0  0  0  0  0  0  0  0  0  0  0
   57.9266   30.7599   46.6834 H   0  0  0  0  0  0  0  0  0  0  0  0
   57.8992   28.5793   44.7145 H   0  0  0  0  0  0  0  0  0  0  0  0
   57.2028   28.6493   46.3835 H   0  0  0  0  0  0  0  0  0  0  0  0
   56.5570   29.1472   42.9027 H   0  0  0  0  0  0  0  0  0  0  0  0
   54.9599   29.9465   43.2321 H   0  0  0  0  0  0  0  0  0  0  0  0
   57.6040   31.1526   43.0082 H   0  0  0  0  0  0  0  0  0  0  0  0
   55.9929   31.9399   43.1680 H   0  0  0  0  0  0  0  0  0  0  0  0
   59.9521   34.9154   45.7229 H   0  0  0  0  0  0  0  0  0  0  0  0
   61.1495   35.3002   47.8743 H   0  0  0  0  0  0  0  0  0  0  0  0
  1  2  2  0
  2  3  1  0
  3  4  1  0
  4  5  2  0
  5  6  1  0
  6  7  2  0
  7  8  1  0
  8  9  2  0
  9 10  1  0
  2 11  1  0
 11 12  2  0
 12 13  1  0
 13 14  2  0
 14 15  1  0
 15 16  2  0
 16 17  1  0
 17 18  1  0
 18 19  2  0
 19 20  1  0
 20 21  2  0
 21 22  1  0
 22 23  2  0
 22 24  2  0
 22 25  1  0
 25 26  1  0
 26 27  1  0
 27 28  1  0
 28 29  1  0
 29 30  1  0
 21 31  1  0
 31 32  2  0
  9  4  1  0
 16 11  1  0
 32 18  1  0
 30 25  1  0
  5 33  1  0
  6 34  1  0
  7 35  1  0
  8 36  1  0
 10 37  1  0
 12 38  1  0
 13 39  1  0
 14 40  1  0
 15 41  1  0
 17 42  1  0
 19 43  1  0
 20 44  1  0
 26 45  1  0
 26 46  1  0
 27 47  1  0
 27 48  1  0
 29 49  1  0
 29 50  1  0
 30 51  1  0
 30 52  1  0
 31 53  1  0
 32 54  1  0
M  CHG  1   3  -1
M  END
>  <UniqueID>  (17) 
17

>  <SMILES>  (17) 
O=C([N-]c1ccccc1O)c1ccccc1Nc1ccc(S(=O)(=O)N2CCOCC2)cc1

>  <Energy>  (17) 
79.8074691728219

>  <Genealogy>  (17) 
O=C([N-]c1ccccc1O)c1ccccc1Nc1ccc(S(=O)(=O)N2CCOCC2)cc1 (protonated)
O=C([N-]c1ccccc1O)c1ccccc1Nc1ccc(S(=O)(=O)N2CCOCC2)cc1 (3D coordinates assigned)
O=C([N-]c1ccccc1O)c1ccccc1Nc1ccc(S(=O)(=O)N2CCOCC2)cc1 (nonaromatic ring conformer: 79.8074691728219 kcal/mol)

>  <smiles>  (17) 
O=C(Nc1ccccc1O)c1ccccc1Nc1ccc(S(=O)(=O)N2CCOCC2)cc1

>  <score_type>  (17) 
oracle

>  <origin>  (17) 
adg

>  <m_score__min__energy>  (17) 
-12.74

>  <m_primary>  (17) 
energy

$$$$
17:0
     RDKit          3D

 38 39  0  0  0  0  0  0  0  0999 V2000
   58.1370   27.0360   42.6960 C   0  0  0  0  0  0  0  0  0  0  0  0
   57.7440   27.4570   43.9980 O   0  0  0  0  0  0  0  0  0  0  0  0
   58.4370   28.3940   44.7830 C   0  0  0  0  0  0  0  0  0  0  0  0
   59.7770   28.1800   45.1600 C   0  0  0  0  0  0  0  0  0  0  0  0
   60.4620   29.1230   45.9230 C   0  0  0  0  0  0  0  0  0  0  0  0
   59.8330   30.3100   46.3220 C   0  0  0  0  0  0  0  0  0  0  0  0
   60.5470   31.3160   47.1470 C   0  0  0  0  0  0  0  0  0  0  0  0
   61.8020   31.3970   47.0560 O   0  0  0  0  0  0  0  0  0  0  0  0
   59.8300   32.2050   48.0940 C   0  0  0  0  0  0  0  0  0  0  0  0
   59.5780   31.7890   49.2590 O   0  0  0  0  0  0  0  0  0  0  0  0
   59.4410   33.5500   47.7150 N   0  0  0  0  0  0  0  0  0  0  0  0
   60.4910   34.1470   46.8490 C   0  0  0  0  0  0  0  0  0  0  0  0
   59.9480   35.3300   46.0390 C   0  0  0  0  0  0  0  0  0  0  0  0
   58.8260   34.8780   45.0870 C   0  0  0  0  0  0  0  0  0  0  0  0
   58.0970   33.6170   45.5810 C   0  0  0  0  0  0  0  0  0  0  0  0
   58.0750   33.5550   47.1160 C   0  0  0  0  0  0  0  0  0  0  0  0
   58.4910   30.5210   45.9660 C   0  0  0  0  0  0  0  0  0  0  0  0
   57.7810   29.5790   45.1980 C   0  0  0  0  0  0  0  0  0  0  0  0
   56.4040   29.8440   44.8520 N   0  0  0  0  0  0  0  0  0  0  0  0
   55.5370   28.9480   44.9080 O   0  0  0  0  0  0  0  0  0  0  0  0
   56.0110   31.1120   44.4870 O   0  0  0  0  0  0  0  0  0  0  0  0
   58.8854   26.2343   42.7802 H   0  0  0  0  0  0  0  0  0  0  0  0
   57.2581   26.6614   42.1509 H   0  0  0  0  0  0  0  0  0  0  0  0
   58.5712   27.8871   42.1509 H   0  0  0  0  0  0  0  0  0  0  0  0
   60.2887   27.2575   44.8483 H   0  0  0  0  0  0  0  0  0  0  0  0
   61.5057   28.9342   46.2148 H   0  0  0  0  0  0  0  0  0  0  0  0
   59.3940   34.1440   48.5760 H   0  0  0  0  0  0  0  0  0  0  0  0
   61.3192   34.4979   47.4822 H   0  0  0  0  0  0  0  0  0  0  0  0
   60.8354   33.3760   46.1440 H   0  0  0  0  0  0  0  0  0  0  0  0
   59.5497   36.0870   46.7307 H   0  0  0  0  0  0  0  0  0  0  0  0
   60.7687   35.7501   45.4390 H   0  0  0  0  0  0  0  0  0  0  0  0
   58.0938   35.6937   44.9944 H   0  0  0  0  0  0  0  0  0  0  0  0
   59.2903   34.6346   44.1199 H   0  0  0  0  0  0  0  0  0  0  0  0
   57.0625   33.6308   45.2074 H   0  0  0  0  0  0  0  0  0  0  0  0
   58.6332   32.7337   45.2038 H   0  0  0  0  0  0  0  0  0  0  0  0
   57.5284   34.4311   47.4951 H   0  0  0  0  0  0  0  0  0  0  0  0
   57.5851   32.6125   47.4019 H   0  0  0  0  0  0  0  0  0  0  0  0
   57.9846   31.4408   46.2939 H   0  0  0  0  0  0  0  0  0  0  0  0
  1  2  1  0
  2  3  1  0
  3  4  2  0
  4  5  1  0
  5  6  2  0
  6  7  1  0
  7  8  2  0
  7  9  1  0
  9 10  2  0
  9 11  1  0
 11 12  1  0
 12 13  1  0
 13 14  1  0
 14 15  1  0
 15 16  1  0
  6 17  1  0
 17 18  2  0
 18 19  1  0
 19 20  2  0
 19 21  1  0
 18  3  1  0
 16 11  1  0
  1 22  1  0
  1 23  1  0
  1 24  1  0
  4 25  1  0
  5 26  1  0
 11 27  1  0
 12 28  1  0
 12 29  1  0
 13 30  1  0
 13 31  1  0
 14 32  1  0
 14 33  1  0
 15 34  1  0
 15 35  1  0
 16 36  1  0
 16 37  1  0
 17 38  1  0
M  CHG  3  11   1  19   1  21  -1
M  END
>  <UniqueID>  (18) 
18

>  <SMILES>  (18) 
COc1ccc(C(=O)C(=O)[NH+]2CCCCC2)cc1[N+](=O)[O-]

>  <Energy>  (18) 
52.95553790189079

>  <Genealogy>  (18) 
COc1ccc(C(=O)C(=O)[NH+]2CCCCC2)cc1[N+](=O)[O-] (protonated)
COc1ccc(C(=O)C(=O)[NH+]2CCCCC2)cc1[N+](=O)[O-] (3D coordinates assigned)
COc1ccc(C(=O)C(=O)[NH+]2CCCCC2)cc1[N+](=O)[O-] (nonaromatic ring conformer: 52.95553790189079 kcal/mol)

>  <smiles>  (18) 
COc1ccc(C(=O)C(=O)N2CCCCC2)cc1[N+](=O)[O-]

>  <score_type>  (18) 
oracle

>  <origin>  (18) 
adg

>  <m_score__min__energy>  (18) 
-6.0499999999999998

>  <m_primary>  (18) 
energy

$$$$
18:0
     RDKit          3D

 50 52  0  0  0  0  0  0  0  0999 V2000
   62.2140   33.3410   49.5140 C   0  0  0  0  0  0  0  0  0  0  0  0
   62.1130   32.0190   48.7460 C   0  0  0  0  0  0  0  0  0  0  0  0
   63.1510   31.9730   47.6260 C   0  0  0  0  0  0  0  0  0  0  0  0
   62.3400   30.9190   49.6270 O   0  0  0  0  0  0  0  0  0  0  0  0
   61.3650   30.4010   50.4890 C   0  0  0  0  0  0  0  0  0  0  0  0
   61.1570   29.1590   50.5460 O   0  0  0  0  0  0  0  0  0  0  0  0
   60.6330   31.2690   51.3580 N   0  0  0  0  0  0  0  0  0  0  0  0
   59.2770   31.0730   51.7900 C   0  0  0  0  0  0  0  0  0  0  0  0
   58.9820   30.4620   53.0210 C   0  0  0  0  0  0  0  0  0  0  0  0
   57.6560   30.2940   53.4270 C   0  0  0  0  0  0  0  0  0  0  0  0
   56.6050   30.7330   52.6170 C   0  0  0  0  0  0  0  0  0  0  0  0
   55.2550   30.5490   53.0690 N   0  0  0  0  0  0  0  0  0  0  0  0
   54.2330   29.7940   52.4040 C   0  0  0  0  0  0  0  0  0  0  0  0
   54.2710   28.5370   52.4750 O   0  0  0  0  0  0  0  0  0  0  0  0
   53.1690   30.4440   51.6010 C   0  0  0  0  0  0  0  0  0  0  0  0
   52.5850   31.6420   52.0440 C   0  0  0  0  0  0  0  0  0  0  0  0
   51.5880   32.2650   51.2870 C   0  0  0  0  0  0  0  0  0  0  0  0
   51.0280   33.4570   51.7330 O   0  0  0  0  0  0  0  0  0  0  0  0
   51.1570   31.6930   50.0840 C   0  0  0  0  0  0  0  0  0  0  0  0
   50.1670   32.3220   49.3380 O   0  0  0  0  0  0  0  0  0  0  0  0
   51.7240   30.4870   49.6400 C   0  0  0  0  0  0  0  0  0  0  0  0
   51.3090   29.8920   48.4500 O   0  0  0  0  0  0  0  0  0  0  0  0
   52.7210   29.8660   50.4000 C   0  0  0  0  0  0  0  0  0  0  0  0
   56.8970   31.3920   51.4110 C   0  0  0  0  0  0  0  0  0  0  0  0
   58.2230   31.5670   50.9990 C   0  0  0  0  0  0  0  0  0  0  0  0
   58.5560   32.4020   49.4420 S   0  0  0  0  0  0  0  0  0  0  0  0
   58.8510   30.8600   48.5720 C   0  0  0  0  0  0  0  0  0  0  0  0
   58.5780   29.6550   49.1140 N   0  0  0  0  0  0  0  0  0  0  0  0
   58.9180   28.7760   48.1480 C   0  0  0  0  0  0  0  0  0  0  0  0
   59.3780   29.4570   47.0430 C   0  0  0  0  0  0  0  0  0  0  0  0
   59.3480   30.7700   47.3210 N   0  0  0  0  0  0  0  0  0  0  0  0
   59.6200   31.8530   46.3810 C   0  0  0  0  0  0  0  0  0  0  0  0
   62.1986   33.1390   50.5952 H   0  0  0  0  0  0  0  0  0  0  0  0
   63.1535   33.8481   49.2491 H   0  0  0  0  0  0  0  0  0  0  0  0
   61.3624   33.9849   49.2491 H   0  0  0  0  0  0  0  0  0  0  0  0
   61.1030   31.9497   48.3157 H   0  0  0  0  0  0  0  0  0  0  0  0
   64.1597   31.9283   48.0625 H   0  0  0  0  0  0  0  0  0  0  0  0
   62.9806   31.0815   47.0045 H   0  0  0  0  0  0  0  0  0  0  0  0
   63.0601   32.8761   47.0045 H   0  0  0  0  0  0  0  0  0  0  0  0
   59.8003   30.1140   53.6686 H   0  0  0  0  0  0  0  0  0  0  0  0
   57.4373   29.8125   54.3916 H   0  0  0  0  0  0  0  0  0  0  0  0
   52.9138   32.0928   52.9920 H   0  0  0  0  0  0  0  0  0  0  0  0
   50.5270   30.2490   47.9130 H   0  0  0  0  0  0  0  0  0  0  0  0
   53.1582   28.9174   50.0551 H   0  0  0  0  0  0  0  0  0  0  0  0
   56.0766   31.7736   50.7854 H   0  0  0  0  0  0  0  0  0  0  0  0
   58.8396   27.6819   48.2307 H   0  0  0  0  0  0  0  0  0  0  0  0
   59.7117   29.0042   46.0977 H   0  0  0  0  0  0  0  0  0  0  0  0
   59.8510   32.7728   46.9383 H   0  0  0  0  0  0  0  0  0  0  0  0
   60.4781   31.5824   45.7482 H   0  0  0  0  0  0  0  0  0  0  0  0
   58.7359   32.0200   45.7482 H   0  0  0  0  0  0  0  0  0  0  0  0
  1  2  1  0
  2  3  1  0
  2  4  1  0
  4  5  1  0
  5  6  2  0
  5  7  1  0
  7  8  1  0
  8  9  2  0
  9 10  1  0
 10 11  2  0
 11 12  1  0
 12 13  1  0
 13 14  2  0
 13 15  1  0
 15 16  2  0
 16 17  1  0
 17 18  1  0
 17 19  2  0
 19 20  1  0
 19 21  1  0
 21 22  1  0
 21 23  2  0
 11 24  1  0
 24 25  2  0
 25 26  1  0
 26 27  1  0
 27 28  2  0
 28 29  1  0
 29 30  2  0
 30 31  1  0
 31 32  1  0
 25  8  1  0
 31 27  1  0
 23 15  1  0
  1 33  1  0
  1 34  1  0
  1 35  1  0
  2 36  1  0
  3 37  1  0
  3 38  1  0
  3 39  1  0
  9 40  1  0
 10 41  1  0
 16 42  1  0
 22 43  1  0
 23 44  1  0
 24 45  1  0
 29 46  1  0
 30 47  1  0
 32 48  1  0
 32 49  1  0
 32 50  1  0
M  CHG  4   7  -1  12  -1  18  -1  20  -1
M  END
>  <UniqueID>  (19) 
19

>  <SMILES>  (19) 
CC(C)OC(=O)[N-]c1ccc([N-]C(=O)c2cc([O-])c([O-])c(O)c2)cc1Sc1nccn1C

>  <Energy>  (19) 
80.23591192940147

>  <Genealogy>  (19) 
CC(C)OC(=O)[N-]c1ccc([N-]C(=O)c2cc([O-])c([O-])c(O)c2)cc1Sc1nccn1C (protonated)
CC(C)OC(=O)[N-]c1ccc([N-]C(=O)c2cc([O-])c([O-])c(O)c2)cc1Sc1nccn1C (3D coordinates assigned)
CC(C)OC(=O)[N-]c1ccc([N-]C(=O)c2cc([O-])c([O-])c(O)c2)cc1Sc1nccn1C (optimized conformer: 80.23591192940147 kcal/mol)

>  <smiles>  (19) 
CC(C)OC(=O)Nc1ccc(NC(=O)c2cc(O)c(O)c(O)c2)cc1Sc1nccn1C

>  <score_type>  (19) 
oracle

>  <origin>  (19) 
adg

>  <m_score__min__energy>  (19) 
-17.870000000000001

>  <m_primary>  (19) 
energy

$$$$
19:0
     RDKit          3D

 20 20  0  0  0  0  0  0  0  0999 V2000
   55.6280   23.6690   46.8840 O   0  0  0  0  0  0  0  0  0  0  0  0
   55.5220   24.8080   46.3590 C   0  0  0  0  0  0  0  0  0  0  0  0
   54.3450   25.1520   45.7060 O   0  0  0  0  0  0  0  0  0  0  0  0
   56.6300   25.7700   46.4320 C   0  0  0  0  0  0  0  0  0  0  0  0
   57.5220   25.6140   47.3120 O   0  0  0  0  0  0  0  0  0  0  0  0
   56.6900   26.8900   45.5330 N   0  0  0  0  0  0  0  0  0  0  0  0
   57.8240   27.7700   45.4540 C   0  0  0  0  0  0  0  0  0  0  0  0
   59.1110   27.2580   45.6940 C   0  0  0  0  0  0  0  0  0  0  0  0
   60.2380   28.0650   45.5380 C   0  0  0  0  0  0  0  0  0  0  0  0
   60.0970   29.3900   45.1290 C   0  0  0  0  0  0  0  0  0  0  0  0
   58.8280   29.9150   44.8830 C   0  0  0  0  0  0  0  0  0  0  0  0
   57.6760   29.1220   45.0470 C   0  0  0  0  0  0  0  0  0  0  0  0
   56.3480   29.7470   44.8270 C   0  0  0  0  0  0  0  0  0  0  0  0
   56.2430   30.9740   44.5640 O   0  0  0  0  0  0  0  0  0  0  0  0
   55.1960   28.9690   44.8690 O   0  0  0  0  0  0  0  0  0  0  0  0
   55.8690   27.0860   44.9180 H   0  0  0  0  0  0  0  0  0  0  0  0
   59.2305   26.2105   46.0079 H   0  0  0  0  0  0  0  0  0  0  0  0
   61.2391   27.6553   45.7380 H   0  0  0  0  0  0  0  0  0  0  0  0
   60.9876   30.0227   45.0000 H   0  0  0  0  0  0  0  0  0  0  0  0
   58.7262   30.9607   44.5571 H   0  0  0  0  0  0  0  0  0  0  0  0
  1  2  2  0
  2  3  1  0
  2  4  1  0
  4  5  2  0
  4  6  1  0
  6  7  1  0
  7  8  2  0
  8  9  1  0
  9 10  2  0
 10 11  1  0
 11 12  2  0
 12 13  1  0
 13 14  2  0
 13 15  1  0
 12  7  1  0
  6 16  1  0
  8 17  1  0
  9 18  1  0
 10 19  1  0
 11 20  1  0
M  CHG  2   3  -1  15  -1
M  END
>  <UniqueID>  (20) 
20

>  <SMILES>  (20) 
O=C([O-])C(=O)Nc1ccccc1C(=O)[O-]

>  <Energy>  (20) 
25.47234711584404

>  <Genealogy>  (20) 
O=C([O-])C(=O)Nc1ccccc1C(=O)[O-] (protonated)
O=C([O-])C(=O)Nc1ccccc1C(=O)[O-] (3D coordinates assigned)
O=C([O-])C(=O)Nc1ccccc1C(=O)[O-] (optimized conformer: 25.47234711584404 kcal/mol)

>  <smiles>  (20) 
O=C(O)C(=O)Nc1ccccc1C(=O)O

>  <score_type>  (20) 
oracle

>  <origin>  (20) 
adg

>  <m_score__min__energy>  (20) 
-9.9700000000000006

>  <m_primary>  (20) 
energy

$$$$
20:0
     RDKit          3D

 65 68  0  0  0  0  0  0  0  0999 V2000
   62.8510   32.3500   47.4150 C   0  0  0  0  0  0  0  0  0  0  0  0
   61.6410   31.4670   47.4470 C   0  0  0  0  0  0  0  0  0  0  0  0
   60.7350   31.6510   46.5890 O   0  0  0  0  0  0  0  0  0  0  0  0
   61.4820   30.4370   48.4440 N   0  0  0  0  0  0  0  0  0  0  0  0
   60.5860   29.3060   48.1540 C   0  0  0  0  0  0  0  0  0  0  0  0
   60.7980   28.1470   49.1350 C   0  0  0  0  0  0  0  0  0  0  0  0
   60.7840   28.6370   50.5160 N   0  0  0  0  0  0  0  0  0  0  0  0
   60.3810   27.7480   51.5740 C   0  0  0  0  0  0  0  0  0  0  0  0
   60.6790   26.5250   51.5010 O   0  0  0  0  0  0  0  0  0  0  0  0
   59.6350   28.2410   52.7510 C   0  0  0  0  0  0  0  0  0  0  0  0
   59.5520   27.4640   53.9190 C   0  0  0  0  0  0  0  0  0  0  0  0
   58.8570   27.9370   55.0350 C   0  0  0  0  0  0  0  0  0  0  0  0
   58.2350   29.1860   54.9950 C   0  0  0  0  0  0  0  0  0  0  0  0
   58.3000   29.9730   53.8330 C   0  0  0  0  0  0  0  0  0  0  0  0
   57.6200   31.3100   53.7940 C   0  0  0  0  0  0  0  0  0  0  0  0
   57.1970   31.5930   52.4630 O   0  0  0  0  0  0  0  0  0  0  0  0
   57.9810   32.2670   51.5140 C   0  0  0  0  0  0  0  0  0  0  0  0
   58.2020   31.6550   50.2730 C   0  0  0  0  0  0  0  0  0  0  0  0
   58.9920   32.2820   49.3030 C   0  0  0  0  0  0  0  0  0  0  0  0
   59.5820   33.5280   49.5670 C   0  0  0  0  0  0  0  0  0  0  0  0
   60.4380   34.2060   48.5300 C   0  0  0  0  0  0  0  0  0  0  0  0
   59.6150   34.7230   47.3890 C   0  0  0  0  0  0  0  0  0  0  0  0
   60.0010   35.7330   46.7390 O   0  0  0  0  0  0  0  0  0  0  0  0
   58.4030   34.0460   47.0330 N   0  0  0  0  0  0  0  0  0  0  0  0
   58.2010   33.2010   45.8890 C   0  0  0  0  0  0  0  0  0  0  0  0
   58.4100   33.7410   44.6150 C   0  0  0  0  0  0  0  0  0  0  0  0
   58.1810   32.9720   43.4730 C   0  0  0  0  0  0  0  0  0  0  0  0
   57.7370   31.6540   43.5920 C   0  0  0  0  0  0  0  0  0  0  0  0
   57.4990   31.0960   44.8620 C   0  0  0  0  0  0  0  0  0  0  0  0
   57.0150   29.7470   44.9890 N   0  0  0  0  0  0  0  0  0  0  0  0
   57.8040   28.8060   45.2200 O   0  0  0  0  0  0  0  0  0  0  0  0
   55.6780   29.4650   44.8280 O   0  0  0  0  0  0  0  0  0  0  0  0
   57.7310   31.8800   46.0070 C   0  0  0  0  0  0  0  0  0  0  0  0
   59.3450   34.1520   50.8010 C   0  0  0  0  0  0  0  0  0  0  0  0
   58.5520   33.5290   51.7680 C   0  0  0  0  0  0  0  0  0  0  0  0
   59.0230   29.5060   52.7230 C   0  0  0  0  0  0  0  0  0  0  0  0
   61.4200   29.9210   50.8560 C   0  0  0  0  0  0  0  0  0  0  0  0
   62.2570   30.4630   49.6930 C   0  0  0  0  0  0  0  0  0  0  0  0
   63.1650   32.5791   48.4440 H   0  0  0  0  0  0  0  0  0  0  0  0
   63.6676   31.8341   46.8887 H   0  0  0  0  0  0  0  0  0  0  0  0
   62.6087   33.2851   46.8887 H   0  0  0  0  0  0  0  0  0  0  0  0
   59.5436   29.6493   48.2281 H   0  0  0  0  0  0  0  0  0  0  0  0
   60.8108   28.9422   47.1405 H   0  0  0  0  0  0  0  0  0  0  0  0
   59.9925   27.4094   49.0040 H   0  0  0  0  0  0  0  0  0  0  0  0
   61.7737   27.6816   48.9316 H   0  0  0  0  0  0  0  0  0  0  0  0
   60.0371   26.4774   53.9549 H   0  0  0  0  0  0  0  0  0  0  0  0
   58.7999   27.3241   55.9466 H   0  0  0  0  0  0  0  0  0  0  0  0
   57.6916   29.5557   55.8771 H   0  0  0  0  0  0  0  0  0  0  0  0
   56.7452   31.2953   54.4607 H   0  0  0  0  0  0  0  0  0  0  0  0
   58.3237   32.0873   54.1265 H   0  0  0  0  0  0  0  0  0  0  0  0
   57.7512   30.6745   50.0597 H   0  0  0  0  0  0  0  0  0  0  0  0
   59.1514   31.7962   48.3291 H   0  0  0  0  0  0  0  0  0  0  0  0
   60.9674   35.0485   48.9991 H   0  0  0  0  0  0  0  0  0  0  0  0
   61.1500   33.4668   48.1341 H   0  0  0  0  0  0  0  0  0  0  0  0
   58.7575   34.7797   44.5128 H   0  0  0  0  0  0  0  0  0  0  0  0
   58.3509   33.4057   42.4765 H   0  0  0  0  0  0  0  0  0  0  0  0
   57.5723   31.0484   42.6886 H   0  0  0  0  0  0  0  0  0  0  0  0
   57.5431   31.4560   47.0044 H   0  0  0  0  0  0  0  0  0  0  0  0
   59.7863   35.1380   51.0085 H   0  0  0  0  0  0  0  0  0  0  0  0
   58.3728   34.0267   52.7325 H   0  0  0  0  0  0  0  0  0  0  0  0
   59.1109   30.1351   51.8249 H   0  0  0  0  0  0  0  0  0  0  0  0
   60.6367   30.6527   51.1031 H   0  0  0  0  0  0  0  0  0  0  0  0
   62.0893   29.7563   51.7132 H   0  0  0  0  0  0  0  0  0  0  0  0
   62.5541   31.4990   49.9130 H   0  0  0  0  0  0  0  0  0  0  0  0
   63.1485   29.8301   49.5714 H   0  0  0  0  0  0  0  0  0  0  0  0
  1  2  1  0
  2  3  2  0
  2  4  1  0
  4  5  1  0
  5  6  1  0
  6  7  1  0
  7  8  1  0
  8  9  2  0
  8 10  1  0
 10 11  2  0
 11 12  1  0
 12 13  2  0
 13 14  1  0
 14 15  1  0
 15 16  1  0
 16 17  1  0
 17 18  2  0
 18 19  1  0
 19 20  2  0
 20 21  1  0
 21 22  1  0
 22 23  2  0
 22 24  1  0
 24 25  1  0
 25 26  2  0
 26 27  1  0
 27 28  2  0
 28 29  1  0
 29 30  1  0
 30 31  2  0
 30 32  1  0
 29 33  2  0
 20 34  1  0
 34 35  2  0
 14 36  2  0
  7 37  1  0
 37 38  1  0
 38  4  1  0
 36 10  1  0
 35 17  1  0
 33 25  1  0
  1 39  1  0
  1 40  1  0
  1 41  1  0
  5 42  1  0
  5 43  1  0
  6 44  1  0
  6 45  1  0
 11 46  1  0
 12 47  1  0
 13 48  1  0
 15 49  1  0
 15 50  1  0
 18 51  1  0
 19 52  1  0
 21 53  1  0
 21 54  1  0
 26 55  1  0
 27 56  1  0
 28 57  1  0
 33 58  1  0
 34 59  1  0
 35 60  1  0
 36 61  1  0
 37 62  1  0
 37 63  1  0
 38 64  1  0
 38 65  1  0
M  CHG  3  24  -1  30   1  32  -1
M  END
>  <UniqueID>  (21) 
21

>  <SMILES>  (21) 
CC(=O)N1CCN(C(=O)c2cccc(COc3ccc(CC(=O)[N-]c4cccc([N+](=O)[O-])c4)cc3)c2)CC1

>  <Energy>  (21) 
76.05972027720982

>  <Genealogy>  (21) 
CC(=O)N1CCN(C(=O)c2cccc(COc3ccc(CC(=O)[N-]c4cccc([N+](=O)[O-])c4)cc3)c2)CC1 (protonated)
CC(=O)N1CCN(C(=O)c2cccc(COc3ccc(CC(=O)[N-]c4cccc([N+](=O)[O-])c4)cc3)c2)CC1 (3D coordinates assigned)
CC(=O)N1CCN(C(=O)c2cccc(COc3ccc(CC(=O)[N-]c4cccc([N+](=O)[O-])c4)cc3)c2)CC1 (nonaromatic ring conformer: 76.05972027720982 kcal/mol)

>  <smiles>  (21) 
CC(=O)N1CCN(C(=O)c2cccc(COc3ccc(CC(=O)Nc4cccc([N+](=O)[O-])c4)cc3)c2)CC1

>  <score_type>  (21) 
oracle

>  <origin>  (21) 
adg

>  <m_score__min__energy>  (21) 
-12.5

>  <m_primary>  (21) 
energy

$$$$
21:0
     RDKit          3D

 45 47  0  0  0  0  0  0  0  0999 V2000
   58.0770   28.7030   53.6150 C   0  0  0  0  0  0  0  0  0  0  0  0
   57.9450   29.3810   52.2850 C   0  0  0  0  0  0  0  0  0  0  0  0
   56.8060   29.7640   51.9070 O   0  0  0  0  0  0  0  0  0  0  0  0
   59.0670   29.5770   51.4150 N   0  0  0  0  0  0  0  0  0  0  0  0
   59.0430   30.1580   50.1040 C   0  0  0  0  0  0  0  0  0  0  0  0
   59.1270   31.5460   49.9800 C   0  0  0  0  0  0  0  0  0  0  0  0
   59.1200   32.1480   48.7150 C   0  0  0  0  0  0  0  0  0  0  0  0
   58.9680   31.3570   47.5540 C   0  0  0  0  0  0  0  0  0  0  0  0
   59.0780   29.9490   47.6780 C   0  0  0  0  0  0  0  0  0  0  0  0
   59.3230   29.0980   46.5530 N   0  0  0  0  0  0  0  0  0  0  0  0
   58.7290   27.4710   46.4590 S   0  0  0  0  0  0  0  0  0  0  0  0
   58.5770   27.0110   44.7500 C   0  0  0  0  0  0  0  0  0  0  0  0
   57.3770   27.3750   47.1080 O   0  0  0  0  0  0  0  0  0  0  0  0
   59.6810   26.5380   47.1510 O   0  0  0  0  0  0  0  0  0  0  0  0
   59.0660   29.3630   48.9480 C   0  0  0  0  0  0  0  0  0  0  0  0
   58.7790   32.0640   46.2470 C   0  0  0  0  0  0  0  0  0  0  0  0
   59.3360   33.3550   46.1110 C   0  0  0  0  0  0  0  0  0  0  0  0
   59.2420   34.0370   44.8910 C   0  0  0  0  0  0  0  0  0  0  0  0
   58.5160   33.4880   43.8380 C   0  0  0  0  0  0  0  0  0  0  0  0
   57.8510   32.2730   44.0030 C   0  0  0  0  0  0  0  0  0  0  0  0
   57.9610   31.5530   45.2070 C   0  0  0  0  0  0  0  0  0  0  0  0
   57.1420   30.3970   45.4450 N   0  0  0  0  0  0  0  0  0  0  0  0
   56.3130   29.7220   44.4900 C   0  0  0  0  0  0  0  0  0  0  0  0
   56.7960   29.5630   43.0890 C   0  0  0  0  0  0  0  0  0  0  0  0
   55.1470   29.3520   44.7930 O   0  0  0  0  0  0  0  0  0  0  0  0
   60.0120   34.0040   47.2930 C   0  0  0  0  0  0  0  0  0  0  0  0
   59.2650   33.6460   48.5870 C   0  0  0  0  0  0  0  0  0  0  0  0
   57.9334   29.4405   54.4184 H   0  0  0  0  0  0  0  0  0  0  0  0
   57.3156   27.9138   53.7014 H   0  0  0  0  0  0  0  0  0  0  0  0
   59.0788   28.2571   53.7014 H   0  0  0  0  0  0  0  0  0  0  0  0
   59.1992   32.1714   50.8820 H   0  0  0  0  0  0  0  0  0  0  0  0
   58.2326   25.9687   44.6801 H   0  0  0  0  0  0  0  0  0  0  0  0
   57.8494   27.6715   44.2558 H   0  0  0  0  0  0  0  0  0  0  0  0
   59.5549   27.1080   44.2558 H   0  0  0  0  0  0  0  0  0  0  0  0
   59.0747   28.2670   49.0416 H   0  0  0  0  0  0  0  0  0  0  0  0
   59.7429   35.0082   44.7650 H   0  0  0  0  0  0  0  0  0  0  0  0
   58.4665   34.0137   42.8730 H   0  0  0  0  0  0  0  0  0  0  0  0
   57.2346   31.8738   43.1840 H   0  0  0  0  0  0  0  0  0  0  0  0
   57.8408   29.2191   43.0982 H   0  0  0  0  0  0  0  0  0  0  0  0
   56.1710   28.8232   42.5674 H   0  0  0  0  0  0  0  0  0  0  0  0
   56.7327   30.5294   42.5674 H   0  0  0  0  0  0  0  0  0  0  0  0
   61.0500   33.6463   47.3607 H   0  0  0  0  0  0  0  0  0  0  0  0
   60.0017   35.0959   47.1603 H   0  0  0  0  0  0  0  0  0  0  0  0
   59.8295   34.0304   49.4494 H   0  0  0  0  0  0  0  0  0  0  0  0
   58.2634   34.0999   48.5576 H   0  0  0  0  0  0  0  0  0  0  0  0
  1  2  1  0
  2  3  2  0
  2  4  1  0
  4  5  1  0
  5  6  2  0
  6  7  1  0
  7  8  2  0
  8  9  1  0
  9 10  1  0
 10 11  1  0
 11 12  1  0
 11 13  2  0
 11 14  2  0
  9 15  2  0
  8 16  1  0
 16 17  2  0
 17 18  1  0
 18 19  2  0
 19 20  1  0
 20 21  2  0
 21 22  1  0
 22 23  1  0
 23 24  1  0
 23 25  2  0
 17 26  1  0
 26 27  1  0
 15  5  1  0
 21 16  1  0
 27  7  1  0
  1 28  1  0
  1 29  1  0
  1 30  1  0
  6 31  1  0
 12 32  1  0
 12 33  1  0
 12 34  1  0
 15 35  1  0
 18 36  1  0
 19 37  1  0
 20 38  1  0
 24 39  1  0
 24 40  1  0
 24 41  1  0
 26 42  1  0
 26 43  1  0
 27 44  1  0
 27 45  1  0
M  CHG  3   4  -1  10  -1  22  -1
M  END
>  <UniqueID>  (22) 
22

>  <SMILES>  (22) 
CC(=O)[N-]c1cc2c(c([N-]S(C)(=O)=O)c1)-c1c(cccc1[N-]C(C)=O)CC2

>  <Energy>  (22) 
67.32848375261038

>  <Genealogy>  (22) 
CC(=O)[N-]c1cc2c(c([N-]S(C)(=O)=O)c1)-c1c(cccc1[N-]C(C)=O)CC2 (protonated)
CC(=O)[N-]c1cc2c(c([N-]S(C)(=O)=O)c1)-c1c(cccc1[N-]C(C)=O)CC2 (3D coordinates assigned)
CC(=O)[N-]c1cc2c(c([N-]S(C)(=O)=O)c1)-c1c(cccc1[N-]C(C)=O)CC2 (nonaromatic ring conformer: 67.32848375261038 kcal/mol)

>  <smiles>  (22) 
CC(=O)Nc1cc2c(c(NS(C)(=O)=O)c1)-c1c(cccc1NC(C)=O)CC2

>  <score_type>  (22) 
oracle

>  <origin>  (22) 
adg

>  <m_score__min__energy>  (22) 
-12.15

>  <m_primary>  (22) 
energy

$$$$
22:0
     RDKit          3D

 48 50  0  0  0  0  0  0  0  0999 V2000
   57.0464   32.3173   42.8239 H   0  0  0  0  0  0  0  0  0  0  0  0
   57.4040   32.3660   43.8630 C   0  0  0  0  0  0  0  0  0  0  0  0
   57.9450   33.5170   44.3410 N   0  0  0  0  0  0  0  0  0  0  0  0
   58.4000   33.6250   45.6220 C   0  0  0  0  0  0  0  0  0  0  0  0
   58.9100   34.7370   46.0620 N   0  0  0  0  0  0  0  0  0  0  0  0
   60.2330   34.8730   46.6730 C   0  0  0  0  0  0  0  0  0  0  0  0
   60.5901   35.9030   46.5259 H   0  0  0  0  0  0  0  0  0  0  0  0
   60.1435   34.6377   47.7438 H   0  0  0  0  0  0  0  0  0  0  0  0
   61.2440   33.9020   46.0510 C   0  0  0  0  0  0  0  0  0  0  0  0
   60.6981   33.1252   45.4955 H   0  0  0  0  0  0  0  0  0  0  0  0
   61.9032   34.4732   45.3808 H   0  0  0  0  0  0  0  0  0  0  0  0
   62.0970   33.2430   47.1030 C   0  0  0  0  0  0  0  0  0  0  0  0
   61.6200   32.1200   47.8030 C   0  0  0  0  0  0  0  0  0  0  0  0
   60.6252   31.7119   47.5708 H   0  0  0  0  0  0  0  0  0  0  0  0
   62.4050   31.5200   48.7930 C   0  0  0  0  0  0  0  0  0  0  0  0
   62.0292   30.6391   49.3341 H   0  0  0  0  0  0  0  0  0  0  0  0
   63.6680   32.0400   49.0950 C   0  0  0  0  0  0  0  0  0  0  0  0
   64.2876   31.5643   49.8694 H   0  0  0  0  0  0  0  0  0  0  0  0
   64.1430   33.1640   48.4130 C   0  0  0  0  0  0  0  0  0  0  0  0
   65.1338   33.5753   48.6561 H   0  0  0  0  0  0  0  0  0  0  0  0
   63.3610   33.7670   47.4220 C   0  0  0  0  0  0  0  0  0  0  0  0
   63.7369   34.6540   46.8910 H   0  0  0  0  0  0  0  0  0  0  0  0
   58.3200   32.5210   46.4760 C   0  0  0  0  0  0  0  0  0  0  0  0
   58.6866   32.5926   47.5106 H   0  0  0  0  0  0  0  0  0  0  0  0
   57.7710   31.3270   46.0050 C   0  0  0  0  0  0  0  0  0  0  0  0
   57.7081   30.4519   46.6686 H   0  0  0  0  0  0  0  0  0  0  0  0
   57.3010   31.2420   44.6910 C   0  0  0  0  0  0  0  0  0  0  0  0
   56.6550   29.7220   44.0810 S   0  0  0  0  0  0  0  0  0  0  0  0
   56.3230   29.8330   42.6210 O   0  0  0  0  0  0  0  0  0  0  0  0
   55.4030   29.3900   44.8380 O   0  0  0  0  0  0  0  0  0  0  0  0
   57.8210   28.4700   44.3300 N   0  0  0  0  0  0  0  0  0  0  0  0
   58.1590   28.0270   45.6430 C   0  0  0  0  0  0  0  0  0  0  0  0
   57.5300   27.0470   46.3880 C   0  0  0  0  0  0  0  0  0  0  0  0
   56.2890   26.3040   46.0290 C   0  0  0  0  0  0  0  0  0  0  0  0
   55.7693   25.9929   46.9472 H   0  0  0  0  0  0  0  0  0  0  0  0
   55.6295   26.9560   45.4374 H   0  0  0  0  0  0  0  0  0  0  0  0
   56.5522   25.4148   45.4374 H   0  0  0  0  0  0  0  0  0  0  0  0
   58.2740   26.7830   47.4820 N   0  0  0  0  0  0  0  0  0  0  0  0
   59.3310   27.5840   47.4550 N   0  0  0  0  0  0  0  0  0  0  0  0
   60.4130   27.5180   48.4310 C   0  0  0  0  0  0  0  0  0  0  0  0
   59.9923   27.5437   49.4471 H   0  0  0  0  0  0  0  0  0  0  0  0
   60.9766   26.5838   48.2910 H   0  0  0  0  0  0  0  0  0  0  0  0
   61.0860   28.3768   48.2910 H   0  0  0  0  0  0  0  0  0  0  0  0
   59.2950   28.3560   46.3460 C   0  0  0  0  0  0  0  0  0  0  0  0
   60.4010   29.2530   45.8780 C   0  0  0  0  0  0  0  0  0  0  0  0
   60.9230   29.6764   46.7488 H   0  0  0  0  0  0  0  0  0  0  0  0
   61.1115   28.6729   45.2709 H   0  0  0  0  0  0  0  0  0  0  0  0
   59.9801   30.0680   45.2709 H   0  0  0  0  0  0  0  0  0  0  0  0
  1  2  1  0
  2  3  1  0
  3  4  1  0
  4  5  2  0
  5  6  1  0
  6  7  1  0
  6  8  1  0
  6  9  1  0
  9 10  1  0
  9 11  1  0
  9 12  1  0
 12 13  2  0
 13 14  1  0
 13 15  1  0
 15 16  1  0
 15 17  2  0
 17 18  1  0
 17 19  1  0
 19 20  1  0
 19 21  2  0
 21 22  1  0
  4 23  1  0
 23 24  1  0
 23 25  2  0
 25 26  1  0
 25 27  1  0
 27 28  1  0
 28 29  2  0
 28 30  2  0
 28 31  1  0
 31 32  1  0
 32 33  1  0
 33 34  1  0
 34 35  1  0
 34 36  1  0
 34 37  1  0
 33 38  2  0
 38 39  1  0
 39 40  1  0
 40 41  1  0
 40 42  1  0
 40 43  1  0
 39 44  1  0
 44 45  1  0
 45 46  1  0
 45 47  1  0
 45 48  1  0
 27  2  2  0
 44 32  2  0
 21 12  1  0
M  CHG  2   3  -1  31  -1
M  END
>  <UniqueID>  (23) 
23

>  <SMILES>  (23) 
Cc1nn(C)c(C)c1[N-]S(=O)(=O)c1cc/c(=N/CCc2ccccc2)[n-]c1

>  <Energy>  (23) 
84.01160255233778

>  <Genealogy>  (23) 
Cc1nn(C)c(C)c1[N-]S(=O)(=O)c1ccc(=NCCc2ccccc2)[n-]c1 (protonated)
Cc1nn(C)c(C)c1[N-]S(=O)(=O)c1cc/c(=N/CCc2ccccc2)[n-]c1 (cis-trans isomerization)
Cc1nn(C)c(C)c1[N-]S(=O)(=O)c1cc/c(=N/CCc2ccccc2)[n-]c1 (3D coordinates assigned)
Cc1nn(C)c(C)c1[N-]S(=O)(=O)c1cc/c(=N/CCc2ccccc2)[n-]c1 (optimized conformer: 84.01160255233778 kcal/mol)

>  <smiles>  (23) 
Cc1nn(C)c(C)c1NS(=O)(=O)c1ccc(=NCCc2ccccc2)[nH]c1

>  <score_type>  (23) 
oracle

>  <origin>  (23) 
adg

>  <m_score__min__energy>  (23) 
-11.09

>  <m_primary>  (23) 
energy

$$$$
23:0
     RDKit          3D

 52 57  0  0  0  0  0  0  0  0999 V2000
   52.7910   28.9560   50.9600 H   0  0  0  0  0  0  0  0  0  0  0  0
   52.1280   29.2190   50.2400 O   0  0  0  0  0  0  0  0  0  0  0  0
   51.7500   30.5480   50.0760 C   0  0  0  0  0  0  0  0  0  0  0  0
   51.0180   30.9960   49.0430 N   0  0  0  0  0  0  0  0  0  0  0  0
   50.8540   32.3020   49.3410 C   0  0  0  0  0  0  0  0  0  0  0  0
   50.2030   33.0890   48.6050 O   0  0  0  0  0  0  0  0  0  0  0  0
   51.4320   32.6980   50.4960 N   0  0  0  0  0  0  0  0  0  0  0  0
   52.0260   31.5790   50.9460 C   0  0  0  0  0  0  0  0  0  0  0  0
   52.7190   31.4930   52.2410 C   0  0  0  0  0  0  0  0  0  0  0  0
   52.6251   32.3428   52.9331 H   0  0  0  0  0  0  0  0  0  0  0  0
   53.4580   30.4440   52.6310 C   0  0  0  0  0  0  0  0  0  0  0  0
   52.9940   29.3280   53.3290 C   0  0  0  0  0  0  0  0  0  0  0  0
   51.9484   29.1609   53.6271 H   0  0  0  0  0  0  0  0  0  0  0  0
   54.0200   28.4800   53.5860 N   0  0  0  0  0  0  0  0  0  0  0  0
   55.1080   29.0350   53.0770 N   0  0  0  0  0  0  0  0  0  0  0  0
   56.3770   28.5680   53.1230 C   0  0  0  0  0  0  0  0  0  0  0  0
   56.6420   27.4240   53.6790 N   0  0  0  0  0  0  0  0  0  0  0  0
   57.1690   27.2940   55.0350 C   0  0  0  0  0  0  0  0  0  0  0  0
   57.6636   26.3194   54.9104 H   0  0  0  0  0  0  0  0  0  0  0  0
   57.5470   28.6270   55.6500 C   0  0  0  0  0  0  0  0  0  0  0  0
   58.4081   28.6943   56.3312 H   0  0  0  0  0  0  0  0  0  0  0  0
   57.7805   29.6274   55.2566 H   0  0  0  0  0  0  0  0  0  0  0  0
   56.2780   27.9140   56.0950 C   0  0  0  0  0  0  0  0  0  0  0  0
   56.2215   27.4654   57.0978 H   0  0  0  0  0  0  0  0  0  0  0  0
   55.2136   28.1845   56.1567 H   0  0  0  0  0  0  0  0  0  0  0  0
   57.3640   29.3350   52.5740 N   0  0  0  0  0  0  0  0  0  0  0  0
   57.0680   30.5440   52.0010 C   0  0  0  0  0  0  0  0  0  0  0  0
   58.0050   31.2790   51.4810 N   0  0  0  0  0  0  0  0  0  0  0  0
   57.7910   32.2220   50.3870 C   0  0  0  0  0  0  0  0  0  0  0  0
   57.1630   31.7531   49.6151 H   0  0  0  0  0  0  0  0  0  0  0  0
   57.2873   33.1220   50.7693 H   0  0  0  0  0  0  0  0  0  0  0  0
   59.1120   32.6000   49.7950 C   0  0  0  0  0  0  0  0  0  0  0  0
   59.2940   32.5170   48.4510 N   0  0  0  0  0  0  0  0  0  0  0  0
   60.4600   32.8830   47.8600 C   0  0  0  0  0  0  0  0  0  0  0  0
   60.5733   32.7848   46.7703 H   0  0  0  0  0  0  0  0  0  0  0  0
   61.5230   33.3860   48.6280 C   0  0  0  0  0  0  0  0  0  0  0  0
   62.7930   33.8130   47.9320 C   0  0  0  0  0  0  0  0  0  0  0  0
   63.0906   34.5481   48.6943 H   0  0  0  0  0  0  0  0  0  0  0  0
   63.5090   32.7190   47.1480 C   0  0  0  0  0  0  0  0  0  0  0  0
   64.6079   32.7057   47.1017 H   0  0  0  0  0  0  0  0  0  0  0  0
   63.4954   31.6192   47.1599 H   0  0  0  0  0  0  0  0  0  0  0  0
   62.7330   33.7910   46.4090 C   0  0  0  0  0  0  0  0  0  0  0  0
   63.2693   34.5549   45.8269 H   0  0  0  0  0  0  0  0  0  0  0  0
   61.9241   33.7897   45.6635 H   0  0  0  0  0  0  0  0  0  0  0  0
   61.3770   33.4450   50.0350 C   0  0  0  0  0  0  0  0  0  0  0  0
   62.4550   33.8690   50.8910 N   0  0  0  0  0  0  0  0  0  0  0  0
   63.0620   34.9340   50.6540 O   0  0  0  0  0  0  0  0  0  0  0  0
   62.7200   33.2040   52.0650 O   0  0  0  0  0  0  0  0  0  0  0  0
   60.1480   33.0740   50.6060 C   0  0  0  0  0  0  0  0  0  0  0  0
   60.0004   33.1565   51.6929 H   0  0  0  0  0  0  0  0  0  0  0  0
   55.7790   30.9910   51.9740 N   0  0  0  0  0  0  0  0  0  0  0  0
   54.8130   30.2040   52.5050 C   0  0  0  0  0  0  0  0  0  0  0  0
  1  2  1  0
  2  3  1  0
  3  4  1  0
  4  5  1  0
  5  6  2  0
  5  7  1  0
  7  8  1  0
  8  9  1  0
  9 10  1  0
  9 11  2  0
 11 12  1  0
 12 13  1  0
 12 14  2  0
 14 15  1  0
 15 16  1  0
 16 17  2  0
 17 18  1  0
 18 19  1  0
 18 20  1  0
 20 21  1  0
 20 22  1  0
 20 23  1  0
 23 24  1  0
 23 25  1  0
 16 26  1  0
 26 27  1  0
 27 28  2  3
 28 29  1  0
 29 30  1  0
 29 31  1  0
 29 32  1  0
 32 33  2  0
 33 34  1  0
 34 35  1  0
 34 36  2  0
 36 37  1  0
 37 38  1  0
 37 39  1  0
 39 40  1  0
 39 41  1  0
 39 42  1  0
 42 43  1  0
 42 44  1  0
 36 45  1  0
 45 46  1  0
 46 47  2  0
 46 48  1  0
 45 49  2  0
 49 50  1  0
 27 51  1  0
 51 52  2  0
  8  3  2  0
 52 11  1  0
 52 15  1  0
 23 18  1  0
 49 32  1  0
 42 37  1  0
M  CHG  5   4  -1   7  -1  26  -1  46   1  48  -1
M  END
>  <UniqueID>  (24) 
24

>  <SMILES>  (24) 
O=c1[n-]c(O)c(/C=c2/cnn3/c(=N/C4CC4)[n-]c(=NCc4cc([N+](=O)[O-])c(C5CC5)cn4)nc23)[n-]1

>  <Energy>  (24) 
663.7905427704954

>  <Genealogy>  (24) 
O=c1[n-]c(O)c(C=c2cnn3c(=NC4CC4)[n-]c(=NCc4cc([N+](=O)[O-])c(C5CC5)cn4)nc23)[n-]1 (protonated)
O=c1[n-]c(O)c(/C=c2/cnn3/c(=N/C4CC4)[n-]c(=NCc4cc([N+](=O)[O-])c(C5CC5)cn4)nc23)[n-]1 (cis-trans isomerization)
O=c1[n-]c(O)c(/C=c2/cnn3/c(=N/C4CC4)[n-]c(=NCc4cc([N+](=O)[O-])c(C5CC5)cn4)nc23)[n-]1 (3D coordinates assigned)
O=c1[n-]c(O)c(/C=c2/cnn3/c(=N/C4CC4)[n-]c(=NCc4cc([N+](=O)[O-])c(C5CC5)cn4)nc23)[n-]1 (nonaromatic ring conformer: 663.7905427704954 kcal/mol)

>  <smiles>  (24) 
O=c1[nH]c(O)c(C=c2cnn3c(=NC4CC4)[nH]c(=NCc4cc([N+](=O)[O-])c(C5CC5)cn4)nc23)[nH]1

>  <score_type>  (24) 
oracle

>  <origin>  (24) 
adg

>  <m_score__min__energy>  (24) 
-14.9

>  <m_primary>  (24) 
energy

$$$$
24:0
     RDKit          3D

 17 17  0  0  0  0  0  0  0  0999 V2000
   55.9130   22.1910   43.0190 O   0  0  0  0  0  0  0  0  0  0  0  0
   56.3850   22.2550   44.1850 C   0  0  0  0  0  0  0  0  0  0  0  0
   56.5550   23.5470   44.8890 C   0  0  0  0  0  0  0  0  0  0  0  0
   57.8580   23.8860   45.2920 C   0  0  0  0  0  0  0  0  0  0  0  0
   58.1270   25.1170   45.8890 C   0  0  0  0  0  0  0  0  0  0  0  0
   59.4330   25.4280   46.2640 O   0  0  0  0  0  0  0  0  0  0  0  0
   57.0910   26.0270   46.1010 C   0  0  0  0  0  0  0  0  0  0  0  0
   55.7820   25.7040   45.7370 C   0  0  0  0  0  0  0  0  0  0  0  0
   54.7740   26.6260   46.0050 O   0  0  0  0  0  0  0  0  0  0  0  0
   55.4890   24.4580   45.1350 C   0  0  0  0  0  0  0  0  0  0  0  0
   54.0810   24.0940   44.8450 C   0  0  0  0  0  0  0  0  0  0  0  0
   53.6200   22.9640   45.1580 O   0  0  0  0  0  0  0  0  0  0  0  0
   56.6791   21.3256   44.6946 H   0  0  0  0  0  0  0  0  0  0  0  0
   58.6777   23.1696   45.1341 H   0  0  0  0  0  0  0  0  0  0  0  0
   59.9020   26.2560   45.9140 H   0  0  0  0  0  0  0  0  0  0  0  0
   57.3064   27.0044   46.5574 H   0  0  0  0  0  0  0  0  0  0  0  0
   53.4265   24.8246   44.3471 H   0  0  0  0  0  0  0  0  0  0  0  0
  1  2  2  0
  2  3  1  0
  3  4  2  0
  4  5  1  0
  5  6  1  0
  5  7  2  0
  7  8  1  0
  8  9  1  0
  8 10  2  0
 10 11  1  0
 11 12  2  0
 10  3  1  0
  2 13  1  0
  4 14  1  0
  6 15  1  0
  7 16  1  0
 11 17  1  0
M  CHG  1   9  -1
M  END
>  <UniqueID>  (25) 
25

>  <SMILES>  (25) 
O=Cc1cc(O)cc([O-])c1C=O

>  <Energy>  (25) 
23.405251261185242

>  <Genealogy>  (25) 
O=Cc1cc(O)cc([O-])c1C=O (protonated)
O=Cc1cc(O)cc([O-])c1C=O (3D coordinates assigned)
O=Cc1cc(O)cc([O-])c1C=O (optimized conformer: 23.405251261185242 kcal/mol)

>  <smiles>  (25) 
O=Cc1cc(O)cc(O)c1C=O

>  <score_type>  (25) 
oracle

>  <origin>  (25) 
adg

>  <m_score__min__energy>  (25) 
-8.5800000000000001

>  <m_primary>  (25) 
energy

$$$$
25:0
     RDKit          3D

 48 51  0  0  0  0  0  0  0  0999 V2000
   54.8230   24.6610   46.9120 H   0  0  0  0  0  0  0  0  0  0  0  0
   54.6260   23.6990   47.1550 O   0  0  0  0  0  0  0  0  0  0  0  0
   55.5870   22.6960   47.0380 C   0  0  0  0  0  0  0  0  0  0  0  0
   56.1890   22.2650   45.8610 C   0  0  0  0  0  0  0  0  0  0  0  0
   55.8790   22.6910   44.4790 C   0  0  0  0  0  0  0  0  0  0  0  0
   55.9280   21.8450   43.5490 O   0  0  0  0  0  0  0  0  0  0  0  0
   55.6040   24.0590   44.1470 N   0  0  0  0  0  0  0  0  0  0  0  0
   55.8510   25.0810   44.9100 C   0  0  0  0  0  0  0  0  0  0  0  0
   54.9630   25.7110   45.6420 O   0  0  0  0  0  0  0  0  0  0  0  0
   55.5170   26.7030   46.2770 N   0  0  0  0  0  0  0  0  0  0  0  0
   56.8240   26.7090   45.9390 C   0  0  0  0  0  0  0  0  0  0  0  0
   57.7850   27.7160   46.4290 C   0  0  0  0  0  0  0  0  0  0  0  0
   58.6080   27.3800   47.3220 O   0  0  0  0  0  0  0  0  0  0  0  0
   57.8130   29.1030   45.9030 C   0  0  0  0  0  0  0  0  0  0  0  0
   57.5310   29.3490   44.5530 C   0  0  0  0  0  0  0  0  0  0  0  0
   57.2647   28.5149   43.8871 H   0  0  0  0  0  0  0  0  0  0  0  0
   57.5870   30.6450   44.0530 C   0  0  0  0  0  0  0  0  0  0  0  0
   57.3615   30.8396   42.9941 H   0  0  0  0  0  0  0  0  0  0  0  0
   57.9300   31.6950   44.9000 C   0  0  0  0  0  0  0  0  0  0  0  0
   57.9750   32.7204   44.5043 H   0  0  0  0  0  0  0  0  0  0  0  0
   58.2120   31.4660   46.2200 N   0  0  0  0  0  0  0  0  0  0  0  0
   58.6070   32.6040   47.0670 C   0  0  0  0  0  0  0  0  0  0  0  0
   58.1696   33.5279   46.6607 H   0  0  0  0  0  0  0  0  0  0  0  0
   58.2414   32.4326   48.0902 H   0  0  0  0  0  0  0  0  0  0  0  0
   60.1070   32.7360   47.0980 C   0  0  0  0  0  0  0  0  0  0  0  0
   60.8890   31.8130   47.8120 C   0  0  0  0  0  0  0  0  0  0  0  0
   60.4032   31.0020   48.3744 H   0  0  0  0  0  0  0  0  0  0  0  0
   62.2840   31.9220   47.8100 C   0  0  0  0  0  0  0  0  0  0  0  0
   62.8920   31.1997   48.3745 H   0  0  0  0  0  0  0  0  0  0  0  0
   62.9060   32.9470   47.0920 C   0  0  0  0  0  0  0  0  0  0  0  0
   64.2580   33.0500   47.0910 F   0  0  0  0  0  0  0  0  0  0  0  0
   62.1340   33.8650   46.3740 C   0  0  0  0  0  0  0  0  0  0  0  0
   62.6241   34.6711   45.8083 H   0  0  0  0  0  0  0  0  0  0  0  0
   60.7400   33.7600   46.3740 C   0  0  0  0  0  0  0  0  0  0  0  0
   60.1363   34.4822   45.8048 H   0  0  0  0  0  0  0  0  0  0  0  0
   58.1680   30.1910   46.7290 C   0  0  0  0  0  0  0  0  0  0  0  0
   58.4320   29.9860   47.9470 O   0  0  0  0  0  0  0  0  0  0  0  0
   57.0790   25.6820   45.0460 C   0  0  0  0  0  0  0  0  0  0  0  0
   58.0306   25.4134   44.5640 H   0  0  0  0  0  0  0  0  0  0  0  0
   57.1020   21.2870   46.2260 C   0  0  0  0  0  0  0  0  0  0  0  0
   57.7606   20.7127   45.5578 H   0  0  0  0  0  0  0  0  0  0  0  0
   57.0150   21.1820   47.5990 C   0  0  0  0  0  0  0  0  0  0  0  0
   57.7840   20.3270   48.3800 O   0  0  0  0  0  0  0  0  0  0  0  0
   56.0850   22.0210   48.0920 N   0  0  0  0  0  0  0  0  0  0  0  0
   55.7730   22.2490   49.5000 C   0  0  0  0  0  0  0  0  0  0  0  0
   56.5021   21.7162   50.1281 H   0  0  0  0  0  0  0  0  0  0  0  0
   55.8208   23.3265   49.7164 H   0  0  0  0  0  0  0  0  0  0  0  0
   54.7610   21.8761   49.7164 H   0  0  0  0  0  0  0  0  0  0  0  0
  1  2  1  0
  2  3  1  0
  3  4  2  0
  4  5  1  0
  5  6  2  0
  5  7  1  0
  7  8  2  0
  8  9  1  0
  9 10  1  0
 10 11  1  0
 11 12  1  0
 12 13  2  0
 12 14  1  0
 14 15  2  0
 15 16  1  0
 15 17  1  0
 17 18  1  0
 17 19  2  0
 19 20  1  0
 19 21  1  0
 21 22  1  0
 22 23  1  0
 22 24  1  0
 22 25  1  0
 25 26  2  0
 26 27  1  0
 26 28  1  0
 28 29  1  0
 28 30  2  0
 30 31  1  0
 30 32  1  0
 32 33  1  0
 32 34  2  0
 34 35  1  0
 21 36  1  0
 36 37  2  0
 11 38  2  0
 38 39  1  0
  4 40  1  0
 40 41  1  0
 40 42  2  0
 42 43  1  0
 42 44  1  0
 44 45  1  0
 45 46  1  0
 45 47  1  0
 45 48  1  0
 44  3  1  0
 38  8  1  0
 36 14  1  0
 34 25  1  0
M  CHG  2  10  -1  43  -1
M  END
>  <UniqueID>  (26) 
26

>  <SMILES>  (26) 
Cn1c([O-])cc(C(=O)/N=c2/cc(C(=O)c3cccn(Cc4ccc(F)cc4)c3=O)[n-]o2)c1O

>  <Energy>  (26) 
124.40476284855302

>  <Genealogy>  (26) 
Cn1c([O-])cc(C(=O)N=c2cc(C(=O)c3cccn(Cc4ccc(F)cc4)c3=O)[n-]o2)c1O (protonated)
Cn1c([O-])cc(C(=O)/N=c2/cc(C(=O)c3cccn(Cc4ccc(F)cc4)c3=O)[n-]o2)c1O (cis-trans isomerization)
Cn1c([O-])cc(C(=O)/N=c2/cc(C(=O)c3cccn(Cc4ccc(F)cc4)c3=O)[n-]o2)c1O (3D coordinates assigned)
Cn1c([O-])cc(C(=O)/N=c2/cc(C(=O)c3cccn(Cc4ccc(F)cc4)c3=O)[n-]o2)c1O (optimized conformer: 124.40476284855302 kcal/mol)

>  <smiles>  (26) 
Cn1c(O)cc(C(=O)N=c2cc(C(=O)c3cccn(Cc4ccc(F)cc4)c3=O)[nH]o2)c1O

>  <score_type>  (26) 
oracle

>  <origin>  (26) 
adg

>  <m_score__min__energy>  (26) 
-15.07

>  <m_primary>  (26) 
energy

$$$$
26:0
     RDKit          3D

 46 48  0  0  0  0  0  0  0  0999 V2000
   58.4983   23.6374   46.5089 H   0  0  0  0  0  0  0  0  0  0  0  0
   57.9520   23.5520   45.5580 C   0  0  0  0  0  0  0  0  0  0  0  0
   57.3980   22.3250   45.1820 C   0  0  0  0  0  0  0  0  0  0  0  0
   57.5291   21.4458   45.8299 H   0  0  0  0  0  0  0  0  0  0  0  0
   56.6780   22.2060   43.9880 C   0  0  0  0  0  0  0  0  0  0  0  0
   56.1440   20.9530   43.6530 O   0  0  0  0  0  0  0  0  0  0  0  0
   56.1380   19.8240   44.5200 C   0  0  0  0  0  0  0  0  0  0  0  0
   56.1398   20.1648   45.5659 H   0  0  0  0  0  0  0  0  0  0  0  0
   55.2366   19.2221   44.3321 H   0  0  0  0  0  0  0  0  0  0  0  0
   57.0329   19.2126   44.3321 H   0  0  0  0  0  0  0  0  0  0  0  0
   56.5090   23.3410   43.1720 C   0  0  0  0  0  0  0  0  0  0  0  0
   55.9381   23.2621   42.2351 H   0  0  0  0  0  0  0  0  0  0  0  0
   57.0640   24.5680   43.5480 C   0  0  0  0  0  0  0  0  0  0  0  0
   56.9117   25.4548   42.9153 H   0  0  0  0  0  0  0  0  0  0  0  0
   57.8150   24.6730   44.7300 C   0  0  0  0  0  0  0  0  0  0  0  0
   58.3510   25.9310   45.1670 N   0  0  0  0  0  0  0  0  0  0  0  0
   57.8270   27.1050   44.9600 C   0  0  0  0  0  0  0  0  0  0  0  0
   58.6160   28.3300   44.1220 S   0  0  0  0  0  0  0  0  0  0  0  0
   57.3130   29.3920   44.2500 C   0  0  0  0  0  0  0  0  0  0  0  0
   57.3060   30.8100   43.7690 C   0  0  0  0  0  0  0  0  0  0  0  0
   57.7979   30.8633   42.7866 H   0  0  0  0  0  0  0  0  0  0  0  0
   56.2654   31.1567   43.6861 H   0  0  0  0  0  0  0  0  0  0  0  0
   58.0410   31.6890   44.7410 C   0  0  0  0  0  0  0  0  0  0  0  0
   58.0380   33.0820   44.5770 C   0  0  0  0  0  0  0  0  0  0  0  0
   57.4696   33.5338   43.7507 H   0  0  0  0  0  0  0  0  0  0  0  0
   58.7520   33.8990   45.4560 C   0  0  0  0  0  0  0  0  0  0  0  0
   58.7368   34.9905   45.3205 H   0  0  0  0  0  0  0  0  0  0  0  0
   59.4910   33.3370   46.5140 C   0  0  0  0  0  0  0  0  0  0  0  0
   60.2750   34.2100   47.4750 C   0  0  0  0  0  0  0  0  0  0  0  0
   60.2059   35.2478   47.1169 H   0  0  0  0  0  0  0  0  0  0  0  0
   61.7580   33.8200   47.4940 C   0  0  0  0  0  0  0  0  0  0  0  0
   62.1002   33.7300   48.5356 H   0  0  0  0  0  0  0  0  0  0  0  0
   61.8904   32.8565   46.9800 H   0  0  0  0  0  0  0  0  0  0  0  0
   62.3472   34.5937   46.9800 H   0  0  0  0  0  0  0  0  0  0  0  0
   59.6730   34.1590   48.8840 C   0  0  0  0  0  0  0  0  0  0  0  0
   60.4788   34.2273   49.6297 H   0  0  0  0  0  0  0  0  0  0  0  0
   58.9783   35.0015   49.0166 H   0  0  0  0  0  0  0  0  0  0  0  0
   59.1300   33.2116   49.0166 H   0  0  0  0  0  0  0  0  0  0  0  0
   59.5010   31.9390   46.6670 C   0  0  0  0  0  0  0  0  0  0  0  0
   60.0767   31.4842   47.4866 H   0  0  0  0  0  0  0  0  0  0  0  0
   58.7860   31.1230   45.7870 C   0  0  0  0  0  0  0  0  0  0  0  0
   58.8071   30.0306   45.9147 H   0  0  0  0  0  0  0  0  0  0  0  0
   56.2970   28.7500   44.9540 C   0  0  0  0  0  0  0  0  0  0  0  0
   55.0790   29.3520   45.2450 O   0  0  0  0  0  0  0  0  0  0  0  0
   56.5790   27.4770   45.3360 N   0  0  0  0  0  0  0  0  0  0  0  0
   55.8870   26.8710   45.8260 H   0  0  0  0  0  0  0  0  0  0  0  0
  1  2  1  0
  2  3  2  0
  3  4  1  0
  3  5  1  0
  5  6  1  0
  6  7  1  0
  7  8  1  0
  7  9  1  0
  7 10  1  0
  5 11  2  0
 11 12  1  0
 11 13  1  0
 13 14  1  0
 13 15  2  0
 15 16  1  0
 16 17  2  0
 17 18  1  0
 18 19  1  0
 19 20  1  0
 20 21  1  0
 20 22  1  0
 20 23  1  0
 23 24  2  0
 24 25  1  0
 24 26  1  0
 26 27  1  0
 26 28  2  0
 28 29  1  0
 29 30  1  0
 29 31  1  0
 31 32  1  0
 31 33  1  0
 31 34  1  0
 29 35  1  0
 35 36  1  0
 35 37  1  0
 35 38  1  0
 28 39  1  0
 39 40  1  0
 39 41  2  0
 41 42  1  0
 19 43  2  0
 43 44  1  0
 43 45  1  0
 45 46  1  0
 15  2  1  0
 45 17  1  0
 41 23  1  0
M  CHG  1  44  -1
M  END
>  <UniqueID>  (27) 
27

>  <SMILES>  (27) 
COc1ccc(/N=c2\[nH]c([O-])c(Cc3ccc(C(C)C)cc3)s2)cc1

>  <Energy>  (27) 
79.560876057106

>  <Genealogy>  (27) 
COc1ccc(N=c2[nH]c([O-])c(Cc3ccc(C(C)C)cc3)s2)cc1 (protonated)
COc1ccc(/N=c2\[nH]c([O-])c(Cc3ccc(C(C)C)cc3)s2)cc1 (cis-trans isomerization)
COc1ccc(/N=c2\[nH]c([O-])c(Cc3ccc(C(C)C)cc3)s2)cc1 (3D coordinates assigned)
COc1ccc(/N=c2\[nH]c([O-])c(Cc3ccc(C(C)C)cc3)s2)cc1 (optimized conformer: 79.560876057106 kcal/mol)

>  <smiles>  (27) 
COc1ccc(N=c2[nH]c(O)c(Cc3ccc(C(C)C)cc3)s2)cc1

>  <score_type>  (27) 
oracle

>  <origin>  (27) 
adg

>  <m_score__min__energy>  (27) 
-11.83

>  <m_primary>  (27) 
energy

$$$$
27:0
     RDKit          3D

 43 44  0  0  0  0  0  0  0  0999 V2000
   58.5100   26.4130   46.8110 C   0  0  0  0  0  0  0  0  0  0  0  0
   58.3740   26.6620   45.3060 C   0  0  0  0  0  0  0  0  0  0  0  0
   57.7270   25.4630   44.6060 C   0  0  0  0  0  0  0  0  0  0  0  0
   57.6000   27.8870   45.0630 N   0  0  0  0  0  0  0  0  0  0  0  0
   58.0570   29.0420   44.5340 C   0  0  0  0  0  0  0  0  0  0  0  0
   57.0090   29.9400   44.4000 C   0  0  0  0  0  0  0  0  0  0  0  0
   57.0770   31.3500   43.8670 C   0  0  2  0  0  0  0  0  0  0  0  0
   58.3670   31.6610   43.3980 O   0  0  0  0  0  0  0  0  0  0  0  0
   56.6430   32.3300   44.8790 N   0  0  0  0  0  0  0  0  0  0  0  0
   57.3790   33.6080   44.8370 C   0  0  0  0  0  0  0  0  0  0  0  0
   58.5340   33.5890   45.8020 C   0  0  0  0  0  0  0  0  0  0  0  0
   58.4350   32.9030   47.0230 C   0  0  0  0  0  0  0  0  0  0  0  0
   59.4950   32.9240   47.9330 C   0  0  0  0  0  0  0  0  0  0  0  0
   60.6730   33.6340   47.6370 C   0  0  0  0  0  0  0  0  0  0  0  0
   61.7520   33.7160   48.5270 O   0  0  0  0  0  0  0  0  0  0  0  0
   63.3750   33.3520   48.1230 S   0  0  0  0  0  0  0  0  0  0  0  0
   63.5160   31.6870   47.6840 N   0  0  0  0  0  0  0  0  0  0  0  0
   63.7950   34.2060   46.9610 O   0  0  0  0  0  0  0  0  0  0  0  0
   64.2670   33.6430   49.2970 O   0  0  0  0  0  0  0  0  0  0  0  0
   60.7790   34.2930   46.4060 C   0  0  0  0  0  0  0  0  0  0  0  0
   59.7230   34.2680   45.4920 C   0  0  0  0  0  0  0  0  0  0  0  0
   55.8670   29.3030   44.8520 C   0  0  0  0  0  0  0  0  0  0  0  0
   56.2740   28.0490   45.2490 C   0  0  0  0  0  0  0  0  0  0  0  0
   55.4340   27.0720   45.7700 O   0  0  0  0  0  0  0  0  0  0  0  0
   58.0540   27.2478   47.3634 H   0  0  0  0  0  0  0  0  0  0  0  0
   57.9986   25.4757   47.0753 H   0  0  0  0  0  0  0  0  0  0  0  0
   59.5751   26.3367   47.0753 H   0  0  0  0  0  0  0  0  0  0  0  0
   59.3814   26.7927   44.8841 H   0  0  0  0  0  0  0  0  0  0  0  0
   57.3471   24.7589   45.3609 H   0  0  0  0  0  0  0  0  0  0  0  0
   56.8942   25.8110   43.9772 H   0  0  0  0  0  0  0  0  0  0  0  0
   58.4751   24.9580   43.9772 H   0  0  0  0  0  0  0  0  0  0  0  0
   59.1016   29.2404   44.2522 H   0  0  0  0  0  0  0  0  0  0  0  0
   56.3821   31.4086   43.0163 H   0  0  0  0  0  0  0  0  0  0  0  0
   58.6910   30.8690   42.8960 H   0  0  0  0  0  0  0  0  0  0  0  0
   55.6330   32.5370   44.6990 H   0  0  0  0  0  0  0  0  0  0  0  0
   57.7619   33.7708   43.8187 H   0  0  0  0  0  0  0  0  0  0  0  0
   56.6938   34.4201   45.1216 H   0  0  0  0  0  0  0  0  0  0  0  0
   57.5178   32.3459   47.2645 H   0  0  0  0  0  0  0  0  0  0  0  0
   59.4080   32.3823   48.8864 H   0  0  0  0  0  0  0  0  0  0  0  0
   64.4390   31.5760   47.2090 H   0  0  0  0  0  0  0  0  0  0  0  0
   61.7027   34.8356   46.1564 H   0  0  0  0  0  0  0  0  0  0  0  0
   59.8235   34.7826   44.5250 H   0  0  0  0  0  0  0  0  0  0  0  0
   54.8468   29.7129   44.8869 H   0  0  0  0  0  0  0  0  0  0  0  0
  1  2  1  0
  2  3  1  0
  2  4  1  0
  4  5  1  0
  5  6  2  0
  6  7  1  0
  7  8  1  0
  7  9  1  0
  9 10  1  0
 10 11  1  0
 11 12  2  0
 12 13  1  0
 13 14  2  0
 14 15  1  0
 15 16  1  0
 16 17  1  0
 16 18  2  0
 16 19  2  0
 14 20  1  0
 20 21  2  0
  6 22  1  0
 22 23  2  0
 23 24  1  0
 23  4  1  0
 21 11  1  0
  1 25  1  0
  1 26  1  0
  1 27  1  0
  2 28  1  0
  3 29  1  0
  3 30  1  0
  3 31  1  0
  5 32  1  0
  7 33  1  6
  8 34  1  0
  9 35  1  0
 10 36  1  0
 10 37  1  0
 12 38  1  0
 13 39  1  0
 17 40  1  0
 20 41  1  0
 21 42  1  0
 22 43  1  0
M  CHG  2  17  -1  24  -1
M  END
>  <UniqueID>  (28) 
28

>  <SMILES>  (28) 
CC(C)n1cc([C@H](O)NCc2ccc(OS([NH-])(=O)=O)cc2)cc1[O-]

>  <Energy>  (28) 
60.97707643927475

>  <Genealogy>  (28) 
CC(C)n1cc(C(O)NCc2ccc(OS([NH-])(=O)=O)cc2)cc1[O-] (protonated)
CC(C)n1cc([C@H](O)NCc2ccc(OS([NH-])(=O)=O)cc2)cc1[O-] (chirality)
CC(C)n1cc([C@H](O)NCc2ccc(OS([NH-])(=O)=O)cc2)cc1[O-] (3D coordinates assigned)
CC(C)n1cc([C@H](O)NCc2ccc(OS([NH-])(=O)=O)cc2)cc1[O-] (optimized conformer: 60.97707643927475 kcal/mol)

>  <smiles>  (28) 
CC(C)n1cc(C(O)NCc2ccc(OS(N)(=O)=O)cc2)cc1O

>  <score_type>  (28) 
oracle

>  <origin>  (28) 
adg

>  <m_score__min__energy>  (28) 
-12.619999999999999

>  <m_primary>  (28) 
energy

$$$$
28:0
     RDKit          3D

 49 51  0  0  0  0  0  0  0  0999 V2000
   55.9010   27.6370   45.6190 O   0  0  0  0  0  0  0  0  0  0  0  0
   56.7400   28.5510   45.4150 C   0  0  0  0  0  0  0  0  0  0  0  0
   58.1380   28.2320   45.4490 N   0  0  0  0  0  0  0  0  0  0  0  0
   58.9260   28.0460   46.6340 C   0  0  0  0  0  0  0  0  0  0  0  0
   59.7320   26.9080   46.8090 C   0  0  0  0  0  0  0  0  0  0  0  0
   60.4780   26.7510   47.9790 C   0  0  0  0  0  0  0  0  0  0  0  0
   60.4380   27.7310   48.9750 C   0  0  0  0  0  0  0  0  0  0  0  0
   59.6540   28.8880   48.7980 C   0  0  0  0  0  0  0  0  0  0  0  0
   59.5850   29.9030   49.7630 O   0  0  0  0  0  0  0  0  0  0  0  0
   58.6230   30.9550   49.7620 C   0  0  0  0  0  0  0  0  0  0  0  0
   59.3160   32.3000   49.5440 C   0  0  0  0  0  0  0  0  0  0  0  0
   60.8450   32.1500   49.4780 C   0  0  0  0  0  0  0  0  0  0  0  0
   61.3330   32.2040   48.0810 N   0  0  0  0  0  0  0  0  0  0  0  0
   61.1960   33.5640   47.5050 C   0  0  0  0  0  0  0  0  0  0  0  0
   62.2160   33.8000   46.3790 C   0  0  0  0  0  0  0  0  0  0  0  0
   63.5670   33.7030   46.8080 O   0  0  0  0  0  0  0  0  0  0  0  0
   63.7550   32.8170   47.9040 C   0  0  0  0  0  0  0  0  0  0  0  0
   62.7170   31.6820   47.9680 C   0  0  0  0  0  0  0  0  0  0  0  0
   58.9110   29.0370   47.6210 C   0  0  0  0  0  0  0  0  0  0  0  0
   56.2720   29.8810   45.1570 N   0  0  0  0  0  0  0  0  0  0  0  0
   56.8800   30.8230   44.2590 C   0  0  0  0  0  0  0  0  0  0  0  0
   56.7140   30.7070   42.8680 C   0  0  0  0  0  0  0  0  0  0  0  0
   57.3210   31.6240   42.0070 C   0  0  0  0  0  0  0  0  0  0  0  0
   58.0820   32.6730   42.5250 C   0  0  0  0  0  0  0  0  0  0  0  0
   58.2350   32.8150   43.9080 C   0  0  0  0  0  0  0  0  0  0  0  0
   59.1990   34.1550   44.5190 Cl  0  0  0  0  0  0  0  0  0  0  0  0
   57.6280   31.8950   44.7810 C   0  0  0  0  0  0  0  0  0  0  0  0
   57.8270   32.0550   46.5260 Cl  0  0  0  0  0  0  0  0  0  0  0  0
   59.7753   26.1397   46.0230 H   0  0  0  0  0  0  0  0  0  0  0  0
   61.0989   25.8536   48.1173 H   0  0  0  0  0  0  0  0  0  0  0  0
   61.0200   27.5985   49.8990 H   0  0  0  0  0  0  0  0  0  0  0  0
   57.8977   30.7840   48.9529 H   0  0  0  0  0  0  0  0  0  0  0  0
   58.1047   30.9700   50.7321 H   0  0  0  0  0  0  0  0  0  0  0  0
   58.9597   32.7351   48.5986 H   0  0  0  0  0  0  0  0  0  0  0  0
   59.0727   32.9522   50.3957 H   0  0  0  0  0  0  0  0  0  0  0  0
   61.3098   32.9657   50.0513 H   0  0  0  0  0  0  0  0  0  0  0  0
   61.1157   31.1717   49.9019 H   0  0  0  0  0  0  0  0  0  0  0  0
   60.1805   33.6802   47.0985 H   0  0  0  0  0  0  0  0  0  0  0  0
   61.3830   34.2987   48.3020 H   0  0  0  0  0  0  0  0  0  0  0  0
   62.0459   33.0501   45.5924 H   0  0  0  0  0  0  0  0  0  0  0  0
   62.0650   34.8273   46.0160 H   0  0  0  0  0  0  0  0  0  0  0  0
   64.7556   32.3680   47.8198 H   0  0  0  0  0  0  0  0  0  0  0  0
   63.6375   33.4119   48.8218 H   0  0  0  0  0  0  0  0  0  0  0  0
   62.7951   31.0766   47.0529 H   0  0  0  0  0  0  0  0  0  0  0  0
   62.9275   31.0775   48.8626 H   0  0  0  0  0  0  0  0  0  0  0  0
   58.3080   29.9446   47.4705 H   0  0  0  0  0  0  0  0  0  0  0  0
   56.1033   29.8903   42.4557 H   0  0  0  0  0  0  0  0  0  0  0  0
   57.1991   31.5193   40.9188 H   0  0  0  0  0  0  0  0  0  0  0  0
   58.5629   33.3902   41.8436 H   0  0  0  0  0  0  0  0  0  0  0  0
  1  2  2  0
  2  3  1  0
  3  4  1  0
  4  5  2  0
  5  6  1  0
  6  7  2  0
  7  8  1  0
  8  9  1  0
  9 10  1  0
 10 11  1  0
 11 12  1  0
 12 13  1  0
 13 14  1  0
 14 15  1  0
 15 16  1  0
 16 17  1  0
 17 18  1  0
  8 19  2  0
  2 20  1  0
 20 21  1  0
 21 22  2  0
 22 23  1  0
 23 24  2  0
 24 25  1  0
 25 26  1  0
 25 27  2  0
 27 28  1  0
 19  4  1  0
 27 21  1  0
 18 13  1  0
  5 29  1  0
  6 30  1  0
  7 31  1  0
 10 32  1  0
 10 33  1  0
 11 34  1  0
 11 35  1  0
 12 36  1  0
 12 37  1  0
 14 38  1  0
 14 39  1  0
 15 40  1  0
 15 41  1  0
 17 42  1  0
 17 43  1  0
 18 44  1  0
 18 45  1  0
 19 46  1  0
 22 47  1  0
 23 48  1  0
 24 49  1  0
M  CHG  2   3  -1  20  -1
M  END
>  <UniqueID>  (29) 
29

>  <SMILES>  (29) 
O=C([N-]c1cccc(OCCCN2CCOCC2)c1)[N-]c1cccc(Cl)c1Cl

>  <Energy>  (29) 
69.3520536426882

>  <Genealogy>  (29) 
O=C([N-]c1cccc(OCCCN2CCOCC2)c1)[N-]c1cccc(Cl)c1Cl (protonated)
O=C([N-]c1cccc(OCCCN2CCOCC2)c1)[N-]c1cccc(Cl)c1Cl (3D coordinates assigned)
O=C([N-]c1cccc(OCCCN2CCOCC2)c1)[N-]c1cccc(Cl)c1Cl (nonaromatic ring conformer: 69.3520536426882 kcal/mol)

>  <smiles>  (29) 
O=C(Nc1cccc(OCCCN2CCOCC2)c1)Nc1cccc(Cl)c1Cl

>  <score_type>  (29) 
oracle

>  <origin>  (29) 
adg

>  <m_score__min__energy>  (29) 
-11.41

>  <m_primary>  (29) 
energy

$$$$
29:0
     RDKit          3D

 44 45  0  0  0  0  0  0  0  0999 V2000
   60.4870   27.8800   48.3250 C   0  0  0  0  0  0  0  0  0  0  0  0
   60.2410   29.3330   48.7540 C   0  0  0  0  0  0  0  0  0  0  0  0
   60.9940   30.3080   47.8380 C   0  0  0  0  0  0  0  0  0  0  0  0
   58.7350   29.6650   48.8460 C   0  0  0  0  0  0  0  0  0  0  0  0
   58.3700   30.4530   50.0700 C   0  0  0  0  0  0  0  0  0  0  0  0
   57.7610   29.8870   51.0160 O   0  0  0  0  0  0  0  0  0  0  0  0
   58.6540   31.8580   50.1140 N   0  0  0  0  0  0  0  0  0  0  0  0
   58.8740   32.7240   48.9910 C   0  0  0  0  0  0  0  0  0  0  0  0
   59.8560   33.7140   49.0910 C   0  0  0  0  0  0  0  0  0  0  0  0
   60.0920   34.5870   48.0270 C   0  0  0  0  0  0  0  0  0  0  0  0
   59.3270   34.4990   46.8600 C   0  0  0  0  0  0  0  0  0  0  0  0
   59.6430   35.6190   45.5430 Cl  0  0  0  0  0  0  0  0  0  0  0  0
   58.3030   33.5420   46.7600 C   0  0  0  0  0  0  0  0  0  0  0  0
   57.5160   33.4750   45.5610 N   0  0  0  0  0  0  0  0  0  0  0  0
   57.6010   32.4690   44.5430 C   0  0  0  0  0  0  0  0  0  0  0  0
   57.7840   32.8320   43.3500 O   0  0  0  0  0  0  0  0  0  0  0  0
   57.4330   31.0270   44.8450 C   0  0  0  0  0  0  0  0  0  0  0  0
   56.2500   30.3510   44.4960 C   0  0  0  0  0  0  0  0  0  0  0  0
   56.0950   28.9960   44.8010 C   0  0  0  0  0  0  0  0  0  0  0  0
   57.1190   28.2960   45.4510 C   0  0  0  0  0  0  0  0  0  0  0  0
   56.9190   26.5880   45.8240 S   0  0  0  0  0  0  0  0  0  0  0  0
   55.2400   26.2280   46.0010 N   0  0  0  0  0  0  0  0  0  0  0  0
   57.4940   25.7520   44.7150 O   0  0  0  0  0  0  0  0  0  0  0  0
   57.6430   26.2590   47.1000 O   0  0  0  0  0  0  0  0  0  0  0  0
   58.3100   28.9580   45.7750 C   0  0  0  0  0  0  0  0  0  0  0  0
   58.4680   30.3140   45.4720 C   0  0  0  0  0  0  0  0  0  0  0  0
   58.0930   32.6440   47.8240 C   0  0  0  0  0  0  0  0  0  0  0  0
   60.5942   27.2471   49.2183 H   0  0  0  0  0  0  0  0  0  0  0  0
   59.6360   27.5259   47.7246 H   0  0  0  0  0  0  0  0  0  0  0  0
   61.4071   27.8257   47.7246 H   0  0  0  0  0  0  0  0  0  0  0  0
   60.6443   29.4533   49.7703 H   0  0  0  0  0  0  0  0  0  0  0  0
   61.5521   31.0306   48.4515 H   0  0  0  0  0  0  0  0  0  0  0  0
   61.6956   29.7470   47.2031 H   0  0  0  0  0  0  0  0  0  0  0  0
   60.2739   30.8450   47.2031 H   0  0  0  0  0  0  0  0  0  0  0  0
   58.4524   30.2498   47.9582 H   0  0  0  0  0  0  0  0  0  0  0  0
   58.1954   28.7082   48.9040 H   0  0  0  0  0  0  0  0  0  0  0  0
   60.4469   33.8059   50.0143 H   0  0  0  0  0  0  0  0  0  0  0  0
   60.8831   35.3471   48.1073 H   0  0  0  0  0  0  0  0  0  0  0  0
   55.4427   30.8916   43.9803 H   0  0  0  0  0  0  0  0  0  0  0  0
   55.1641   28.4768   44.5292 H   0  0  0  0  0  0  0  0  0  0  0  0
   54.7860   27.0780   46.4020 H   0  0  0  0  0  0  0  0  0  0  0  0
   59.1246   28.4089   46.2699 H   0  0  0  0  0  0  0  0  0  0  0  0
   59.4083   30.8252   45.7262 H   0  0  0  0  0  0  0  0  0  0  0  0
   57.3119   31.8738   47.7419 H   0  0  0  0  0  0  0  0  0  0  0  0
  1  2  1  0
  2  3  1  0
  2  4  1  0
  4  5  1  0
  5  6  2  0
  5  7  1  0
  7  8  1  0
  8  9  2  0
  9 10  1  0
 10 11  2  0
 11 12  1  0
 11 13  1  0
 13 14  1  0
 14 15  1  0
 15 16  2  0
 15 17  1  0
 17 18  2  0
 18 19  1  0
 19 20  2  0
 20 21  1  0
 21 22  1  0
 21 23  2  0
 21 24  2  0
 20 25  1  0
 25 26  2  0
 13 27  2  0
 27  8  1  0
 26 17  1  0
  1 28  1  0
  1 29  1  0
  1 30  1  0
  2 31  1  0
  3 32  1  0
  3 33  1  0
  3 34  1  0
  4 35  1  0
  4 36  1  0
  9 37  1  0
 10 38  1  0
 18 39  1  0
 19 40  1  0
 22 41  1  0
 25 42  1  0
 26 43  1  0
 27 44  1  0
M  CHG  3   7  -1  14  -1  22  -1
M  END
>  <UniqueID>  (30) 
30

>  <SMILES>  (30) 
CC(C)CC(=O)[N-]c1ccc(Cl)c([N-]C(=O)c2ccc(S([NH-])(=O)=O)cc2)c1

>  <Energy>  (30) 
48.06979648081478

>  <Genealogy>  (30) 
CC(C)CC(=O)[N-]c1ccc(Cl)c([N-]C(=O)c2ccc(S([NH-])(=O)=O)cc2)c1 (protonated)
CC(C)CC(=O)[N-]c1ccc(Cl)c([N-]C(=O)c2ccc(S([NH-])(=O)=O)cc2)c1 (3D coordinates assigned)
CC(C)CC(=O)[N-]c1ccc(Cl)c([N-]C(=O)c2ccc(S([NH-])(=O)=O)cc2)c1 (optimized conformer: 48.06979648081478 kcal/mol)

>  <smiles>  (30) 
CC(C)CC(=O)Nc1ccc(Cl)c(NC(=O)c2ccc(S(N)(=O)=O)cc2)c1

>  <score_type>  (30) 
oracle

>  <origin>  (30) 
adg

>  <m_score__min__energy>  (30) 
-13.08

>  <m_primary>  (30) 
energy

$$$$
30:0
     RDKit          3D

 39 41  0  0  0  0  0  0  0  0999 V2000
   59.9440   36.1160   46.0200 N   0  0  0  0  0  0  0  0  0  0  0  0
   59.9840   34.6820   46.9830 S   0  0  0  0  0  0  0  0  0  0  0  0
   61.4100   34.2720   47.2200 O   0  0  0  0  0  0  0  0  0  0  0  0
   59.3330   34.9570   48.3100 O   0  0  0  0  0  0  0  0  0  0  0  0
   59.1290   33.3890   46.1490 C   0  0  0  0  0  0  0  0  0  0  0  0
   59.4910   32.0540   46.3720 C   0  0  0  0  0  0  0  0  0  0  0  0
   58.8270   31.0230   45.7030 C   0  0  0  0  0  0  0  0  0  0  0  0
   57.7810   31.3090   44.8160 C   0  0  0  0  0  0  0  0  0  0  0  0
   57.1490   30.2190   44.1240 N   0  0  0  0  0  0  0  0  0  0  0  0
   56.9710   29.0130   44.5770 C   0  0  0  0  0  0  0  0  0  0  0  0
   55.8590   28.5990   45.2270 N   0  0  0  0  0  0  0  0  0  0  0  0
   55.9760   27.3060   45.6290 C   0  0  0  0  0  0  0  0  0  0  0  0
   54.9620   26.6660   46.3300 O   0  0  0  0  0  0  0  0  0  0  0  0
   57.1790   26.6870   45.2950 C   0  0  0  0  0  0  0  0  0  0  0  0
   57.6050   25.3070   45.6840 C   0  0  0  0  0  0  0  0  0  0  0  0
   58.0960   25.3070   47.0950 C   0  0  0  0  0  0  0  0  0  0  0  0
   57.3910   24.7880   48.0010 O   0  0  0  0  0  0  0  0  0  0  0  0
   59.3660   25.8990   47.3970 N   0  0  0  0  0  0  0  0  0  0  0  0
   59.5870   27.1340   48.0930 C   0  0  0  0  0  0  0  0  0  0  0  0
   58.7180   28.2070   47.8480 C   0  0  0  0  0  0  0  0  0  0  0  0
   58.8830   29.4190   48.5260 C   0  0  0  0  0  0  0  0  0  0  0  0
   59.9090   29.5630   49.4630 C   0  0  0  0  0  0  0  0  0  0  0  0
   60.7670   28.4930   49.7300 C   0  0  0  0  0  0  0  0  0  0  0  0
   60.6050   27.2780   49.0540 C   0  0  0  0  0  0  0  0  0  0  0  0
   58.1440   27.8120   44.4950 S   0  0  0  0  0  0  0  0  0  0  0  0
   57.4400   32.6520   44.5680 C   0  0  0  0  0  0  0  0  0  0  0  0
   58.1070   33.6830   45.2350 C   0  0  0  0  0  0  0  0  0  0  0  0
   59.4250   35.8810   45.1450 H   0  0  0  0  0  0  0  0  0  0  0  0
   60.3015   31.8167   47.0769 H   0  0  0  0  0  0  0  0  0  0  0  0
   59.1277   29.9788   45.8739 H   0  0  0  0  0  0  0  0  0  0  0  0
   56.7488   24.6221   45.5954 H   0  0  0  0  0  0  0  0  0  0  0  0
   58.4153   24.9761   45.0178 H   0  0  0  0  0  0  0  0  0  0  0  0
   57.9022   28.0948   47.1187 H   0  0  0  0  0  0  0  0  0  0  0  0
   58.2041   30.2599   48.3212 H   0  0  0  0  0  0  0  0  0  0  0  0
   60.0415   30.5190   49.9908 H   0  0  0  0  0  0  0  0  0  0  0  0
   61.5708   28.6056   50.4724 H   0  0  0  0  0  0  0  0  0  0  0  0
   61.2749   26.4338   49.2744 H   0  0  0  0  0  0  0  0  0  0  0  0
   56.6451   32.8909   43.8461 H   0  0  0  0  0  0  0  0  0  0  0  0
   57.8291   34.7297   45.0422 H   0  0  0  0  0  0  0  0  0  0  0  0
  1  2  1  0
  2  3  2  0
  2  4  2  0
  2  5  1  0
  5  6  2  0
  6  7  1  0
  7  8  2  0
  8  9  1  0
  9 10  2  3
 10 11  1  0
 11 12  1  0
 12 13  1  0
 12 14  2  0
 14 15  1  0
 15 16  1  0
 16 17  2  0
 16 18  1  0
 18 19  1  0
 19 20  2  0
 20 21  1  0
 21 22  2  0
 22 23  1  0
 23 24  2  0
 14 25  1  0
  8 26  1  0
 26 27  2  0
 27  5  1  0
 25 10  1  0
 24 19  1  0
  1 28  1  0
  6 29  1  0
  7 30  1  0
 15 31  1  0
 15 32  1  0
 20 33  1  0
 21 34  1  0
 22 35  1  0
 23 36  1  0
 24 37  1  0
 26 38  1  0
 27 39  1  0
M  CHG  4   1  -1  11  -1  13  -1  18  -1
M  END
>  <UniqueID>  (31) 
31

>  <SMILES>  (31) 
[NH-]S(=O)(=O)c1ccc(N=c2[n-]c([O-])c(CC(=O)[N-]c3ccccc3)s2)cc1

>  <Energy>  (31) 
78.5930886214667

>  <Genealogy>  (31) 
[NH-]S(=O)(=O)c1ccc(N=c2[n-]c([O-])c(CC(=O)[N-]c3ccccc3)s2)cc1 (protonated)
[NH-]S(=O)(=O)c1ccc(N=c2[n-]c([O-])c(CC(=O)[N-]c3ccccc3)s2)cc1 (3D coordinates assigned)
[NH-]S(=O)(=O)c1ccc(N=c2[n-]c([O-])c(CC(=O)[N-]c3ccccc3)s2)cc1 (optimized conformer: 78.5930886214667 kcal/mol)

>  <smiles>  (31) 
NS(=O)(=O)c1ccc(N=c2[nH]c(O)c(CC(=O)Nc3ccccc3)s2)cc1

>  <score_type>  (31) 
oracle

>  <origin>  (31) 
adg

>  <m_score__min__energy>  (31) 
-15.51

>  <m_primary>  (31) 
energy

$$$$
31:0
     RDKit          3D

 66 69  0  0  0  0  0  0  0  0999 V2000
   58.0560   32.2650   42.2280 C   0  0  0  0  0  0  0  0  0  0  0  0
   57.5350   31.4030   43.3400 C   0  0  0  0  0  0  0  0  0  0  0  0
   56.5920   30.0370   43.0560 S   0  0  0  0  0  0  0  0  0  0  0  0
   56.4640   29.6530   44.6880 C   0  0  0  0  0  0  0  0  0  0  0  0
   55.7730   28.6790   45.2020 N   0  0  0  0  0  0  0  0  0  0  0  0
   56.2700   27.4230   45.6910 C   0  0  0  0  0  0  0  0  0  0  0  0
   55.4800   26.4910   46.0010 O   0  0  0  0  0  0  0  0  0  0  0  0
   57.7280   27.2270   45.8180 C   0  0  0  0  0  0  0  0  0  0  0  0
   58.6160   28.1500   46.3390 C   0  0  0  0  0  0  0  0  0  0  0  0
   59.8450   27.6110   46.4240 N   0  0  0  0  0  0  0  0  0  0  0  0
   59.7630   26.3480   45.9700 C   0  0  0  0  0  0  0  0  0  0  0  0
   58.4680   26.0740   45.5730 C   0  0  0  0  0  0  0  0  0  0  0  0
   58.0050   24.8050   44.9830 C   0  0  0  0  0  0  0  0  0  0  0  0
   57.1450   24.8190   43.8740 C   0  0  0  0  0  0  0  0  0  0  0  0
   56.7050   23.6170   43.3090 C   0  0  0  0  0  0  0  0  0  0  0  0
   57.1000   22.3960   43.8670 C   0  0  0  0  0  0  0  0  0  0  0  0
   57.9360   22.3750   44.9900 C   0  0  0  0  0  0  0  0  0  0  0  0
   58.3900   23.5760   45.5450 C   0  0  0  0  0  0  0  0  0  0  0  0
   57.1340   30.5350   45.4550 N   0  0  0  0  0  0  0  0  0  0  0  0
   57.7650   31.5050   44.7310 C   0  0  0  0  0  0  0  0  0  0  0  0
   58.5190   32.6360   45.4420 C   0  0  1  0  0  0  0  0  0  0  0  0
   58.7170   33.7830   44.4220 C   0  0  0  0  0  0  0  0  0  0  0  0
   57.6710   33.1670   46.6350 C   0  0  0  0  0  0  0  0  0  0  0  0
   58.3970   34.1530   47.4530 N   0  0  0  0  0  0  0  0  0  0  0  0
   59.8230   33.8140   47.6260 C   0  0  1  0  0  0  0  0  0  0  0  0
   60.2390   34.1220   49.0340 C   0  0  0  0  0  0  0  0  0  0  0  0
   59.4140   34.6530   49.8270 O   0  0  0  0  0  0  0  0  0  0  0  0
   61.5440   33.7450   49.4980 N   0  0  0  0  0  0  0  0  0  0  0  0
   61.9250   33.7890   50.9080 C   0  0  0  0  0  0  0  0  0  0  0  0
   63.4470   33.6620   51.0750 C   0  0  0  0  0  0  0  0  0  0  0  0
   64.0740   33.0220   49.8970 N   0  0  0  0  0  0  0  0  0  0  0  0
   65.5450   33.0880   49.9740 C   0  0  0  0  0  0  0  0  0  0  0  0
   63.6510   31.6150   49.8040 C   0  0  0  0  0  0  0  0  0  0  0  0
   60.0570   32.4400   47.3910 O   0  0  0  0  0  0  0  0  0  0  0  0
   59.8940   32.1480   46.0160 C   0  0  0  0  0  0  0  0  0  0  0  0
   58.5809   33.1335   42.6525 H   0  0  0  0  0  0  0  0  0  0  0  0
   58.7532   31.6822   41.6081 H   0  0  0  0  0  0  0  0  0  0  0  0
   57.2159   32.6113   41.6081 H   0  0  0  0  0  0  0  0  0  0  0  0
   58.3552   29.1754   46.6400 H   0  0  0  0  0  0  0  0  0  0  0  0
   60.7000   28.0760   46.8030 H   0  0  0  0  0  0  0  0  0  0  0  0
   60.6021   25.6383   45.9218 H   0  0  0  0  0  0  0  0  0  0  0  0
   56.8158   25.7781   43.4476 H   0  0  0  0  0  0  0  0  0  0  0  0
   56.0487   23.6318   42.4263 H   0  0  0  0  0  0  0  0  0  0  0  0
   56.7532   21.4513   43.4227 H   0  0  0  0  0  0  0  0  0  0  0  0
   58.2355   21.4148   45.4354 H   0  0  0  0  0  0  0  0  0  0  0  0
   59.0506   23.5583   46.4243 H   0  0  0  0  0  0  0  0  0  0  0  0
   58.8802   34.7283   44.9603 H   0  0  0  0  0  0  0  0  0  0  0  0
   59.5908   33.5652   43.7904 H   0  0  0  0  0  0  0  0  0  0  0  0
   57.8207   33.8708   43.7904 H   0  0  0  0  0  0  0  0  0  0  0  0
   56.7616   33.6410   46.2371 H   0  0  0  0  0  0  0  0  0  0  0  0
   57.4328   32.3094   47.2814 H   0  0  0  0  0  0  0  0  0  0  0  0
   58.3270   35.0880   46.9900 H   0  0  0  0  0  0  0  0  0  0  0  0
   60.4011   34.4073   46.9023 H   0  0  0  0  0  0  0  0  0  0  0  0
   62.2510   33.4040   48.8080 H   0  0  0  0  0  0  0  0  0  0  0  0
   61.5950   34.7456   51.3394 H   0  0  0  0  0  0  0  0  0  0  0  0
   61.4456   32.9450   51.4255 H   0  0  0  0  0  0  0  0  0  0  0  0
   63.8765   34.6661   51.2063 H   0  0  0  0  0  0  0  0  0  0  0  0
   63.6447   33.0314   51.9544 H   0  0  0  0  0  0  0  0  0  0  0  0
   65.8567   33.1020   51.0288 H   0  0  0  0  0  0  0  0  0  0  0  0
   65.9781   32.2084   49.4753 H   0  0  0  0  0  0  0  0  0  0  0  0
   65.8976   34.0029   49.4753 H   0  0  0  0  0  0  0  0  0  0  0  0
   63.5268   31.2018   50.8159 H   0  0  0  0  0  0  0  0  0  0  0  0
   62.6950   31.5545   49.2633 H   0  0  0  0  0  0  0  0  0  0  0  0
   64.4152   31.0373   49.2633 H   0  0  0  0  0  0  0  0  0  0  0  0
   60.7020   32.6407   45.4554 H   0  0  0  0  0  0  0  0  0  0  0  0
   59.9249   31.0538   45.9073 H   0  0  0  0  0  0  0  0  0  0  0  0
  1  2  1  0
  2  3  1  0
  3  4  1  0
  4  5  2  3
  5  6  1  0
  6  7  2  0
  6  8  1  0
  8  9  2  0
  9 10  1  0
 10 11  1  0
 11 12  2  0
 12 13  1  0
 13 14  2  0
 14 15  1  0
 15 16  2  0
 16 17  1  0
 17 18  2  0
  4 19  1  0
 19 20  1  0
 20 21  1  0
 21 22  1  6
 21 23  1  0
 23 24  1  0
 24 25  1  0
 25 26  1  0
 26 27  2  0
 26 28  1  0
 28 29  1  0
 29 30  1  0
 30 31  1  0
 31 32  1  0
 31 33  1  0
 25 34  1  0
 34 35  1  0
 20  2  2  0
 35 21  1  0
 12  8  1  0
 18 13  1  0
  1 36  1  0
  1 37  1  0
  1 38  1  0
  9 39  1  0
 10 40  1  0
 11 41  1  0
 14 42  1  0
 15 43  1  0
 16 44  1  0
 17 45  1  0
 18 46  1  0
 22 47  1  0
 22 48  1  0
 22 49  1  0
 23 50  1  0
 23 51  1  0
 24 52  1  0
 25 53  1  6
 28 54  1  0
 29 55  1  0
 29 56  1  0
 30 57  1  0
 30 58  1  0
 32 59  1  0
 32 60  1  0
 32 61  1  0
 33 62  1  0
 33 63  1  0
 33 64  1  0
 35 65  1  0
 35 66  1  0
M  CHG  1  19  -1
M  END
>  <UniqueID>  (32) 
32

>  <SMILES>  (32) 
Cc1sc(=NC(=O)c2c[nH]cc2-c2ccccc2)[n-]c1[C@@]1(C)CN[C@@H](C(=O)NCCN(C)C)OC1

>  <Energy>  (32) 
143.22227932467663

>  <Genealogy>  (32) 
Cc1sc(=NC(=O)c2c[nH]cc2-c2ccccc2)[n-]c1C1(C)CNC(C(=O)NCCN(C)C)OC1 (protonated)
Cc1sc(=NC(=O)c2c[nH]cc2-c2ccccc2)[n-]c1[C@@]1(C)CN[C@@H](C(=O)NCCN(C)C)OC1 (chirality)
Cc1sc(=NC(=O)c2c[nH]cc2-c2ccccc2)[n-]c1[C@@]1(C)CN[C@@H](C(=O)NCCN(C)C)OC1 (3D coordinates assigned)
Cc1sc(=NC(=O)c2c[nH]cc2-c2ccccc2)[n-]c1[C@@]1(C)CN[C@@H](C(=O)NCCN(C)C)OC1 (nonaromatic ring conformer: 143.22227932467663 kcal/mol)

>  <smiles>  (32) 
Cc1sc(=NC(=O)c2c[nH]cc2-c2ccccc2)[nH]c1C1(C)CNC(C(=O)NCCN(C)C)OC1

>  <score_type>  (32) 
oracle

>  <origin>  (32) 
adg

>  <m_score__min__energy>  (32) 
-11.24

>  <m_primary>  (32) 
energy

$$$$
32:0
     RDKit          3D

 45 47  0  0  0  0  0  0  0  0999 V2000
   61.3040   28.9550   44.5070 C   0  0  0  0  0  0  0  0  0  0  0  0
   60.2570   29.6810   45.1450 O   0  0  0  0  0  0  0  0  0  0  0  0
   58.8870   29.4120   45.0030 C   0  0  0  0  0  0  0  0  0  0  0  0
   58.3120   28.2480   45.5570 C   0  0  0  0  0  0  0  0  0  0  0  0
   56.9350   27.9910   45.4450 C   0  0  0  0  0  0  0  0  0  0  0  0
   56.3550   26.7500   46.0300 C   0  0  0  0  0  0  0  0  0  0  0  0
   57.2150   25.6950   46.6590 C   0  0  0  0  0  0  0  0  0  0  0  0
   55.1070   26.5670   46.0000 O   0  0  0  0  0  0  0  0  0  0  0  0
   56.1270   28.9280   44.7820 C   0  0  0  0  0  0  0  0  0  0  0  0
   56.6840   30.0830   44.2350 C   0  0  0  0  0  0  0  0  0  0  0  0
   58.0580   30.3280   44.3120 C   0  0  0  0  0  0  0  0  0  0  0  0
   58.5280   31.4990   43.6900 O   0  0  0  0  0  0  0  0  0  0  0  0
   58.3940   32.8410   44.1650 C   0  0  0  0  0  0  0  0  0  0  0  0
   57.1920   32.9950   45.1120 C   0  0  0  0  0  0  0  0  0  0  0  0
   57.4870   33.8900   46.3260 C   0  0  0  0  0  0  0  0  0  0  0  0
   58.8350   33.6590   46.8470 N   0  0  0  0  0  0  0  0  0  0  0  0
   59.9850   34.4700   46.5950 C   0  0  0  0  0  0  0  0  0  0  0  0
   59.9460   35.6060   46.0510 O   0  0  0  0  0  0  0  0  0  0  0  0
   61.1870   33.7840   47.0420 C   0  0  0  0  0  0  0  0  0  0  0  0
   62.3710   34.2050   46.9750 O   0  0  0  0  0  0  0  0  0  0  0  0
   60.7340   32.5080   47.5720 C   0  0  0  0  0  0  0  0  0  0  0  0
   61.4580   31.4550   48.1280 C   0  0  0  0  0  0  0  0  0  0  0  0
   60.7500   30.3200   48.5560 C   0  0  0  0  0  0  0  0  0  0  0  0
   61.4190   29.2710   49.0940 F   0  0  0  0  0  0  0  0  0  0  0  0
   59.3470   30.2610   48.4210 C   0  0  0  0  0  0  0  0  0  0  0  0
   58.6370   31.3380   47.8630 C   0  0  0  0  0  0  0  0  0  0  0  0
   59.3560   32.4590   47.4380 C   0  0  0  0  0  0  0  0  0  0  0  0
   61.9550   28.5036   45.2701 H   0  0  0  0  0  0  0  0  0  0  0  0
   60.8708   28.1624   43.8792 H   0  0  0  0  0  0  0  0  0  0  0  0
   61.8944   29.6385   43.8792 H   0  0  0  0  0  0  0  0  0  0  0  0
   58.9539   27.5285   46.0864 H   0  0  0  0  0  0  0  0  0  0  0  0
   57.1504   25.7742   47.7542 H   0  0  0  0  0  0  0  0  0  0  0  0
   56.8666   24.7009   46.3421 H   0  0  0  0  0  0  0  0  0  0  0  0
   58.2589   25.8359   46.3421 H   0  0  0  0  0  0  0  0  0  0  0  0
   55.0452   28.7494   44.6933 H   0  0  0  0  0  0  0  0  0  0  0  0
   56.0315   30.8136   43.7345 H   0  0  0  0  0  0  0  0  0  0  0  0
   59.3107   33.1207   44.7049 H   0  0  0  0  0  0  0  0  0  0  0  0
   58.2309   33.4961   43.2965 H   0  0  0  0  0  0  0  0  0  0  0  0
   56.3569   33.4357   44.5478 H   0  0  0  0  0  0  0  0  0  0  0  0
   56.9489   31.9934   45.4963 H   0  0  0  0  0  0  0  0  0  0  0  0
   57.3962   34.9438   46.0238 H   0  0  0  0  0  0  0  0  0  0  0  0
   56.7640   33.6465   47.1184 H   0  0  0  0  0  0  0  0  0  0  0  0
   62.5519   31.5111   48.2287 H   0  0  0  0  0  0  0  0  0  0  0  0
   58.8041   29.3646   48.7553 H   0  0  0  0  0  0  0  0  0  0  0  0
   57.5422   31.2998   47.7631 H   0  0  0  0  0  0  0  0  0  0  0  0
  1  2  1  0
  2  3  1  0
  3  4  2  0
  4  5  1  0
  5  6  1  0
  6  7  1  0
  6  8  2  0
  5  9  2  0
  9 10  1  0
 10 11  2  0
 11 12  1  0
 12 13  1  0
 13 14  1  0
 14 15  1  0
 15 16  1  0
 16 17  1  0
 17 18  2  0
 17 19  1  0
 19 20  2  0
 19 21  1  0
 21 22  2  0
 22 23  1  0
 23 24  1  0
 23 25  2  0
 25 26  1  0
 26 27  2  0
 11  3  1  0
 27 16  1  0
 27 21  1  0
  1 28  1  0
  1 29  1  0
  1 30  1  0
  4 31  1  0
  7 32  1  0
  7 33  1  0
  7 34  1  0
  9 35  1  0
 10 36  1  0
 13 37  1  0
 13 38  1  0
 14 39  1  0
 14 40  1  0
 15 41  1  0
 15 42  1  0
 22 43  1  0
 25 44  1  0
 26 45  1  0
M  END
>  <UniqueID>  (33) 
33

>  <SMILES>  (33) 
COc1cc(C(C)=O)ccc1OCCCN1C(=O)C(=O)c2cc(F)ccc21

>  <Energy>  (33) 
78.03769854853445

>  <Genealogy>  (33) 
COc1cc(C(C)=O)ccc1OCCCN1C(=O)C(=O)c2cc(F)ccc21 (3D coordinates assigned)
COc1cc(C(C)=O)ccc1OCCCN1C(=O)C(=O)c2cc(F)ccc21 (nonaromatic ring conformer: 78.03769854853445 kcal/mol)

>  <smiles>  (33) 
COc1cc(C(C)=O)ccc1OCCCN1C(=O)C(=O)c2cc(F)ccc21

>  <score_type>  (33) 
oracle

>  <origin>  (33) 
adg

>  <m_score__min__energy>  (33) 
-8.0700000000000003

>  <m_primary>  (33) 
energy

$$$$
33:0
     RDKit          3D

 39 40  0  0  0  0  0  0  0  0999 V2000
   58.0850   32.5890   42.9720 C   0  0  0  0  0  0  0  0  0  0  0  0
   58.2650   33.1110   44.3300 N   0  0  0  0  0  0  0  0  0  0  0  0
   58.9320   34.4040   44.5200 C   0  0  0  0  0  0  0  0  0  0  0  0
   57.6200   32.4320   45.4300 C   0  0  0  0  0  0  0  0  0  0  0  0
   56.7110   31.5930   45.1960 O   0  0  0  0  0  0  0  0  0  0  0  0
   57.9400   32.7200   46.7990 N   0  0  0  0  0  0  0  0  0  0  0  0
   59.2490   32.9770   47.3270 C   0  0  0  0  0  0  0  0  0  0  0  0
   59.5030   34.2440   47.8660 C   0  0  0  0  0  0  0  0  0  0  0  0
   60.7800   34.5790   48.3190 C   0  0  0  0  0  0  0  0  0  0  0  0
   61.8130   33.6450   48.2480 C   0  0  0  0  0  0  0  0  0  0  0  0
   61.5670   32.3650   47.7470 C   0  0  0  0  0  0  0  0  0  0  0  0
   60.2810   32.0030   47.3050 C   0  0  0  0  0  0  0  0  0  0  0  0
   60.0450   30.6020   46.8830 C   0  0  0  0  0  0  0  0  0  0  0  0
   60.9920   29.7720   46.9500 O   0  0  0  0  0  0  0  0  0  0  0  0
   58.7260   30.1660   46.5100 N   0  0  0  0  0  0  0  0  0  0  0  0
   58.4320   28.9160   45.8570 C   0  0  0  0  0  0  0  0  0  0  0  0
   59.0860   28.5260   44.6760 C   0  0  0  0  0  0  0  0  0  0  0  0
   58.7540   27.3220   44.0500 C   0  0  0  0  0  0  0  0  0  0  0  0
   57.7610   26.5000   44.5880 C   0  0  0  0  0  0  0  0  0  0  0  0
   57.0810   26.8790   45.7580 C   0  0  0  0  0  0  0  0  0  0  0  0
   56.0500   26.0400   46.3120 N   0  0  0  0  0  0  0  0  0  0  0  0
   56.3360   25.1140   47.0980 O   0  0  0  0  0  0  0  0  0  0  0  0
   54.7290   26.2450   45.9810 O   0  0  0  0  0  0  0  0  0  0  0  0
   57.4200   28.0930   46.3810 C   0  0  0  0  0  0  0  0  0  0  0  0
   57.7268   31.5502   43.0230 H   0  0  0  0  0  0  0  0  0  0  0  0
   57.3475   33.2053   42.4370 H   0  0  0  0  0  0  0  0  0  0  0  0
   59.0457   32.6198   42.4370 H   0  0  0  0  0  0  0  0  0  0  0  0
   59.0371   34.6078   45.5958 H   0  0  0  0  0  0  0  0  0  0  0  0
   59.9277   34.3750   44.0533 H   0  0  0  0  0  0  0  0  0  0  0  0
   58.3313   35.1986   44.0533 H   0  0  0  0  0  0  0  0  0  0  0  0
   58.6895   34.9814   47.9330 H   0  0  0  0  0  0  0  0  0  0  0  0
   60.9716   35.5803   48.7322 H   0  0  0  0  0  0  0  0  0  0  0  0
   62.8234   33.9170   48.5872 H   0  0  0  0  0  0  0  0  0  0  0  0
   62.3863   31.6327   47.6974 H   0  0  0  0  0  0  0  0  0  0  0  0
   57.9210   30.7560   46.8160 H   0  0  0  0  0  0  0  0  0  0  0  0
   59.8634   29.1721   44.2421 H   0  0  0  0  0  0  0  0  0  0  0  0
   59.2764   27.0202   43.1302 H   0  0  0  0  0  0  0  0  0  0  0  0
   57.5098   25.5504   44.0929 H   0  0  0  0  0  0  0  0  0  0  0  0
   56.8858   28.4031   47.2912 H   0  0  0  0  0  0  0  0  0  0  0  0
  1  2  1  0
  2  3  1  0
  2  4  1  0
  4  5  2  0
  4  6  1  0
  6  7  1  0
  7  8  2  0
  8  9  1  0
  9 10  2  0
 10 11  1  0
 11 12  2  0
 12 13  1  0
 13 14  2  0
 13 15  1  0
 15 16  1  0
 16 17  2  0
 17 18  1  0
 18 19  2  0
 19 20  1  0
 20 21  1  0
 21 22  2  0
 21 23  1  0
 20 24  2  0
 12  7  1  0
 24 16  1  0
  1 25  1  0
  1 26  1  0
  1 27  1  0
  3 28  1  0
  3 29  1  0
  3 30  1  0
  8 31  1  0
  9 32  1  0
 10 33  1  0
 11 34  1  0
 15 35  1  0
 17 36  1  0
 18 37  1  0
 19 38  1  0
 24 39  1  0
M  CHG  3   6  -1  21   1  23  -1
M  END
>  <UniqueID>  (34) 
34

>  <SMILES>  (34) 
CN(C)C(=O)[N-]c1ccccc1C(=O)Nc1cccc([N+](=O)[O-])c1

>  <Energy>  (34) 
53.32133839622227

>  <Genealogy>  (34) 
CN(C)C(=O)[N-]c1ccccc1C(=O)Nc1cccc([N+](=O)[O-])c1 (protonated)
CN(C)C(=O)[N-]c1ccccc1C(=O)Nc1cccc([N+](=O)[O-])c1 (3D coordinates assigned)
CN(C)C(=O)[N-]c1ccccc1C(=O)Nc1cccc([N+](=O)[O-])c1 (optimized conformer: 53.32133839622227 kcal/mol)

>  <smiles>  (34) 
CN(C)C(=O)Nc1ccccc1C(=O)Nc1cccc([N+](=O)[O-])c1

>  <score_type>  (34) 
oracle

>  <origin>  (34) 
adg

>  <m_score__min__energy>  (34) 
-9.1600000000000001

>  <m_primary>  (34) 
energy

$$$$
34:0
     RDKit          3D

 48 51  0  0  0  0  0  0  0  0999 V2000
   57.3450   29.7210   51.6290 O   0  0  0  0  0  0  0  0  0  0  0  0
   58.5460   30.0910   51.5480 C   0  0  0  0  0  0  0  0  0  0  0  0
   58.9900   30.9390   50.4370 C   0  0  0  0  0  0  0  0  0  0  0  0
   58.1670   31.6910   49.6180 C   0  0  0  0  0  0  0  0  0  0  0  0
   58.9620   32.3180   48.7300 N   0  0  0  0  0  0  0  0  0  0  0  0
   58.6400   33.1580   47.7190 C   0  0  0  0  0  0  0  0  0  0  0  0
   57.4280   33.4510   47.5170 O   0  0  0  0  0  0  0  0  0  0  0  0
   59.6420   33.6720   46.9210 N   0  0  0  0  0  0  0  0  0  0  0  0
   59.2720   34.5530   45.7870 C   0  0  0  0  0  0  0  0  0  0  0  0
   58.9130   33.7550   44.5170 C   0  0  0  0  0  0  0  0  0  0  0  0
   57.4930   33.1630   44.5380 C   0  0  0  0  0  0  0  0  0  0  0  0
   57.4450   31.9460   45.3650 N   0  0  0  0  0  0  0  0  0  0  0  0
   57.2210   30.7500   44.5430 C   0  0  0  0  0  0  0  0  0  0  0  0
   58.1700   29.6510   44.9380 C   0  0  0  0  0  0  0  0  0  0  0  0
   59.2670   29.9350   45.7670 C   0  0  0  0  0  0  0  0  0  0  0  0
   60.1630   28.9210   46.1210 C   0  0  0  0  0  0  0  0  0  0  0  0
   59.9730   27.6200   45.6460 C   0  0  0  0  0  0  0  0  0  0  0  0
   58.8860   27.3310   44.8160 C   0  0  0  0  0  0  0  0  0  0  0  0
   57.9880   28.3430   44.4600 C   0  0  0  0  0  0  0  0  0  0  0  0
   60.9680   33.3350   47.1850 C   0  0  0  0  0  0  0  0  0  0  0  0
   62.0450   33.8510   46.4220 C   0  0  0  0  0  0  0  0  0  0  0  0
   63.3640   33.4880   46.7020 C   0  0  0  0  0  0  0  0  0  0  0  0
   63.6480   32.6100   47.7460 C   0  0  0  0  0  0  0  0  0  0  0  0
   62.6160   32.0890   48.5220 C   0  0  0  0  0  0  0  0  0  0  0  0
   61.2830   32.4430   48.2540 C   0  0  0  0  0  0  0  0  0  0  0  0
   60.2170   31.9520   49.0100 C   0  0  0  0  0  0  0  0  0  0  0  0
   60.2780   31.1010   50.0580 N   0  0  0  0  0  0  0  0  0  0  0  0
   59.2674   29.7758   52.3163 H   0  0  0  0  0  0  0  0  0  0  0  0
   57.0711   31.7632   49.6802 H   0  0  0  0  0  0  0  0  0  0  0  0
   58.4031   35.1605   46.0802 H   0  0  0  0  0  0  0  0  0  0  0  0
   60.1429   35.1829   45.5530 H   0  0  0  0  0  0  0  0  0  0  0  0
   58.9962   34.4267   43.6499 H   0  0  0  0  0  0  0  0  0  0  0  0
   59.6130   32.9083   44.4614 H   0  0  0  0  0  0  0  0  0  0  0  0
   56.7980   33.9081   44.9525 H   0  0  0  0  0  0  0  0  0  0  0  0
   57.2055   32.9011   43.5091 H   0  0  0  0  0  0  0  0  0  0  0  0
   56.6360   32.0250   46.0210 H   0  0  0  0  0  0  0  0  0  0  0  0
   56.1868   30.4028   44.6841 H   0  0  0  0  0  0  0  0  0  0  0  0
   57.3953   31.0070   43.4877 H   0  0  0  0  0  0  0  0  0  0  0  0
   59.4223   30.9584   46.1393 H   0  0  0  0  0  0  0  0  0  0  0  0
   61.0185   29.1476   46.7742 H   0  0  0  0  0  0  0  0  0  0  0  0
   60.6788   26.8239   45.9253 H   0  0  0  0  0  0  0  0  0  0  0  0
   58.7366   26.3072   44.4425 H   0  0  0  0  0  0  0  0  0  0  0  0
   57.1361   28.1133   43.8031 H   0  0  0  0  0  0  0  0  0  0  0  0
   61.8388   34.5482   45.5965 H   0  0  0  0  0  0  0  0  0  0  0  0
   64.1842   33.8979   46.0944 H   0  0  0  0  0  0  0  0  0  0  0  0
   64.6899   32.3278   47.9576 H   0  0  0  0  0  0  0  0  0  0  0  0
   62.8449   31.3984   49.3470 H   0  0  0  0  0  0  0  0  0  0  0  0
   61.1170   30.6580   50.4920 H   0  0  0  0  0  0  0  0  0  0  0  0
  1  2  2  0
  2  3  1  0
  3  4  2  0
  4  5  1  0
  5  6  1  0
  6  7  2  0
  6  8  1  0
  8  9  1  0
  9 10  1  0
 10 11  1  0
 11 12  1  0
 12 13  1  0
 13 14  1  0
 14 15  2  0
 15 16  1  0
 16 17  2  0
 17 18  1  0
 18 19  2  0
  8 20  1  0
 20 21  2  0
 21 22  1  0
 22 23  2  0
 23 24  1  0
 24 25  2  0
 25 26  1  0
 26 27  2  0
 27  3  1  0
 26  5  1  0
 19 14  1  0
 25 20  1  0
  2 28  1  0
  4 29  1  0
  9 30  1  0
  9 31  1  0
 10 32  1  0
 10 33  1  0
 11 34  1  0
 11 35  1  0
 12 36  1  0
 13 37  1  0
 13 38  1  0
 15 39  1  0
 16 40  1  0
 17 41  1  0
 18 42  1  0
 19 43  1  0
 21 44  1  0
 22 45  1  0
 23 46  1  0
 24 47  1  0
 27 48  1  0
M  CHG  1  27   1
M  END
>  <UniqueID>  (35) 
35

>  <SMILES>  (35) 
O=Cc1cn2c(=O)n(CCCNCc3ccccc3)c3ccccc3c2[nH+]1

>  <Energy>  (35) 
95.24340768978453

>  <Genealogy>  (35) 
O=Cc1cn2c(=O)n(CCCNCc3ccccc3)c3ccccc3c2[nH+]1 (protonated)
O=Cc1cn2c(=O)n(CCCNCc3ccccc3)c3ccccc3c2[nH+]1 (3D coordinates assigned)
O=Cc1cn2c(=O)n(CCCNCc3ccccc3)c3ccccc3c2[nH+]1 (optimized conformer: 95.24340768978453 kcal/mol)

>  <smiles>  (35) 
O=Cc1cn2c(=O)n(CCCNCc3ccccc3)c3ccccc3c2n1

>  <score_type>  (35) 
oracle

>  <origin>  (35) 
adg

>  <m_score__min__energy>  (35) 
-6.71

>  <m_primary>  (35) 
energy

$$$$
35:0
     RDKit          3D

 53 56  0  0  0  0  0  0  0  0999 V2000
   60.2100   26.8450   49.3550 C   0  0  0  0  0  0  0  0  0  0  0  0
   60.4400   28.0480   48.4990 C   0  0  0  0  0  0  0  0  0  0  0  0
   61.1540   29.4760   49.0210 S   0  0  0  0  0  0  0  0  0  0  0  0
   61.1150   30.2650   47.5320 C   0  0  0  0  0  0  0  0  0  0  0  0
   61.5860   31.6450   47.2510 C   0  0  0  0  0  0  0  0  0  0  0  0
   62.9420   31.9470   47.4780 C   0  0  0  0  0  0  0  0  0  0  0  0
   63.4510   33.2140   47.1870 C   0  0  0  0  0  0  0  0  0  0  0  0
   62.6190   34.1950   46.6520 C   0  0  0  0  0  0  0  0  0  0  0  0
   61.2710   33.9190   46.4260 C   0  0  0  0  0  0  0  0  0  0  0  0
   60.7300   32.6670   46.7600 C   0  0  0  0  0  0  0  0  0  0  0  0
   59.2900   32.4490   46.5250 C   0  0  0  0  0  0  0  0  0  0  0  0
   58.5420   32.2820   47.5230 O   0  0  0  0  0  0  0  0  0  0  0  0
   58.7030   32.4100   45.2120 N   0  0  0  0  0  0  0  0  0  0  0  0
   58.3580   31.2550   44.3740 C   0  0  2  0  0  0  0  0  0  0  0  0
   57.3860   31.6490   43.2440 C   0  0  0  0  0  0  0  0  0  0  0  0
   56.6510   30.4200   42.7060 C   0  0  0  0  0  0  0  0  0  0  0  0
   55.8820   29.6820   43.8260 C   0  0  0  0  0  0  0  0  0  0  0  0
   56.3910   29.9860   45.1760 N   0  0  0  0  0  0  0  0  0  0  0  0
   57.8550   30.0510   45.2000 C   0  0  0  0  0  0  0  0  0  0  0  0
   60.5290   29.4080   46.6010 C   0  0  0  0  0  0  0  0  0  0  0  0
   60.1480   28.1680   47.1410 C   0  0  0  0  0  0  0  0  0  0  0  0
   59.5860   27.0910   46.3720 N   0  0  0  0  0  0  0  0  0  0  0  0
   58.1750   26.8570   46.2180 C   0  0  0  0  0  0  0  0  0  0  0  0
   57.3350   27.6380   46.7410 O   0  0  0  0  0  0  0  0  0  0  0  0
   57.6880   25.7070   45.4300 C   0  0  0  0  0  0  0  0  0  0  0  0
   57.3270   24.5290   46.1020 C   0  0  0  0  0  0  0  0  0  0  0  0
   56.8610   23.4320   45.3750 C   0  0  0  0  0  0  0  0  0  0  0  0
   56.7710   23.5000   44.0220 N   0  0  0  0  0  0  0  0  0  0  0  0
   57.1270   24.6200   43.3390 C   0  0  0  0  0  0  0  0  0  0  0  0
   57.6010   25.7440   44.0230 C   0  0  0  0  0  0  0  0  0  0  0  0
   58.1660   27.1210   43.0800 Cl  0  0  0  0  0  0  0  0  0  0  0  0
   60.2651   27.1333   50.4151 H   0  0  0  0  0  0  0  0  0  0  0  0
   59.2156   26.4267   49.1400 H   0  0  0  0  0  0  0  0  0  0  0  0
   60.9799   26.0894   49.1400 H   0  0  0  0  0  0  0  0  0  0  0  0
   63.6088   31.1751   47.8898 H   0  0  0  0  0  0  0  0  0  0  0  0
   64.5104   33.4380   47.3804 H   0  0  0  0  0  0  0  0  0  0  0  0
   63.0255   35.1875   46.4078 H   0  0  0  0  0  0  0  0  0  0  0  0
   60.6247   34.6901   45.9814 H   0  0  0  0  0  0  0  0  0  0  0  0
   59.2877   30.9164   43.8935 H   0  0  0  0  0  0  0  0  0  0  0  0
   56.6499   32.3666   43.6354 H   0  0  0  0  0  0  0  0  0  0  0  0
   57.9634   32.1012   42.4242 H   0  0  0  0  0  0  0  0  0  0  0  0
   55.9363   30.7410   41.9338 H   0  0  0  0  0  0  0  0  0  0  0  0
   57.3970   29.7285   42.2873 H   0  0  0  0  0  0  0  0  0  0  0  0
   54.8235   29.9771   43.7766 H   0  0  0  0  0  0  0  0  0  0  0  0
   56.0177   28.6031   43.6602 H   0  0  0  0  0  0  0  0  0  0  0  0
   56.0850   29.2220   45.8230 H   0  0  0  0  0  0  0  0  0  0  0  0
   58.1953   30.1587   46.2405 H   0  0  0  0  0  0  0  0  0  0  0  0
   58.2588   29.1263   44.7620 H   0  0  0  0  0  0  0  0  0  0  0  0
   60.3793   29.6770   45.5449 H   0  0  0  0  0  0  0  0  0  0  0  0
   60.2480   26.4120   45.9340 H   0  0  0  0  0  0  0  0  0  0  0  0
   57.4109   24.4703   47.1972 H   0  0  0  0  0  0  0  0  0  0  0  0
   56.5662   22.5110   45.8993 H   0  0  0  0  0  0  0  0  0  0  0  0
   57.0418   24.6424   42.2425 H   0  0  0  0  0  0  0  0  0  0  0  0
  1  2  1  0
  2  3  1  0
  3  4  1  0
  4  5  1  0
  5  6  2  0
  6  7  1  0
  7  8  2  0
  8  9  1  0
  9 10  2  0
 10 11  1  0
 11 12  2  0
 11 13  1  0
 13 14  1  0
 14 15  1  0
 15 16  1  0
 16 17  1  0
 17 18  1  0
 18 19  1  0
  4 20  2  0
 20 21  1  0
 21 22  1  0
 22 23  1  0
 23 24  2  0
 23 25  1  0
 25 26  2  0
 26 27  1  0
 27 28  2  0
 28 29  1  0
 29 30  2  0
 30 31  1  0
 21  2  2  0
 30 25  1  0
 10  5  1  0
 19 14  1  0
  1 32  1  0
  1 33  1  0
  1 34  1  0
  6 35  1  0
  7 36  1  0
  8 37  1  0
  9 38  1  0
 14 39  1  6
 15 40  1  0
 15 41  1  0
 16 42  1  0
 16 43  1  0
 17 44  1  0
 17 45  1  0
 18 46  1  0
 19 47  1  0
 19 48  1  0
 20 49  1  0
 22 50  1  0
 26 51  1  0
 27 52  1  0
 29 53  1  0
M  CHG  1  13  -1
M  END
>  <UniqueID>  (36) 
36

>  <SMILES>  (36) 
Cc1sc(-c2ccccc2C(=O)[N-][C@@H]2CCCNC2)cc1NC(=O)c1ccncc1Cl

>  <Energy>  (36) 
107.60483511218315

>  <Genealogy>  (36) 
Cc1sc(-c2ccccc2C(=O)[N-]C2CCCNC2)cc1NC(=O)c1ccncc1Cl (protonated)
Cc1sc(-c2ccccc2C(=O)[N-][C@@H]2CCCNC2)cc1NC(=O)c1ccncc1Cl (chirality)
Cc1sc(-c2ccccc2C(=O)[N-][C@@H]2CCCNC2)cc1NC(=O)c1ccncc1Cl (3D coordinates assigned)
Cc1sc(-c2ccccc2C(=O)[N-][C@@H]2CCCNC2)cc1NC(=O)c1ccncc1Cl (nonaromatic ring conformer: 107.60483511218315 kcal/mol)

>  <smiles>  (36) 
Cc1sc(-c2ccccc2C(=O)NC2CCCNC2)cc1NC(=O)c1ccncc1Cl

>  <score_type>  (36) 
oracle

>  <origin>  (36) 
adg

>  <m_score__min__energy>  (36) 
-10.98

>  <m_primary>  (36) 
energy

$$$$
36:0
     RDKit          3D

 40 43  0  0  0  0  0  0  0  0999 V2000
   60.0140   36.6420   45.9400 F   0  0  0  0  0  0  0  0  0  0  0  0
   59.6340   35.3420   46.0250 C   0  0  0  0  0  0  0  0  0  0  0  0
   59.2670   34.6450   44.8710 C   0  0  0  0  0  0  0  0  0  0  0  0
   58.8740   33.3050   44.9580 C   0  0  0  0  0  0  0  0  0  0  0  0
   58.8580   32.6500   46.2000 C   0  0  0  0  0  0  0  0  0  0  0  0
   58.4350   31.2400   46.2770 C   0  0  0  0  0  0  0  0  0  0  0  0
   57.4600   30.7230   45.4890 N   0  0  0  0  0  0  0  0  0  0  0  0
   57.4580   29.4150   45.8150 C   0  0  0  0  0  0  0  0  0  0  0  0
   56.6650   28.4780   45.2410 N   0  0  0  0  0  0  0  0  0  0  0  0
   56.8010   27.1730   45.6170 C   0  0  0  0  0  0  0  0  0  0  0  0
   57.7610   26.8050   46.5790 C   0  0  0  0  0  0  0  0  0  0  0  0
   58.5660   27.8000   47.1440 C   0  0  0  0  0  0  0  0  0  0  0  0
   58.3750   29.0820   46.7380 N   0  0  0  0  0  0  0  0  0  0  0  0
   59.0050   30.2280   47.0530 C   0  0  0  0  0  0  0  0  0  0  0  0
   60.2340   30.3070   47.8070 N   0  0  0  0  0  0  0  0  0  0  0  0
   61.3760   30.6540   46.9440 C   0  0  0  0  0  0  0  0  0  0  0  0
   62.2490   31.7170   47.5660 C   0  0  0  0  0  0  0  0  0  0  0  0
   62.6350   32.8410   46.8180 C   0  0  0  0  0  0  0  0  0  0  0  0
   63.3880   33.8580   47.4120 C   0  0  0  0  0  0  0  0  0  0  0  0
   63.7580   33.7610   48.7570 C   0  0  0  0  0  0  0  0  0  0  0  0
   63.3760   32.6470   49.5090 C   0  0  0  0  0  0  0  0  0  0  0  0
   62.6240   31.6270   48.9170 C   0  0  0  0  0  0  0  0  0  0  0  0
   59.2080   33.3650   47.3580 C   0  0  0  0  0  0  0  0  0  0  0  0
   59.6000   34.7040   47.2680 C   0  0  0  0  0  0  0  0  0  0  0  0
   59.2870   35.1499   43.8939 H   0  0  0  0  0  0  0  0  0  0  0  0
   58.5761   32.7619   44.0490 H   0  0  0  0  0  0  0  0  0  0  0  0
   56.1567   26.4041   45.1657 H   0  0  0  0  0  0  0  0  0  0  0  0
   57.8761   25.7536   46.8810 H   0  0  0  0  0  0  0  0  0  0  0  0
   59.3308   27.5515   47.8946 H   0  0  0  0  0  0  0  0  0  0  0  0
   60.4180   29.4040   48.2980 H   0  0  0  0  0  0  0  0  0  0  0  0
   60.1410   31.0370   48.5470 H   0  0  0  0  0  0  0  0  0  0  0  0
   61.9811   29.7511   46.7747 H   0  0  0  0  0  0  0  0  0  0  0  0
   60.9799   31.0493   45.9970 H   0  0  0  0  0  0  0  0  0  0  0  0
   62.3437   32.9215   45.7603 H   0  0  0  0  0  0  0  0  0  0  0  0
   63.6897   34.7353   46.8209 H   0  0  0  0  0  0  0  0  0  0  0  0
   64.3502   34.5622   49.2233 H   0  0  0  0  0  0  0  0  0  0  0  0
   63.6669   32.5721   50.5672 H   0  0  0  0  0  0  0  0  0  0  0  0
   62.3251   30.7510   49.5114 H   0  0  0  0  0  0  0  0  0  0  0  0
   59.1734   32.8692   48.3393 H   0  0  0  0  0  0  0  0  0  0  0  0
   59.8820   35.2561   48.1767 H   0  0  0  0  0  0  0  0  0  0  0  0
  1  2  1  0
  2  3  2  0
  3  4  1  0
  4  5  2  0
  5  6  1  0
  6  7  1  0
  7  8  2  0
  8  9  1  0
  9 10  2  0
 10 11  1  0
 11 12  2  0
 12 13  1  0
 13 14  1  0
 14 15  1  0
 15 16  1  0
 16 17  1  0
 17 18  2  0
 18 19  1  0
 19 20  2  0
 20 21  1  0
 21 22  2  0
  5 23  1  0
 23 24  2  0
 24  2  1  0
 14  6  2  0
 22 17  1  0
 13  8  1  0
  3 25  1  0
  4 26  1  0
 10 27  1  0
 11 28  1  0
 12 29  1  0
 15 30  1  0
 15 31  1  0
 16 32  1  0
 16 33  1  0
 18 34  1  0
 19 35  1  0
 20 36  1  0
 21 37  1  0
 22 38  1  0
 23 39  1  0
 24 40  1  0
M  CHG  1  15   1
M  END
>  <UniqueID>  (37) 
37

>  <SMILES>  (37) 
Fc1ccc(-c2nc3ncccn3c2[NH2+]Cc2ccccc2)cc1

>  <Energy>  (37) 
85.30904375633361

>  <Genealogy>  (37) 
Fc1ccc(-c2nc3ncccn3c2[NH2+]Cc2ccccc2)cc1 (protonated)
Fc1ccc(-c2nc3ncccn3c2[NH2+]Cc2ccccc2)cc1 (3D coordinates assigned)
Fc1ccc(-c2nc3ncccn3c2[NH2+]Cc2ccccc2)cc1 (optimized conformer: 85.30904375633361 kcal/mol)

>  <smiles>  (37) 
Fc1ccc(-c2nc3ncccn3c2NCc2ccccc2)cc1

>  <score_type>  (37) 
oracle

>  <origin>  (37) 
adg

>  <m_score__min__energy>  (37) 
-5.9000000000000004

>  <m_primary>  (37) 
energy

$$$$
37:0
     RDKit          3D

 38 40  0  0  0  0  0  0  0  0999 V2000
   55.5470   28.9670   44.8580 O   0  0  0  0  0  0  0  0  0  0  0  0
   56.8010   29.0200   44.9830 C   0  0  0  0  0  0  0  0  0  0  0  0
   57.5750   27.8090   44.9290 N   0  0  0  0  0  0  0  0  0  0  0  0
   57.0340   26.5030   45.1970 C   0  0  0  0  0  0  0  0  0  0  0  0
   57.4010   25.3810   44.4360 C   0  0  0  0  0  0  0  0  0  0  0  0
   56.8350   24.1350   44.7110 C   0  0  0  0  0  0  0  0  0  0  0  0
   55.8970   24.0200   45.7370 C   0  0  0  0  0  0  0  0  0  0  0  0
   55.5360   25.1190   46.4530 N   0  0  0  0  0  0  0  0  0  0  0  0
   56.0720   26.3430   46.2040 C   0  0  0  0  0  0  0  0  0  0  0  0
   57.4640   30.3390   45.1330 C   0  0  0  0  0  0  0  0  0  0  0  0
   58.5010   30.5260   46.0640 C   0  0  0  0  0  0  0  0  0  0  0  0
   59.1140   31.7740   46.2020 C   0  0  0  0  0  0  0  0  0  0  0  0
   58.7130   32.8560   45.4110 C   0  0  0  0  0  0  0  0  0  0  0  0
   59.3530   34.0900   45.5920 O   0  0  0  0  0  0  0  0  0  0  0  0
   59.8280   34.5880   46.8140 C   0  0  0  0  0  0  0  0  0  0  0  0
   59.1420   35.4150   47.4760 O   0  0  0  0  0  0  0  0  0  0  0  0
   61.1670   34.1850   47.3000 C   0  0  0  0  0  0  0  0  0  0  0  0
   62.1680   33.8080   46.3860 C   0  0  0  0  0  0  0  0  0  0  0  0
   63.4340   33.4270   46.8420 C   0  0  0  0  0  0  0  0  0  0  0  0
   63.7130   33.4170   48.2100 C   0  0  0  0  0  0  0  0  0  0  0  0
   62.7260   33.7880   49.1260 C   0  0  0  0  0  0  0  0  0  0  0  0
   61.4590   34.1710   48.6760 C   0  0  0  0  0  0  0  0  0  0  0  0
   57.6570   32.6830   44.4990 C   0  0  0  0  0  0  0  0  0  0  0  0
   57.0410   31.4360   44.3610 C   0  0  0  0  0  0  0  0  0  0  0  0
   58.5530   27.8680   44.5670 H   0  0  0  0  0  0  0  0  0  0  0  0
   58.1347   25.4842   43.6230 H   0  0  0  0  0  0  0  0  0  0  0  0
   57.1261   23.2516   44.1238 H   0  0  0  0  0  0  0  0  0  0  0  0
   55.4497   23.0417   45.9669 H   0  0  0  0  0  0  0  0  0  0  0  0
   55.7493   27.2124   46.7956 H   0  0  0  0  0  0  0  0  0  0  0  0
   58.8322   29.6832   46.6885 H   0  0  0  0  0  0  0  0  0  0  0  0
   59.9193   31.9070   46.9394 H   0  0  0  0  0  0  0  0  0  0  0  0
   61.9537   33.8129   45.3071 H   0  0  0  0  0  0  0  0  0  0  0  0
   64.2118   33.1345   46.1212 H   0  0  0  0  0  0  0  0  0  0  0  0
   64.7096   33.1171   48.5662 H   0  0  0  0  0  0  0  0  0  0  0  0
   62.9461   33.7788   50.2037 H   0  0  0  0  0  0  0  0  0  0  0  0
   60.6860   34.4631   49.4021 H   0  0  0  0  0  0  0  0  0  0  0  0
   57.3140   33.5332   43.8911 H   0  0  0  0  0  0  0  0  0  0  0  0
   56.2178   31.3114   43.6421 H   0  0  0  0  0  0  0  0  0  0  0  0
  1  2  2  0
  2  3  1  0
  3  4  1  0
  4  5  2  0
  5  6  1  0
  6  7  2  0
  7  8  1  0
  8  9  2  0
  2 10  1  0
 10 11  2  0
 11 12  1  0
 12 13  2  0
 13 14  1  0
 14 15  1  0
 15 16  2  0
 15 17  1  0
 17 18  2  0
 18 19  1  0
 19 20  2  0
 20 21  1  0
 21 22  2  0
 13 23  1  0
 23 24  2  0
  9  4  1  0
 24 10  1  0
 22 17  1  0
  3 25  1  0
  5 26  1  0
  6 27  1  0
  7 28  1  0
  9 29  1  0
 11 30  1  0
 12 31  1  0
 18 32  1  0
 19 33  1  0
 20 34  1  0
 21 35  1  0
 22 36  1  0
 23 37  1  0
 24 38  1  0
M  END
>  <UniqueID>  (38) 
38

>  <SMILES>  (38) 
O=C(Nc1cccnc1)c1ccc(OC(=O)c2ccccc2)cc1

>  <Energy>  (38) 
52.49973150971227

>  <Genealogy>  (38) 
O=C(Nc1cccnc1)c1ccc(OC(=O)c2ccccc2)cc1 (3D coordinates assigned)
O=C(Nc1cccnc1)c1ccc(OC(=O)c2ccccc2)cc1 (optimized conformer: 52.49973150971227 kcal/mol)

>  <smiles>  (38) 
O=C(Nc1cccnc1)c1ccc(OC(=O)c2ccccc2)cc1

>  <score_type>  (38) 
oracle

>  <origin>  (38) 
adg

>  <m_score__min__energy>  (38) 
-8.0700000000000003

>  <m_primary>  (38) 
energy

$$$$
38:0
     RDKit          3D

 63 67  0  0  1  0  0  0  0  0999 V2000
   58.2520   32.7210   48.3990 C   0  0  0  0  0  0  0  0  0  0  0  0
   59.6260   33.0360   47.9700 C   0  0  0  0  0  0  0  0  0  0  0  0
   60.6840   32.8120   48.8260 C   0  0  0  0  0  0  0  0  0  0  0  0
   61.9870   33.0900   48.4740 C   0  0  0  0  0  0  0  0  0  0  0  0
   63.1250   32.8620   49.3590 C   0  0  0  0  0  0  0  0  0  0  0  0
   63.0240   33.0450   50.6190 O   0  0  0  0  0  0  0  0  0  0  0  0
   64.3930   32.4290   48.8850 N   0  0  0  0  0  0  0  0  0  0  0  0
   65.5260   32.2010   49.7580 C   0  0  0  0  0  0  0  0  0  0  0  0
   65.8170   33.5360   50.4340 C   0  0  0  0  0  0  0  0  0  0  0  0
   67.1870   33.4340   51.0490 C   0  0  0  0  0  0  0  0  0  0  0  0
   67.3910   32.0710   51.4950 N   0  0  0  0  0  0  0  0  0  0  0  0
   66.1560   31.4820   52.0000 C   0  0  0  0  0  0  0  0  0  0  0  0
   65.2170   31.2050   50.8430 C   0  0  0  0  0  0  0  0  0  0  0  0
   62.2220   33.6060   47.2200 C   0  0  0  0  0  0  0  0  0  0  0  0
   61.1660   33.8420   46.3340 C   0  0  0  0  0  0  0  0  0  0  0  0
   59.8760   33.5550   46.7160 C   0  0  0  0  0  0  0  0  0  0  0  0
   58.7430   33.7640   45.8760 N   0  0  0  0  0  0  0  0  0  0  0  0
   58.4130   32.7900   45.0810 C   0  0  0  0  0  0  0  0  0  0  0  0
   58.3780   31.5150   45.5640 N   0  0  0  0  0  0  0  0  0  0  0  0
   58.0390   30.5440   44.7290 C   0  0  0  0  0  0  0  0  0  0  0  0
   57.9890   29.1980   45.1890 N   0  0  0  0  0  0  0  0  0  0  0  0
   57.7750   27.8710   44.6180 C   0  0  0  0  0  0  0  0  0  0  0  0
   57.0310   27.5880   45.9350 C   0  0  0  0  0  0  0  0  0  0  0  0
   57.1130   26.2820   46.3770 O   0  0  0  0  0  0  0  0  0  0  0  0
   56.8970   25.2140   45.5470 C   0  0  0  0  0  0  0  0  0  0  0  0
   57.8550   24.4530   44.9340 C   0  0  0  0  0  0  0  0  0  0  0  0
   57.5510   23.3870   44.1060 C   0  0  0  0  0  0  0  0  0  0  0  0
   56.2380   23.0390   43.8610 C   0  0  0  0  0  0  0  0  0  0  0  0
   55.9780   21.9890   43.0460 F   0  0  0  0  0  0  0  0  0  0  0  0
   55.2530   23.7910   44.4690 C   0  0  0  0  0  0  0  0  0  0  0  0
   55.5690   24.8520   45.2920 C   0  0  0  0  0  0  0  0  0  0  0  0
   58.1360   28.5140   46.4790 C   0  0  0  0  0  0  0  0  0  0  0  0
   57.7350   30.7890   43.4420 N   0  0  0  0  0  0  0  0  0  0  0  0
   57.7600   32.0450   42.9280 C   0  0  0  0  0  0  0  0  0  0  0  0
   58.1060   33.0250   43.7830 N   0  0  0  0  0  0  0  0  0  0  0  0
   58.2044   32.7101   49.4979 H   0  0  0  0  0  0  0  0  0  0  0  0
   57.5622   33.4843   48.0097 H   0  0  0  0  0  0  0  0  0  0  0  0
   57.9636   31.7334   48.0097 H   0  0  0  0  0  0  0  0  0  0  0  0
   60.4807   32.3971   49.8242 H   0  0  0  0  0  0  0  0  0  0  0  0
   64.5490   32.2590   47.8670 H   0  0  0  0  0  0  0  0  0  0  0  0
   66.3661   31.8094   49.1657 H   0  0  0  0  0  0  0  0  0  0  0  0
   65.7968   34.3470   49.6911 H   0  0  0  0  0  0  0  0  0  0  0  0
   65.0603   33.7587   51.2007 H   0  0  0  0  0  0  0  0  0  0  0  0
   67.9497   33.6978   50.3015 H   0  0  0  0  0  0  0  0  0  0  0  0
   67.2699   34.1253   51.9006 H   0  0  0  0  0  0  0  0  0  0  0  0
   68.0480   32.1440   52.3290 H   0  0  0  0  0  0  0  0  0  0  0  0
   66.3850   30.5400   52.5197 H   0  0  0  0  0  0  0  0  0  0  0  0
   65.6768   32.1811   52.7012 H   0  0  0  0  0  0  0  0  0  0  0  0
   65.3737   30.1824   50.4692 H   0  0  0  0  0  0  0  0  0  0  0  0
   64.1693   31.2971   51.1651 H   0  0  0  0  0  0  0  0  0  0  0  0
   63.2525   33.8355   46.9110 H   0  0  0  0  0  0  0  0  0  0  0  0
   61.3663   34.2559   45.3347 H   0  0  0  0  0  0  0  0  0  0  0  0
   57.1529   27.8439   43.7112 H   0  0  0  0  0  0  0  0  0  0  0  0
   58.5902   27.2386   44.2364 H   0  0  0  0  0  0  0  0  0  0  0  0
   55.9510   27.7258   46.0917 H   0  0  0  0  0  0  0  0  0  0  0  0
   58.9129   24.6995   45.1071 H   0  0  0  0  0  0  0  0  0  0  0  0
   58.3635   22.8114   43.6385 H   0  0  0  0  0  0  0  0  0  0  0  0
   54.1965   23.5396   44.2940 H   0  0  0  0  0  0  0  0  0  0  0  0
   54.7570   25.4281   45.7597 H   0  0  0  0  0  0  0  0  0  0  0  0
   57.8601   29.1089   47.3622 H   0  0  0  0  0  0  0  0  0  0  0  0
   59.0986   28.1481   46.8658 H   0  0  0  0  0  0  0  0  0  0  0  0
   57.5124   32.2495   41.8759 H   0  0  0  0  0  0  0  0  0  0  0  0
   58.1350   34.0050   43.4200 H   0  0  0  0  0  0  0  0  0  0  0  0
  1  2  1  0
  2  3  2  0
  3  4  1  0
  4  5  1  0
  5  6  2  0
  5  7  1  0
  7  8  1  0
  8  9  1  0
  9 10  1  0
 10 11  1  0
 11 12  1  0
 12 13  1  0
  4 14  2  0
 14 15  1  0
 15 16  2  0
 16 17  1  0
 17 18  2  0
 18 19  1  0
 19 20  2  0
 20 21  1  0
 21 22  1  0
 22 23  1  0
 23 24  1  0
 24 25  1  0
 25 26  2  0
 26 27  1  0
 27 28  2  0
 28 29  1  0
 28 30  1  0
 30 31  2  0
 23 32  1  0
 20 33  1  0
 33 34  2  0
 34 35  1  0
 16  2  1  0
 35 18  1  0
 13  8  1  0
 32 21  1  0
 31 25  1  0
  1 36  1  0
  1 37  1  0
  1 38  1  0
  3 39  1  0
  7 40  1  0
  8 41  1  0
  9 42  1  0
  9 43  1  0
 10 44  1  0
 10 45  1  0
 11 46  1  0
 12 47  1  0
 12 48  1  0
 13 49  1  0
 13 50  1  0
 14 51  1  0
 15 52  1  0
 22 53  1  0
 22 54  1  0
 23 55  1  0
 26 56  1  0
 27 57  1  0
 30 58  1  0
 31 59  1  0
 32 60  1  0
 32 61  1  0
 34 62  1  0
 35 63  1  0
M  END
>  <smiles>  (39) 
Cc1cc(C(=O)NC2CCNCC2)ccc1N=c1nc(N2CC(Oc3ccc(F)cc3)C2)nc[nH]1

>  <score_type>  (39) 
oracle

>  <origin>  (39) 
adg

>  <m_score__min__energy>  (39) 
-9.0899999999999999

>  <m_primary>  (39) 
energy

$$$$
39:0
     RDKit          3D

 52 57  0  0  0  0  0  0  0  0999 V2000
   55.1450   27.5010   45.3900 H   0  0  0  0  0  0  0  0  0  0  0  0
   55.1230   26.7050   46.0150 O   0  0  0  0  0  0  0  0  0  0  0  0
   55.1540   25.3850   45.5630 C   0  0  0  0  0  0  0  0  0  0  0  0
   54.0900   24.5830   45.8300 N   0  0  0  0  0  0  0  0  0  0  0  0
   54.0510   23.2950   45.4080 C   0  0  0  0  0  0  0  0  0  0  0  0
   53.0480   22.5800   45.6640 O   0  0  0  0  0  0  0  0  0  0  0  0
   55.0950   22.7750   44.7150 N   0  0  0  0  0  0  0  0  0  0  0  0
   56.1880   23.5260   44.4240 C   0  0  0  0  0  0  0  0  0  0  0  0
   57.1490   22.9970   43.8050 O   0  0  0  0  0  0  0  0  0  0  0  0
   56.2430   24.8740   44.8270 C   0  0  0  0  0  0  0  0  0  0  0  0
   57.4290   25.7130   44.5510 C   0  0  0  0  0  0  0  0  0  0  0  0
   57.8379   25.7096   43.5298 H   0  0  0  0  0  0  0  0  0  0  0  0
   58.0350   26.4760   45.4680 C   0  0  0  0  0  0  0  0  0  0  0  0
   58.7970   26.0120   46.6350 C   0  0  0  0  0  0  0  0  0  0  0  0
   58.9387   24.9614   46.9286 H   0  0  0  0  0  0  0  0  0  0  0  0
   59.2770   27.0430   47.2650 N   0  0  0  0  0  0  0  0  0  0  0  0
   58.8860   28.1840   46.5490 N   0  0  0  0  0  0  0  0  0  0  0  0
   58.4520   29.3640   47.0390 C   0  0  0  0  0  0  0  0  0  0  0  0
   58.8930   29.9430   48.1190 N   0  0  0  0  0  0  0  0  0  0  0  0
   59.9050   31.0000   48.1750 C   0  0  2  0  0  0  0  0  0  0  0  0
   60.0632   31.2510   49.2342 H   0  0  0  0  0  0  0  0  0  0  0  0
   59.4660   32.2640   47.4560 C   0  0  0  0  0  0  0  0  0  0  0  0
   58.1410   32.4990   47.0390 C   0  0  0  0  0  0  0  0  0  0  0  0
   57.3671   31.7386   47.2206 H   0  0  0  0  0  0  0  0  0  0  0  0
   57.8050   33.6930   46.3960 C   0  0  0  0  0  0  0  0  0  0  0  0
   56.7685   33.8687   46.0723 H   0  0  0  0  0  0  0  0  0  0  0  0
   58.7810   34.6640   46.1630 C   0  0  0  0  0  0  0  0  0  0  0  0
   58.5116   35.6035   45.6582 H   0  0  0  0  0  0  0  0  0  0  0  0
   60.0990   34.4440   46.5700 C   0  0  0  0  0  0  0  0  0  0  0  0
   60.8643   35.2141   46.3932 H   0  0  0  0  0  0  0  0  0  0  0  0
   60.4480   33.2420   47.2040 C   0  0  0  0  0  0  0  0  0  0  0  0
   61.8550   33.0070   47.6920 C   0  0  0  0  0  0  0  0  0  0  0  0
   61.8958   33.2179   48.7708 H   0  0  0  0  0  0  0  0  0  0  0  0
   62.5241   33.6740   47.1286 H   0  0  0  0  0  0  0  0  0  0  0  0
   62.3200   31.5540   47.4510 C   0  0  0  0  0  0  0  0  0  0  0  0
   63.0713   31.3047   48.2148 H   0  0  0  0  0  0  0  0  0  0  0  0
   62.7149   31.5231   46.4248 H   0  0  0  0  0  0  0  0  0  0  0  0
   61.1950   30.4880   47.5160 C   0  0  0  0  0  0  0  0  0  0  0  0
   61.5634   29.6273   48.0935 H   0  0  0  0  0  0  0  0  0  0  0  0
   60.9444   30.2175   46.4796 H   0  0  0  0  0  0  0  0  0  0  0  0
   57.4190   29.8600   46.3170 N   0  0  0  0  0  0  0  0  0  0  0  0
   57.2340   28.8810   45.3920 C   0  0  0  0  0  0  0  0  0  0  0  0
   56.2290   28.8420   44.5730 N   0  0  0  0  0  0  0  0  0  0  0  0
   55.8230   29.9840   43.7620 C   0  0  0  0  0  0  0  0  0  0  0  0
   54.7355   29.8293   43.8203 H   0  0  0  0  0  0  0  0  0  0  0  0
   56.7570   31.1700   43.9080 C   0  0  0  0  0  0  0  0  0  0  0  0
   56.3570   32.1939   43.8673 H   0  0  0  0  0  0  0  0  0  0  0  0
   57.4984   31.4899   44.6550 H   0  0  0  0  0  0  0  0  0  0  0  0
   56.7960   30.3170   42.6480 C   0  0  0  0  0  0  0  0  0  0  0  0
   56.4243   30.7241   41.6961 H   0  0  0  0  0  0  0  0  0  0  0  0
   57.5775   29.7643   42.1060 H   0  0  0  0  0  0  0  0  0  0  0  0
   58.1460   27.8940   45.5090 N   0  0  0  0  0  0  0  0  0  0  0  0
  1  2  1  0
  2  3  1  0
  3  4  1  0
  4  5  1  0
  5  6  2  0
  5  7  1  0
  7  8  1  0
  8  9  2  0
  8 10  1  0
 10 11  1  0
 11 12  1  0
 11 13  2  0
 13 14  1  0
 14 15  1  0
 14 16  2  0
 16 17  1  0
 17 18  1  0
 18 19  2  3
 19 20  1  0
 20 21  1  1
 20 22  1  0
 22 23  2  0
 23 24  1  0
 23 25  1  0
 25 26  1  0
 25 27  2  0
 27 28  1  0
 27 29  1  0
 29 30  1  0
 29 31  2  0
 31 32  1  0
 32 33  1  0
 32 34  1  0
 32 35  1  0
 35 36  1  0
 35 37  1  0
 35 38  1  0
 38 39  1  0
 38 40  1  0
 18 41  1  0
 41 42  1  0
 42 43  2  3
 43 44  1  0
 44 45  1  0
 44 46  1  0
 46 47  1  0
 46 48  1  0
 46 49  1  0
 49 50  1  0
 49 51  1  0
 42 52  1  0
 10  3  2  0
 52 13  1  0
 52 17  1  0
 38 20  1  0
 49 44  1  0
 31 22  1  0
M  CHG  3   4  -1   7  -1  41  -1
M  END
>  <UniqueID>  (40) 
39

>  <SMILES>  (40) 
O=c1[n-]c(O)c(/C=C2/C=Nn3c(=N[C@H]4CCCc5ccccc54)[n-]c(=NC4CC4)n32)c(=O)[n-]1

>  <Energy>  (40) 
432.44223861328373

>  <Genealogy>  (40) 
O=c1[n-]c(O)c(C=C2C=Nn3c(=NC4CCCc5ccccc54)[n-]c(=NC4CC4)n32)c(=O)[n-]1 (protonated)
O=c1[n-]c(O)c(C=C2C=Nn3c(=N[C@H]4CCCc5ccccc54)[n-]c(=NC4CC4)n32)c(=O)[n-]1 (chirality)
O=c1[n-]c(O)c(/C=C2/C=Nn3c(=N[C@H]4CCCc5ccccc54)[n-]c(=NC4CC4)n32)c(=O)[n-]1 (cis-trans isomerization)
O=c1[n-]c(O)c(/C=C2/C=Nn3c(=N[C@H]4CCCc5ccccc54)[n-]c(=NC4CC4)n32)c(=O)[n-]1 (3D coordinates assigned)
O=c1[n-]c(O)c(/C=C2/C=Nn3c(=N[C@H]4CCCc5ccccc54)[n-]c(=NC4CC4)n32)c(=O)[n-]1 (nonaromatic ring conformer: 432.44223861328373 kcal/mol)

>  <smiles>  (40) 
O=c1[nH]c(O)c(C=C2C=Nn3c(=NC4CCCc5ccccc54)[nH]c(=NC4CC4)n32)c(=O)[nH]1

>  <score_type>  (40) 
oracle

>  <origin>  (40) 
adg

>  <m_score__min__energy>  (40) 
-16.32

>  <m_primary>  (40) 
energy

$$$$
40:0
     RDKit          3D

 56 57  0  0  1  0  0  0  0  0999 V2000
   56.4660   30.8080   44.4970 O   0  0  0  0  0  0  0  0  0  0  0  0
   57.4530   31.4920   44.8330 C   0  0  0  0  0  0  0  0  0  0  0  0
   57.6680   32.9220   44.6040 C   0  0  0  0  0  0  0  0  0  0  0  0
   57.0770   33.8110   45.7000 C   0  0  0  0  0  0  0  0  0  0  0  0
   58.1780   34.3060   46.5560 C   0  0  0  0  0  0  0  0  0  0  0  0
   59.5100   34.5370   45.9670 C   0  0  0  0  0  0  0  0  0  0  0  0
   60.7110   34.5440   46.8190 C   0  0  0  0  0  0  0  0  0  0  0  0
   60.7500   33.7510   48.0680 C   0  0  0  0  0  0  0  0  0  0  0  0
   60.9150   32.2840   47.8640 C   0  0  0  0  0  0  0  0  0  0  0  0
   60.9520   31.4780   49.0120 O   0  0  0  0  0  0  0  0  0  0  0  0
   61.0230   31.7270   46.7210 N   0  0  0  0  0  0  0  0  0  0  0  0
   61.1540   30.3560   46.6630 O   0  0  0  0  0  0  0  0  0  0  0  0
   58.5010   30.7830   45.5280 N   0  0  0  0  0  0  0  0  0  0  0  0
   58.3960   29.4010   45.8020 C   0  0  0  0  0  0  0  0  0  0  0  0
   57.9820   28.5160   44.8000 C   0  0  0  0  0  0  0  0  0  0  0  0
   57.8690   27.1600   45.0390 C   0  0  0  0  0  0  0  0  0  0  0  0
   58.1580   26.6100   46.2720 C   0  0  0  0  0  0  0  0  0  0  0  0
   58.0450   25.1720   46.5450 C   0  0  0  0  0  0  0  0  0  0  0  0
   59.0740   24.3250   45.8170 C   0  0  0  0  0  0  0  0  0  0  0  0
   58.2910   23.4940   44.8400 C   0  0  0  0  0  0  0  0  0  0  0  0
   57.4220   24.0670   43.9340 C   0  0  0  0  0  0  0  0  0  0  0  0
   56.7460   23.2540   43.0790 N   0  0  0  0  0  0  0  0  0  0  0  0
   56.9350   21.9060   43.1300 C   0  0  0  0  0  0  0  0  0  0  0  0
   56.2840   21.1810   42.3140 O   0  0  0  0  0  0  0  0  0  0  0  0
   57.7920   21.3500   44.0240 N   0  0  0  0  0  0  0  0  0  0  0  0
   58.4940   22.1150   44.9020 C   0  0  0  0  0  0  0  0  0  0  0  0
   59.2830   21.5850   45.7230 O   0  0  0  0  0  0  0  0  0  0  0  0
   58.5750   27.4820   47.2820 C   0  0  0  0  0  0  0  0  0  0  0  0
   58.6870   28.8510   47.0390 C   0  0  0  0  0  0  0  0  0  0  0  0
   59.1010   29.7110   48.0450 O   0  0  0  0  0  0  0  0  0  0  0  0
   58.7510   33.1073   44.5516 H   0  0  0  0  0  0  0  0  0  0  0  0
   57.1548   33.1803   43.6660 H   0  0  0  0  0  0  0  0  0  0  0  0
   56.5524   34.6628   45.2426 H   0  0  0  0  0  0  0  0  0  0  0  0
   56.3626   33.2339   46.3055 H   0  0  0  0  0  0  0  0  0  0  0  0
   57.8460   35.2646   46.9813 H   0  0  0  0  0  0  0  0  0  0  0  0
   58.3480   33.4789   47.2610 H   0  0  0  0  0  0  0  0  0  0  0  0
   59.6624   33.7504   45.2133 H   0  0  0  0  0  0  0  0  0  0  0  0
   59.4489   35.5775   45.6155 H   0  0  0  0  0  0  0  0  0  0  0  0
   61.5432   34.1884   46.1937 H   0  0  0  0  0  0  0  0  0  0  0  0
   60.7503   35.5813   47.1830 H   0  0  0  0  0  0  0  0  0  0  0  0
   61.5929   34.1101   48.6767 H   0  0  0  0  0  0  0  0  0  0  0  0
   59.7751   33.8909   48.5579 H   0  0  0  0  0  0  0  0  0  0  0  0
   60.9050   30.4850   48.8820 H   0  0  0  0  0  0  0  0  0  0  0  0
   61.1790   29.8490   47.5370 H   0  0  0  0  0  0  0  0  0  0  0  0
   59.3520   31.2760   45.8410 H   0  0  0  0  0  0  0  0  0  0  0  0
   57.7415   28.9084   43.8009 H   0  0  0  0  0  0  0  0  0  0  0  0
   57.5393   26.4995   44.2235 H   0  0  0  0  0  0  0  0  0  0  0  0
   58.1688   25.0140   47.6265 H   0  0  0  0  0  0  0  0  0  0  0  0
   57.0561   24.8548   46.1825 H   0  0  0  0  0  0  0  0  0  0  0  0
   59.7936   24.9659   45.2865 H   0  0  0  0  0  0  0  0  0  0  0  0
   59.6535   23.6998   46.5121 H   0  0  0  0  0  0  0  0  0  0  0  0
   57.2793   25.1573   43.9041 H   0  0  0  0  0  0  0  0  0  0  0  0
   56.0720   23.6810   42.3750 H   0  0  0  0  0  0  0  0  0  0  0  0
   57.9330   20.2990   44.0580 H   0  0  0  0  0  0  0  0  0  0  0  0
   58.8173   27.0845   48.2786 H   0  0  0  0  0  0  0  0  0  0  0  0
   59.4530   30.6230   47.7670 H   0  0  0  0  0  0  0  0  0  0  0  0
  1  2  2  0
  2  3  1  0
  3  4  1  0
  4  5  1  0
  5  6  1  0
  6  7  1  0
  7  8  1  0
  8  9  1  0
  9 10  1  0
  9 11  2  0
 11 12  1  0
  2 13  1  0
 13 14  1  0
 14 15  2  0
 15 16  1  0
 16 17  2  0
 17 18  1  0
 18 19  1  0
 19 20  1  0
 20 21  2  0
 21 22  1  0
 22 23  1  0
 23 24  2  0
 23 25  1  0
 25 26  1  0
 26 27  2  0
 17 28  1  0
 28 29  2  0
 29 30  1  0
 29 14  1  0
 26 20  1  0
  3 31  1  0
  3 32  1  0
  4 33  1  0
  4 34  1  0
  5 35  1  0
  5 36  1  0
  6 37  1  0
  6 38  1  0
  7 39  1  0
  7 40  1  0
  8 41  1  0
  8 42  1  0
 10 43  1  0
 12 44  1  0
 13 45  1  0
 15 46  1  0
 16 47  1  0
 18 48  1  0
 18 49  1  0
 19 50  1  0
 19 51  1  0
 21 52  1  0
 22 53  1  0
 25 54  1  0
 28 55  1  0
 30 56  1  0
M  END
>  <smiles>  (41) 
O=C(CCCCCCC(O)=NO)Nc1ccc(CCc2c[nH]c(=O)[nH]c2=O)cc1O

>  <score_type>  (41) 
oracle

>  <origin>  (41) 
adg

>  <m_score__min__energy>  (41) 
-9.8900000000000006

>  <m_primary>  (41) 
energy

$$$$
41:0
     RDKit          3D

 45 47  0  0  0  0  0  0  0  0999 V2000
   60.1002   34.1540   43.8463 H   0  0  0  0  0  0  0  0  0  0  0  0
   59.2690   33.8490   44.4990 C   0  0  0  0  0  0  0  0  0  0  0  0
   59.0490   34.5160   45.7080 C   0  0  0  0  0  0  0  0  0  0  0  0
   59.9110   35.6750   46.1080 C   0  0  0  0  0  0  0  0  0  0  0  0
   59.9567   35.7364   47.2053 H   0  0  0  0  0  0  0  0  0  0  0  0
   60.9251   35.5336   45.7061 H   0  0  0  0  0  0  0  0  0  0  0  0
   59.4838   36.6056   45.7061 H   0  0  0  0  0  0  0  0  0  0  0  0
   57.9570   34.1350   46.4990 C   0  0  0  0  0  0  0  0  0  0  0  0
   57.7490   34.6702   47.4372 H   0  0  0  0  0  0  0  0  0  0  0  0
   57.1510   33.1060   46.1140 N   0  0  0  0  0  0  0  0  0  0  0  0
   56.3290   32.8950   46.7200 H   0  0  0  0  0  0  0  0  0  0  0  0
   57.3780   32.4120   44.9540 C   0  0  0  0  0  0  0  0  0  0  0  0
   56.6150   31.4250   44.5760 N   0  0  0  0  0  0  0  0  0  0  0  0
   56.7900   30.0320   44.8690 C   0  0  0  0  0  0  0  0  0  0  0  0
   55.7900   29.2670   44.8290 O   0  0  0  0  0  0  0  0  0  0  0  0
   58.1560   29.4460   45.1100 C   0  0  0  0  0  0  0  0  0  0  0  0
   58.1188   28.3608   44.9341 H   0  0  0  0  0  0  0  0  0  0  0  0
   58.8697   29.9218   44.4214 H   0  0  0  0  0  0  0  0  0  0  0  0
   58.5990   29.6970   46.4990 N   0  0  0  0  0  0  0  0  0  0  0  0
   58.6360   28.4340   47.2610 C   0  0  0  0  0  0  0  0  0  0  0  0
   58.6295   28.6555   48.3385 H   0  0  0  0  0  0  0  0  0  0  0  0
   57.7553   27.8262   47.0063 H   0  0  0  0  0  0  0  0  0  0  0  0
   59.5508   27.8788   47.0063 H   0  0  0  0  0  0  0  0  0  0  0  0
   59.9370   30.3270   46.5200 C   0  0  0  0  0  0  0  0  0  0  0  0
   60.6942   29.5572   46.7300 H   0  0  0  0  0  0  0  0  0  0  0  0
   60.1221   30.7911   45.5400 H   0  0  0  0  0  0  0  0  0  0  0  0
   60.0130   31.4030   47.5880 C   0  0  0  0  0  0  0  0  0  0  0  0
   58.8600   31.6070   48.3670 C   0  0  0  0  0  0  0  0  0  0  0  0
   57.9624   31.0013   48.1736 H   0  0  0  0  0  0  0  0  0  0  0  0
   58.8360   32.5630   49.3790 C   0  0  0  0  0  0  0  0  0  0  0  0
   57.9253   32.7010   49.9803 H   0  0  0  0  0  0  0  0  0  0  0  0
   59.9580   33.3440   49.6330 C   0  0  0  0  0  0  0  0  0  0  0  0
   59.9334   34.0907   50.4404 H   0  0  0  0  0  0  0  0  0  0  0  0
   61.1200   33.1850   48.8660 C   0  0  0  0  0  0  0  0  0  0  0  0
   62.2390   33.9910   49.1270 C   0  0  0  0  0  0  0  0  0  0  0  0
   62.2018   34.7319   49.9392 H   0  0  0  0  0  0  0  0  0  0  0  0
   63.3970   33.8580   48.3630 C   0  0  0  0  0  0  0  0  0  0  0  0
   64.2715   34.4904   48.5760 H   0  0  0  0  0  0  0  0  0  0  0  0
   63.4480   32.9250   47.3300 C   0  0  0  0  0  0  0  0  0  0  0  0
   64.3618   32.8285   46.7253 H   0  0  0  0  0  0  0  0  0  0  0  0
   62.3460   32.1110   47.0570 C   0  0  0  0  0  0  0  0  0  0  0  0
   62.3996   31.3807   46.2361 H   0  0  0  0  0  0  0  0  0  0  0  0
   61.1620   32.2150   47.8240 C   0  0  0  0  0  0  0  0  0  0  0  0
   58.4350   32.7970   44.1200 C   0  0  0  0  0  0  0  0  0  0  0  0
   58.6071   32.2715   43.1691 H   0  0  0  0  0  0  0  0  0  0  0  0
  1  2  1  0
  2  3  1  0
  3  4  1  0
  4  5  1  0
  4  6  1  0
  4  7  1  0
  3  8  2  0
  8  9  1  0
  8 10  1  0
 10 11  1  0
 10 12  1  0
 12 13  2  0
 13 14  1  0
 14 15  2  0
 14 16  1  0
 16 17  1  0
 16 18  1  0
 16 19  1  0
 19 20  1  0
 20 21  1  0
 20 22  1  0
 20 23  1  0
 19 24  1  0
 24 25  1  0
 24 26  1  0
 24 27  1  0
 27 28  2  0
 28 29  1  0
 28 30  1  0
 30 31  1  0
 30 32  2  0
 32 33  1  0
 32 34  1  0
 34 35  2  0
 35 36  1  0
 35 37  1  0
 37 38  1  0
 37 39  2  0
 39 40  1  0
 39 41  1  0
 41 42  1  0
 41 43  2  0
 12 44  1  0
 44 45  1  0
 44  2  2  0
 43 27  1  0
 43 34  1  0
M  END
>  <UniqueID>  (42) 
40

>  <SMILES>  (42) 
Cc1cc/c(=N/C(=O)CN(C)Cc2cccc3ccccc23)[nH]c1

>  <Energy>  (42) 
62.53092651295508

>  <Genealogy>  (42) 
Cc1cc/c(=N/C(=O)CN(C)Cc2cccc3ccccc23)[nH]c1 (cis-trans isomerization)
Cc1cc/c(=N/C(=O)CN(C)Cc2cccc3ccccc23)[nH]c1 (3D coordinates assigned)
Cc1cc/c(=N/C(=O)CN(C)Cc2cccc3ccccc23)[nH]c1 (optimized conformer: 62.53092651295508 kcal/mol)

>  <smiles>  (42) 
Cc1ccc(=NC(=O)CN(C)Cc2cccc3ccccc23)[nH]c1

>  <score_type>  (42) 
oracle

>  <origin>  (42) 
adg

>  <m_score__min__energy>  (42) 
-7.8799999999999999

>  <m_primary>  (42) 
energy

$$$$
42:0
     RDKit          3D

 42 44  0  0  0  0  0  0  0  0999 V2000
   56.9540   34.2010   46.0480 O   0  0  0  0  0  0  0  0  0  0  0  0
   57.9020   33.7080   45.3780 C   0  0  0  0  0  0  0  0  0  0  0  0
   59.2340   34.2190   45.5260 N   0  0  0  0  0  0  0  0  0  0  0  0
   59.6460   34.9760   46.7040 C   0  0  0  0  0  0  0  0  0  0  0  0
   60.8080   34.2900   47.3670 C   0  0  0  0  0  0  0  0  0  0  0  0
   60.8490   34.1760   48.7660 C   0  0  0  0  0  0  0  0  0  0  0  0
   61.9510   33.5860   49.3940 C   0  0  0  0  0  0  0  0  0  0  0  0
   63.0240   33.1160   48.6290 C   0  0  0  0  0  0  0  0  0  0  0  0
   64.4130   32.3940   49.4200 Cl  0  0  0  0  0  0  0  0  0  0  0  0
   62.9920   33.2330   47.2360 C   0  0  0  0  0  0  0  0  0  0  0  0
   61.8920   33.8220   46.6060 C   0  0  0  0  0  0  0  0  0  0  0  0
   57.6470   32.5830   44.4690 C   0  0  0  0  0  0  0  0  0  0  0  0
   57.9570   32.5370   43.1220 C   0  0  0  0  0  0  0  0  0  0  0  0
   57.4800   31.3240   42.6710 C   0  0  0  0  0  0  0  0  0  0  0  0
   56.9110   30.7120   43.7710 C   0  0  0  0  0  0  0  0  0  0  0  0
   56.2120   29.3900   43.7800 C   0  0  0  0  0  0  0  0  0  0  0  0
   57.1730   28.1940   44.6930 S   0  0  0  0  0  0  0  0  0  0  0  0
   56.2780   27.4560   45.6490 O   0  0  0  0  0  0  0  0  0  0  0  0
   57.7760   27.2010   43.7390 O   0  0  0  0  0  0  0  0  0  0  0  0
   58.4510   29.0110   45.5910 C   0  0  0  0  0  0  0  0  0  0  0  0
   59.7670   29.0260   45.1000 C   0  0  0  0  0  0  0  0  0  0  0  0
   60.7670   29.7150   45.7930 C   0  0  0  0  0  0  0  0  0  0  0  0
   60.4610   30.3890   46.9780 C   0  0  0  0  0  0  0  0  0  0  0  0
   59.1520   30.3780   47.4700 C   0  0  0  0  0  0  0  0  0  0  0  0
   58.1490   29.6950   46.7770 C   0  0  0  0  0  0  0  0  0  0  0  0
   57.0370   31.4790   44.8290 O   0  0  0  0  0  0  0  0  0  0  0  0
   59.9710   33.9290   44.8450 H   0  0  0  0  0  0  0  0  0  0  0  0
   59.9449   35.9902   46.4006 H   0  0  0  0  0  0  0  0  0  0  0  0
   58.8057   35.0343   47.4115 H   0  0  0  0  0  0  0  0  0  0  0  0
   60.0108   34.5523   49.3708 H   0  0  0  0  0  0  0  0  0  0  0  0
   61.9739   33.4915   50.4897 H   0  0  0  0  0  0  0  0  0  0  0  0
   63.8344   32.8607   46.6346 H   0  0  0  0  0  0  0  0  0  0  0  0
   61.8751   33.9194   45.5104 H   0  0  0  0  0  0  0  0  0  0  0  0
   58.4760   33.3075   42.5329 H   0  0  0  0  0  0  0  0  0  0  0  0
   57.5402   30.9262   41.6472 H   0  0  0  0  0  0  0  0  0  0  0  0
   55.2260   29.5030   44.2544 H   0  0  0  0  0  0  0  0  0  0  0  0
   56.0911   29.0396   42.7443 H   0  0  0  0  0  0  0  0  0  0  0  0
   60.0113   28.4946   44.1684 H   0  0  0  0  0  0  0  0  0  0  0  0
   61.7961   29.7264   45.4047 H   0  0  0  0  0  0  0  0  0  0  0  0
   61.2494   30.9281   47.5237 H   0  0  0  0  0  0  0  0  0  0  0  0
   58.9116   30.9076   48.4036 H   0  0  0  0  0  0  0  0  0  0  0  0
   57.1191   29.6940   47.1633 H   0  0  0  0  0  0  0  0  0  0  0  0
  1  2  2  0
  2  3  1  0
  3  4  1  0
  4  5  1  0
  5  6  2  0
  6  7  1  0
  7  8  2  0
  8  9  1  0
  8 10  1  0
 10 11  2  0
  2 12  1  0
 12 13  2  0
 13 14  1  0
 14 15  2  0
 15 16  1  0
 16 17  1  0
 17 18  2  0
 17 19  2  0
 17 20  1  0
 20 21  2  0
 21 22  1  0
 22 23  2  0
 23 24  1  0
 24 25  2  0
 15 26  1  0
 11  5  1  0
 26 12  1  0
 25 20  1  0
  3 27  1  0
  4 28  1  0
  4 29  1  0
  6 30  1  0
  7 31  1  0
 10 32  1  0
 11 33  1  0
 13 34  1  0
 14 35  1  0
 16 36  1  0
 16 37  1  0
 21 38  1  0
 22 39  1  0
 23 40  1  0
 24 41  1  0
 25 42  1  0
M  END
>  <UniqueID>  (43) 
41

>  <SMILES>  (43) 
O=C(NCc1ccc(Cl)cc1)c1ccc(CS(=O)(=O)c2ccccc2)o1

>  <Energy>  (43) 
60.347441027432836

>  <Genealogy>  (43) 
O=C(NCc1ccc(Cl)cc1)c1ccc(CS(=O)(=O)c2ccccc2)o1 (3D coordinates assigned)
O=C(NCc1ccc(Cl)cc1)c1ccc(CS(=O)(=O)c2ccccc2)o1 (optimized conformer: 60.347441027432836 kcal/mol)

>  <smiles>  (43) 
O=C(NCc1ccc(Cl)cc1)c1ccc(CS(=O)(=O)c2ccccc2)o1

>  <score_type>  (43) 
oracle

>  <origin>  (43) 
adg

>  <m_score__min__energy>  (43) 
-10.359999999999999

>  <m_primary>  (43) 
energy

$$$$
43:0
     RDKit          3D

 53 55  0  0  0  0  0  0  0  0999 V2000
   56.4700   30.0120   42.4230 N   0  0  0  0  0  0  0  0  0  0  0  0
   56.5400   29.6700   44.1160 S   0  0  0  0  0  0  0  0  0  0  0  0
   55.1520   29.6930   44.6920 O   0  0  0  0  0  0  0  0  0  0  0  0
   57.1260   28.3010   44.3260 O   0  0  0  0  0  0  0  0  0  0  0  0
   57.5360   30.8780   44.9190 C   0  0  0  0  0  0  0  0  0  0  0  0
   58.7950   30.5360   45.4290 C   0  0  0  0  0  0  0  0  0  0  0  0
   59.5980   31.5100   46.0270 C   0  0  0  0  0  0  0  0  0  0  0  0
   59.1700   32.8430   46.0900 C   0  0  0  0  0  0  0  0  0  0  0  0
   60.2200   34.0790   46.7960 S   0  0  0  0  0  0  0  0  0  0  0  0
   61.5090   34.1350   46.0230 O   0  0  0  0  0  0  0  0  0  0  0  0
   59.5410   35.4100   46.6420 O   0  0  0  0  0  0  0  0  0  0  0  0
   60.5700   33.8100   48.4980 N   0  0  0  0  0  0  0  0  0  0  0  0
   60.5930   32.3820   48.8690 C   0  0  0  0  0  0  0  0  0  0  0  0
   59.2580   31.9350   49.4070 C   0  0  0  0  0  0  0  0  0  0  0  0
   58.5190   31.2160   48.6800 O   0  0  0  0  0  0  0  0  0  0  0  0
   58.7820   32.3660   50.7000 N   0  0  0  0  0  0  0  0  0  0  0  0
   59.4220   33.4860   51.4040 C   0  0  0  0  0  0  0  0  0  0  0  0
   58.4300   34.1440   52.3680 C   0  0  0  0  0  0  0  0  0  0  0  0
   57.8230   33.1790   53.2020 O   0  0  0  0  0  0  0  0  0  0  0  0
   57.0220   32.3150   52.4190 C   0  0  0  0  0  0  0  0  0  0  0  0
   57.8860   31.4890   51.4640 C   0  0  0  0  0  0  0  0  0  0  0  0
   61.7420   34.5690   48.9900 C   0  0  0  0  0  0  0  0  0  0  0  0
   62.8280   33.7140   49.6130 C   0  0  0  0  0  0  0  0  0  0  0  0
   62.8940   33.5270   51.0050 C   0  0  0  0  0  0  0  0  0  0  0  0
   63.9030   32.7390   51.5670 C   0  0  0  0  0  0  0  0  0  0  0  0
   64.8760   32.1580   50.7500 C   0  0  0  0  0  0  0  0  0  0  0  0
   64.8490   32.3790   49.3710 C   0  0  0  0  0  0  0  0  0  0  0  0
   63.8350   33.1580   48.8050 C   0  0  0  0  0  0  0  0  0  0  0  0
   57.8880   33.1710   45.6270 C   0  0  0  0  0  0  0  0  0  0  0  0
   57.0830   32.1990   45.0280 C   0  0  0  0  0  0  0  0  0  0  0  0
   55.7580   29.3670   42.0110 H   0  0  0  0  0  0  0  0  0  0  0  0
   57.3930   29.7380   42.0180 H   0  0  0  0  0  0  0  0  0  0  0  0
   59.1521   29.4980   45.3584 H   0  0  0  0  0  0  0  0  0  0  0  0
   60.5731   31.2288   46.4514 H   0  0  0  0  0  0  0  0  0  0  0  0
   60.8390   31.7843   47.9789 H   0  0  0  0  0  0  0  0  0  0  0  0
   61.3496   32.2393   49.6546 H   0  0  0  0  0  0  0  0  0  0  0  0
   60.2861   33.1113   51.9723 H   0  0  0  0  0  0  0  0  0  0  0  0
   59.7516   34.2316   50.6654 H   0  0  0  0  0  0  0  0  0  0  0  0
   58.9651   34.8745   52.9925 H   0  0  0  0  0  0  0  0  0  0  0  0
   57.6462   34.6433   51.7795 H   0  0  0  0  0  0  0  0  0  0  0  0
   56.4686   31.6354   53.0837 H   0  0  0  0  0  0  0  0  0  0  0  0
   56.3237   32.9234   51.8255 H   0  0  0  0  0  0  0  0  0  0  0  0
   58.4868   30.7737   52.0448 H   0  0  0  0  0  0  0  0  0  0  0  0
   57.2307   30.9497   50.7642 H   0  0  0  0  0  0  0  0  0  0  0  0
   62.1791   35.1148   48.1408 H   0  0  0  0  0  0  0  0  0  0  0  0
   61.3730   35.2342   49.7846 H   0  0  0  0  0  0  0  0  0  0  0  0
   62.1467   34.0039   51.6563 H   0  0  0  0  0  0  0  0  0  0  0  0
   63.9308   32.5762   52.6545 H   0  0  0  0  0  0  0  0  0  0  0  0
   65.6619   31.5277   51.1918 H   0  0  0  0  0  0  0  0  0  0  0  0
   65.6267   31.9395   48.7292 H   0  0  0  0  0  0  0  0  0  0  0  0
   63.8253   33.3370   47.7197 H   0  0  0  0  0  0  0  0  0  0  0  0
   57.5138   34.1996   45.7360 H   0  0  0  0  0  0  0  0  0  0  0  0
   56.0903   32.4719   44.6407 H   0  0  0  0  0  0  0  0  0  0  0  0
  1  2  1  0
  2  3  2  0
  2  4  2  0
  2  5  1  0
  5  6  2  0
  6  7  1  0
  7  8  2  0
  8  9  1  0
  9 10  2  0
  9 11  2  0
  9 12  1  0
 12 13  1  0
 13 14  1  0
 14 15  2  0
 14 16  1  0
 16 17  1  0
 17 18  1  0
 18 19  1  0
 19 20  1  0
 20 21  1  0
 12 22  1  0
 22 23  1  0
 23 24  2  0
 24 25  1  0
 25 26  2  0
 26 27  1  0
 27 28  2  0
  8 29  1  0
 29 30  2  0
 30  5  1  0
 21 16  1  0
 28 23  1  0
  1 31  1  0
  1 32  1  0
  6 33  1  0
  7 34  1  0
 13 35  1  0
 13 36  1  0
 17 37  1  0
 17 38  1  0
 18 39  1  0
 18 40  1  0
 20 41  1  0
 20 42  1  0
 21 43  1  0
 21 44  1  0
 22 45  1  0
 22 46  1  0
 24 47  1  0
 25 48  1  0
 26 49  1  0
 27 50  1  0
 28 51  1  0
 29 52  1  0
 30 53  1  0
M  END
>  <UniqueID>  (44) 
42

>  <SMILES>  (44) 
NS(=O)(=O)c1ccc(S(=O)(=O)N(CC(=O)N2CCOCC2)Cc2ccccc2)cc1

>  <Energy>  (44) 
56.31021347096976

>  <Genealogy>  (44) 
NS(=O)(=O)c1ccc(S(=O)(=O)N(CC(=O)N2CCOCC2)Cc2ccccc2)cc1 (3D coordinates assigned)
NS(=O)(=O)c1ccc(S(=O)(=O)N(CC(=O)N2CCOCC2)Cc2ccccc2)cc1 (nonaromatic ring conformer: 56.31021347096976 kcal/mol)

>  <smiles>  (44) 
NS(=O)(=O)c1ccc(S(=O)(=O)N(CC(=O)N2CCOCC2)Cc2ccccc2)cc1

>  <score_type>  (44) 
oracle

>  <origin>  (44) 
adg

>  <m_score__min__energy>  (44) 
-9.9800000000000004

>  <m_primary>  (44) 
energy

$$$$
44:0
     RDKit          3D

 13 13  0  0  0  0  0  0  0  0999 V2000
   49.9470   34.3430   53.9800 H   0  0  0  0  0  0  0  0  0  0  0  0
   50.2510   33.3820   54.2570 N   0  0  0  0  0  0  0  0  0  0  0  0
   50.7520   32.5570   53.3970 C   0  0  0  0  0  0  0  0  0  0  0  0
   50.6370   32.8150   52.0680 N   0  0  0  0  0  0  0  0  0  0  0  0
   51.1530   31.9650   51.1400 C   0  0  0  0  0  0  0  0  0  0  0  0
   51.0170   32.2630   49.7500 N   0  0  0  0  0  0  0  0  0  0  0  0
   50.1590   31.9690   49.2320 H   0  0  0  0  0  0  0  0  0  0  0  0
   51.7660   32.7760   49.2340 H   0  0  0  0  0  0  0  0  0  0  0  0
   51.8150   30.8050   51.5560 C   0  0  0  0  0  0  0  0  0  0  0  0
   52.2402   30.1051   50.8216 H   0  0  0  0  0  0  0  0  0  0  0  0
   51.9230   30.5570   52.9250 C   0  0  0  0  0  0  0  0  0  0  0  0
   52.5110   29.5230   53.3360 O   0  0  0  0  0  0  0  0  0  0  0  0
   51.3920   31.4320   53.8180 N   0  0  0  0  0  0  0  0  0  0  0  0
  1  2  1  0
  2  3  2  0
  3  4  1  0
  4  5  1  0
  5  6  1  0
  6  7  1  0
  6  8  1  0
  5  9  2  0
  9 10  1  0
  9 11  1  0
 11 12  2  0
 11 13  1  0
 13  3  1  0
M  CHG  2   4  -1  13  -1
M  END
>  <UniqueID>  (45) 
43

>  <SMILES>  (45) 
[H]/N=c1/[n-]c(N)cc(=O)[n-]1

>  <Energy>  (45) 
11.099101238595601

>  <Genealogy>  (45) 
N=c1[n-]c(N)cc(=O)[n-]1 (protonated)
[H]/N=c1/[n-]c(N)cc(=O)[n-]1 (cis-trans isomerization)
[H]/N=c1/[n-]c(N)cc(=O)[n-]1 (3D coordinates assigned)
[H]/N=c1/[n-]c(N)cc(=O)[n-]1 (optimized conformer: 11.099101238595601 kcal/mol)

>  <smiles>  (45) 
N=c1[nH]c(N)cc(=O)[nH]1

>  <score_type>  (45) 
oracle

>  <origin>  (45) 
adg

>  <m_score__min__energy>  (45) 
-9.2100000000000009

>  <m_primary>  (45) 
energy

$$$$
45:0
     RDKit          3D

 61 65  0  0  0  0  0  0  0  0999 V2000
   56.1040   23.6850   45.7100 C   0  0  0  0  0  0  0  0  0  0  0  0
   56.8140   24.8660   45.1160 C   0  0  0  0  0  0  0  0  0  0  0  0
   57.1270   24.8780   43.7490 C   0  0  0  0  0  0  0  0  0  0  0  0
   57.7550   25.9910   43.1800 C   0  0  0  0  0  0  0  0  0  0  0  0
   58.0650   27.1000   43.9710 C   0  0  0  0  0  0  0  0  0  0  0  0
   57.7370   27.1110   45.3370 C   0  0  0  0  0  0  0  0  0  0  0  0
   58.0970   28.2950   46.1900 C   0  0  0  0  0  0  0  0  0  0  0  0
   57.5230   29.5190   45.6220 N   0  0  0  0  0  0  0  0  0  0  0  0
   58.0810   30.7440   45.5140 C   0  0  0  0  0  0  0  0  0  0  0  0
   59.4620   31.1350   45.9900 C   0  0  0  0  0  0  0  0  0  0  0  0
   59.5150   31.3950   47.4730 C   0  0  0  0  0  0  0  0  0  0  0  0
   59.4290   32.6190   48.1370 C   0  0  0  0  0  0  0  0  0  0  0  0
   59.2810   34.2400   47.3770 S   0  0  0  0  0  0  0  0  0  0  0  0
   60.9350   34.2350   46.5960 C   0  0  0  0  0  0  0  0  0  0  0  0
   61.9530   33.6540   47.5380 C   0  0  0  0  0  0  0  0  0  0  0  0
   62.7190   32.5410   47.1500 C   0  0  0  0  0  0  0  0  0  0  0  0
   63.6750   32.0060   48.0190 C   0  0  0  0  0  0  0  0  0  0  0  0
   63.8870   32.5860   49.2710 C   0  0  0  0  0  0  0  0  0  0  0  0
   63.1220   33.6870   49.6700 C   0  0  0  0  0  0  0  0  0  0  0  0
   62.1490   34.2120   48.8130 C   0  0  0  0  0  0  0  0  0  0  0  0
   59.6330   32.4340   49.4620 N   0  0  0  0  0  0  0  0  0  0  0  0
   59.8660   31.1460   49.6610 N   0  0  0  0  0  0  0  0  0  0  0  0
   60.1600   30.5120   50.8280 C   0  0  0  0  0  0  0  0  0  0  0  0
   60.2130   31.2560   52.1300 C   0  0  0  0  0  0  0  0  0  0  0  0
   60.4440   29.1350   50.7640 C   0  0  0  0  0  0  0  0  0  0  0  0
   60.3940   28.4800   49.5150 C   0  0  0  0  0  0  0  0  0  0  0  0
   60.7180   27.0230   49.4150 C   0  0  0  0  0  0  0  0  0  0  0  0
   60.0880   29.1810   48.3860 N   0  0  0  0  0  0  0  0  0  0  0  0
   59.8160   30.5040   48.4850 C   0  0  0  0  0  0  0  0  0  0  0  0
   57.1940   31.5340   44.8040 C   0  0  0  0  0  0  0  0  0  0  0  0
   57.3830   32.8670   44.4620 O   0  0  0  0  0  0  0  0  0  0  0  0
   56.0870   30.8420   44.4760 N   0  0  0  0  0  0  0  0  0  0  0  0
   56.3320   29.6200   44.9890 C   0  0  0  0  0  0  0  0  0  0  0  0
   55.5200   28.6640   44.8790 O   0  0  0  0  0  0  0  0  0  0  0  0
   57.1070   25.9890   45.9030 C   0  0  0  0  0  0  0  0  0  0  0  0
   56.1420   23.7483   46.8075 H   0  0  0  0  0  0  0  0  0  0  0  0
   55.0550   23.6833   45.3790 H   0  0  0  0  0  0  0  0  0  0  0  0
   56.5945   22.7577   45.3790 H   0  0  0  0  0  0  0  0  0  0  0  0
   56.8778   24.0092   43.1220 H   0  0  0  0  0  0  0  0  0  0  0  0
   58.0050   25.9930   42.1088 H   0  0  0  0  0  0  0  0  0  0  0  0
   58.5684   27.9689   43.5220 H   0  0  0  0  0  0  0  0  0  0  0  0
   57.7019   28.1452   47.2056 H   0  0  0  0  0  0  0  0  0  0  0  0
   59.1920   28.3937   46.2249 H   0  0  0  0  0  0  0  0  0  0  0  0
   60.1605   30.3196   45.7507 H   0  0  0  0  0  0  0  0  0  0  0  0
   59.7367   32.0697   45.4793 H   0  0  0  0  0  0  0  0  0  0  0  0
   60.9016   33.6291   45.6785 H   0  0  0  0  0  0  0  0  0  0  0  0
   61.2201   35.2693   46.3532 H   0  0  0  0  0  0  0  0  0  0  0  0
   62.5658   32.0891   46.1589 H   0  0  0  0  0  0  0  0  0  0  0  0
   64.2613   31.1262   47.7154 H   0  0  0  0  0  0  0  0  0  0  0  0
   64.6555   32.1773   49.9436 H   0  0  0  0  0  0  0  0  0  0  0  0
   63.2857   34.1405   50.6587 H   0  0  0  0  0  0  0  0  0  0  0  0
   61.5350   35.0648   49.1382 H   0  0  0  0  0  0  0  0  0  0  0  0
   59.6560   33.1800   50.1920 H   0  0  0  0  0  0  0  0  0  0  0  0
   60.1620   30.5402   52.9637 H   0  0  0  0  0  0  0  0  0  0  0  0
   61.1538   31.8228   52.1904 H   0  0  0  0  0  0  0  0  0  0  0  0
   59.3621   31.9504   52.1904 H   0  0  0  0  0  0  0  0  0  0  0  0
   60.7017   28.5764   51.6759 H   0  0  0  0  0  0  0  0  0  0  0  0
   60.8125   26.5982   50.4253 H   0  0  0  0  0  0  0  0  0  0  0  0
   59.9132   26.5048   48.8731 H   0  0  0  0  0  0  0  0  0  0  0  0
   61.6666   26.8947   48.8731 H   0  0  0  0  0  0  0  0  0  0  0  0
   56.8420   25.9920   46.9706 H   0  0  0  0  0  0  0  0  0  0  0  0
  1  2  1  0
  2  3  2  0
  3  4  1  0
  4  5  2  0
  5  6  1  0
  6  7  1  0
  7  8  1  0
  8  9  1  0
  9 10  1  0
 10 11  1  0
 11 12  1  0
 12 13  1  0
 13 14  1  0
 14 15  1  0
 15 16  2  0
 16 17  1  0
 17 18  2  0
 18 19  1  0
 19 20  2  0
 12 21  2  0
 21 22  1  0
 22 23  1  0
 23 24  1  0
 23 25  2  0
 25 26  1  0
 26 27  1  0
 26 28  2  0
 28 29  1  0
  9 30  2  0
 30 31  1  0
 30 32  1  0
 32 33  1  0
 33 34  2  0
  6 35  2  0
 35  2  1  0
 33  8  1  0
 29 11  2  0
 20 15  1  0
 29 22  1  0
  1 36  1  0
  1 37  1  0
  1 38  1  0
  3 39  1  0
  4 40  1  0
  5 41  1  0
  7 42  1  0
  7 43  1  0
 10 44  1  0
 10 45  1  0
 14 46  1  0
 14 47  1  0
 16 48  1  0
 17 49  1  0
 18 50  1  0
 19 51  1  0
 20 52  1  0
 21 53  1  0
 24 54  1  0
 24 55  1  0
 24 56  1  0
 25 57  1  0
 27 58  1  0
 27 59  1  0
 27 60  1  0
 35 61  1  0
M  CHG  3  21   1  31  -1  32  -1
M  END
>  <UniqueID>  (46) 
44

>  <SMILES>  (46) 
Cc1cccc(Cn2c(Cc3c(SCc4ccccc4)[nH+]n4c(C)cc(C)nc34)c([O-])[n-]c2=O)c1

>  <Energy>  (46) 
126.08815895634294

>  <Genealogy>  (46) 
Cc1cccc(Cn2c(Cc3c(SCc4ccccc4)[nH+]n4c(C)cc(C)nc34)c([O-])[n-]c2=O)c1 (protonated)
Cc1cccc(Cn2c(Cc3c(SCc4ccccc4)[nH+]n4c(C)cc(C)nc34)c([O-])[n-]c2=O)c1 (3D coordinates assigned)
Cc1cccc(Cn2c(Cc3c(SCc4ccccc4)[nH+]n4c(C)cc(C)nc34)c([O-])[n-]c2=O)c1 (optimized conformer: 126.08815895634294 kcal/mol)

>  <smiles>  (46) 
Cc1cccc(Cn2c(Cc3c(SCc4ccccc4)nn4c(C)cc(C)nc34)c(O)[nH]c2=O)c1

>  <score_type>  (46) 
oracle

>  <origin>  (46) 
adg

>  <m_score__min__energy>  (46) 
-13.949999999999999

>  <m_primary>  (46) 
energy

$$$$
46:0
     RDKit          3D

 39 41  0  0  0  0  0  0  0  0999 V2000
   59.6190   34.8780   46.0140 C   0  0  0  0  0  0  0  0  0  0  0  0
   60.5440   33.7990   46.4770 C   0  0  0  0  0  0  0  0  0  0  0  0
   61.9020   33.9270   46.3460 N   0  0  0  0  0  0  0  0  0  0  0  0
   62.6090   32.8930   46.7960 N   0  0  0  0  0  0  0  0  0  0  0  0
   61.5410   31.7690   47.3810 S   0  0  0  0  0  0  0  0  0  0  0  0
   60.1270   32.5980   47.0650 C   0  0  0  0  0  0  0  0  0  0  0  0
   58.7640   32.1260   47.3520 C   0  0  0  0  0  0  0  0  0  0  0  0
   58.5140   31.6110   48.4750 O   0  0  0  0  0  0  0  0  0  0  0  0
   57.7460   32.3030   46.4050 O   0  0  0  0  0  0  0  0  0  0  0  0
   57.5160   31.4750   45.2970 C   0  0  0  0  0  0  0  0  0  0  0  0
   57.4530   32.0620   44.0290 C   0  0  0  0  0  0  0  0  0  0  0  0
   57.2270   31.2770   42.8960 C   0  0  0  0  0  0  0  0  0  0  0  0
   57.0760   29.8950   43.0200 C   0  0  0  0  0  0  0  0  0  0  0  0
   57.1610   29.2790   44.2820 C   0  0  0  0  0  0  0  0  0  0  0  0
   57.0110   27.8480   44.4110 N   0  0  0  0  0  0  0  0  0  0  0  0
   58.0230   27.3070   45.2950 C   0  0  0  0  0  0  0  0  0  0  0  0
   59.3400   27.8030   45.1890 C   0  0  0  0  0  0  0  0  0  0  0  0
   60.3430   27.3700   46.0530 C   0  0  0  0  0  0  0  0  0  0  0  0
   60.0520   26.4470   47.0520 C   0  0  0  0  0  0  0  0  0  0  0  0
   58.7570   25.9500   47.1890 C   0  0  0  0  0  0  0  0  0  0  0  0
   57.7290   26.3580   46.3190 C   0  0  0  0  0  0  0  0  0  0  0  0
   56.3820   25.7810   46.5380 C   0  0  0  0  0  0  0  0  0  0  0  0
   55.2350   26.4280   45.9910 N   0  0  0  0  0  0  0  0  0  0  0  0
   56.2270   24.7520   47.2470 O   0  0  0  0  0  0  0  0  0  0  0  0
   57.3890   30.0790   45.4170 C   0  0  0  0  0  0  0  0  0  0  0  0
   59.1830   35.3866   46.8865 H   0  0  0  0  0  0  0  0  0  0  0  0
   60.1785   35.6053   45.4074 H   0  0  0  0  0  0  0  0  0  0  0  0
   58.8148   34.4362   45.4074 H   0  0  0  0  0  0  0  0  0  0  0  0
   57.5823   33.1493   43.9233 H   0  0  0  0  0  0  0  0  0  0  0  0
   57.1679   31.7489   41.9041 H   0  0  0  0  0  0  0  0  0  0  0  0
   56.8893   29.2834   42.1250 H   0  0  0  0  0  0  0  0  0  0  0  0
   56.0730   27.6130   44.8120 H   0  0  0  0  0  0  0  0  0  0  0  0
   57.0220   27.4170   43.4620 H   0  0  0  0  0  0  0  0  0  0  0  0
   59.5783   28.5436   44.4114 H   0  0  0  0  0  0  0  0  0  0  0  0
   61.3665   27.7585   45.9452 H   0  0  0  0  0  0  0  0  0  0  0  0
   60.8451   26.1087   47.7350 H   0  0  0  0  0  0  0  0  0  0  0  0
   58.5353   25.2282   47.9890 H   0  0  0  0  0  0  0  0  0  0  0  0
   55.1410   27.4680   46.0190 H   0  0  0  0  0  0  0  0  0  0  0  0
   57.4687   29.6082   46.4079 H   0  0  0  0  0  0  0  0  0  0  0  0
  1  2  1  0
  2  3  1  0
  3  4  2  0
  4  5  1  0
  5  6  1  0
  6  7  1  0
  7  8  2  0
  7  9  1  0
  9 10  1  0
 10 11  2  0
 11 12  1  0
 12 13  2  0
 13 14  1  0
 14 15  1  0
 15 16  1  0
 16 17  2  0
 17 18  1  0
 18 19  2  0
 19 20  1  0
 20 21  2  0
 21 22  1  0
 22 23  1  0
 22 24  2  0
 14 25  2  0
  6  2  2  0
 25 10  1  0
 21 16  1  0
  1 26  1  0
  1 27  1  0
  1 28  1  0
 11 29  1  0
 12 30  1  0
 13 31  1  0
 15 32  1  0
 15 33  1  0
 17 34  1  0
 18 35  1  0
 19 36  1  0
 20 37  1  0
 23 38  1  0
 25 39  1  0
M  CHG  2  15   1  23  -1
M  END
>  <UniqueID>  (47) 
45

>  <SMILES>  (47) 
Cc1nnsc1C(=O)Oc1cccc([NH2+]c2ccccc2C([NH-])=O)c1

>  <Energy>  (47) 
91.63077000426756

>  <Genealogy>  (47) 
Cc1nnsc1C(=O)Oc1cccc([NH2+]c2ccccc2C([NH-])=O)c1 (protonated)
Cc1nnsc1C(=O)Oc1cccc([NH2+]c2ccccc2C([NH-])=O)c1 (3D coordinates assigned)
Cc1nnsc1C(=O)Oc1cccc([NH2+]c2ccccc2C([NH-])=O)c1 (optimized conformer: 91.63077000426756 kcal/mol)

>  <smiles>  (47) 
Cc1nnsc1C(=O)Oc1cccc(Nc2ccccc2C(N)=O)c1

>  <score_type>  (47) 
oracle

>  <origin>  (47) 
adg

>  <m_score__min__energy>  (47) 
-10.42

>  <m_primary>  (47) 
energy

$$$$
47:0
     RDKit          3D

 57 59  0  0  0  0  0  0  0  0999 V2000
   67.1930   33.2320   50.4690 C   0  0  0  0  0  0  0  0  0  0  0  0
   65.8040   32.7340   50.2530 C   0  0  0  0  0  0  0  0  0  0  0  0
   65.2760   31.5760   50.7840 C   0  0  0  0  0  0  0  0  0  0  0  0
   63.9730   31.5210   50.3350 C   0  0  0  0  0  0  0  0  0  0  0  0
   63.7880   32.6560   49.5570 C   0  0  0  0  0  0  0  0  0  0  0  0
   62.5520   33.0620   48.8480 C   0  0  0  0  0  0  0  0  0  0  0  0
   62.0960   32.3730   47.7090 C   0  0  0  0  0  0  0  0  0  0  0  0
   60.9240   32.7730   47.0610 C   0  0  0  0  0  0  0  0  0  0  0  0
   60.1860   33.8640   47.5400 C   0  0  0  0  0  0  0  0  0  0  0  0
   58.9300   34.2940   46.8320 C   0  0  0  0  0  0  0  0  0  0  0  0
   58.4080   33.2100   46.0030 N   0  0  0  0  0  0  0  0  0  0  0  0
   58.5160   33.2030   44.5750 C   0  0  0  0  0  0  0  0  0  0  0  0
   59.2220   34.0580   43.9770 O   0  0  0  0  0  0  0  0  0  0  0  0
   57.6460   31.9540   43.6270 S   0  0  0  0  0  0  0  0  0  0  0  0
   58.6580   30.5500   44.2280 C   0  0  0  0  0  0  0  0  0  0  0  0
   57.9870   29.7640   45.3690 C   0  0  1  0  0  0  0  0  0  0  0  0
   58.2010   30.4450   46.6440 N   0  0  0  0  0  0  0  0  0  0  0  0
   58.5450   29.8050   47.8810 C   0  0  0  0  0  0  0  0  0  0  0  0
   58.4460   28.5530   47.9670 O   0  0  0  0  0  0  0  0  0  0  0  0
   59.0090   30.5720   49.0540 C   0  0  0  0  0  0  0  0  0  0  0  0
   58.4410   31.8260   49.3310 C   0  0  0  0  0  0  0  0  0  0  0  0
   58.8810   32.5750   50.4250 C   0  0  0  0  0  0  0  0  0  0  0  0
   59.8850   32.0760   51.2580 C   0  0  0  0  0  0  0  0  0  0  0  0
   60.4250   33.0120   52.6390 Cl  0  0  0  0  0  0  0  0  0  0  0  0
   60.4620   30.8330   50.9870 C   0  0  0  0  0  0  0  0  0  0  0  0
   60.0370   30.0800   49.8850 C   0  0  0  0  0  0  0  0  0  0  0  0
   60.7770   28.5090   49.6020 Cl  0  0  0  0  0  0  0  0  0  0  0  0
   56.5110   29.6350   45.1290 C   0  0  0  0  0  0  0  0  0  0  0  0
   55.8300   30.6470   44.8070 O   0  0  0  0  0  0  0  0  0  0  0  0
   55.8870   28.3530   45.2440 N   0  0  0  0  0  0  0  0  0  0  0  0
   56.6020   27.1620   45.6800 C   0  0  0  0  0  0  0  0  0  0  0  0
   55.6210   26.1590   46.1880 C   0  0  0  0  0  0  0  0  0  0  0  0
   54.3890   26.3250   45.9940 O   0  0  0  0  0  0  0  0  0  0  0  0
   56.0710   25.0090   46.8230 O   0  0  0  0  0  0  0  0  0  0  0  0
   60.6390   34.5560   48.6720 C   0  0  0  0  0  0  0  0  0  0  0  0
   61.8110   34.1590   49.3200 C   0  0  0  0  0  0  0  0  0  0  0  0
   64.9010   33.3550   49.5320 O   0  0  0  0  0  0  0  0  0  0  0  0
   67.3931   33.3037   51.5483 H   0  0  0  0  0  0  0  0  0  0  0  0
   67.9083   32.5343   50.0090 H   0  0  0  0  0  0  0  0  0  0  0  0
   67.3021   34.2252   50.0090 H   0  0  0  0  0  0  0  0  0  0  0  0
   65.7874   30.8479   51.4308 H   0  0  0  0  0  0  0  0  0  0  0  0
   63.2314   30.7374   50.5496 H   0  0  0  0  0  0  0  0  0  0  0  0
   62.6659   31.5136   47.3259 H   0  0  0  0  0  0  0  0  0  0  0  0
   60.5788   32.2283   46.1698 H   0  0  0  0  0  0  0  0  0  0  0  0
   58.1725   34.5745   47.5787 H   0  0  0  0  0  0  0  0  0  0  0  0
   59.1645   35.1524   46.1854 H   0  0  0  0  0  0  0  0  0  0  0  0
   57.8840   32.4360   46.4700 H   0  0  0  0  0  0  0  0  0  0  0  0
   58.8366   29.8628   43.3879 H   0  0  0  0  0  0  0  0  0  0  0  0
   59.5944   30.9684   44.6256 H   0  0  0  0  0  0  0  0  0  0  0  0
   58.4385   28.7614   45.4011 H   0  0  0  0  0  0  0  0  0  0  0  0
   57.6449   32.2209   48.6827 H   0  0  0  0  0  0  0  0  0  0  0  0
   58.4359   33.5597   50.6308 H   0  0  0  0  0  0  0  0  0  0  0  0
   61.2546   30.4433   51.6427 H   0  0  0  0  0  0  0  0  0  0  0  0
   57.1582   26.7358   44.8321 H   0  0  0  0  0  0  0  0  0  0  0  0
   57.3076   27.4272   46.4811 H   0  0  0  0  0  0  0  0  0  0  0  0
   60.0684   35.4163   49.0519 H   0  0  0  0  0  0  0  0  0  0  0  0
   62.1569   34.7096   50.2072 H   0  0  0  0  0  0  0  0  0  0  0  0
  1  2  1  0
  2  3  2  0
  3  4  1  0
  4  5  2  0
  5  6  1  0
  6  7  2  0
  7  8  1  0
  8  9  2  0
  9 10  1  0
 10 11  1  0
 11 12  1  0
 12 13  2  0
 12 14  1  0
 14 15  1  0
 15 16  1  0
 16 17  1  0
 17 18  1  0
 18 19  2  0
 18 20  1  0
 20 21  2  0
 21 22  1  0
 22 23  2  0
 23 24  1  0
 23 25  1  0
 25 26  2  0
 26 27  1  0
 16 28  1  0
 28 29  2  0
 28 30  1  0
 30 31  1  0
 31 32  1  0
 32 33  2  0
 32 34  1  0
  9 35  1  0
 35 36  2  0
  5 37  1  0
 37  2  1  0
 36  6  1  0
 26 20  1  0
  1 38  1  0
  1 39  1  0
  1 40  1  0
  3 41  1  0
  4 42  1  0
  7 43  1  0
  8 44  1  0
 10 45  1  0
 10 46  1  0
 11 47  1  0
 15 48  1  0
 15 49  1  0
 16 50  1  1
 21 51  1  0
 22 52  1  0
 25 53  1  0
 31 54  1  0
 31 55  1  0
 35 56  1  0
 36 57  1  0
M  CHG  3  17  -1  30  -1  34  -1
M  END
>  <UniqueID>  (48) 
46

>  <SMILES>  (48) 
Cc1ccc(-c2ccc(CNC(=O)SC[C@@H]([N-]C(=O)c3ccc(Cl)cc3Cl)C(=O)[N-]CC(=O)[O-])cc2)o1

>  <Energy>  (48) 
74.49139218735452

>  <Genealogy>  (48) 
Cc1ccc(-c2ccc(CNC(=O)SCC([N-]C(=O)c3ccc(Cl)cc3Cl)C(=O)[N-]CC(=O)[O-])cc2)o1 (protonated)
Cc1ccc(-c2ccc(CNC(=O)SC[C@@H]([N-]C(=O)c3ccc(Cl)cc3Cl)C(=O)[N-]CC(=O)[O-])cc2)o1 (chirality)
Cc1ccc(-c2ccc(CNC(=O)SC[C@@H]([N-]C(=O)c3ccc(Cl)cc3Cl)C(=O)[N-]CC(=O)[O-])cc2)o1 (3D coordinates assigned)
Cc1ccc(-c2ccc(CNC(=O)SC[C@@H]([N-]C(=O)c3ccc(Cl)cc3Cl)C(=O)[N-]CC(=O)[O-])cc2)o1 (optimized conformer: 74.49139218735452 kcal/mol)

>  <smiles>  (48) 
Cc1ccc(-c2ccc(CNC(=O)SCC(NC(=O)c3ccc(Cl)cc3Cl)C(=O)NCC(=O)O)cc2)o1

>  <score_type>  (48) 
oracle

>  <origin>  (48) 
adg

>  <m_score__min__energy>  (48) 
-16.399999999999999

>  <m_primary>  (48) 
energy

$$$$
48:0
     RDKit          3D

 40 43  0  0  0  0  0  0  0  0999 V2000
   54.0678   28.4203   54.5786 H   0  0  0  0  0  0  0  0  0  0  0  0
   55.0150   28.6030   54.0500 C   0  0  0  0  0  0  0  0  0  0  0  0
   56.1190   27.8780   54.3560 N   0  0  0  0  0  0  0  0  0  0  0  0
   57.3100   28.0640   53.7230 C   0  0  0  0  0  0  0  0  0  0  0  0
   58.3590   27.3690   54.0640 N   0  0  0  0  0  0  0  0  0  0  0  0
   58.7930   26.1200   53.5000 C   0  0  0  0  0  0  0  0  0  0  0  0
   60.0530   26.0740   52.8530 C   0  0  0  0  0  0  0  0  0  0  0  0
   60.6803   26.9771   52.8208 H   0  0  0  0  0  0  0  0  0  0  0  0
   60.5120   24.8870   52.2510 C   0  0  0  0  0  0  0  0  0  0  0  0
   61.4944   24.8416   51.7583 H   0  0  0  0  0  0  0  0  0  0  0  0
   59.6800   23.7740   52.3010 C   0  0  0  0  0  0  0  0  0  0  0  0
   59.9020   22.5530   51.7860 N   0  0  0  0  0  0  0  0  0  0  0  0
   58.8270   21.8150   52.0500 N   0  0  0  0  0  0  0  0  0  0  0  0
   57.9250   22.5640   52.7280 C   0  0  0  0  0  0  0  0  0  0  0  0
   56.9391   22.2267   53.0806 H   0  0  0  0  0  0  0  0  0  0  0  0
   58.4570   23.8180   52.8980 C   0  0  0  0  0  0  0  0  0  0  0  0
   57.9640   24.9710   53.5030 C   0  0  0  0  0  0  0  0  0  0  0  0
   56.9667   24.9892   53.9667 H   0  0  0  0  0  0  0  0  0  0  0  0
   57.3970   29.0560   52.7180 C   0  0  0  0  0  0  0  0  0  0  0  0
   58.6470   29.3470   51.9640 C   0  0  0  0  0  0  0  0  0  0  0  0
   58.5930   29.8230   50.7970 O   0  0  0  0  0  0  0  0  0  0  0  0
   59.9280   29.0910   52.5600 N   0  0  0  0  0  0  0  0  0  0  0  0
   59.9910   28.6970   53.5260 H   0  0  0  0  0  0  0  0  0  0  0  0
   61.1710   29.3690   51.8500 C   0  0  0  0  0  0  0  0  0  0  0  0
   61.9763   29.5491   52.5773 H   0  0  0  0  0  0  0  0  0  0  0  0
   61.4332   28.5073   51.2185 H   0  0  0  0  0  0  0  0  0  0  0  0
   61.0411   30.2603   51.2185 H   0  0  0  0  0  0  0  0  0  0  0  0
   56.2790   29.7750   52.4210 N   0  0  0  0  0  0  0  0  0  0  0  0
   55.0900   29.5870   53.0550 C   0  0  0  0  0  0  0  0  0  0  0  0
   53.9170   30.4120   52.6660 C   0  0  0  0  0  0  0  0  0  0  0  0
   52.9160   30.6940   53.6150 C   0  0  0  0  0  0  0  0  0  0  0  0
   53.0116   30.3062   54.6399 H   0  0  0  0  0  0  0  0  0  0  0  0
   51.8010   31.4630   53.2660 C   0  0  0  0  0  0  0  0  0  0  0  0
   51.0285   31.6829   54.0176 H   0  0  0  0  0  0  0  0  0  0  0  0
   51.6670   31.9520   51.9650 C   0  0  0  0  0  0  0  0  0  0  0  0
   50.5590   32.7160   51.6200 O   0  0  0  0  0  0  0  0  0  0  0  0
   52.6470   31.6700   51.0100 C   0  0  0  0  0  0  0  0  0  0  0  0
   52.5397   32.0532   49.9845 H   0  0  0  0  0  0  0  0  0  0  0  0
   53.7640   30.9020   51.3540 C   0  0  0  0  0  0  0  0  0  0  0  0
   54.5283   30.6790   50.5950 H   0  0  0  0  0  0  0  0  0  0  0  0
  1  2  1  0
  2  3  1  0
  3  4  1  0
  4  5  2  0
  5  6  1  0
  6  7  2  0
  7  8  1  0
  7  9  1  0
  9 10  1  0
  9 11  2  0
 11 12  1  0
 12 13  1  0
 13 14  2  0
 14 15  1  0
 14 16  1  0
 16 17  2  0
 17 18  1  0
  4 19  1  0
 19 20  1  0
 20 21  2  0
 20 22  1  0
 22 23  1  0
 22 24  1  0
 24 25  1  0
 24 26  1  0
 24 27  1  0
 19 28  2  0
 28 29  1  0
 29 30  1  0
 30 31  2  0
 31 32  1  0
 31 33  1  0
 33 34  1  0
 33 35  2  0
 35 36  1  0
 35 37  1  0
 37 38  1  0
 37 39  2  0
 39 40  1  0
 29  2  2  0
 39 30  1  0
 17  6  1  0
 16 11  1  0
M  CHG  3   3  -1  12  -1  36  -1
M  END
>  <UniqueID>  (49) 
47

>  <SMILES>  (49) 
CNC(=O)c1nc(-c2ccc([O-])cc2)c[n-]/c1=N\c1ccc2[n-]ncc2c1

>  <Energy>  (49) 
93.93095053083351

>  <Genealogy>  (49) 
CNC(=O)c1nc(-c2ccc([O-])cc2)c[n-]c1=Nc1ccc2[n-]ncc2c1 (protonated)
CNC(=O)c1nc(-c2ccc([O-])cc2)c[n-]/c1=N\c1ccc2[n-]ncc2c1 (cis-trans isomerization)
CNC(=O)c1nc(-c2ccc([O-])cc2)c[n-]/c1=N\c1ccc2[n-]ncc2c1 (3D coordinates assigned)
CNC(=O)c1nc(-c2ccc([O-])cc2)c[n-]/c1=N\c1ccc2[n-]ncc2c1 (optimized conformer: 93.93095053083351 kcal/mol)

>  <smiles>  (49) 
CNC(=O)c1nc(-c2ccc(O)cc2)c[nH]c1=Nc1ccc2[nH]ncc2c1

>  <score_type>  (49) 
oracle

>  <origin>  (49) 
adg

>  <m_score__min__energy>  (49) 
-11.31

>  <m_primary>  (49) 
energy

$$$$
49:0
     RDKit          3D

 33 34  0  0  1  0  0  0  0  0999 V2000
   56.2710   29.6530   42.7800 C   0  0  0  0  0  0  0  0  0  0  0  0
   55.9070   30.1440   44.1230 C   0  0  0  0  0  0  0  0  0  0  0  0
   55.2380   29.3700   44.8620 O   0  0  0  0  0  0  0  0  0  0  0  0
   56.2860   31.4340   44.5780 N   0  0  0  0  0  0  0  0  0  0  0  0
   57.4010   31.6910   45.1390 C   0  0  0  0  0  0  0  0  0  0  0  0
   58.2020   30.6840   45.6040 C   0  0  0  0  0  0  0  0  0  0  0  0
   59.4230   30.9310   46.2200 C   0  0  0  0  0  0  0  0  0  0  0  0
   60.2620   29.8950   46.7050 N   0  0  0  0  0  0  0  0  0  0  0  0
   60.7350   28.8420   45.8330 C   0  0  0  0  0  0  0  0  0  0  0  0
   59.5800   27.9430   45.5530 C   0  0  0  0  0  0  0  0  0  0  0  0
   58.9260   27.2540   46.5490 C   0  0  0  0  0  0  0  0  0  0  0  0
   57.8660   26.4440   46.1800 C   0  0  0  0  0  0  0  0  0  0  0  0
   57.4720   26.3270   44.8620 C   0  0  0  0  0  0  0  0  0  0  0  0
   58.1310   27.0190   43.8660 C   0  0  0  0  0  0  0  0  0  0  0  0
   59.1850   27.8240   44.2290 C   0  0  0  0  0  0  0  0  0  0  0  0
   59.7900   32.2320   46.3420 N   0  0  0  0  0  0  0  0  0  0  0  0
   58.9780   33.2240   45.8710 C   0  0  0  0  0  0  0  0  0  0  0  0
   59.3390   34.6100   45.9850 C   0  0  0  0  0  0  0  0  0  0  0  0
   59.6250   35.7320   46.0960 N   0  0  0  0  0  0  0  0  0  0  0  0
   57.8010   32.9480   45.2800 N   0  0  0  0  0  0  0  0  0  0  0  0
   56.9236   28.7727   42.8759 H   0  0  0  0  0  0  0  0  0  0  0  0
   55.3589   29.3753   42.2315 H   0  0  0  0  0  0  0  0  0  0  0  0
   56.8019   30.4450   42.2315 H   0  0  0  0  0  0  0  0  0  0  0  0
   57.8679   29.6426   45.4862 H   0  0  0  0  0  0  0  0  0  0  0  0
   60.5180   29.9410   47.7300 H   0  0  0  0  0  0  0  0  0  0  0  0
   61.1125   29.2727   44.8939 H   0  0  0  0  0  0  0  0  0  0  0  0
   61.5555   28.2839   46.3076 H   0  0  0  0  0  0  0  0  0  0  0  0
   59.2348   27.3439   47.6009 H   0  0  0  0  0  0  0  0  0  0  0  0
   57.3251   25.8806   46.9546 H   0  0  0  0  0  0  0  0  0  0  0  0
   56.6243   25.6757   44.6030 H   0  0  0  0  0  0  0  0  0  0  0  0
   57.8224   26.9292   42.8140 H   0  0  0  0  0  0  0  0  0  0  0  0
   59.7261   28.3853   43.4530 H   0  0  0  0  0  0  0  0  0  0  0  0
   60.6930   32.5130   46.7920 H   0  0  0  0  0  0  0  0  0  0  0  0
  1  2  1  0
  2  3  2  0
  2  4  1  0
  4  5  2  0
  5  6  1  0
  6  7  2  0
  7  8  1  0
  8  9  1  0
  9 10  1  0
 10 11  2  0
 11 12  1  0
 12 13  2  0
 13 14  1  0
 14 15  2  0
  7 16  1  0
 16 17  1  0
 17 18  1  0
 18 19  3  0
 17 20  2  0
 20  5  1  0
 15 10  1  0
  1 21  1  0
  1 22  1  0
  1 23  1  0
  6 24  1  0
  8 25  1  0
  9 26  1  0
  9 27  1  0
 11 28  1  0
 12 29  1  0
 13 30  1  0
 14 31  1  0
 15 32  1  0
 16 33  1  0
M  END
>  <smiles>  (50) 
CC(=O)N=c1cc(NCc2ccccc2)[nH]c(C#N)n1

>  <score_type>  (50) 
oracle

>  <origin>  (50) 
adg

>  <m_score__min__energy>  (50) 
-6.79

>  <m_primary>  (50) 
energy

$$$$
50:0
     RDKit          3D

 62 65  0  0  0  0  0  0  0  0999 V2000
   59.6710   30.3620   50.8520 C   0  0  0  0  0  0  0  0  0  0  0  0
   60.3210   31.3810   50.0080 N   0  0  0  0  0  0  0  0  0  0  0  0
   61.1090   30.7200   48.9470 C   0  0  0  0  0  0  0  0  0  0  0  0
   60.1950   30.1090   47.9170 C   0  0  0  0  0  0  0  0  0  0  0  0
   59.7040   28.8080   48.1000 C   0  0  0  0  0  0  0  0  0  0  0  0
   58.8350   28.2430   47.1630 C   0  0  0  0  0  0  0  0  0  0  0  0
   58.4310   28.9750   46.0350 C   0  0  0  0  0  0  0  0  0  0  0  0
   57.4930   28.3730   45.0600 C   0  0  0  0  0  0  0  0  0  0  0  0
   56.5050   29.0450   44.6600 O   0  0  0  0  0  0  0  0  0  0  0  0
   57.6680   27.0410   44.5550 N   0  0  0  0  0  0  0  0  0  0  0  0
   57.3300   25.8300   45.2490 C   0  0  0  0  0  0  0  0  0  0  0  0
   58.2720   24.7930   45.2610 C   0  0  0  0  0  0  0  0  0  0  0  0
   57.9700   23.5680   45.8620 C   0  0  0  0  0  0  0  0  0  0  0  0
   56.7280   23.3750   46.4660 C   0  0  0  0  0  0  0  0  0  0  0  0
   55.7930   24.4120   46.4940 C   0  0  0  0  0  0  0  0  0  0  0  0
   56.0880   25.6530   45.9080 C   0  0  0  0  0  0  0  0  0  0  0  0
   55.1490   26.7270   46.0430 N   0  0  0  0  0  0  0  0  0  0  0  0
   58.9390   30.2720   45.8450 C   0  0  0  0  0  0  0  0  0  0  0  0
   59.8080   30.8360   46.7820 C   0  0  0  0  0  0  0  0  0  0  0  0
   61.1790   32.2650   50.8250 C   0  0  0  0  0  0  0  0  0  0  0  0
   62.5900   32.2530   50.3100 C   0  0  0  0  0  0  0  0  0  0  0  0
   63.4380   31.2760   50.5460 O   0  0  0  0  0  0  0  0  0  0  0  0
   64.5880   31.5660   49.9810 C   0  0  0  0  0  0  0  0  0  0  0  0
   64.5030   32.7890   49.3460 C   0  0  0  0  0  0  0  0  0  0  0  0
   63.2150   33.2370   49.5610 C   0  0  0  0  0  0  0  0  0  0  0  0
   62.6560   34.5500   49.1030 C   0  0  0  0  0  0  0  0  0  0  0  0
   61.3200   34.3640   48.5510 N   0  0  0  0  0  0  0  0  0  0  0  0
   61.0830   34.1280   47.1580 C   0  0  0  0  0  0  0  0  0  0  0  0
   62.0580   34.0200   46.3650 O   0  0  0  0  0  0  0  0  0  0  0  0
   59.7030   33.9740   46.6490 C   0  0  0  0  0  0  0  0  0  0  0  0
   59.4320   34.2380   45.2940 C   0  0  0  0  0  0  0  0  0  0  0  0
   58.1370   34.0940   44.7890 C   0  0  0  0  0  0  0  0  0  0  0  0
   57.0990   33.6930   45.6300 C   0  0  0  0  0  0  0  0  0  0  0  0
   57.3500   33.4430   46.9810 C   0  0  0  0  0  0  0  0  0  0  0  0
   58.6450   33.5890   47.5000 C   0  0  0  0  0  0  0  0  0  0  0  0
   58.8700   33.3810   48.8590 O   0  0  0  0  0  0  0  0  0  0  0  0
   59.8286   30.6091   51.9122 H   0  0  0  0  0  0  0  0  0  0  0  0
   58.5925   30.3413   50.6368 H   0  0  0  0  0  0  0  0  0  0  0  0
   60.1069   29.3752   50.6368 H   0  0  0  0  0  0  0  0  0  0  0  0
   61.7574   31.4636   48.4606 H   0  0  0  0  0  0  0  0  0  0  0  0
   61.7193   29.9243   49.3992 H   0  0  0  0  0  0  0  0  0  0  0  0
   60.0046   28.2294   48.9859 H   0  0  0  0  0  0  0  0  0  0  0  0
   58.4648   27.2176   47.3101 H   0  0  0  0  0  0  0  0  0  0  0  0
   59.2564   24.9441   44.7940 H   0  0  0  0  0  0  0  0  0  0  0  0
   58.7120   22.7560   45.8586 H   0  0  0  0  0  0  0  0  0  0  0  0
   56.4842   22.4038   46.9214 H   0  0  0  0  0  0  0  0  0  0  0  0
   54.8182   24.2552   46.9788 H   0  0  0  0  0  0  0  0  0  0  0  0
   54.3790   26.6970   46.7460 H   0  0  0  0  0  0  0  0  0  0  0  0
   55.1500   27.5190   45.3630 H   0  0  0  0  0  0  0  0  0  0  0  0
   58.6502   30.8465   44.9525 H   0  0  0  0  0  0  0  0  0  0  0  0
   60.1908   31.8558   46.6288 H   0  0  0  0  0  0  0  0  0  0  0  0
   60.7865   33.2916   50.7809 H   0  0  0  0  0  0  0  0  0  0  0  0
   61.1767   31.9018   51.8633 H   0  0  0  0  0  0  0  0  0  0  0  0
   65.4847   30.9295   50.0096 H   0  0  0  0  0  0  0  0  0  0  0  0
   65.2981   33.3011   48.7843 H   0  0  0  0  0  0  0  0  0  0  0  0
   62.6029   35.2402   49.9579 H   0  0  0  0  0  0  0  0  0  0  0  0
   63.3112   34.9665   48.3237 H   0  0  0  0  0  0  0  0  0  0  0  0
   60.2454   34.5601   44.6272 H   0  0  0  0  0  0  0  0  0  0  0  0
   57.9359   34.2972   43.7268 H   0  0  0  0  0  0  0  0  0  0  0  0
   56.0818   33.5735   45.2288 H   0  0  0  0  0  0  0  0  0  0  0  0
   56.5279   33.1300   47.6415 H   0  0  0  0  0  0  0  0  0  0  0  0
   59.8070   33.3310   49.2410 H   0  0  0  0  0  0  0  0  0  0  0  0
  1  2  1  0
  2  3  1  0
  3  4  1  0
  4  5  2  0
  5  6  1  0
  6  7  2  0
  7  8  1  0
  8  9  2  0
  8 10  1  0
 10 11  1  0
 11 12  2  0
 12 13  1  0
 13 14  2  0
 14 15  1  0
 15 16  2  0
 16 17  1  0
  7 18  1  0
 18 19  2  0
  2 20  1  0
 20 21  1  0
 21 22  1  0
 22 23  1  0
 23 24  2  0
 24 25  1  0
 25 26  1  0
 26 27  1  0
 27 28  1  0
 28 29  2  0
 28 30  1  0
 30 31  2  0
 31 32  1  0
 32 33  2  0
 33 34  1  0
 34 35  2  0
 35 36  1  0
 19  4  1  0
 25 21  2  0
 35 30  1  0
 16 11  1  0
  1 37  1  0
  1 38  1  0
  1 39  1  0
  3 40  1  0
  3 41  1  0
  5 42  1  0
  6 43  1  0
 12 44  1  0
 13 45  1  0
 14 46  1  0
 15 47  1  0
 17 48  1  0
 17 49  1  0
 18 50  1  0
 19 51  1  0
 20 52  1  0
 20 53  1  0
 23 54  1  0
 24 55  1  0
 26 56  1  0
 26 57  1  0
 31 58  1  0
 32 59  1  0
 33 60  1  0
 34 61  1  0
 36 62  1  0
M  CHG  2  10  -1  27  -1
M  END
>  <UniqueID>  (51) 
48

>  <SMILES>  (51) 
CN(Cc1ccc(C(=O)[N-]c2ccccc2N)cc1)Cc1occc1C[N-]C(=O)c1ccccc1O

>  <Energy>  (51) 
101.58879151196045

>  <Genealogy>  (51) 
CN(Cc1ccc(C(=O)[N-]c2ccccc2N)cc1)Cc1occc1C[N-]C(=O)c1ccccc1O (protonated)
CN(Cc1ccc(C(=O)[N-]c2ccccc2N)cc1)Cc1occc1C[N-]C(=O)c1ccccc1O (3D coordinates assigned)
CN(Cc1ccc(C(=O)[N-]c2ccccc2N)cc1)Cc1occc1C[N-]C(=O)c1ccccc1O (optimized conformer: 101.58879151196045 kcal/mol)

>  <smiles>  (51) 
CN(Cc1ccc(C(=O)Nc2ccccc2N)cc1)Cc1occc1CNC(=O)c1ccccc1O

>  <score_type>  (51) 
oracle

>  <origin>  (51) 
adg

>  <m_score__min__energy>  (51) 
-12.66

>  <m_primary>  (51) 
energy

$$$$
51:0
     RDKit          3D

 37 38  0  0  0  0  0  0  0  0999 V2000
   62.7150   33.7170   48.0610 C   0  0  0  0  0  0  0  0  0  0  0  0
   61.2750   34.2120   48.1280 C   0  0  0  0  0  0  0  0  0  0  0  0
   60.3940   33.4190   47.2000 C   0  0  0  0  0  0  0  0  0  0  0  0
   59.4540   34.0710   46.3870 C   0  0  0  0  0  0  0  0  0  0  0  0
   58.6120   33.3320   45.5500 C   0  0  0  0  0  0  0  0  0  0  0  0
   58.6960   31.9340   45.5220 C   0  0  0  0  0  0  0  0  0  0  0  0
   57.6270   31.0110   44.4710 S   0  0  0  0  0  0  0  0  0  0  0  0
   58.1500   31.0780   43.0630 O   0  0  0  0  0  0  0  0  0  0  0  0
   56.2370   31.5840   44.5020 O   0  0  0  0  0  0  0  0  0  0  0  0
   57.5680   29.3580   44.9980 N   0  0  0  0  0  0  0  0  0  0  0  0
   58.7180   28.7000   45.1570 N   0  0  0  0  0  0  0  0  0  0  0  0
   58.7640   27.4110   45.5770 C   0  0  0  0  0  0  0  0  0  0  0  0
   59.8800   26.8410   45.7020 O   0  0  0  0  0  0  0  0  0  0  0  0
   57.5680   26.7320   45.8690 C   0  0  0  0  0  0  0  0  0  0  0  0
   57.5770   25.2860   46.3140 C   0  0  0  0  0  0  0  0  0  0  0  0
   56.4570   24.4900   45.6430 C   0  0  0  0  0  0  0  0  0  0  0  0
   55.3450   24.4140   46.4910 O   0  0  0  0  0  0  0  0  0  0  0  0
   56.3570   27.4170   45.6880 C   0  0  0  0  0  0  0  0  0  0  0  0
   55.1420   26.7870   45.9390 O   0  0  0  0  0  0  0  0  0  0  0  0
   56.3740   28.7450   45.2530 C   0  0  0  0  0  0  0  0  0  0  0  0
   55.2880   29.3670   45.1000 O   0  0  0  0  0  0  0  0  0  0  0  0
   59.6210   31.2780   46.3450 C   0  0  0  0  0  0  0  0  0  0  0  0
   60.4630   32.0170   47.1830 C   0  0  0  0  0  0  0  0  0  0  0  0
   63.1045   33.5831   49.0810 H   0  0  0  0  0  0  0  0  0  0  0  0
   62.7479   32.7560   47.5268 H   0  0  0  0  0  0  0  0  0  0  0  0
   63.3318   34.4547   47.5268 H   0  0  0  0  0  0  0  0  0  0  0  0
   60.9039   34.1039   49.1579 H   0  0  0  0  0  0  0  0  0  0  0  0
   61.2503   35.2681   47.8213 H   0  0  0  0  0  0  0  0  0  0  0  0
   59.3792   35.1682   46.4083 H   0  0  0  0  0  0  0  0  0  0  0  0
   57.8814   33.8502   44.9115 H   0  0  0  0  0  0  0  0  0  0  0  0
   58.5449   24.8357   46.0487 H   0  0  0  0  0  0  0  0  0  0  0  0
   57.4189   25.2572   47.4022 H   0  0  0  0  0  0  0  0  0  0  0  0
   56.1669   24.9889   44.7066 H   0  0  0  0  0  0  0  0  0  0  0  0
   56.8168   23.4727   45.4295 H   0  0  0  0  0  0  0  0  0  0  0  0
   55.1220   25.3490   46.7360 H   0  0  0  0  0  0  0  0  0  0  0  0
   59.6853   30.1800   46.3322 H   0  0  0  0  0  0  0  0  0  0  0  0
   61.1829   31.4967   47.8319 H   0  0  0  0  0  0  0  0  0  0  0  0
  1  2  1  0
  2  3  1  0
  3  4  2  0
  4  5  1  0
  5  6  2  0
  6  7  1  0
  7  8  2  0
  7  9  2  0
  7 10  1  0
 10 11  1  0
 11 12  1  0
 12 13  2  0
 12 14  1  0
 14 15  1  0
 15 16  1  0
 16 17  1  0
 14 18  2  0
 18 19  1  0
 18 20  1  0
 20 21  2  0
  6 22  1  0
 22 23  2  0
 23  3  1  0
 20 10  1  0
  1 24  1  0
  1 25  1  0
  1 26  1  0
  2 27  1  0
  2 28  1  0
  4 29  1  0
  5 30  1  0
 15 31  1  0
 15 32  1  0
 16 33  1  0
 16 34  1  0
 17 35  1  0
 22 36  1  0
 23 37  1  0
M  CHG  2  11  -1  19  -1
M  END
>  <UniqueID>  (52) 
49

>  <SMILES>  (52) 
CCc1ccc(S(=O)(=O)n2[n-]c(=O)c(CCO)c([O-])c2=O)cc1

>  <Energy>  (52) 
36.48756037501996

>  <Genealogy>  (52) 
CCc1ccc(S(=O)(=O)n2[n-]c(=O)c(CCO)c([O-])c2=O)cc1 (protonated)
CCc1ccc(S(=O)(=O)n2[n-]c(=O)c(CCO)c([O-])c2=O)cc1 (3D coordinates assigned)
CCc1ccc(S(=O)(=O)n2[n-]c(=O)c(CCO)c([O-])c2=O)cc1 (optimized conformer: 36.48756037501996 kcal/mol)

>  <smiles>  (52) 
CCc1ccc(S(=O)(=O)n2[nH]c(=O)c(CCO)c(O)c2=O)cc1

>  <score_type>  (52) 
oracle

>  <origin>  (52) 
adg

>  <m_score__min__energy>  (52) 
-12.6

>  <m_primary>  (52) 
energy

$$$$
52:0
     RDKit          3D

 63 66  0  0  0  0  0  0  0  0999 V2000
   62.1860   31.3910   47.3230 N   0  0  0  0  0  0  0  0  0  0  0  0
   61.9670   33.0950   47.1450 S   0  0  0  0  0  0  0  0  0  0  0  0
   63.0970   33.6640   46.3310 O   0  0  0  0  0  0  0  0  0  0  0  0
   61.9800   33.7390   48.5050 O   0  0  0  0  0  0  0  0  0  0  0  0
   60.4370   33.4130   46.3330 C   0  0  0  0  0  0  0  0  0  0  0  0
   60.0700   34.7250   45.9900 C   0  0  0  0  0  0  0  0  0  0  0  0
   58.8530   34.9670   45.3510 C   0  0  0  0  0  0  0  0  0  0  0  0
   57.9960   33.9040   45.0510 C   0  0  0  0  0  0  0  0  0  0  0  0
   58.3350   32.5880   45.4210 C   0  0  0  0  0  0  0  0  0  0  0  0
   57.4690   31.4760   45.1300 N   0  0  0  0  0  0  0  0  0  0  0  0
   57.1030   31.0520   43.8040 C   0  0  0  0  0  0  0  0  0  0  0  0
   57.4100   31.7530   42.8000 O   0  0  0  0  0  0  0  0  0  0  0  0
   56.3500   29.7730   43.5960 C   0  0  0  0  0  0  0  0  0  0  0  0
   55.9310   29.2190   44.8780 N   0  0  0  0  0  0  0  0  0  0  0  0
   56.6280   28.2090   45.6240 C   0  0  0  0  0  0  0  0  0  0  0  0
   56.0740   27.0890   45.7870 O   0  0  0  0  0  0  0  0  0  0  0  0
   57.9920   28.4150   46.1500 C   0  0  0  0  0  0  0  0  0  0  0  0
   59.1050   27.8410   45.5170 C   0  0  0  0  0  0  0  0  0  0  0  0
   60.3880   28.0420   46.0290 C   0  0  0  0  0  0  0  0  0  0  0  0
   60.5730   28.8380   47.1610 C   0  0  0  0  0  0  0  0  0  0  0  0
   59.4720   29.4400   47.7880 C   0  0  0  0  0  0  0  0  0  0  0  0
   59.7010   30.4680   49.2050 S   0  0  0  0  0  0  0  0  0  0  0  0
   60.9440   30.0390   49.9330 O   0  0  0  0  0  0  0  0  0  0  0  0
   59.8940   31.8900   48.7530 O   0  0  0  0  0  0  0  0  0  0  0  0
   58.3330   30.3830   50.2880 N   0  0  0  0  0  0  0  0  0  0  0  0
   58.6910   29.6670   51.5220 C   0  0  0  0  0  0  0  0  0  0  0  0
   57.4130   29.3450   52.3030 C   0  0  0  0  0  0  0  0  0  0  0  0
   56.3900   30.3750   52.0820 N   0  0  0  0  0  0  0  0  0  0  0  0
   54.9960   30.0620   52.2720 C   0  0  0  0  0  0  0  0  0  0  0  0
   54.6110   29.0300   53.1470 C   0  0  0  0  0  0  0  0  0  0  0  0
   53.2610   28.7520   53.3620 C   0  0  0  0  0  0  0  0  0  0  0  0
   52.2820   29.4910   52.6970 C   0  0  0  0  0  0  0  0  0  0  0  0
   52.6530   30.5190   51.8250 C   0  0  0  0  0  0  0  0  0  0  0  0
   54.0020   30.8080   51.6160 C   0  0  0  0  0  0  0  0  0  0  0  0
   56.8220   31.7440   51.7540 C   0  0  0  0  0  0  0  0  0  0  0  0
   57.8380   31.7410   50.5900 C   0  0  0  0  0  0  0  0  0  0  0  0
   58.1850   29.2290   47.2750 C   0  0  0  0  0  0  0  0  0  0  0  0
   59.5680   32.3520   46.0490 C   0  0  0  0  0  0  0  0  0  0  0  0
   61.7780   31.1290   48.2470 H   0  0  0  0  0  0  0  0  0  0  0  0
   60.7428   35.5628   46.2254 H   0  0  0  0  0  0  0  0  0  0  0  0
   58.5679   35.9951   45.0832 H   0  0  0  0  0  0  0  0  0  0  0  0
   57.0507   34.0967   44.5225 H   0  0  0  0  0  0  0  0  0  0  0  0
   57.0250   30.9860   45.9360 H   0  0  0  0  0  0  0  0  0  0  0  0
   55.4616   29.9711   42.9784 H   0  0  0  0  0  0  0  0  0  0  0  0
   57.0062   29.0493   43.0904 H   0  0  0  0  0  0  0  0  0  0  0  0
   58.9659   27.2298   44.6131 H   0  0  0  0  0  0  0  0  0  0  0  0
   61.2543   27.5726   45.5400 H   0  0  0  0  0  0  0  0  0  0  0  0
   61.5853   28.9936   47.5624 H   0  0  0  0  0  0  0  0  0  0  0  0
   59.2126   28.7325   51.2676 H   0  0  0  0  0  0  0  0  0  0  0  0
   59.3526   30.2952   52.1365 H   0  0  0  0  0  0  0  0  0  0  0  0
   57.0225   28.3722   51.9694 H   0  0  0  0  0  0  0  0  0  0  0  0
   57.6550   29.3146   53.3756 H   0  0  0  0  0  0  0  0  0  0  0  0
   55.3798   28.4381   53.6653 H   0  0  0  0  0  0  0  0  0  0  0  0
   52.9683   27.9502   54.0558 H   0  0  0  0  0  0  0  0  0  0  0  0
   51.2178   29.2647   52.8589 H   0  0  0  0  0  0  0  0  0  0  0  0
   51.8797   31.1013   51.3025 H   0  0  0  0  0  0  0  0  0  0  0  0
   54.2885   31.6230   50.9351 H   0  0  0  0  0  0  0  0  0  0  0  0
   55.9433   32.3383   51.4628 H   0  0  0  0  0  0  0  0  0  0  0  0
   57.3062   32.1801   52.6402 H   0  0  0  0  0  0  0  0  0  0  0  0
   57.3500   32.1484   49.6923 H   0  0  0  0  0  0  0  0  0  0  0  0
   58.6990   32.3562   50.8904 H   0  0  0  0  0  0  0  0  0  0  0  0
   57.3197   29.7057   47.7587 H   0  0  0  0  0  0  0  0  0  0  0  0
   59.8541   31.3251   46.3204 H   0  0  0  0  0  0  0  0  0  0  0  0
  1  2  1  0
  2  3  2  0
  2  4  2  0
  2  5  1  0
  5  6  2  0
  6  7  1  0
  7  8  2  0
  8  9  1  0
  9 10  1  0
 10 11  1  0
 11 12  2  0
 11 13  1  0
 13 14  1  0
 14 15  1  0
 15 16  2  0
 15 17  1  0
 17 18  2  0
 18 19  1  0
 19 20  2  0
 20 21  1  0
 21 22  1  0
 22 23  2  0
 22 24  2  0
 22 25  1  0
 25 26  1  0
 26 27  1  0
 27 28  1  0
 28 29  1  0
 29 30  2  0
 30 31  1  0
 31 32  2  0
 32 33  1  0
 33 34  2  0
 28 35  1  0
 35 36  1  0
 21 37  2  0
  9 38  2  0
 38  5  1  0
 37 17  1  0
 36 25  1  0
 34 29  1  0
  1 39  1  0
  6 40  1  0
  7 41  1  0
  8 42  1  0
 10 43  1  0
 13 44  1  0
 13 45  1  0
 18 46  1  0
 19 47  1  0
 20 48  1  0
 26 49  1  0
 26 50  1  0
 27 51  1  0
 27 52  1  0
 30 53  1  0
 31 54  1  0
 32 55  1  0
 33 56  1  0
 34 57  1  0
 35 58  1  0
 35 59  1  0
 36 60  1  0
 36 61  1  0
 37 62  1  0
 38 63  1  0
M  CHG  2   1  -1  14  -1
M  END
>  <UniqueID>  (53) 
50

>  <SMILES>  (53) 
[NH-]S(=O)(=O)c1cccc(NC(=O)C[N-]C(=O)c2cccc(S(=O)(=O)N3CCN(c4ccccc4)CC3)c2)c1

>  <Energy>  (53) 
81.24252681812729

>  <Genealogy>  (53) 
[NH-]S(=O)(=O)c1cccc(NC(=O)C[N-]C(=O)c2cccc(S(=O)(=O)N3CCN(c4ccccc4)CC3)c2)c1 (protonated)
[NH-]S(=O)(=O)c1cccc(NC(=O)C[N-]C(=O)c2cccc(S(=O)(=O)N3CCN(c4ccccc4)CC3)c2)c1 (3D coordinates assigned)
[NH-]S(=O)(=O)c1cccc(NC(=O)C[N-]C(=O)c2cccc(S(=O)(=O)N3CCN(c4ccccc4)CC3)c2)c1 (nonaromatic ring conformer: 81.24252681812729 kcal/mol)

>  <smiles>  (53) 
NS(=O)(=O)c1cccc(NC(=O)CNC(=O)c2cccc(S(=O)(=O)N3CCN(c4ccccc4)CC3)c2)c1

>  <score_type>  (53) 
oracle

>  <origin>  (53) 
adg

>  <m_score__min__energy>  (53) 
-15.51

>  <m_primary>  (53) 
energy

$$$$
53:0
     RDKit          3D

 47 49  0  0  0  0  0  0  0  0999 V2000
   62.4160   33.7760   47.1870 C   0  0  0  0  0  0  0  0  0  0  0  0
   61.0070   34.0450   47.5510 C   0  0  0  0  0  0  0  0  0  0  0  0
   60.7620   34.8330   48.5040 O   0  0  0  0  0  0  0  0  0  0  0  0
   59.8680   33.4500   46.8690 C   0  0  0  0  0  0  0  0  0  0  0  0
   59.5180   33.9300   45.6270 C   0  0  0  0  0  0  0  0  0  0  0  0
   58.4350   33.3840   44.9470 C   0  0  0  0  0  0  0  0  0  0  0  0
   57.6720   32.3690   45.4500 C   0  0  0  0  0  0  0  0  0  0  0  0
   56.6050   31.7700   44.8730 O   0  0  0  0  0  0  0  0  0  0  0  0
   56.4600   30.8670   43.8520 C   0  0  0  0  0  0  0  0  0  0  0  0
   56.8960   29.4830   44.1180 C   0  0  0  0  0  0  0  0  0  0  0  0
   56.3920   28.7380   45.1860 C   0  0  0  0  0  0  0  0  0  0  0  0
   57.0050   27.4970   45.1820 C   0  0  0  0  0  0  0  0  0  0  0  0
   56.7980   26.3880   46.1020 C   0  0  0  0  0  0  0  0  0  0  0  0
   55.6050   26.0940   46.4070 O   0  0  0  0  0  0  0  0  0  0  0  0
   57.8480   25.6230   46.6740 N   0  0  0  0  0  0  0  0  0  0  0  0
   57.8680   24.2060   46.3580 C   0  0  0  0  0  0  0  0  0  0  0  0
   58.8740   26.1360   47.5230 C   0  0  0  0  0  0  0  0  0  0  0  0
   59.5430   27.3550   47.0510 C   0  0  0  0  0  0  0  0  0  0  0  0
   60.1990   27.4630   45.8350 C   0  0  0  0  0  0  0  0  0  0  0  0
   60.7750   28.6760   45.5400 C   0  0  0  0  0  0  0  0  0  0  0  0
   60.7180   29.7680   46.4020 C   0  0  0  0  0  0  0  0  0  0  0  0
   60.0720   29.6340   47.5790 N   0  0  0  0  0  0  0  0  0  0  0  0
   59.4950   28.4630   47.9080 C   0  0  0  0  0  0  0  0  0  0  0  0
   57.8570   27.5080   44.1300 N   0  0  0  0  0  0  0  0  0  0  0  0
   57.7750   28.6810   43.5230 N   0  0  0  0  0  0  0  0  0  0  0  0
   58.0520   31.8990   46.7160 C   0  0  0  0  0  0  0  0  0  0  0  0
   59.1170   32.4270   47.4030 C   0  0  0  0  0  0  0  0  0  0  0  0
   63.0157   33.6615   48.1020 H   0  0  0  0  0  0  0  0  0  0  0  0
   62.4714   32.8511   46.5942 H   0  0  0  0  0  0  0  0  0  0  0  0
   62.8082   34.6155   46.5942 H   0  0  0  0  0  0  0  0  0  0  0  0
   60.0964   34.7473   45.1716 H   0  0  0  0  0  0  0  0  0  0  0  0
   58.1805   33.7890   43.9564 H   0  0  0  0  0  0  0  0  0  0  0  0
   55.3930   30.8341   43.5866 H   0  0  0  0  0  0  0  0  0  0  0  0
   57.1243   31.2283   43.0531 H   0  0  0  0  0  0  0  0  0  0  0  0
   55.6358   29.0795   45.9082 H   0  0  0  0  0  0  0  0  0  0  0  0
   57.8762   23.6225   47.2904 H   0  0  0  0  0  0  0  0  0  0  0  0
   56.9734   23.9483   45.7721 H   0  0  0  0  0  0  0  0  0  0  0  0
   58.7695   23.9737   45.7721 H   0  0  0  0  0  0  0  0  0  0  0  0
   58.4235   26.3556   48.5022 H   0  0  0  0  0  0  0  0  0  0  0  0
   59.6530   25.3599   47.5533 H   0  0  0  0  0  0  0  0  0  0  0  0
   60.2563   26.6153   45.1364 H   0  0  0  0  0  0  0  0  0  0  0  0
   61.3036   28.7887   44.5819 H   0  0  0  0  0  0  0  0  0  0  0  0
   61.1911   30.7227   46.1284 H   0  0  0  0  0  0  0  0  0  0  0  0
   58.9735   28.3737   48.8724 H   0  0  0  0  0  0  0  0  0  0  0  0
   58.3440   28.9170   42.6920 H   0  0  0  0  0  0  0  0  0  0  0  0
   57.4775   31.0801   47.1735 H   0  0  0  0  0  0  0  0  0  0  0  0
   59.3741   32.0268   48.3948 H   0  0  0  0  0  0  0  0  0  0  0  0
  1  2  1  0
  2  3  2  0
  2  4  1  0
  4  5  2  0
  5  6  1  0
  6  7  2  0
  7  8  1  0
  8  9  1  0
  9 10  1  0
 10 11  2  0
 11 12  1  0
 12 13  1  0
 13 14  2  0
 13 15  1  0
 15 16  1  0
 15 17  1  0
 17 18  1  0
 18 19  2  0
 19 20  1  0
 20 21  2  0
 21 22  1  0
 22 23  2  0
 12 24  2  0
 24 25  1  0
  7 26  1  0
 26 27  2  0
 27  4  1  0
 25 10  1  0
 23 18  1  0
  1 28  1  0
  1 29  1  0
  1 30  1  0
  5 31  1  0
  6 32  1  0
  9 33  1  0
  9 34  1  0
 11 35  1  0
 16 36  1  0
 16 37  1  0
 16 38  1  0
 17 39  1  0
 17 40  1  0
 19 41  1  0
 20 42  1  0
 21 43  1  0
 23 44  1  0
 25 45  1  0
 26 46  1  0
 27 47  1  0
M  END
>  <smiles>  (54) 
CC(=O)c1ccc(OCc2cc(C(=O)N(C)Cc3cccnc3)n[nH]2)cc1

>  <score_type>  (54) 
oracle

>  <origin>  (54) 
adg

>  <m_score__min__energy>  (54) 
-7.9500000000000002

>  <m_primary>  (54) 
energy

$$$$
54:0
     RDKit          3D

 48 50  0  0  0  0  0  0  0  0999 V2000
   53.4260   24.4160   45.4250 C   0  0  0  0  0  0  0  0  0  0  0  0
   55.0970   24.8490   45.8650 S   0  0  0  0  0  0  0  0  0  0  0  0
   56.0140   24.3730   44.7740 O   0  0  0  0  0  0  0  0  0  0  0  0
   55.4900   24.1820   47.1530 O   0  0  0  0  0  0  0  0  0  0  0  0
   55.2510   26.5720   46.0150 N   0  0  0  0  0  0  0  0  0  0  0  0
   56.4770   27.2970   45.7970 C   0  0  0  0  0  0  0  0  0  0  0  0
   57.7230   26.7490   46.1500 C   0  0  0  0  0  0  0  0  0  0  0  0
   58.9010   27.4630   45.9250 C   0  0  0  0  0  0  0  0  0  0  0  0
   58.8550   28.7250   45.3360 C   0  0  0  0  0  0  0  0  0  0  0  0
   57.6270   29.2900   44.9600 C   0  0  0  0  0  0  0  0  0  0  0  0
   57.6100   30.6540   44.3010 C   0  0  0  0  0  0  0  0  0  0  0  0
   56.3800   31.4060   44.6040 N   0  0  0  0  0  0  0  0  0  0  0  0
   56.6430   32.6950   45.2610 C   0  0  0  0  0  0  0  0  0  0  0  0
   57.9990   32.6980   45.9180 C   0  0  0  0  0  0  0  0  0  0  0  0
   58.2420   31.8840   47.0350 C   0  0  0  0  0  0  0  0  0  0  0  0
   59.4990   31.8800   47.6460 C   0  0  0  0  0  0  0  0  0  0  0  0
   60.5390   32.6850   47.1480 C   0  0  0  0  0  0  0  0  0  0  0  0
   61.8740   32.6830   47.7990 C   0  0  0  0  0  0  0  0  0  0  0  0
   62.9120   33.4970   47.3050 C   0  0  0  0  0  0  0  0  0  0  0  0
   64.1690   33.4920   47.9180 C   0  0  0  0  0  0  0  0  0  0  0  0
   64.4030   32.6790   49.0290 C   0  0  0  0  0  0  0  0  0  0  0  0
   63.3810   31.8690   49.5300 C   0  0  0  0  0  0  0  0  0  0  0  0
   62.1240   31.8680   48.9190 C   0  0  0  0  0  0  0  0  0  0  0  0
   60.2940   33.4910   46.0210 C   0  0  0  0  0  0  0  0  0  0  0  0
   59.0370   33.4930   45.4100 C   0  0  0  0  0  0  0  0  0  0  0  0
   56.4360   28.5720   45.1950 C   0  0  0  0  0  0  0  0  0  0  0  0
   55.2090   29.1270   44.8420 O   0  0  0  0  0  0  0  0  0  0  0  0
   52.8341   24.2626   46.3394 H   0  0  0  0  0  0  0  0  0  0  0  0
   52.9807   25.2284   44.8320 H   0  0  0  0  0  0  0  0  0  0  0  0
   53.4313   23.4896   44.8320 H   0  0  0  0  0  0  0  0  0  0  0  0
   54.4120   27.0800   46.3740 H   0  0  0  0  0  0  0  0  0  0  0  0
   57.7697   25.7496   46.6071 H   0  0  0  0  0  0  0  0  0  0  0  0
   59.8692   27.0279   46.2137 H   0  0  0  0  0  0  0  0  0  0  0  0
   59.7879   29.2821   45.1646 H   0  0  0  0  0  0  0  0  0  0  0  0
   58.4749   31.2311   44.6600 H   0  0  0  0  0  0  0  0  0  0  0  0
   57.6521   30.5023   43.2123 H   0  0  0  0  0  0  0  0  0  0  0  0
   55.7650   30.8320   45.2270 H   0  0  0  0  0  0  0  0  0  0  0  0
   56.6057   33.4967   44.5087 H   0  0  0  0  0  0  0  0  0  0  0  0
   55.8779   32.8573   46.0344 H   0  0  0  0  0  0  0  0  0  0  0  0
   57.4388   31.2457   47.4318 H   0  0  0  0  0  0  0  0  0  0  0  0
   59.6764   31.2416   48.5241 H   0  0  0  0  0  0  0  0  0  0  0  0
   62.7327   34.1409   46.4313 H   0  0  0  0  0  0  0  0  0  0  0  0
   64.9745   34.1294   47.5244 H   0  0  0  0  0  0  0  0  0  0  0  0
   65.3924   32.6764   49.5098 H   0  0  0  0  0  0  0  0  0  0  0  0
   63.5659   31.2310   50.4068 H   0  0  0  0  0  0  0  0  0  0  0  0
   61.3243   31.2256   49.3163 H   0  0  0  0  0  0  0  0  0  0  0  0
   61.0979   34.1244   45.6178 H   0  0  0  0  0  0  0  0  0  0  0  0
   58.8606   34.1221   44.5250 H   0  0  0  0  0  0  0  0  0  0  0  0
  1  2  1  0
  2  3  2  0
  2  4  2  0
  2  5  1  0
  5  6  1  0
  6  7  2  0
  7  8  1  0
  8  9  2  0
  9 10  1  0
 10 11  1  0
 11 12  1  0
 12 13  1  0
 13 14  1  0
 14 15  2  0
 15 16  1  0
 16 17  2  0
 17 18  1  0
 18 19  2  0
 19 20  1  0
 20 21  2  0
 21 22  1  0
 22 23  2  0
 17 24  1  0
 24 25  2  0
 10 26  2  0
 26 27  1  0
 26  6  1  0
 25 14  1  0
 23 18  1  0
  1 28  1  0
  1 29  1  0
  1 30  1  0
  5 31  1  0
  7 32  1  0
  8 33  1  0
  9 34  1  0
 11 35  1  0
 11 36  1  0
 12 37  1  0
 13 38  1  0
 13 39  1  0
 15 40  1  0
 16 41  1  0
 19 42  1  0
 20 43  1  0
 21 44  1  0
 22 45  1  0
 23 46  1  0
 24 47  1  0
 25 48  1  0
M  CHG  1  27  -1
M  END
>  <UniqueID>  (55) 
51

>  <SMILES>  (55) 
CS(=O)(=O)Nc1cccc(CNCc2ccc(-c3ccccc3)cc2)c1[O-]

>  <Energy>  (55) 
56.14534662481274

>  <Genealogy>  (55) 
CS(=O)(=O)Nc1cccc(CNCc2ccc(-c3ccccc3)cc2)c1[O-] (protonated)
CS(=O)(=O)Nc1cccc(CNCc2ccc(-c3ccccc3)cc2)c1[O-] (3D coordinates assigned)
CS(=O)(=O)Nc1cccc(CNCc2ccc(-c3ccccc3)cc2)c1[O-] (optimized conformer: 56.14534662481274 kcal/mol)

>  <smiles>  (55) 
CS(=O)(=O)Nc1cccc(CNCc2ccc(-c3ccccc3)cc2)c1O

>  <score_type>  (55) 
oracle

>  <origin>  (55) 
adg

>  <m_score__min__energy>  (55) 
-13.81

>  <m_primary>  (55) 
energy

$$$$
55:0
     RDKit          3D

 44 47  0  0  0  0  0  0  0  0999 V2000
   54.8750   26.3770   46.0060 O   0  0  0  0  0  0  0  0  0  0  0  0
   56.2260   26.0320   46.0620 C   0  0  0  0  0  0  0  0  0  0  0  0
   56.5710   24.8230   46.6770 C   0  0  0  0  0  0  0  0  0  0  0  0
   57.9080   24.4360   46.7820 C   0  0  0  0  0  0  0  0  0  0  0  0
   58.9150   25.2600   46.2770 C   0  0  0  0  0  0  0  0  0  0  0  0
   58.5870   26.4670   45.6570 C   0  0  0  0  0  0  0  0  0  0  0  0
   57.2430   26.8640   45.5290 C   0  0  0  0  0  0  0  0  0  0  0  0
   56.9210   28.1600   44.8190 C   0  0  0  0  0  0  0  0  0  0  0  0
   56.9400   29.2860   45.7550 N   0  0  0  0  0  0  0  0  0  0  0  0
   58.1320   29.9830   46.1660 C   0  0  0  0  0  0  0  0  0  0  0  0
   59.3240   29.3020   46.4660 C   0  0  0  0  0  0  0  0  0  0  0  0
   60.4650   30.0070   46.8570 C   0  0  0  0  0  0  0  0  0  0  0  0
   60.4400   31.4090   46.9700 C   0  0  0  0  0  0  0  0  0  0  0  0
   61.6680   32.1390   47.3840 C   0  0  0  0  0  0  0  0  0  0  0  0
   62.1230   33.3190   46.7900 C   0  0  0  0  0  0  0  0  0  0  0  0
   63.5300   33.7870   47.5810 S   0  0  0  0  0  0  0  0  0  0  0  0
   63.5140   32.4830   48.6450 C   0  0  0  0  0  0  0  0  0  0  0  0
   64.5130   32.2140   49.7050 C   0  0  0  0  0  0  0  0  0  0  0  0
   65.7120   32.9500   49.7750 C   0  0  0  0  0  0  0  0  0  0  0  0
   66.6470   32.6850   50.7800 C   0  0  0  0  0  0  0  0  0  0  0  0
   66.3970   31.6890   51.7270 C   0  0  0  0  0  0  0  0  0  0  0  0
   65.2110   30.9540   51.6690 C   0  0  0  0  0  0  0  0  0  0  0  0
   64.2730   31.2130   50.6640 C   0  0  0  0  0  0  0  0  0  0  0  0
   62.4460   31.6890   48.4100 N   0  0  0  0  0  0  0  0  0  0  0  0
   59.2410   32.0870   46.6780 C   0  0  0  0  0  0  0  0  0  0  0  0
   58.1010   31.3790   46.2860 C   0  0  0  0  0  0  0  0  0  0  0  0
   54.3540   26.7160   46.8030 H   0  0  0  0  0  0  0  0  0  0  0  0
   55.7817   24.1721   47.0811 H   0  0  0  0  0  0  0  0  0  0  0  0
   58.1680   23.4814   47.2628 H   0  0  0  0  0  0  0  0  0  0  0  0
   59.9688   24.9579   46.3677 H   0  0  0  0  0  0  0  0  0  0  0  0
   59.3861   27.1134   45.2651 H   0  0  0  0  0  0  0  0  0  0  0  0
   57.6680   28.3342   44.0305 H   0  0  0  0  0  0  0  0  0  0  0  0
   55.9141   28.0817   44.3830 H   0  0  0  0  0  0  0  0  0  0  0  0
   56.0190   29.6420   46.0980 H   0  0  0  0  0  0  0  0  0  0  0  0
   59.3590   28.2050   46.3924 H   0  0  0  0  0  0  0  0  0  0  0  0
   61.3931   29.4598   47.0789 H   0  0  0  0  0  0  0  0  0  0  0  0
   61.6448   33.8482   45.9526 H   0  0  0  0  0  0  0  0  0  0  0  0
   65.9138   33.7380   49.0345 H   0  0  0  0  0  0  0  0  0  0  0  0
   67.5822   33.2624   50.8252 H   0  0  0  0  0  0  0  0  0  0  0  0
   67.1337   31.4838   52.5177 H   0  0  0  0  0  0  0  0  0  0  0  0
   65.0140   30.1699   52.4150 H   0  0  0  0  0  0  0  0  0  0  0  0
   63.3412   30.6299   50.6233 H   0  0  0  0  0  0  0  0  0  0  0  0
   59.2009   33.1833   46.7590 H   0  0  0  0  0  0  0  0  0  0  0  0
   57.1700   31.9233   46.0695 H   0  0  0  0  0  0  0  0  0  0  0  0
  1  2  1  0
  2  3  2  0
  3  4  1  0
  4  5  2  0
  5  6  1  0
  6  7  2  0
  7  8  1  0
  8  9  1  0
  9 10  1  0
 10 11  2  0
 11 12  1  0
 12 13  2  0
 13 14  1  0
 14 15  2  0
 15 16  1  0
 16 17  1  0
 17 18  1  0
 18 19  2  0
 19 20  1  0
 20 21  2  0
 21 22  1  0
 22 23  2  0
 17 24  2  0
 13 25  1  0
 25 26  2  0
  7  2  1  0
 26 10  1  0
 24 14  1  0
 23 18  1  0
  1 27  1  0
  3 28  1  0
  4 29  1  0
  5 30  1  0
  6 31  1  0
  8 32  1  0
  8 33  1  0
  9 34  1  0
 11 35  1  0
 12 36  1  0
 15 37  1  0
 19 38  1  0
 20 39  1  0
 21 40  1  0
 22 41  1  0
 23 42  1  0
 25 43  1  0
 26 44  1  0
M  END
>  <UniqueID>  (56) 
52

>  <SMILES>  (56) 
Oc1ccccc1CNc1ccc(-c2csc(-c3ccccc3)n2)cc1

>  <Energy>  (56) 
82.56206739080604

>  <Genealogy>  (56) 
Oc1ccccc1CNc1ccc(-c2csc(-c3ccccc3)n2)cc1 (3D coordinates assigned)
Oc1ccccc1CNc1ccc(-c2csc(-c3ccccc3)n2)cc1 (optimized conformer: 82.56206739080604 kcal/mol)

>  <smiles>  (56) 
Oc1ccccc1CNc1ccc(-c2csc(-c3ccccc3)n2)cc1

>  <score_type>  (56) 
oracle

>  <origin>  (56) 
adg

>  <m_score__min__energy>  (56) 
-9.1899999999999995

>  <m_primary>  (56) 
energy

$$$$
56:0
     RDKit          3D

 52 54  0  0  0  0  0  0  0  0999 V2000
   62.4123   33.2466   47.7833 H   0  0  0  0  0  0  0  0  0  0  0  0
   61.3180   33.3310   47.8560 C   0  0  0  0  0  0  0  0  0  0  0  0
   60.7820   34.5590   47.9060 C   0  0  0  0  0  0  0  0  0  0  0  0
   61.4427   35.4359   47.9730 H   0  0  0  0  0  0  0  0  0  0  0  0
   59.2990   34.7550   47.8720 C   0  0  0  0  0  0  0  0  0  0  0  0
   58.8030   33.8631   48.2826 H   0  0  0  0  0  0  0  0  0  0  0  0
   59.0346   35.6360   48.4752 H   0  0  0  0  0  0  0  0  0  0  0  0
   58.8610   34.9630   46.4970 N   0  0  0  0  0  0  0  0  0  0  0  0
   58.1480   33.9880   45.7260 C   0  0  0  0  0  0  0  0  0  0  0  0
   56.9150   33.8370   45.9390 O   0  0  0  0  0  0  0  0  0  0  0  0
   58.8390   33.1930   44.6460 C   0  0  0  0  0  0  0  0  0  0  0  0
   59.1298   33.8767   43.8349 H   0  0  0  0  0  0  0  0  0  0  0  0
   59.7170   32.7067   45.0962 H   0  0  0  0  0  0  0  0  0  0  0  0
   57.9560   32.1130   44.0760 C   0  0  0  0  0  0  0  0  0  0  0  0
   57.7350   32.0280   42.6930 C   0  0  0  0  0  0  0  0  0  0  0  0
   58.1891   32.7691   42.0188 H   0  0  0  0  0  0  0  0  0  0  0  0
   56.9610   31.0320   42.1830 N   0  0  0  0  0  0  0  0  0  0  0  0
   56.3880   30.0920   42.9820 C   0  0  0  0  0  0  0  0  0  0  0  0
   55.7636   29.3015   42.5401 H   0  0  0  0  0  0  0  0  0  0  0  0
   56.5920   30.1300   44.3630 C   0  0  0  0  0  0  0  0  0  0  0  0
   56.1344   29.3696   45.0129 H   0  0  0  0  0  0  0  0  0  0  0  0
   57.3820   31.1420   44.9110 C   0  0  0  0  0  0  0  0  0  0  0  0
   57.5545   31.1784   45.9968 H   0  0  0  0  0  0  0  0  0  0  0  0
   60.5220   32.0790   47.8930 C   0  0  0  0  0  0  0  0  0  0  0  0
   60.4860   31.1750   46.8160 C   0  0  0  0  0  0  0  0  0  0  0  0
   61.0647   31.3871   45.9049 H   0  0  0  0  0  0  0  0  0  0  0  0
   59.7210   30.0110   46.8960 C   0  0  0  0  0  0  0  0  0  0  0  0
   59.6973   29.3145   46.0449 H   0  0  0  0  0  0  0  0  0  0  0  0
   58.9840   29.7220   48.0490 C   0  0  0  0  0  0  0  0  0  0  0  0
   58.2100   28.5140   48.0930 N   0  0  0  0  0  0  0  0  0  0  0  0
   57.8200   28.2190   49.0170 H   0  0  0  0  0  0  0  0  0  0  0  0
   57.7940   27.8070   46.9130 C   0  0  0  0  0  0  0  0  0  0  0  0
   58.2180   28.1550   45.7790 O   0  0  0  0  0  0  0  0  0  0  0  0
   56.9380   26.6600   47.0130 N   0  0  0  0  0  0  0  0  0  0  0  0
   56.7670   25.7290   46.1190 C   0  0  0  0  0  0  0  0  0  0  0  0
   55.5330   25.1720   45.9870 N   0  0  0  0  0  0  0  0  0  0  0  0
   55.2840   24.1860   45.0850 C   0  0  0  0  0  0  0  0  0  0  0  0
   54.2748   23.7578   44.9947 H   0  0  0  0  0  0  0  0  0  0  0  0
   56.3220   23.7220   44.2740 C   0  0  0  0  0  0  0  0  0  0  0  0
   56.0900   22.6800   43.3120 C   0  0  0  0  0  0  0  0  0  0  0  0
   55.9050   21.8410   42.5370 N   0  0  0  0  0  0  0  0  0  0  0  0
   57.5630   24.2540   44.4110 N   0  0  0  0  0  0  0  0  0  0  0  0
   57.8160   25.2410   45.3110 C   0  0  0  0  0  0  0  0  0  0  0  0
   58.8301   25.6558   45.4086 H   0  0  0  0  0  0  0  0  0  0  0  0
   58.9630   30.6400   49.1160 C   0  0  0  0  0  0  0  0  0  0  0  0
   58.1430   30.3750   50.2250 O   0  0  0  0  0  0  0  0  0  0  0  0
   57.8220   31.3210   51.2400 C   0  0  0  0  0  0  0  0  0  0  0  0
   57.9769   30.8646   52.2288 H   0  0  0  0  0  0  0  0  0  0  0  0
   58.4711   32.2031   51.1376 H   0  0  0  0  0  0  0  0  0  0  0  0
   56.7701   31.6259   51.1376 H   0  0  0  0  0  0  0  0  0  0  0  0
   59.7430   31.8110   49.0310 C   0  0  0  0  0  0  0  0  0  0  0  0
   59.7417   32.5252   49.8676 H   0  0  0  0  0  0  0  0  0  0  0  0
  1  2  1  0
  2  3  2  0
  3  4  1  0
  3  5  1  0
  5  6  1  0
  5  7  1  0
  5  8  1  0
  8  9  1  0
  9 10  2  0
  9 11  1  0
 11 12  1  0
 11 13  1  0
 11 14  1  0
 14 15  2  0
 15 16  1  0
 15 17  1  0
 17 18  2  0
 18 19  1  0
 18 20  1  0
 20 21  1  0
 20 22  2  0
 22 23  1  0
  2 24  1  0
 24 25  2  0
 25 26  1  0
 25 27  1  0
 27 28  1  0
 27 29  2  0
 29 30  1  0
 30 31  1  0
 30 32  1  0
 32 33  2  0
 32 34  1  0
 34 35  2  3
 35 36  1  0
 36 37  1  0
 37 38  1  0
 37 39  2  0
 39 40  1  0
 40 41  3  0
 39 42  1  0
 42 43  2  0
 43 44  1  0
 29 45  1  0
 45 46  1  0
 46 47  1  0
 47 48  1  0
 47 49  1  0
 47 50  1  0
 45 51  2  0
 51 52  1  0
 22 14  1  0
 51 24  1  0
 43 35  1  0
M  CHG  2   8  -1  36  -1
M  END
>  <UniqueID>  (57) 
53

>  <SMILES>  (57) 
COc1cc(/C=C/C[N-]C(=O)Cc2cccnc2)ccc1NC(=O)N=c1cnc(C#N)c[n-]1

>  <Energy>  (57) 
67.47728453675158

>  <Genealogy>  (57) 
COc1cc(C=CC[N-]C(=O)Cc2cccnc2)ccc1NC(=O)N=c1cnc(C#N)c[n-]1 (protonated)
COc1cc(/C=C/C[N-]C(=O)Cc2cccnc2)ccc1NC(=O)N=c1cnc(C#N)c[n-]1 (cis-trans isomerization)
COc1cc(/C=C/C[N-]C(=O)Cc2cccnc2)ccc1NC(=O)N=c1cnc(C#N)c[n-]1 (3D coordinates assigned)
COc1cc(/C=C/C[N-]C(=O)Cc2cccnc2)ccc1NC(=O)N=c1cnc(C#N)c[n-]1 (optimized conformer: 67.47728453675158 kcal/mol)

>  <smiles>  (57) 
COc1cc(C=CCNC(=O)Cc2cccnc2)ccc1NC(=O)N=c1cnc(C#N)c[nH]1

>  <score_type>  (57) 
oracle

>  <origin>  (57) 
adg

>  <m_score__min__energy>  (57) 
-10.31

>  <m_primary>  (57) 
energy

$$$$
57:0
     RDKit          3D

 18 18  0  0  0  0  0  0  0  0999 V2000
   54.1210   27.9770   53.8470 C   0  0  0  0  0  0  0  0  0  0  0  0
   54.3320   29.4060   53.6530 N   0  0  0  0  0  0  0  0  0  0  0  0
   54.4490   30.0500   52.3780 C   0  0  0  0  0  0  0  0  0  0  0  0
   55.5960   30.2000   51.8780 O   0  0  0  0  0  0  0  0  0  0  0  0
   53.2770   30.5750   51.6500 C   0  0  0  0  0  0  0  0  0  0  0  0
   52.8850   29.9830   50.4370 C   0  0  0  0  0  0  0  0  0  0  0  0
   51.7670   30.4640   49.7460 C   0  0  0  0  0  0  0  0  0  0  0  0
   51.3940   29.8820   48.5410 O   0  0  0  0  0  0  0  0  0  0  0  0
   51.0260   31.5270   50.2690 C   0  0  0  0  0  0  0  0  0  0  0  0
   51.3940   32.1060   51.4870 C   0  0  0  0  0  0  0  0  0  0  0  0
   50.6470   33.1520   52.0140 O   0  0  0  0  0  0  0  0  0  0  0  0
   52.5140   31.6290   52.1790 C   0  0  0  0  0  0  0  0  0  0  0  0
   54.0881   27.7541   54.9237 H   0  0  0  0  0  0  0  0  0  0  0  0
   53.1693   27.6804   53.3819 H   0  0  0  0  0  0  0  0  0  0  0  0
   54.9463   27.4180   53.3819 H   0  0  0  0  0  0  0  0  0  0  0  0
   53.4593   29.1381   50.0291 H   0  0  0  0  0  0  0  0  0  0  0  0
   50.1517   31.9088   49.7214 H   0  0  0  0  0  0  0  0  0  0  0  0
   52.7974   32.0815   53.1407 H   0  0  0  0  0  0  0  0  0  0  0  0
  1  2  1  0
  2  3  1  0
  3  4  2  0
  3  5  1  0
  5  6  2  0
  6  7  1  0
  7  8  1  0
  7  9  2  0
  9 10  1  0
 10 11  1  0
 10 12  2  0
 12  5  1  0
  1 13  1  0
  1 14  1  0
  1 15  1  0
  6 16  1  0
  9 17  1  0
 12 18  1  0
M  CHG  3   2  -1   8  -1  11  -1
M  END
>  <UniqueID>  (58) 
54

>  <SMILES>  (58) 
C[N-]C(=O)c1cc([O-])cc([O-])c1

>  <Energy>  (58) 
20.27458903356204

>  <Genealogy>  (58) 
C[N-]C(=O)c1cc([O-])cc([O-])c1 (protonated)
C[N-]C(=O)c1cc([O-])cc([O-])c1 (3D coordinates assigned)
C[N-]C(=O)c1cc([O-])cc([O-])c1 (optimized conformer: 20.27458903356204 kcal/mol)

>  <smiles>  (58) 
CNC(=O)c1cc(O)cc(O)c1

>  <score_type>  (58) 
oracle

>  <origin>  (58) 
adg

>  <m_score__min__energy>  (58) 
-11.82

>  <m_primary>  (58) 
energy

$$$$
58:0
     RDKit          3D

 32 33  0  0  0  0  0  0  0  0999 V2000
   54.0160   24.8310   45.6090 C   0  0  0  0  0  0  0  0  0  0  0  0
   54.7630   25.9860   45.9730 O   0  0  0  0  0  0  0  0  0  0  0  0
   56.1540   26.1150   45.8470 C   0  0  0  0  0  0  0  0  0  0  0  0
   57.0100   25.0140   46.0630 C   0  0  0  0  0  0  0  0  0  0  0  0
   58.3960   25.1640   45.9820 C   0  0  0  0  0  0  0  0  0  0  0  0
   58.9480   26.4080   45.6880 C   0  0  0  0  0  0  0  0  0  0  0  0
   58.1160   27.5050   45.4630 C   0  0  0  0  0  0  0  0  0  0  0  0
   56.7210   27.3730   45.5190 C   0  0  0  0  0  0  0  0  0  0  0  0
   55.9390   28.5510   45.2610 N   0  0  0  0  0  0  0  0  0  0  0  0
   56.4120   29.9590   44.3630 S   0  0  0  0  0  0  0  0  0  0  0  0
   55.2090   30.8290   44.1290 O   0  0  0  0  0  0  0  0  0  0  0  0
   57.0170   29.5410   43.0520 O   0  0  0  0  0  0  0  0  0  0  0  0
   57.6190   30.8730   45.2700 C   0  0  0  0  0  0  0  0  0  0  0  0
   58.2460   30.3050   46.3810 C   0  0  0  0  0  0  0  0  0  0  0  0
   59.1970   31.0440   47.0790 C   0  0  0  0  0  0  0  0  0  0  0  0
   60.0030   30.3630   48.4770 Cl  0  0  0  0  0  0  0  0  0  0  0  0
   59.5010   32.3020   46.6690 N   0  0  0  0  0  0  0  0  0  0  0  0
   58.9150   32.8620   45.6080 N   0  0  0  0  0  0  0  0  0  0  0  0
   59.3010   34.2230   45.2310 C   0  0  0  0  0  0  0  0  0  0  0  0
   57.9730   32.1770   44.8880 C   0  0  0  0  0  0  0  0  0  0  0  0
   57.4260   32.7100   43.8830 O   0  0  0  0  0  0  0  0  0  0  0  0
   53.6794   24.3106   46.5178 H   0  0  0  0  0  0  0  0  0  0  0  0
   53.1414   25.1325   45.0139 H   0  0  0  0  0  0  0  0  0  0  0  0
   54.6497   24.1570   45.0139 H   0  0  0  0  0  0  0  0  0  0  0  0
   56.5814   24.0284   46.2974 H   0  0  0  0  0  0  0  0  0  0  0  0
   59.0528   24.2979   46.1507 H   0  0  0  0  0  0  0  0  0  0  0  0
   60.0403   26.5258   45.6331 H   0  0  0  0  0  0  0  0  0  0  0  0
   58.5599   28.4861   45.2388 H   0  0  0  0  0  0  0  0  0  0  0  0
   57.9910   29.2840   46.7013 H   0  0  0  0  0  0  0  0  0  0  0  0
   59.4705   34.8208   46.1387 H   0  0  0  0  0  0  0  0  0  0  0  0
   60.2253   34.1903   44.6355 H   0  0  0  0  0  0  0  0  0  0  0  0
   58.4972   34.6805   44.6355 H   0  0  0  0  0  0  0  0  0  0  0  0
  1  2  1  0
  2  3  1  0
  3  4  2  0
  4  5  1  0
  5  6  2  0
  6  7  1  0
  7  8  2  0
  8  9  1  0
  9 10  1  0
 10 11  2  0
 10 12  2  0
 10 13  1  0
 13 14  2  0
 14 15  1  0
 15 16  1  0
 15 17  2  0
 17 18  1  0
 18 19  1  0
 18 20  1  0
 20 21  2  0
  8  3  1  0
 20 13  1  0
  1 22  1  0
  1 23  1  0
  1 24  1  0
  4 25  1  0
  5 26  1  0
  6 27  1  0
  7 28  1  0
 14 29  1  0
 19 30  1  0
 19 31  1  0
 19 32  1  0
M  CHG  1   9  -1
M  END
>  <UniqueID>  (59) 
55

>  <SMILES>  (59) 
COc1ccccc1[N-]S(=O)(=O)c1cc(Cl)nn(C)c1=O

>  <Energy>  (59) 
41.339561738406914

>  <Genealogy>  (59) 
COc1ccccc1[N-]S(=O)(=O)c1cc(Cl)nn(C)c1=O (protonated)
COc1ccccc1[N-]S(=O)(=O)c1cc(Cl)nn(C)c1=O (3D coordinates assigned)
COc1ccccc1[N-]S(=O)(=O)c1cc(Cl)nn(C)c1=O (optimized conformer: 41.339561738406914 kcal/mol)

>  <smiles>  (59) 
COc1ccccc1NS(=O)(=O)c1cc(Cl)nn(C)c1=O

>  <score_type>  (59) 
oracle

>  <origin>  (59) 
adg

>  <m_score__min__energy>  (59) 
-9.0600000000000005

>  <m_primary>  (59) 
energy

$$$$
59:0
     RDKit          3D

 38 40  0  0  0  0  0  0  0  0999 V2000
   59.9370   33.9530   48.9350 C   0  0  0  0  0  0  0  0  0  0  0  0
   60.0210   32.7880   47.9930 C   0  0  0  0  0  0  0  0  0  0  0  0
   59.0530   32.6180   46.9920 C   0  0  0  0  0  0  0  0  0  0  0  0
   59.1510   31.5540   46.0900 C   0  0  0  0  0  0  0  0  0  0  0  0
   60.2170   30.6500   46.1810 C   0  0  0  0  0  0  0  0  0  0  0  0
   60.3360   29.2870   45.0160 S   0  0  0  0  0  0  0  0  0  0  0  0
   58.5810   28.8740   45.1230 C   0  0  0  0  0  0  0  0  0  0  0  0
   57.6890   29.6540   44.3840 C   0  0  0  0  0  0  0  0  0  0  0  0
   56.3310   29.3770   44.4590 C   0  0  0  0  0  0  0  0  0  0  0  0
   55.5030   30.0730   43.8140 O   0  0  0  0  0  0  0  0  0  0  0  0
   55.8960   28.3540   45.2290 N   0  0  0  0  0  0  0  0  0  0  0  0
   56.7610   27.5770   45.9300 C   0  0  0  0  0  0  0  0  0  0  0  0
   56.2980   26.6300   46.6220 O   0  0  0  0  0  0  0  0  0  0  0  0
   58.1160   27.8200   45.8790 N   0  0  0  0  0  0  0  0  0  0  0  0
   59.0550   26.9160   46.5760 C   0  0  0  0  0  0  0  0  0  0  0  0
   59.4640   27.4890   47.9120 C   0  0  0  0  0  0  0  0  0  0  0  0
   60.4480   26.8540   48.6880 C   0  0  0  0  0  0  0  0  0  0  0  0
   60.8260   27.3880   49.9240 C   0  0  0  0  0  0  0  0  0  0  0  0
   60.2310   28.5630   50.3900 C   0  0  0  0  0  0  0  0  0  0  0  0
   59.2590   29.2090   49.6200 C   0  0  0  0  0  0  0  0  0  0  0  0
   58.5170   30.6880   50.2040 Cl  0  0  0  0  0  0  0  0  0  0  0  0
   58.8790   28.6770   48.3830 C   0  0  0  0  0  0  0  0  0  0  0  0
   61.2050   30.8390   47.1560 C   0  0  0  0  0  0  0  0  0  0  0  0
   61.1090   31.9030   48.0570 C   0  0  0  0  0  0  0  0  0  0  0  0
   59.9633   33.5883   49.9725 H   0  0  0  0  0  0  0  0  0  0  0  0
   60.7889   34.6270   48.7616 H   0  0  0  0  0  0  0  0  0  0  0  0
   58.9972   34.4978   48.7616 H   0  0  0  0  0  0  0  0  0  0  0  0
   58.2134   33.3246   46.9163 H   0  0  0  0  0  0  0  0  0  0  0  0
   58.3890   31.4266   45.3070 H   0  0  0  0  0  0  0  0  0  0  0  0
   58.0571   30.4756   43.7519 H   0  0  0  0  0  0  0  0  0  0  0  0
   58.5668   25.9433   46.7357 H   0  0  0  0  0  0  0  0  0  0  0  0
   59.9548   26.7972   45.9545 H   0  0  0  0  0  0  0  0  0  0  0  0
   60.9235   25.9322   48.3216 H   0  0  0  0  0  0  0  0  0  0  0  0
   61.5924   26.8825   50.5298 H   0  0  0  0  0  0  0  0  0  0  0  0
   60.5275   28.9803   51.3636 H   0  0  0  0  0  0  0  0  0  0  0  0
   58.1189   29.1909   47.7763 H   0  0  0  0  0  0  0  0  0  0  0  0
   62.0589   30.1479   47.2126 H   0  0  0  0  0  0  0  0  0  0  0  0
   61.8888   32.0476   48.8192 H   0  0  0  0  0  0  0  0  0  0  0  0
  1  2  1  0
  2  3  2  0
  3  4  1  0
  4  5  2  0
  5  6  1  0
  6  7  1  0
  7  8  2  0
  8  9  1  0
  9 10  2  0
  9 11  1  0
 11 12  1  0
 12 13  2  0
 12 14  1  0
 14 15  1  0
 15 16  1  0
 16 17  2  0
 17 18  1  0
 18 19  2  0
 19 20  1  0
 20 21  1  0
 20 22  2  0
  5 23  1  0
 23 24  2  0
 24  2  1  0
 14  7  1  0
 22 16  1  0
  1 25  1  0
  1 26  1  0
  1 27  1  0
  3 28  1  0
  4 29  1  0
  8 30  1  0
 15 31  1  0
 15 32  1  0
 17 33  1  0
 18 34  1  0
 19 35  1  0
 22 36  1  0
 23 37  1  0
 24 38  1  0
M  CHG  1  11  -1
M  END
>  <UniqueID>  (60) 
56

>  <SMILES>  (60) 
Cc1ccc(Sc2cc(=O)[n-]c(=O)n2Cc2cccc(Cl)c2)cc1

>  <Energy>  (60) 
40.504959996052264

>  <Genealogy>  (60) 
Cc1ccc(Sc2cc(=O)[n-]c(=O)n2Cc2cccc(Cl)c2)cc1 (protonated)
Cc1ccc(Sc2cc(=O)[n-]c(=O)n2Cc2cccc(Cl)c2)cc1 (3D coordinates assigned)
Cc1ccc(Sc2cc(=O)[n-]c(=O)n2Cc2cccc(Cl)c2)cc1 (optimized conformer: 40.504959996052264 kcal/mol)

>  <smiles>  (60) 
Cc1ccc(Sc2cc(=O)[nH]c(=O)n2Cc2cccc(Cl)c2)cc1

>  <score_type>  (60) 
oracle

>  <origin>  (60) 
adg

>  <m_score__min__energy>  (60) 
-9.5899999999999999

>  <m_primary>  (60) 
energy

$$$$
60:0
     RDKit          3D

 35 36  0  0  0  0  0  0  0  0999 V2000
   56.2060   33.8940   47.4440 H   0  0  0  0  0  0  0  0  0  0  0  0
   56.8330   33.4650   46.7730 O   0  0  0  0  0  0  0  0  0  0  0  0
   58.2180   33.4980   46.9410 C   0  0  0  0  0  0  0  0  0  0  0  0
   58.7680   33.4090   48.2250 C   0  0  0  0  0  0  0  0  0  0  0  0
   58.1034   33.2808   49.0921 H   0  0  0  0  0  0  0  0  0  0  0  0
   60.1540   33.4810   48.4210 C   0  0  0  0  0  0  0  0  0  0  0  0
   60.6770   33.2960   49.7420 N   0  0  0  0  0  0  0  0  0  0  0  0
   61.6590   33.5490   49.9850 H   0  0  0  0  0  0  0  0  0  0  0  0
   60.1190   32.7930   50.4670 H   0  0  0  0  0  0  0  0  0  0  0  0
   61.0040   33.6860   47.3100 C   0  0  0  0  0  0  0  0  0  0  0  0
   62.4210   33.8590   47.4740 N   0  0  0  0  0  0  0  0  0  0  0  0
   63.1870   33.7220   46.4970 O   0  0  0  0  0  0  0  0  0  0  0  0
   62.9220   34.3930   48.6390 O   0  0  0  0  0  0  0  0  0  0  0  0
   60.4480   33.7520   46.0220 C   0  0  0  0  0  0  0  0  0  0  0  0
   61.1078   33.8993   45.1543 H   0  0  0  0  0  0  0  0  0  0  0  0
   59.0650   33.6330   45.8250 C   0  0  0  0  0  0  0  0  0  0  0  0
   58.5330   33.7180   44.4480 C   0  0  0  0  0  0  0  0  0  0  0  0
   58.4425   34.7178   43.9984 H   0  0  0  0  0  0  0  0  0  0  0  0
   58.1520   32.6660   43.7050 C   0  0  0  0  0  0  0  0  0  0  0  0
   58.2632   32.7505   42.6139 H   0  0  0  0  0  0  0  0  0  0  0  0
   57.5940   31.4010   44.2370 C   0  0  0  0  0  0  0  0  0  0  0  0
   58.2460   30.6730   45.2470 C   0  0  0  0  0  0  0  0  0  0  0  0
   59.1897   31.0485   45.6694 H   0  0  0  0  0  0  0  0  0  0  0  0
   57.7020   29.4740   45.7180 C   0  0  0  0  0  0  0  0  0  0  0  0
   58.2109   28.9193   46.5201 H   0  0  0  0  0  0  0  0  0  0  0  0
   56.5060   28.9740   45.1700 C   0  0  0  0  0  0  0  0  0  0  0  0
   55.9180   27.7790   45.6110 O   0  0  0  0  0  0  0  0  0  0  0  0
   56.6470   26.6210   46.0020 C   0  0  0  0  0  0  0  0  0  0  0  0
   56.6830   26.5638   47.0999 H   0  0  0  0  0  0  0  0  0  0  0  0
   56.1507   25.7236   45.6041 H   0  0  0  0  0  0  0  0  0  0  0  0
   57.6708   26.6806   45.6041 H   0  0  0  0  0  0  0  0  0  0  0  0
   55.8760   29.6870   44.1440 C   0  0  0  0  0  0  0  0  0  0  0  0
   54.9447   29.3007   43.7042 H   0  0  0  0  0  0  0  0  0  0  0  0
   56.4190   30.8850   43.6730 C   0  0  0  0  0  0  0  0  0  0  0  0
   55.9216   31.4265   42.8548 H   0  0  0  0  0  0  0  0  0  0  0  0
  1  2  1  0
  2  3  1  0
  3  4  2  0
  4  5  1  0
  4  6  1  0
  6  7  1  0
  7  8  1  0
  7  9  1  0
  6 10  2  0
 10 11  1  0
 11 12  2  0
 11 13  1  0
 10 14  1  0
 14 15  1  0
 14 16  2  0
 16 17  1  0
 17 18  1  0
 17 19  2  0
 19 20  1  0
 19 21  1  0
 21 22  2  0
 22 23  1  0
 22 24  1  0
 24 25  1  0
 24 26  2  0
 26 27  1  0
 27 28  1  0
 28 29  1  0
 28 30  1  0
 28 31  1  0
 26 32  1  0
 32 33  1  0
 32 34  2  0
 34 35  1  0
 16  3  1  0
 34 21  1  0
M  CHG  2  11   1  13  -1
M  END
>  <UniqueID>  (61) 
57

>  <SMILES>  (61) 
COc1ccc(/C=C\c2cc([N+](=O)[O-])c(N)cc2O)cc1

>  <Energy>  (61) 
50.28374682133846

>  <Genealogy>  (61) 
COc1ccc(/C=C\c2cc([N+](=O)[O-])c(N)cc2O)cc1 (cis-trans isomerization)
COc1ccc(/C=C\c2cc([N+](=O)[O-])c(N)cc2O)cc1 (3D coordinates assigned)
COc1ccc(/C=C\c2cc([N+](=O)[O-])c(N)cc2O)cc1 (optimized conformer: 50.28374682133846 kcal/mol)

>  <smiles>  (61) 
COc1ccc(C=Cc2cc([N+](=O)[O-])c(N)cc2O)cc1

>  <score_type>  (61) 
oracle

>  <origin>  (61) 
adg

>  <m_score__min__energy>  (61) 
-7.2800000000000002

>  <m_primary>  (61) 
energy

$$$$
61:0
     RDKit          3D

 56 58  0  0  0  0  0  0  0  0999 V2000
   58.4148   30.8265   44.4815 H   0  0  0  0  0  0  0  0  0  0  0  0
   57.7650   31.5900   44.9340 C   0  0  0  0  0  0  0  0  0  0  0  0
   56.4780   31.4250   44.8650 N   0  0  0  0  0  0  0  0  0  0  0  0
   55.8930   30.2120   44.5700 O   0  0  0  0  0  0  0  0  0  0  0  0
   55.8960   29.7150   43.2440 C   0  0  0  0  0  0  0  0  0  0  0  0
   55.9026   28.6152   43.2647 H   0  0  0  0  0  0  0  0  0  0  0  0
   54.9957   30.0664   42.7187 H   0  0  0  0  0  0  0  0  0  0  0  0
   56.7920   30.0773   42.7187 H   0  0  0  0  0  0  0  0  0  0  0  0
   58.4000   32.7540   45.5910 C   0  0  0  0  0  0  0  0  0  0  0  0
   58.6720   33.9010   44.8310 C   0  0  0  0  0  0  0  0  0  0  0  0
   58.4110   33.9240   43.7627 H   0  0  0  0  0  0  0  0  0  0  0  0
   59.2730   35.0150   45.4240 C   0  0  0  0  0  0  0  0  0  0  0  0
   59.4843   35.9102   44.8207 H   0  0  0  0  0  0  0  0  0  0  0  0
   59.6060   34.9950   46.7800 C   0  0  0  0  0  0  0  0  0  0  0  0
   60.0686   35.8789   47.2434 H   0  0  0  0  0  0  0  0  0  0  0  0
   59.3530   33.8520   47.5540 C   0  0  0  0  0  0  0  0  0  0  0  0
   59.7180   33.8430   48.9870 C   0  0  0  0  0  0  0  0  0  0  0  0
   60.7700   34.4350   49.3520 O   0  0  0  0  0  0  0  0  0  0  0  0
   58.8990   33.2220   49.9890 N   0  0  0  0  0  0  0  0  0  0  0  0
   58.4360   31.8370   49.9920 C   0  0  0  0  0  0  0  0  0  0  0  0
   57.6162   31.7285   50.7173 H   0  0  0  0  0  0  0  0  0  0  0  0
   58.0805   31.5728   48.9851 H   0  0  0  0  0  0  0  0  0  0  0  0
   59.5810   30.9050   50.3800 C   0  0  0  0  0  0  0  0  0  0  0  0
   60.3422   31.4735   50.9344 H   0  0  0  0  0  0  0  0  0  0  0  0
   59.1896   30.0938   51.0115 H   0  0  0  0  0  0  0  0  0  0  0  0
   60.1950   30.3210   49.1570 N   0  0  0  0  0  0  0  0  0  0  0  0
   59.6390   28.9840   48.8550 C   0  0  0  0  0  0  0  0  0  0  0  0
   60.3461   28.2108   49.1897 H   0  0  0  0  0  0  0  0  0  0  0  0
   58.6801   28.8633   49.3803 H   0  0  0  0  0  0  0  0  0  0  0  0
   59.4130   28.8460   47.3720 C   0  0  0  0  0  0  0  0  0  0  0  0
   58.2150   28.2840   46.8980 C   0  0  0  0  0  0  0  0  0  0  0  0
   57.4398   27.9662   47.6108 H   0  0  0  0  0  0  0  0  0  0  0  0
   58.0040   28.1270   45.5250 C   0  0  0  0  0  0  0  0  0  0  0  0
   57.0624   27.6912   45.1596 H   0  0  0  0  0  0  0  0  0  0  0  0
   58.9900   28.5240   44.6160 C   0  0  0  0  0  0  0  0  0  0  0  0
   58.8250   28.3979   43.5358 H   0  0  0  0  0  0  0  0  0  0  0  0
   60.1850   29.0810   45.0800 C   0  0  0  0  0  0  0  0  0  0  0  0
   60.9597   29.3926   44.3639 H   0  0  0  0  0  0  0  0  0  0  0  0
   60.3980   29.2430   46.4530 C   0  0  0  0  0  0  0  0  0  0  0  0
   61.3396   29.6825   46.8139 H   0  0  0  0  0  0  0  0  0  0  0  0
   61.6720   30.2720   49.2450 C   0  0  0  0  0  0  0  0  0  0  0  0
   61.9679   30.1800   50.3005 H   0  0  0  0  0  0  0  0  0  0  0  0
   62.0317   29.4056   48.6705 H   0  0  0  0  0  0  0  0  0  0  0  0
   62.2820   31.5220   48.6680 C   0  0  0  0  0  0  0  0  0  0  0  0
   62.0330   31.8910   47.3350 C   0  0  0  0  0  0  0  0  0  0  0  0
   61.3491   31.2902   46.7174 H   0  0  0  0  0  0  0  0  0  0  0  0
   62.6540   33.0220   46.7920 C   0  0  0  0  0  0  0  0  0  0  0  0
   62.4517   33.3126   45.7505 H   0  0  0  0  0  0  0  0  0  0  0  0
   63.5310   33.7830   47.5710 C   0  0  0  0  0  0  0  0  0  0  0  0
   64.0260   34.6652   47.1389 H   0  0  0  0  0  0  0  0  0  0  0  0
   63.7790   33.4230   48.8990 C   0  0  0  0  0  0  0  0  0  0  0  0
   64.4608   34.0286   49.5141 H   0  0  0  0  0  0  0  0  0  0  0  0
   63.1620   32.2950   49.4460 C   0  0  0  0  0  0  0  0  0  0  0  0
   63.3654   32.0107   50.4890 H   0  0  0  0  0  0  0  0  0  0  0  0
   58.7910   32.7190   46.9430 C   0  0  0  0  0  0  0  0  0  0  0  0
   58.6552   31.7962   47.5260 H   0  0  0  0  0  0  0  0  0  0  0  0
  1  2  1  0
  2  3  2  0
  3  4  1  0
  4  5  1  0
  5  6  1  0
  5  7  1  0
  5  8  1  0
  2  9  1  0
  9 10  2  0
 10 11  1  0
 10 12  1  0
 12 13  1  0
 12 14  2  0
 14 15  1  0
 14 16  1  0
 16 17  1  0
 17 18  2  0
 17 19  1  0
 19 20  1  0
 20 21  1  0
 20 22  1  0
 20 23  1  0
 23 24  1  0
 23 25  1  0
 23 26  1  0
 26 27  1  0
 27 28  1  0
 27 29  1  0
 27 30  1  0
 30 31  2  0
 31 32  1  0
 31 33  1  0
 33 34  1  0
 33 35  2  0
 35 36  1  0
 35 37  1  0
 37 38  1  0
 37 39  2  0
 39 40  1  0
 26 41  1  0
 41 42  1  0
 41 43  1  0
 41 44  1  0
 44 45  2  0
 45 46  1  0
 45 47  1  0
 47 48  1  0
 47 49  2  0
 49 50  1  0
 49 51  1  0
 51 52  1  0
 51 53  2  0
 53 54  1  0
 16 55  2  0
 55 56  1  0
 55  9  1  0
 39 30  1  0
 53 44  1  0
M  CHG  1  19  -1
M  END
>  <UniqueID>  (62) 
58

>  <SMILES>  (62) 
CO/N=C\c1cccc(C(=O)[N-]CCN(Cc2ccccc2)Cc2ccccc2)c1

>  <Energy>  (62) 
57.12048882533527

>  <Genealogy>  (62) 
CON=Cc1cccc(C(=O)[N-]CCN(Cc2ccccc2)Cc2ccccc2)c1 (protonated)
CO/N=C\c1cccc(C(=O)[N-]CCN(Cc2ccccc2)Cc2ccccc2)c1 (cis-trans isomerization)
CO/N=C\c1cccc(C(=O)[N-]CCN(Cc2ccccc2)Cc2ccccc2)c1 (3D coordinates assigned)
CO/N=C\c1cccc(C(=O)[N-]CCN(Cc2ccccc2)Cc2ccccc2)c1 (optimized conformer: 57.12048882533527 kcal/mol)

>  <smiles>  (62) 
CON=Cc1cccc(C(=O)NCCN(Cc2ccccc2)Cc2ccccc2)c1

>  <score_type>  (62) 
oracle

>  <origin>  (62) 
adg

>  <m_score__min__energy>  (62) 
-11.15

>  <m_primary>  (62) 
energy

$$$$
62:0
     RDKit          3D

 46 48  0  0  0  0  0  0  0  0999 V2000
   62.3650   32.3890   47.7450 C   0  0  0  0  0  0  0  0  0  0  0  0
   61.4490   31.2150   48.0760 C   0  0  0  0  0  0  0  0  0  0  0  0
   60.8120   31.3840   49.4570 C   0  0  0  0  0  0  0  0  0  0  0  0
   59.0310   31.4580   49.3330 S   0  0  0  0  0  0  0  0  0  0  0  0
   58.4300   31.2790   50.6980 O   0  0  0  0  0  0  0  0  0  0  0  0
   58.5500   30.3720   48.4120 O   0  0  0  0  0  0  0  0  0  0  0  0
   58.5840   33.0050   48.6920 N   0  0  0  0  0  0  0  0  0  0  0  0
   58.6460   33.3740   47.3080 C   0  0  0  0  0  0  0  0  0  0  0  0
   59.3070   34.5570   46.9580 C   0  0  0  0  0  0  0  0  0  0  0  0
   59.3910   34.9520   45.6220 C   0  0  0  0  0  0  0  0  0  0  0  0
   58.8110   34.1710   44.6210 C   0  0  0  0  0  0  0  0  0  0  0  0
   58.1310   32.9880   44.9510 C   0  0  0  0  0  0  0  0  0  0  0  0
   57.5020   32.1430   43.8700 C   0  0  0  0  0  0  0  0  0  0  0  0
   57.1350   30.7740   44.3830 C   0  0  0  0  0  0  0  0  0  0  0  0
   55.8170   30.4500   44.4440 N   0  0  0  0  0  0  0  0  0  0  0  0
   55.3980   29.2640   44.8790 N   0  0  0  0  0  0  0  0  0  0  0  0
   56.2670   28.3060   45.2800 C   0  0  0  0  0  0  0  0  0  0  0  0
   55.8240   27.2000   45.6880 O   0  0  0  0  0  0  0  0  0  0  0  0
   57.6480   28.5560   45.2370 C   0  0  0  0  0  0  0  0  0  0  0  0
   58.1010   29.8330   44.8190 C   0  0  0  0  0  0  0  0  0  0  0  0
   59.5190   30.1270   44.7050 N   0  0  0  0  0  0  0  0  0  0  0  0
   60.3630   29.2720   45.5500 C   0  0  0  0  0  0  0  0  0  0  0  0
   60.0510   27.7970   45.3100 C   0  0  0  0  0  0  0  0  0  0  0  0
   58.6140   27.5030   45.7300 C   0  0  0  0  0  0  0  0  0  0  0  0
   58.0640   32.5870   46.2970 C   0  0  0  0  0  0  0  0  0  0  0  0
   62.7236   32.8486   48.6778 H   0  0  0  0  0  0  0  0  0  0  0  0
   63.2241   32.0300   47.1592 H   0  0  0  0  0  0  0  0  0  0  0  0
   61.8079   33.1350   47.1592 H   0  0  0  0  0  0  0  0  0  0  0  0
   60.6536   31.1556   47.3185 H   0  0  0  0  0  0  0  0  0  0  0  0
   62.0500   30.2937   48.0794 H   0  0  0  0  0  0  0  0  0  0  0  0
   61.0937   30.5300   50.0905 H   0  0  0  0  0  0  0  0  0  0  0  0
   61.1730   32.3250   49.8978 H   0  0  0  0  0  0  0  0  0  0  0  0
   59.7635   35.1798   47.7414 H   0  0  0  0  0  0  0  0  0  0  0  0
   59.9159   35.8817   45.3571 H   0  0  0  0  0  0  0  0  0  0  0  0
   58.8871   34.4838   43.5692 H   0  0  0  0  0  0  0  0  0  0  0  0
   56.5926   32.6447   43.5078 H   0  0  0  0  0  0  0  0  0  0  0  0
   58.2328   32.0226   43.0567 H   0  0  0  0  0  0  0  0  0  0  0  0
   59.7030   31.1120   45.0000 H   0  0  0  0  0  0  0  0  0  0  0  0
   59.8040   30.0150   43.7050 H   0  0  0  0  0  0  0  0  0  0  0  0
   61.4202   29.4605   45.3119 H   0  0  0  0  0  0  0  0  0  0  0  0
   60.1605   29.5085   46.6050 H   0  0  0  0  0  0  0  0  0  0  0  0
   60.1748   27.5657   44.2417 H   0  0  0  0  0  0  0  0  0  0  0  0
   60.7391   27.1768   45.9031 H   0  0  0  0  0  0  0  0  0  0  0  0
   58.3165   26.5280   45.3165 H   0  0  0  0  0  0  0  0  0  0  0  0
   58.5776   27.4997   46.8294 H   0  0  0  0  0  0  0  0  0  0  0  0
   57.5522   31.6501   46.5620 H   0  0  0  0  0  0  0  0  0  0  0  0
  1  2  1  0
  2  3  1  0
  3  4  1  0
  4  5  2  0
  4  6  2  0
  4  7  1  0
  7  8  1  0
  8  9  2  0
  9 10  1  0
 10 11  2  0
 11 12  1  0
 12 13  1  0
 13 14  1  0
 14 15  2  0
 15 16  1  0
 16 17  1  0
 17 18  2  0
 17 19  1  0
 19 20  2  0
 20 21  1  0
 21 22  1  0
 22 23  1  0
 23 24  1  0
 12 25  2  0
 25  8  1  0
 20 14  1  0
 24 19  1  0
  1 26  1  0
  1 27  1  0
  1 28  1  0
  2 29  1  0
  2 30  1  0
  3 31  1  0
  3 32  1  0
  9 33  1  0
 10 34  1  0
 11 35  1  0
 13 36  1  0
 13 37  1  0
 21 38  1  0
 21 39  1  0
 22 40  1  0
 22 41  1  0
 23 42  1  0
 23 43  1  0
 24 44  1  0
 24 45  1  0
 25 46  1  0
M  CHG  3   7  -1  16  -1  21   1
M  END
>  <UniqueID>  (63) 
59

>  <SMILES>  (63) 
CCCS(=O)(=O)[N-]c1cccc(Cc2n[n-]c(=O)c3c2[NH2+]CCC3)c1

>  <Energy>  (63) 
46.396049198640426

>  <Genealogy>  (63) 
CCCS(=O)(=O)[N-]c1cccc(Cc2n[n-]c(=O)c3c2[NH2+]CCC3)c1 (protonated)
CCCS(=O)(=O)[N-]c1cccc(Cc2n[n-]c(=O)c3c2[NH2+]CCC3)c1 (3D coordinates assigned)
CCCS(=O)(=O)[N-]c1cccc(Cc2n[n-]c(=O)c3c2[NH2+]CCC3)c1 (nonaromatic ring conformer: 46.396049198640426 kcal/mol)

>  <smiles>  (63) 
CCCS(=O)(=O)Nc1cccc(Cc2n[nH]c(=O)c3c2NCCC3)c1

>  <score_type>  (63) 
oracle

>  <origin>  (63) 
adg

>  <m_score__min__energy>  (63) 
-10.31

>  <m_primary>  (63) 
energy

$$$$
63:0
     RDKit          3D

 35 37  0  0  0  0  0  0  0  0999 V2000
   59.2850   29.9870   46.6590 C   0  0  0  0  0  0  0  0  0  0  0  0
   58.0480   30.2330   45.8390 C   0  0  0  0  0  0  0  0  0  0  0  0
   57.2090   29.2700   45.2920 C   0  0  0  0  0  0  0  0  0  0  0  0
   57.2630   27.8060   45.4260 C   0  0  0  0  0  0  0  0  0  0  0  0
   58.3690   27.2170   45.2870 O   0  0  0  0  0  0  0  0  0  0  0  0
   56.0700   27.0470   45.6590 N   0  0  0  0  0  0  0  0  0  0  0  0
   56.1040   25.6800   46.1700 C   0  0  0  0  0  0  0  0  0  0  0  0
   54.9080   24.9260   45.6820 C   0  0  0  0  0  0  0  0  0  0  0  0
   54.8810   23.6010   45.3010 C   0  0  0  0  0  0  0  0  0  0  0  0
   53.6400   23.3020   45.0100 O   0  0  0  0  0  0  0  0  0  0  0  0
   52.9330   24.3900   45.2110 C   0  0  0  0  0  0  0  0  0  0  0  0
   51.6890   24.4480   45.0270 O   0  0  0  0  0  0  0  0  0  0  0  0
   53.6620   25.4400   45.6390 N   0  0  0  0  0  0  0  0  0  0  0  0
   56.3040   29.9770   44.5240 C   0  0  0  0  0  0  0  0  0  0  0  0
   56.5790   31.2930   44.6080 N   0  0  0  0  0  0  0  0  0  0  0  0
   57.6400   31.4420   45.3870 N   0  0  0  0  0  0  0  0  0  0  0  0
   58.2220   32.7280   45.6600 C   0  0  0  0  0  0  0  0  0  0  0  0
   58.6120   33.5810   44.6150 C   0  0  0  0  0  0  0  0  0  0  0  0
   59.1540   34.8390   44.8980 C   0  0  0  0  0  0  0  0  0  0  0  0
   59.2960   35.2590   46.2220 C   0  0  0  0  0  0  0  0  0  0  0  0
   58.8880   34.4250   47.2670 C   0  0  0  0  0  0  0  0  0  0  0  0
   58.3460   33.1670   46.9880 C   0  0  0  0  0  0  0  0  0  0  0  0
   59.0321   30.0373   47.7283 H   0  0  0  0  0  0  0  0  0  0  0  0
   59.6885   28.9910   46.4241 H   0  0  0  0  0  0  0  0  0  0  0  0
   60.0389   30.7528   46.4241 H   0  0  0  0  0  0  0  0  0  0  0  0
   55.1430   27.4720   45.4330 H   0  0  0  0  0  0  0  0  0  0  0  0
   57.0188   25.1812   45.8175 H   0  0  0  0  0  0  0  0  0  0  0  0
   56.0944   25.7033   47.2697 H   0  0  0  0  0  0  0  0  0  0  0  0
   55.7436   22.9203   45.2508 H   0  0  0  0  0  0  0  0  0  0  0  0
   55.4866   29.5344   43.9358 H   0  0  0  0  0  0  0  0  0  0  0  0
   58.4909   33.2588   43.5703 H   0  0  0  0  0  0  0  0  0  0  0  0
   59.4689   35.4986   44.0760 H   0  0  0  0  0  0  0  0  0  0  0  0
   59.7288   36.2459   46.4427 H   0  0  0  0  0  0  0  0  0  0  0  0
   58.9935   34.7589   48.3098 H   0  0  0  0  0  0  0  0  0  0  0  0
   58.0152   32.5182   47.8124 H   0  0  0  0  0  0  0  0  0  0  0  0
  1  2  1  0
  2  3  2  0
  3  4  1  0
  4  5  2  0
  4  6  1  0
  6  7  1  0
  7  8  1  0
  8  9  2  0
  9 10  1  0
 10 11  1  0
 11 12  2  0
 11 13  1  0
  3 14  1  0
 14 15  2  0
 15 16  1  0
 16 17  1  0
 17 18  2  0
 18 19  1  0
 19 20  2  0
 20 21  1  0
 21 22  2  0
 16  2  1  0
 22 17  1  0
 13  8  1  0
  1 23  1  0
  1 24  1  0
  1 25  1  0
  6 26  1  0
  7 27  1  0
  7 28  1  0
  9 29  1  0
 14 30  1  0
 18 31  1  0
 19 32  1  0
 20 33  1  0
 21 34  1  0
 22 35  1  0
M  CHG  1  13  -1
M  END
>  <UniqueID>  (64) 
60

>  <SMILES>  (64) 
Cc1c(C(=O)NCc2coc(=O)[n-]2)cnn1-c1ccccc1

>  <Energy>  (64) 
103.8840746072901

>  <Genealogy>  (64) 
Cc1c(C(=O)NCc2coc(=O)[n-]2)cnn1-c1ccccc1 (protonated)
Cc1c(C(=O)NCc2coc(=O)[n-]2)cnn1-c1ccccc1 (3D coordinates assigned)
Cc1c(C(=O)NCc2coc(=O)[n-]2)cnn1-c1ccccc1 (optimized conformer: 103.8840746072901 kcal/mol)

>  <smiles>  (64) 
Cc1c(C(=O)NCc2coc(=O)[nH]2)cnn1-c1ccccc1

>  <score_type>  (64) 
oracle

>  <origin>  (64) 
adg

>  <m_score__min__energy>  (64) 
-9.8900000000000006

>  <m_primary>  (64) 
energy

$$$$
64:0
     RDKit          3D

 51 53  0  0  0  0  0  0  0  0999 V2000
   57.4550   32.6710   43.3990 C   0  0  0  0  0  0  0  0  0  0  0  0
   57.5400   31.3280   44.0750 C   0  0  0  0  0  0  0  0  0  0  0  0
   57.2230   30.1810   43.3290 C   0  0  0  0  0  0  0  0  0  0  0  0
   57.2920   28.9120   43.9040 C   0  0  0  0  0  0  0  0  0  0  0  0
   57.7010   28.7590   45.2360 C   0  0  0  0  0  0  0  0  0  0  0  0
   57.7380   27.4670   45.8680 N   0  0  0  0  0  0  0  0  0  0  0  0
   58.8530   26.9700   46.6250 C   0  0  0  0  0  0  0  0  0  0  0  0
   59.7330   27.7590   47.0620 O   0  0  0  0  0  0  0  0  0  0  0  0
   58.9520   25.5100   46.9420 C   0  0  0  0  0  0  0  0  0  0  0  0
   57.3360   24.8410   47.4710 S   0  0  0  0  0  0  0  0  0  0  0  0
   56.9420   24.1040   45.8760 C   0  0  0  0  0  0  0  0  0  0  0  0
   57.8260   23.1990   45.3730 N   0  0  0  0  0  0  0  0  0  0  0  0
   57.6120   22.5460   44.2040 C   0  0  0  0  0  0  0  0  0  0  0  0
   56.4500   22.7840   43.4770 C   0  0  0  0  0  0  0  0  0  0  0  0
   55.5220   23.7080   43.9550 C   0  0  0  0  0  0  0  0  0  0  0  0
   55.7530   24.3960   45.1610 C   0  0  0  0  0  0  0  0  0  0  0  0
   54.7460   25.3860   45.6260 C   0  0  0  0  0  0  0  0  0  0  0  0
   53.5250   25.0750   45.6620 O   0  0  0  0  0  0  0  0  0  0  0  0
   55.1140   26.6740   45.9960 O   0  0  0  0  0  0  0  0  0  0  0  0
   58.0130   29.8970   45.9890 C   0  0  0  0  0  0  0  0  0  0  0  0
   57.9540   31.1820   45.4240 C   0  0  0  0  0  0  0  0  0  0  0  0
   58.3370   32.5610   46.4710 S   0  0  0  0  0  0  0  0  0  0  0  0
   57.0920   33.2570   46.9450 O   0  0  0  0  0  0  0  0  0  0  0  0
   59.1510   33.5540   45.6910 O   0  0  0  0  0  0  0  0  0  0  0  0
   59.2720   32.0280   47.8270 N   0  0  0  0  0  0  0  0  0  0  0  0
   60.6770   32.2770   47.9120 C   0  0  0  0  0  0  0  0  0  0  0  0
   61.6010   31.4020   47.2940 C   0  0  0  0  0  0  0  0  0  0  0  0
   61.1560   30.1850   46.5300 C   0  0  0  0  0  0  0  0  0  0  0  0
   62.9760   31.6420   47.4380 C   0  0  0  0  0  0  0  0  0  0  0  0
   63.4310   32.7540   48.1480 C   0  0  0  0  0  0  0  0  0  0  0  0
   62.5180   33.6390   48.7220 C   0  0  0  0  0  0  0  0  0  0  0  0
   61.1440   33.4090   48.6040 C   0  0  0  0  0  0  0  0  0  0  0  0
   60.0250   34.5550   49.3290 Cl  0  0  0  0  0  0  0  0  0  0  0  0
   57.4049   33.4626   44.1611 H   0  0  0  0  0  0  0  0  0  0  0  0
   58.3454   32.8224   42.7710 H   0  0  0  0  0  0  0  0  0  0  0  0
   56.5527   32.7090   42.7710 H   0  0  0  0  0  0  0  0  0  0  0  0
   56.9164   30.2847   42.2777 H   0  0  0  0  0  0  0  0  0  0  0  0
   57.0240   28.0265   43.3089 H   0  0  0  0  0  0  0  0  0  0  0  0
   56.8850   26.8650   45.8090 H   0  0  0  0  0  0  0  0  0  0  0  0
   59.2884   24.9695   46.0449 H   0  0  0  0  0  0  0  0  0  0  0  0
   59.6707   25.3789   47.7644 H   0  0  0  0  0  0  0  0  0  0  0  0
   58.3571   21.8281   43.8306 H   0  0  0  0  0  0  0  0  0  0  0  0
   56.2653   22.2483   42.5342 H   0  0  0  0  0  0  0  0  0  0  0  0
   54.6014   23.9011   43.3848 H   0  0  0  0  0  0  0  0  0  0  0  0
   58.3097   29.7832   47.0421 H   0  0  0  0  0  0  0  0  0  0  0  0
   60.8666   29.3937   47.2371 H   0  0  0  0  0  0  0  0  0  0  0  0
   60.2944   30.4441   45.8971 H   0  0  0  0  0  0  0  0  0  0  0  0
   61.9815   29.8273   45.8971 H   0  0  0  0  0  0  0  0  0  0  0  0
   63.7011   30.9481   46.9877 H   0  0  0  0  0  0  0  0  0  0  0  0
   64.5110   32.9329   48.2552 H   0  0  0  0  0  0  0  0  0  0  0  0
   62.8806   34.5214   49.2697 H   0  0  0  0  0  0  0  0  0  0  0  0
  1  2  1  0
  2  3  2  0
  3  4  1  0
  4  5  2  0
  5  6  1  0
  6  7  1  0
  7  8  2  0
  7  9  1  0
  9 10  1  0
 10 11  1  0
 11 12  2  0
 12 13  1  0
 13 14  2  0
 14 15  1  0
 15 16  2  0
 16 17  1  0
 17 18  2  0
 17 19  1  0
  5 20  1  0
 20 21  2  0
 21 22  1  0
 22 23  2  0
 22 24  2  0
 22 25  1  0
 25 26  1  0
 26 27  2  0
 27 28  1  0
 27 29  1  0
 29 30  2  0
 30 31  1  0
 31 32  2  0
 32 33  1  0
 21  2  1  0
 32 26  1  0
 16 11  1  0
  1 34  1  0
  1 35  1  0
  1 36  1  0
  3 37  1  0
  4 38  1  0
  6 39  1  0
  9 40  1  0
  9 41  1  0
 13 42  1  0
 14 43  1  0
 15 44  1  0
 20 45  1  0
 28 46  1  0
 28 47  1  0
 28 48  1  0
 29 49  1  0
 30 50  1  0
 31 51  1  0
M  CHG  2  19  -1  25  -1
M  END
>  <UniqueID>  (65) 
61

>  <SMILES>  (65) 
Cc1ccc(NC(=O)CSc2ncccc2C(=O)[O-])cc1S(=O)(=O)[N-]c1c(C)cccc1Cl

>  <Energy>  (65) 
66.72131058584678

>  <Genealogy>  (65) 
Cc1ccc(NC(=O)CSc2ncccc2C(=O)[O-])cc1S(=O)(=O)[N-]c1c(C)cccc1Cl (protonated)
Cc1ccc(NC(=O)CSc2ncccc2C(=O)[O-])cc1S(=O)(=O)[N-]c1c(C)cccc1Cl (3D coordinates assigned)
Cc1ccc(NC(=O)CSc2ncccc2C(=O)[O-])cc1S(=O)(=O)[N-]c1c(C)cccc1Cl (optimized conformer: 66.72131058584678 kcal/mol)

>  <smiles>  (65) 
Cc1ccc(NC(=O)CSc2ncccc2C(=O)O)cc1S(=O)(=O)Nc1c(C)cccc1Cl

>  <score_type>  (65) 
oracle

>  <origin>  (65) 
adg

>  <m_score__min__energy>  (65) 
-14.279999999999999

>  <m_primary>  (65) 
energy

$$$$
65:0
     RDKit          3D

 38 41  0  0  0  0  0  0  0  0999 V2000
   58.3318   26.4386   43.6317 H   0  0  0  0  0  0  0  0  0  0  0  0
   57.8150   26.7600   44.5480 C   0  0  0  0  0  0  0  0  0  0  0  0
   57.3530   25.8030   45.3680 C   0  0  0  0  0  0  0  0  0  0  0  0
   58.2750   24.2840   45.6270 S   0  0  0  0  0  0  0  0  0  0  0  0
   57.0250   23.8140   46.8260 C   0  0  0  0  0  0  0  0  0  0  0  0
   57.1250   22.7690   47.5200 O   0  0  0  0  0  0  0  0  0  0  0  0
   55.9120   24.6870   46.9590 N   0  0  0  0  0  0  0  0  0  0  0  0
   56.0880   25.8080   46.1130 C   0  0  0  0  0  0  0  0  0  0  0  0
   55.1910   26.6820   45.9890 O   0  0  0  0  0  0  0  0  0  0  0  0
   57.6820   28.2100   44.7830 C   0  0  0  0  0  0  0  0  0  0  0  0
   56.8640   28.9720   43.9380 C   0  0  0  0  0  0  0  0  0  0  0  0
   56.2989   28.4797   43.1329 H   0  0  0  0  0  0  0  0  0  0  0  0
   56.7630   30.3560   44.1140 C   0  0  0  0  0  0  0  0  0  0  0  0
   56.0961   30.9419   43.4645 H   0  0  0  0  0  0  0  0  0  0  0  0
   57.5040   31.0000   45.1100 C   0  0  0  0  0  0  0  0  0  0  0  0
   57.3630   32.3860   45.2630 O   0  0  0  0  0  0  0  0  0  0  0  0
   58.4010   33.2680   45.5910 C   0  0  0  0  0  0  0  0  0  0  0  0
   58.5450   34.8690   45.0870 S   0  0  0  0  0  0  0  0  0  0  0  0
   59.9530   35.1370   45.9710 C   0  0  0  0  0  0  0  0  0  0  0  0
   60.5219   36.0777   46.0083 H   0  0  0  0  0  0  0  0  0  0  0  0
   60.2740   33.9580   46.6490 C   0  0  0  0  0  0  0  0  0  0  0  0
   61.4590   33.8230   47.5330 C   0  0  0  0  0  0  0  0  0  0  0  0
   62.6870   33.3690   47.0150 C   0  0  0  0  0  0  0  0  0  0  0  0
   62.7684   33.1124   45.9485 H   0  0  0  0  0  0  0  0  0  0  0  0
   63.8040   33.2420   47.8470 C   0  0  0  0  0  0  0  0  0  0  0  0
   64.7591   32.8862   47.4333 H   0  0  0  0  0  0  0  0  0  0  0  0
   63.7090   33.5660   49.2020 C   0  0  0  0  0  0  0  0  0  0  0  0
   64.7940   33.4410   50.0060 F   0  0  0  0  0  0  0  0  0  0  0  0
   62.4980   34.0190   49.7280 C   0  0  0  0  0  0  0  0  0  0  0  0
   62.4248   34.2744   50.7954 H   0  0  0  0  0  0  0  0  0  0  0  0
   61.3770   34.1490   48.9010 C   0  0  0  0  0  0  0  0  0  0  0  0
   60.4260   34.5079   49.3215 H   0  0  0  0  0  0  0  0  0  0  0  0
   59.4000   32.9330   46.4320 N   0  0  0  0  0  0  0  0  0  0  0  0
   59.4670   31.9930   46.8830 H   0  0  0  0  0  0  0  0  0  0  0  0
   58.3310   30.2380   45.9550 C   0  0  0  0  0  0  0  0  0  0  0  0
   58.8999   30.7319   46.7566 H   0  0  0  0  0  0  0  0  0  0  0  0
   58.4320   28.8550   45.7790 C   0  0  0  0  0  0  0  0  0  0  0  0
   59.1028   28.2689   46.4244 H   0  0  0  0  0  0  0  0  0  0  0  0
  1  2  1  0
  2  3  2  0
  3  4  1  0
  4  5  1  0
  5  6  2  0
  5  7  1  0
  7  8  1  0
  8  9  2  0
  2 10  1  0
 10 11  2  0
 11 12  1  0
 11 13  1  0
 13 14  1  0
 13 15  2  0
 15 16  1  0
 16 17  1  0
 17 18  1  0
 18 19  1  0
 19 20  1  0
 19 21  2  0
 21 22  1  0
 22 23  2  0
 23 24  1  0
 23 25  1  0
 25 26  1  0
 25 27  2  0
 27 28  1  0
 27 29  1  0
 29 30  1  0
 29 31  2  0
 31 32  1  0
 21 33  1  0
 33 34  1  0
 15 35  1  0
 35 36  1  0
 35 37  2  0
 37 38  1  0
  8  3  1  0
 37 10  1  0
 33 17  2  0
 31 22  1  0
M  CHG  2   7  -1  33   1
M  END
>  <UniqueID>  (66) 
62

>  <SMILES>  (66) 
O=C1[N-]C(=O)/C(=C\c2ccc(Oc3[nH+]c(-c4ccc(F)cc4)cs3)cc2)S1

>  <Energy>  (66) 
107.73111183815858

>  <Genealogy>  (66) 
O=C1[N-]C(=O)C(=Cc2ccc(Oc3[nH+]c(-c4ccc(F)cc4)cs3)cc2)S1 (protonated)
O=C1[N-]C(=O)/C(=C\c2ccc(Oc3[nH+]c(-c4ccc(F)cc4)cs3)cc2)S1 (cis-trans isomerization)
O=C1[N-]C(=O)/C(=C\c2ccc(Oc3[nH+]c(-c4ccc(F)cc4)cs3)cc2)S1 (3D coordinates assigned)
O=C1[N-]C(=O)/C(=C\c2ccc(Oc3[nH+]c(-c4ccc(F)cc4)cs3)cc2)S1 (nonaromatic ring conformer: 107.73111183815858 kcal/mol)

>  <smiles>  (66) 
O=C1NC(=O)C(=Cc2ccc(Oc3nc(-c4ccc(F)cc4)cs3)cc2)S1

>  <score_type>  (66) 
oracle

>  <origin>  (66) 
adg

>  <m_score__min__energy>  (66) 
-10.57

>  <m_primary>  (66) 
energy

$$$$
66:0
     RDKit          3D

 42 44  0  0  0  0  0  0  0  0999 V2000
   54.7760   27.0830   46.3740 H   0  0  0  0  0  0  0  0  0  0  0  0
   55.1120   26.1210   46.1430 N   0  0  0  0  0  0  0  0  0  0  0  0
   56.8230   26.2210   45.9320 S   0  0  0  0  0  0  0  0  0  0  0  0
   57.2840   25.1150   45.0240 O   0  0  0  0  0  0  0  0  0  0  0  0
   57.5020   26.0650   47.2630 O   0  0  0  0  0  0  0  0  0  0  0  0
   57.2400   27.7820   45.2310 C   0  0  0  0  0  0  0  0  0  0  0  0
   58.5310   28.0100   44.7370 C   0  0  0  0  0  0  0  0  0  0  0  0
   59.2825   27.2077   44.7757 H   0  0  0  0  0  0  0  0  0  0  0  0
   58.8670   29.2540   44.1950 C   0  0  0  0  0  0  0  0  0  0  0  0
   59.8835   29.4277   43.8121 H   0  0  0  0  0  0  0  0  0  0  0  0
   57.9130   30.2830   44.1370 C   0  0  0  0  0  0  0  0  0  0  0  0
   58.2890   31.6360   43.6000 C   0  0  0  0  0  0  0  0  0  0  0  0
   59.3032   31.5909   43.1764 H   0  0  0  0  0  0  0  0  0  0  0  0
   57.5712   31.9269   42.8188 H   0  0  0  0  0  0  0  0  0  0  0  0
   58.2560   32.6490   44.6990 C   0  0  0  0  0  0  0  0  0  0  0  0
   59.3910   32.7780   45.9330 S   0  0  0  0  0  0  0  0  0  0  0  0
   58.5380   34.0110   46.7150 C   0  0  0  0  0  0  0  0  0  0  0  0
   58.8660   34.5950   47.8300 N   0  0  0  0  0  0  0  0  0  0  0  0
   59.6400   34.0510   48.9100 C   0  0  0  0  0  0  0  0  0  0  0  0
   60.8540   34.3740   49.0090 O   0  0  0  0  0  0  0  0  0  0  0  0
   59.0690   33.1300   49.8460 N   0  0  0  0  0  0  0  0  0  0  0  0
   59.7720   31.9610   50.3610 C   0  0  0  0  0  0  0  0  0  0  0  0
   60.7741   32.2599   50.7022 H   0  0  0  0  0  0  0  0  0  0  0  0
   59.2016   31.5386   51.2014 H   0  0  0  0  0  0  0  0  0  0  0  0
   59.9030   30.9220   49.2830 C   0  0  0  0  0  0  0  0  0  0  0  0
   58.9830   29.8640   49.1910 C   0  0  0  0  0  0  0  0  0  0  0  0
   58.1711   29.7774   49.9281 H   0  0  0  0  0  0  0  0  0  0  0  0
   59.0970   28.9200   48.1640 C   0  0  0  0  0  0  0  0  0  0  0  0
   58.3776   28.0905   48.0980 H   0  0  0  0  0  0  0  0  0  0  0  0
   60.1240   29.0300   47.2220 C   0  0  0  0  0  0  0  0  0  0  0  0
   60.2132   28.2861   46.4166 H   0  0  0  0  0  0  0  0  0  0  0  0
   61.0370   30.0840   47.3030 C   0  0  0  0  0  0  0  0  0  0  0  0
   61.8437   30.1700   46.5602 H   0  0  0  0  0  0  0  0  0  0  0  0
   60.9270   31.0300   48.3270 C   0  0  0  0  0  0  0  0  0  0  0  0
   61.6447   31.8616   48.3842 H   0  0  0  0  0  0  0  0  0  0  0  0
   57.3940   34.3110   46.0640 N   0  0  0  0  0  0  0  0  0  0  0  0
   57.2300   33.5560   44.9450 C   0  0  0  0  0  0  0  0  0  0  0  0
   56.3548   33.6546   44.2860 H   0  0  0  0  0  0  0  0  0  0  0  0
   56.6270   30.0570   44.6510 C   0  0  0  0  0  0  0  0  0  0  0  0
   55.8788   30.8630   44.6272 H   0  0  0  0  0  0  0  0  0  0  0  0
   56.2920   28.8130   45.1930 C   0  0  0  0  0  0  0  0  0  0  0  0
   55.2808   28.6428   45.5910 H   0  0  0  0  0  0  0  0  0  0  0  0
  1  2  1  0
  2  3  1  0
  3  4  2  0
  3  5  2  0
  3  6  1  0
  6  7  2  0
  7  8  1  0
  7  9  1  0
  9 10  1  0
  9 11  2  0
 11 12  1  0
 12 13  1  0
 12 14  1  0
 12 15  1  0
 15 16  1  0
 16 17  1  0
 17 18  2  0
 18 19  1  0
 19 20  2  0
 19 21  1  0
 21 22  1  0
 22 23  1  0
 22 24  1  0
 22 25  1  0
 25 26  2  0
 26 27  1  0
 26 28  1  0
 28 29  1  0
 28 30  2  0
 30 31  1  0
 30 32  1  0
 32 33  1  0
 32 34  2  0
 34 35  1  0
 17 36  1  0
 36 37  1  0
 37 38  1  0
 11 39  1  0
 39 40  1  0
 39 41  2  0
 41 42  1  0
 41  6  1  0
 37 15  2  0
 34 25  1  0
M  CHG  3   2  -1  21  -1  36  -1
M  END
>  <UniqueID>  (67) 
63

>  <SMILES>  (67) 
[NH-]S(=O)(=O)c1ccc(Cc2c[n-]/c(=N/C(=O)[N-]Cc3ccccc3)s2)cc1

>  <Energy>  (67) 
73.20449963367554

>  <Genealogy>  (67) 
[NH-]S(=O)(=O)c1ccc(Cc2c[n-]c(=NC(=O)[N-]Cc3ccccc3)s2)cc1 (protonated)
[NH-]S(=O)(=O)c1ccc(Cc2c[n-]/c(=N/C(=O)[N-]Cc3ccccc3)s2)cc1 (cis-trans isomerization)
[NH-]S(=O)(=O)c1ccc(Cc2c[n-]/c(=N/C(=O)[N-]Cc3ccccc3)s2)cc1 (3D coordinates assigned)
[NH-]S(=O)(=O)c1ccc(Cc2c[n-]/c(=N/C(=O)[N-]Cc3ccccc3)s2)cc1 (optimized conformer: 73.20449963367554 kcal/mol)

>  <smiles>  (67) 
NS(=O)(=O)c1ccc(Cc2c[nH]c(=NC(=O)NCc3ccccc3)s2)cc1

>  <score_type>  (67) 
oracle

>  <origin>  (67) 
adg

>  <m_score__min__energy>  (67) 
-12.68

>  <m_primary>  (67) 
energy

$$$$
67:0
     RDKit          3D

 46 49  0  0  0  0  0  0  0  0999 V2000
   55.1380   29.3730   44.8780 N   0  0  0  0  0  0  0  0  0  0  0  0
   56.7020   29.4530   44.1450 S   0  0  0  0  0  0  0  0  0  0  0  0
   56.5640   29.6910   42.6670 O   0  0  0  0  0  0  0  0  0  0  0  0
   57.4100   28.1470   44.3710 O   0  0  0  0  0  0  0  0  0  0  0  0
   57.6320   30.7580   44.8720 C   0  0  0  0  0  0  0  0  0  0  0  0
   57.1480   32.3670   44.8510 S   0  0  0  0  0  0  0  0  0  0  0  0
   58.5070   32.9860   45.6150 C   0  0  0  0  0  0  0  0  0  0  0  0
   59.3680   31.9340   45.9010 C   0  0  0  0  0  0  0  0  0  0  0  0
   60.9220   32.2000   46.7690 S   0  0  0  0  0  0  0  0  0  0  0  0
   60.2130   31.8690   48.3900 C   0  0  0  0  0  0  0  0  0  0  0  0
   60.2560   30.5600   48.8950 C   0  0  0  0  0  0  0  0  0  0  0  0
   59.7080   30.2670   50.1470 C   0  0  0  0  0  0  0  0  0  0  0  0
   59.1250   31.2810   50.9080 C   0  0  0  0  0  0  0  0  0  0  0  0
   59.0960   32.5920   50.4240 C   0  0  0  0  0  0  0  0  0  0  0  0
   59.6430   32.8950   49.1700 C   0  0  0  0  0  0  0  0  0  0  0  0
   59.6170   34.5640   48.6180 Cl  0  0  0  0  0  0  0  0  0  0  0  0
   58.8900   30.6730   45.4760 C   0  0  0  0  0  0  0  0  0  0  0  0
   59.6280   29.4130   45.6810 C   0  0  0  0  0  0  0  0  0  0  0  0
   60.5660   29.1060   44.8970 O   0  0  0  0  0  0  0  0  0  0  0  0
   59.2760   28.5550   46.7770 N   0  0  0  0  0  0  0  0  0  0  0  0
   59.0470   27.2760   46.7270 C   0  0  0  0  0  0  0  0  0  0  0  0
   59.8400   26.4380   46.0250 N   0  0  0  0  0  0  0  0  0  0  0  0
   59.3750   25.1610   46.0490 C   0  0  0  0  0  0  0  0  0  0  0  0
   58.2060   24.9800   46.7820 C   0  0  0  0  0  0  0  0  0  0  0  0
   57.4070   23.7200   46.8600 C   0  0  0  0  0  0  0  0  0  0  0  0
   57.0720   23.2430   45.4740 C   0  0  0  0  0  0  0  0  0  0  0  0
   56.2990   24.0440   44.6170 C   0  0  0  0  0  0  0  0  0  0  0  0
   55.9450   23.5780   43.3460 C   0  0  0  0  0  0  0  0  0  0  0  0
   56.3490   22.3070   42.9280 C   0  0  0  0  0  0  0  0  0  0  0  0
   56.0020   21.8550   41.6990 F   0  0  0  0  0  0  0  0  0  0  0  0
   57.1080   21.4980   43.7810 C   0  0  0  0  0  0  0  0  0  0  0  0
   57.4660   21.9620   45.0510 C   0  0  0  0  0  0  0  0  0  0  0  0
   57.7240   26.4690   47.3990 S   0  0  0  0  0  0  0  0  0  0  0  0
   55.1840   28.6340   45.6150 H   0  0  0  0  0  0  0  0  0  0  0  0
   58.6861   34.0456   45.8498 H   0  0  0  0  0  0  0  0  0  0  0  0
   60.7237   29.7602   48.3020 H   0  0  0  0  0  0  0  0  0  0  0  0
   59.7363   29.2371   50.5324 H   0  0  0  0  0  0  0  0  0  0  0  0
   58.6876   31.0483   51.8901 H   0  0  0  0  0  0  0  0  0  0  0  0
   58.6417   33.3895   51.0303 H   0  0  0  0  0  0  0  0  0  0  0  0
   59.8830   24.3351   45.5296 H   0  0  0  0  0  0  0  0  0  0  0  0
   57.9926   22.9478   47.3804 H   0  0  0  0  0  0  0  0  0  0  0  0
   56.4758   23.9139   47.4124 H   0  0  0  0  0  0  0  0  0  0  0  0
   55.9709   25.0410   44.9463 H   0  0  0  0  0  0  0  0  0  0  0  0
   55.3479   24.2129   42.6749 H   0  0  0  0  0  0  0  0  0  0  0  0
   57.4233   20.4966   43.4526 H   0  0  0  0  0  0  0  0  0  0  0  0
   58.0582   21.3218   45.7213 H   0  0  0  0  0  0  0  0  0  0  0  0
  1  2  1  0
  2  3  2  0
  2  4  2  0
  2  5  1  0
  5  6  1  0
  6  7  1  0
  7  8  2  0
  8  9  1  0
  9 10  1  0
 10 11  2  0
 11 12  1  0
 12 13  2  0
 13 14  1  0
 14 15  2  0
 15 16  1  0
  8 17  1  0
 17 18  1  0
 18 19  2  0
 18 20  1  0
 20 21  2  3
 21 22  1  0
 22 23  1  0
 23 24  2  0
 24 25  1  0
 25 26  1  0
 26 27  2  0
 27 28  1  0
 28 29  2  0
 29 30  1  0
 29 31  1  0
 31 32  2  0
 24 33  1  0
 17  5  2  0
 33 21  1  0
 15 10  1  0
 32 26  1  0
  1 34  1  0
  7 35  1  0
 11 36  1  0
 12 37  1  0
 13 38  1  0
 14 39  1  0
 23 40  1  0
 25 41  1  0
 25 42  1  0
 27 43  1  0
 28 44  1  0
 31 45  1  0
 32 46  1  0
M  CHG  2   1  -1  22  -1
M  END
>  <UniqueID>  (68) 
64

>  <SMILES>  (68) 
[NH-]S(=O)(=O)c1scc(Sc2ccccc2Cl)c1C(=O)N=c1[n-]cc(Cc2ccc(F)cc2)s1

>  <Energy>  (68) 
107.14865046402703

>  <Genealogy>  (68) 
[NH-]S(=O)(=O)c1scc(Sc2ccccc2Cl)c1C(=O)N=c1[n-]cc(Cc2ccc(F)cc2)s1 (protonated)
[NH-]S(=O)(=O)c1scc(Sc2ccccc2Cl)c1C(=O)N=c1[n-]cc(Cc2ccc(F)cc2)s1 (3D coordinates assigned)
[NH-]S(=O)(=O)c1scc(Sc2ccccc2Cl)c1C(=O)N=c1[n-]cc(Cc2ccc(F)cc2)s1 (optimized conformer: 107.14865046402703 kcal/mol)

>  <smiles>  (68) 
NS(=O)(=O)c1scc(Sc2ccccc2Cl)c1C(=O)N=c1[nH]cc(Cc2ccc(F)cc2)s1

>  <score_type>  (68) 
oracle

>  <origin>  (68) 
adg

>  <m_score__min__energy>  (68) 
-13.720000000000001

>  <m_primary>  (68) 
energy

$$$$
68:0
     RDKit          3D

 40 42  0  0  0  0  0  0  0  0999 V2000
   57.7650   28.3730   43.7280 C   0  0  0  0  0  0  0  0  0  0  0  0
   57.0290   29.4500   43.4640 C   0  0  0  0  0  0  0  0  0  0  0  0
   56.1110   30.0450   44.4490 C   0  0  0  0  0  0  0  0  0  0  0  0
   55.1630   29.3460   44.8970 O   0  0  0  0  0  0  0  0  0  0  0  0
   56.2600   31.4140   44.8530 N   0  0  0  0  0  0  0  0  0  0  0  0
   57.4790   32.0620   45.2470 C   0  0  0  0  0  0  0  0  0  0  0  0
   57.8100   33.2840   44.6500 C   0  0  0  0  0  0  0  0  0  0  0  0
   58.9990   33.9360   44.9810 C   0  0  0  0  0  0  0  0  0  0  0  0
   59.8780   33.3700   45.9070 C   0  0  0  0  0  0  0  0  0  0  0  0
   61.0110   34.0000   46.2040 O   0  0  0  0  0  0  0  0  0  0  0  0
   61.8950   33.5170   47.0670 C   0  0  0  0  0  0  0  0  0  0  0  0
   62.9480   34.1640   47.3100 O   0  0  0  0  0  0  0  0  0  0  0  0
   61.6630   32.2980   47.7100 C   0  0  0  0  0  0  0  0  0  0  0  0
   60.4900   31.5850   47.4300 C   0  0  0  0  0  0  0  0  0  0  0  0
   60.2120   30.3580   48.1280 N   0  0  0  0  0  0  0  0  0  0  0  0
   59.8680   29.1250   47.4720 C   0  0  0  0  0  0  0  0  0  0  0  0
   60.5210   28.7700   46.2830 C   0  0  0  0  0  0  0  0  0  0  0  0
   60.2180   27.5660   45.6370 C   0  0  0  0  0  0  0  0  0  0  0  0
   59.2600   26.6910   46.1830 C   0  0  0  0  0  0  0  0  0  0  0  0
   58.9200   25.4740   45.5740 O   0  0  0  0  0  0  0  0  0  0  0  0
   57.6750   25.2170   44.9330 C   0  0  0  0  0  0  0  0  0  0  0  0
   58.6220   27.0370   47.3790 C   0  0  0  0  0  0  0  0  0  0  0  0
   58.9250   28.2390   48.0240 C   0  0  0  0  0  0  0  0  0  0  0  0
   59.5670   32.1300   46.5130 C   0  0  0  0  0  0  0  0  0  0  0  0
   58.3710   31.4730   46.1610 C   0  0  0  0  0  0  0  0  0  0  0  0
   58.4373   27.9643   42.9592 H   0  0  0  0  0  0  0  0  0  0  0  0
   57.7010   27.8916   44.7150 H   0  0  0  0  0  0  0  0  0  0  0  0
   57.1099   29.9141   42.4700 H   0  0  0  0  0  0  0  0  0  0  0  0
   57.1276   33.7342   43.9140 H   0  0  0  0  0  0  0  0  0  0  0  0
   59.2447   34.8995   44.5106 H   0  0  0  0  0  0  0  0  0  0  0  0
   62.3948   31.9020   48.4294 H   0  0  0  0  0  0  0  0  0  0  0  0
   60.3250   30.3510   49.1670 H   0  0  0  0  0  0  0  0  0  0  0  0
   61.2778   29.4435   45.8544 H   0  0  0  0  0  0  0  0  0  0  0  0
   60.7300   27.3027   44.6997 H   0  0  0  0  0  0  0  0  0  0  0  0
   56.8971   25.0564   45.6939 H   0  0  0  0  0  0  0  0  0  0  0  0
   57.4014   26.0776   44.3049 H   0  0  0  0  0  0  0  0  0  0  0  0
   57.7646   24.3184   44.3049 H   0  0  0  0  0  0  0  0  0  0  0  0
   57.8755   26.3571   47.8154 H   0  0  0  0  0  0  0  0  0  0  0  0
   58.4231   28.4939   48.9691 H   0  0  0  0  0  0  0  0  0  0  0  0
   58.1338   30.4942   46.6035 H   0  0  0  0  0  0  0  0  0  0  0  0
  1  2  2  0
  2  3  1  0
  3  4  2  0
  3  5  1  0
  5  6  1  0
  6  7  2  0
  7  8  1  0
  8  9  2  0
  9 10  1  0
 10 11  1  0
 11 12  2  0
 11 13  1  0
 13 14  2  0
 14 15  1  0
 15 16  1  0
 16 17  2  0
 17 18  1  0
 18 19  2  0
 19 20  1  0
 20 21  1  0
 19 22  1  0
 22 23  2  0
 14 24  1  0
 24 25  2  0
 25  6  1  0
 24  9  1  0
 23 16  1  0
  1 26  1  0
  1 27  1  0
  2 28  1  0
  7 29  1  0
  8 30  1  0
 13 31  1  0
 15 32  1  0
 17 33  1  0
 18 34  1  0
 21 35  1  0
 21 36  1  0
 21 37  1  0
 22 38  1  0
 23 39  1  0
 25 40  1  0
M  CHG  1   5  -1
M  END
>  <UniqueID>  (69) 
65

>  <SMILES>  (69) 
C=CC(=O)[N-]c1ccc2oc(=O)cc(Nc3ccc(OC)cc3)c2c1

>  <Energy>  (69) 
54.46819617414231

>  <Genealogy>  (69) 
C=CC(=O)[N-]c1ccc2oc(=O)cc(Nc3ccc(OC)cc3)c2c1 (protonated)
C=CC(=O)[N-]c1ccc2oc(=O)cc(Nc3ccc(OC)cc3)c2c1 (3D coordinates assigned)
C=CC(=O)[N-]c1ccc2oc(=O)cc(Nc3ccc(OC)cc3)c2c1 (optimized conformer: 54.46819617414231 kcal/mol)

>  <smiles>  (69) 
C=CC(=O)Nc1ccc2oc(=O)cc(Nc3ccc(OC)cc3)c2c1

>  <score_type>  (69) 
oracle

>  <origin>  (69) 
adg

>  <m_score__min__energy>  (69) 
-8.9900000000000002

>  <m_primary>  (69) 
energy

$$$$
69:0
     RDKit          3D

 56 59  0  0  1  0  0  0  0  0999 V2000
   63.4980   33.9350   50.8330 C   0  0  0  0  0  0  0  0  0  0  0  0
   63.4240   33.3440   49.5050 N   0  0  0  0  0  0  0  0  0  0  0  0
   64.4370   32.4070   49.0570 C   0  0  0  0  0  0  0  0  0  0  0  0
   62.3350   33.7130   48.6680 C   0  0  0  0  0  0  0  0  0  0  0  0
   61.2050   34.2300   49.2510 C   0  0  0  0  0  0  0  0  0  0  0  0
   60.1430   34.5920   48.4590 C   0  0  0  0  0  0  0  0  0  0  0  0
   60.1490   34.4620   47.0750 C   0  0  0  0  0  0  0  0  0  0  0  0
   58.9710   34.8670   46.2410 C   0  0  0  0  0  0  0  0  0  0  0  0
   57.9020   33.9240   46.3220 N   0  0  0  0  0  0  0  0  0  0  0  0
   57.9350   32.6940   46.0190 C   0  0  0  0  0  0  0  0  0  0  0  0
   58.5020   31.7410   46.7770 N   0  0  0  0  0  0  0  0  0  0  0  0
   58.5370   30.4390   46.4540 C   0  0  0  0  0  0  0  0  0  0  0  0
   59.0460   29.6240   47.2300 N   0  0  0  0  0  0  0  0  0  0  0  0
   59.1260   29.5440   48.6120 C   0  0  0  0  0  0  0  0  0  0  0  0
   59.4810   30.7660   49.3830 C   0  0  0  0  0  0  0  0  0  0  0  0
   60.5080   31.3860   49.0140 O   0  0  0  0  0  0  0  0  0  0  0  0
   58.7060   31.2550   50.5100 C   0  0  0  0  0  0  0  0  0  0  0  0
   58.9010   32.5530   50.9070 C   0  0  0  0  0  0  0  0  0  0  0  0
   58.1960   33.0920   51.9780 C   0  0  0  0  0  0  0  0  0  0  0  0
   57.2790   32.3030   52.6590 C   0  0  0  0  0  0  0  0  0  0  0  0
   57.0640   30.9830   52.2750 C   0  0  0  0  0  0  0  0  0  0  0  0
   57.7920   30.4930   51.2010 C   0  0  0  0  0  0  0  0  0  0  0  0
   57.9690   30.0160   45.2790 C   0  0  0  0  0  0  0  0  0  0  0  0
   58.0070   28.7050   44.9370 C   0  0  0  0  0  0  0  0  0  0  0  0
   57.4000   28.3600   43.7100 C   0  0  0  0  0  0  0  0  0  0  0  0
   56.8310   29.3480   42.9670 C   0  0  0  0  0  0  0  0  0  0  0  0
   56.8040   30.6680   43.3260 C   0  0  0  0  0  0  0  0  0  0  0  0
   57.3890   31.0120   44.5100 C   0  0  0  0  0  0  0  0  0  0  0  0
   57.3710   32.3050   44.8650 N   0  0  0  0  0  0  0  0  0  0  0  0
   61.3000   33.9390   46.5230 C   0  0  0  0  0  0  0  0  0  0  0  0
   62.3900   33.5650   47.3060 C   0  0  0  0  0  0  0  0  0  0  0  0
   63.3991   33.1449   51.5920 H   0  0  0  0  0  0  0  0  0  0  0  0
   64.4666   34.4418   50.9554 H   0  0  0  0  0  0  0  0  0  0  0  0
   62.6842   34.6650   50.9554 H   0  0  0  0  0  0  0  0  0  0  0  0
   64.9281   31.9527   49.9302 H   0  0  0  0  0  0  0  0  0  0  0  0
   63.9656   31.6196   48.4506 H   0  0  0  0  0  0  0  0  0  0  0  0
   65.1853   32.9383   48.4506 H   0  0  0  0  0  0  0  0  0  0  0  0
   61.1505   34.3533   50.3427 H   0  0  0  0  0  0  0  0  0  0  0  0
   59.2452   35.0043   48.9427 H   0  0  0  0  0  0  0  0  0  0  0  0
   58.6082   35.8445   46.5917 H   0  0  0  0  0  0  0  0  0  0  0  0
   59.3003   34.9143   45.1925 H   0  0  0  0  0  0  0  0  0  0  0  0
   58.9370   32.0720   47.6740 H   0  0  0  0  0  0  0  0  0  0  0  0
   58.1428   29.2083   48.9735 H   0  0  0  0  0  0  0  0  0  0  0  0
   59.9716   28.8633   48.7897 H   0  0  0  0  0  0  0  0  0  0  0  0
   59.6279   33.1791   50.3689 H   0  0  0  0  0  0  0  0  0  0  0  0
   58.3638   34.1355   52.2831 H   0  0  0  0  0  0  0  0  0  0  0  0
   56.7191   32.7238   53.5072 H   0  0  0  0  0  0  0  0  0  0  0  0
   56.3396   30.3482   52.8064 H   0  0  0  0  0  0  0  0  0  0  0  0
   57.6319   29.4506   50.8882 H   0  0  0  0  0  0  0  0  0  0  0  0
   58.4846   27.9512   45.5802 H   0  0  0  0  0  0  0  0  0  0  0  0
   57.3873   27.3164   43.3625 H   0  0  0  0  0  0  0  0  0  0  0  0
   56.3610   29.0663   42.0132 H   0  0  0  0  0  0  0  0  0  0  0  0
   56.3283   31.4240   42.6840 H   0  0  0  0  0  0  0  0  0  0  0  0
   56.9260   32.9950   44.2560 H   0  0  0  0  0  0  0  0  0  0  0  0
   61.3590   33.8135   45.4318 H   0  0  0  0  0  0  0  0  0  0  0  0
   63.2928   33.1518   46.8325 H   0  0  0  0  0  0  0  0  0  0  0  0
  1  2  1  0
  2  3  1  0
  2  4  1  0
  4  5  2  0
  5  6  1  0
  6  7  2  0
  7  8  1  0
  8  9  1  0
  9 10  2  0
 10 11  1  0
 11 12  1  0
 12 13  2  0
 13 14  1  0
 14 15  1  0
 15 16  2  0
 15 17  1  0
 17 18  2  0
 18 19  1  0
 19 20  2  0
 20 21  1  0
 21 22  2  0
 12 23  1  0
 23 24  2  0
 24 25  1  0
 25 26  2  0
 26 27  1  0
 27 28  2  0
 28 29  1  0
  7 30  1  0
 30 31  2  0
 31  4  1  0
 29 10  1  0
 22 17  1  0
 28 23  1  0
  1 32  1  0
  1 33  1  0
  1 34  1  0
  3 35  1  0
  3 36  1  0
  3 37  1  0
  5 38  1  0
  6 39  1  0
  8 40  1  0
  8 41  1  0
 11 42  1  0
 14 43  1  0
 14 44  1  0
 18 45  1  0
 19 46  1  0
 20 47  1  0
 21 48  1  0
 22 49  1  0
 24 50  1  0
 25 51  1  0
 26 52  1  0
 27 53  1  0
 29 54  1  0
 30 55  1  0
 31 56  1  0
M  END
>  <smiles>  (70) 
CN(C)c1ccc(CN=c2[nH]c(=NCC(=O)c3ccccc3)c3ccccc3[nH]2)cc1

>  <score_type>  (70) 
oracle

>  <origin>  (70) 
adg

>  <m_score__min__energy>  (70) 
-9.2699999999999996

>  <m_primary>  (70) 
energy

$$$$
70:0
     RDKit          3D

 31 32  0  0  0  0  0  0  0  0999 V2000
   54.7960   29.7700   43.9140 N   0  0  0  0  0  0  0  0  0  0  0  0
   56.4690   30.1990   43.9730 S   0  0  0  0  0  0  0  0  0  0  0  0
   56.6410   31.4160   44.8390 O   0  0  0  0  0  0  0  0  0  0  0  0
   56.9560   30.5200   42.5880 O   0  0  0  0  0  0  0  0  0  0  0  0
   57.3980   28.8580   44.6360 C   0  0  0  0  0  0  0  0  0  0  0  0
   57.7770   27.7910   43.8130 C   0  0  0  0  0  0  0  0  0  0  0  0
   58.5060   26.7200   44.3390 C   0  0  0  0  0  0  0  0  0  0  0  0
   58.8550   26.7010   45.6980 C   0  0  0  0  0  0  0  0  0  0  0  0
   59.6600   25.5570   46.2520 C   0  0  0  0  0  0  0  0  0  0  0  0
   58.8040   24.3970   46.4740 N   0  0  0  0  0  0  0  0  0  0  0  0
   57.6370   24.4180   47.3050 C   0  0  0  0  0  0  0  0  0  0  0  0
   57.7590   24.3580   48.5590 O   0  0  0  0  0  0  0  0  0  0  0  0
   56.2900   24.5130   46.6960 C   0  0  0  0  0  0  0  0  0  0  0  0
   55.4930   23.3670   46.5290 C   0  0  0  0  0  0  0  0  0  0  0  0
   54.2270   23.4690   45.9510 C   0  0  0  0  0  0  0  0  0  0  0  0
   53.7610   24.7200   45.5420 C   0  0  0  0  0  0  0  0  0  0  0  0
   52.6210   24.8320   45.0190 O   0  0  0  0  0  0  0  0  0  0  0  0
   54.5390   25.8220   45.7070 N   0  0  0  0  0  0  0  0  0  0  0  0
   55.7760   25.7490   46.2670 C   0  0  0  0  0  0  0  0  0  0  0  0
   58.4700   27.7710   46.5230 C   0  0  0  0  0  0  0  0  0  0  0  0
   57.7420   28.8400   45.9950 C   0  0  0  0  0  0  0  0  0  0  0  0
   54.5590   29.3430   44.8370 H   0  0  0  0  0  0  0  0  0  0  0  0
   57.5003   27.7951   42.7484 H   0  0  0  0  0  0  0  0  0  0  0  0
   58.8072   25.8887   43.6846 H   0  0  0  0  0  0  0  0  0  0  0  0
   60.4529   25.2915   45.5373 H   0  0  0  0  0  0  0  0  0  0  0  0
   60.1041   25.8629   47.2107 H   0  0  0  0  0  0  0  0  0  0  0  0
   55.8688   22.3860   46.8553 H   0  0  0  0  0  0  0  0  0  0  0  0
   53.6026   22.5731   45.8190 H   0  0  0  0  0  0  0  0  0  0  0  0
   56.3778   26.6622   46.3849 H   0  0  0  0  0  0  0  0  0  0  0  0
   58.7428   27.7670   47.5886 H   0  0  0  0  0  0  0  0  0  0  0  0
   57.4374   29.6710   46.6482 H   0  0  0  0  0  0  0  0  0  0  0  0
  1  2  1  0
  2  3  2  0
  2  4  2  0
  2  5  1  0
  5  6  2  0
  6  7  1  0
  7  8  2  0
  8  9  1  0
  9 10  1  0
 10 11  1  0
 11 12  2  0
 11 13  1  0
 13 14  1  0
 14 15  2  0
 15 16  1  0
 16 17  2  0
 16 18  1  0
 18 19  1  0
  8 20  1  0
 20 21  2  0
 21  5  1  0
 19 13  2  0
  1 22  1  0
  6 23  1  0
  7 24  1  0
  9 25  1  0
  9 26  1  0
 14 27  1  0
 15 28  1  0
 19 29  1  0
 20 30  1  0
 21 31  1  0
M  CHG  3   1  -1  10  -1  18  -1
M  END
>  <UniqueID>  (71) 
66

>  <SMILES>  (71) 
[NH-]S(=O)(=O)c1ccc(C[N-]C(=O)c2ccc(=O)[n-]c2)cc1

>  <Energy>  (71) 
30.731205932577062

>  <Genealogy>  (71) 
[NH-]S(=O)(=O)c1ccc(C[N-]C(=O)c2ccc(=O)[n-]c2)cc1 (protonated)
[NH-]S(=O)(=O)c1ccc(C[N-]C(=O)c2ccc(=O)[n-]c2)cc1 (3D coordinates assigned)
[NH-]S(=O)(=O)c1ccc(C[N-]C(=O)c2ccc(=O)[n-]c2)cc1 (optimized conformer: 30.731205932577062 kcal/mol)

>  <smiles>  (71) 
NS(=O)(=O)c1ccc(CNC(=O)c2ccc(=O)[nH]c2)cc1

>  <score_type>  (71) 
oracle

>  <origin>  (71) 
adg

>  <m_score__min__energy>  (71) 
-12.68

>  <m_primary>  (71) 
energy

$$$$
71:0
     RDKit          3D

 53 57  0  0  0  0  0  0  0  0999 V2000
   57.1130   29.0390   43.9010 C   0  0  0  0  0  0  0  0  0  0  0  0
   57.8560   28.7430   45.1720 C   0  0  0  0  0  0  0  0  0  0  0  0
   58.5530   27.5330   45.3100 C   0  0  0  0  0  0  0  0  0  0  0  0
   59.2820   27.2630   46.4780 C   0  0  0  0  0  0  0  0  0  0  0  0
   60.0530   25.9800   46.6080 C   0  0  0  0  0  0  0  0  0  0  0  0
   59.3430   28.2280   47.4970 C   0  0  0  0  0  0  0  0  0  0  0  0
   58.6440   29.4410   47.3740 C   0  0  0  0  0  0  0  0  0  0  0  0
   58.7210   30.4470   48.4590 C   0  0  0  0  0  0  0  0  0  0  0  0
   58.1940   30.1420   49.6660 N   0  0  0  0  0  0  0  0  0  0  0  0
   58.2110   31.0120   50.7030 C   0  0  0  0  0  0  0  0  0  0  0  0
   57.6370   30.6240   51.9210 C   0  0  0  0  0  0  0  0  0  0  0  0
   57.0760   29.3490   52.0270 O   0  0  0  0  0  0  0  0  0  0  0  0
   57.6330   31.5160   53.0050 C   0  0  0  0  0  0  0  0  0  0  0  0
   57.0620   31.1600   54.2640 N   0  0  0  0  0  0  0  0  0  0  0  0
   56.0630   30.4860   55.1450 C   0  0  0  0  0  0  0  0  0  0  0  0
   57.0550   31.2200   55.7550 C   0  0  0  0  0  0  0  0  0  0  0  0
   58.1890   32.7840   52.8550 C   0  0  0  0  0  0  0  0  0  0  0  0
   58.7580   33.1850   51.6460 C   0  0  0  0  0  0  0  0  0  0  0  0
   59.2290   34.4540   51.5960 F   0  0  0  0  0  0  0  0  0  0  0  0
   58.8000   32.2940   50.5360 C   0  0  0  0  0  0  0  0  0  0  0  0
   59.3610   32.6190   49.3080 N   0  0  0  0  0  0  0  0  0  0  0  0
   60.0170   33.9240   49.0550 C   0  0  0  0  0  0  0  0  0  0  0  0
   61.4570   33.7770   48.6100 C   0  0  0  0  0  0  0  0  0  0  0  0
   61.8390   33.8680   47.2560 C   0  0  0  0  0  0  0  0  0  0  0  0
   63.1770   33.7090   46.8860 C   0  0  0  0  0  0  0  0  0  0  0  0
   64.1470   33.4450   47.8600 C   0  0  0  0  0  0  0  0  0  0  0  0
   63.7730   33.3150   49.2000 C   0  0  0  0  0  0  0  0  0  0  0  0
   62.4360   33.4710   49.5750 C   0  0  0  0  0  0  0  0  0  0  0  0
   59.2920   31.7160   48.2670 C   0  0  0  0  0  0  0  0  0  0  0  0
   59.7120   32.0310   47.1170 O   0  0  0  0  0  0  0  0  0  0  0  0
   57.9140   29.6990   46.1990 C   0  0  0  0  0  0  0  0  0  0  0  0
   56.1161   29.4361   44.1430 H   0  0  0  0  0  0  0  0  0  0  0  0
   57.6717   29.7832   43.3145 H   0  0  0  0  0  0  0  0  0  0  0  0
   57.0069   28.1145   43.3145 H   0  0  0  0  0  0  0  0  0  0  0  0
   58.5277   26.7917   44.4977 H   0  0  0  0  0  0  0  0  0  0  0  0
   60.1949   25.7438   47.6729 H   0  0  0  0  0  0  0  0  0  0  0  0
   59.4944   25.1658   46.1231 H   0  0  0  0  0  0  0  0  0  0  0  0
   61.0341   26.0911   46.1231 H   0  0  0  0  0  0  0  0  0  0  0  0
   59.9426   28.0327   48.3983 H   0  0  0  0  0  0  0  0  0  0  0  0
   57.0400   28.6980   51.2520 H   0  0  0  0  0  0  0  0  0  0  0  0
   55.0256   30.8510   55.1678 H   0  0  0  0  0  0  0  0  0  0  0  0
   55.7110   29.4486   55.2446 H   0  0  0  0  0  0  0  0  0  0  0  0
   56.7999   32.1638   56.2590 H   0  0  0  0  0  0  0  0  0  0  0  0
   57.8021   30.9957   56.5306 H   0  0  0  0  0  0  0  0  0  0  0  0
   58.1793   33.4820   53.7051 H   0  0  0  0  0  0  0  0  0  0  0  0
   59.4578   34.4526   48.2689 H   0  0  0  0  0  0  0  0  0  0  0  0
   60.0170   34.4851   50.0011 H   0  0  0  0  0  0  0  0  0  0  0  0
   61.0788   34.0654   46.4858 H   0  0  0  0  0  0  0  0  0  0  0  0
   63.4683   33.7914   45.8285 H   0  0  0  0  0  0  0  0  0  0  0  0
   65.2031   33.3399   47.5707 H   0  0  0  0  0  0  0  0  0  0  0  0
   64.5334   33.0891   49.9621 H   0  0  0  0  0  0  0  0  0  0  0  0
   62.1466   33.3541   50.6298 H   0  0  0  0  0  0  0  0  0  0  0  0
   57.3849   30.6565   46.0841 H   0  0  0  0  0  0  0  0  0  0  0  0
  1  2  1  0
  2  3  2  0
  3  4  1  0
  4  5  1  0
  4  6  2  0
  6  7  1  0
  7  8  1  0
  8  9  2  0
  9 10  1  0
 10 11  2  0
 11 12  1  0
 11 13  1  0
 13 14  1  0
 14 15  1  0
 15 16  1  0
 13 17  2  0
 17 18  1  0
 18 19  1  0
 18 20  2  0
 20 21  1  0
 21 22  1  0
 22 23  1  0
 23 24  2  0
 24 25  1  0
 25 26  2  0
 26 27  1  0
 27 28  2  0
 21 29  1  0
 29 30  2  0
  7 31  2  0
 31  2  1  0
 29  8  1  0
 20 10  1  0
 28 23  1  0
 16 14  1  0
  1 32  1  0
  1 33  1  0
  1 34  1  0
  3 35  1  0
  5 36  1  0
  5 37  1  0
  5 38  1  0
  6 39  1  0
 12 40  1  0
 15 41  1  0
 15 42  1  0
 16 43  1  0
 16 44  1  0
 17 45  1  0
 22 46  1  0
 22 47  1  0
 24 48  1  0
 25 49  1  0
 26 50  1  0
 27 51  1  0
 28 52  1  0
 31 53  1  0
M  END
>  <UniqueID>  (72) 
67

>  <SMILES>  (72) 
Cc1cc(C)cc(-c2nc3c(O)c(N4CC4)cc(F)c3n(Cc3ccccc3)c2=O)c1

>  <Energy>  (72) 
310.14499045440755

>  <Genealogy>  (72) 
Cc1cc(C)cc(-c2nc3c(O)c(N4CC4)cc(F)c3n(Cc3ccccc3)c2=O)c1 (3D coordinates assigned)
Cc1cc(C)cc(-c2nc3c(O)c(N4CC4)cc(F)c3n(Cc3ccccc3)c2=O)c1 (nonaromatic ring conformer: 310.14499045440755 kcal/mol)

>  <smiles>  (72) 
Cc1cc(C)cc(-c2nc3c(O)c(N4CC4)cc(F)c3n(Cc3ccccc3)c2=O)c1

>  <score_type>  (72) 
oracle

>  <origin>  (72) 
adg

>  <m_score__min__energy>  (72) 
-7.4900000000000002

>  <m_primary>  (72) 
energy

$$$$
72:0
     RDKit          3D

 54 56  0  0  0  0  0  0  0  0999 V2000
   58.1410   34.5870   45.0060 C   0  0  0  0  0  0  0  0  0  0  0  0
   58.3660   33.9570   46.6530 S   0  0  0  0  0  0  0  0  0  0  0  0
   58.9350   35.0300   47.5390 O   0  0  0  0  0  0  0  0  0  0  0  0
   57.0350   33.5290   47.2030 O   0  0  0  0  0  0  0  0  0  0  0  0
   59.4460   32.6020   46.6130 N   0  0  0  0  0  0  0  0  0  0  0  0
   58.9550   31.3180   46.2270 C   0  0  0  0  0  0  0  0  0  0  0  0
   58.5480   31.1020   44.9070 C   0  0  0  0  0  0  0  0  0  0  0  0
   58.0450   29.8590   44.5180 C   0  0  0  0  0  0  0  0  0  0  0  0
   57.9330   28.8170   45.4540 C   0  0  0  0  0  0  0  0  0  0  0  0
   57.4370   27.5210   45.0750 N   0  0  0  0  0  0  0  0  0  0  0  0
   57.6610   26.3240   45.8380 C   0  0  0  0  0  0  0  0  0  0  0  0
   58.5940   26.2840   46.6860 O   0  0  0  0  0  0  0  0  0  0  0  0
   56.8410   25.1120   45.5960 C   0  0  0  0  0  0  0  0  0  0  0  0
   55.4330   25.1830   45.6400 C   0  0  0  0  0  0  0  0  0  0  0  0
   54.8030   26.3510   45.9260 F   0  0  0  0  0  0  0  0  0  0  0  0
   54.6620   24.0390   45.4130 C   0  0  0  0  0  0  0  0  0  0  0  0
   55.2790   22.8180   45.1360 C   0  0  0  0  0  0  0  0  0  0  0  0
   56.6710   22.7380   45.0800 C   0  0  0  0  0  0  0  0  0  0  0  0
   57.4530   23.8740   45.3060 C   0  0  0  0  0  0  0  0  0  0  0  0
   58.8020   23.7690   45.1970 F   0  0  0  0  0  0  0  0  0  0  0  0
   58.3640   29.0300   46.7720 C   0  0  0  0  0  0  0  0  0  0  0  0
   58.8670   30.2830   47.1710 C   0  0  0  0  0  0  0  0  0  0  0  0
   59.2860   30.5410   48.4870 O   0  0  0  0  0  0  0  0  0  0  0  0
   58.5400   30.2410   49.6670 C   0  0  0  0  0  0  0  0  0  0  0  0
   58.5950   31.3940   50.6420 C   0  0  0  0  0  0  0  0  0  0  0  0
   59.4680   32.4630   50.3740 C   0  0  0  0  0  0  0  0  0  0  0  0
   59.5540   33.5490   51.2470 C   0  0  0  0  0  0  0  0  0  0  0  0
   58.7810   33.5750   52.4090 C   0  0  0  0  0  0  0  0  0  0  0  0
   58.8900   34.9390   53.5060 Cl  0  0  0  0  0  0  0  0  0  0  0  0
   57.9250   32.5090   52.7030 C   0  0  0  0  0  0  0  0  0  0  0  0
   57.8320   31.4150   51.8330 C   0  0  0  0  0  0  0  0  0  0  0  0
   56.7540   30.0960   52.2840 Cl  0  0  0  0  0  0  0  0  0  0  0  0
   61.1110   32.7900   47.0560 S   0  0  0  0  0  0  0  0  0  0  0  0
   61.8830   31.1920   47.1740 C   0  0  0  0  0  0  0  0  0  0  0  0
   61.8180   33.6170   46.0190 O   0  0  0  0  0  0  0  0  0  0  0  0
   61.2100   33.4900   48.3830 O   0  0  0  0  0  0  0  0  0  0  0  0
   57.7714   35.6218   45.0566 H   0  0  0  0  0  0  0  0  0  0  0  0
   59.1020   34.5666   44.4711 H   0  0  0  0  0  0  0  0  0  0  0  0
   57.4104   33.9624   44.4711 H   0  0  0  0  0  0  0  0  0  0  0  0
   58.6245   31.9158   44.1709 H   0  0  0  0  0  0  0  0  0  0  0  0
   57.7354   29.6949   43.4753 H   0  0  0  0  0  0  0  0  0  0  0  0
   56.9890   27.4220   44.1360 H   0  0  0  0  0  0  0  0  0  0  0  0
   53.5645   24.1014   45.4529 H   0  0  0  0  0  0  0  0  0  0  0  0
   54.6685   21.9197   44.9620 H   0  0  0  0  0  0  0  0  0  0  0  0
   57.1553   21.7759   44.8568 H   0  0  0  0  0  0  0  0  0  0  0  0
   58.3083   28.2089   47.5018 H   0  0  0  0  0  0  0  0  0  0  0  0
   57.4920   30.0499   49.3927 H   0  0  0  0  0  0  0  0  0  0  0  0
   58.9777   29.3525   50.1454 H   0  0  0  0  0  0  0  0  0  0  0  0
   60.0898   32.4435   49.4668 H   0  0  0  0  0  0  0  0  0  0  0  0
   60.2316   34.3850   51.0190 H   0  0  0  0  0  0  0  0  0  0  0  0
   57.3214   32.5296   53.6224 H   0  0  0  0  0  0  0  0  0  0  0  0
   62.0122   30.9245   48.2331 H   0  0  0  0  0  0  0  0  0  0  0  0
   61.2484   30.4409   46.6809 H   0  0  0  0  0  0  0  0  0  0  0  0
   62.8658   31.2223   46.6809 H   0  0  0  0  0  0  0  0  0  0  0  0
  1  2  1  0
  2  3  2  0
  2  4  2  0
  2  5  1  0
  5  6  1  0
  6  7  2  0
  7  8  1  0
  8  9  2  0
  9 10  1  0
 10 11  1  0
 11 12  2  0
 11 13  1  0
 13 14  2  0
 14 15  1  0
 14 16  1  0
 16 17  2  0
 17 18  1  0
 18 19  2  0
 19 20  1  0
  9 21  1  0
 21 22  2  0
 22 23  1  0
 23 24  1  0
 24 25  1  0
 25 26  2  0
 26 27  1  0
 27 28  2  0
 28 29  1  0
 28 30  1  0
 30 31  2  0
 31 32  1  0
  5 33  1  0
 33 34  1  0
 33 35  2  0
 33 36  2  0
 22  6  1  0
 31 25  1  0
 19 13  1  0
  1 37  1  0
  1 38  1  0
  1 39  1  0
  7 40  1  0
  8 41  1  0
 10 42  1  0
 16 43  1  0
 17 44  1  0
 18 45  1  0
 21 46  1  0
 24 47  1  0
 24 48  1  0
 26 49  1  0
 27 50  1  0
 30 51  1  0
 34 52  1  0
 34 53  1  0
 34 54  1  0
M  END
>  <UniqueID>  (73) 
68

>  <SMILES>  (73) 
CS(=O)(=O)N(c1ccc(NC(=O)c2c(F)cccc2F)cc1OCc1ccc(Cl)cc1Cl)S(C)(=O)=O

>  <Energy>  (73) 
63.95939735040695

>  <Genealogy>  (73) 
CS(=O)(=O)N(c1ccc(NC(=O)c2c(F)cccc2F)cc1OCc1ccc(Cl)cc1Cl)S(C)(=O)=O (3D coordinates assigned)
CS(=O)(=O)N(c1ccc(NC(=O)c2c(F)cccc2F)cc1OCc1ccc(Cl)cc1Cl)S(C)(=O)=O (optimized conformer: 63.95939735040695 kcal/mol)

>  <smiles>  (73) 
CS(=O)(=O)N(c1ccc(NC(=O)c2c(F)cccc2F)cc1OCc1ccc(Cl)cc1Cl)S(C)(=O)=O

>  <score_type>  (73) 
oracle

>  <origin>  (73) 
adg

>  <m_score__min__energy>  (73) 
-8.7599999999999998

>  <m_primary>  (73) 
energy

$$$$
73:0
     RDKit          3D

 58 60  0  0  0  0  0  0  0  0999 V2000
   58.5230   29.7820   44.6170 C   0  0  0  0  0  0  0  0  0  0  0  0
   57.0810   30.7790   44.3110 S   0  0  0  0  0  0  0  0  0  0  0  0
   55.8530   29.9410   44.5260 O   0  0  0  0  0  0  0  0  0  0  0  0
   57.0950   31.2590   42.8860 O   0  0  0  0  0  0  0  0  0  0  0  0
   57.0410   32.1280   45.4080 N   0  0  0  0  0  0  0  0  0  0  0  0
   58.1990   32.9980   45.1920 C   0  0  0  0  0  0  0  0  0  0  0  0
   58.2140   34.1530   46.1980 C   0  0  0  0  0  0  0  0  0  0  0  0
   59.2650   34.0040   47.1550 O   0  0  0  0  0  0  0  0  0  0  0  0
   59.7700   32.7940   47.6670 C   0  0  0  0  0  0  0  0  0  0  0  0
   59.0120   31.9420   48.4950 C   0  0  0  0  0  0  0  0  0  0  0  0
   59.5470   30.7270   48.9500 C   0  0  0  0  0  0  0  0  0  0  0  0
   58.7120   29.7910   49.7890 C   0  0  0  0  0  0  0  0  0  0  0  0
   58.3710   30.4020   51.0770 N   0  0  0  0  0  0  0  0  0  0  0  0
   57.2000   30.4310   51.6510 C   0  0  0  0  0  0  0  0  0  0  0  0
   56.5000   31.6310   51.8840 C   0  0  0  0  0  0  0  0  0  0  0  0
   55.2350   31.5860   52.4710 C   0  0  0  0  0  0  0  0  0  0  0  0
   54.6810   30.3590   52.8500 C   0  0  0  0  0  0  0  0  0  0  0  0
   53.3390   30.3050   53.4640 C   0  0  0  0  0  0  0  0  0  0  0  0
   53.2390   29.9380   54.8160 C   0  0  0  0  0  0  0  0  0  0  0  0
   51.9960   29.8950   55.4500 C   0  0  0  0  0  0  0  0  0  0  0  0
   50.8400   30.2160   54.7400 C   0  0  0  0  0  0  0  0  0  0  0  0
   50.9210   30.5670   53.3910 C   0  0  0  0  0  0  0  0  0  0  0  0
   52.1620   30.6040   52.7350 C   0  0  0  0  0  0  0  0  0  0  0  0
   52.1960   30.9930   51.0070 S   0  0  0  0  0  0  0  0  0  0  0  0
   51.3950   32.5000   50.7290 N   0  0  0  0  0  0  0  0  0  0  0  0
   51.4950   29.9160   50.2260 O   0  0  0  0  0  0  0  0  0  0  0  0
   53.6150   31.0800   50.5220 O   0  0  0  0  0  0  0  0  0  0  0  0
   55.4060   29.1870   52.6070 C   0  0  0  0  0  0  0  0  0  0  0  0
   56.6320   29.2510   52.0210 N   0  0  0  0  0  0  0  0  0  0  0  0
   60.8690   30.3940   48.6270 C   0  0  0  0  0  0  0  0  0  0  0  0
   61.6330   31.2400   47.8220 C   0  0  0  0  0  0  0  0  0  0  0  0
   61.0870   32.4410   47.3310 C   0  0  0  0  0  0  0  0  0  0  0  0
   61.8180   33.3110   46.5050 O   0  0  0  0  0  0  0  0  0  0  0  0
   63.1190   33.8110   46.7990 C   0  0  0  0  0  0  0  0  0  0  0  0
   63.7490   34.2110   45.6350 F   0  0  0  0  0  0  0  0  0  0  0  0
   58.6734   29.6780   45.7017 H   0  0  0  0  0  0  0  0  0  0  0  0
   58.3827   28.7871   44.1692 H   0  0  0  0  0  0  0  0  0  0  0  0
   59.4042   30.2646   44.1692 H   0  0  0  0  0  0  0  0  0  0  0  0
   57.1220   31.7210   46.3680 H   0  0  0  0  0  0  0  0  0  0  0  0
   59.1195   32.4072   45.3091 H   0  0  0  0  0  0  0  0  0  0  0  0
   58.1368   33.4182   44.1773 H   0  0  0  0  0  0  0  0  0  0  0  0
   58.3579   35.0982   45.6541 H   0  0  0  0  0  0  0  0  0  0  0  0
   57.2552   34.1519   46.7372 H   0  0  0  0  0  0  0  0  0  0  0  0
   57.9919   32.2319   48.7872 H   0  0  0  0  0  0  0  0  0  0  0  0
   57.7848   29.5528   49.2473 H   0  0  0  0  0  0  0  0  0  0  0  0
   59.2938   28.8768   49.9781 H   0  0  0  0  0  0  0  0  0  0  0  0
   56.9474   32.5965   51.6052 H   0  0  0  0  0  0  0  0  0  0  0  0
   54.6726   32.5169   52.6359 H   0  0  0  0  0  0  0  0  0  0  0  0
   54.1480   29.6822   55.3802 H   0  0  0  0  0  0  0  0  0  0  0  0
   51.9287   29.6079   56.5097 H   0  0  0  0  0  0  0  0  0  0  0  0
   49.8623   30.1927   55.2435 H   0  0  0  0  0  0  0  0  0  0  0  0
   50.0041   30.8169   52.8370 H   0  0  0  0  0  0  0  0  0  0  0  0
   50.3720   32.3280   50.8570 H   0  0  0  0  0  0  0  0  0  0  0  0
   54.9836   28.2117   52.8905 H   0  0  0  0  0  0  0  0  0  0  0  0
   61.3071   29.4606   49.0100 H   0  0  0  0  0  0  0  0  0  0  0  0
   62.6682   30.9667   47.5696 H   0  0  0  0  0  0  0  0  0  0  0  0
   63.0330   34.6706   47.4799 H   0  0  0  0  0  0  0  0  0  0  0  0
   63.7116   33.0151   47.2737 H   0  0  0  0  0  0  0  0  0  0  0  0
  1  2  1  0
  2  3  2  0
  2  4  2  0
  2  5  1  0
  5  6  1  0
  6  7  1  0
  7  8  1  0
  8  9  1  0
  9 10  2  0
 10 11  1  0
 11 12  1  0
 12 13  1  0
 13 14  2  3
 14 15  1  0
 15 16  2  0
 16 17  1  0
 17 18  1  0
 18 19  2  0
 19 20  1  0
 20 21  2  0
 21 22  1  0
 22 23  2  0
 23 24  1  0
 24 25  1  0
 24 26  2  0
 24 27  2  0
 17 28  2  0
 28 29  1  0
 11 30  2  0
 30 31  1  0
 31 32  2  0
 32 33  1  0
 33 34  1  0
 34 35  1  0
 32  9  1  0
 29 14  1  0
 23 18  1  0
  1 36  1  0
  1 37  1  0
  1 38  1  0
  5 39  1  0
  6 40  1  0
  6 41  1  0
  7 42  1  0
  7 43  1  0
 10 44  1  0
 12 45  1  0
 12 46  1  0
 15 47  1  0
 16 48  1  0
 19 49  1  0
 20 50  1  0
 21 51  1  0
 22 52  1  0
 25 53  1  0
 28 54  1  0
 30 55  1  0
 31 56  1  0
 34 57  1  0
 34 58  1  0
M  CHG  2  25  -1  29  -1
M  END
>  <UniqueID>  (74) 
69

>  <SMILES>  (74) 
CS(=O)(=O)NCCOc1cc(CN=c2ccc(-c3ccccc3S([NH-])(=O)=O)c[n-]2)ccc1OCF

>  <Energy>  (74) 
61.76878924002709

>  <Genealogy>  (74) 
CS(=O)(=O)NCCOc1cc(CN=c2ccc(-c3ccccc3S([NH-])(=O)=O)c[n-]2)ccc1OCF (protonated)
CS(=O)(=O)NCCOc1cc(CN=c2ccc(-c3ccccc3S([NH-])(=O)=O)c[n-]2)ccc1OCF (3D coordinates assigned)
CS(=O)(=O)NCCOc1cc(CN=c2ccc(-c3ccccc3S([NH-])(=O)=O)c[n-]2)ccc1OCF (optimized conformer: 61.76878924002709 kcal/mol)

>  <smiles>  (74) 
CS(=O)(=O)NCCOc1cc(CN=c2ccc(-c3ccccc3S(N)(=O)=O)c[nH]2)ccc1OCF

>  <score_type>  (74) 
oracle

>  <origin>  (74) 
adg

>  <m_score__min__energy>  (74) 
-12.529999999999999

>  <m_primary>  (74) 
energy

$$$$
74:0
     RDKit          3D

 47 49  0  0  0  0  0  0  0  0999 V2000
   57.5520   22.2550   44.8930 C   0  0  0  0  0  0  0  0  0  0  0  0
   58.1050   23.2310   45.9250 C   0  0  0  0  0  0  0  0  0  0  0  0
   57.1830   23.3390   47.0960 C   0  0  0  0  0  0  0  0  0  0  0  0
   57.2780   22.5180   48.0480 O   0  0  0  0  0  0  0  0  0  0  0  0
   56.1750   24.3510   47.1110 N   0  0  0  0  0  0  0  0  0  0  0  0
   56.1770   25.6850   46.0100 S   0  0  0  0  0  0  0  0  0  0  0  0
   54.8200   26.3290   45.9940 O   0  0  0  0  0  0  0  0  0  0  0  0
   56.4790   25.1810   44.6280 O   0  0  0  0  0  0  0  0  0  0  0  0
   57.4070   26.8510   46.4870 C   0  0  0  0  0  0  0  0  0  0  0  0
   58.4390   26.4780   47.3570 C   0  0  0  0  0  0  0  0  0  0  0  0
   59.4210   27.4040   47.7230 C   0  0  0  0  0  0  0  0  0  0  0  0
   59.3850   28.7180   47.2230 C   0  0  0  0  0  0  0  0  0  0  0  0
   60.4220   29.7060   47.6130 C   0  0  0  0  0  0  0  0  0  0  0  0
   60.6510   30.0100   48.9620 C   0  0  0  0  0  0  0  0  0  0  0  0
   61.6260   30.9450   49.2990 C   0  0  0  0  0  0  0  0  0  0  0  0
   62.3590   31.5560   48.2850 C   0  0  0  0  0  0  0  0  0  0  0  0
   63.6430   32.7440   48.6750 S   0  0  0  0  0  0  0  0  0  0  0  0
   62.4870   34.1230   48.9960 C   0  0  0  0  0  0  0  0  0  0  0  0
   61.2780   34.0280   48.1060 C   0  0  0  0  0  0  0  0  0  0  0  0
   61.4100   34.1880   46.7180 C   0  0  0  0  0  0  0  0  0  0  0  0
   60.2840   34.1240   45.8910 C   0  0  0  0  0  0  0  0  0  0  0  0
   59.0180   33.9080   46.4440 C   0  0  0  0  0  0  0  0  0  0  0  0
   57.4810   33.8220   45.3120 Br  0  0  0  0  0  0  0  0  0  0  0  0
   58.8780   33.7550   47.8260 C   0  0  0  0  0  0  0  0  0  0  0  0
   60.0030   33.8130   48.6560 C   0  0  0  0  0  0  0  0  0  0  0  0
   62.1000   31.2380   46.9910 N   0  0  0  0  0  0  0  0  0  0  0  0
   61.1660   30.3450   46.6610 N   0  0  0  0  0  0  0  0  0  0  0  0
   58.3490   29.0820   46.3450 C   0  0  0  0  0  0  0  0  0  0  0  0
   57.3700   28.1540   45.9770 C   0  0  0  0  0  0  0  0  0  0  0  0
   57.0728   21.4093   45.4080 H   0  0  0  0  0  0  0  0  0  0  0  0
   56.8106   22.7684   44.2631 H   0  0  0  0  0  0  0  0  0  0  0  0
   58.3735   21.8829   44.2631 H   0  0  0  0  0  0  0  0  0  0  0  0
   59.0867   22.8742   46.2699 H   0  0  0  0  0  0  0  0  0  0  0  0
   58.2020   24.2223   45.4583 H   0  0  0  0  0  0  0  0  0  0  0  0
   58.4774   25.4528   47.7540 H   0  0  0  0  0  0  0  0  0  0  0  0
   60.2278   27.1023   48.4072 H   0  0  0  0  0  0  0  0  0  0  0  0
   60.0645   29.5133   49.7489 H   0  0  0  0  0  0  0  0  0  0  0  0
   61.8148   31.1978   50.3528 H   0  0  0  0  0  0  0  0  0  0  0  0
   62.1644   34.0854   50.0470 H   0  0  0  0  0  0  0  0  0  0  0  0
   63.0040   35.0711   48.7866 H   0  0  0  0  0  0  0  0  0  0  0  0
   62.4030   34.3644   46.2788 H   0  0  0  0  0  0  0  0  0  0  0  0
   60.3945   34.2438   44.8031 H   0  0  0  0  0  0  0  0  0  0  0  0
   57.8819   33.5887   48.2620 H   0  0  0  0  0  0  0  0  0  0  0  0
   59.8888   33.6898   49.7431 H   0  0  0  0  0  0  0  0  0  0  0  0
   61.0330   30.1210   45.6500 H   0  0  0  0  0  0  0  0  0  0  0  0
   58.3083   30.1056   45.9442 H   0  0  0  0  0  0  0  0  0  0  0  0
   56.5680   28.4489   45.2843 H   0  0  0  0  0  0  0  0  0  0  0  0
  1  2  1  0
  2  3  1  0
  3  4  2  0
  3  5  1  0
  5  6  1  0
  6  7  2  0
  6  8  2  0
  6  9  1  0
  9 10  2  0
 10 11  1  0
 11 12  2  0
 12 13  1  0
 13 14  2  0
 14 15  1  0
 15 16  2  0
 16 17  1  0
 17 18  1  0
 18 19  1  0
 19 20  2  0
 20 21  1  0
 21 22  2  0
 22 23  1  0
 22 24  1  0
 24 25  2  0
 16 26  1  0
 26 27  2  0
 12 28  1  0
 28 29  2  0
 29  9  1  0
 27 13  1  0
 25 19  1  0
  1 30  1  0
  1 31  1  0
  1 32  1  0
  2 33  1  0
  2 34  1  0
 10 35  1  0
 11 36  1  0
 14 37  1  0
 15 38  1  0
 18 39  1  0
 18 40  1  0
 20 41  1  0
 21 42  1  0
 24 43  1  0
 25 44  1  0
 27 45  1  0
 28 46  1  0
 29 47  1  0
M  CHG  2   5  -1  27   1
M  END
>  <UniqueID>  (75) 
70

>  <SMILES>  (75) 
CCC(=O)[N-]S(=O)(=O)c1ccc(-c2ccc(SCc3ccc(Br)cc3)n[nH+]2)cc1

>  <Energy>  (75) 
47.30715279385698

>  <Genealogy>  (75) 
CCC(=O)[N-]S(=O)(=O)c1ccc(-c2ccc(SCc3ccc(Br)cc3)n[nH+]2)cc1 (protonated)
CCC(=O)[N-]S(=O)(=O)c1ccc(-c2ccc(SCc3ccc(Br)cc3)n[nH+]2)cc1 (3D coordinates assigned)
CCC(=O)[N-]S(=O)(=O)c1ccc(-c2ccc(SCc3ccc(Br)cc3)n[nH+]2)cc1 (optimized conformer: 47.30715279385698 kcal/mol)

>  <smiles>  (75) 
CCC(=O)NS(=O)(=O)c1ccc(-c2ccc(SCc3ccc(Br)cc3)nn2)cc1

>  <score_type>  (75) 
oracle

>  <origin>  (75) 
adg

>  <m_score__min__energy>  (75) 
-10.050000000000001

>  <m_primary>  (75) 
energy

$$$$
75:0
     RDKit          3D

 50 51  0  0  0  0  0  0  0  0999 V2000
   57.4610   34.5860   44.8810 C   0  0  0  0  0  0  0  0  0  0  0  0
   58.9420   34.9470   44.9030 C   0  0  0  0  0  0  0  0  0  0  0  0
   59.4570   34.9010   46.2350 O   0  0  0  0  0  0  0  0  0  0  0  0
   59.3110   33.8290   47.1310 C   0  0  0  0  0  0  0  0  0  0  0  0
   59.4550   33.9760   48.5230 C   0  0  0  0  0  0  0  0  0  0  0  0
   59.3050   32.8750   49.3660 C   0  0  0  0  0  0  0  0  0  0  0  0
   58.9960   31.6140   48.8420 C   0  0  0  0  0  0  0  0  0  0  0  0
   58.8310   30.4820   49.7720 C   0  0  0  0  0  0  0  0  0  0  0  0
   59.6410   29.5190   49.7200 O   0  0  0  0  0  0  0  0  0  0  0  0
   57.7760   30.4570   50.7380 N   0  0  0  0  0  0  0  0  0  0  0  0
   57.5520   31.5020   51.7310 C   0  0  0  0  0  0  0  0  0  0  0  0
   56.1920   31.3000   52.3880 C   0  0  0  0  0  0  0  0  0  0  0  0
   55.6420   30.0690   51.9670 O   0  0  0  0  0  0  0  0  0  0  0  0
   54.2370   30.1430   51.9550 C   0  0  0  0  0  0  0  0  0  0  0  0
   58.8380   31.4550   47.4460 C   0  0  0  0  0  0  0  0  0  0  0  0
   58.5630   30.1030   46.8400 C   0  0  0  0  0  0  0  0  0  0  0  0
   57.4440   30.2140   45.9100 N   0  0  0  0  0  0  0  0  0  0  0  0
   56.6540   29.1240   45.4190 C   0  0  0  0  0  0  0  0  0  0  0  0
   55.6280   29.3840   44.7330 O   0  0  0  0  0  0  0  0  0  0  0  0
   57.0150   27.7130   45.6470 C   0  0  0  0  0  0  0  0  0  0  0  0
   58.2870   27.1800   45.5210 C   0  0  0  0  0  0  0  0  0  0  0  0
   58.1540   25.8220   45.7460 C   0  0  0  0  0  0  0  0  0  0  0  0
   59.1960   24.8990   45.7110 O   0  0  0  0  0  0  0  0  0  0  0  0
   56.8720   25.5000   46.0010 N   0  0  0  0  0  0  0  0  0  0  0  0
   56.3210   24.1630   46.2150 C   0  0  0  0  0  0  0  0  0  0  0  0
   56.1720   26.6470   45.9140 C   0  0  0  0  0  0  0  0  0  0  0  0
   54.7860   26.7140   46.0190 O   0  0  0  0  0  0  0  0  0  0  0  0
   59.0080   32.5690   46.6070 C   0  0  0  0  0  0  0  0  0  0  0  0
   57.0903   34.4956   45.9127 H   0  0  0  0  0  0  0  0  0  0  0  0
   56.8994   35.3735   44.3572 H   0  0  0  0  0  0  0  0  0  0  0  0
   57.3248   33.6283   44.3572 H   0  0  0  0  0  0  0  0  0  0  0  0
   59.4965   34.2321   44.2773 H   0  0  0  0  0  0  0  0  0  0  0  0
   59.0609   35.9693   44.5147 H   0  0  0  0  0  0  0  0  0  0  0  0
   59.6869   34.9636   48.9482 H   0  0  0  0  0  0  0  0  0  0  0  0
   59.4305   32.9985   50.4518 H   0  0  0  0  0  0  0  0  0  0  0  0
   58.3396   31.4536   52.4974 H   0  0  0  0  0  0  0  0  0  0  0  0
   57.5773   32.4853   51.2385 H   0  0  0  0  0  0  0  0  0  0  0  0
   56.3108   31.2933   53.4815 H   0  0  0  0  0  0  0  0  0  0  0  0
   55.5194   32.1201   52.0964 H   0  0  0  0  0  0  0  0  0  0  0  0
   53.8620   30.1627   52.9889 H   0  0  0  0  0  0  0  0  0  0  0  0
   53.9225   31.0590   51.4333 H   0  0  0  0  0  0  0  0  0  0  0  0
   53.8280   29.2651   51.4333 H   0  0  0  0  0  0  0  0  0  0  0  0
   59.4558   29.7524   46.3015 H   0  0  0  0  0  0  0  0  0  0  0  0
   58.3136   29.3849   47.6350 H   0  0  0  0  0  0  0  0  0  0  0  0
   59.2138   27.7254   45.2893 H   0  0  0  0  0  0  0  0  0  0  0  0
   59.2840   24.2440   44.9450 H   0  0  0  0  0  0  0  0  0  0  0  0
   56.2406   23.9680   47.2946 H   0  0  0  0  0  0  0  0  0  0  0  0
   55.3235   24.0997   45.7557 H   0  0  0  0  0  0  0  0  0  0  0  0
   56.9843   23.4152   45.7557 H   0  0  0  0  0  0  0  0  0  0  0  0
   58.9008   32.4476   45.5190 H   0  0  0  0  0  0  0  0  0  0  0  0
  1  2  1  0
  2  3  1  0
  3  4  1  0
  4  5  2  0
  5  6  1  0
  6  7  2  0
  7  8  1  0
  8  9  2  0
  8 10  1  0
 10 11  1  0
 11 12  1  0
 12 13  1  0
 13 14  1  0
  7 15  1  0
 15 16  1  0
 16 17  1  0
 17 18  1  0
 18 19  2  0
 18 20  1  0
 20 21  1  0
 21 22  2  0
 22 23  1  0
 22 24  1  0
 24 25  1  0
 24 26  1  0
 26 27  1  0
 15 28  2  0
 28  4  1  0
 26 20  2  0
  1 29  1  0
  1 30  1  0
  1 31  1  0
  2 32  1  0
  2 33  1  0
  5 34  1  0
  6 35  1  0
 11 36  1  0
 11 37  1  0
 12 38  1  0
 12 39  1  0
 14 40  1  0
 14 41  1  0
 14 42  1  0
 16 43  1  0
 16 44  1  0
 21 45  1  0
 23 46  1  0
 25 47  1  0
 25 48  1  0
 25 49  1  0
 28 50  1  0
M  CHG  3  10  -1  17  -1  27  -1
M  END
>  <UniqueID>  (76) 
71

>  <SMILES>  (76) 
CCOc1ccc(C(=O)[N-]CCOC)c(C[N-]C(=O)c2cc(O)n(C)c2[O-])c1

>  <Energy>  (76) 
82.32817933235262

>  <Genealogy>  (76) 
CCOc1ccc(C(=O)[N-]CCOC)c(C[N-]C(=O)c2cc(O)n(C)c2[O-])c1 (protonated)
CCOc1ccc(C(=O)[N-]CCOC)c(C[N-]C(=O)c2cc(O)n(C)c2[O-])c1 (3D coordinates assigned)
CCOc1ccc(C(=O)[N-]CCOC)c(C[N-]C(=O)c2cc(O)n(C)c2[O-])c1 (optimized conformer: 82.32817933235262 kcal/mol)

>  <smiles>  (76) 
CCOc1ccc(C(=O)NCCOC)c(CNC(=O)c2cc(O)n(C)c2O)c1

>  <score_type>  (76) 
oracle

>  <origin>  (76) 
adg

>  <m_score__min__energy>  (76) 
-12.73

>  <m_primary>  (76) 
energy

$$$$
76:0
     RDKit          3D

 44 46  0  0  0  0  0  0  0  0999 V2000
   57.0710   34.2130   45.0080 C   0  0  0  0  0  0  0  0  0  0  0  0
   58.2560   33.9310   45.8820 C   0  0  0  0  0  0  0  0  0  0  0  0
   59.5560   34.1120   45.3910 C   0  0  0  0  0  0  0  0  0  0  0  0
   60.6610   33.8140   46.1940 C   0  0  0  0  0  0  0  0  0  0  0  0
   60.4800   33.3280   47.4960 C   0  0  0  0  0  0  0  0  0  0  0  0
   61.8840   32.9660   48.4990 S   0  0  0  0  0  0  0  0  0  0  0  0
   62.9620   32.3020   47.6890 O   0  0  0  0  0  0  0  0  0  0  0  0
   62.4190   34.2520   49.0630 O   0  0  0  0  0  0  0  0  0  0  0  0
   61.4390   31.9160   49.8080 N   0  0  0  0  0  0  0  0  0  0  0  0
   61.1530   30.5130   49.6550 C   0  0  0  0  0  0  0  0  0  0  0  0
   61.5370   29.5650   50.6200 C   0  0  0  0  0  0  0  0  0  0  0  0
   61.2480   28.2120   50.4350 C   0  0  0  0  0  0  0  0  0  0  0  0
   60.5720   27.7820   49.2910 C   0  0  0  0  0  0  0  0  0  0  0  0
   60.2710   26.4310   49.1510 O   0  0  0  0  0  0  0  0  0  0  0  0
   60.1850   28.7140   48.3080 C   0  0  0  0  0  0  0  0  0  0  0  0
   59.4790   28.2850   47.0780 C   0  0  0  0  0  0  0  0  0  0  0  0
   59.7340   27.0250   46.5080 C   0  0  0  0  0  0  0  0  0  0  0  0
   59.0780   26.6340   45.3390 C   0  0  0  0  0  0  0  0  0  0  0  0
   58.1630   27.4920   44.7260 C   0  0  0  0  0  0  0  0  0  0  0  0
   57.8970   28.7500   45.2810 C   0  0  0  0  0  0  0  0  0  0  0  0
   56.7570   29.8440   44.5030 S   0  0  0  0  0  0  0  0  0  0  0  0
   55.1430   29.3080   44.8070 N   0  0  0  0  0  0  0  0  0  0  0  0
   56.9300   31.2360   45.0470 O   0  0  0  0  0  0  0  0  0  0  0  0
   57.0100   29.8710   43.0220 O   0  0  0  0  0  0  0  0  0  0  0  0
   58.5610   29.1470   46.4500 C   0  0  0  0  0  0  0  0  0  0  0  0
   60.4730   30.0760   48.5070 C   0  0  0  0  0  0  0  0  0  0  0  0
   59.1780   33.1180   47.9800 C   0  0  0  0  0  0  0  0  0  0  0  0
   58.9740   32.6170   49.2230 F   0  0  0  0  0  0  0  0  0  0  0  0
   58.0740   33.4160   47.1750 C   0  0  0  0  0  0  0  0  0  0  0  0
   56.1930   34.4219   45.6369 H   0  0  0  0  0  0  0  0  0  0  0  0
   57.2832   35.0857   44.3729 H   0  0  0  0  0  0  0  0  0  0  0  0
   56.8673   33.3382   44.3729 H   0  0  0  0  0  0  0  0  0  0  0  0
   59.7077   34.4902   44.3693 H   0  0  0  0  0  0  0  0  0  0  0  0
   61.6780   33.9618   45.8017 H   0  0  0  0  0  0  0  0  0  0  0  0
   61.3350   32.3540   50.7500 H   0  0  0  0  0  0  0  0  0  0  0  0
   62.0683   29.8916   51.5261 H   0  0  0  0  0  0  0  0  0  0  0  0
   61.5549   27.4791   51.1957 H   0  0  0  0  0  0  0  0  0  0  0  0
   60.4539   26.3440   46.9854 H   0  0  0  0  0  0  0  0  0  0  0  0
   59.2828   25.6466   44.8996 H   0  0  0  0  0  0  0  0  0  0  0  0
   57.6497   27.1791   43.8048 H   0  0  0  0  0  0  0  0  0  0  0  0
   55.1900   28.6460   45.6150 H   0  0  0  0  0  0  0  0  0  0  0  0
   58.3629   30.1400   46.8797 H   0  0  0  0  0  0  0  0  0  0  0  0
   60.1604   30.8111   47.7508 H   0  0  0  0  0  0  0  0  0  0  0  0
   57.0568   33.2458   47.5574 H   0  0  0  0  0  0  0  0  0  0  0  0
  1  2  1  0
  2  3  2  0
  3  4  1  0
  4  5  2  0
  5  6  1  0
  6  7  2  0
  6  8  2  0
  6  9  1  0
  9 10  1  0
 10 11  2  0
 11 12  1  0
 12 13  2  0
 13 14  1  0
 13 15  1  0
 15 16  1  0
 16 17  2  0
 17 18  1  0
 18 19  2  0
 19 20  1  0
 20 21  1  0
 21 22  1  0
 21 23  2  0
 21 24  2  0
 20 25  2  0
 15 26  2  0
  5 27  1  0
 27 28  1  0
 27 29  2  0
 29  2  1  0
 26 10  1  0
 25 16  1  0
  1 30  1  0
  1 31  1  0
  1 32  1  0
  3 33  1  0
  4 34  1  0
  9 35  1  0
 11 36  1  0
 12 37  1  0
 17 38  1  0
 18 39  1  0
 19 40  1  0
 22 41  1  0
 25 42  1  0
 26 43  1  0
 29 44  1  0
M  CHG  2  14  -1  22  -1
M  END
>  <UniqueID>  (77) 
72

>  <SMILES>  (77) 
Cc1ccc(S(=O)(=O)Nc2ccc([O-])c(-c3cccc(S([NH-])(=O)=O)c3)c2)c(F)c1

>  <Energy>  (77) 
55.494258114253775

>  <Genealogy>  (77) 
Cc1ccc(S(=O)(=O)Nc2ccc([O-])c(-c3cccc(S([NH-])(=O)=O)c3)c2)c(F)c1 (protonated)
Cc1ccc(S(=O)(=O)Nc2ccc([O-])c(-c3cccc(S([NH-])(=O)=O)c3)c2)c(F)c1 (3D coordinates assigned)
Cc1ccc(S(=O)(=O)Nc2ccc([O-])c(-c3cccc(S([NH-])(=O)=O)c3)c2)c(F)c1 (optimized conformer: 55.494258114253775 kcal/mol)

>  <smiles>  (77) 
Cc1ccc(S(=O)(=O)Nc2ccc(O)c(-c3cccc(S(N)(=O)=O)c3)c2)c(F)c1

>  <score_type>  (77) 
oracle

>  <origin>  (77) 
adg

>  <m_score__min__energy>  (77) 
-13.92

>  <m_primary>  (77) 
energy

$$$$
77:0
     RDKit          3D

 40 42  0  0  0  0  0  0  0  0999 V2000
   56.2630   29.7110   42.6230 C   0  0  0  0  0  0  0  0  0  0  0  0
   56.5610   29.3470   44.0420 C   0  0  0  0  0  0  0  0  0  0  0  0
   55.6080   29.2050   44.8560 O   0  0  0  0  0  0  0  0  0  0  0  0
   57.9140   29.0980   44.4610 N   0  0  0  0  0  0  0  0  0  0  0  0
   58.5530   27.8060   44.1880 C   0  0  0  0  0  0  0  0  0  0  0  0
   59.3810   27.4560   45.4430 C   0  0  0  0  0  0  0  0  0  0  0  0
   59.2900   28.6910   46.2610 C   0  0  0  0  0  0  0  0  0  0  0  0
   59.9220   28.9460   47.4770 C   0  0  0  0  0  0  0  0  0  0  0  0
   59.7480   30.2020   48.0710 C   0  0  0  0  0  0  0  0  0  0  0  0
   60.5910   30.5910   49.7400 Br  0  0  0  0  0  0  0  0  0  0  0  0
   58.9970   31.1940   47.4160 C   0  0  0  0  0  0  0  0  0  0  0  0
   58.3960   30.9370   46.1680 C   0  0  0  0  0  0  0  0  0  0  0  0
   57.7350   32.3070   45.2610 S   0  0  0  0  0  0  0  0  0  0  0  0
   56.3050   32.0090   44.9120 O   0  0  0  0  0  0  0  0  0  0  0  0
   58.5000   32.5530   43.9920 O   0  0  0  0  0  0  0  0  0  0  0  0
   57.7930   33.7660   46.2150 N   0  0  0  0  0  0  0  0  0  0  0  0
   58.9720   34.5820   45.9010 C   0  0  0  0  0  0  0  0  0  0  0  0
   60.1250   34.2820   46.8220 C   0  0  0  0  0  0  0  0  0  0  0  0
   59.9920   34.4720   48.2060 C   0  0  0  0  0  0  0  0  0  0  0  0
   61.0760   34.2340   49.0570 C   0  0  0  0  0  0  0  0  0  0  0  0
   62.3000   33.8090   48.5320 C   0  0  0  0  0  0  0  0  0  0  0  0
   63.3520   33.5850   49.3570 F   0  0  0  0  0  0  0  0  0  0  0  0
   62.4400   33.6180   47.1530 C   0  0  0  0  0  0  0  0  0  0  0  0
   61.3580   33.8500   46.3000 C   0  0  0  0  0  0  0  0  0  0  0  0
   58.4910   29.6250   45.6520 C   0  0  0  0  0  0  0  0  0  0  0  0
   55.5663   30.5620   42.6013 H   0  0  0  0  0  0  0  0  0  0  0  0
   57.1967   29.9884   42.1118 H   0  0  0  0  0  0  0  0  0  0  0  0
   55.8067   28.8505   42.1118 H   0  0  0  0  0  0  0  0  0  0  0  0
   57.7898   27.0345   44.0083 H   0  0  0  0  0  0  0  0  0  0  0  0
   59.1889   27.8568   43.2919 H   0  0  0  0  0  0  0  0  0  0  0  0
   58.9471   26.5968   45.9754 H   0  0  0  0  0  0  0  0  0  0  0  0
   60.4165   27.1661   45.2111 H   0  0  0  0  0  0  0  0  0  0  0  0
   60.5438   28.1774   47.9594 H   0  0  0  0  0  0  0  0  0  0  0  0
   58.8773   32.1825   47.8836 H   0  0  0  0  0  0  0  0  0  0  0  0
   59.2812   34.3762   44.8656 H   0  0  0  0  0  0  0  0  0  0  0  0
   58.6986   35.6395   46.0309 H   0  0  0  0  0  0  0  0  0  0  0  0
   59.0317   34.8094   48.6230 H   0  0  0  0  0  0  0  0  0  0  0  0
   60.9653   34.3815   50.1414 H   0  0  0  0  0  0  0  0  0  0  0  0
   63.4034   33.2847   46.7398 H   0  0  0  0  0  0  0  0  0  0  0  0
   61.4705   33.6944   45.2169 H   0  0  0  0  0  0  0  0  0  0  0  0
  1  2  1  0
  2  3  2  0
  2  4  1  0
  4  5  1  0
  5  6  1  0
  6  7  1  0
  7  8  2  0
  8  9  1  0
  9 10  1  0
  9 11  2  0
 11 12  1  0
 12 13  1  0
 13 14  2  0
 13 15  2  0
 13 16  1  0
 16 17  1  0
 17 18  1  0
 18 19  2  0
 19 20  1  0
 20 21  2  0
 21 22  1  0
 21 23  1  0
 23 24  2  0
 12 25  2  0
 25  4  1  0
 25  7  1  0
 24 18  1  0
  1 26  1  0
  1 27  1  0
  1 28  1  0
  5 29  1  0
  5 30  1  0
  6 31  1  0
  6 32  1  0
  8 33  1  0
 11 34  1  0
 17 35  1  0
 17 36  1  0
 19 37  1  0
 20 38  1  0
 23 39  1  0
 24 40  1  0
M  CHG  1  16  -1
M  END
>  <UniqueID>  (78) 
73

>  <SMILES>  (78) 
CC(=O)N1CCc2cc(Br)cc(S(=O)(=O)[N-]Cc3ccc(F)cc3)c21

>  <Energy>  (78) 
61.34969750464314

>  <Genealogy>  (78) 
CC(=O)N1CCc2cc(Br)cc(S(=O)(=O)[N-]Cc3ccc(F)cc3)c21 (protonated)
CC(=O)N1CCc2cc(Br)cc(S(=O)(=O)[N-]Cc3ccc(F)cc3)c21 (3D coordinates assigned)
CC(=O)N1CCc2cc(Br)cc(S(=O)(=O)[N-]Cc3ccc(F)cc3)c21 (nonaromatic ring conformer: 61.34969750464314 kcal/mol)

>  <smiles>  (78) 
CC(=O)N1CCc2cc(Br)cc(S(=O)(=O)NCc3ccc(F)cc3)c21

>  <score_type>  (78) 
oracle

>  <origin>  (78) 
adg

>  <m_score__min__energy>  (78) 
-9.6300000000000008

>  <m_primary>  (78) 
energy

$$$$
78:0
     RDKit          3D

 58 59  0  0  0  0  0  0  0  0999 V2000
   60.3980   27.6410   45.6370 C   0  0  0  0  0  0  0  0  0  0  0  0
   59.9160   27.4790   47.0870 C   0  0  2  0  0  0  0  0  0  0  0  0
   58.6300   26.6340   47.1720 C   0  0  0  0  0  0  0  0  0  0  0  0
   57.9200   26.6170   45.8960 N   0  0  0  0  0  0  0  0  0  0  0  0
   56.8030   27.4590   45.5910 C   0  0  0  0  0  0  0  0  0  0  0  0
   55.6330   27.0720   45.8630 O   0  0  0  0  0  0  0  0  0  0  0  0
   57.0170   28.7850   44.9660 C   0  0  0  0  0  0  0  0  0  0  0  0
   56.7970   28.9680   43.5900 C   0  0  0  0  0  0  0  0  0  0  0  0
   56.9960   30.2180   43.0020 C   0  0  0  0  0  0  0  0  0  0  0  0
   57.4120   31.3020   43.7770 C   0  0  0  0  0  0  0  0  0  0  0  0
   57.6330   31.1490   45.1560 C   0  0  0  0  0  0  0  0  0  0  0  0
   58.0520   32.3060   45.9830 C   0  0  0  0  0  0  0  0  0  0  0  0
   57.4340   32.5770   47.0490 O   0  0  0  0  0  0  0  0  0  0  0  0
   59.1590   33.1200   45.5780 N   0  0  0  0  0  0  0  0  0  0  0  0
   59.0800   34.5660   45.4010 C   0  0  0  0  0  0  0  0  0  0  0  0
   59.3190   35.2820   46.7310 C   0  0  0  0  0  0  0  0  0  0  0  0
   58.9030   34.4730   47.7980 O   0  0  0  0  0  0  0  0  0  0  0  0
   57.4370   29.8830   45.7420 C   0  0  0  0  0  0  0  0  0  0  0  0
   59.7020   28.8270   47.7520 C   0  0  0  0  0  0  0  0  0  0  0  0
   58.7850   28.9800   48.8070 C   0  0  0  0  0  0  0  0  0  0  0  0
   58.6230   30.2180   49.4300 C   0  0  0  0  0  0  0  0  0  0  0  0
   59.3840   31.3210   49.0220 C   0  0  0  0  0  0  0  0  0  0  0  0
   59.2230   32.5560   49.6490 O   0  0  0  0  0  0  0  0  0  0  0  0
   60.3140   31.1840   47.9820 C   0  0  0  0  0  0  0  0  0  0  0  0
   61.0870   32.3290   47.5950 N   0  0  0  0  0  0  0  0  0  0  0  0
   61.8730   33.4240   48.6860 S   0  0  0  0  0  0  0  0  0  0  0  0
   61.1670   34.7500   48.6730 O   0  0  0  0  0  0  0  0  0  0  0  0
   61.8540   32.8520   50.0760 O   0  0  0  0  0  0  0  0  0  0  0  0
   63.5710   33.6590   48.1670 C   0  0  0  0  0  0  0  0  0  0  0  0
   63.7720   33.1300   46.7450 C   0  0  0  0  0  0  0  0  0  0  0  0
   64.5270   32.9670   49.1430 C   0  0  0  0  0  0  0  0  0  0  0  0
   60.4690   29.9350   47.3510 C   0  0  0  0  0  0  0  0  0  0  0  0
   61.4407   27.9914   45.6342 H   0  0  0  0  0  0  0  0  0  0  0  0
   60.3353   26.6724   45.1194 H   0  0  0  0  0  0  0  0  0  0  0  0
   59.7630   28.3751   45.1194 H   0  0  0  0  0  0  0  0  0  0  0  0
   60.7107   26.9446   47.6281 H   0  0  0  0  0  0  0  0  0  0  0  0
   58.8965   25.6029   47.4474 H   0  0  0  0  0  0  0  0  0  0  0  0
   57.9704   27.0816   47.9300 H   0  0  0  0  0  0  0  0  0  0  0  0
   56.4657   28.1203   42.9723 H   0  0  0  0  0  0  0  0  0  0  0  0
   56.8243   30.3496   41.9235 H   0  0  0  0  0  0  0  0  0  0  0  0
   57.5679   32.2831   43.3046 H   0  0  0  0  0  0  0  0  0  0  0  0
   59.8437   34.8843   44.6761 H   0  0  0  0  0  0  0  0  0  0  0  0
   58.0764   34.8251   45.0327 H   0  0  0  0  0  0  0  0  0  0  0  0
   60.3916   35.5013   46.8380 H   0  0  0  0  0  0  0  0  0  0  0  0
   58.7412   36.2180   46.7437 H   0  0  0  0  0  0  0  0  0  0  0  0
   59.3620   33.5990   47.6860 H   0  0  0  0  0  0  0  0  0  0  0  0
   57.6142   29.7502   46.8195 H   0  0  0  0  0  0  0  0  0  0  0  0
   58.1911   28.1175   49.1436 H   0  0  0  0  0  0  0  0  0  0  0  0
   57.8937   30.3284   50.2460 H   0  0  0  0  0  0  0  0  0  0  0  0
   59.8070   33.3500   49.4160 H   0  0  0  0  0  0  0  0  0  0  0  0
   63.7942   34.7361   48.1694 H   0  0  0  0  0  0  0  0  0  0  0  0
   64.1624   32.1025   46.7878 H   0  0  0  0  0  0  0  0  0  0  0  0
   62.8094   33.1346   46.2126 H   0  0  0  0  0  0  0  0  0  0  0  0
   64.4886   33.7727   46.2126 H   0  0  0  0  0  0  0  0  0  0  0  0
   64.2205   33.1889   50.1759 H   0  0  0  0  0  0  0  0  0  0  0  0
   64.4970   31.8800   48.9771 H   0  0  0  0  0  0  0  0  0  0  0  0
   65.5502   33.3351   48.9771 H   0  0  0  0  0  0  0  0  0  0  0  0
   61.1984   29.8248   46.5350 H   0  0  0  0  0  0  0  0  0  0  0  0
  1  2  1  0
  2  3  1  0
  3  4  1  0
  4  5  1  0
  5  6  2  0
  5  7  1  0
  7  8  2  0
  8  9  1  0
  9 10  2  0
 10 11  1  0
 11 12  1  0
 12 13  2  0
 12 14  1  0
 14 15  1  0
 15 16  1  0
 16 17  1  0
 11 18  2  0
  2 19  1  0
 19 20  2  0
 20 21  1  0
 21 22  2  0
 22 23  1  0
 22 24  1  0
 24 25  1  0
 25 26  1  0
 26 27  2  0
 26 28  2  0
 26 29  1  0
 29 30  1  0
 29 31  1  0
 24 32  2  0
 18  7  1  0
 32 19  1  0
  1 33  1  0
  1 34  1  0
  1 35  1  0
  2 36  1  1
  3 37  1  0
  3 38  1  0
  8 39  1  0
  9 40  1  0
 10 41  1  0
 15 42  1  0
 15 43  1  0
 16 44  1  0
 16 45  1  0
 17 46  1  0
 18 47  1  0
 20 48  1  0
 21 49  1  0
 23 50  1  0
 29 51  1  0
 30 52  1  0
 30 53  1  0
 30 54  1  0
 31 55  1  0
 31 56  1  0
 31 57  1  0
 32 58  1  0
M  CHG  3   4  -1  14  -1  25  -1
M  END
>  <UniqueID>  (79) 
74

>  <SMILES>  (79) 
CC(C)S(=O)(=O)[N-]c1cc([C@H](C)C[N-]C(=O)c2cccc(C(=O)[N-]CCO)c2)ccc1O

>  <Energy>  (79) 
45.20452028703544

>  <Genealogy>  (79) 
CC(C[N-]C(=O)c1cccc(C(=O)[N-]CCO)c1)c1ccc(O)c([N-]S(=O)(=O)C(C)C)c1 (protonated)
CC(C)S(=O)(=O)[N-]c1cc([C@H](C)C[N-]C(=O)c2cccc(C(=O)[N-]CCO)c2)ccc1O (chirality)
CC(C)S(=O)(=O)[N-]c1cc([C@H](C)C[N-]C(=O)c2cccc(C(=O)[N-]CCO)c2)ccc1O (3D coordinates assigned)
CC(C)S(=O)(=O)[N-]c1cc([C@H](C)C[N-]C(=O)c2cccc(C(=O)[N-]CCO)c2)ccc1O (optimized conformer: 45.20452028703544 kcal/mol)

>  <smiles>  (79) 
CC(CNC(=O)c1cccc(C(=O)NCCO)c1)c1ccc(O)c(NS(=O)(=O)C(C)C)c1

>  <score_type>  (79) 
oracle

>  <origin>  (79) 
adg

>  <m_score__min__energy>  (79) 
-13.43

>  <m_primary>  (79) 
energy

$$$$
79:0
     RDKit          3D

 37 39  0  0  0  0  0  0  0  0999 V2000
   60.3080   34.5990   48.6130 O   0  0  0  0  0  0  0  0  0  0  0  0
   61.0390   33.6430   48.2360 C   0  0  0  0  0  0  0  0  0  0  0  0
   60.5600   32.7130   47.2510 N   0  0  0  0  0  0  0  0  0  0  0  0
   59.4990   33.0010   46.3240 C   0  0  0  0  0  0  0  0  0  0  0  0
   59.4180   34.2750   45.7430 C   0  0  0  0  0  0  0  0  0  0  0  0
   58.3770   34.5880   44.8680 C   0  0  0  0  0  0  0  0  0  0  0  0
   57.3960   33.6390   44.5770 C   0  0  0  0  0  0  0  0  0  0  0  0
   57.4420   32.3700   45.1640 C   0  0  0  0  0  0  0  0  0  0  0  0
   56.3950   31.4350   44.8650 N   0  0  0  0  0  0  0  0  0  0  0  0
   56.6330   29.7760   44.4210 S   0  0  0  0  0  0  0  0  0  0  0  0
   55.4520   28.9670   44.8760 O   0  0  0  0  0  0  0  0  0  0  0  0
   56.7440   29.6810   42.9240 O   0  0  0  0  0  0  0  0  0  0  0  0
   58.0860   29.1480   45.1940 C   0  0  0  0  0  0  0  0  0  0  0  0
   58.0140   28.6310   46.4960 C   0  0  0  0  0  0  0  0  0  0  0  0
   59.1690   28.1600   47.1290 C   0  0  0  0  0  0  0  0  0  0  0  0
   60.3980   28.2030   46.4650 C   0  0  0  0  0  0  0  0  0  0  0  0
   60.4740   28.7150   45.1660 C   0  0  0  0  0  0  0  0  0  0  0  0
   61.6680   28.7580   44.5230 F   0  0  0  0  0  0  0  0  0  0  0  0
   59.3210   29.1860   44.5300 C   0  0  0  0  0  0  0  0  0  0  0  0
   58.4990   32.0530   46.0390 C   0  0  0  0  0  0  0  0  0  0  0  0
   62.3710   33.4730   48.8410 C   0  0  0  0  0  0  0  0  0  0  0  0
   63.4180   32.7300   48.3060 C   0  0  0  0  0  0  0  0  0  0  0  0
   64.5640   32.7270   49.1120 C   0  0  0  0  0  0  0  0  0  0  0  0
   64.4250   33.4630   50.2810 C   0  0  0  0  0  0  0  0  0  0  0  0
   62.8760   34.1130   50.3130 S   0  0  0  0  0  0  0  0  0  0  0  0
   60.9680   31.7510   47.2420 H   0  0  0  0  0  0  0  0  0  0  0  0
   60.1801   35.0324   45.9786 H   0  0  0  0  0  0  0  0  0  0  0  0
   58.3295   35.5853   44.4064 H   0  0  0  0  0  0  0  0  0  0  0  0
   56.5815   33.8904   43.8817 H   0  0  0  0  0  0  0  0  0  0  0  0
   57.0475   28.5959   47.0201 H   0  0  0  0  0  0  0  0  0  0  0  0
   59.1099   27.7554   48.1502 H   0  0  0  0  0  0  0  0  0  0  0  0
   61.3059   27.8339   46.9645 H   0  0  0  0  0  0  0  0  0  0  0  0
   59.3827   29.5869   43.5075 H   0  0  0  0  0  0  0  0  0  0  0  0
   58.5432   31.0567   46.5032 H   0  0  0  0  0  0  0  0  0  0  0  0
   63.3528   32.1977   47.3456 H   0  0  0  0  0  0  0  0  0  0  0  0
   65.4869   32.1919   48.8439 H   0  0  0  0  0  0  0  0  0  0  0  0
   65.1965   33.5975   51.0535 H   0  0  0  0  0  0  0  0  0  0  0  0
  1  2  2  0
  2  3  1  0
  3  4  1  0
  4  5  2  0
  5  6  1  0
  6  7  2  0
  7  8  1  0
  8  9  1  0
  9 10  1  0
 10 11  2  0
 10 12  2  0
 10 13  1  0
 13 14  2  0
 14 15  1  0
 15 16  2  0
 16 17  1  0
 17 18  1  0
 17 19  2  0
  8 20  2  0
  2 21  1  0
 21 22  2  0
 22 23  1  0
 23 24  2  0
 24 25  1  0
 20  4  1  0
 25 21  1  0
 19 13  1  0
  3 26  1  0
  5 27  1  0
  6 28  1  0
  7 29  1  0
 14 30  1  0
 15 31  1  0
 16 32  1  0
 19 33  1  0
 20 34  1  0
 22 35  1  0
 23 36  1  0
 24 37  1  0
M  CHG  1   9  -1
M  END
>  <UniqueID>  (80) 
75

>  <SMILES>  (80) 
O=C(Nc1cccc([N-]S(=O)(=O)c2cccc(F)c2)c1)c1cccs1

>  <Energy>  (80) 
71.06379243047031

>  <Genealogy>  (80) 
O=C(Nc1cccc([N-]S(=O)(=O)c2cccc(F)c2)c1)c1cccs1 (protonated)
O=C(Nc1cccc([N-]S(=O)(=O)c2cccc(F)c2)c1)c1cccs1 (3D coordinates assigned)
O=C(Nc1cccc([N-]S(=O)(=O)c2cccc(F)c2)c1)c1cccs1 (optimized conformer: 71.06379243047031 kcal/mol)

>  <smiles>  (80) 
O=C(Nc1cccc(NS(=O)(=O)c2cccc(F)c2)c1)c1cccs1

>  <score_type>  (80) 
oracle

>  <origin>  (80) 
adg

>  <m_score__min__energy>  (80) 
-9.9700000000000006

>  <m_primary>  (80) 
energy

$$$$
80:0
     RDKit          3D

 38 39  0  0  0  0  0  0  0  0999 V2000
   57.7520   31.9770   42.7160 C   0  0  0  0  0  0  0  0  0  0  0  0
   56.8520   31.2000   43.6720 C   0  0  0  0  0  0  0  0  0  0  0  0
   57.6470   30.6340   44.8170 C   0  0  0  0  0  0  0  0  0  0  0  0
   58.7210   31.3370   45.2640 N   0  0  0  0  0  0  0  0  0  0  0  0
   59.4790   30.9070   46.3080 C   0  0  0  0  0  0  0  0  0  0  0  0
   60.6460   31.7050   46.7640 C   0  0  0  0  0  0  0  0  0  0  0  0
   61.8370   31.0410   47.1210 C   0  0  0  0  0  0  0  0  0  0  0  0
   62.9480   31.7600   47.5630 C   0  0  0  0  0  0  0  0  0  0  0  0
   62.8920   33.1500   47.6520 C   0  0  0  0  0  0  0  0  0  0  0  0
   61.7260   33.8280   47.2940 C   0  0  0  0  0  0  0  0  0  0  0  0
   60.5940   33.1200   46.8420 C   0  0  0  0  0  0  0  0  0  0  0  0
   59.4230   33.7910   46.4510 O   0  0  0  0  0  0  0  0  0  0  0  0
   59.2900   34.5810   45.2750 C   0  0  0  0  0  0  0  0  0  0  0  0
   59.1590   29.7370   46.9210 N   0  0  0  0  0  0  0  0  0  0  0  0
   58.0940   28.9960   46.5270 C   0  0  0  0  0  0  0  0  0  0  0  0
   57.7260   27.4710   47.3960 S   0  0  0  0  0  0  0  0  0  0  0  0
   57.9860   26.4330   45.9230 C   0  0  0  0  0  0  0  0  0  0  0  0
   56.6690   25.9230   45.4390 C   0  0  0  0  0  0  0  0  0  0  0  0
   55.4650   26.3420   46.0750 N   0  0  0  0  0  0  0  0  0  0  0  0
   56.6240   25.0920   44.4930 O   0  0  0  0  0  0  0  0  0  0  0  0
   57.2970   29.4280   45.4610 C   0  0  0  0  0  0  0  0  0  0  0  0
   56.1910   28.6630   45.0800 O   0  0  0  0  0  0  0  0  0  0  0  0
   58.4602   32.5884   43.2945 H   0  0  0  0  0  0  0  0  0  0  0  0
   58.3093   31.2716   42.0821 H   0  0  0  0  0  0  0  0  0  0  0  0
   57.1354   32.6312   42.0821 H   0  0  0  0  0  0  0  0  0  0  0  0
   56.0798   31.8755   44.0688 H   0  0  0  0  0  0  0  0  0  0  0  0
   56.3886   30.3684   43.1208 H   0  0  0  0  0  0  0  0  0  0  0  0
   61.8911   29.9446   47.0504 H   0  0  0  0  0  0  0  0  0  0  0  0
   63.8700   31.2289   47.8418 H   0  0  0  0  0  0  0  0  0  0  0  0
   63.7684   33.7134   48.0050 H   0  0  0  0  0  0  0  0  0  0  0  0
   61.6899   34.9251   47.3652 H   0  0  0  0  0  0  0  0  0  0  0  0
   59.1134   35.6298   45.5559 H   0  0  0  0  0  0  0  0  0  0  0  0
   60.2126   34.5111   44.6800 H   0  0  0  0  0  0  0  0  0  0  0  0
   58.4412   34.2129   44.6800 H   0  0  0  0  0  0  0  0  0  0  0  0
   58.4616   27.0309   45.1316 H   0  0  0  0  0  0  0  0  0  0  0  0
   58.6371   25.5847   46.1807 H   0  0  0  0  0  0  0  0  0  0  0  0
   55.1410   27.3320   46.0090 H   0  0  0  0  0  0  0  0  0  0  0  0
   56.2660   27.7560   44.6390 H   0  0  0  0  0  0  0  0  0  0  0  0
  1  2  1  0
  2  3  1  0
  3  4  2  0
  4  5  1  0
  5  6  1  0
  6  7  2  0
  7  8  1  0
  8  9  2  0
  9 10  1  0
 10 11  2  0
 11 12  1  0
 12 13  1  0
  5 14  2  0
 14 15  1  0
 15 16  1  0
 16 17  1  0
 17 18  1  0
 18 19  1  0
 18 20  2  0
 15 21  2  0
 21 22  1  0
 21  3  1  0
 11  6  1  0
  1 23  1  0
  1 24  1  0
  1 25  1  0
  2 26  1  0
  2 27  1  0
  7 28  1  0
  8 29  1  0
  9 30  1  0
 10 31  1  0
 13 32  1  0
 13 33  1  0
 13 34  1  0
 17 35  1  0
 17 36  1  0
 19 37  1  0
 22 38  1  0
M  CHG  1  19  -1
M  END
>  <UniqueID>  (81) 
76

>  <SMILES>  (81) 
CCc1nc(-c2ccccc2OC)nc(SCC([NH-])=O)c1O

>  <Energy>  (81) 
33.57117493617005

>  <Genealogy>  (81) 
CCc1nc(-c2ccccc2OC)nc(SCC([NH-])=O)c1O (protonated)
CCc1nc(-c2ccccc2OC)nc(SCC([NH-])=O)c1O (3D coordinates assigned)
CCc1nc(-c2ccccc2OC)nc(SCC([NH-])=O)c1O (optimized conformer: 33.57117493617005 kcal/mol)

>  <smiles>  (81) 
CCc1nc(-c2ccccc2OC)nc(SCC(N)=O)c1O

>  <score_type>  (81) 
oracle

>  <origin>  (81) 
adg

>  <m_score__min__energy>  (81) 
-9.9100000000000001

>  <m_primary>  (81) 
energy

$$$$
81:0
     RDKit          3D

 44 46  0  0  0  0  0  0  0  0999 V2000
   57.6210   33.7750   44.7090 C   0  0  0  0  0  0  0  0  0  0  0  0
   57.6010   32.2780   44.6260 C   0  0  0  0  0  0  0  0  0  0  0  0
   57.2810   31.6410   43.4180 C   0  0  0  0  0  0  0  0  0  0  0  0
   57.2250   30.2450   43.3490 C   0  0  0  0  0  0  0  0  0  0  0  0
   57.4880   29.4630   44.4900 C   0  0  0  0  0  0  0  0  0  0  0  0
   57.3950   27.9530   44.4590 C   0  0  0  0  0  0  0  0  0  0  0  0
   58.2330   27.3190   45.5030 N   0  0  0  0  0  0  0  0  0  0  0  0
   57.6990   26.4450   46.4350 C   0  0  0  0  0  0  0  0  0  0  0  0
   56.2920   25.9760   46.3930 C   0  0  0  0  0  0  0  0  0  0  0  0
   55.3730   26.7420   45.9940 O   0  0  0  0  0  0  0  0  0  0  0  0
   55.9870   24.6260   46.7550 N   0  0  0  0  0  0  0  0  0  0  0  0
   55.0840   23.7860   45.9820 C   0  0  0  0  0  0  0  0  0  0  0  0
   55.8810   22.9450   45.0290 C   0  0  0  0  0  0  0  0  0  0  0  0
   55.8420   23.2000   43.6510 C   0  0  0  0  0  0  0  0  0  0  0  0
   56.6170   22.4340   42.7800 C   0  0  0  0  0  0  0  0  0  0  0  0
   57.4350   21.4260   43.2960 C   0  0  0  0  0  0  0  0  0  0  0  0
   57.4760   21.1990   44.6370 N   0  0  0  0  0  0  0  0  0  0  0  0
   56.7280   21.9330   45.5050 C   0  0  0  0  0  0  0  0  0  0  0  0
   58.5120   25.9460   47.4660 C   0  0  0  0  0  0  0  0  0  0  0  0
   59.8550   26.2940   47.5270 C   0  0  0  0  0  0  0  0  0  0  0  0
   60.3910   27.1380   46.5630 C   0  0  0  0  0  0  0  0  0  0  0  0
   59.5700   27.6460   45.5540 C   0  0  0  0  0  0  0  0  0  0  0  0
   60.0790   28.4160   44.6940 O   0  0  0  0  0  0  0  0  0  0  0  0
   57.7720   30.1090   45.7050 C   0  0  0  0  0  0  0  0  0  0  0  0
   57.8270   31.5030   45.7730 C   0  0  0  0  0  0  0  0  0  0  0  0
   57.6251   34.0837   45.7648 H   0  0  0  0  0  0  0  0  0  0  0  0
   58.5243   34.1578   44.2115 H   0  0  0  0  0  0  0  0  0  0  0  0
   56.7282   34.1818   44.2115 H   0  0  0  0  0  0  0  0  0  0  0  0
   57.0731   32.2421   42.5206 H   0  0  0  0  0  0  0  0  0  0  0  0
   56.9738   29.7548   42.3969 H   0  0  0  0  0  0  0  0  0  0  0  0
   56.3471   27.6593   44.6192 H   0  0  0  0  0  0  0  0  0  0  0  0
   57.7611   27.6123   43.4793 H   0  0  0  0  0  0  0  0  0  0  0  0
   54.5171   23.1332   46.6621 H   0  0  0  0  0  0  0  0  0  0  0  0
   54.3848   24.4200   45.4170 H   0  0  0  0  0  0  0  0  0  0  0  0
   55.2013   24.0028   43.2572 H   0  0  0  0  0  0  0  0  0  0  0  0
   56.5843   22.6220   41.6967 H   0  0  0  0  0  0  0  0  0  0  0  0
   58.0472   20.8145   42.6168 H   0  0  0  0  0  0  0  0  0  0  0  0
   58.0970   20.4450   45.0080 H   0  0  0  0  0  0  0  0  0  0  0  0
   56.7877   21.7319   46.5848 H   0  0  0  0  0  0  0  0  0  0  0  0
   58.0836   25.2776   48.2274 H   0  0  0  0  0  0  0  0  0  0  0  0
   60.4911   25.9031   48.3348 H   0  0  0  0  0  0  0  0  0  0  0  0
   61.4576   27.4052   46.5941 H   0  0  0  0  0  0  0  0  0  0  0  0
   57.9526   29.5115   46.6108 H   0  0  0  0  0  0  0  0  0  0  0  0
   58.0487   31.9957   46.7312 H   0  0  0  0  0  0  0  0  0  0  0  0
  1  2  1  0
  2  3  2  0
  3  4  1  0
  4  5  2  0
  5  6  1  0
  6  7  1  0
  7  8  1  0
  8  9  1  0
  9 10  2  0
  9 11  1  0
 11 12  1  0
 12 13  1  0
 13 14  2  0
 14 15  1  0
 15 16  2  0
 16 17  1  0
 17 18  2  0
  8 19  2  0
 19 20  1  0
 20 21  2  0
 21 22  1  0
 22 23  2  0
  5 24  1  0
 24 25  2  0
 25  2  1  0
 22  7  1  0
 18 13  1  0
  1 26  1  0
  1 27  1  0
  1 28  1  0
  3 29  1  0
  4 30  1  0
  6 31  1  0
  6 32  1  0
 12 33  1  0
 12 34  1  0
 14 35  1  0
 15 36  1  0
 16 37  1  0
 17 38  1  0
 18 39  1  0
 19 40  1  0
 20 41  1  0
 21 42  1  0
 24 43  1  0
 25 44  1  0
M  CHG  2  11  -1  17   1
M  END
>  <UniqueID>  (82) 
77

>  <SMILES>  (82) 
Cc1ccc(Cn2c(C(=O)[N-]Cc3ccc[nH+]c3)cccc2=O)cc1

>  <Energy>  (82) 
53.82319286975311

>  <Genealogy>  (82) 
Cc1ccc(Cn2c(C(=O)[N-]Cc3ccc[nH+]c3)cccc2=O)cc1 (protonated)
Cc1ccc(Cn2c(C(=O)[N-]Cc3ccc[nH+]c3)cccc2=O)cc1 (3D coordinates assigned)
Cc1ccc(Cn2c(C(=O)[N-]Cc3ccc[nH+]c3)cccc2=O)cc1 (optimized conformer: 53.82319286975311 kcal/mol)

>  <smiles>  (82) 
Cc1ccc(Cn2c(C(=O)NCc3cccnc3)cccc2=O)cc1

>  <score_type>  (82) 
oracle

>  <origin>  (82) 
adg

>  <m_score__min__energy>  (82) 
-9.0999999999999996

>  <m_primary>  (82) 
energy

$$$$
82:0
     RDKit          3D

 39 40  0  0  0  0  0  0  0  0999 V2000
   54.8070   26.3290   46.0230 N   0  0  0  0  0  0  0  0  0  0  0  0
   56.5030   25.9900   46.0350 S   0  0  0  0  0  0  0  0  0  0  0  0
   56.8190   24.9680   44.9800 O   0  0  0  0  0  0  0  0  0  0  0  0
   56.8770   25.4470   47.3870 O   0  0  0  0  0  0  0  0  0  0  0  0
   57.4170   27.4610   45.7150 C   0  0  0  0  0  0  0  0  0  0  0  0
   58.8110   27.4630   45.8600 C   0  0  0  0  0  0  0  0  0  0  0  0
   59.5440   28.6220   45.5910 C   0  0  0  0  0  0  0  0  0  0  0  0
   58.8890   29.7840   45.1760 C   0  0  0  0  0  0  0  0  0  0  0  0
   57.4940   29.8020   45.0410 C   0  0  0  0  0  0  0  0  0  0  0  0
   56.8640   31.0030   44.5770 N   0  0  0  0  0  0  0  0  0  0  0  0
   57.5220   32.1070   43.9410 C   0  0  0  0  0  0  0  0  0  0  0  0
   57.4180   32.2920   42.6990 O   0  0  0  0  0  0  0  0  0  0  0  0
   58.3590   33.0370   44.7590 C   0  0  0  0  0  0  0  0  0  0  0  0
   57.6510   33.4060   45.9390 O   0  0  0  0  0  0  0  0  0  0  0  0
   58.2880   33.7090   47.1480 C   0  0  0  0  0  0  0  0  0  0  0  0
   58.0650   33.0260   48.1850 O   0  0  0  0  0  0  0  0  0  0  0  0
   59.2900   34.8160   47.1910 C   0  0  0  0  0  0  0  0  0  0  0  0
   60.6400   34.2620   47.5620 C   0  0  0  0  0  0  0  0  0  0  0  0
   61.5740   33.9640   46.5520 C   0  0  0  0  0  0  0  0  0  0  0  0
   62.8190   33.4200   46.8780 C   0  0  0  0  0  0  0  0  0  0  0  0
   63.1400   33.1580   48.2130 C   0  0  0  0  0  0  0  0  0  0  0  0
   62.2130   33.4290   49.2220 C   0  0  0  0  0  0  0  0  0  0  0  0
   60.9580   33.9700   48.9040 C   0  0  0  0  0  0  0  0  0  0  0  0
   60.0270   34.2110   49.9160 O   0  0  0  0  0  0  0  0  0  0  0  0
   56.7610   28.6260   45.2910 C   0  0  0  0  0  0  0  0  0  0  0  0
   54.6420   27.0920   46.7170 H   0  0  0  0  0  0  0  0  0  0  0  0
   59.3297   26.5496   46.1865 H   0  0  0  0  0  0  0  0  0  0  0  0
   60.6379   28.6193   45.7062 H   0  0  0  0  0  0  0  0  0  0  0  0
   59.4715   30.6903   44.9538 H   0  0  0  0  0  0  0  0  0  0  0  0
   59.2977   32.5356   45.0372 H   0  0  0  0  0  0  0  0  0  0  0  0
   58.5832   33.9391   44.1708 H   0  0  0  0  0  0  0  0  0  0  0  0
   59.3498   35.2941   46.2022 H   0  0  0  0  0  0  0  0  0  0  0  0
   58.9814   35.5587   47.9414 H   0  0  0  0  0  0  0  0  0  0  0  0
   61.3222   34.1606   45.4994 H   0  0  0  0  0  0  0  0  0  0  0  0
   63.5469   33.1978   46.0837 H   0  0  0  0  0  0  0  0  0  0  0  0
   64.1238   32.7379   48.4692 H   0  0  0  0  0  0  0  0  0  0  0  0
   62.4680   33.2173   50.2709 H   0  0  0  0  0  0  0  0  0  0  0  0
   59.1190   33.7630   49.9180 H   0  0  0  0  0  0  0  0  0  0  0  0
   55.6697   28.6209   45.1532 H   0  0  0  0  0  0  0  0  0  0  0  0
  1  2  1  0
  2  3  2  0
  2  4  2  0
  2  5  1  0
  5  6  2  0
  6  7  1  0
  7  8  2  0
  8  9  1  0
  9 10  1  0
 10 11  1  0
 11 12  2  0
 11 13  1  0
 13 14  1  0
 14 15  1  0
 15 16  2  0
 15 17  1  0
 17 18  1  0
 18 19  2  0
 19 20  1  0
 20 21  2  0
 21 22  1  0
 22 23  2  0
 23 24  1  0
  9 25  2  0
 25  5  1  0
 23 18  1  0
  1 26  1  0
  6 27  1  0
  7 28  1  0
  8 29  1  0
 13 30  1  0
 13 31  1  0
 17 32  1  0
 17 33  1  0
 19 34  1  0
 20 35  1  0
 21 36  1  0
 22 37  1  0
 24 38  1  0
 25 39  1  0
M  CHG  2   1  -1  10  -1
M  END
>  <UniqueID>  (83) 
78

>  <SMILES>  (83) 
[NH-]S(=O)(=O)c1cccc([N-]C(=O)COC(=O)Cc2ccccc2O)c1

>  <Energy>  (83) 
35.22122066444876

>  <Genealogy>  (83) 
[NH-]S(=O)(=O)c1cccc([N-]C(=O)COC(=O)Cc2ccccc2O)c1 (protonated)
[NH-]S(=O)(=O)c1cccc([N-]C(=O)COC(=O)Cc2ccccc2O)c1 (3D coordinates assigned)
[NH-]S(=O)(=O)c1cccc([N-]C(=O)COC(=O)Cc2ccccc2O)c1 (optimized conformer: 35.22122066444876 kcal/mol)

>  <smiles>  (83) 
NS(=O)(=O)c1cccc(NC(=O)COC(=O)Cc2ccccc2O)c1

>  <score_type>  (83) 
oracle

>  <origin>  (83) 
adg

>  <m_score__min__energy>  (83) 
-11.640000000000001

>  <m_primary>  (83) 
energy

$$$$
83:0
     RDKit          3D

 41 42  0  0  0  0  0  0  0  0999 V2000
   54.7590   26.6870   45.0760 H   0  0  0  0  0  0  0  0  0  0  0  0
   55.2670   26.6610   45.9880 N   0  0  0  0  0  0  0  0  0  0  0  0
   56.6650   26.9250   46.0540 C   0  0  0  0  0  0  0  0  0  0  0  0
   57.3050   26.6580   47.1060 O   0  0  0  0  0  0  0  0  0  0  0  0
   57.3680   27.5460   44.8840 C   0  0  0  0  0  0  0  0  0  0  0  0
   56.6251   27.8231   44.1216 H   0  0  0  0  0  0  0  0  0  0  0  0
   58.0825   26.8177   44.4727 H   0  0  0  0  0  0  0  0  0  0  0  0
   58.1090   28.7560   45.3030 N   0  0  0  0  0  0  0  0  0  0  0  0
   59.4280   28.6790   45.7030 C   0  0  0  0  0  0  0  0  0  0  0  0
   60.1920   27.3770   45.7070 C   0  0  0  0  0  0  0  0  0  0  0  0
   60.3762   27.0631   46.7451 H   0  0  0  0  0  0  0  0  0  0  0  0
   59.6036   26.6050   45.1894 H   0  0  0  0  0  0  0  0  0  0  0  0
   61.1529   27.5141   45.1894 H   0  0  0  0  0  0  0  0  0  0  0  0
   60.0990   29.8460   46.0930 C   0  0  0  0  0  0  0  0  0  0  0  0
   61.1566   29.7986   46.3918 H   0  0  0  0  0  0  0  0  0  0  0  0
   59.4460   31.0310   46.1020 N   0  0  0  0  0  0  0  0  0  0  0  0
   58.1420   31.1250   45.7380 C   0  0  0  0  0  0  0  0  0  0  0  0
   57.5270   32.2720   45.7610 N   0  0  0  0  0  0  0  0  0  0  0  0
   57.4400   33.1780   44.6200 C   0  0  0  0  0  0  0  0  0  0  0  0
   57.8779   32.6942   43.7345 H   0  0  0  0  0  0  0  0  0  0  0  0
   56.3845   33.4185   44.4249 H   0  0  0  0  0  0  0  0  0  0  0  0
   58.2040   34.4640   44.9260 C   0  0  0  0  0  0  0  0  0  0  0  0
   58.1692   35.1247   44.0472 H   0  0  0  0  0  0  0  0  0  0  0  0
   57.7374   34.9608   45.7894 H   0  0  0  0  0  0  0  0  0  0  0  0
   59.5540   34.1710   45.2370 O   0  0  0  0  0  0  0  0  0  0  0  0
   59.8540   34.4980   46.5810 C   0  0  0  0  0  0  0  0  0  0  0  0
   60.0796   35.5724   46.6506 H   0  0  0  0  0  0  0  0  0  0  0  0
   58.9857   34.2518   47.2098 H   0  0  0  0  0  0  0  0  0  0  0  0
   61.0440   33.7090   47.0620 C   0  0  0  0  0  0  0  0  0  0  0  0
   60.9410   32.8730   48.1870 C   0  0  0  0  0  0  0  0  0  0  0  0
   59.9809   32.7808   48.7158 H   0  0  0  0  0  0  0  0  0  0  0  0
   62.0560   32.1580   48.6360 C   0  0  0  0  0  0  0  0  0  0  0  0
   61.9709   31.5029   49.5155 H   0  0  0  0  0  0  0  0  0  0  0  0
   63.2790   32.2750   47.9680 C   0  0  0  0  0  0  0  0  0  0  0  0
   64.1546   31.7105   48.3210 H   0  0  0  0  0  0  0  0  0  0  0  0
   63.3890   33.1090   46.8520 C   0  0  0  0  0  0  0  0  0  0  0  0
   64.3519   33.2015   46.3284 H   0  0  0  0  0  0  0  0  0  0  0  0
   62.2770   33.8260   46.4000 C   0  0  0  0  0  0  0  0  0  0  0  0
   62.3682   34.4838   45.5231 H   0  0  0  0  0  0  0  0  0  0  0  0
   57.4580   29.9670   45.3360 C   0  0  0  0  0  0  0  0  0  0  0  0
   56.2410   30.0520   45.0080 O   0  0  0  0  0  0  0  0  0  0  0  0
  1  2  1  0
  2  3  1  0
  3  4  2  0
  3  5  1  0
  5  6  1  0
  5  7  1  0
  5  8  1  0
  8  9  1  0
  9 10  1  0
 10 11  1  0
 10 12  1  0
 10 13  1  0
  9 14  2  0
 14 15  1  0
 14 16  1  0
 16 17  1  0
 17 18  2  0
 18 19  1  0
 19 20  1  0
 19 21  1  0
 19 22  1  0
 22 23  1  0
 22 24  1  0
 22 25  1  0
 25 26  1  0
 26 27  1  0
 26 28  1  0
 26 29  1  0
 29 30  2  0
 30 31  1  0
 30 32  1  0
 32 33  1  0
 32 34  2  0
 34 35  1  0
 34 36  1  0
 36 37  1  0
 36 38  2  0
 38 39  1  0
 17 40  1  0
 40 41  2  0
 40  8  1  0
 38 29  1  0
M  CHG  2   2  -1  16  -1
M  END
>  <UniqueID>  (84) 
79

>  <SMILES>  (84) 
Cc1c[n-]/c(=N\CCOCc2ccccc2)c(=O)n1CC([NH-])=O

>  <Energy>  (84) 
45.91652520731653

>  <Genealogy>  (84) 
Cc1c[n-]c(=NCCOCc2ccccc2)c(=O)n1CC([NH-])=O (protonated)
Cc1c[n-]/c(=N\CCOCc2ccccc2)c(=O)n1CC([NH-])=O (cis-trans isomerization)
Cc1c[n-]/c(=N\CCOCc2ccccc2)c(=O)n1CC([NH-])=O (3D coordinates assigned)
Cc1c[n-]/c(=N\CCOCc2ccccc2)c(=O)n1CC([NH-])=O (optimized conformer: 45.91652520731653 kcal/mol)

>  <smiles>  (84) 
Cc1c[nH]c(=NCCOCc2ccccc2)c(=O)n1CC(N)=O

>  <score_type>  (84) 
oracle

>  <origin>  (84) 
adg

>  <m_score__min__energy>  (84) 
-11.91

>  <m_primary>  (84) 
energy

$$$$
84:0
     RDKit          3D

 59 63  0  0  0  0  0  0  0  0999 V2000
   66.3000   32.9550   48.6160 H   0  0  0  0  0  0  0  0  0  0  0  0
   65.5870   32.9840   49.3330 O   0  0  0  0  0  0  0  0  0  0  0  0
   64.2420   33.2430   49.0580 C   0  0  0  0  0  0  0  0  0  0  0  0
   63.7540   32.9390   47.7820 C   0  0  0  0  0  0  0  0  0  0  0  0
   64.4297   32.5096   47.0276 H   0  0  0  0  0  0  0  0  0  0  0  0
   62.4180   33.1760   47.4590 C   0  0  0  0  0  0  0  0  0  0  0  0
   62.0513   32.9519   46.4464 H   0  0  0  0  0  0  0  0  0  0  0  0
   61.5400   33.6990   48.4200 C   0  0  0  0  0  0  0  0  0  0  0  0
   60.1760   34.0060   48.0920 N   0  0  0  0  0  0  0  0  0  0  0  0
   59.5480   33.7680   46.9700 C   0  0  0  0  0  0  0  0  0  0  0  0
   59.2630   34.7920   46.0430 C   0  0  0  0  0  0  0  0  0  0  0  0
   59.5629   35.8281   46.2586 H   0  0  0  0  0  0  0  0  0  0  0  0
   58.6010   34.4910   44.8530 C   0  0  0  0  0  0  0  0  0  0  0  0
   58.3705   35.2936   44.1370 H   0  0  0  0  0  0  0  0  0  0  0  0
   58.2400   33.2140   44.5740 N   0  0  0  0  0  0  0  0  0  0  0  0
   58.5060   32.1920   45.4270 C   0  0  0  0  0  0  0  0  0  0  0  0
   58.1170   30.8900   45.0880 C   0  0  0  0  0  0  0  0  0  0  0  0
   57.5941   30.7079   44.1375 H   0  0  0  0  0  0  0  0  0  0  0  0
   58.3880   29.8140   45.9500 C   0  0  0  0  0  0  0  0  0  0  0  0
   57.9750   28.4340   45.5870 C   0  0  0  0  0  0  0  0  0  0  0  0
   58.1650   27.9510   44.2840 C   0  0  0  0  0  0  0  0  0  0  0  0
   58.6244   28.6008   43.5245 H   0  0  0  0  0  0  0  0  0  0  0  0
   57.7770   26.6530   43.9400 C   0  0  0  0  0  0  0  0  0  0  0  0
   57.9372   26.2961   42.9119 H   0  0  0  0  0  0  0  0  0  0  0  0
   57.1820   25.7900   44.8900 C   0  0  0  0  0  0  0  0  0  0  0  0
   56.7750   24.4300   44.5320 N   0  0  0  0  0  0  0  0  0  0  0  0
   56.6650   23.4140   45.6030 C   0  0  0  0  0  0  0  0  0  0  0  0
   57.6621   23.2763   46.0466 H   0  0  0  0  0  0  0  0  0  0  0  0
   55.9196   23.7973   46.3154 H   0  0  0  0  0  0  0  0  0  0  0  0
   56.1540   22.0410   45.1440 C   0  0  0  0  0  0  0  0  0  0  0  0
   56.5065   21.2804   45.8563 H   0  0  0  0  0  0  0  0  0  0  0  0
   55.0559   22.0952   45.1085 H   0  0  0  0  0  0  0  0  0  0  0  0
   56.6170   21.6730   43.8010 N   0  0  0  0  0  0  0  0  0  0  0  0
   58.0740   21.4620   43.7320 C   0  0  0  0  0  0  0  0  0  0  0  0
   58.4845   21.4025   44.7508 H   0  0  0  0  0  0  0  0  0  0  0  0
   58.2837   20.5241   43.1969 H   0  0  0  0  0  0  0  0  0  0  0  0
   58.5412   22.3019   43.1969 H   0  0  0  0  0  0  0  0  0  0  0  0
   56.1340   22.6570   42.8260 C   0  0  0  0  0  0  0  0  0  0  0  0
   56.4721   22.3523   41.8246 H   0  0  0  0  0  0  0  0  0  0  0  0
   55.0369   22.6812   42.9014 H   0  0  0  0  0  0  0  0  0  0  0  0
   56.6420   24.0780   43.1010 C   0  0  0  0  0  0  0  0  0  0  0  0
   57.6307   24.1836   42.6306 H   0  0  0  0  0  0  0  0  0  0  0  0
   55.8851   24.7600   42.6864 H   0  0  0  0  0  0  0  0  0  0  0  0
   57.0060   26.2890   46.2030 C   0  0  0  0  0  0  0  0  0  0  0  0
   56.5558   25.6426   46.9708 H   0  0  0  0  0  0  0  0  0  0  0  0
   57.3940   27.5880   46.5410 C   0  0  0  0  0  0  0  0  0  0  0  0
   57.2416   27.9508   47.5682 H   0  0  0  0  0  0  0  0  0  0  0  0
   59.0540   30.0630   47.1620 C   0  0  0  0  0  0  0  0  0  0  0  0
   59.2714   29.2284   47.8448 H   0  0  0  0  0  0  0  0  0  0  0  0
   59.4430   31.3590   47.5090 C   0  0  0  0  0  0  0  0  0  0  0  0
   59.9623   31.5358   48.4624 H   0  0  0  0  0  0  0  0  0  0  0  0
   59.1760   32.4400   46.6490 C   0  0  0  0  0  0  0  0  0  0  0  0
   62.0290   34.0380   49.6870 C   0  0  0  0  0  0  0  0  0  0  0  0
   61.3538   34.4924   50.4271 H   0  0  0  0  0  0  0  0  0  0  0  0
   63.3740   33.8040   50.0240 C   0  0  0  0  0  0  0  0  0  0  0  0
   63.8680   34.1570   51.4000 C   0  0  0  0  0  0  0  0  0  0  0  0
   63.2164   33.6914   52.1541 H   0  0  0  0  0  0  0  0  0  0  0  0
   64.8966   33.7881   51.5261 H   0  0  0  0  0  0  0  0  0  0  0  0
   63.8523   35.2496   51.5261 H   0  0  0  0  0  0  0  0  0  0  0  0
  1  2  1  0
  2  3  1  0
  3  4  2  0
  4  5  1  0
  4  6  1  0
  6  7  1  0
  6  8  2  0
  8  9  1  0
  9 10  2  0
 10 11  1  0
 11 12  1  0
 11 13  2  0
 13 14  1  0
 13 15  1  0
 15 16  1  0
 16 17  2  0
 17 18  1  0
 17 19  1  0
 19 20  1  0
 20 21  2  0
 21 22  1  0
 21 23  1  0
 23 24  1  0
 23 25  2  0
 25 26  1  0
 26 27  1  0
 27 28  1  0
 27 29  1  0
 27 30  1  0
 30 31  1  0
 30 32  1  0
 30 33  1  0
 33 34  1  0
 34 35  1  0
 34 36  1  0
 34 37  1  0
 33 38  1  0
 38 39  1  0
 38 40  1  0
 38 41  1  0
 41 42  1  0
 41 43  1  0
 25 44  1  0
 44 45  1  0
 44 46  2  0
 46 47  1  0
 19 48  2  0
 48 49  1  0
 48 50  1  0
 50 51  1  0
 50 52  2  0
  8 53  1  0
 53 54  1  0
 53 55  2  0
 55 56  1  0
 56 57  1  0
 56 58  1  0
 56 59  1  0
 55  3  1  0
 52 10  1  0
 52 16  1  0
 46 20  1  0
 41 26  1  0
M  CHG  1  15  -1
M  END
>  <UniqueID>  (85) 
80

>  <SMILES>  (85) 
Cc1cc(/N=c2\cc[n-]c3cc(-c4ccc(N5CCN(C)CC5)cc4)ccc23)ccc1O

>  <Energy>  (85) 
95.75937566371876

>  <Genealogy>  (85) 
Cc1cc(N=c2cc[n-]c3cc(-c4ccc(N5CCN(C)CC5)cc4)ccc23)ccc1O (protonated)
Cc1cc(/N=c2\cc[n-]c3cc(-c4ccc(N5CCN(C)CC5)cc4)ccc23)ccc1O (cis-trans isomerization)
Cc1cc(/N=c2\cc[n-]c3cc(-c4ccc(N5CCN(C)CC5)cc4)ccc23)ccc1O (3D coordinates assigned)
Cc1cc(/N=c2\cc[n-]c3cc(-c4ccc(N5CCN(C)CC5)cc4)ccc23)ccc1O (nonaromatic ring conformer: 95.75937566371876 kcal/mol)

>  <smiles>  (85) 
Cc1cc(N=c2cc[nH]c3cc(-c4ccc(N5CCN(C)CC5)cc4)ccc23)ccc1O

>  <score_type>  (85) 
oracle

>  <origin>  (85) 
adg

>  <m_score__min__energy>  (85) 
-10.300000000000001

>  <m_primary>  (85) 
energy

$$$$
85:0
     RDKit          3D

 54 54  0  0  0  0  0  0  0  0999 V2000
   59.0446   32.7649   49.1687 H   0  0  0  0  0  0  0  0  0  0  0  0
   59.4590   33.4440   48.4090 C   0  0  0  0  0  0  0  0  0  0  0  0
   60.4870   34.2320   48.7490 C   0  0  0  0  0  0  0  0  0  0  0  0
   60.5632   35.2355   48.3050 H   0  0  0  0  0  0  0  0  0  0  0  0
   61.5380   33.7800   49.7210 C   0  0  0  0  0  0  0  0  0  0  0  0
   61.4116   32.7022   49.9008 H   0  0  0  0  0  0  0  0  0  0  0  0
   61.4103   34.3628   50.6451 H   0  0  0  0  0  0  0  0  0  0  0  0
   62.9680   34.0300   49.2050 C   0  0  0  0  0  0  0  0  0  0  0  0
   63.5746   34.4139   50.0384 H   0  0  0  0  0  0  0  0  0  0  0  0
   62.8868   34.7478   48.3755 H   0  0  0  0  0  0  0  0  0  0  0  0
   63.6580   32.7730   48.6420 C   0  0  0  0  0  0  0  0  0  0  0  0
   63.2916   31.8959   49.1956 H   0  0  0  0  0  0  0  0  0  0  0  0
   64.7422   32.9151   48.7616 H   0  0  0  0  0  0  0  0  0  0  0  0
   63.3900   32.5520   47.1450 C   0  0  0  0  0  0  0  0  0  0  0  0
   62.4354   32.0186   47.0261 H   0  0  0  0  0  0  0  0  0  0  0  0
   64.2182   31.9619   46.7258 H   0  0  0  0  0  0  0  0  0  0  0  0
   63.3150   33.8800   46.3970 C   0  0  0  0  0  0  0  0  0  0  0  0
   63.2683   34.7066   47.1212 H   0  0  0  0  0  0  0  0  0  0  0  0
   64.2080   33.9960   45.7653 H   0  0  0  0  0  0  0  0  0  0  0  0
   62.4146   33.8947   45.7653 H   0  0  0  0  0  0  0  0  0  0  0  0
   58.8550   33.4450   47.0580 C   0  0  0  0  0  0  0  0  0  0  0  0
   59.1980   34.4680   46.1620 C   0  0  0  0  0  0  0  0  0  0  0  0
   59.8988   35.2562   46.4745 H   0  0  0  0  0  0  0  0  0  0  0  0
   58.6550   34.4920   44.8750 C   0  0  0  0  0  0  0  0  0  0  0  0
   58.9199   35.3046   44.1826 H   0  0  0  0  0  0  0  0  0  0  0  0
   57.7770   33.4870   44.4660 C   0  0  0  0  0  0  0  0  0  0  0  0
   57.3488   33.5157   43.4532 H   0  0  0  0  0  0  0  0  0  0  0  0
   57.4370   32.4430   45.3340 C   0  0  0  0  0  0  0  0  0  0  0  0
   56.5650   31.4480   44.8610 O   0  0  0  0  0  0  0  0  0  0  0  0
   56.7780   30.6370   43.7050 C   0  0  0  0  0  0  0  0  0  0  0  0
   55.8105   30.2520   43.3505 H   0  0  0  0  0  0  0  0  0  0  0  0
   57.2531   31.2500   42.9249 H   0  0  0  0  0  0  0  0  0  0  0  0
   57.7000   29.4560   44.0350 C   0  0  0  0  0  0  0  0  0  0  0  0
   57.5835   28.6859   43.2582 H   0  0  0  0  0  0  0  0  0  0  0  0
   58.7339   29.8300   44.0705 H   0  0  0  0  0  0  0  0  0  0  0  0
   57.3710   28.8380   45.3990 C   0  0  0  0  0  0  0  0  0  0  0  0
   58.2182   28.2164   45.7245 H   0  0  0  0  0  0  0  0  0  0  0  0
   57.1889   29.6532   46.1147 H   0  0  0  0  0  0  0  0  0  0  0  0
   56.1690   28.0070   45.3300 N   0  0  0  0  0  0  0  0  0  0  0  0
   55.3820   28.3490   44.7380 H   0  0  0  0  0  0  0  0  0  0  0  0
   56.0690   26.7420   46.0060 C   0  0  0  0  0  0  0  0  0  0  0  0
   57.0500   26.2990   46.6630 O   0  0  0  0  0  0  0  0  0  0  0  0
   54.8660   25.9610   45.9600 N   0  0  0  0  0  0  0  0  0  0  0  0
   54.7610   24.5930   45.4660 C   0  0  0  0  0  0  0  0  0  0  0  0
   53.7454   24.4252   45.0782 H   0  0  0  0  0  0  0  0  0  0  0  0
   55.5017   24.4459   44.6661 H   0  0  0  0  0  0  0  0  0  0  0  0
   55.0420   23.5940   46.5900 C   0  0  0  0  0  0  0  0  0  0  0  0
   54.0891   23.2609   47.0271 H   0  0  0  0  0  0  0  0  0  0  0  0
   55.5865   22.7319   46.1773 H   0  0  0  0  0  0  0  0  0  0  0  0
   55.8550   24.2200   47.6260 N   0  0  0  0  0  0  0  0  0  0  0  0
   56.8390   24.2790   47.2780 H   0  0  0  0  0  0  0  0  0  0  0  0
   55.5220   25.2050   47.7410 H   0  0  0  0  0  0  0  0  0  0  0  0
   57.9870   32.4220   46.6310 C   0  0  0  0  0  0  0  0  0  0  0  0
   57.7360   31.5989   47.3162 H   0  0  0  0  0  0  0  0  0  0  0  0
  1  2  1  0
  2  3  2  0
  3  4  1  0
  3  5  1  0
  5  6  1  0
  5  7  1  0
  5  8  1  0
  8  9  1  0
  8 10  1  0
  8 11  1  0
 11 12  1  0
 11 13  1  0
 11 14  1  0
 14 15  1  0
 14 16  1  0
 14 17  1  0
 17 18  1  0
 17 19  1  0
 17 20  1  0
  2 21  1  0
 21 22  2  0
 22 23  1  0
 22 24  1  0
 24 25  1  0
 24 26  2  0
 26 27  1  0
 26 28  1  0
 28 29  1  0
 29 30  1  0
 30 31  1  0
 30 32  1  0
 30 33  1  0
 33 34  1  0
 33 35  1  0
 33 36  1  0
 36 37  1  0
 36 38  1  0
 36 39  1  0
 39 40  1  0
 39 41  1  0
 41 42  2  0
 41 43  1  0
 43 44  1  0
 44 45  1  0
 44 46  1  0
 44 47  1  0
 47 48  1  0
 47 49  1  0
 47 50  1  0
 50 51  1  0
 50 52  1  0
 28 53  2  0
 53 54  1  0
 53 21  1  0
M  CHG  1  43  -1
M  END
>  <UniqueID>  (86) 
81

>  <SMILES>  (86) 
CCCCC/C=C/c1cccc(OCCCNC(=O)[N-]CCN)c1

>  <Energy>  (86) 
33.06148756776455

>  <Genealogy>  (86) 
CCCCCC=Cc1cccc(OCCCNC(=O)[N-]CCN)c1 (protonated)
CCCCC/C=C/c1cccc(OCCCNC(=O)[N-]CCN)c1 (cis-trans isomerization)
CCCCC/C=C/c1cccc(OCCCNC(=O)[N-]CCN)c1 (3D coordinates assigned)
CCCCC/C=C/c1cccc(OCCCNC(=O)[N-]CCN)c1 (optimized conformer: 33.06148756776455 kcal/mol)

>  <smiles>  (86) 
CCCCCC=Cc1cccc(OCCCNC(=O)NCCN)c1

>  <score_type>  (86) 
oracle

>  <origin>  (86) 
adg

>  <m_score__min__energy>  (86) 
-9.6899999999999995

>  <m_primary>  (86) 
energy

$$$$
86:0
     RDKit          3D

 60 63  0  0  0  0  0  0  0  0999 V2000
   58.1420   28.1280   43.9090 C   0  0  0  0  0  0  0  0  0  0  0  0
   58.1070   28.0540   45.3310 O   0  0  0  0  0  0  0  0  0  0  0  0
   58.4770   29.1010   46.1880 C   0  0  0  0  0  0  0  0  0  0  0  0
   59.4910   28.9590   47.1530 C   0  0  0  0  0  0  0  0  0  0  0  0
   59.8210   30.0260   47.9920 C   0  0  0  0  0  0  0  0  0  0  0  0
   59.1590   31.2620   47.8750 C   0  0  0  0  0  0  0  0  0  0  0  0
   59.4490   32.4140   48.8330 C   0  0  2  0  0  0  0  0  0  0  0  0
   60.9320   32.7570   48.9960 C   0  0  0  0  0  0  0  0  0  0  0  0
   61.3680   33.3100   50.2110 C   0  0  0  0  0  0  0  0  0  0  0  0
   62.6850   33.6330   50.3940 N   0  0  0  0  0  0  0  0  0  0  0  0
   63.1280   34.1680   51.6930 C   0  0  0  0  0  0  0  0  0  0  0  0
   63.5690   33.5290   49.3510 C   0  0  0  0  0  0  0  0  0  0  0  0
   64.7850   33.8290   49.5290 O   0  0  0  0  0  0  0  0  0  0  0  0
   63.1440   33.1240   48.1130 N   0  0  0  0  0  0  0  0  0  0  0  0
   64.1050   33.0330   46.9980 C   0  0  0  0  0  0  0  0  0  0  0  0
   61.8420   32.7460   47.9210 C   0  0  0  0  0  0  0  0  0  0  0  0
   61.4490   32.4080   46.7710 O   0  0  0  0  0  0  0  0  0  0  0  0
   60.4070   33.6120   51.2380 N   0  0  0  0  0  0  0  0  0  0  0  0
   59.1840   33.1770   51.2300 C   0  0  0  0  0  0  0  0  0  0  0  0
   58.2710   33.5650   52.3520 C   0  0  0  0  0  0  0  0  0  0  0  0
   58.7430   32.1660   50.1980 C   0  0  2  0  0  0  0  0  0  0  0  0
   58.9660   30.7730   50.7490 C   0  0  0  0  0  0  0  0  0  0  0  0
   58.1430   29.8530   50.4850 O   0  0  0  0  0  0  0  0  0  0  0  0
   60.1170   30.5040   51.5670 N   0  0  0  0  0  0  0  0  0  0  0  0
   60.4990   29.1820   51.9820 C   0  0  0  0  0  0  0  0  0  0  0  0
   59.5860   28.4190   52.7260 C   0  0  0  0  0  0  0  0  0  0  0  0
   59.9140   27.1280   53.1410 C   0  0  0  0  0  0  0  0  0  0  0  0
   61.1510   26.5800   52.8040 C   0  0  0  0  0  0  0  0  0  0  0  0
   62.0590   27.3160   52.0400 C   0  0  0  0  0  0  0  0  0  0  0  0
   61.7390   28.6200   51.6090 C   0  0  0  0  0  0  0  0  0  0  0  0
   62.6110   29.3610   50.7980 O   0  0  0  0  0  0  0  0  0  0  0  0
   63.3890   30.4670   51.2450 C   0  0  0  0  0  0  0  0  0  0  0  0
   58.1400   31.3960   46.9170 C   0  0  0  0  0  0  0  0  0  0  0  0
   57.8060   30.3270   46.0780 C   0  0  0  0  0  0  0  0  0  0  0  0
   56.7980   30.4850   45.1350 O   0  0  0  0  0  0  0  0  0  0  0  0
   58.5937   29.0830   43.6025 H   0  0  0  0  0  0  0  0  0  0  0  0
   58.7416   27.2951   43.5131 H   0  0  0  0  0  0  0  0  0  0  0  0
   57.1178   28.0631   43.5131 H   0  0  0  0  0  0  0  0  0  0  0  0
   60.0266   28.0029   47.2473 H   0  0  0  0  0  0  0  0  0  0  0  0
   60.6062   29.8986   48.7517 H   0  0  0  0  0  0  0  0  0  0  0  0
   59.0240   33.3159   48.3683 H   0  0  0  0  0  0  0  0  0  0  0  0
   62.6550   33.5968   52.5054 H   0  0  0  0  0  0  0  0  0  0  0  0
   64.2217   34.0806   51.7718 H   0  0  0  0  0  0  0  0  0  0  0  0
   62.8381   35.2262   51.7718 H   0  0  0  0  0  0  0  0  0  0  0  0
   65.1245   32.9365   47.3996 H   0  0  0  0  0  0  0  0  0  0  0  0
   63.8690   32.1532   46.3814 H   0  0  0  0  0  0  0  0  0  0  0  0
   64.0383   33.9415   46.3814 H   0  0  0  0  0  0  0  0  0  0  0  0
   58.7625   33.3561   53.3136 H   0  0  0  0  0  0  0  0  0  0  0  0
   58.0412   34.6385   52.2832 H   0  0  0  0  0  0  0  0  0  0  0  0
   57.3387   32.9853   52.2832 H   0  0  0  0  0  0  0  0  0  0  0  0
   57.6678   32.2758   49.9931 H   0  0  0  0  0  0  0  0  0  0  0  0
   60.8230   31.2660   51.6840 H   0  0  0  0  0  0  0  0  0  0  0  0
   58.6040   28.8421   52.9840 H   0  0  0  0  0  0  0  0  0  0  0  0
   59.1964   26.5422   53.7343 H   0  0  0  0  0  0  0  0  0  0  0  0
   61.4121   25.5659   53.1406 H   0  0  0  0  0  0  0  0  0  0  0  0
   63.0308   26.8755   51.7725 H   0  0  0  0  0  0  0  0  0  0  0  0
   63.4020   30.4855   52.3448 H   0  0  0  0  0  0  0  0  0  0  0  0
   64.4175   30.3681   50.8677 H   0  0  0  0  0  0  0  0  0  0  0  0
   62.9483   31.4016   50.8677 H   0  0  0  0  0  0  0  0  0  0  0  0
   57.5999   32.3499   46.8257 H   0  0  0  0  0  0  0  0  0  0  0  0
  1  2  1  0
  2  3  1  0
  3  4  2  0
  4  5  1  0
  5  6  2  0
  6  7  1  0
  7  8  1  0
  8  9  2  0
  9 10  1  0
 10 11  1  0
 10 12  1  0
 12 13  2  0
 12 14  1  0
 14 15  1  0
 14 16  1  0
 16 17  2  0
  9 18  1  0
 18 19  2  0
 19 20  1  0
 19 21  1  0
 21 22  1  0
 22 23  2  0
 22 24  1  0
 24 25  1  0
 25 26  2  0
 26 27  1  0
 27 28  2  0
 28 29  1  0
 29 30  2  0
 30 31  1  0
 31 32  1  0
  6 33  1  0
 33 34  2  0
 34 35  1  0
 34  3  1  0
 21  7  1  0
 30 25  1  0
 16  8  1  0
  1 36  1  0
  1 37  1  0
  1 38  1  0
  4 39  1  0
  5 40  1  0
  7 41  1  6
 11 42  1  0
 11 43  1  0
 11 44  1  0
 15 45  1  0
 15 46  1  0
 15 47  1  0
 20 48  1  0
 20 49  1  0
 20 50  1  0
 21 51  1  6
 24 52  1  0
 26 53  1  0
 27 54  1  0
 28 55  1  0
 29 56  1  0
 32 57  1  0
 32 58  1  0
 32 59  1  0
 33 60  1  0
M  CHG  1  35  -1
M  END
>  <UniqueID>  (87) 
82

>  <SMILES>  (87) 
COc1ccc([C@@H]2c3c(n(C)c(=O)n(C)c3=O)N=C(C)[C@@H]2C(=O)Nc2ccccc2OC)cc1[O-]

>  <Energy>  (87) 
80.10171134686762

>  <Genealogy>  (87) 
COc1ccc(C2c3c(n(C)c(=O)n(C)c3=O)N=C(C)C2C(=O)Nc2ccccc2OC)cc1[O-] (protonated)
COc1ccc([C@@H]2c3c(n(C)c(=O)n(C)c3=O)N=C(C)[C@@H]2C(=O)Nc2ccccc2OC)cc1[O-] (chirality)
COc1ccc([C@@H]2c3c(n(C)c(=O)n(C)c3=O)N=C(C)[C@@H]2C(=O)Nc2ccccc2OC)cc1[O-] (3D coordinates assigned)
COc1ccc([C@@H]2c3c(n(C)c(=O)n(C)c3=O)N=C(C)[C@@H]2C(=O)Nc2ccccc2OC)cc1[O-] (nonaromatic ring conformer: 80.10171134686762 kcal/mol)

>  <smiles>  (87) 
COc1ccc(C2c3c(n(C)c(=O)n(C)c3=O)N=C(C)C2C(=O)Nc2ccccc2OC)cc1O

>  <score_type>  (87) 
oracle

>  <origin>  (87) 
adg

>  <m_score__min__energy>  (87) 
-8.0999999999999996

>  <m_primary>  (87) 
energy

$$$$
87:0
     RDKit          3D

 51 55  0  0  0  0  0  0  0  0999 V2000
   54.8400   26.0770   45.9900 O   0  0  0  0  0  0  0  0  0  0  0  0
   56.0850   25.9620   45.8250 C   0  0  0  0  0  0  0  0  0  0  0  0
   56.6670   24.6710   45.6120 N   0  0  0  0  0  0  0  0  0  0  0  0
   55.8500   23.4640   45.5550 C   0  0  0  0  0  0  0  0  0  0  0  0
   55.0390   23.3310   44.2780 C   0  0  0  0  0  0  0  0  0  0  0  0
   56.2900   22.4890   44.4760 C   0  0  0  0  0  0  0  0  0  0  0  0
   56.9490   27.1930   45.7960 C   0  0  2  0  0  0  0  0  0  0  0  0
   56.2310   28.2620   45.2210 O   0  0  0  0  0  0  0  0  0  0  0  0
   57.0880   28.9600   44.3470 C   0  0  1  0  0  0  0  0  0  0  0  0
   57.4110   30.2780   44.9100 N   0  0  0  0  0  0  0  0  0  0  0  0
   56.9520   31.4810   44.4790 C   0  0  0  0  0  0  0  0  0  0  0  0
   57.3870   32.5300   45.2290 N   0  0  0  0  0  0  0  0  0  0  0  0
   58.1490   31.9310   46.1620 C   0  0  0  0  0  0  0  0  0  0  0  0
   58.8450   32.4920   47.2250 C   0  0  0  0  0  0  0  0  0  0  0  0
   58.8240   34.2560   47.5490 S   0  0  0  0  0  0  0  0  0  0  0  0
   60.3410   34.6110   46.5890 C   0  0  0  0  0  0  0  0  0  0  0  0
   61.5590   34.0360   47.2620 C   0  0  0  0  0  0  0  0  0  0  0  0
   62.6280   33.5410   46.4960 C   0  0  0  0  0  0  0  0  0  0  0  0
   63.7700   33.0350   47.1250 C   0  0  0  0  0  0  0  0  0  0  0  0
   63.8530   33.0210   48.5200 C   0  0  0  0  0  0  0  0  0  0  0  0
   62.7950   33.5170   49.2880 C   0  0  0  0  0  0  0  0  0  0  0  0
   61.6520   34.0240   48.6630 C   0  0  0  0  0  0  0  0  0  0  0  0
   59.5460   31.6480   48.0400 N   0  0  0  0  0  0  0  0  0  0  0  0
   59.5540   30.2920   47.8260 C   0  0  0  0  0  0  0  0  0  0  0  0
   58.8540   29.7510   46.7850 N   0  0  0  0  0  0  0  0  0  0  0  0
   58.1620   30.5910   45.9770 C   0  0  0  0  0  0  0  0  0  0  0  0
   58.3300   28.1130   44.0450 C   0  0  1  0  0  0  0  0  0  0  0  0
   59.5190   28.8510   44.1910 O   0  0  0  0  0  0  0  0  0  0  0  0
   58.2430   26.9470   45.0150 C   0  0  1  0  0  0  0  0  0  0  0  0
   59.3360   26.9070   45.8980 O   0  0  0  0  0  0  0  0  0  0  0  0
   57.6880   24.5970   45.3950 H   0  0  0  0  0  0  0  0  0  0  0  0
   55.6256   23.3942   46.6296 H   0  0  0  0  0  0  0  0  0  0  0  0
   54.0469   22.8565   44.3034 H   0  0  0  0  0  0  0  0  0  0  0  0
   54.6854   24.0289   43.5048 H   0  0  0  0  0  0  0  0  0  0  0  0
   56.2029   21.4055   44.6448 H   0  0  0  0  0  0  0  0  0  0  0  0
   57.2163   22.3254   43.9057 H   0  0  0  0  0  0  0  0  0  0  0  0
   57.2235   27.4474   46.8304 H   0  0  0  0  0  0  0  0  0  0  0  0
   56.5852   29.1396   43.3853 H   0  0  0  0  0  0  0  0  0  0  0  0
   56.2916   31.5967   43.6069 H   0  0  0  0  0  0  0  0  0  0  0  0
   60.2428   34.1689   45.5866 H   0  0  0  0  0  0  0  0  0  0  0  0
   60.4630   35.7021   46.5218 H   0  0  0  0  0  0  0  0  0  0  0  0
   62.5664   33.5515   45.3978 H   0  0  0  0  0  0  0  0  0  0  0  0
   64.6038   32.6476   46.5211 H   0  0  0  0  0  0  0  0  0  0  0  0
   64.7504   32.6199   49.0137 H   0  0  0  0  0  0  0  0  0  0  0  0
   62.8622   33.5082   50.3859 H   0  0  0  0  0  0  0  0  0  0  0  0
   60.8226   34.4149   49.2708 H   0  0  0  0  0  0  0  0  0  0  0  0
   60.1280   29.6365   48.4974 H   0  0  0  0  0  0  0  0  0  0  0  0
   58.3547   27.7689   43.0005 H   0  0  0  0  0  0  0  0  0  0  0  0
   59.7030   28.9040   45.1650 H   0  0  0  0  0  0  0  0  0  0  0  0
   58.2539   25.9854   44.4809 H   0  0  0  0  0  0  0  0  0  0  0  0
   59.5660   27.8500   46.1100 H   0  0  0  0  0  0  0  0  0  0  0  0
  1  2  2  0
  2  3  1  0
  3  4  1  0
  4  5  1  0
  5  6  1  0
  2  7  1  0
  7  8  1  0
  8  9  1  0
  9 10  1  0
 10 11  1  0
 11 12  2  0
 12 13  1  0
 13 14  2  0
 14 15  1  0
 15 16  1  0
 16 17  1  0
 17 18  2  0
 18 19  1  0
 19 20  2  0
 20 21  1  0
 21 22  2  0
 14 23  1  0
 23 24  2  0
 24 25  1  0
 25 26  2  0
  9 27  1  0
 27 28  1  0
 27 29  1  0
 29 30  1  0
  6  4  1  0
 29  7  1  0
 26 10  1  0
 26 13  1  0
 22 17  1  0
  3 31  1  0
  4 32  1  0
  5 33  1  0
  5 34  1  0
  6 35  1  0
  6 36  1  0
  7 37  1  1
  9 38  1  6
 11 39  1  0
 16 40  1  0
 16 41  1  0
 18 42  1  0
 19 43  1  0
 20 44  1  0
 21 45  1  0
 22 46  1  0
 24 47  1  0
 27 48  1  6
 28 49  1  0
 29 50  1  6
 30 51  1  0
M  END
>  <UniqueID>  (88) 
83

>  <SMILES>  (88) 
O=C(NC1CC1)[C@@H]1O[C@@H](n2cnc3c(SCc4ccccc4)ncnc32)C(O)C1O

>  <Energy>  (88) 
358.91153781578555

>  <Genealogy>  (88) 
O=C(NC1CC1)[C@@H]1O[C@@H](n2cnc3c(SCc4ccccc4)ncnc32)C(O)C1O (chirality)
O=C(NC1CC1)[C@@H]1O[C@@H](n2cnc3c(SCc4ccccc4)ncnc32)C(O)C1O (3D coordinates assigned)
O=C(NC1CC1)[C@@H]1O[C@@H](n2cnc3c(SCc4ccccc4)ncnc32)C(O)C1O (nonaromatic ring conformer: 358.91153781578555 kcal/mol)

>  <smiles>  (88) 
O=C(NC1CC1)C1OC(n2cnc3c(SCc4ccccc4)ncnc32)C(O)C1O

>  <score_type>  (88) 
oracle

>  <origin>  (88) 
adg

>  <m_score__min__energy>  (88) 
-8.3800000000000008

>  <m_primary>  (88) 
energy

$$$$
88:0
     RDKit          3D

 23 24  0  0  0  0  0  0  0  0999 V2000
   56.6310   30.0530   44.4770 C   0  0  0  0  0  0  0  0  0  0  0  0
   57.5390   29.2610   45.3320 N   0  0  0  0  0  0  0  0  0  0  0  0
   58.7790   29.7530   45.6390 C   0  0  0  0  0  0  0  0  0  0  0  0
   59.1550   30.8770   45.2000 O   0  0  0  0  0  0  0  0  0  0  0  0
   59.6530   29.0220   46.4450 C   0  0  0  0  0  0  0  0  0  0  0  0
   60.7880   29.5160   46.7020 O   0  0  0  0  0  0  0  0  0  0  0  0
   59.2900   27.7970   46.9450 N   0  0  0  0  0  0  0  0  0  0  0  0
   60.2540   27.0630   47.7930 C   0  0  0  0  0  0  0  0  0  0  0  0
   58.0380   27.2820   46.6470 C   0  0  0  0  0  0  0  0  0  0  0  0
   57.5680   26.0210   47.1190 C   0  0  0  0  0  0  0  0  0  0  0  0
   58.2670   25.2750   47.8520 O   0  0  0  0  0  0  0  0  0  0  0  0
   56.3310   25.5860   46.7820 N   0  0  0  0  0  0  0  0  0  0  0  0
   55.5080   26.3160   46.0010 C   0  0  0  0  0  0  0  0  0  0  0  0
   54.3660   25.8710   45.7130 O   0  0  0  0  0  0  0  0  0  0  0  0
   55.9100   27.5220   45.5270 N   0  0  0  0  0  0  0  0  0  0  0  0
   57.1490   28.0340   45.8230 C   0  0  0  0  0  0  0  0  0  0  0  0
   55.9534   30.6441   45.1106 H   0  0  0  0  0  0  0  0  0  0  0  0
   57.2222   30.7291   43.8419 H   0  0  0  0  0  0  0  0  0  0  0  0
   56.0414   29.3755   43.8419 H   0  0  0  0  0  0  0  0  0  0  0  0
   60.0199   27.2413   48.8529 H   0  0  0  0  0  0  0  0  0  0  0  0
   60.1855   25.9863   47.5784 H   0  0  0  0  0  0  0  0  0  0  0  0
   61.2737   27.4155   47.5784 H   0  0  0  0  0  0  0  0  0  0  0  0
   55.2300   28.0370   44.9290 H   0  0  0  0  0  0  0  0  0  0  0  0
  1  2  1  0
  2  3  1  0
  3  4  2  0
  3  5  1  0
  5  6  2  0
  5  7  1  0
  7  8  1  0
  7  9  1  0
  9 10  1  0
 10 11  2  0
 10 12  1  0
 12 13  1  0
 13 14  2  0
 13 15  1  0
 15 16  1  0
 16  2  1  0
 16  9  2  0
  1 17  1  0
  1 18  1  0
  1 19  1  0
  8 20  1  0
  8 21  1  0
  8 22  1  0
 15 23  1  0
M  CHG  1  12  -1
M  END
>  <UniqueID>  (89) 
84

>  <SMILES>  (89) 
Cn1c(=O)c(=O)n(C)c2c(=O)[n-]c(=O)[nH]c21

>  <Energy>  (89) 
45.846894189864706

>  <Genealogy>  (89) 
Cn1c(=O)c(=O)n(C)c2c(=O)[n-]c(=O)[nH]c21 (protonated)
Cn1c(=O)c(=O)n(C)c2c(=O)[n-]c(=O)[nH]c21 (3D coordinates assigned)
Cn1c(=O)c(=O)n(C)c2c(=O)[n-]c(=O)[nH]c21 (optimized conformer: 45.846894189864706 kcal/mol)

>  <smiles>  (89) 
Cn1c(=O)c(=O)n(C)c2c(=O)[nH]c(=O)[nH]c21

>  <score_type>  (89) 
oracle

>  <origin>  (89) 
adg

>  <m_score__min__energy>  (89) 
-7.2199999999999998

>  <m_primary>  (89) 
energy

$$$$
89:0
     RDKit          3D

 41 43  0  0  0  0  0  0  0  0999 V2000
   56.5920   23.1480   48.1720 C   0  0  0  0  0  0  0  0  0  0  0  0
   57.3920   22.4760   47.2050 O   0  0  0  0  0  0  0  0  0  0  0  0
   57.1280   22.4540   45.8260 C   0  0  0  0  0  0  0  0  0  0  0  0
   56.7860   21.2610   45.1560 C   0  0  0  0  0  0  0  0  0  0  0  0
   56.5810   21.2610   43.7740 C   0  0  0  0  0  0  0  0  0  0  0  0
   56.7200   22.4420   43.0450 C   0  0  0  0  0  0  0  0  0  0  0  0
   57.0510   23.6310   43.6980 C   0  0  0  0  0  0  0  0  0  0  0  0
   57.2320   23.6520   45.0880 C   0  0  0  0  0  0  0  0  0  0  0  0
   57.5740   24.8930   45.7260 N   0  0  0  0  0  0  0  0  0  0  0  0
   58.9180   25.2420   46.0900 C   0  0  0  0  0  0  0  0  0  0  0  0
   59.8580   24.4140   45.9470 O   0  0  0  0  0  0  0  0  0  0  0  0
   59.1990   26.5780   46.7070 C   0  0  0  0  0  0  0  0  0  0  0  0
   57.9520   27.2400   47.0670 N   0  0  0  0  0  0  0  0  0  0  0  0
   57.0650   27.8390   46.1130 C   0  0  0  0  0  0  0  0  0  0  0  0
   56.1380   27.1480   45.6100 O   0  0  0  0  0  0  0  0  0  0  0  0
   57.2430   29.2630   45.7230 C   0  0  0  0  0  0  0  0  0  0  0  0
   58.3250   30.0010   46.2330 C   0  0  0  0  0  0  0  0  0  0  0  0
   58.4960   31.3370   45.8640 C   0  0  0  0  0  0  0  0  0  0  0  0
   59.5670   32.1010   46.3510 C   0  0  0  0  0  0  0  0  0  0  0  0
   59.7070   33.4360   45.9570 C   0  0  0  0  0  0  0  0  0  0  0  0
   58.7820   34.0100   45.0780 C   0  0  0  0  0  0  0  0  0  0  0  0
   57.7130   33.2520   44.5900 C   0  0  0  0  0  0  0  0  0  0  0  0
   57.5650   31.9170   44.9790 C   0  0  0  0  0  0  0  0  0  0  0  0
   56.5510   31.1980   44.5120 O   0  0  0  0  0  0  0  0  0  0  0  0
   56.3550   29.9230   44.8390 C   0  0  0  0  0  0  0  0  0  0  0  0
   55.3660   29.3190   44.3470 O   0  0  0  0  0  0  0  0  0  0  0  0
   56.9254   22.8680   49.1822 H   0  0  0  0  0  0  0  0  0  0  0  0
   56.6939   24.2353   48.0405 H   0  0  0  0  0  0  0  0  0  0  0  0
   55.5386   22.8599   48.0405 H   0  0  0  0  0  0  0  0  0  0  0  0
   56.6801   20.3254   45.7247 H   0  0  0  0  0  0  0  0  0  0  0  0
   56.3093   20.3274   43.2596 H   0  0  0  0  0  0  0  0  0  0  0  0
   56.5688   22.4367   41.9554 H   0  0  0  0  0  0  0  0  0  0  0  0
   57.1706   24.5578   43.1177 H   0  0  0  0  0  0  0  0  0  0  0  0
   56.7970   25.4890   46.0890 H   0  0  0  0  0  0  0  0  0  0  0  0
   59.8104   26.4391   47.6108 H   0  0  0  0  0  0  0  0  0  0  0  0
   59.7389   27.2021   45.9797 H   0  0  0  0  0  0  0  0  0  0  0  0
   59.0376   29.5259   46.9233 H   0  0  0  0  0  0  0  0  0  0  0  0
   60.2955   31.6511   47.0415 H   0  0  0  0  0  0  0  0  0  0  0  0
   60.5462   34.0358   46.3391 H   0  0  0  0  0  0  0  0  0  0  0  0
   58.8960   35.0599   44.7701 H   0  0  0  0  0  0  0  0  0  0  0  0
   56.9876   33.7065   43.8992 H   0  0  0  0  0  0  0  0  0  0  0  0
  1  2  1  0
  2  3  1  0
  3  4  2  0
  4  5  1  0
  5  6  2  0
  6  7  1  0
  7  8  2  0
  8  9  1  0
  9 10  1  0
 10 11  2  0
 10 12  1  0
 12 13  1  0
 13 14  1  0
 14 15  2  0
 14 16  1  0
 16 17  2  0
 17 18  1  0
 18 19  2  0
 19 20  1  0
 20 21  2  0
 21 22  1  0
 22 23  2  0
 23 24  1  0
 24 25  1  0
 25 26  2  0
  8  3  1  0
 25 16  1  0
 23 18  1  0
  1 27  1  0
  1 28  1  0
  1 29  1  0
  4 30  1  0
  5 31  1  0
  6 32  1  0
  7 33  1  0
  9 34  1  0
 12 35  1  0
 12 36  1  0
 17 37  1  0
 19 38  1  0
 20 39  1  0
 21 40  1  0
 22 41  1  0
M  CHG  1  13  -1
M  END
>  <UniqueID>  (90) 
85

>  <SMILES>  (90) 
COc1ccccc1NC(=O)C[N-]C(=O)c1cc2ccccc2oc1=O

>  <Energy>  (90) 
51.16410960202951

>  <Genealogy>  (90) 
COc1ccccc1NC(=O)C[N-]C(=O)c1cc2ccccc2oc1=O (protonated)
COc1ccccc1NC(=O)C[N-]C(=O)c1cc2ccccc2oc1=O (3D coordinates assigned)
COc1ccccc1NC(=O)C[N-]C(=O)c1cc2ccccc2oc1=O (optimized conformer: 51.16410960202951 kcal/mol)

>  <smiles>  (90) 
COc1ccccc1NC(=O)CNC(=O)c1cc2ccccc2oc1=O

>  <score_type>  (90) 
oracle

>  <origin>  (90) 
adg

>  <m_score__min__energy>  (90) 
-9.9000000000000004

>  <m_primary>  (90) 
energy

$$$$
90:0
     RDKit          3D

 47 48  0  0  0  0  0  0  0  0999 V2000
   59.9890   34.6420   46.0140 C   0  0  0  0  0  0  0  0  0  0  0  0
   58.5310   34.4540   46.4330 C   0  0  0  0  0  0  0  0  0  0  0  0
   57.6310   34.0110   45.2680 C   0  0  0  0  0  0  0  0  0  0  0  0
   58.4210   33.3300   44.1410 C   0  0  0  0  0  0  0  0  0  0  0  0
   58.0360   31.8470   44.0150 C   0  0  0  0  0  0  0  0  0  0  0  0
   57.8160   31.1720   45.3860 C   0  0  0  0  0  0  0  0  0  0  0  0
   59.0130   30.3100   45.8500 C   0  0  1  0  0  0  0  0  0  0  0  0
   59.8700   31.0380   46.8520 C   0  0  0  0  0  0  0  0  0  0  0  0
   59.3250   31.7970   47.6990 O   0  0  0  0  0  0  0  0  0  0  0  0
   61.3020   30.9450   46.7710 N   0  0  0  0  0  0  0  0  0  0  0  0
   62.2010   31.6810   47.6160 C   0  0  0  0  0  0  0  0  0  0  0  0
   62.4220   31.3070   48.9550 C   0  0  0  0  0  0  0  0  0  0  0  0
   63.3070   32.0390   49.7530 C   0  0  0  0  0  0  0  0  0  0  0  0
   63.9840   33.1400   49.2210 C   0  0  0  0  0  0  0  0  0  0  0  0
   63.7870   33.5020   47.8860 C   0  0  0  0  0  0  0  0  0  0  0  0
   62.9060   32.7700   47.0840 C   0  0  0  0  0  0  0  0  0  0  0  0
   58.5480   29.0370   46.4150 N   0  0  0  0  0  0  0  0  0  0  0  0
   59.1380   28.2860   47.3710 C   0  0  0  0  0  0  0  0  0  0  0  0
   58.4690   27.1400   47.6180 N   0  0  0  0  0  0  0  0  0  0  0  0
   57.4210   27.1830   46.7680 C   0  0  0  0  0  0  0  0  0  0  0  0
   56.4040   26.1300   46.6700 C   0  0  0  0  0  0  0  0  0  0  0  0
   55.1860   26.3800   45.9730 N   0  0  0  0  0  0  0  0  0  0  0  0
   56.6010   25.0040   47.2000 O   0  0  0  0  0  0  0  0  0  0  0  0
   57.4670   28.3410   46.0230 C   0  0  0  0  0  0  0  0  0  0  0  0
   60.6207   34.7234   46.9109 H   0  0  0  0  0  0  0  0  0  0  0  0
   60.3126   33.7781   45.4148 H   0  0  0  0  0  0  0  0  0  0  0  0
   60.0829   35.5597   45.4148 H   0  0  0  0  0  0  0  0  0  0  0  0
   58.4875   33.6887   47.2219 H   0  0  0  0  0  0  0  0  0  0  0  0
   58.1595   35.4265   46.7885 H   0  0  0  0  0  0  0  0  0  0  0  0
   56.8812   33.3031   45.6509 H   0  0  0  0  0  0  0  0  0  0  0  0
   57.1594   34.9119   44.8486 H   0  0  0  0  0  0  0  0  0  0  0  0
   58.2037   33.8398   43.1908 H   0  0  0  0  0  0  0  0  0  0  0  0
   59.4934   33.3943   44.3771 H   0  0  0  0  0  0  0  0  0  0  0  0
   57.1058   31.7728   43.4325 H   0  0  0  0  0  0  0  0  0  0  0  0
   58.8686   31.3278   43.5179 H   0  0  0  0  0  0  0  0  0  0  0  0
   57.6412   31.9572   46.1363 H   0  0  0  0  0  0  0  0  0  0  0  0
   56.9542   30.4969   45.2789 H   0  0  0  0  0  0  0  0  0  0  0  0
   59.6301   30.1044   44.9629 H   0  0  0  0  0  0  0  0  0  0  0  0
   61.7120   30.4530   45.9440 H   0  0  0  0  0  0  0  0  0  0  0  0
   61.8970   30.4363   49.3749 H   0  0  0  0  0  0  0  0  0  0  0  0
   63.4706   31.7478   50.8011 H   0  0  0  0  0  0  0  0  0  0  0  0
   64.6716   33.7212   49.8530 H   0  0  0  0  0  0  0  0  0  0  0  0
   64.3256   34.3639   47.4653 H   0  0  0  0  0  0  0  0  0  0  0  0
   62.7652   33.0501   46.0296 H   0  0  0  0  0  0  0  0  0  0  0  0
   60.0626   28.5769   47.8911 H   0  0  0  0  0  0  0  0  0  0  0  0
   55.1430   27.0850   45.2050 H   0  0  0  0  0  0  0  0  0  0  0  0
   56.7481   28.6420   45.2467 H   0  0  0  0  0  0  0  0  0  0  0  0
  1  2  1  0
  2  3  1  0
  3  4  1  0
  4  5  1  0
  5  6  1  0
  6  7  1  0
  7  8  1  0
  8  9  2  0
  8 10  1  0
 10 11  1  0
 11 12  2  0
 12 13  1  0
 13 14  2  0
 14 15  1  0
 15 16  2  0
  7 17  1  0
 17 18  1  0
 18 19  2  0
 19 20  1  0
 20 21  1  0
 21 22  1  0
 21 23  2  0
 20 24  2  0
 16 11  1  0
 24 17  1  0
  1 25  1  0
  1 26  1  0
  1 27  1  0
  2 28  1  0
  2 29  1  0
  3 30  1  0
  3 31  1  0
  4 32  1  0
  4 33  1  0
  5 34  1  0
  5 35  1  0
  6 36  1  0
  6 37  1  0
  7 38  1  6
 10 39  1  0
 12 40  1  0
 13 41  1  0
 14 42  1  0
 15 43  1  0
 16 44  1  0
 18 45  1  0
 22 46  1  0
 24 47  1  0
M  CHG  1  22  -1
M  END
>  <UniqueID>  (91) 
86

>  <SMILES>  (91) 
CCCCCC[C@@H](C(=O)Nc1ccccc1)n1cnc(C([NH-])=O)c1

>  <Energy>  (91) 
66.21097121025896

>  <Genealogy>  (91) 
CCCCCCC(C(=O)Nc1ccccc1)n1cnc(C([NH-])=O)c1 (protonated)
CCCCCC[C@@H](C(=O)Nc1ccccc1)n1cnc(C([NH-])=O)c1 (chirality)
CCCCCC[C@@H](C(=O)Nc1ccccc1)n1cnc(C([NH-])=O)c1 (3D coordinates assigned)
CCCCCC[C@@H](C(=O)Nc1ccccc1)n1cnc(C([NH-])=O)c1 (optimized conformer: 66.21097121025896 kcal/mol)

>  <smiles>  (91) 
CCCCCCC(C(=O)Nc1ccccc1)n1cnc(C(N)=O)c1

>  <score_type>  (91) 
oracle

>  <origin>  (91) 
adg

>  <m_score__min__energy>  (91) 
-10.25

>  <m_primary>  (91) 
energy

$$$$
91:0
     RDKit          3D

 56 59  0  0  0  0  0  0  0  0999 V2000
   56.6260   22.4810   42.7180 C   0  0  0  0  0  0  0  0  0  0  0  0
   57.3490   21.2580   43.3010 C   0  0  0  0  0  0  0  0  0  0  0  0
   56.3620   20.4350   44.1450 C   0  0  0  0  0  0  0  0  0  0  0  0
   58.5830   21.6980   44.1300 C   0  0  0  0  0  0  0  0  0  0  0  0
   58.2510   22.0470   45.5910 C   0  0  0  0  0  0  0  0  0  0  0  0
   57.3630   23.2110   45.6840 N   0  0  0  0  0  0  0  0  0  0  0  0
   56.0470   22.9910   45.6870 N   0  0  0  0  0  0  0  0  0  0  0  0
   55.1300   23.9880   45.7880 C   0  0  0  0  0  0  0  0  0  0  0  0
   53.6910   23.6170   45.7910 C   0  0  0  0  0  0  0  0  0  0  0  0
   53.0770   22.8090   46.7470 C   0  0  0  0  0  0  0  0  0  0  0  0
   51.7070   22.6210   46.5290 C   0  0  0  0  0  0  0  0  0  0  0  0
   51.2240   23.2750   45.4030 C   0  0  0  0  0  0  0  0  0  0  0  0
   52.5070   24.0870   44.6850 S   0  0  0  0  0  0  0  0  0  0  0  0
   55.5860   25.3140   45.8850 C   0  0  0  0  0  0  0  0  0  0  0  0
   54.7700   26.2730   45.9620 O   0  0  0  0  0  0  0  0  0  0  0  0
   56.9690   25.5700   45.8790 C   0  0  0  0  0  0  0  0  0  0  0  0
   57.4870   26.9540   46.0010 C   0  0  0  0  0  0  0  0  0  0  0  0
   58.5180   27.1680   46.7630 N   0  0  0  0  0  0  0  0  0  0  0  0
   59.2220   28.7230   46.9940 S   0  0  0  0  0  0  0  0  0  0  0  0
   60.6900   28.6590   46.6810 O   0  0  0  0  0  0  0  0  0  0  0  0
   59.0070   29.1720   48.4110 O   0  0  0  0  0  0  0  0  0  0  0  0
   58.4320   29.8200   45.8960 C   0  0  0  0  0  0  0  0  0  0  0  0
   58.8900   31.1360   45.7650 C   0  0  0  0  0  0  0  0  0  0  0  0
   58.2460   32.0250   44.8850 C   0  0  0  0  0  0  0  0  0  0  0  0
   58.6830   33.3790   44.7110 N   0  0  0  0  0  0  0  0  0  0  0  0
   59.5990   34.2870   45.8700 S   0  0  0  0  0  0  0  0  0  0  0  0
   58.8200   34.1460   47.4610 C   0  0  0  0  0  0  0  0  0  0  0  0
   60.9970   33.7440   45.9570 O   0  0  0  0  0  0  0  0  0  0  0  0
   59.6360   35.7370   45.4720 O   0  0  0  0  0  0  0  0  0  0  0  0
   57.1400   31.5790   44.1530 C   0  0  0  0  0  0  0  0  0  0  0  0
   56.6810   30.2650   44.2910 C   0  0  0  0  0  0  0  0  0  0  0  0
   57.3260   29.3720   45.1600 C   0  0  0  0  0  0  0  0  0  0  0  0
   56.8360   28.0230   45.2810 N   0  0  0  0  0  0  0  0  0  0  0  0
   57.8550   24.4830   45.7840 C   0  0  0  0  0  0  0  0  0  0  0  0
   59.2310   24.7060   45.8270 O   0  0  0  0  0  0  0  0  0  0  0  0
   56.2530   23.1119   43.5383 H   0  0  0  0  0  0  0  0  0  0  0  0
   57.3267   23.0606   42.0991 H   0  0  0  0  0  0  0  0  0  0  0  0
   55.7804   22.1465   42.0991 H   0  0  0  0  0  0  0  0  0  0  0  0
   57.7178   20.6237   42.4815 H   0  0  0  0  0  0  0  0  0  0  0  0
   56.5639   20.6033   45.2131 H   0  0  0  0  0  0  0  0  0  0  0  0
   55.3328   20.7462   43.9129 H   0  0  0  0  0  0  0  0  0  0  0  0
   56.4832   19.3666   43.9129 H   0  0  0  0  0  0  0  0  0  0  0  0
   59.3151   20.8770   44.1263 H   0  0  0  0  0  0  0  0  0  0  0  0
   58.9770   22.6120   43.6616 H   0  0  0  0  0  0  0  0  0  0  0  0
   57.7567   21.1835   46.0600 H   0  0  0  0  0  0  0  0  0  0  0  0
   59.1913   22.2918   46.1066 H   0  0  0  0  0  0  0  0  0  0  0  0
   53.6184   22.3611   47.5934 H   0  0  0  0  0  0  0  0  0  0  0  0
   51.0717   22.0116   47.1886 H   0  0  0  0  0  0  0  0  0  0  0  0
   50.1841   23.2632   45.0445 H   0  0  0  0  0  0  0  0  0  0  0  0
   59.7560   31.4762   46.3518 H   0  0  0  0  0  0  0  0  0  0  0  0
   59.5729   34.2823   48.2513 H   0  0  0  0  0  0  0  0  0  0  0  0
   58.0425   34.9180   47.5583 H   0  0  0  0  0  0  0  0  0  0  0  0
   58.3624   33.1504   47.5583 H   0  0  0  0  0  0  0  0  0  0  0  0
   56.6278   32.2668   43.4640 H   0  0  0  0  0  0  0  0  0  0  0  0
   55.8072   29.9289   43.7135 H   0  0  0  0  0  0  0  0  0  0  0  0
   55.9400   27.7940   44.7940 H   0  0  0  0  0  0  0  0  0  0  0  0
  1  2  1  0
  2  3  1  0
  2  4  1  0
  4  5  1  0
  5  6  1  0
  6  7  1  0
  7  8  2  0
  8  9  1  0
  9 10  2  0
 10 11  1  0
 11 12  2  0
 12 13  1  0
  8 14  1  0
 14 15  2  0
 14 16  1  0
 16 17  1  0
 17 18  2  0
 18 19  1  0
 19 20  2  0
 19 21  2  0
 19 22  1  0
 22 23  2  0
 23 24  1  0
 24 25  1  0
 25 26  1  0
 26 27  1  0
 26 28  2  0
 26 29  2  0
 24 30  2  0
 30 31  1  0
 31 32  2  0
 32 33  1  0
 16 34  2  0
 34 35  1  0
 34  6  1  0
 13  9  1  0
 33 17  1  0
 32 22  1  0
  1 36  1  0
  1 37  1  0
  1 38  1  0
  2 39  1  0
  3 40  1  0
  3 41  1  0
  3 42  1  0
  4 43  1  0
  4 44  1  0
  5 45  1  0
  5 46  1  0
 10 47  1  0
 11 48  1  0
 12 49  1  0
 23 50  1  0
 27 51  1  0
 27 52  1  0
 27 53  1  0
 30 54  1  0
 31 55  1  0
 33 56  1  0
M  CHG  2  25  -1  35  -1
M  END
>  <UniqueID>  (92) 
87

>  <SMILES>  (92) 
CC(C)CCn1nc(-c2cccs2)c(=O)c(C2=NS(=O)(=O)c3cc([N-]S(C)(=O)=O)ccc3N2)c1[O-]

>  <Energy>  (92) 
94.82250893258484

>  <Genealogy>  (92) 
CC(C)CCn1nc(-c2cccs2)c(=O)c(C2=NS(=O)(=O)c3cc([N-]S(C)(=O)=O)ccc3N2)c1[O-] (protonated)
CC(C)CCn1nc(-c2cccs2)c(=O)c(C2=NS(=O)(=O)c3cc([N-]S(C)(=O)=O)ccc3N2)c1[O-] (3D coordinates assigned)
CC(C)CCn1nc(-c2cccs2)c(=O)c(C2=NS(=O)(=O)c3cc([N-]S(C)(=O)=O)ccc3N2)c1[O-] (nonaromatic ring conformer: 94.82250893258484 kcal/mol)

>  <smiles>  (92) 
CC(C)CCn1nc(-c2cccs2)c(=O)c(C2=NS(=O)(=O)c3cc(NS(C)(=O)=O)ccc3N2)c1O

>  <score_type>  (92) 
oracle

>  <origin>  (92) 
adg

>  <m_score__min__energy>  (92) 
-13

>  <m_primary>  (92) 
energy

$$$$
92:0
     RDKit          3D

 42 43  0  0  0  0  0  0  0  0999 V2000
   64.8630   32.6210   49.7100 C   0  0  0  0  0  0  0  0  0  0  0  0
   64.4190   33.4000   48.6030 O   0  0  0  0  0  0  0  0  0  0  0  0
   63.0750   33.5710   48.2410 C   0  0  0  0  0  0  0  0  0  0  0  0
   62.7430   33.5110   46.8870 C   0  0  0  0  0  0  0  0  0  0  0  0
   61.4220   33.6720   46.4710 C   0  0  0  0  0  0  0  0  0  0  0  0
   60.3970   33.8890   47.4090 C   0  0  0  0  0  0  0  0  0  0  0  0
   59.0280   34.0490   46.9880 N   0  0  0  0  0  0  0  0  0  0  0  0
   58.4770   33.7010   45.3780 S   0  0  0  0  0  0  0  0  0  0  0  0
   59.6320   33.8260   44.4260 O   0  0  0  0  0  0  0  0  0  0  0  0
   57.4140   34.6920   44.9930 O   0  0  0  0  0  0  0  0  0  0  0  0
   57.7870   32.0830   45.3170 C   0  0  0  0  0  0  0  0  0  0  0  0
   56.7640   31.7950   44.4050 C   0  0  0  0  0  0  0  0  0  0  0  0
   56.1920   30.5210   44.3670 C   0  0  0  0  0  0  0  0  0  0  0  0
   56.6400   29.5150   45.2420 C   0  0  0  0  0  0  0  0  0  0  0  0
   56.0800   28.1950   45.2460 N   0  0  0  0  0  0  0  0  0  0  0  0
   56.7690   26.8040   46.0190 S   0  0  0  0  0  0  0  0  0  0  0  0
   57.8360   25.9390   44.8850 C   0  0  0  0  0  0  0  0  0  0  0  0
   57.5330   27.2210   47.2440 O   0  0  0  0  0  0  0  0  0  0  0  0
   55.6580   25.8820   46.4330 O   0  0  0  0  0  0  0  0  0  0  0  0
   57.6730   29.8050   46.1440 C   0  0  0  0  0  0  0  0  0  0  0  0
   58.2440   31.0810   46.1830 C   0  0  0  0  0  0  0  0  0  0  0  0
   60.7200   33.9600   48.7790 C   0  0  0  0  0  0  0  0  0  0  0  0
   59.6880   34.1800   49.7060 O   0  0  0  0  0  0  0  0  0  0  0  0
   59.5100   33.4450   50.9130 C   0  0  0  0  0  0  0  0  0  0  0  0
   62.0600   33.7990   49.1880 C   0  0  0  0  0  0  0  0  0  0  0  0
   64.5782   33.1206   50.6477 H   0  0  0  0  0  0  0  0  0  0  0  0
   64.3965   31.6257   49.6685 H   0  0  0  0  0  0  0  0  0  0  0  0
   65.9571   32.5152   49.6685 H   0  0  0  0  0  0  0  0  0  0  0  0
   63.5314   33.3349   46.1404 H   0  0  0  0  0  0  0  0  0  0  0  0
   61.1793   33.6289   45.3990 H   0  0  0  0  0  0  0  0  0  0  0  0
   58.2920   34.2710   47.6940 H   0  0  0  0  0  0  0  0  0  0  0  0
   56.4093   32.5753   43.7156 H   0  0  0  0  0  0  0  0  0  0  0  0
   55.3873   30.3036   43.6492 H   0  0  0  0  0  0  0  0  0  0  0  0
   58.5685   25.3451   45.4513 H   0  0  0  0  0  0  0  0  0  0  0  0
   57.2336   25.2712   44.2517 H   0  0  0  0  0  0  0  0  0  0  0  0
   58.3648   26.6665   44.2517 H   0  0  0  0  0  0  0  0  0  0  0  0
   58.0373   29.0229   46.8264 H   0  0  0  0  0  0  0  0  0  0  0  0
   59.0537   31.2984   46.8951 H   0  0  0  0  0  0  0  0  0  0  0  0
   59.6710   34.1099   51.7743 H   0  0  0  0  0  0  0  0  0  0  0  0
   58.4878   33.0401   50.9484 H   0  0  0  0  0  0  0  0  0  0  0  0
   60.2337   32.6173   50.9484 H   0  0  0  0  0  0  0  0  0  0  0  0
   62.3138   33.8522   50.2570 H   0  0  0  0  0  0  0  0  0  0  0  0
  1  2  1  0
  2  3  1  0
  3  4  2  0
  4  5  1  0
  5  6  2  0
  6  7  1  0
  7  8  1  0
  8  9  2  0
  8 10  2  0
  8 11  1  0
 11 12  2  0
 12 13  1  0
 13 14  2  0
 14 15  1  0
 15 16  1  0
 16 17  1  0
 16 18  2  0
 16 19  2  0
 14 20  1  0
 20 21  2  0
  6 22  1  0
 22 23  1  0
 23 24  1  0
 22 25  2  0
 25  3  1  0
 21 11  1  0
  1 26  1  0
  1 27  1  0
  1 28  1  0
  4 29  1  0
  5 30  1  0
  7 31  1  0
 12 32  1  0
 13 33  1  0
 17 34  1  0
 17 35  1  0
 17 36  1  0
 20 37  1  0
 21 38  1  0
 24 39  1  0
 24 40  1  0
 24 41  1  0
 25 42  1  0
M  CHG  1  15  -1
M  END
>  <UniqueID>  (93) 
88

>  <SMILES>  (93) 
COc1ccc(NS(=O)(=O)c2ccc([N-]S(C)(=O)=O)cc2)c(OC)c1

>  <Energy>  (93) 
43.177153498268204

>  <Genealogy>  (93) 
COc1ccc(NS(=O)(=O)c2ccc([N-]S(C)(=O)=O)cc2)c(OC)c1 (protonated)
COc1ccc(NS(=O)(=O)c2ccc([N-]S(C)(=O)=O)cc2)c(OC)c1 (3D coordinates assigned)
COc1ccc(NS(=O)(=O)c2ccc([N-]S(C)(=O)=O)cc2)c(OC)c1 (optimized conformer: 43.177153498268204 kcal/mol)

>  <smiles>  (93) 
COc1ccc(NS(=O)(=O)c2ccc(NS(C)(=O)=O)cc2)c(OC)c1

>  <score_type>  (93) 
oracle

>  <origin>  (93) 
adg

>  <m_score__min__energy>  (93) 
-9.1999999999999993

>  <m_primary>  (93) 
energy

$$$$
93:0
     RDKit          3D

 43 45  0  0  0  0  0  0  0  0999 V2000
   50.3140   32.7110   52.0190 N   0  0  0  0  0  0  0  0  0  0  0  0
   51.3670   32.2350   51.1840 C   0  0  0  0  0  0  0  0  0  0  0  0
   51.4680   32.6810   50.0080 O   0  0  0  0  0  0  0  0  0  0  0  0
   52.3310   31.2290   51.6860 C   0  0  0  0  0  0  0  0  0  0  0  0
   51.9340   29.8970   51.8910 C   0  0  0  0  0  0  0  0  0  0  0  0
   52.8580   28.9670   52.3680 C   0  0  0  0  0  0  0  0  0  0  0  0
   54.1350   29.3470   52.6320 N   0  0  0  0  0  0  0  0  0  0  0  0
   54.5610   30.6260   52.4410 C   0  0  0  0  0  0  0  0  0  0  0  0
   55.7840   30.9840   52.7130 N   0  0  0  0  0  0  0  0  0  0  0  0
   56.8680   31.2330   51.7990 C   0  0  0  0  0  0  0  0  0  0  0  0
   57.1010   30.3730   50.9090 O   0  0  0  0  0  0  0  0  0  0  0  0
   57.7230   32.4760   51.8780 C   0  0  0  0  0  0  0  0  0  0  0  0
   58.9190   32.4340   50.9180 C   0  0  0  0  0  0  0  0  0  0  0  0
   58.4670   32.3570   49.5290 N   0  0  0  0  0  0  0  0  0  0  0  0
   58.9800   33.2450   48.5260 C   0  0  0  0  0  0  0  0  0  0  0  0
   59.7350   34.2010   48.8540 O   0  0  0  0  0  0  0  0  0  0  0  0
   58.5810   33.0900   47.1100 C   0  0  0  0  0  0  0  0  0  0  0  0
   58.2530   34.2500   46.3890 C   0  0  0  0  0  0  0  0  0  0  0  0
   57.8060   34.1680   45.0710 C   0  0  0  0  0  0  0  0  0  0  0  0
   57.6830   32.9290   44.4450 C   0  0  0  0  0  0  0  0  0  0  0  0
   58.0300   31.7550   45.1280 C   0  0  0  0  0  0  0  0  0  0  0  0
   57.9280   30.5130   44.4820 C   0  0  0  0  0  0  0  0  0  0  0  0
   58.3060   29.3440   45.1420 C   0  0  0  0  0  0  0  0  0  0  0  0
   58.7970   29.4040   46.4460 C   0  0  0  0  0  0  0  0  0  0  0  0
   58.9000   30.6300   47.1060 C   0  0  0  0  0  0  0  0  0  0  0  0
   58.4970   31.8240   46.4690 C   0  0  0  0  0  0  0  0  0  0  0  0
   53.6600   31.5890   51.9700 C   0  0  0  0  0  0  0  0  0  0  0  0
   50.0220   33.7140   51.9970 H   0  0  0  0  0  0  0  0  0  0  0  0
   50.9000   29.5890   51.6765 H   0  0  0  0  0  0  0  0  0  0  0  0
   52.5515   27.9232   52.5307 H   0  0  0  0  0  0  0  0  0  0  0  0
   57.1007   33.3477   51.6270 H   0  0  0  0  0  0  0  0  0  0  0  0
   58.1207   32.5412   52.9015 H   0  0  0  0  0  0  0  0  0  0  0  0
   59.5209   33.3450   51.0515 H   0  0  0  0  0  0  0  0  0  0  0  0
   59.5210   31.5413   51.1431 H   0  0  0  0  0  0  0  0  0  0  0  0
   57.7490   31.6500   49.2520 H   0  0  0  0  0  0  0  0  0  0  0  0
   58.3499   35.2346   46.8699 H   0  0  0  0  0  0  0  0  0  0  0  0
   57.5490   35.0861   44.5223 H   0  0  0  0  0  0  0  0  0  0  0  0
   57.3122   32.8720   43.4110 H   0  0  0  0  0  0  0  0  0  0  0  0
   57.5483   30.4615   43.4509 H   0  0  0  0  0  0  0  0  0  0  0  0
   58.2167   28.3729   44.6331 H   0  0  0  0  0  0  0  0  0  0  0  0
   59.1049   28.4801   46.9574 H   0  0  0  0  0  0  0  0  0  0  0  0
   59.2984   30.6661   48.1307 H   0  0  0  0  0  0  0  0  0  0  0  0
   53.9921   32.6272   51.8222 H   0  0  0  0  0  0  0  0  0  0  0  0
  1  2  1  0
  2  3  2  0
  2  4  1  0
  4  5  1  0
  5  6  2  0
  6  7  1  0
  7  8  1  0
  8  9  2  3
  9 10  1  0
 10 11  2  0
 10 12  1  0
 12 13  1  0
 13 14  1  0
 14 15  1  0
 15 16  2  0
 15 17  1  0
 17 18  2  0
 18 19  1  0
 19 20  2  0
 20 21  1  0
 21 22  2  0
 22 23  1  0
 23 24  2  0
 24 25  1  0
 25 26  2  0
  8 27  1  0
 27  4  2  0
 26 17  1  0
 26 21  1  0
  1 28  1  0
  5 29  1  0
  6 30  1  0
 12 31  1  0
 12 32  1  0
 13 33  1  0
 13 34  1  0
 14 35  1  0
 18 36  1  0
 19 37  1  0
 20 38  1  0
 22 39  1  0
 23 40  1  0
 24 41  1  0
 25 42  1  0
 27 43  1  0
M  CHG  2   1  -1   7  -1
M  END
>  <UniqueID>  (94) 
89

>  <SMILES>  (94) 
[NH-]C(=O)c1cc[n-]c(=NC(=O)CCNC(=O)c2cccc3ccccc23)c1

>  <Energy>  (94) 
57.791726137532926

>  <Genealogy>  (94) 
[NH-]C(=O)c1cc[n-]c(=NC(=O)CCNC(=O)c2cccc3ccccc23)c1 (protonated)
[NH-]C(=O)c1cc[n-]c(=NC(=O)CCNC(=O)c2cccc3ccccc23)c1 (3D coordinates assigned)
[NH-]C(=O)c1cc[n-]c(=NC(=O)CCNC(=O)c2cccc3ccccc23)c1 (optimized conformer: 57.791726137532926 kcal/mol)

>  <smiles>  (94) 
NC(=O)c1cc[nH]c(=NC(=O)CCNC(=O)c2cccc3ccccc23)c1

>  <score_type>  (94) 
oracle

>  <origin>  (94) 
adg

>  <m_score__min__energy>  (94) 
-13.77

>  <m_primary>  (94) 
energy

$$$$
94:0
     RDKit          3D

 87 91  0  0  0  0  0  0  0  0999 V2000
   60.3150   33.2230   53.3910 C   0  0  0  0  0  0  0  0  0  0  0  0
   59.0330   33.0530   52.5700 C   0  0  0  0  0  0  0  0  0  0  0  0
   58.1750   34.3250   52.6520 C   0  0  0  0  0  0  0  0  0  0  0  0
   59.3710   32.6890   51.1350 C   0  0  0  0  0  0  0  0  0  0  0  0
   59.1400   31.5250   50.7160 O   0  0  0  0  0  0  0  0  0  0  0  0
   59.8050   33.6710   50.1840 N   0  0  0  0  0  0  0  0  0  0  0  0
   60.0080   33.4870   48.7740 C   0  0  0  0  0  0  0  0  0  0  0  0
   58.9120   33.4150   47.8980 C   0  0  0  0  0  0  0  0  0  0  0  0
   59.1080   33.3020   46.5170 C   0  0  0  0  0  0  0  0  0  0  0  0
   57.7190   33.1810   45.4330 S   0  0  0  0  0  0  0  0  0  0  0  0
   58.1400   33.6020   44.0520 O   0  0  0  0  0  0  0  0  0  0  0  0
   56.6460   34.1250   45.8980 O   0  0  0  0  0  0  0  0  0  0  0  0
   57.0720   31.5600   45.3740 N   0  0  0  0  0  0  0  0  0  0  0  0
   58.0130   30.6050   45.9830 C   0  0  0  0  0  0  0  0  0  0  0  0
   57.5220   29.1570   45.7760 C   0  0  0  0  0  0  0  0  0  0  0  0
   56.2170   29.1260   45.2280 O   0  0  0  0  0  0  0  0  0  0  0  0
   56.2190   29.7310   43.9480 C   0  0  0  0  0  0  0  0  0  0  0  0
   56.7840   31.1670   43.9870 C   0  0  0  0  0  0  0  0  0  0  0  0
   60.4100   33.2940   46.0020 C   0  0  0  0  0  0  0  0  0  0  0  0
   61.5060   33.4160   46.8590 C   0  0  0  0  0  0  0  0  0  0  0  0
   61.3180   33.5210   48.2460 C   0  0  0  0  0  0  0  0  0  0  0  0
   62.4600   33.7100   49.1030 N   0  0  0  0  0  0  0  0  0  0  0  0
   62.3220   33.4910   50.5480 C   0  0  0  0  0  0  0  0  0  0  0  0
   63.6120   33.8790   51.2940 C   0  0  0  0  0  0  0  0  0  0  0  0
   64.8350   33.2800   50.7060 N   0  0  0  0  0  0  0  0  0  0  0  0
   65.2590   31.7820   51.5080 S   0  0  0  0  0  0  0  0  0  0  0  0
   66.2210   32.0530   52.6340 O   0  0  0  0  0  0  0  0  0  0  0  0
   65.9170   30.8380   50.5390 O   0  0  0  0  0  0  0  0  0  0  0  0
   63.8050   31.0380   52.1770 C   0  0  0  0  0  0  0  0  0  0  0  0
   63.4740   31.2380   53.5220 C   0  0  0  0  0  0  0  0  0  0  0  0
   62.3250   30.6540   54.0620 C   0  0  0  0  0  0  0  0  0  0  0  0
   61.4720   29.8760   53.2560 C   0  0  0  0  0  0  0  0  0  0  0  0
   60.2390   29.2520   53.8040 C   0  0  0  0  0  0  0  0  0  0  0  0
   60.3420   28.3820   54.7120 O   0  0  0  0  0  0  0  0  0  0  0  0
   58.9320   29.6100   53.3160 N   0  0  0  0  0  0  0  0  0  0  0  0
   57.7070   29.0640   53.9140 C   0  0  2  0  0  0  0  0  0  0  0  0
   57.7300   27.5320   53.8910 C   0  0  0  0  0  0  0  0  0  0  0  0
   56.4810   29.5730   53.1830 C   0  0  0  0  0  0  0  0  0  0  0  0
   56.5270   30.7710   52.4450 C   0  0  0  0  0  0  0  0  0  0  0  0
   55.3980   31.2160   51.7520 C   0  0  0  0  0  0  0  0  0  0  0  0
   54.2170   30.4680   51.7790 C   0  0  0  0  0  0  0  0  0  0  0  0
   54.1660   29.2700   52.4950 C   0  0  0  0  0  0  0  0  0  0  0  0
   55.2950   28.8190   53.1890 C   0  0  0  0  0  0  0  0  0  0  0  0
   61.8200   29.6720   51.9070 C   0  0  0  0  0  0  0  0  0  0  0  0
   62.9780   30.2450   51.3730 C   0  0  0  0  0  0  0  0  0  0  0  0
   64.8050   33.0950   49.2330 C   0  0  0  0  0  0  0  0  0  0  0  0
   63.7830   34.0090   48.5520 C   0  0  0  0  0  0  0  0  0  0  0  0
   60.0708   33.1906   54.4631 H   0  0  0  0  0  0  0  0  0  0  0  0
   61.0154   32.4099   53.1497 H   0  0  0  0  0  0  0  0  0  0  0  0
   60.7793   34.1906   53.1497 H   0  0  0  0  0  0  0  0  0  0  0  0
   58.4408   32.2268   52.9903 H   0  0  0  0  0  0  0  0  0  0  0  0
   58.0012   34.5827   53.7072 H   0  0  0  0  0  0  0  0  0  0  0  0
   58.6994   35.1537   52.1538 H   0  0  0  0  0  0  0  0  0  0  0  0
   57.2102   34.1492   52.1538 H   0  0  0  0  0  0  0  0  0  0  0  0
   57.8893   33.4478   48.3018 H   0  0  0  0  0  0  0  0  0  0  0  0
   59.0016   30.7225   45.5152 H   0  0  0  0  0  0  0  0  0  0  0  0
   58.0779   30.8081   47.0621 H   0  0  0  0  0  0  0  0  0  0  0  0
   58.2101   28.6406   45.0905 H   0  0  0  0  0  0  0  0  0  0  0  0
   57.4974   28.6571   46.7555 H   0  0  0  0  0  0  0  0  0  0  0  0
   56.8372   29.1246   43.2697 H   0  0  0  0  0  0  0  0  0  0  0  0
   55.1780   29.7853   43.5967 H   0  0  0  0  0  0  0  0  0  0  0  0
   57.7115   31.2090   43.3971 H   0  0  0  0  0  0  0  0  0  0  0  0
   56.0396   31.8580   43.5646 H   0  0  0  0  0  0  0  0  0  0  0  0
   60.5702   33.1913   44.9186 H   0  0  0  0  0  0  0  0  0  0  0  0
   62.5245   33.4299   46.4438 H   0  0  0  0  0  0  0  0  0  0  0  0
   61.4903   34.1036   50.9262 H   0  0  0  0  0  0  0  0  0  0  0  0
   62.1261   32.4227   50.7220 H   0  0  0  0  0  0  0  0  0  0  0  0
   63.7134   34.9740   51.2691 H   0  0  0  0  0  0  0  0  0  0  0  0
   63.5224   33.4932   52.3202 H   0  0  0  0  0  0  0  0  0  0  0  0
   64.1222   31.8587   54.1580 H   0  0  0  0  0  0  0  0  0  0  0  0
   62.0851   30.8033   55.1251 H   0  0  0  0  0  0  0  0  0  0  0  0
   58.8500   30.2160   52.4700 H   0  0  0  0  0  0  0  0  0  0  0  0
   57.6605   29.4017   54.9599 H   0  0  0  0  0  0  0  0  0  0  0  0
   57.7357   27.1499   54.9225 H   0  0  0  0  0  0  0  0  0  0  0  0
   56.8373   27.1597   53.3670 H   0  0  0  0  0  0  0  0  0  0  0  0
   58.6334   27.1867   53.3670 H   0  0  0  0  0  0  0  0  0  0  0  0
   57.4558   31.3595   52.4137 H   0  0  0  0  0  0  0  0  0  0  0  0
   55.4385   32.1571   51.1839 H   0  0  0  0  0  0  0  0  0  0  0  0
   53.3284   30.8230   51.2365 H   0  0  0  0  0  0  0  0  0  0  0  0
   53.2377   28.6802   52.5136 H   0  0  0  0  0  0  0  0  0  0  0  0
   55.2536   27.8691   53.7421 H   0  0  0  0  0  0  0  0  0  0  0  0
   61.1734   29.0548   51.2660 H   0  0  0  0  0  0  0  0  0  0  0  0
   63.2398   30.0723   50.3187 H   0  0  0  0  0  0  0  0  0  0  0  0
   65.8033   33.3177   48.8284 H   0  0  0  0  0  0  0  0  0  0  0  0
   64.5119   32.0542   49.0310 H   0  0  0  0  0  0  0  0  0  0  0  0
   64.0376   35.0614   48.7461 H   0  0  0  0  0  0  0  0  0  0  0  0
   63.7880   33.8397   47.4651 H   0  0  0  0  0  0  0  0  0  0  0  0
  1  2  1  0
  2  3  1  0
  2  4  1  0
  4  5  2  0
  4  6  1  0
  6  7  1  0
  7  8  2  0
  8  9  1  0
  9 10  1  0
 10 11  2  0
 10 12  2  0
 10 13  1  0
 13 14  1  0
 14 15  1  0
 15 16  1  0
 16 17  1  0
 17 18  1  0
  9 19  2  0
 19 20  1  0
 20 21  2  0
 21 22  1  0
 22 23  1  0
 23 24  1  0
 24 25  1  0
 25 26  1  0
 26 27  2  0
 26 28  2  0
 26 29  1  0
 29 30  2  0
 30 31  1  0
 31 32  2  0
 32 33  1  0
 33 34  2  0
 33 35  1  0
 35 36  1  0
 36 37  1  0
 36 38  1  0
 38 39  2  0
 39 40  1  0
 40 41  2  0
 41 42  1  0
 42 43  2  0
 32 44  1  0
 44 45  2  0
 25 46  1  0
 46 47  1  0
 21  7  1  0
 47 22  1  0
 18 13  1  0
 45 29  1  0
 43 38  1  0
  1 48  1  0
  1 49  1  0
  1 50  1  0
  2 51  1  0
  3 52  1  0
  3 53  1  0
  3 54  1  0
  8 55  1  0
 14 56  1  0
 14 57  1  0
 15 58  1  0
 15 59  1  0
 17 60  1  0
 17 61  1  0
 18 62  1  0
 18 63  1  0
 19 64  1  0
 20 65  1  0
 23 66  1  0
 23 67  1  0
 24 68  1  0
 24 69  1  0
 30 70  1  0
 31 71  1  0
 35 72  1  0
 36 73  1  1
 37 74  1  0
 37 75  1  0
 37 76  1  0
 39 77  1  0
 40 78  1  0
 41 79  1  0
 42 80  1  0
 43 81  1  0
 44 82  1  0
 45 83  1  0
 46 84  1  0
 46 85  1  0
 47 86  1  0
 47 87  1  0
M  CHG  1   6  -1
M  END
>  <UniqueID>  (95) 
90

>  <SMILES>  (95) 
CC(C)C(=O)[N-]c1cc(S(=O)(=O)N2CCOCC2)ccc1N1CCN(S(=O)(=O)c2ccc(C(=O)N[C@H](C)c3ccccc3)cc2)CC1

>  <Energy>  (95) 
110.14083537099509

>  <Genealogy>  (95) 
CC(C)C(=O)[N-]c1cc(S(=O)(=O)N2CCOCC2)ccc1N1CCN(S(=O)(=O)c2ccc(C(=O)NC(C)c3ccccc3)cc2)CC1 (protonated)
CC(C)C(=O)[N-]c1cc(S(=O)(=O)N2CCOCC2)ccc1N1CCN(S(=O)(=O)c2ccc(C(=O)N[C@H](C)c3ccccc3)cc2)CC1 (chirality)
CC(C)C(=O)[N-]c1cc(S(=O)(=O)N2CCOCC2)ccc1N1CCN(S(=O)(=O)c2ccc(C(=O)N[C@H](C)c3ccccc3)cc2)CC1 (3D coordinates assigned)
CC(C)C(=O)[N-]c1cc(S(=O)(=O)N2CCOCC2)ccc1N1CCN(S(=O)(=O)c2ccc(C(=O)N[C@H](C)c3ccccc3)cc2)CC1 (nonaromatic ring conformer: 110.14083537099509 kcal/mol)

>  <smiles>  (95) 
CC(C)C(=O)Nc1cc(S(=O)(=O)N2CCOCC2)ccc1N1CCN(S(=O)(=O)c2ccc(C(=O)NC(C)c3ccccc3)cc2)CC1

>  <score_type>  (95) 
oracle

>  <origin>  (95) 
adg

>  <m_score__min__energy>  (95) 
-13.67

>  <m_primary>  (95) 
energy

$$$$
95:0
     RDKit          3D

 38 40  0  0  0  0  0  0  0  0999 V2000
   55.2780   27.2270   45.3940 H   0  0  0  0  0  0  0  0  0  0  0  0
   55.1330   26.3730   45.9800 N   0  0  0  0  0  0  0  0  0  0  0  0
   56.2320   25.7400   46.6380 C   0  0  0  0  0  0  0  0  0  0  0  0
   56.0780   24.5920   47.1310 O   0  0  0  0  0  0  0  0  0  0  0  0
   57.5140   26.3770   46.7390 N   0  0  0  0  0  0  0  0  0  0  0  0
   57.7690   27.6410   46.5760 C   0  0  0  0  0  0  0  0  0  0  0  0
   58.7640   28.2590   47.2620 N   0  0  0  0  0  0  0  0  0  0  0  0
   58.6940   29.5160   46.8000 C   0  0  0  0  0  0  0  0  0  0  0  0
   59.5060   30.5910   47.1450 C   0  0  0  0  0  0  0  0  0  0  0  0
   60.3080   30.4789   47.8895 H   0  0  0  0  0  0  0  0  0  0  0  0
   59.2700   31.8330   46.5100 C   0  0  0  0  0  0  0  0  0  0  0  0
   60.1330   33.0020   46.7950 C   0  0  0  0  0  0  0  0  0  0  0  0
   59.7520   34.1460   46.4170 O   0  0  0  0  0  0  0  0  0  0  0  0
   61.4170   32.8470   47.4490 N   0  0  0  0  0  0  0  0  0  0  0  0
   61.7030   31.8390   47.4180 H   0  0  0  0  0  0  0  0  0  0  0  0
   62.4530   33.6100   46.7280 C   0  0  0  0  0  0  0  0  0  0  0  0
   62.4993   33.2628   45.6853 H   0  0  0  0  0  0  0  0  0  0  0  0
   62.1958   34.6791   46.7587 H   0  0  0  0  0  0  0  0  0  0  0  0
   63.8330   33.4060   47.3950 C   0  0  0  0  0  0  0  0  0  0  0  0
   64.4283   32.7249   46.7691 H   0  0  0  0  0  0  0  0  0  0  0  0
   64.3053   34.3952   47.4864 H   0  0  0  0  0  0  0  0  0  0  0  0
   63.7390   32.8570   48.6980 O   0  0  0  0  0  0  0  0  0  0  0  0
   62.7510   33.5310   49.4470 C   0  0  0  0  0  0  0  0  0  0  0  0
   62.7824   33.1749   50.4873 H   0  0  0  0  0  0  0  0  0  0  0  0
   62.9538   34.6113   49.4043 H   0  0  0  0  0  0  0  0  0  0  0  0
   61.3460   33.2700   48.8660 C   0  0  0  0  0  0  0  0  0  0  0  0
   60.8581   32.4772   49.4521 H   0  0  0  0  0  0  0  0  0  0  0  0
   60.7702   34.2057   48.9193 H   0  0  0  0  0  0  0  0  0  0  0  0
   58.2090   31.9510   45.5760 C   0  0  0  0  0  0  0  0  0  0  0  0
   58.0049   32.9244   45.1060 H   0  0  0  0  0  0  0  0  0  0  0  0
   57.4090   30.8310   45.2410 C   0  0  0  0  0  0  0  0  0  0  0  0
   56.3720   30.8820   44.3000 O   0  0  0  0  0  0  0  0  0  0  0  0
   56.3030   30.0530   43.1400 C   0  0  0  0  0  0  0  0  0  0  0  0
   56.2154   29.0002   43.4464 H   0  0  0  0  0  0  0  0  0  0  0  0
   55.4252   30.3345   42.5398 H   0  0  0  0  0  0  0  0  0  0  0  0
   57.2153   30.1855   42.5398 H   0  0  0  0  0  0  0  0  0  0  0  0
   57.6950   29.6290   45.8840 C   0  0  0  0  0  0  0  0  0  0  0  0
   57.0850   28.4450   45.7180 N   0  0  0  0  0  0  0  0  0  0  0  0
  1  2  1  0
  2  3  1  0
  3  4  2  0
  3  5  1  0
  5  6  2  0
  6  7  1  0
  7  8  1  0
  8  9  2  0
  9 10  1  0
  9 11  1  0
 11 12  1  0
 12 13  2  0
 12 14  1  0
 14 15  1  0
 14 16  1  0
 16 17  1  0
 16 18  1  0
 16 19  1  0
 19 20  1  0
 19 21  1  0
 19 22  1  0
 22 23  1  0
 23 24  1  0
 23 25  1  0
 23 26  1  0
 26 27  1  0
 26 28  1  0
 11 29  2  0
 29 30  1  0
 29 31  1  0
 31 32  1  0
 32 33  1  0
 33 34  1  0
 33 35  1  0
 33 36  1  0
 31 37  2  0
 37 38  1  0
 38  6  1  0
 37  8  1  0
 26 14  1  0
M  CHG  4   2  -1   7  -1  14   1  38  -1
M  END
>  <UniqueID>  (96) 
91

>  <SMILES>  (96) 
COc1cc(C(=O)[NH+]2CCOCC2)cc2[n-]/c(=N/C([NH-])=O)[n-]c12

>  <Energy>  (96) 
89.16515318530391

>  <Genealogy>  (96) 
COc1cc(C(=O)[NH+]2CCOCC2)cc2[n-]c(=NC([NH-])=O)[n-]c12 (protonated)
COc1cc(C(=O)[NH+]2CCOCC2)cc2[n-]/c(=N/C([NH-])=O)[n-]c12 (cis-trans isomerization)
COc1cc(C(=O)[NH+]2CCOCC2)cc2[n-]/c(=N/C([NH-])=O)[n-]c12 (3D coordinates assigned)
COc1cc(C(=O)[NH+]2CCOCC2)cc2[n-]/c(=N/C([NH-])=O)[n-]c12 (nonaromatic ring conformer: 89.16515318530391 kcal/mol)

>  <smiles>  (96) 
COc1cc(C(=O)N2CCOCC2)cc2[nH]c(=NC(N)=O)[nH]c12

>  <score_type>  (96) 
oracle

>  <origin>  (96) 
adg

>  <m_score__min__energy>  (96) 
-9.4499999999999993

>  <m_primary>  (96) 
energy

$$$$
