0:0
     RDKit          3D

 52 54  0  0  0  0  0  0  0  0999 V2000
   58.9720   32.5470   49.8960 C   0  0  0  0  0  0  0  0  0  0  0  0
   58.9130   31.4140   48.4730 S   0  0  0  0  0  0  0  0  0  0  0  0
   58.9480   32.7320   47.2500 C   0  0  0  0  0  0  0  0  0  0  0  0
   59.2700   34.0310   47.6570 C   0  0  0  0  0  0  0  0  0  0  0  0
   59.3490   35.0650   46.7150 C   0  0  0  0  0  0  0  0  0  0  0  0
   59.1170   34.8050   45.3570 C   0  0  0  0  0  0  0  0  0  0  0  0
   58.8100   33.5060   44.9430 C   0  0  0  0  0  0  0  0  0  0  0  0
   58.7180   32.4670   45.8820 C   0  0  0  0  0  0  0  0  0  0  0  0
   58.4960   31.1280   45.4280 N   0  0  0  0  0  0  0  0  0  0  0  0
   59.5050   30.1150   45.5100 C   0  0  0  0  0  0  0  0  0  0  0  0
   60.6370   30.3790   46.0130 O   0  0  0  0  0  0  0  0  0  0  0  0
   59.2440   28.7440   44.9450 C   0  0  0  0  0  0  0  0  0  0  0  0
   57.9060   28.6600   44.1980 C   0  0  0  0  0  0  0  0  0  0  0  0
   56.7380   28.6020   45.1360 C   0  0  0  0  0  0  0  0  0  0  0  0
   55.8870   29.5360   45.1350 O   0  0  0  0  0  0  0  0  0  0  0  0
   56.5990   27.4690   46.0060 N   0  0  0  0  0  0  0  0  0  0  0  0
   56.1700   26.2900   45.6690 C   0  0  0  0  0  0  0  0  0  0  0  0
   54.9220   25.8350   45.9140 N   0  0  0  0  0  0  0  0  0  0  0  0
   54.7530   24.5620   45.4650 C   0  0  0  0  0  0  0  0  0  0  0  0
   53.4350   23.8730   45.5970 C   0  0  0  0  0  0  0  0  0  0  0  0
   55.8870   24.0020   44.8670 C   0  0  0  0  0  0  0  0  0  0  0  0
   56.0180   22.6700   44.2580 C   0  0  0  0  0  0  0  0  0  0  0  0
   55.8890   22.5520   43.0070 O   0  0  0  0  0  0  0  0  0  0  0  0
   56.3240   21.5180   45.0570 N   0  0  0  0  0  0  0  0  0  0  0  0
   56.0900   20.1590   44.6010 C   0  0  0  0  0  0  0  0  0  0  0  0
   56.5960   19.2620   45.7300 C   0  0  0  0  0  0  0  0  0  0  0  0
   57.5260   20.1340   46.5690 C   0  0  0  0  0  0  0  0  0  0  0  0
   57.1020   21.5710   46.2870 C   0  0  0  0  0  0  0  0  0  0  0  0
   57.1180   25.1510   44.8840 S   0  0  0  0  0  0  0  0  0  0  0  0
   58.9417   31.9655   50.8292 H   0  0  0  0  0  0  0  0  0  0  0  0
   59.9019   33.1335   49.8594 H   0  0  0  0  0  0  0  0  0  0  0  0
   58.1080   33.2269   49.8594 H   0  0  0  0  0  0  0  0  0  0  0  0
   59.4617   34.2412   48.7196 H   0  0  0  0  0  0  0  0  0  0  0  0
   59.5943   36.0861   47.0425 H   0  0  0  0  0  0  0  0  0  0  0  0
   59.1764   35.6199   44.6206 H   0  0  0  0  0  0  0  0  0  0  0  0
   58.6397   33.2970   43.8765 H   0  0  0  0  0  0  0  0  0  0  0  0
   57.5560   30.8880   45.0450 H   0  0  0  0  0  0  0  0  0  0  0  0
   60.0546   28.4906   44.2459 H   0  0  0  0  0  0  0  0  0  0  0  0
   59.2007   28.0384   45.7877 H   0  0  0  0  0  0  0  0  0  0  0  0
   57.8018   29.5475   43.5565 H   0  0  0  0  0  0  0  0  0  0  0  0
   57.9083   27.7349   43.6029 H   0  0  0  0  0  0  0  0  0  0  0  0
   53.1926   23.7463   46.6624 H   0  0  0  0  0  0  0  0  0  0  0  0
   52.6546   24.4785   45.1129 H   0  0  0  0  0  0  0  0  0  0  0  0
   53.4868   22.8866   45.1129 H   0  0  0  0  0  0  0  0  0  0  0  0
   55.0171   19.9905   44.4265 H   0  0  0  0  0  0  0  0  0  0  0  0
   56.6035   19.9512   43.6507 H   0  0  0  0  0  0  0  0  0  0  0  0
   55.7542   18.9024   46.3400 H   0  0  0  0  0  0  0  0  0  0  0  0
   57.1158   18.3745   45.3399 H   0  0  0  0  0  0  0  0  0  0  0  0
   57.4101   19.9018   47.6380 H   0  0  0  0  0  0  0  0  0  0  0  0
   58.5830   19.9635   46.3166 H   0  0  0  0  0  0  0  0  0  0  0  0
   56.4877   21.9588   47.1130 H   0  0  0  0  0  0  0  0  0  0  0  0
   57.9705   22.2390   46.1896 H   0  0  0  0  0  0  0  0  0  0  0  0
  1  2  1  0
  2  3  1  0
  3  4  2  0
  4  5  1  0
  5  6  2  0
  6  7  1  0
  7  8  2  0
  8  9  1  0
  9 10  1  0
 10 11  2  0
 10 12  1  0
 12 13  1  0
 13 14  1  0
 14 15  2  0
 14 16  1  0
 16 17  2  3
 17 18  1  0
 18 19  1  0
 19 20  1  0
 19 21  2  0
 21 22  1  0
 22 23  2  0
 22 24  1  0
 24 25  1  0
 25 26  1  0
 26 27  1  0
 27 28  1  0
 21 29  1  0
  8  3  1  0
 29 17  1  0
 28 24  1  0
  1 30  1  0
  1 31  1  0
  1 32  1  0
  4 33  1  0
  5 34  1  0
  6 35  1  0
  7 36  1  0
  9 37  1  0
 12 38  1  0
 12 39  1  0
 13 40  1  0
 13 41  1  0
 20 42  1  0
 20 43  1  0
 20 44  1  0
 25 45  1  0
 25 46  1  0
 26 47  1  0
 26 48  1  0
 27 49  1  0
 27 50  1  0
 28 51  1  0
 28 52  1  0
M  CHG  1  18  -1
M  END
>  <UniqueID>  (1) 
1

>  <SMILES>  (1) 
CSc1ccccc1NC(=O)CCC(=O)N=c1[n-]c(C)c(C(=O)N2CCCC2)s1

>  <Energy>  (1) 
88.28383566139576

>  <Genealogy>  (1) 
CSc1ccccc1NC(=O)CCC(=O)N=c1[n-]c(C)c(C(=O)N2CCCC2)s1 (protonated)
CSc1ccccc1NC(=O)CCC(=O)N=c1[n-]c(C)c(C(=O)N2CCCC2)s1 (3D coordinates assigned)
CSc1ccccc1NC(=O)CCC(=O)N=c1[n-]c(C)c(C(=O)N2CCCC2)s1 (nonaromatic ring conformer: 88.28383566139576 kcal/mol)

>  <smiles>  (1) 
CSc1ccccc1NC(=O)CCC(=O)N=c1[nH]c(C)c(C(=O)N2CCCC2)s1

>  <score_type>  (1) 
oracle

>  <origin>  (1) 
adg

>  <m_score__min__energy>  (1) 
-10.17

>  <m_primary>  (1) 
energy

$$$$
1:0
     RDKit          3D

 78 81  0  0  0  0  0  0  0  0999 V2000
   54.9890   26.3400   45.9960 N   0  0  0  0  0  0  0  0  0  0  0  0
   56.5080   25.5960   46.3570 S   0  0  0  0  0  0  0  0  0  0  0  0
   56.3330   24.6870   47.5420 O   0  0  0  0  0  0  0  0  0  0  0  0
   56.9640   24.7900   45.1740 O   0  0  0  0  0  0  0  0  0  0  0  0
   57.7100   26.8320   46.7210 C   0  0  0  0  0  0  0  0  0  0  0  0
   58.8470   26.5130   47.4750 C   0  0  0  0  0  0  0  0  0  0  0  0
   59.8090   27.4900   47.7480 C   0  0  0  0  0  0  0  0  0  0  0  0
   59.6370   28.8020   47.2770 C   0  0  0  0  0  0  0  0  0  0  0  0
   60.6430   29.8380   47.5670 C   0  0  0  0  0  0  0  0  0  0  0  0
   60.9160   30.7030   46.6930 O   0  0  0  0  0  0  0  0  0  0  0  0
   61.3040   29.8520   48.8390 N   0  0  0  0  0  0  0  0  0  0  0  0
   60.6670   29.5380   50.1170 C   0  0  2  0  0  0  0  0  0  0  0  0
   60.2440   30.7960   50.9160 C   0  0  0  0  0  0  0  0  0  0  0  0
   58.9680   31.4760   50.4040 C   0  0  0  0  0  0  0  0  0  0  0  0
   57.8500   31.2860   51.3810 C   0  0  0  0  0  0  0  0  0  0  0  0
   57.5660   32.1970   52.2030 O   0  0  0  0  0  0  0  0  0  0  0  0
   57.0870   30.1250   51.3490 O   0  0  0  0  0  0  0  0  0  0  0  0
   61.5500   28.6290   50.9390 C   0  0  0  0  0  0  0  0  0  0  0  0
   61.2680   27.4000   50.9900 O   0  0  0  0  0  0  0  0  0  0  0  0
   62.6010   29.1210   51.7830 N   0  0  0  0  0  0  0  0  0  0  0  0
   63.7050   30.0150   51.4080 C   0  0  2  0  0  0  0  0  0  0  0  0
   64.9490   29.7110   52.2750 C   0  0  0  0  0  0  0  0  0  0  0  0
   65.8640   28.6910   51.6390 C   0  0  0  0  0  0  0  0  0  0  0  0
   67.0630   29.0920   51.0230 C   0  0  0  0  0  0  0  0  0  0  0  0
   67.9030   28.1430   50.4320 C   0  0  0  0  0  0  0  0  0  0  0  0
   67.5560   26.7900   50.4530 C   0  0  0  0  0  0  0  0  0  0  0  0
   66.3720   26.3810   51.0720 C   0  0  0  0  0  0  0  0  0  0  0  0
   65.5310   27.3260   51.6650 C   0  0  0  0  0  0  0  0  0  0  0  0
   63.2770   31.4730   51.4210 C   0  0  0  0  0  0  0  0  0  0  0  0
   62.9380   32.0000   52.5160 O   0  0  0  0  0  0  0  0  0  0  0  0
   63.2410   32.2750   50.2170 N   0  0  0  0  0  0  0  0  0  0  0  0
   64.0510   31.9320   49.0340 C   0  0  0  0  0  0  0  0  0  0  0  0
   63.3680   32.3400   47.7080 C   0  0  0  0  0  0  0  0  0  0  0  0
   62.2220   33.2510   47.9130 N   0  0  0  0  0  0  0  0  0  0  0  0
   61.6850   33.8080   46.6510 C   0  0  0  0  0  0  0  0  0  0  0  0
   60.1770   33.7050   46.5240 C   0  0  0  0  0  0  0  0  0  0  0  0
   59.5210   34.1620   45.3670 C   0  0  0  0  0  0  0  0  0  0  0  0
   58.1300   34.0570   45.2570 C   0  0  0  0  0  0  0  0  0  0  0  0
   57.3840   33.5040   46.3010 C   0  0  0  0  0  0  0  0  0  0  0  0
   58.0250   33.0610   47.4600 C   0  0  0  0  0  0  0  0  0  0  0  0
   59.4150   33.1650   47.5750 C   0  0  0  0  0  0  0  0  0  0  0  0
   62.5220   34.2710   48.9250 C   0  0  0  0  0  0  0  0  0  0  0  0
   62.5810   33.5910   50.2910 C   0  0  0  0  0  0  0  0  0  0  0  0
   58.5090   29.1120   46.5030 C   0  0  0  0  0  0  0  0  0  0  0  0
   57.5500   28.1330   46.2280 C   0  0  0  0  0  0  0  0  0  0  0  0
   55.1310   27.3730   46.0560 H   0  0  0  0  0  0  0  0  0  0  0  0
   58.9833   25.4893   47.8538 H   0  0  0  0  0  0  0  0  0  0  0  0
   60.7033   27.2304   48.3335 H   0  0  0  0  0  0  0  0  0  0  0  0
   59.7325   29.0064   49.8846 H   0  0  0  0  0  0  0  0  0  0  0  0
   60.0788   30.4990   51.9622 H   0  0  0  0  0  0  0  0  0  0  0  0
   61.0567   31.5281   50.7997 H   0  0  0  0  0  0  0  0  0  0  0  0
   59.1573   32.5518   50.2739 H   0  0  0  0  0  0  0  0  0  0  0  0
   58.6832   31.0244   49.4422 H   0  0  0  0  0  0  0  0  0  0  0  0
   63.9943   29.8196   50.3649 H   0  0  0  0  0  0  0  0  0  0  0  0
   65.5114   30.6445   52.4241 H   0  0  0  0  0  0  0  0  0  0  0  0
   64.5963   29.2935   53.2296 H   0  0  0  0  0  0  0  0  0  0  0  0
   67.3411   30.1561   51.0060 H   0  0  0  0  0  0  0  0  0  0  0  0
   68.8386   28.4624   49.9497 H   0  0  0  0  0  0  0  0  0  0  0  0
   68.2153   26.0461   49.9819 H   0  0  0  0  0  0  0  0  0  0  0  0
   66.1020   25.3148   51.0924 H   0  0  0  0  0  0  0  0  0  0  0  0
   64.6021   26.9994   52.1554 H   0  0  0  0  0  0  0  0  0  0  0  0
   65.0182   32.4510   49.1065 H   0  0  0  0  0  0  0  0  0  0  0  0
   64.1773   30.8393   49.0217 H   0  0  0  0  0  0  0  0  0  0  0  0
   64.1093   32.8449   47.0712 H   0  0  0  0  0  0  0  0  0  0  0  0
   62.9835   31.4235   47.2367 H   0  0  0  0  0  0  0  0  0  0  0  0
   61.9652   34.8702   46.5948 H   0  0  0  0  0  0  0  0  0  0  0  0
   62.1149   33.2128   45.8319 H   0  0  0  0  0  0  0  0  0  0  0  0
   60.1037   34.6038   44.5452 H   0  0  0  0  0  0  0  0  0  0  0  0
   57.6230   34.4104   44.3471 H   0  0  0  0  0  0  0  0  0  0  0  0
   56.2912   33.4175   46.2100 H   0  0  0  0  0  0  0  0  0  0  0  0
   57.4362   32.6299   48.2831 H   0  0  0  0  0  0  0  0  0  0  0  0
   59.9149   32.8224   48.4930 H   0  0  0  0  0  0  0  0  0  0  0  0
   63.4908   34.7419   48.7022 H   0  0  0  0  0  0  0  0  0  0  0  0
   61.7426   35.0472   48.9223 H   0  0  0  0  0  0  0  0  0  0  0  0
   63.1432   34.2332   50.9849 H   0  0  0  0  0  0  0  0  0  0  0  0
   61.5500   33.4382   50.6427 H   0  0  0  0  0  0  0  0  0  0  0  0
   58.3784   30.1312   46.1103 H   0  0  0  0  0  0  0  0  0  0  0  0
   56.6669   28.3852   45.6225 H   0  0  0  0  0  0  0  0  0  0  0  0
  1  2  1  0
  2  3  2  0
  2  4  2  0
  2  5  1  0
  5  6  2  0
  6  7  1  0
  7  8  2  0
  8  9  1  0
  9 10  2  0
  9 11  1  0
 11 12  1  0
 12 13  1  0
 13 14  1  0
 14 15  1  0
 15 16  2  0
 15 17  1  0
 12 18  1  0
 18 19  2  0
 18 20  1  0
 20 21  1  0
 21 22  1  0
 22 23  1  0
 23 24  2  0
 24 25  1  0
 25 26  2  0
 26 27  1  0
 27 28  2  0
 21 29  1  0
 29 30  2  0
 29 31  1  0
 31 32  1  0
 32 33  1  0
 33 34  1  0
 34 35  1  0
 35 36  1  0
 36 37  2  0
 37 38  1  0
 38 39  2  0
 39 40  1  0
 40 41  2  0
 34 42  1  0
 42 43  1  0
  8 44  1  0
 44 45  2  0
 45  5  1  0
 28 23  1  0
 43 31  1  0
 41 36  1  0
  1 46  1  0
  6 47  1  0
  7 48  1  0
 12 49  1  6
 13 50  1  0
 13 51  1  0
 14 52  1  0
 14 53  1  0
 21 54  1  6
 22 55  1  0
 22 56  1  0
 24 57  1  0
 25 58  1  0
 26 59  1  0
 27 60  1  0
 28 61  1  0
 32 62  1  0
 32 63  1  0
 33 64  1  0
 33 65  1  0
 35 66  1  0
 35 67  1  0
 37 68  1  0
 38 69  1  0
 39 70  1  0
 40 71  1  0
 41 72  1  0
 42 73  1  0
 42 74  1  0
 43 75  1  0
 43 76  1  0
 44 77  1  0
 45 78  1  0
M  CHG  4   1  -1  11  -1  17  -1  20  -1
M  END
>  <UniqueID>  (2) 
2

>  <SMILES>  (2) 
[NH-]S(=O)(=O)c1ccc(C(=O)[N-][C@H](CCC(=O)[O-])C(=O)[N-][C@H](Cc2ccccc2)C(=O)N2CCN(Cc3ccccc3)CC2)cc1

>  <Energy>  (2) 
94.89470562680783

>  <Genealogy>  (2) 
[NH-]S(=O)(=O)c1ccc(C(=O)[N-]C(CCC(=O)[O-])C(=O)[N-]C(Cc2ccccc2)C(=O)N2CCN(Cc3ccccc3)CC2)cc1 (protonated)
[NH-]S(=O)(=O)c1ccc(C(=O)[N-][C@H](CCC(=O)[O-])C(=O)[N-][C@H](Cc2ccccc2)C(=O)N2CCN(Cc3ccccc3)CC2)cc1 (chirality)
[NH-]S(=O)(=O)c1ccc(C(=O)[N-][C@H](CCC(=O)[O-])C(=O)[N-][C@H](Cc2ccccc2)C(=O)N2CCN(Cc3ccccc3)CC2)cc1 (3D coordinates assigned)
[NH-]S(=O)(=O)c1ccc(C(=O)[N-][C@H](CCC(=O)[O-])C(=O)[N-][C@H](Cc2ccccc2)C(=O)N2CCN(Cc3ccccc3)CC2)cc1 (nonaromatic ring conformer: 94.89470562680783 kcal/mol)

>  <smiles>  (2) 
NS(=O)(=O)c1ccc(C(=O)NC(CCC(=O)O)C(=O)NC(Cc2ccccc2)C(=O)N2CCN(Cc3ccccc3)CC2)cc1

>  <score_type>  (2) 
oracle

>  <origin>  (2) 
adg

>  <m_score__min__energy>  (2) 
-18.420000000000002

>  <m_primary>  (2) 
energy

$$$$
2:0
     RDKit          3D

 50 53  0  0  1  0  0  0  0  0999 V2000
   64.4410   33.3740   48.6650 C   0  0  0  0  0  0  0  0  0  0  0  0
   63.1180   33.8420   48.1630 C   0  0  0  0  0  0  0  0  0  0  0  0
   63.0610   34.1810   46.9500 O   0  0  0  0  0  0  0  0  0  0  0  0
   61.9990   33.8900   49.0330 N   0  0  0  0  0  0  0  0  0  0  0  0
   60.8430   33.3870   48.7820 C   0  0  0  0  0  0  0  0  0  0  0  0
   60.1940   32.7470   49.8140 C   0  0  0  0  0  0  0  0  0  0  0  0
   58.9540   32.1990   49.5750 C   0  0  0  0  0  0  0  0  0  0  0  0
   58.2220   31.5130   50.6200 C   0  0  0  0  0  0  0  0  0  0  0  0
   58.6180   30.3890   51.2470 N   0  0  0  0  0  0  0  0  0  0  0  0
   57.6810   30.0550   52.1520 C   0  0  0  0  0  0  0  0  0  0  0  0
   57.6430   28.9900   53.0270 C   0  0  0  0  0  0  0  0  0  0  0  0
   56.5370   28.8920   53.8590 C   0  0  0  0  0  0  0  0  0  0  0  0
   55.5580   29.8010   53.7990 N   0  0  0  0  0  0  0  0  0  0  0  0
   55.6100   30.8370   52.9370 C   0  0  0  0  0  0  0  0  0  0  0  0
   56.6680   31.0050   52.0820 C   0  0  0  0  0  0  0  0  0  0  0  0
   57.0340   31.8850   51.1310 N   0  0  0  0  0  0  0  0  0  0  0  0
   58.4280   32.3220   48.3080 C   0  0  0  0  0  0  0  0  0  0  0  0
   59.1200   32.9800   47.2870 C   0  0  0  0  0  0  0  0  0  0  0  0
   58.3160   33.0510   45.7350 S   0  0  0  0  0  0  0  0  0  0  0  0
   59.1010   33.9170   44.7880 O   0  0  0  0  0  0  0  0  0  0  0  0
   56.9930   33.7540   45.9630 O   0  0  0  0  0  0  0  0  0  0  0  0
   58.0590   31.4510   45.0980 C   0  0  0  0  0  0  0  0  0  0  0  0
   56.9430   31.0920   44.3710 C   0  0  0  0  0  0  0  0  0  0  0  0
   56.8420   29.7790   43.9080 C   0  0  0  0  0  0  0  0  0  0  0  0
   57.8330   28.8560   44.1670 C   0  0  0  0  0  0  0  0  0  0  0  0
   57.7790   27.5070   43.7190 N   0  0  0  0  0  0  0  0  0  0  0  0
   57.4710   26.4870   44.6600 C   0  0  0  0  0  0  0  0  0  0  0  0
   57.4150   25.0900   44.1980 C   0  0  0  0  0  0  0  0  0  0  0  0
   57.2420   26.7260   45.8830 O   0  0  0  0  0  0  0  0  0  0  0  0
   58.9680   29.2070   44.9010 C   0  0  0  0  0  0  0  0  0  0  0  0
   59.0560   30.5070   45.3540 C   0  0  0  0  0  0  0  0  0  0  0  0
   60.3110   33.5000   47.5390 N   0  0  0  0  0  0  0  0  0  0  0  0
   64.4372   33.3754   49.7650 H   0  0  0  0  0  0  0  0  0  0  0  0
   64.6316   32.3539   48.3003 H   0  0  0  0  0  0  0  0  0  0  0  0
   65.2307   34.0473   48.3003 H   0  0  0  0  0  0  0  0  0  0  0  0
   60.6570   32.6751   50.8092 H   0  0  0  0  0  0  0  0  0  0  0  0
   58.4554   28.2493   53.0639 H   0  0  0  0  0  0  0  0  0  0  0  0
   56.4648   28.0594   54.5742 H   0  0  0  0  0  0  0  0  0  0  0  0
   54.7844   31.5637   52.9198 H   0  0  0  0  0  0  0  0  0  0  0  0
   56.4480   32.7170   50.8670 H   0  0  0  0  0  0  0  0  0  0  0  0
   57.4385   31.8916   48.0941 H   0  0  0  0  0  0  0  0  0  0  0  0
   56.1498   31.8246   44.1607 H   0  0  0  0  0  0  0  0  0  0  0  0
   55.9581   29.4760   43.3275 H   0  0  0  0  0  0  0  0  0  0  0  0
   57.9670   27.2990   42.7120 H   0  0  0  0  0  0  0  0  0  0  0  0
   57.3880   24.4170   45.0677 H   0  0  0  0  0  0  0  0  0  0  0  0
   56.5101   24.9407   43.5906 H   0  0  0  0  0  0  0  0  0  0  0  0
   58.3050   24.8687   43.5906 H   0  0  0  0  0  0  0  0  0  0  0  0
   59.7617   28.4747   45.1100 H   0  0  0  0  0  0  0  0  0  0  0  0
   59.9394   30.8097   45.9353 H   0  0  0  0  0  0  0  0  0  0  0  0
   60.8140   33.9870   46.7670 H   0  0  0  0  0  0  0  0  0  0  0  0
  1  2  1  0
  2  3  2  0
  2  4  1  0
  4  5  2  0
  5  6  1  0
  6  7  2  0
  7  8  1  0
  8  9  2  0
  9 10  1  0
 10 11  2  0
 11 12  1  0
 12 13  2  0
 13 14  1  0
 14 15  2  0
 15 16  1  0
  7 17  1  0
 17 18  2  0
 18 19  1  0
 19 20  2  0
 19 21  2  0
 19 22  1  0
 22 23  2  0
 23 24  1  0
 24 25  2  0
 25 26  1  0
 26 27  1  0
 27 28  1  0
 27 29  2  0
 25 30  1  0
 30 31  2  0
 18 32  1  0
 32  5  1  0
 16  8  1  0
 31 22  1  0
 15 10  1  0
  1 33  1  0
  1 34  1  0
  1 35  1  0
  6 36  1  0
 11 37  1  0
 12 38  1  0
 14 39  1  0
 16 40  1  0
 17 41  1  0
 23 42  1  0
 24 43  1  0
 26 44  1  0
 28 45  1  0
 28 46  1  0
 28 47  1  0
 30 48  1  0
 31 49  1  0
 32 50  1  0
M  END
>  <smiles>  (3) 
CC(=O)N=c1cc(-c2nc3ccncc3[nH]2)cc(S(=O)(=O)c2ccc(NC(C)=O)cc2)[nH]1

>  <score_type>  (3) 
oracle

>  <origin>  (3) 
adg

>  <m_score__min__energy>  (3) 
-9.7200000000000006

>  <m_primary>  (3) 
energy

$$$$
3:0
     RDKit          3D

 60 63  0  0  0  0  0  0  0  0999 V2000
   55.2980   29.3470   44.8860 O   0  0  0  0  0  0  0  0  0  0  0  0
   56.5050   29.7100   44.9040 C   0  0  0  0  0  0  0  0  0  0  0  0
   56.8360   31.0340   44.4650 N   0  0  0  0  0  0  0  0  0  0  0  0
   57.5820   31.9990   45.2230 C   0  0  0  0  0  0  0  0  0  0  0  0
   57.0160   33.2250   45.6190 C   0  0  0  0  0  0  0  0  0  0  0  0
   57.7610   34.1310   46.3790 C   0  0  0  0  0  0  0  0  0  0  0  0
   59.0660   33.8160   46.7650 C   0  0  0  0  0  0  0  0  0  0  0  0
   59.6330   32.5870   46.3940 C   0  0  0  0  0  0  0  0  0  0  0  0
   61.2570   32.1480   46.9170 S   0  0  0  0  0  0  0  0  0  0  0  0
   61.5830   30.7850   46.3710 O   0  0  0  0  0  0  0  0  0  0  0  0
   62.2510   33.1350   46.3710 O   0  0  0  0  0  0  0  0  0  0  0  0
   61.3100   32.1320   48.6680 N   0  0  0  0  0  0  0  0  0  0  0  0
   62.6370   31.7030   49.1620 C   0  0  0  0  0  0  0  0  0  0  0  0
   63.7170   32.7900   49.0080 C   0  0  0  0  0  0  0  0  0  0  0  0
   63.2200   34.1950   49.3800 C   0  0  0  0  0  0  0  0  0  0  0  0
   61.8710   34.1590   50.0930 C   0  0  0  0  0  0  0  0  0  0  0  0
   60.8290   33.4230   49.2380 C   0  0  0  0  0  0  0  0  0  0  0  0
   58.8830   31.6800   45.6310 C   0  0  0  0  0  0  0  0  0  0  0  0
   57.5370   28.7820   45.4100 C   0  0  0  0  0  0  0  0  0  0  0  0
   57.8330   27.5980   44.7150 C   0  0  0  0  0  0  0  0  0  0  0  0
   58.7900   26.7100   45.2100 C   0  0  0  0  0  0  0  0  0  0  0  0
   59.4470   26.9870   46.4100 C   0  0  0  0  0  0  0  0  0  0  0  0
   59.1560   28.1620   47.1190 C   0  0  0  0  0  0  0  0  0  0  0  0
   59.9130   28.4680   48.6840 S   0  0  0  0  0  0  0  0  0  0  0  0
   61.1040   29.3620   48.4890 O   0  0  0  0  0  0  0  0  0  0  0  0
   60.3950   27.1690   49.2640 O   0  0  0  0  0  0  0  0  0  0  0  0
   58.7990   29.2270   49.7970 N   0  0  0  0  0  0  0  0  0  0  0  0
   58.5920   30.6390   49.4380 C   0  0  0  0  0  0  0  0  0  0  0  0
   57.8420   31.3870   50.5580 C   0  0  0  0  0  0  0  0  0  0  0  0
   57.2660   30.4800   51.4770 O   0  0  0  0  0  0  0  0  0  0  0  0
   58.2860   29.7620   52.1490 C   0  0  0  0  0  0  0  0  0  0  0  0
   59.2980   29.1220   51.1740 C   0  0  0  0  0  0  0  0  0  0  0  0
   58.2170   29.0660   46.6040 C   0  0  0  0  0  0  0  0  0  0  0  0
   55.9837   33.4711   45.3294 H   0  0  0  0  0  0  0  0  0  0  0  0
   57.3188   35.0941   46.6738 H   0  0  0  0  0  0  0  0  0  0  0  0
   59.6503   34.5326   47.3609 H   0  0  0  0  0  0  0  0  0  0  0  0
   60.6330   31.3880   48.9590 H   0  0  0  0  0  0  0  0  0  0  0  0
   62.5479   31.4460   50.2278 H   0  0  0  0  0  0  0  0  0  0  0  0
   62.9502   30.8400   48.5561 H   0  0  0  0  0  0  0  0  0  0  0  0
   64.5649   32.5351   49.6607 H   0  0  0  0  0  0  0  0  0  0  0  0
   64.0051   32.8160   47.9467 H   0  0  0  0  0  0  0  0  0  0  0  0
   63.9589   34.6681   50.0435 H   0  0  0  0  0  0  0  0  0  0  0  0
   63.0947   34.7666   48.4486 H   0  0  0  0  0  0  0  0  0  0  0  0
   61.9839   33.6370   51.0547 H   0  0  0  0  0  0  0  0  0  0  0  0
   61.5292   35.1913   50.2591 H   0  0  0  0  0  0  0  0  0  0  0  0
   59.9501   33.2168   49.8665 H   0  0  0  0  0  0  0  0  0  0  0  0
   60.5980   34.0790   48.3858 H   0  0  0  0  0  0  0  0  0  0  0  0
   59.3203   30.7103   45.3509 H   0  0  0  0  0  0  0  0  0  0  0  0
   57.3081   27.3691   43.7758 H   0  0  0  0  0  0  0  0  0  0  0  0
   59.0265   25.7910   44.6537 H   0  0  0  0  0  0  0  0  0  0  0  0
   60.1952   26.2818   46.8009 H   0  0  0  0  0  0  0  0  0  0  0  0
   59.5697   31.1169   49.2778 H   0  0  0  0  0  0  0  0  0  0  0  0
   57.9877   30.6833   48.5199 H   0  0  0  0  0  0  0  0  0  0  0  0
   58.5497   32.0386   51.0915 H   0  0  0  0  0  0  0  0  0  0  0  0
   57.0369   31.9825   50.1028 H   0  0  0  0  0  0  0  0  0  0  0  0
   58.8250   30.4532   52.8136 H   0  0  0  0  0  0  0  0  0  0  0  0
   57.8063   28.9495   52.7144 H   0  0  0  0  0  0  0  0  0  0  0  0
   60.2623   29.6452   51.2536 H   0  0  0  0  0  0  0  0  0  0  0  0
   59.4288   28.0608   51.4323 H   0  0  0  0  0  0  0  0  0  0  0  0
   58.0117   30.0046   47.1395 H   0  0  0  0  0  0  0  0  0  0  0  0
  1  2  2  0
  2  3  1  0
  3  4  1  0
  4  5  2  0
  5  6  1  0
  6  7  2  0
  7  8  1  0
  8  9  1  0
  9 10  2  0
  9 11  2  0
  9 12  1  0
 12 13  1  0
 13 14  1  0
 14 15  1  0
 15 16  1  0
 16 17  1  0
  8 18  2  0
  2 19  1  0
 19 20  2  0
 20 21  1  0
 21 22  2  0
 22 23  1  0
 23 24  1  0
 24 25  2  0
 24 26  2  0
 24 27  1  0
 27 28  1  0
 28 29  1  0
 29 30  1  0
 30 31  1  0
 31 32  1  0
 23 33  2  0
 18  4  1  0
 33 19  1  0
 17 12  1  0
 32 27  1  0
  5 34  1  0
  6 35  1  0
  7 36  1  0
 12 37  1  0
 13 38  1  0
 13 39  1  0
 14 40  1  0
 14 41  1  0
 15 42  1  0
 15 43  1  0
 16 44  1  0
 16 45  1  0
 17 46  1  0
 17 47  1  0
 18 48  1  0
 20 49  1  0
 21 50  1  0
 22 51  1  0
 28 52  1  0
 28 53  1  0
 29 54  1  0
 29 55  1  0
 31 56  1  0
 31 57  1  0
 32 58  1  0
 32 59  1  0
 33 60  1  0
M  CHG  2   3  -1  12   1
M  END
>  <UniqueID>  (4) 
3

>  <SMILES>  (4) 
O=C([N-]c1cccc(S(=O)(=O)[NH+]2CCCCC2)c1)c1cccc(S(=O)(=O)N2CCOCC2)c1

>  <Energy>  (4) 
82.71043590229053

>  <Genealogy>  (4) 
O=C([N-]c1cccc(S(=O)(=O)[NH+]2CCCCC2)c1)c1cccc(S(=O)(=O)N2CCOCC2)c1 (protonated)
O=C([N-]c1cccc(S(=O)(=O)[NH+]2CCCCC2)c1)c1cccc(S(=O)(=O)N2CCOCC2)c1 (3D coordinates assigned)
O=C([N-]c1cccc(S(=O)(=O)[NH+]2CCCCC2)c1)c1cccc(S(=O)(=O)N2CCOCC2)c1 (nonaromatic ring conformer: 82.71043590229053 kcal/mol)

>  <smiles>  (4) 
O=C(Nc1cccc(S(=O)(=O)N2CCCCC2)c1)c1cccc(S(=O)(=O)N2CCOCC2)c1

>  <score_type>  (4) 
oracle

>  <origin>  (4) 
adg

>  <m_score__min__energy>  (4) 
-11.35

>  <m_primary>  (4) 
energy

$$$$
4:0
     RDKit          3D

 45 47  0  0  0  0  0  0  0  0999 V2000
   55.1700   29.3860   44.8750 N   0  0  0  0  0  0  0  0  0  0  0  0
   56.7660   29.9880   44.6050 S   0  0  0  0  0  0  0  0  0  0  0  0
   56.7100   31.4860   44.4820 O   0  0  0  0  0  0  0  0  0  0  0  0
   57.3120   29.4160   43.3270 O   0  0  0  0  0  0  0  0  0  0  0  0
   57.8080   29.5180   45.9500 C   0  0  0  0  0  0  0  0  0  0  0  0
   58.7760   30.4080   46.4420 C   0  0  0  0  0  0  0  0  0  0  0  0
   59.6080   30.0430   47.5170 C   0  0  0  0  0  0  0  0  0  0  0  0
   60.6310   30.9840   48.0290 C   0  0  0  0  0  0  0  0  0  0  0  0
   61.8550   30.7600   47.8260 O   0  0  0  0  0  0  0  0  0  0  0  0
   60.2340   32.1550   48.7540 N   0  0  0  0  0  0  0  0  0  0  0  0
   60.3190   32.2760   50.2050 C   0  0  0  0  0  0  0  0  0  0  0  0
   59.0560   31.7690   50.8480 C   0  0  0  0  0  0  0  0  0  0  0  0
   58.8360   30.3890   50.9680 C   0  0  0  0  0  0  0  0  0  0  0  0
   57.6700   29.9100   51.5710 C   0  0  0  0  0  0  0  0  0  0  0  0
   56.7030   30.8020   52.0680 C   0  0  0  0  0  0  0  0  0  0  0  0
   55.4620   30.2970   52.7010 C   0  0  0  0  0  0  0  0  0  0  0  0
   55.2730   30.4680   53.9360 O   0  0  0  0  0  0  0  0  0  0  0  0
   54.4530   29.6660   51.8980 N   0  0  0  0  0  0  0  0  0  0  0  0
   53.3500   30.3070   51.2420 C   0  0  0  0  0  0  0  0  0  0  0  0
   52.8430   29.7340   50.0670 C   0  0  0  0  0  0  0  0  0  0  0  0
   51.7590   30.3170   49.4050 C   0  0  0  0  0  0  0  0  0  0  0  0
   51.1610   31.4690   49.9200 C   0  0  0  0  0  0  0  0  0  0  0  0
   51.6400   32.0330   51.1070 C   0  0  0  0  0  0  0  0  0  0  0  0
   51.0320   33.1680   51.6290 O   0  0  0  0  0  0  0  0  0  0  0  0
   52.7250   31.4530   51.7720 C   0  0  0  0  0  0  0  0  0  0  0  0
   56.9330   32.1850   51.9510 C   0  0  0  0  0  0  0  0  0  0  0  0
   58.1000   32.6640   51.3490 C   0  0  0  0  0  0  0  0  0  0  0  0
   59.4550   28.7700   48.0930 C   0  0  0  0  0  0  0  0  0  0  0  0
   58.4940   27.8820   47.6060 C   0  0  0  0  0  0  0  0  0  0  0  0
   57.6710   28.2500   46.5390 C   0  0  0  0  0  0  0  0  0  0  0  0
   56.7180   27.3510   46.0720 O   0  0  0  0  0  0  0  0  0  0  0  0
   55.2350   28.6790   45.6420 H   0  0  0  0  0  0  0  0  0  0  0  0
   58.8854   31.4014   45.9823 H   0  0  0  0  0  0  0  0  0  0  0  0
   61.1731   31.6859   50.5686 H   0  0  0  0  0  0  0  0  0  0  0  0
   60.4530   33.3357   50.4677 H   0  0  0  0  0  0  0  0  0  0  0  0
   59.5851   29.6802   50.5855 H   0  0  0  0  0  0  0  0  0  0  0  0
   57.5070   28.8256   51.6577 H   0  0  0  0  0  0  0  0  0  0  0  0
   53.3016   28.8192   49.6634 H   0  0  0  0  0  0  0  0  0  0  0  0
   51.3763   29.8677   48.4768 H   0  0  0  0  0  0  0  0  0  0  0  0
   50.3141   31.9325   49.3928 H   0  0  0  0  0  0  0  0  0  0  0  0
   53.0914   31.8927   52.7114 H   0  0  0  0  0  0  0  0  0  0  0  0
   56.1876   32.8959   52.3368 H   0  0  0  0  0  0  0  0  0  0  0  0
   58.2691   33.7479   51.2679 H   0  0  0  0  0  0  0  0  0  0  0  0
   60.0976   28.4710   48.9342 H   0  0  0  0  0  0  0  0  0  0  0  0
   58.3845   26.8882   48.0646 H   0  0  0  0  0  0  0  0  0  0  0  0
  1  2  1  0
  2  3  2  0
  2  4  2  0
  2  5  1  0
  5  6  2  0
  6  7  1  0
  7  8  1  0
  8  9  2  0
  8 10  1  0
 10 11  1  0
 11 12  1  0
 12 13  2  0
 13 14  1  0
 14 15  2  0
 15 16  1  0
 16 17  2  0
 16 18  1  0
 18 19  1  0
 19 20  2  0
 20 21  1  0
 21 22  2  0
 22 23  1  0
 23 24  1  0
 23 25  2  0
 15 26  1  0
 26 27  2  0
  7 28  2  0
 28 29  1  0
 29 30  2  0
 30 31  1  0
 30  5  1  0
 27 12  1  0
 25 19  1  0
  1 32  1  0
  6 33  1  0
 11 34  1  0
 11 35  1  0
 13 36  1  0
 14 37  1  0
 20 38  1  0
 21 39  1  0
 22 40  1  0
 25 41  1  0
 26 42  1  0
 27 43  1  0
 28 44  1  0
 29 45  1  0
M  CHG  5   1  -1  10  -1  18  -1  24  -1  31  -1
M  END
>  <UniqueID>  (5) 
4

>  <SMILES>  (5) 
[NH-]S(=O)(=O)c1cc(C(=O)[N-]Cc2ccc(C(=O)[N-]c3cccc([O-])c3)cc2)ccc1[O-]

>  <Energy>  (5) 
51.50032930417829

>  <Genealogy>  (5) 
[NH-]S(=O)(=O)c1cc(C(=O)[N-]Cc2ccc(C(=O)[N-]c3cccc([O-])c3)cc2)ccc1[O-] (protonated)
[NH-]S(=O)(=O)c1cc(C(=O)[N-]Cc2ccc(C(=O)[N-]c3cccc([O-])c3)cc2)ccc1[O-] (3D coordinates assigned)
[NH-]S(=O)(=O)c1cc(C(=O)[N-]Cc2ccc(C(=O)[N-]c3cccc([O-])c3)cc2)ccc1[O-] (optimized conformer: 51.50032930417829 kcal/mol)

>  <smiles>  (5) 
NS(=O)(=O)c1cc(C(=O)NCc2ccc(C(=O)Nc3cccc(O)c3)cc2)ccc1O

>  <score_type>  (5) 
oracle

>  <origin>  (5) 
adg

>  <m_score__min__energy>  (5) 
-20.77

>  <m_primary>  (5) 
energy

$$$$
5:0
     RDKit          3D

 49 51  0  0  0  0  0  0  0  0999 V2000
   56.3210   19.5760   45.2790 C   0  0  0  0  0  0  0  0  0  0  0  0
   56.3160   20.3460   44.0820 O   0  0  0  0  0  0  0  0  0  0  0  0
   56.6250   21.7090   44.0590 C   0  0  0  0  0  0  0  0  0  0  0  0
   57.7560   22.1700   44.7360 C   0  0  0  0  0  0  0  0  0  0  0  0
   58.0630   23.5310   44.7150 C   0  0  0  0  0  0  0  0  0  0  0  0
   57.2310   24.4300   44.0340 C   0  0  0  0  0  0  0  0  0  0  0  0
   57.5720   25.8260   43.9980 N   0  0  0  0  0  0  0  0  0  0  0  0
   57.0810   26.7970   44.9420 C   0  0  0  0  0  0  0  0  0  0  0  0
   56.3830   26.4230   45.9230 O   0  0  0  0  0  0  0  0  0  0  0  0
   57.3860   28.2400   44.7900 C   0  0  0  0  0  0  0  0  0  0  0  0
   56.3370   29.1600   44.6160 C   0  0  0  0  0  0  0  0  0  0  0  0
   56.6020   30.5240   44.4790 C   0  0  0  0  0  0  0  0  0  0  0  0
   57.9190   31.0040   44.5370 C   0  0  0  0  0  0  0  0  0  0  0  0
   58.2000   32.4870   44.3910 C   0  0  0  0  0  0  0  0  0  0  0  0
   58.2950   33.2100   45.6800 N   0  0  0  0  0  0  0  0  0  0  0  0
   58.1350   32.3420   46.8670 C   0  0  0  0  0  0  0  0  0  0  0  0
   58.5580   33.0850   48.1370 C   0  0  0  0  0  0  0  0  0  0  0  0
   59.9960   33.4390   48.0980 N   0  0  0  0  0  0  0  0  0  0  0  0
   60.2740   34.5640   49.0040 C   0  0  0  0  0  0  0  0  0  0  0  0
   60.5150   33.7020   46.7310 C   0  0  0  0  0  0  0  0  0  0  0  0
   59.4140   34.1780   45.7690 C   0  0  0  0  0  0  0  0  0  0  0  0
   58.9710   30.0870   44.6970 C   0  0  0  0  0  0  0  0  0  0  0  0
   58.7070   28.7220   44.8340 C   0  0  0  0  0  0  0  0  0  0  0  0
   56.1150   23.9230   43.3470 C   0  0  0  0  0  0  0  0  0  0  0  0
   55.8400   22.5920   43.3790 N   0  0  0  0  0  0  0  0  0  0  0  0
   56.3166   20.2498   46.1484 H   0  0  0  0  0  0  0  0  0  0  0  0
   55.4270   18.9357   45.3068 H   0  0  0  0  0  0  0  0  0  0  0  0
   57.2232   18.9474   45.3068 H   0  0  0  0  0  0  0  0  0  0  0  0
   58.4003   21.4652   45.2820 H   0  0  0  0  0  0  0  0  0  0  0  0
   58.9602   23.8992   45.2342 H   0  0  0  0  0  0  0  0  0  0  0  0
   58.2560   26.1240   43.2680 H   0  0  0  0  0  0  0  0  0  0  0  0
   55.2974   28.8016   44.5875 H   0  0  0  0  0  0  0  0  0  0  0  0
   55.7712   31.2282   44.3243 H   0  0  0  0  0  0  0  0  0  0  0  0
   59.1531   32.6077   43.8552 H   0  0  0  0  0  0  0  0  0  0  0  0
   57.3498   32.9205   43.8439 H   0  0  0  0  0  0  0  0  0  0  0  0
   57.0802   32.0431   46.9571 H   0  0  0  0  0  0  0  0  0  0  0  0
   58.7725   31.4537   46.7461 H   0  0  0  0  0  0  0  0  0  0  0  0
   57.9642   34.0065   48.2280 H   0  0  0  0  0  0  0  0  0  0  0  0
   58.3855   32.4250   48.9999 H   0  0  0  0  0  0  0  0  0  0  0  0
   60.1901   34.2243   50.0469 H   0  0  0  0  0  0  0  0  0  0  0  0
   61.2918   34.9390   48.8213 H   0  0  0  0  0  0  0  0  0  0  0  0
   59.5480   35.3699   48.8213 H   0  0  0  0  0  0  0  0  0  0  0  0
   61.2918   34.4785   46.7911 H   0  0  0  0  0  0  0  0  0  0  0  0
   60.9195   32.7577   46.3378 H   0  0  0  0  0  0  0  0  0  0  0  0
   59.0221   35.1414   46.1272 H   0  0  0  0  0  0  0  0  0  0  0  0
   59.8581   34.2756   44.7674 H   0  0  0  0  0  0  0  0  0  0  0  0
   60.0105   30.4464   44.7146 H   0  0  0  0  0  0  0  0  0  0  0  0
   59.5396   28.0176   44.9776 H   0  0  0  0  0  0  0  0  0  0  0  0
   55.4623   24.6047   42.7819 H   0  0  0  0  0  0  0  0  0  0  0  0
  1  2  1  0
  2  3  1  0
  3  4  2  0
  4  5  1  0
  5  6  2  0
  6  7  1  0
  7  8  1  0
  8  9  2  0
  8 10  1  0
 10 11  2  0
 11 12  1  0
 12 13  2  0
 13 14  1  0
 14 15  1  0
 15 16  1  0
 16 17  1  0
 17 18  1  0
 18 19  1  0
 18 20  1  0
 20 21  1  0
 13 22  1  0
 22 23  2  0
  6 24  1  0
 24 25  2  0
 25  3  1  0
 23 10  1  0
 21 15  1  0
  1 26  1  0
  1 27  1  0
  1 28  1  0
  4 29  1  0
  5 30  1  0
  7 31  1  0
 11 32  1  0
 12 33  1  0
 14 34  1  0
 14 35  1  0
 16 36  1  0
 16 37  1  0
 17 38  1  0
 17 39  1  0
 19 40  1  0
 19 41  1  0
 19 42  1  0
 20 43  1  0
 20 44  1  0
 21 45  1  0
 21 46  1  0
 22 47  1  0
 23 48  1  0
 24 49  1  0
M  END
>  <UniqueID>  (6) 
5

>  <SMILES>  (6) 
COc1ccc(NC(=O)c2ccc(CN3CCN(C)CC3)cc2)cn1

>  <Energy>  (6) 
70.24895347306706

>  <Genealogy>  (6) 
COc1ccc(NC(=O)c2ccc(CN3CCN(C)CC3)cc2)cn1 (3D coordinates assigned)
COc1ccc(NC(=O)c2ccc(CN3CCN(C)CC3)cc2)cn1 (nonaromatic ring conformer: 70.24895347306706 kcal/mol)

>  <smiles>  (6) 
COc1ccc(NC(=O)c2ccc(CN3CCN(C)CC3)cc2)cn1

>  <score_type>  (6) 
oracle

>  <origin>  (6) 
adg

>  <m_score__min__energy>  (6) 
-7.6100000000000003

>  <m_primary>  (6) 
energy

$$$$
6:0
     RDKit          3D

 44 46  0  0  0  0  0  0  0  0999 V2000
   51.1060   32.7130   49.7210 O   0  0  0  0  0  0  0  0  0  0  0  0
   51.3980   32.2860   50.8690 C   0  0  0  0  0  0  0  0  0  0  0  0
   50.7020   32.7530   51.9760 O   0  0  0  0  0  0  0  0  0  0  0  0
   52.4640   31.2500   51.0350 C   0  0  0  0  0  0  0  0  0  0  0  0
   52.7980   31.0700   52.4490 N   0  0  0  0  0  0  0  0  0  0  0  0
   54.0740   30.5790   52.9030 C   0  0  0  0  0  0  0  0  0  0  0  0
   54.3020   30.2460   54.2520 C   0  0  0  0  0  0  0  0  0  0  0  0
   55.5510   29.7680   54.6590 C   0  0  0  0  0  0  0  0  0  0  0  0
   56.5850   29.6270   53.7330 C   0  0  0  0  0  0  0  0  0  0  0  0
   56.3820   29.9770   52.3880 C   0  0  0  0  0  0  0  0  0  0  0  0
   57.3950   29.8490   51.4280 O   0  0  0  0  0  0  0  0  0  0  0  0
   58.6620   30.4500   51.4980 C   0  0  0  0  0  0  0  0  0  0  0  0
   59.8500   29.7050   51.3880 C   0  0  0  0  0  0  0  0  0  0  0  0
   61.0920   30.3370   51.4870 C   0  0  0  0  0  0  0  0  0  0  0  0
   61.1680   31.7250   51.6940 C   0  0  0  0  0  0  0  0  0  0  0  0
   62.4350   32.3920   51.8310 N   0  0  0  0  0  0  0  0  0  0  0  0
   63.1450   32.9810   50.7290 C   0  0  0  0  0  0  0  0  0  0  0  0
   62.5160   33.3110   49.6870 O   0  0  0  0  0  0  0  0  0  0  0  0
   64.6000   33.2510   50.8210 C   0  0  0  0  0  0  0  0  0  0  0  0
   65.0770   34.2890   51.6420 C   0  0  0  0  0  0  0  0  0  0  0  0
   66.4470   34.5520   51.7290 C   0  0  0  0  0  0  0  0  0  0  0  0
   67.3560   33.7880   50.9920 C   0  0  0  0  0  0  0  0  0  0  0  0
   66.8950   32.7620   50.1650 C   0  0  0  0  0  0  0  0  0  0  0  0
   65.5260   32.4950   50.0760 C   0  0  0  0  0  0  0  0  0  0  0  0
   59.9820   32.4590   51.8400 C   0  0  0  0  0  0  0  0  0  0  0  0
   58.7390   31.8260   51.7390 C   0  0  0  0  0  0  0  0  0  0  0  0
   55.1200   30.4280   51.9790 C   0  0  0  0  0  0  0  0  0  0  0  0
   52.1054   30.2945   50.6246 H   0  0  0  0  0  0  0  0  0  0  0  0
   53.3654   31.5824   50.4992 H   0  0  0  0  0  0  0  0  0  0  0  0
   52.0720   31.2890   53.1690 H   0  0  0  0  0  0  0  0  0  0  0  0
   53.4937   30.3625   54.9889 H   0  0  0  0  0  0  0  0  0  0  0  0
   55.7192   29.5021   55.7130 H   0  0  0  0  0  0  0  0  0  0  0  0
   57.5624   29.2405   54.0574 H   0  0  0  0  0  0  0  0  0  0  0  0
   59.8009   28.6185   51.2231 H   0  0  0  0  0  0  0  0  0  0  0  0
   62.0153   29.7451   51.4025 H   0  0  0  0  0  0  0  0  0  0  0  0
   62.8000   32.5540   52.7980 H   0  0  0  0  0  0  0  0  0  0  0  0
   64.3664   34.8983   52.2198 H   0  0  0  0  0  0  0  0  0  0  0  0
   66.8104   35.3618   52.3787 H   0  0  0  0  0  0  0  0  0  0  0  0
   68.4340   33.9949   51.0635 H   0  0  0  0  0  0  0  0  0  0  0  0
   67.6104   32.1628   49.5825 H   0  0  0  0  0  0  0  0  0  0  0  0
   65.1689   31.6882   49.4191 H   0  0  0  0  0  0  0  0  0  0  0  0
   60.0297   33.5405   52.0354 H   0  0  0  0  0  0  0  0  0  0  0  0
   57.8159   32.4138   51.8498 H   0  0  0  0  0  0  0  0  0  0  0  0
   54.9465   30.6670   50.9194 H   0  0  0  0  0  0  0  0  0  0  0  0
  1  2  2  0
  2  3  1  0
  2  4  1  0
  4  5  1  0
  5  6  1  0
  6  7  2  0
  7  8  1  0
  8  9  2  0
  9 10  1  0
 10 11  1  0
 11 12  1  0
 12 13  2  0
 13 14  1  0
 14 15  2  0
 15 16  1  0
 16 17  1  0
 17 18  2  0
 17 19  1  0
 19 20  2  0
 20 21  1  0
 21 22  2  0
 22 23  1  0
 23 24  2  0
 15 25  1  0
 25 26  2  0
 10 27  2  0
 27  6  1  0
 26 12  1  0
 24 19  1  0
  4 28  1  0
  4 29  1  0
  5 30  1  0
  7 31  1  0
  8 32  1  0
  9 33  1  0
 13 34  1  0
 14 35  1  0
 16 36  1  0
 20 37  1  0
 21 38  1  0
 22 39  1  0
 23 40  1  0
 24 41  1  0
 25 42  1  0
 26 43  1  0
 27 44  1  0
M  CHG  1   3  -1
M  END
>  <UniqueID>  (7) 
6

>  <SMILES>  (7) 
O=C([O-])CNc1cccc(Oc2ccc(NC(=O)c3ccccc3)cc2)c1

>  <Energy>  (7) 
57.78888197601664

>  <Genealogy>  (7) 
O=C([O-])CNc1cccc(Oc2ccc(NC(=O)c3ccccc3)cc2)c1 (protonated)
O=C([O-])CNc1cccc(Oc2ccc(NC(=O)c3ccccc3)cc2)c1 (3D coordinates assigned)
O=C([O-])CNc1cccc(Oc2ccc(NC(=O)c3ccccc3)cc2)c1 (optimized conformer: 57.78888197601664 kcal/mol)

>  <smiles>  (7) 
O=C(O)CNc1cccc(Oc2ccc(NC(=O)c3ccccc3)cc2)c1

>  <score_type>  (7) 
oracle

>  <origin>  (7) 
adg

>  <m_score__min__energy>  (7) 
-11.52

>  <m_primary>  (7) 
energy

$$$$
7:0
     RDKit          3D

 52 54  0  0  0  0  0  0  0  0999 V2000
   64.3980   32.8710   48.9810 C   0  0  0  0  0  0  0  0  0  0  0  0
   63.3840   33.3560   47.9450 C   0  0  0  0  0  0  0  0  0  0  0  0
   62.1950   32.4280   47.8840 C   0  0  0  0  0  0  0  0  0  0  0  0
   62.1610   31.2930   48.7170 C   0  0  0  0  0  0  0  0  0  0  0  0
   61.0590   30.4350   48.7040 C   0  0  0  0  0  0  0  0  0  0  0  0
   59.9790   30.6980   47.8590 C   0  0  0  0  0  0  0  0  0  0  0  0
   59.9920   31.8260   47.0320 C   0  0  0  0  0  0  0  0  0  0  0  0
   61.0850   32.7150   47.0570 C   0  0  0  0  0  0  0  0  0  0  0  0
   61.1250   33.8690   46.2000 N   0  0  0  0  0  0  0  0  0  0  0  0
   60.0750   34.8220   45.9920 C   0  0  0  0  0  0  0  0  0  0  0  0
   59.8370   35.7160   46.8500 O   0  0  0  0  0  0  0  0  0  0  0  0
   59.3040   34.7950   44.7120 C   0  0  0  0  0  0  0  0  0  0  0  0
   58.2890   33.7480   44.7700 N   0  0  0  0  0  0  0  0  0  0  0  0
   57.2990   33.6330   45.6790 C   0  0  0  0  0  0  0  0  0  0  0  0
   56.6310   32.4660   45.5700 N   0  0  0  0  0  0  0  0  0  0  0  0
   57.2420   31.8400   44.5420 C   0  0  0  0  0  0  0  0  0  0  0  0
   56.8510   30.2050   44.0310 S   0  0  0  0  0  0  0  0  0  0  0  0
   56.8400   30.1510   42.5280 O   0  0  0  0  0  0  0  0  0  0  0  0
   55.4760   29.8600   44.5280 O   0  0  0  0  0  0  0  0  0  0  0  0
   57.9910   29.0440   44.6720 N   0  0  0  0  0  0  0  0  0  0  0  0
   59.3760   29.5260   44.4880 C   0  0  0  0  0  0  0  0  0  0  0  0
   60.4060   28.6180   45.2020 C   0  0  0  0  0  0  0  0  0  0  0  0
   59.7670   27.3080   45.6950 C   0  0  0  0  0  0  0  0  0  0  0  0
   60.7950   26.4260   46.4100 C   0  0  0  0  0  0  0  0  0  0  0  0
   58.5660   27.6110   46.6140 C   0  0  0  0  0  0  0  0  0  0  0  0
   57.7130   28.7850   46.0950 C   0  0  0  0  0  0  0  0  0  0  0  0
   58.2630   32.6160   44.0480 C   0  0  0  0  0  0  0  0  0  0  0  0
   64.0072   33.0579   49.9921 H   0  0  0  0  0  0  0  0  0  0  0  0
   64.5707   31.7928   48.8482 H   0  0  0  0  0  0  0  0  0  0  0  0
   65.3458   33.4133   48.8482 H   0  0  0  0  0  0  0  0  0  0  0  0
   63.0409   34.3642   48.2205 H   0  0  0  0  0  0  0  0  0  0  0  0
   63.8690   33.3733   46.9579 H   0  0  0  0  0  0  0  0  0  0  0  0
   63.0097   31.0804   49.3837 H   0  0  0  0  0  0  0  0  0  0  0  0
   61.0419   29.5519   49.3596 H   0  0  0  0  0  0  0  0  0  0  0  0
   59.1158   30.0164   47.8436 H   0  0  0  0  0  0  0  0  0  0  0  0
   59.1443   32.0202   46.3584 H   0  0  0  0  0  0  0  0  0  0  0  0
   58.8161   35.7689   44.5586 H   0  0  0  0  0  0  0  0  0  0  0  0
   59.9910   34.5900   43.8777 H   0  0  0  0  0  0  0  0  0  0  0  0
   57.0626   34.4050   46.4261 H   0  0  0  0  0  0  0  0  0  0  0  0
   59.6052   29.5454   43.4123 H   0  0  0  0  0  0  0  0  0  0  0  0
   59.4469   30.5315   44.9283 H   0  0  0  0  0  0  0  0  0  0  0  0
   61.2160   28.3763   44.4981 H   0  0  0  0  0  0  0  0  0  0  0  0
   60.7921   29.1610   46.0773 H   0  0  0  0  0  0  0  0  0  0  0  0
   59.4037   26.7509   44.8189 H   0  0  0  0  0  0  0  0  0  0  0  0
   60.6737   26.5301   47.4983 H   0  0  0  0  0  0  0  0  0  0  0  0
   60.6400   25.3756   46.1226 H   0  0  0  0  0  0  0  0  0  0  0  0
   61.8096   26.7389   46.1226 H   0  0  0  0  0  0  0  0  0  0  0  0
   57.9326   26.7138   46.6755 H   0  0  0  0  0  0  0  0  0  0  0  0
   58.9608   27.8929   47.6012 H   0  0  0  0  0  0  0  0  0  0  0  0
   56.6479   28.5378   46.2153 H   0  0  0  0  0  0  0  0  0  0  0  0
   57.9644   29.6863   46.6733 H   0  0  0  0  0  0  0  0  0  0  0  0
   58.9343   32.3578   43.2157 H   0  0  0  0  0  0  0  0  0  0  0  0
  1  2  1  0
  2  3  1  0
  3  4  2  0
  4  5  1  0
  5  6  2  0
  6  7  1  0
  7  8  2  0
  8  9  1  0
  9 10  1  0
 10 11  2  0
 10 12  1  0
 12 13  1  0
 13 14  1  0
 14 15  2  0
 15 16  1  0
 16 17  1  0
 17 18  2  0
 17 19  2  0
 17 20  1  0
 20 21  1  0
 21 22  1  0
 22 23  1  0
 23 24  1  0
 23 25  1  0
 25 26  1  0
 16 27  2  0
  8  3  1  0
 27 13  1  0
 26 20  1  0
  1 28  1  0
  1 29  1  0
  1 30  1  0
  2 31  1  0
  2 32  1  0
  4 33  1  0
  5 34  1  0
  6 35  1  0
  7 36  1  0
 12 37  1  0
 12 38  1  0
 14 39  1  0
 21 40  1  0
 21 41  1  0
 22 42  1  0
 22 43  1  0
 23 44  1  0
 24 45  1  0
 24 46  1  0
 24 47  1  0
 25 48  1  0
 25 49  1  0
 26 50  1  0
 26 51  1  0
 27 52  1  0
M  CHG  1   9  -1
M  END
>  <UniqueID>  (8) 
7

>  <SMILES>  (8) 
CCc1ccccc1[N-]C(=O)Cn1cnc(S(=O)(=O)N2CCC(C)CC2)c1

>  <Energy>  (8) 
79.26116548152305

>  <Genealogy>  (8) 
CCc1ccccc1[N-]C(=O)Cn1cnc(S(=O)(=O)N2CCC(C)CC2)c1 (protonated)
CCc1ccccc1[N-]C(=O)Cn1cnc(S(=O)(=O)N2CCC(C)CC2)c1 (3D coordinates assigned)
CCc1ccccc1[N-]C(=O)Cn1cnc(S(=O)(=O)N2CCC(C)CC2)c1 (nonaromatic ring conformer: 79.26116548152305 kcal/mol)

>  <smiles>  (8) 
CCc1ccccc1NC(=O)Cn1cnc(S(=O)(=O)N2CCC(C)CC2)c1

>  <score_type>  (8) 
oracle

>  <origin>  (8) 
adg

>  <m_score__min__energy>  (8) 
-10.51

>  <m_primary>  (8) 
energy

$$$$
8:0
     RDKit          3D

 43 45  0  0  0  0  0  0  0  0999 V2000
   58.9160   34.5780   44.9370 O   0  0  0  0  0  0  0  0  0  0  0  0
   58.5200   33.4380   45.3040 C   0  0  0  0  0  0  0  0  0  0  0  0
   58.6990   33.0290   46.6710 N   0  0  0  0  0  0  0  0  0  0  0  0
   59.2370   33.9280   47.6900 C   0  0  0  0  0  0  0  0  0  0  0  0
   60.7390   33.8380   47.7280 C   0  0  0  0  0  0  0  0  0  0  0  0
   61.4820   33.8590   46.5340 C   0  0  0  0  0  0  0  0  0  0  0  0
   62.8760   33.7560   46.5690 C   0  0  0  0  0  0  0  0  0  0  0  0
   63.5390   33.6260   47.7920 C   0  0  0  0  0  0  0  0  0  0  0  0
   62.8090   33.5990   48.9830 C   0  0  0  0  0  0  0  0  0  0  0  0
   61.4130   33.7020   48.9550 C   0  0  0  0  0  0  0  0  0  0  0  0
   60.7220   33.6690   50.1230 F   0  0  0  0  0  0  0  0  0  0  0  0
   57.8930   32.5340   44.3080 C   0  0  0  0  0  0  0  0  0  0  0  0
   58.1490   32.7180   42.9380 C   0  0  0  0  0  0  0  0  0  0  0  0
   57.5590   31.8800   41.9890 C   0  0  0  0  0  0  0  0  0  0  0  0
   56.7030   30.8540   42.3940 C   0  0  0  0  0  0  0  0  0  0  0  0
   56.4300   30.6580   43.7550 C   0  0  0  0  0  0  0  0  0  0  0  0
   55.4740   29.5760   44.1790 C   0  0  0  0  0  0  0  0  0  0  0  0
   56.0560   28.7830   45.2570 N   0  0  0  0  0  0  0  0  0  0  0  0
   57.0380   27.7590   45.0520 C   0  0  0  0  0  0  0  0  0  0  0  0
   57.8850   27.8880   44.1260 O   0  0  0  0  0  0  0  0  0  0  0  0
   57.0540   26.5470   45.9150 C   0  0  0  0  0  0  0  0  0  0  0  0
   55.8630   25.8690   46.2540 C   0  0  0  0  0  0  0  0  0  0  0  0
   54.6260   26.3210   45.8110 O   0  0  0  0  0  0  0  0  0  0  0  0
   55.9100   24.7650   47.0420 N   0  0  0  0  0  0  0  0  0  0  0  0
   57.0850   24.2900   47.5220 C   0  0  0  0  0  0  0  0  0  0  0  0
   57.0990   23.2650   48.2500 O   0  0  0  0  0  0  0  0  0  0  0  0
   58.2460   24.9220   47.2190 N   0  0  0  0  0  0  0  0  0  0  0  0
   58.2610   26.0300   46.4350 C   0  0  0  0  0  0  0  0  0  0  0  0
   59.3670   26.5730   46.1710 O   0  0  0  0  0  0  0  0  0  0  0  0
   57.0200   31.5050   44.7080 C   0  0  0  0  0  0  0  0  0  0  0  0
   58.5010   32.0440   46.9510 H   0  0  0  0  0  0  0  0  0  0  0  0
   58.9415   34.9611   47.4546 H   0  0  0  0  0  0  0  0  0  0  0  0
   58.8368   33.6352   48.6719 H   0  0  0  0  0  0  0  0  0  0  0  0
   60.9642   33.9569   45.5684 H   0  0  0  0  0  0  0  0  0  0  0  0
   63.4518   33.7774   45.6320 H   0  0  0  0  0  0  0  0  0  0  0  0
   64.6357   33.5449   47.8172 H   0  0  0  0  0  0  0  0  0  0  0  0
   63.3324   33.4966   49.9451 H   0  0  0  0  0  0  0  0  0  0  0  0
   58.8184   33.5273   42.6112 H   0  0  0  0  0  0  0  0  0  0  0  0
   57.7693   32.0288   40.9196 H   0  0  0  0  0  0  0  0  0  0  0  0
   56.2411   30.1970   41.6423 H   0  0  0  0  0  0  0  0  0  0  0  0
   54.5382   30.0352   44.5302 H   0  0  0  0  0  0  0  0  0  0  0  0
   55.2711   28.9196   43.3199 H   0  0  0  0  0  0  0  0  0  0  0  0
   56.7978   31.3628   45.7759 H   0  0  0  0  0  0  0  0  0  0  0  0
  1  2  2  0
  2  3  1  0
  3  4  1  0
  4  5  1  0
  5  6  2  0
  6  7  1  0
  7  8  2  0
  8  9  1  0
  9 10  2  0
 10 11  1  0
  2 12  1  0
 12 13  2  0
 13 14  1  0
 14 15  2  0
 15 16  1  0
 16 17  1  0
 17 18  1  0
 18 19  1  0
 19 20  2  0
 19 21  1  0
 21 22  2  0
 22 23  1  0
 22 24  1  0
 24 25  1  0
 25 26  2  0
 25 27  1  0
 27 28  1  0
 28 29  2  0
 16 30  2  0
 10  5  1  0
 30 12  1  0
 28 21  1  0
  3 31  1  0
  4 32  1  0
  4 33  1  0
  6 34  1  0
  7 35  1  0
  8 36  1  0
  9 37  1  0
 13 38  1  0
 14 39  1  0
 15 40  1  0
 17 41  1  0
 17 42  1  0
 30 43  1  0
M  CHG  4  18  -1  23  -1  24  -1  27  -1
M  END
>  <UniqueID>  (9) 
8

>  <SMILES>  (9) 
O=C(NCc1ccccc1F)c1cccc(C[N-]C(=O)c2c([O-])[n-]c(=O)[n-]c2=O)c1

>  <Energy>  (9) 
49.80507995976618

>  <Genealogy>  (9) 
O=C(NCc1ccccc1F)c1cccc(C[N-]C(=O)c2c([O-])[n-]c(=O)[n-]c2=O)c1 (protonated)
O=C(NCc1ccccc1F)c1cccc(C[N-]C(=O)c2c([O-])[n-]c(=O)[n-]c2=O)c1 (3D coordinates assigned)
O=C(NCc1ccccc1F)c1cccc(C[N-]C(=O)c2c([O-])[n-]c(=O)[n-]c2=O)c1 (optimized conformer: 49.80507995976618 kcal/mol)

>  <smiles>  (9) 
O=C(NCc1ccccc1F)c1cccc(CNC(=O)c2c(O)[nH]c(=O)[nH]c2=O)c1

>  <score_type>  (9) 
oracle

>  <origin>  (9) 
adg

>  <m_score__min__energy>  (9) 
-18.75

>  <m_primary>  (9) 
energy

$$$$
9:0
     RDKit          3D

 45 48  0  0  0  0  0  0  0  0999 V2000
   59.9831   30.3127   48.1989 H   0  0  0  0  0  0  0  0  0  0  0  0
   59.6770   29.5160   47.5050 C   0  0  0  0  0  0  0  0  0  0  0  0
   59.9636   28.4729   47.7043 H   0  0  0  0  0  0  0  0  0  0  0  0
   58.9530   29.8170   46.4140 C   0  0  0  0  0  0  0  0  0  0  0  0
   58.4900   28.9160   45.4410 C   0  0  0  0  0  0  0  0  0  0  0  0
   58.4120   27.5700   45.4470 C   0  0  0  0  0  0  0  0  0  0  0  0
   59.3407   27.0117   45.2579 H   0  0  0  0  0  0  0  0  0  0  0  0
   57.1900   26.7830   45.6850 C   0  0  0  0  0  0  0  0  0  0  0  0
   57.1670   25.5290   46.1720 N   0  0  0  0  0  0  0  0  0  0  0  0
   55.8500   25.2860   46.3440 C   0  0  0  0  0  0  0  0  0  0  0  0
   55.4140   24.1880   46.7790 O   0  0  0  0  0  0  0  0  0  0  0  0
   55.0370   26.3160   46.0240 N   0  0  0  0  0  0  0  0  0  0  0  0
   55.9040   27.2590   45.6230 C   0  0  0  0  0  0  0  0  0  0  0  0
   55.5270   28.5310   45.2130 O   0  0  0  0  0  0  0  0  0  0  0  0
   58.0660   29.6850   44.3710 C   0  0  0  0  0  0  0  0  0  0  0  0
   57.6916   29.3146   43.4053 H   0  0  0  0  0  0  0  0  0  0  0  0
   58.2030   31.0050   44.7480 C   0  0  0  0  0  0  0  0  0  0  0  0
   57.8170   32.1710   43.8890 C   0  0  0  0  0  0  0  0  0  0  0  0
   57.5358   33.0205   44.5287 H   0  0  0  0  0  0  0  0  0  0  0  0
   58.6686   32.4564   43.2539 H   0  0  0  0  0  0  0  0  0  0  0  0
   56.9633   31.8919   43.2539 H   0  0  0  0  0  0  0  0  0  0  0  0
   58.7370   31.0890   45.9880 N   0  0  0  0  0  0  0  0  0  0  0  0
   59.0320   32.3070   46.6960 C   0  0  0  0  0  0  0  0  0  0  0  0
   58.1840   33.3810   46.8900 C   0  0  0  0  0  0  0  0  0  0  0  0
   57.1466   33.4520   46.5310 H   0  0  0  0  0  0  0  0  0  0  0  0
   58.8390   34.3270   47.5920 N   0  0  0  0  0  0  0  0  0  0  0  0
   60.0640   33.8790   47.8280 N   0  0  0  0  0  0  0  0  0  0  0  0
   61.0520   34.6030   48.6190 C   0  0  0  0  0  0  0  0  0  0  0  0
   61.2987   35.5498   48.1163 H   0  0  0  0  0  0  0  0  0  0  0  0
   60.6367   34.8085   49.6166 H   0  0  0  0  0  0  0  0  0  0  0  0
   62.2970   33.7770   48.7630 C   0  0  0  0  0  0  0  0  0  0  0  0
   63.2390   33.4770   47.7960 C   0  0  0  0  0  0  0  0  0  0  0  0
   63.2390   33.9270   46.3710 C   0  0  0  0  0  0  0  0  0  0  0  0
   64.2761   34.0374   46.0214 H   0  0  0  0  0  0  0  0  0  0  0  0
   62.7205   33.1810   45.7509 H   0  0  0  0  0  0  0  0  0  0  0  0
   62.7205   34.8939   46.2918 H   0  0  0  0  0  0  0  0  0  0  0  0
   64.1370   32.6080   48.3040 N   0  0  0  0  0  0  0  0  0  0  0  0
   63.7860   32.3720   49.5360 O   0  0  0  0  0  0  0  0  0  0  0  0
   62.6980   33.0330   49.8550 C   0  0  0  0  0  0  0  0  0  0  0  0
   62.0250   32.9540   51.1850 C   0  0  0  0  0  0  0  0  0  0  0  0
   62.7775   33.0423   51.9825 H   0  0  0  0  0  0  0  0  0  0  0  0
   61.2961   33.7727   51.2763 H   0  0  0  0  0  0  0  0  0  0  0  0
   61.5055   31.9887   51.2763 H   0  0  0  0  0  0  0  0  0  0  0  0
   60.2210   32.6490   47.3010 C   0  0  0  0  0  0  0  0  0  0  0  0
   61.1306   32.0321   47.3457 H   0  0  0  0  0  0  0  0  0  0  0  0
  1  2  1  0
  2  3  1  0
  2  4  2  0
  4  5  1  0
  5  6  2  0
  6  7  1  0
  6  8  1  0
  8  9  1  0
  9 10  1  0
 10 11  2  0
 10 12  1  0
 12 13  1  0
 13 14  1  0
  5 15  1  0
 15 16  1  0
 15 17  2  0
 17 18  1  0
 18 19  1  0
 18 20  1  0
 18 21  1  0
 17 22  1  0
 22 23  1  0
 23 24  1  0
 24 25  1  0
 24 26  2  0
 26 27  1  0
 27 28  1  0
 28 29  1  0
 28 30  1  0
 28 31  1  0
 31 32  1  0
 32 33  1  0
 33 34  1  0
 33 35  1  0
 33 36  1  0
 32 37  2  0
 37 38  1  0
 38 39  1  0
 39 40  1  0
 40 41  1  0
 40 42  1  0
 40 43  1  0
 27 44  1  0
 44 45  1  0
 22  4  1  0
 44 23  2  0
 13  8  2  0
 39 31  2  0
M  CHG  3   9  -1  12  -1  14  -1
M  END
>  <UniqueID>  (10) 
9

>  <SMILES>  (10) 
C=c1/c(=C\c2[n-]c(=O)[n-]c2[O-])cc(C)n1-c1cnn(Cc2c(C)noc2C)c1

>  <Energy>  (10) 
179.4266877601258

>  <Genealogy>  (10) 
C=c1c(=Cc2[n-]c(=O)[n-]c2[O-])cc(C)n1-c1cnn(Cc2c(C)noc2C)c1 (protonated)
C=c1/c(=C\c2[n-]c(=O)[n-]c2[O-])cc(C)n1-c1cnn(Cc2c(C)noc2C)c1 (cis-trans isomerization)
C=c1/c(=C\c2[n-]c(=O)[n-]c2[O-])cc(C)n1-c1cnn(Cc2c(C)noc2C)c1 (3D coordinates assigned)
C=c1/c(=C\c2[n-]c(=O)[n-]c2[O-])cc(C)n1-c1cnn(Cc2c(C)noc2C)c1 (optimized conformer: 179.4266877601258 kcal/mol)

>  <smiles>  (10) 
C=c1c(=Cc2[nH]c(=O)[nH]c2O)cc(C)n1-c1cnn(Cc2c(C)noc2C)c1

>  <score_type>  (10) 
oracle

>  <origin>  (10) 
adg

>  <m_score__min__energy>  (10) 
-16.190000000000001

>  <m_primary>  (10) 
energy

$$$$
10:0
     RDKit          3D

 56 59  0  0  0  0  0  0  0  0999 V2000
   56.2460   30.0490   45.2080 O   0  0  0  0  0  0  0  0  0  0  0  0
   57.3780   29.5760   44.9150 C   0  0  0  0  0  0  0  0  0  0  0  0
   58.5490   30.4120   44.9860 N   0  0  0  0  0  0  0  0  0  0  0  0
   58.5180   31.8110   45.3140 C   0  0  0  0  0  0  0  0  0  0  0  0
   57.7670   32.7260   44.5550 C   0  0  0  0  0  0  0  0  0  0  0  0
   57.7780   34.0840   44.8770 C   0  0  0  0  0  0  0  0  0  0  0  0
   58.5450   34.5460   45.9490 C   0  0  0  0  0  0  0  0  0  0  0  0
   59.3130   33.6510   46.7130 C   0  0  0  0  0  0  0  0  0  0  0  0
   60.1480   34.1390   47.8330 C   0  0  0  0  0  0  0  0  0  0  0  0
   59.6630   34.9630   48.6570 O   0  0  0  0  0  0  0  0  0  0  0  0
   61.4970   33.6760   48.0130 N   0  0  0  0  0  0  0  0  0  0  0  0
   62.0190   33.4880   49.3680 C   0  0  0  0  0  0  0  0  0  0  0  0
   63.1720   32.4800   49.3400 C   0  0  0  0  0  0  0  0  0  0  0  0
   64.1460   32.8540   48.3840 O   0  0  0  0  0  0  0  0  0  0  0  0
   63.5890   32.8030   47.0840 C   0  0  0  0  0  0  0  0  0  0  0  0
   62.4720   33.8410   46.9300 C   0  0  0  0  0  0  0  0  0  0  0  0
   59.3060   32.2860   46.3740 C   0  0  0  0  0  0  0  0  0  0  0  0
   57.4780   28.1560   44.5080 C   0  0  0  0  0  0  0  0  0  0  0  0
   57.9470   27.8280   43.2230 C   0  0  0  0  0  0  0  0  0  0  0  0
   58.0570   26.4930   42.8290 C   0  0  0  0  0  0  0  0  0  0  0  0
   57.6980   25.4700   43.7080 C   0  0  0  0  0  0  0  0  0  0  0  0
   57.2160   25.7780   44.9870 C   0  0  0  0  0  0  0  0  0  0  0  0
   56.7740   24.4860   46.1050 S   0  0  0  0  0  0  0  0  0  0  0  0
   55.9030   25.0490   47.1950 O   0  0  0  0  0  0  0  0  0  0  0  0
   58.0180   23.9390   46.7450 O   0  0  0  0  0  0  0  0  0  0  0  0
   55.9150   23.1890   45.2980 N   0  0  0  0  0  0  0  0  0  0  0  0
   55.0230   23.7080   44.2560 C   0  0  0  0  0  0  0  0  0  0  0  0
   53.6060   23.7580   44.8110 C   0  0  0  0  0  0  0  0  0  0  0  0
   53.6470   23.0020   46.1240 C   0  0  0  0  0  0  0  0  0  0  0  0
   55.0620   22.4570   46.2390 C   0  0  0  0  0  0  0  0  0  0  0  0
   57.0940   27.1190   45.3780 C   0  0  0  0  0  0  0  0  0  0  0  0
   59.4890   29.9830   44.8430 H   0  0  0  0  0  0  0  0  0  0  0  0
   57.1682   32.3699   43.7037 H   0  0  0  0  0  0  0  0  0  0  0  0
   57.1807   34.7927   44.2846 H   0  0  0  0  0  0  0  0  0  0  0  0
   58.5479   35.6177   46.1969 H   0  0  0  0  0  0  0  0  0  0  0  0
   62.3836   34.4504   49.7565 H   0  0  0  0  0  0  0  0  0  0  0  0
   61.2175   33.1078   50.0184 H   0  0  0  0  0  0  0  0  0  0  0  0
   63.6401   32.4404   50.3346 H   0  0  0  0  0  0  0  0  0  0  0  0
   62.7701   31.4936   49.0652 H   0  0  0  0  0  0  0  0  0  0  0  0
   64.3775   33.0094   46.3453 H   0  0  0  0  0  0  0  0  0  0  0  0
   63.1647   31.8013   46.9210 H   0  0  0  0  0  0  0  0  0  0  0  0
   62.9026   34.8522   46.9755 H   0  0  0  0  0  0  0  0  0  0  0  0
   61.9708   33.6985   45.9612 H   0  0  0  0  0  0  0  0  0  0  0  0
   59.9263   31.5813   46.9472 H   0  0  0  0  0  0  0  0  0  0  0  0
   58.2291   28.6289   42.5237 H   0  0  0  0  0  0  0  0  0  0  0  0
   58.4276   26.2468   41.8230 H   0  0  0  0  0  0  0  0  0  0  0  0
   57.7937   24.4196   43.3959 H   0  0  0  0  0  0  0  0  0  0  0  0
   55.3427   24.7193   43.9643 H   0  0  0  0  0  0  0  0  0  0  0  0
   55.0576   23.0547   43.3717 H   0  0  0  0  0  0  0  0  0  0  0  0
   53.2976   24.8004   44.9792 H   0  0  0  0  0  0  0  0  0  0  0  0
   52.8825   23.3136   44.1116 H   0  0  0  0  0  0  0  0  0  0  0  0
   53.4267   23.6781   46.9632 H   0  0  0  0  0  0  0  0  0  0  0  0
   52.8976   22.1973   46.1535 H   0  0  0  0  0  0  0  0  0  0  0  0
   55.4329   22.5986   47.2648 H   0  0  0  0  0  0  0  0  0  0  0  0
   55.0744   21.3823   46.0047 H   0  0  0  0  0  0  0  0  0  0  0  0
   56.6946   27.3624   46.3736 H   0  0  0  0  0  0  0  0  0  0  0  0
  1  2  2  0
  2  3  1  0
  3  4  1  0
  4  5  2  0
  5  6  1  0
  6  7  2  0
  7  8  1  0
  8  9  1  0
  9 10  2  0
  9 11  1  0
 11 12  1  0
 12 13  1  0
 13 14  1  0
 14 15  1  0
 15 16  1  0
  8 17  2  0
  2 18  1  0
 18 19  2  0
 19 20  1  0
 20 21  2  0
 21 22  1  0
 22 23  1  0
 23 24  2  0
 23 25  2  0
 23 26  1  0
 26 27  1  0
 27 28  1  0
 28 29  1  0
 29 30  1  0
 22 31  2  0
 17  4  1  0
 31 18  1  0
 16 11  1  0
 30 26  1  0
  3 32  1  0
  5 33  1  0
  6 34  1  0
  7 35  1  0
 12 36  1  0
 12 37  1  0
 13 38  1  0
 13 39  1  0
 15 40  1  0
 15 41  1  0
 16 42  1  0
 16 43  1  0
 17 44  1  0
 19 45  1  0
 20 46  1  0
 21 47  1  0
 27 48  1  0
 27 49  1  0
 28 50  1  0
 28 51  1  0
 29 52  1  0
 29 53  1  0
 30 54  1  0
 30 55  1  0
 31 56  1  0
M  END
>  <UniqueID>  (11) 
10

>  <SMILES>  (11) 
O=C(Nc1cccc(C(=O)N2CCOCC2)c1)c1cccc(S(=O)(=O)N2CCCC2)c1

>  <Energy>  (11) 
70.32851865789279

>  <Genealogy>  (11) 
O=C(Nc1cccc(C(=O)N2CCOCC2)c1)c1cccc(S(=O)(=O)N2CCCC2)c1 (3D coordinates assigned)
O=C(Nc1cccc(C(=O)N2CCOCC2)c1)c1cccc(S(=O)(=O)N2CCCC2)c1 (nonaromatic ring conformer: 70.32851865789279 kcal/mol)

>  <smiles>  (11) 
O=C(Nc1cccc(C(=O)N2CCOCC2)c1)c1cccc(S(=O)(=O)N2CCCC2)c1

>  <score_type>  (11) 
oracle

>  <origin>  (11) 
adg

>  <m_score__min__energy>  (11) 
-10.199999999999999

>  <m_primary>  (11) 
energy

$$$$
11:0
     RDKit          3D

 45 48  0  0  0  0  0  0  0  0999 V2000
   59.2690   28.2900   46.5300 C   0  0  0  0  0  0  0  0  0  0  0  0
   58.4890   28.5900   45.4790 C   0  0  0  0  0  0  0  0  0  0  0  0
   57.9360   27.6940   44.5500 C   0  0  0  0  0  0  0  0  0  0  0  0
   57.8530   26.3490   44.5590 C   0  0  0  0  0  0  0  0  0  0  0  0
   57.2670   25.5370   45.6380 C   0  0  0  0  0  0  0  0  0  0  0  0
   57.9070   24.5650   46.3130 N   0  0  0  0  0  0  0  0  0  0  0  0
   57.0500   24.2100   47.2900 C   0  0  0  0  0  0  0  0  0  0  0  0
   57.3030   23.3090   48.1320 O   0  0  0  0  0  0  0  0  0  0  0  0
   55.8980   24.9160   47.2970 N   0  0  0  0  0  0  0  0  0  0  0  0
   56.0590   25.7580   46.2580 C   0  0  0  0  0  0  0  0  0  0  0  0
   55.1220   26.7160   45.8890 O   0  0  0  0  0  0  0  0  0  0  0  0
   57.4230   28.4700   43.5220 C   0  0  0  0  0  0  0  0  0  0  0  0
   57.6080   29.7870   43.8850 C   0  0  0  0  0  0  0  0  0  0  0  0
   57.1750   30.9640   43.0630 C   0  0  0  0  0  0  0  0  0  0  0  0
   58.2580   29.8620   45.0680 N   0  0  0  0  0  0  0  0  0  0  0  0
   58.6470   31.0740   45.7380 C   0  0  0  0  0  0  0  0  0  0  0  0
   59.9200   31.1720   46.3160 C   0  0  0  0  0  0  0  0  0  0  0  0
   60.3170   32.3450   46.9820 C   0  0  0  0  0  0  0  0  0  0  0  0
   61.6340   32.4420   47.5610 N   0  0  0  0  0  0  0  0  0  0  0  0
   62.0940   31.6650   48.7020 C   0  0  0  0  0  0  0  0  0  0  0  0
   63.6090   31.9190   48.8090 C   0  0  0  0  0  0  0  0  0  0  0  0
   63.9310   33.1080   47.8920 C   0  0  0  0  0  0  0  0  0  0  0  0
   62.6790   33.3020   47.1360 C   0  0  0  0  0  0  0  0  0  0  0  0
   62.5330   34.1900   46.2540 O   0  0  0  0  0  0  0  0  0  0  0  0
   59.4240   33.4310   47.0400 C   0  0  0  0  0  0  0  0  0  0  0  0
   58.1570   33.3350   46.4590 C   0  0  0  0  0  0  0  0  0  0  0  0
   57.7650   32.1620   45.8110 C   0  0  0  0  0  0  0  0  0  0  0  0
   56.5440   32.0970   45.2250 F   0  0  0  0  0  0  0  0  0  0  0  0
   59.6398   29.0912   47.1862 H   0  0  0  0  0  0  0  0  0  0  0  0
   59.5372   27.2430   46.7348 H   0  0  0  0  0  0  0  0  0  0  0  0
   58.2568   25.8132   43.6873 H   0  0  0  0  0  0  0  0  0  0  0  0
   58.8680   24.1930   46.1450 H   0  0  0  0  0  0  0  0  0  0  0  0
   56.9576   28.1049   42.5946 H   0  0  0  0  0  0  0  0  0  0  0  0
   56.8728   31.7854   43.7294 H   0  0  0  0  0  0  0  0  0  0  0  0
   58.0102   31.2951   42.4283 H   0  0  0  0  0  0  0  0  0  0  0  0
   56.3243   30.6749   42.4283 H   0  0  0  0  0  0  0  0  0  0  0  0
   60.6156   30.3226   46.2480 H   0  0  0  0  0  0  0  0  0  0  0  0
   61.5856   31.9964   49.6195 H   0  0  0  0  0  0  0  0  0  0  0  0
   61.8741   30.5948   48.5743 H   0  0  0  0  0  0  0  0  0  0  0  0
   63.8793   32.1592   49.8479 H   0  0  0  0  0  0  0  0  0  0  0  0
   64.1786   31.0269   48.5095 H   0  0  0  0  0  0  0  0  0  0  0  0
   64.1789   34.0037   48.4804 H   0  0  0  0  0  0  0  0  0  0  0  0
   64.8018   32.9287   47.2442 H   0  0  0  0  0  0  0  0  0  0  0  0
   59.7251   34.3604   47.5455 H   0  0  0  0  0  0  0  0  0  0  0  0
   57.4646   34.1881   46.5124 H   0  0  0  0  0  0  0  0  0  0  0  0
  1  2  2  0
  2  3  1  0
  3  4  2  3
  4  5  1  0
  5  6  1  0
  6  7  1  0
  7  8  2  0
  7  9  1  0
  9 10  1  0
 10 11  1  0
  3 12  1  0
 12 13  2  0
 13 14  1  0
 13 15  1  0
 15 16  1  0
 16 17  2  0
 17 18  1  0
 18 19  1  0
 19 20  1  0
 20 21  1  0
 21 22  1  0
 22 23  1  0
 23 24  2  0
 18 25  2  0
 25 26  1  0
 26 27  2  0
 27 28  1  0
 15  2  1  0
 27 16  1  0
 10  5  2  0
 23 19  1  0
  1 29  1  0
  1 30  1  0
  4 31  1  0
  6 32  1  0
 12 33  1  0
 14 34  1  0
 14 35  1  0
 14 36  1  0
 17 37  1  0
 20 38  1  0
 20 39  1  0
 21 40  1  0
 21 41  1  0
 22 42  1  0
 22 43  1  0
 25 44  1  0
 26 45  1  0
M  CHG  2   9  -1  11  -1
M  END
>  <UniqueID>  (12) 
11

>  <SMILES>  (12) 
C=c1c(=Cc2[nH]c(=O)[n-]c2[O-])cc(C)n1-c1cc(N2CCCC2=O)ccc1F

>  <Energy>  (12) 
134.8629322807628

>  <Genealogy>  (12) 
C=c1c(=Cc2[nH]c(=O)[n-]c2[O-])cc(C)n1-c1cc(N2CCCC2=O)ccc1F (protonated)
C=c1c(=Cc2[nH]c(=O)[n-]c2[O-])cc(C)n1-c1cc(N2CCCC2=O)ccc1F (3D coordinates assigned)
C=c1c(=Cc2[nH]c(=O)[n-]c2[O-])cc(C)n1-c1cc(N2CCCC2=O)ccc1F (nonaromatic ring conformer: 134.8629322807628 kcal/mol)

>  <smiles>  (12) 
C=c1c(=Cc2[nH]c(=O)[nH]c2O)cc(C)n1-c1cc(N2CCCC2=O)ccc1F

>  <score_type>  (12) 
oracle

>  <origin>  (12) 
adg

>  <m_score__min__energy>  (12) 
-14.48

>  <m_primary>  (12) 
energy

$$$$
12:0
     RDKit          3D

 42 44  0  0  0  0  0  0  0  0999 V2000
   60.4050   28.5580   44.9450 O   0  0  0  0  0  0  0  0  0  0  0  0
   59.1810   28.7410   45.1920 C   0  0  0  0  0  0  0  0  0  0  0  0
   58.3520   27.5790   45.5950 C   0  0  0  0  0  0  0  0  0  0  0  0
   58.9440   26.3430   45.9190 C   0  0  0  0  0  0  0  0  0  0  0  0
   58.1490   25.2520   46.2810 C   0  0  0  0  0  0  0  0  0  0  0  0
   56.7580   25.3770   46.3120 C   0  0  0  0  0  0  0  0  0  0  0  0
   56.1580   26.5930   45.9760 C   0  0  0  0  0  0  0  0  0  0  0  0
   54.7740   26.7150   46.0010 O   0  0  0  0  0  0  0  0  0  0  0  0
   56.9500   27.6890   45.6130 C   0  0  0  0  0  0  0  0  0  0  0  0
   58.6230   30.1090   45.0660 C   0  0  0  0  0  0  0  0  0  0  0  0
   57.7140   30.4310   44.0500 C   0  0  0  0  0  0  0  0  0  0  0  0
   57.2150   31.7260   43.9450 C   0  0  0  0  0  0  0  0  0  0  0  0
   57.6360   32.7060   44.8470 C   0  0  0  0  0  0  0  0  0  0  0  0
   57.1480   33.8660   44.7610 O   0  0  0  0  0  0  0  0  0  0  0  0
   58.5540   32.3990   45.8210 N   0  0  0  0  0  0  0  0  0  0  0  0
   59.0220   33.3990   46.7480 C   0  0  0  0  0  0  0  0  0  0  0  0
   58.2030   33.9650   47.5230 O   0  0  0  0  0  0  0  0  0  0  0  0
   60.4800   33.7550   46.8380 C   0  0  0  0  0  0  0  0  0  0  0  0
   61.0730   33.1700   48.0600 N   0  0  0  0  0  0  0  0  0  0  0  0
   62.2090   33.9710   48.5570 C   0  0  0  0  0  0  0  0  0  0  0  0
   63.4510   33.8380   47.6440 C   0  0  0  0  0  0  0  0  0  0  0  0
   63.3890   32.7210   46.7720 O   0  0  0  0  0  0  0  0  0  0  0  0
   62.9370   31.5830   47.4730 C   0  0  0  0  0  0  0  0  0  0  0  0
   61.4590   31.7500   47.8790 C   0  0  0  0  0  0  0  0  0  0  0  0
   59.0370   31.1250   45.9420 C   0  0  0  0  0  0  0  0  0  0  0  0
   60.0383   26.2356   45.8870 H   0  0  0  0  0  0  0  0  0  0  0  0
   58.6197   24.2927   46.5421 H   0  0  0  0  0  0  0  0  0  0  0  0
   56.1350   24.5177   46.6010 H   0  0  0  0  0  0  0  0  0  0  0  0
   56.4728   28.6418   45.3402 H   0  0  0  0  0  0  0  0  0  0  0  0
   57.3942   29.6594   43.3342 H   0  0  0  0  0  0  0  0  0  0  0  0
   56.4920   31.9768   43.1549 H   0  0  0  0  0  0  0  0  0  0  0  0
   61.0053   33.3621   45.9550 H   0  0  0  0  0  0  0  0  0  0  0  0
   60.5809   34.8496   46.8781 H   0  0  0  0  0  0  0  0  0  0  0  0
   61.9083   35.0284   48.5968 H   0  0  0  0  0  0  0  0  0  0  0  0
   62.4784   33.5978   49.5561 H   0  0  0  0  0  0  0  0  0  0  0  0
   63.5371   34.7509   47.0364 H   0  0  0  0  0  0  0  0  0  0  0  0
   64.3228   33.6923   48.2988 H   0  0  0  0  0  0  0  0  0  0  0  0
   63.0374   30.6973   46.8284 H   0  0  0  0  0  0  0  0  0  0  0  0
   63.5439   31.4613   48.3823 H   0  0  0  0  0  0  0  0  0  0  0  0
   60.8264   31.3106   47.0937 H   0  0  0  0  0  0  0  0  0  0  0  0
   61.3199   31.2419   48.8447 H   0  0  0  0  0  0  0  0  0  0  0  0
   59.7605   30.8931   46.7375 H   0  0  0  0  0  0  0  0  0  0  0  0
  1  2  2  0
  2  3  1  0
  3  4  2  0
  4  5  1  0
  5  6  2  0
  6  7  1  0
  7  8  1  0
  7  9  2  0
  2 10  1  0
 10 11  1  0
 11 12  2  0
 12 13  1  0
 13 14  2  0
 13 15  1  0
 15 16  1  0
 16 17  2  0
 16 18  1  0
 18 19  1  0
 19 20  1  0
 20 21  1  0
 21 22  1  0
 22 23  1  0
 23 24  1  0
 15 25  1  0
  9  3  1  0
 25 10  2  0
 24 19  1  0
  4 26  1  0
  5 27  1  0
  6 28  1  0
  9 29  1  0
 11 30  1  0
 12 31  1  0
 18 32  1  0
 18 33  1  0
 20 34  1  0
 20 35  1  0
 21 36  1  0
 21 37  1  0
 23 38  1  0
 23 39  1  0
 24 40  1  0
 24 41  1  0
 25 42  1  0
M  CHG  1   8  -1
M  END
>  <UniqueID>  (13) 
12

>  <SMILES>  (13) 
O=C(c1cccc([O-])c1)c1ccc(=O)n(C(=O)CN2CCOCC2)c1

>  <Energy>  (13) 
68.64100396243455

>  <Genealogy>  (13) 
O=C(c1cccc([O-])c1)c1ccc(=O)n(C(=O)CN2CCOCC2)c1 (protonated)
O=C(c1cccc([O-])c1)c1ccc(=O)n(C(=O)CN2CCOCC2)c1 (3D coordinates assigned)
O=C(c1cccc([O-])c1)c1ccc(=O)n(C(=O)CN2CCOCC2)c1 (nonaromatic ring conformer: 68.64100396243455 kcal/mol)

>  <smiles>  (13) 
O=C(c1cccc(O)c1)c1ccc(=O)n(C(=O)CN2CCOCC2)c1

>  <score_type>  (13) 
oracle

>  <origin>  (13) 
adg

>  <m_score__min__energy>  (13) 
-11.74

>  <m_primary>  (13) 
energy

$$$$
13:0
     RDKit          3D

 32 33  0  0  0  0  0  0  0  0999 V2000
   62.1970   32.2920   47.4770 C   0  0  0  0  0  0  0  0  0  0  0  0
   60.9990   31.4650   47.1150 C   0  0  0  0  0  0  0  0  0  0  0  0
   61.1150   30.2090   47.1220 O   0  0  0  0  0  0  0  0  0  0  0  0
   59.6960   32.0840   46.7530 C   0  0  0  0  0  0  0  0  0  0  0  0
   59.2690   33.2910   47.3410 C   0  0  0  0  0  0  0  0  0  0  0  0
   58.0490   33.8630   46.9780 C   0  0  0  0  0  0  0  0  0  0  0  0
   57.2300   33.2400   46.0360 C   0  0  0  0  0  0  0  0  0  0  0  0
   57.6230   32.0240   45.4560 C   0  0  0  0  0  0  0  0  0  0  0  0
   56.8230   31.3580   44.4680 N   0  0  0  0  0  0  0  0  0  0  0  0
   56.3640   30.0010   44.5130 C   0  0  0  0  0  0  0  0  0  0  0  0
   55.1540   29.7350   44.7410 O   0  0  0  0  0  0  0  0  0  0  0  0
   57.3520   28.8850   44.3910 C   0  0  0  0  0  0  0  0  0  0  0  0
   58.1700   28.8160   45.5570 O   0  0  0  0  0  0  0  0  0  0  0  0
   58.0020   27.8520   46.5570 C   0  0  0  0  0  0  0  0  0  0  0  0
   58.7250   27.8630   47.5920 O   0  0  0  0  0  0  0  0  0  0  0  0
   56.9760   26.8160   46.3940 C   0  0  0  0  0  0  0  0  0  0  0  0
   57.1280   25.4700   46.6410 C   0  0  0  0  0  0  0  0  0  0  0  0
   55.9680   24.8430   46.3780 N   0  0  0  0  0  0  0  0  0  0  0  0
   55.1530   25.8420   45.9790 C   0  0  0  0  0  0  0  0  0  0  0  0
   53.9570   25.6480   45.6410 O   0  0  0  0  0  0  0  0  0  0  0  0
   55.7230   27.0640   45.9720 N   0  0  0  0  0  0  0  0  0  0  0  0
   58.8600   31.4650   45.8030 C   0  0  0  0  0  0  0  0  0  0  0  0
   62.2839   32.3520   48.5719 H   0  0  0  0  0  0  0  0  0  0  0  0
   63.1031   31.8261   47.0623 H   0  0  0  0  0  0  0  0  0  0  0  0
   62.0826   33.3044   47.0623 H   0  0  0  0  0  0  0  0  0  0  0  0
   59.9021   33.7863   48.0919 H   0  0  0  0  0  0  0  0  0  0  0  0
   57.7312   34.8107   47.4373 H   0  0  0  0  0  0  0  0  0  0  0  0
   56.2747   33.7026   45.7474 H   0  0  0  0  0  0  0  0  0  0  0  0
   56.8120   27.9343   44.2703 H   0  0  0  0  0  0  0  0  0  0  0  0
   57.9926   29.0694   43.5160 H   0  0  0  0  0  0  0  0  0  0  0  0
   58.0496   24.9858   46.9962 H   0  0  0  0  0  0  0  0  0  0  0  0
   59.1835   30.5280   45.3261 H   0  0  0  0  0  0  0  0  0  0  0  0
  1  2  1  0
  2  3  2  0
  2  4  1  0
  4  5  2  0
  5  6  1  0
  6  7  2  0
  7  8  1  0
  8  9  1  0
  9 10  1  0
 10 11  2  0
 10 12  1  0
 12 13  1  0
 13 14  1  0
 14 15  2  0
 14 16  1  0
 16 17  2  0
 17 18  1  0
 18 19  1  0
 19 20  2  0
 19 21  1  0
  8 22  2  0
 22  4  1  0
 21 16  1  0
  1 23  1  0
  1 24  1  0
  1 25  1  0
  5 26  1  0
  6 27  1  0
  7 28  1  0
 12 29  1  0
 12 30  1  0
 17 31  1  0
 22 32  1  0
M  CHG  3   9  -1  18  -1  21  -1
M  END
>  <UniqueID>  (14) 
13

>  <SMILES>  (14) 
CC(=O)c1cccc([N-]C(=O)COC(=O)c2c[n-]c(=O)[n-]2)c1

>  <Energy>  (14) 
60.724540916336245

>  <Genealogy>  (14) 
CC(=O)c1cccc([N-]C(=O)COC(=O)c2c[n-]c(=O)[n-]2)c1 (protonated)
CC(=O)c1cccc([N-]C(=O)COC(=O)c2c[n-]c(=O)[n-]2)c1 (3D coordinates assigned)
CC(=O)c1cccc([N-]C(=O)COC(=O)c2c[n-]c(=O)[n-]2)c1 (optimized conformer: 60.724540916336245 kcal/mol)

>  <smiles>  (14) 
CC(=O)c1cccc(NC(=O)COC(=O)c2c[nH]c(=O)[nH]2)c1

>  <score_type>  (14) 
oracle

>  <origin>  (14) 
adg

>  <m_score__min__energy>  (14) 
-12.69

>  <m_primary>  (14) 
energy

$$$$
14:0
     RDKit          3D

 60 63  0  0  0  0  0  0  0  0999 V2000
   56.5310   22.8120   42.6260 C   0  0  0  0  0  0  0  0  0  0  0  0
   55.5320   22.8150   43.6430 O   0  0  0  0  0  0  0  0  0  0  0  0
   55.7370   22.3960   44.9680 C   0  0  0  0  0  0  0  0  0  0  0  0
   56.7150   21.4390   45.2950 C   0  0  0  0  0  0  0  0  0  0  0  0
   56.9060   21.0450   46.6200 C   0  0  0  0  0  0  0  0  0  0  0  0
   56.1330   21.6020   47.6530 C   0  0  0  0  0  0  0  0  0  0  0  0
   56.3210   21.1810   49.0690 C   0  0  0  0  0  0  0  0  0  0  0  0
   55.2090   20.5620   49.8670 C   0  0  0  0  0  0  0  0  0  0  0  0
   57.4410   21.3470   49.6260 O   0  0  0  0  0  0  0  0  0  0  0  0
   55.1610   22.5640   47.3240 C   0  0  0  0  0  0  0  0  0  0  0  0
   54.9460   22.9540   45.9930 C   0  0  0  0  0  0  0  0  0  0  0  0
   53.8960   23.9980   45.7040 C   0  0  0  0  0  0  0  0  0  0  0  0
   54.4600   25.3050   45.7880 O   0  0  0  0  0  0  0  0  0  0  0  0
   55.8340   25.5380   45.9400 C   0  0  0  0  0  0  0  0  0  0  0  0
   56.3070   25.9230   47.0480 O   0  0  0  0  0  0  0  0  0  0  0  0
   56.7020   25.3420   44.8210 N   0  0  0  0  0  0  0  0  0  0  0  0
   58.1200   25.6970   44.8840 C   0  0  0  0  0  0  0  0  0  0  0  0
   58.2850   27.1800   44.9860 C   0  0  0  0  0  0  0  0  0  0  0  0
   59.4720   27.8800   44.8030 C   0  0  0  0  0  0  0  0  0  0  0  0
   59.3050   29.2710   44.8400 C   0  0  0  0  0  0  0  0  0  0  0  0
   57.9860   29.6680   45.0540 C   0  0  0  0  0  0  0  0  0  0  0  0
   57.4540   31.0460   45.0490 C   0  0  0  0  0  0  0  0  0  0  0  0
   56.2310   31.1960   44.7520 O   0  0  0  0  0  0  0  0  0  0  0  0
   58.2830   32.1970   45.3690 N   0  0  0  0  0  0  0  0  0  0  0  0
   58.5460   33.2110   44.3360 C   0  0  0  0  0  0  0  0  0  0  0  0
   58.2040   34.6010   44.8750 C   0  0  0  0  0  0  0  0  0  0  0  0
   59.0250   34.9210   46.1260 C   0  0  0  0  0  0  0  0  0  0  0  0
   59.1340   33.7590   47.0930 C   0  0  0  0  0  0  0  0  0  0  0  0
   59.6470   34.0040   48.3790 C   0  0  0  0  0  0  0  0  0  0  0  0
   59.9230   32.9490   49.2500 C   0  0  0  0  0  0  0  0  0  0  0  0
   59.7280   31.6380   48.8320 C   0  0  0  0  0  0  0  0  0  0  0  0
   59.2180   31.3740   47.5560 C   0  0  0  0  0  0  0  0  0  0  0  0
   58.8680   32.4280   46.6800 C   0  0  0  0  0  0  0  0  0  0  0  0
   57.0280   28.2850   45.1580 S   0  0  0  0  0  0  0  0  0  0  0  0
   57.5278   22.8090   43.0912 H   0  0  0  0  0  0  0  0  0  0  0  0
   56.4153   21.9142   42.0010 H   0  0  0  0  0  0  0  0  0  0  0  0
   56.4207   23.7105   42.0010 H   0  0  0  0  0  0  0  0  0  0  0  0
   57.3340   20.9978   44.4999 H   0  0  0  0  0  0  0  0  0  0  0  0
   57.6699   20.2903   46.8584 H   0  0  0  0  0  0  0  0  0  0  0  0
   55.4190   20.6789   50.9404 H   0  0  0  0  0  0  0  0  0  0  0  0
   54.2600   21.0617   49.6225 H   0  0  0  0  0  0  0  0  0  0  0  0
   55.1337   19.4922   49.6225 H   0  0  0  0  0  0  0  0  0  0  0  0
   54.5586   23.0188   48.1242 H   0  0  0  0  0  0  0  0  0  0  0  0
   53.4963   23.8398   44.6915 H   0  0  0  0  0  0  0  0  0  0  0  0
   53.0892   23.9085   46.4464 H   0  0  0  0  0  0  0  0  0  0  0  0
   56.2840   24.9810   43.9310 H   0  0  0  0  0  0  0  0  0  0  0  0
   58.5735   25.2209   45.7659 H   0  0  0  0  0  0  0  0  0  0  0  0
   58.6155   25.3463   43.9667 H   0  0  0  0  0  0  0  0  0  0  0  0
   60.4447   27.3912   44.6450 H   0  0  0  0  0  0  0  0  0  0  0  0
   60.1351   29.9814   44.7124 H   0  0  0  0  0  0  0  0  0  0  0  0
   59.6092   33.1795   44.0558 H   0  0  0  0  0  0  0  0  0  0  0  0
   57.9236   33.0004   43.4538 H   0  0  0  0  0  0  0  0  0  0  0  0
   58.4217   35.3509   44.1002 H   0  0  0  0  0  0  0  0  0  0  0  0
   57.1369   34.6209   45.1414 H   0  0  0  0  0  0  0  0  0  0  0  0
   60.0393   35.2088   45.8123 H   0  0  0  0  0  0  0  0  0  0  0  0
   58.5047   35.7333   46.6546 H   0  0  0  0  0  0  0  0  0  0  0  0
   59.8329   35.0389   48.7022 H   0  0  0  0  0  0  0  0  0  0  0  0
   60.2940   33.1547   50.2649 H   0  0  0  0  0  0  0  0  0  0  0  0
   59.9754   30.8051   49.5065 H   0  0  0  0  0  0  0  0  0  0  0  0
   59.0874   30.3318   47.2294 H   0  0  0  0  0  0  0  0  0  0  0  0
  1  2  1  0
  2  3  1  0
  3  4  2  0
  4  5  1  0
  5  6  2  0
  6  7  1  0
  7  8  1  0
  7  9  2  0
  6 10  1  0
 10 11  2  0
 11 12  1  0
 12 13  1  0
 13 14  1  0
 14 15  2  0
 14 16  1  0
 16 17  1  0
 17 18  1  0
 18 19  2  0
 19 20  1  0
 20 21  2  0
 21 22  1  0
 22 23  2  0
 22 24  1  0
 24 25  1  0
 25 26  1  0
 26 27  1  0
 27 28  1  0
 28 29  2  0
 29 30  1  0
 30 31  2  0
 31 32  1  0
 32 33  2  0
 21 34  1  0
 11  3  1  0
 34 18  1  0
 33 24  1  0
 33 28  1  0
  1 35  1  0
  1 36  1  0
  1 37  1  0
  4 38  1  0
  5 39  1  0
  8 40  1  0
  8 41  1  0
  8 42  1  0
 10 43  1  0
 12 44  1  0
 12 45  1  0
 16 46  1  0
 17 47  1  0
 17 48  1  0
 19 49  1  0
 20 50  1  0
 25 51  1  0
 25 52  1  0
 26 53  1  0
 26 54  1  0
 27 55  1  0
 27 56  1  0
 29 57  1  0
 30 58  1  0
 31 59  1  0
 32 60  1  0
M  END
>  <UniqueID>  (15) 
14

>  <SMILES>  (15) 
COc1ccc(C(C)=O)cc1COC(=O)NCc1ccc(C(=O)N2CCCc3ccccc32)s1

>  <Energy>  (15) 
98.34130436899424

>  <Genealogy>  (15) 
COc1ccc(C(C)=O)cc1COC(=O)NCc1ccc(C(=O)N2CCCc3ccccc32)s1 (3D coordinates assigned)
COc1ccc(C(C)=O)cc1COC(=O)NCc1ccc(C(=O)N2CCCc3ccccc32)s1 (nonaromatic ring conformer: 98.34130436899424 kcal/mol)

>  <smiles>  (15) 
COc1ccc(C(C)=O)cc1COC(=O)NCc1ccc(C(=O)N2CCCc3ccccc32)s1

>  <score_type>  (15) 
oracle

>  <origin>  (15) 
adg

>  <m_score__min__energy>  (15) 
-9.6400000000000006

>  <m_primary>  (15) 
energy

$$$$
15:0
     RDKit          3D

 43 46  0  0  0  0  0  0  0  0999 V2000
   60.2653   27.6629   49.5317 H   0  0  0  0  0  0  0  0  0  0  0  0
   60.0560   28.7350   49.4020 C   0  0  0  0  0  0  0  0  0  0  0  0
   60.0670   29.8980   50.6160 S   0  0  0  0  0  0  0  0  0  0  0  0
   59.6510   31.1490   49.5620 C   0  0  0  0  0  0  0  0  0  0  0  0
   59.5220   32.4050   49.8750 N   0  0  0  0  0  0  0  0  0  0  0  0
   60.0330   33.5130   49.1200 C   0  0  0  0  0  0  0  0  0  0  0  0
   59.3890   34.5960   49.1290 O   0  0  0  0  0  0  0  0  0  0  0  0
   61.3240   33.4400   48.3950 C   0  0  0  0  0  0  0  0  0  0  0  0
   62.4820   32.9560   49.0320 C   0  0  0  0  0  0  0  0  0  0  0  0
   62.4303   32.6197   50.0781 H   0  0  0  0  0  0  0  0  0  0  0  0
   63.6970   32.9000   48.3440 C   0  0  0  0  0  0  0  0  0  0  0  0
   64.5959   32.5150   48.8477 H   0  0  0  0  0  0  0  0  0  0  0  0
   63.7720   33.3320   47.0180 C   0  0  0  0  0  0  0  0  0  0  0  0
   64.7279   33.2809   46.4761 H   0  0  0  0  0  0  0  0  0  0  0  0
   62.6330   33.8290   46.3800 C   0  0  0  0  0  0  0  0  0  0  0  0
   62.6941   34.1751   45.3377 H   0  0  0  0  0  0  0  0  0  0  0  0
   61.4150   33.8870   47.0650 C   0  0  0  0  0  0  0  0  0  0  0  0
   60.5225   34.2849   46.5600 H   0  0  0  0  0  0  0  0  0  0  0  0
   59.5210   30.7100   48.2940 N   0  0  0  0  0  0  0  0  0  0  0  0
   59.7350   29.3680   48.2020 C   0  0  0  0  0  0  0  0  0  0  0  0
   59.7020   28.6560   46.8840 C   0  0  0  0  0  0  0  0  0  0  0  0
   59.4522   29.3746   46.0895 H   0  0  0  0  0  0  0  0  0  0  0  0
   60.6897   28.2111   46.6927 H   0  0  0  0  0  0  0  0  0  0  0  0
   58.6730   27.5670   46.9070 C   0  0  0  0  0  0  0  0  0  0  0  0
   58.6360   26.5810   47.8250 N   0  0  0  0  0  0  0  0  0  0  0  0
   57.6090   25.7970   47.5170 N   0  0  0  0  0  0  0  0  0  0  0  0
   57.0270   26.3240   46.4230 C   0  0  0  0  0  0  0  0  0  0  0  0
   55.8170   25.5860   45.6050 S   0  0  0  0  0  0  0  0  0  0  0  0
   57.6650   27.4420   46.0270 N   0  0  0  0  0  0  0  0  0  0  0  0
   57.4590   28.2220   44.8760 N   0  0  0  0  0  0  0  0  0  0  0  0
   56.6420   29.3970   44.8620 C   0  0  0  0  0  0  0  0  0  0  0  0
   55.3860   29.2870   44.9010 O   0  0  0  0  0  0  0  0  0  0  0  0
   57.2710   30.7380   44.8580 C   0  0  0  0  0  0  0  0  0  0  0  0
   57.7810   31.2900   46.0480 C   0  0  0  0  0  0  0  0  0  0  0  0
   57.7071   30.7244   46.9885 H   0  0  0  0  0  0  0  0  0  0  0  0
   58.3810   32.5530   46.0420 C   0  0  0  0  0  0  0  0  0  0  0  0
   58.7763   32.9767   46.9770 H   0  0  0  0  0  0  0  0  0  0  0  0
   58.4800   33.2790   44.8510 C   0  0  0  0  0  0  0  0  0  0  0  0
   59.2350   34.8620   44.8470 Cl  0  0  0  0  0  0  0  0  0  0  0  0
   57.9760   32.7400   43.6640 C   0  0  0  0  0  0  0  0  0  0  0  0
   58.0519   33.3107   42.7267 H   0  0  0  0  0  0  0  0  0  0  0  0
   57.3760   31.4780   43.6650 C   0  0  0  0  0  0  0  0  0  0  0  0
   56.9828   31.0597   42.7267 H   0  0  0  0  0  0  0  0  0  0  0  0
  1  2  1  0
  2  3  1  0
  3  4  1  0
  4  5  2  0
  5  6  1  0
  6  7  2  0
  6  8  1  0
  8  9  2  0
  9 10  1  0
  9 11  1  0
 11 12  1  0
 11 13  2  0
 13 14  1  0
 13 15  1  0
 15 16  1  0
 15 17  2  0
 17 18  1  0
  4 19  1  0
 19 20  1  0
 20 21  1  0
 21 22  1  0
 21 23  1  0
 21 24  1  0
 24 25  2  0
 25 26  1  0
 26 27  1  0
 27 28  2  0
 27 29  1  0
 29 30  1  0
 30 31  1  0
 31 32  2  0
 31 33  1  0
 33 34  2  0
 34 35  1  0
 34 36  1  0
 36 37  1  0
 36 38  2  0
 38 39  1  0
 38 40  1  0
 40 41  1  0
 40 42  2  0
 42 43  1  0
 20  2  2  0
 29 24  1  0
 42 33  1  0
 17  8  1  0
M  CHG  3  19  -1  26  -1  30  -1
M  END
>  <UniqueID>  (16) 
15

>  <SMILES>  (16) 
O=C(/N=c1/[n-]c(Cc2n[n-]c(=S)n2[N-]C(=O)c2ccc(Cl)cc2)cs1)c1ccccc1

>  <Energy>  (16) 
126.16190460479933

>  <Genealogy>  (16) 
O=C(N=c1[n-]c(Cc2n[n-]c(=S)n2[N-]C(=O)c2ccc(Cl)cc2)cs1)c1ccccc1 (protonated)
O=C(/N=c1/[n-]c(Cc2n[n-]c(=S)n2[N-]C(=O)c2ccc(Cl)cc2)cs1)c1ccccc1 (cis-trans isomerization)
O=C(/N=c1/[n-]c(Cc2n[n-]c(=S)n2[N-]C(=O)c2ccc(Cl)cc2)cs1)c1ccccc1 (3D coordinates assigned)
O=C(/N=c1/[n-]c(Cc2n[n-]c(=S)n2[N-]C(=O)c2ccc(Cl)cc2)cs1)c1ccccc1 (optimized conformer: 126.16190460479933 kcal/mol)

>  <smiles>  (16) 
O=C(N=c1[nH]c(Cc2n[nH]c(=S)n2NC(=O)c2ccc(Cl)cc2)cs1)c1ccccc1

>  <score_type>  (16) 
oracle

>  <origin>  (16) 
adg

>  <m_score__min__energy>  (16) 
-13.77

>  <m_primary>  (16) 
energy

$$$$
16:0
     RDKit          3D

 54 56  0  0  0  0  0  0  0  0999 V2000
   63.6860   32.9580   47.1180 C   0  0  0  0  0  0  0  0  0  0  0  0
   63.4930   33.8500   48.0940 C   0  0  0  0  0  0  0  0  0  0  0  0
   62.4660   33.6160   49.1670 C   0  0  0  0  0  0  0  0  0  0  0  0
   61.2960   34.4050   48.9310 O   0  0  0  0  0  0  0  0  0  0  0  0
   60.3670   34.1840   47.8960 C   0  0  0  0  0  0  0  0  0  0  0  0
   59.0870   33.6340   48.1250 C   0  0  0  0  0  0  0  0  0  0  0  0
   58.2030   33.4390   47.0590 C   0  0  0  0  0  0  0  0  0  0  0  0
   58.5790   33.7870   45.7510 C   0  0  0  0  0  0  0  0  0  0  0  0
   57.6430   33.5250   44.5980 C   0  0  0  0  0  0  0  0  0  0  0  0
   56.6430   32.3990   44.9050 C   0  0  0  0  0  0  0  0  0  0  0  0
   57.1410   31.1030   44.4500 N   0  0  0  0  0  0  0  0  0  0  0  0
   58.1740   30.3580   45.1090 C   0  0  0  0  0  0  0  0  0  0  0  0
   59.2450   30.9280   45.4600 O   0  0  0  0  0  0  0  0  0  0  0  0
   57.9730   28.8850   45.3330 C   0  0  0  0  0  0  0  0  0  0  0  0
   58.5980   28.3490   46.6360 C   0  0  0  0  0  0  0  0  0  0  0  0
   57.7370   27.2980   47.3560 C   0  0  0  0  0  0  0  0  0  0  0  0
   57.4290   26.1670   46.4790 N   0  0  0  0  0  0  0  0  0  0  0  0
   58.2770   25.1860   46.0920 C   0  0  0  0  0  0  0  0  0  0  0  0
   59.6120   25.1070   46.4750 O   0  0  0  0  0  0  0  0  0  0  0  0
   57.6260   24.2960   45.2660 C   0  0  0  0  0  0  0  0  0  0  0  0
   56.3340   24.7340   45.1450 C   0  0  0  0  0  0  0  0  0  0  0  0
   56.2430   25.8960   45.8870 C   0  0  0  0  0  0  0  0  0  0  0  0
   55.1120   26.6950   46.0010 O   0  0  0  0  0  0  0  0  0  0  0  0
   55.3600   24.1070   44.1950 C   0  0  0  0  0  0  0  0  0  0  0  0
   55.7400   22.6240   43.9460 C   0  0  0  0  0  0  0  0  0  0  0  0
   57.2410   22.3820   43.8510 C   0  0  0  0  0  0  0  0  0  0  0  0
   58.1200   23.1230   44.5430 C   0  0  0  0  0  0  0  0  0  0  0  0
   59.8540   34.3360   45.5240 C   0  0  0  0  0  0  0  0  0  0  0  0
   60.7370   34.5310   46.5910 C   0  0  0  0  0  0  0  0  0  0  0  0
   64.4422   33.1470   46.3418 H   0  0  0  0  0  0  0  0  0  0  0  0
   63.0887   32.0347   47.0907 H   0  0  0  0  0  0  0  0  0  0  0  0
   64.0952   34.7703   48.1128 H   0  0  0  0  0  0  0  0  0  0  0  0
   62.1879   32.5518   49.1741 H   0  0  0  0  0  0  0  0  0  0  0  0
   62.8969   33.9056   50.1368 H   0  0  0  0  0  0  0  0  0  0  0  0
   58.7839   33.3578   49.1457 H   0  0  0  0  0  0  0  0  0  0  0  0
   57.2073   33.0105   47.2459 H   0  0  0  0  0  0  0  0  0  0  0  0
   57.0829   34.4463   44.3803 H   0  0  0  0  0  0  0  0  0  0  0  0
   58.2497   33.2114   43.7357 H   0  0  0  0  0  0  0  0  0  0  0  0
   56.4750   32.3562   45.9913 H   0  0  0  0  0  0  0  0  0  0  0  0
   55.7051   32.6151   44.3724 H   0  0  0  0  0  0  0  0  0  0  0  0
   56.8916   28.6857   45.3625 H   0  0  0  0  0  0  0  0  0  0  0  0
   58.4811   28.3689   44.5051 H   0  0  0  0  0  0  0  0  0  0  0  0
   59.5687   27.8927   46.3920 H   0  0  0  0  0  0  0  0  0  0  0  0
   58.6927   29.2056   47.3196 H   0  0  0  0  0  0  0  0  0  0  0  0
   58.2841   26.9295   48.2363 H   0  0  0  0  0  0  0  0  0  0  0  0
   56.7903   27.7720   47.6545 H   0  0  0  0  0  0  0  0  0  0  0  0
   54.3487   24.1565   44.6250 H   0  0  0  0  0  0  0  0  0  0  0  0
   55.3867   24.6515   43.2396 H   0  0  0  0  0  0  0  0  0  0  0  0
   55.3431   22.0202   44.7754 H   0  0  0  0  0  0  0  0  0  0  0  0
   55.3076   22.3410   42.9750 H   0  0  0  0  0  0  0  0  0  0  0  0
   57.6140   21.5790   43.1982 H   0  0  0  0  0  0  0  0  0  0  0  0
   59.1867   22.8553   44.5664 H   0  0  0  0  0  0  0  0  0  0  0  0
   60.1577   34.6130   44.5037 H   0  0  0  0  0  0  0  0  0  0  0  0
   61.7318   34.9612   46.4031 H   0  0  0  0  0  0  0  0  0  0  0  0
  1  2  2  0
  2  3  1  0
  3  4  1  0
  4  5  1  0
  5  6  2  0
  6  7  1  0
  7  8  2  0
  8  9  1  0
  9 10  1  0
 10 11  1  0
 11 12  1  0
 12 13  2  0
 12 14  1  0
 14 15  1  0
 15 16  1  0
 16 17  1  0
 17 18  1  0
 18 19  1  0
 18 20  2  0
 20 21  1  0
 21 22  2  0
 22 23  1  0
 21 24  1  0
 24 25  1  0
 25 26  1  0
 26 27  2  0
  8 28  1  0
 28 29  2  0
 29  5  1  0
 22 17  1  0
 27 20  1  0
  1 30  1  0
  1 31  1  0
  2 32  1  0
  3 33  1  0
  3 34  1  0
  6 35  1  0
  7 36  1  0
  9 37  1  0
  9 38  1  0
 10 39  1  0
 10 40  1  0
 14 41  1  0
 14 42  1  0
 15 43  1  0
 15 44  1  0
 16 45  1  0
 16 46  1  0
 24 47  1  0
 24 48  1  0
 25 49  1  0
 25 50  1  0
 26 51  1  0
 27 52  1  0
 28 53  1  0
 29 54  1  0
M  CHG  3  11  -1  19  -1  23  -1
M  END
>  <UniqueID>  (17) 
16

>  <SMILES>  (17) 
C=CCOc1ccc(CC[N-]C(=O)CCCn2c([O-])c3c(c2[O-])CCC=C3)cc1

>  <Energy>  (17) 
78.09029819963004

>  <Genealogy>  (17) 
C=CCOc1ccc(CC[N-]C(=O)CCCn2c([O-])c3c(c2[O-])CCC=C3)cc1 (protonated)
C=CCOc1ccc(CC[N-]C(=O)CCCn2c([O-])c3c(c2[O-])CCC=C3)cc1 (3D coordinates assigned)
C=CCOc1ccc(CC[N-]C(=O)CCCn2c([O-])c3c(c2[O-])CCC=C3)cc1 (nonaromatic ring conformer: 78.09029819963004 kcal/mol)

>  <smiles>  (17) 
C=CCOc1ccc(CCNC(=O)CCCn2c(O)c3c(c2O)CCC=C3)cc1

>  <score_type>  (17) 
oracle

>  <origin>  (17) 
adg

>  <m_score__min__energy>  (17) 
-15.18

>  <m_primary>  (17) 
energy

$$$$
17:0
     RDKit          3D

 53 54  0  0  0  0  0  0  0  0999 V2000
   60.4520   32.8090   50.0120 C   0  0  0  0  0  0  0  0  0  0  0  0
   60.9540   31.3560   49.9600 C   0  0  0  0  0  0  0  0  0  0  0  0
   62.0840   31.2460   48.9250 C   0  0  0  0  0  0  0  0  0  0  0  0
   59.8050   30.3650   49.6380 C   0  0  1  0  0  0  0  0  0  0  0  0
   59.0850   30.0260   50.8690 N   0  0  0  0  0  0  0  0  0  0  0  0
   58.5150   30.9560   51.8010 C   0  0  0  0  0  0  0  0  0  0  0  0
   59.2710   31.5160   52.6380 O   0  0  0  0  0  0  0  0  0  0  0  0
   57.0650   31.3340   51.7680 C   0  0  0  0  0  0  0  0  0  0  0  0
   56.2580   30.1260   51.6590 N   0  0  0  0  0  0  0  0  0  0  0  0
   55.3170   29.6940   52.6460 C   0  0  0  0  0  0  0  0  0  0  0  0
   55.6450   29.7600   53.8620 O   0  0  0  0  0  0  0  0  0  0  0  0
   53.9540   29.1840   52.2500 C   0  0  0  0  0  0  0  0  0  0  0  0
   52.9200   30.2790   52.2040 C   0  0  0  0  0  0  0  0  0  0  0  0
   52.2640   30.6830   53.3790 C   0  0  0  0  0  0  0  0  0  0  0  0
   51.3320   31.7230   53.3410 C   0  0  0  0  0  0  0  0  0  0  0  0
   51.0550   32.3770   52.1370 C   0  0  0  0  0  0  0  0  0  0  0  0
   50.1280   33.4120   52.1110 O   0  0  0  0  0  0  0  0  0  0  0  0
   51.7130   31.9920   50.9630 C   0  0  0  0  0  0  0  0  0  0  0  0
   51.4360   32.6520   49.7670 O   0  0  0  0  0  0  0  0  0  0  0  0
   52.6480   30.9470   50.9990 C   0  0  0  0  0  0  0  0  0  0  0  0
   58.8480   30.9570   48.6390 C   0  0  0  0  0  0  0  0  0  0  0  0
   58.1870   31.9880   48.9400 O   0  0  0  0  0  0  0  0  0  0  0  0
   58.6760   30.3380   47.3610 N   0  0  0  0  0  0  0  0  0  0  0  0
   59.4630   30.7110   46.1940 C   0  0  0  0  0  0  0  0  0  0  0  0
   59.3980   32.1980   46.0070 C   0  0  0  0  0  0  0  0  0  0  0  0
   58.2730   32.7870   45.4050 C   0  0  0  0  0  0  0  0  0  0  0  0
   58.1970   34.1770   45.2680 C   0  0  0  0  0  0  0  0  0  0  0  0
   59.2330   34.9860   45.7420 C   0  0  0  0  0  0  0  0  0  0  0  0
   60.3460   34.4070   46.3580 C   0  0  0  0  0  0  0  0  0  0  0  0
   60.4270   33.0170   46.4950 C   0  0  0  0  0  0  0  0  0  0  0  0
   60.3438   33.1222   51.0609 H   0  0  0  0  0  0  0  0  0  0  0  0
   61.1755   33.4652   49.5061 H   0  0  0  0  0  0  0  0  0  0  0  0
   59.4777   32.8786   49.5061 H   0  0  0  0  0  0  0  0  0  0  0  0
   61.3422   31.0819   50.9521 H   0  0  0  0  0  0  0  0  0  0  0  0
   63.0491   31.1521   49.4444 H   0  0  0  0  0  0  0  0  0  0  0  0
   61.9190   30.3597   48.2948 H   0  0  0  0  0  0  0  0  0  0  0  0
   62.0930   32.1475   48.2948 H   0  0  0  0  0  0  0  0  0  0  0  0
   60.2439   29.4552   49.2025 H   0  0  0  0  0  0  0  0  0  0  0  0
   56.8031   31.8694   52.6926 H   0  0  0  0  0  0  0  0  0  0  0  0
   56.8725   31.9866   50.9036 H   0  0  0  0  0  0  0  0  0  0  0  0
   54.0252   28.7238   51.2534 H   0  0  0  0  0  0  0  0  0  0  0  0
   53.6358   28.4551   53.0099 H   0  0  0  0  0  0  0  0  0  0  0  0
   52.4849   30.1790   54.3315 H   0  0  0  0  0  0  0  0  0  0  0  0
   50.8141   32.0284   54.2621 H   0  0  0  0  0  0  0  0  0  0  0  0
   50.9910   33.5620   49.7540 H   0  0  0  0  0  0  0  0  0  0  0  0
   53.1711   30.6491   50.0783 H   0  0  0  0  0  0  0  0  0  0  0  0
   60.5090   30.4047   46.3430 H   0  0  0  0  0  0  0  0  0  0  0  0
   59.0598   30.2094   45.3019 H   0  0  0  0  0  0  0  0  0  0  0  0
   57.4506   32.1537   45.0408 H   0  0  0  0  0  0  0  0  0  0  0  0
   57.3201   34.6340   44.7862 H   0  0  0  0  0  0  0  0  0  0  0  0
   59.1726   36.0786   45.6303 H   0  0  0  0  0  0  0  0  0  0  0  0
   61.1590   35.0447   46.7354 H   0  0  0  0  0  0  0  0  0  0  0  0
   61.3007   32.5648   46.9871 H   0  0  0  0  0  0  0  0  0  0  0  0
  1  2  1  0
  2  3  1  0
  2  4  1  0
  4  5  1  0
  5  6  1  0
  6  7  2  0
  6  8  1  0
  8  9  1  0
  9 10  1  0
 10 11  2  0
 10 12  1  0
 12 13  1  0
 13 14  2  0
 14 15  1  0
 15 16  2  0
 16 17  1  0
 16 18  1  0
 18 19  1  0
 18 20  2  0
  4 21  1  0
 21 22  2  0
 21 23  1  0
 23 24  1  0
 24 25  1  0
 25 26  2  0
 26 27  1  0
 27 28  2  0
 28 29  1  0
 29 30  2  0
 20 13  1  0
 30 25  1  0
  1 31  1  0
  1 32  1  0
  1 33  1  0
  2 34  1  0
  3 35  1  0
  3 36  1  0
  3 37  1  0
  4 38  1  6
  8 39  1  0
  8 40  1  0
 12 41  1  0
 12 42  1  0
 14 43  1  0
 15 44  1  0
 19 45  1  0
 20 46  1  0
 24 47  1  0
 24 48  1  0
 26 49  1  0
 27 50  1  0
 28 51  1  0
 29 52  1  0
 30 53  1  0
M  CHG  4   5  -1   9  -1  17  -1  23  -1
M  END
>  <UniqueID>  (18) 
17

>  <SMILES>  (18) 
CC(C)[C@@H]([N-]C(=O)C[N-]C(=O)Cc1ccc([O-])c(O)c1)C(=O)[N-]Cc1ccccc1

>  <Energy>  (18) 
38.51989873753074

>  <Genealogy>  (18) 
CC(C)C([N-]C(=O)C[N-]C(=O)Cc1ccc([O-])c(O)c1)C(=O)[N-]Cc1ccccc1 (protonated)
CC(C)[C@@H]([N-]C(=O)C[N-]C(=O)Cc1ccc([O-])c(O)c1)C(=O)[N-]Cc1ccccc1 (chirality)
CC(C)[C@@H]([N-]C(=O)C[N-]C(=O)Cc1ccc([O-])c(O)c1)C(=O)[N-]Cc1ccccc1 (3D coordinates assigned)
CC(C)[C@@H]([N-]C(=O)C[N-]C(=O)Cc1ccc([O-])c(O)c1)C(=O)[N-]Cc1ccccc1 (optimized conformer: 38.51989873753074 kcal/mol)

>  <smiles>  (18) 
CC(C)C(NC(=O)CNC(=O)Cc1ccc(O)c(O)c1)C(=O)NCc1ccccc1

>  <score_type>  (18) 
oracle

>  <origin>  (18) 
adg

>  <m_score__min__energy>  (18) 
-14.91

>  <m_primary>  (18) 
energy

$$$$
18:0
     RDKit          3D

 56 60  0  0  0  0  0  0  0  0999 V2000
   54.3380   25.9860   45.9890 N   0  0  0  0  0  0  0  0  0  0  0  0
   55.5950   26.2860   45.9830 C   0  0  0  0  0  0  0  0  0  0  0  0
   56.5210   25.3730   46.3800 N   0  0  0  0  0  0  0  0  0  0  0  0
   57.8470   25.6640   46.3680 C   0  0  0  0  0  0  0  0  0  0  0  0
   58.6730   24.7860   46.7400 O   0  0  0  0  0  0  0  0  0  0  0  0
   58.2810   26.9320   45.9410 C   0  0  0  0  0  0  0  0  0  0  0  0
   59.6430   27.2720   45.8890 C   0  0  0  0  0  0  0  0  0  0  0  0
   60.0310   28.5360   45.4430 C   0  0  0  0  0  0  0  0  0  0  0  0
   59.0700   29.4720   45.0480 C   0  0  0  0  0  0  0  0  0  0  0  0
   57.6990   29.1610   45.1000 C   0  0  0  0  0  0  0  0  0  0  0  0
   56.7060   30.1810   44.6720 C   0  0  0  0  0  0  0  0  0  0  0  0
   55.4720   29.9320   44.7390 O   0  0  0  0  0  0  0  0  0  0  0  0
   57.1440   31.4690   44.2140 N   0  0  0  0  0  0  0  0  0  0  0  0
   57.8050   32.4420   45.0360 C   0  0  0  0  0  0  0  0  0  0  0  0
   58.2590   33.6340   44.4610 C   0  0  0  0  0  0  0  0  0  0  0  0
   58.8980   34.5960   45.2500 C   0  0  0  0  0  0  0  0  0  0  0  0
   59.0820   34.3770   46.6190 C   0  0  0  0  0  0  0  0  0  0  0  0
   58.6050   33.1980   47.2140 C   0  0  0  0  0  0  0  0  0  0  0  0
   58.7540   32.9620   48.6970 C   0  0  0  0  0  0  0  0  0  0  0  0
   60.1430   33.3190   49.1570 C   0  0  0  0  0  0  0  0  0  0  0  0
   60.4620   33.9840   50.3250 C   0  0  0  0  0  0  0  0  0  0  0  0
   59.5530   34.4600   51.2610 O   0  0  0  0  0  0  0  0  0  0  0  0
   61.7970   34.1150   50.4520 N   0  0  0  0  0  0  0  0  0  0  0  0
   62.2670   33.5220   49.3350 C   0  0  0  0  0  0  0  0  0  0  0  0
   63.4980   33.4270   49.0850 O   0  0  0  0  0  0  0  0  0  0  0  0
   61.3010   33.0420   48.5180 N   0  0  0  0  0  0  0  0  0  0  0  0
   61.5100   32.3460   47.2420 C   0  0  0  0  0  0  0  0  0  0  0  0
   61.6510   30.8350   47.4620 C   0  0  0  0  0  0  0  0  0  0  0  0
   60.7360   30.3560   48.5580 C   0  0  0  0  0  0  0  0  0  0  0  0
   59.4300   29.9330   48.2550 C   0  0  0  0  0  0  0  0  0  0  0  0
   58.5770   29.5020   49.2750 C   0  0  0  0  0  0  0  0  0  0  0  0
   59.0170   29.4990   50.6050 C   0  0  0  0  0  0  0  0  0  0  0  0
   58.1690   29.0690   51.6170 O   0  0  0  0  0  0  0  0  0  0  0  0
   60.3110   29.9320   50.9140 C   0  0  0  0  0  0  0  0  0  0  0  0
   61.1680   30.3630   49.8950 C   0  0  0  0  0  0  0  0  0  0  0  0
   57.9540   32.2460   46.4180 C   0  0  0  0  0  0  0  0  0  0  0  0
   57.3040   27.8750   45.5430 C   0  0  0  0  0  0  0  0  0  0  0  0
   55.9900   27.5180   45.5710 N   0  0  0  0  0  0  0  0  0  0  0  0
   53.6280   26.6180   46.4260 H   0  0  0  0  0  0  0  0  0  0  0  0
   60.4042   26.5413   46.2001 H   0  0  0  0  0  0  0  0  0  0  0  0
   61.0986   28.7976   45.4019 H   0  0  0  0  0  0  0  0  0  0  0  0
   59.3897   30.4627   44.6926 H   0  0  0  0  0  0  0  0  0  0  0  0
   58.1130   33.8150   43.3859 H   0  0  0  0  0  0  0  0  0  0  0  0
   59.2575   35.5291   44.7917 H   0  0  0  0  0  0  0  0  0  0  0  0
   59.6012   35.1296   47.2306 H   0  0  0  0  0  0  0  0  0  0  0  0
   58.0242   33.5836   49.2365 H   0  0  0  0  0  0  0  0  0  0  0  0
   58.5761   31.8966   48.9047 H   0  0  0  0  0  0  0  0  0  0  0  0
   60.6501   32.5357   46.5828 H   0  0  0  0  0  0  0  0  0  0  0  0
   62.4356   32.7230   46.7825 H   0  0  0  0  0  0  0  0  0  0  0  0
   61.3973   30.3114   46.5285 H   0  0  0  0  0  0  0  0  0  0  0  0
   62.6890   30.6215   47.7570 H   0  0  0  0  0  0  0  0  0  0  0  0
   59.0785   29.9412   47.2127 H   0  0  0  0  0  0  0  0  0  0  0  0
   57.5584   29.1646   49.0329 H   0  0  0  0  0  0  0  0  0  0  0  0
   60.6551   29.9337   51.9588 H   0  0  0  0  0  0  0  0  0  0  0  0
   62.1829   30.7083   50.1415 H   0  0  0  0  0  0  0  0  0  0  0  0
   57.5542   31.3325   46.8825 H   0  0  0  0  0  0  0  0  0  0  0  0
  1  2  2  3
  2  3  1  0
  3  4  1  0
  4  5  2  0
  4  6  1  0
  6  7  2  0
  7  8  1  0
  8  9  2  0
  9 10  1  0
 10 11  1  0
 11 12  2  0
 11 13  1  0
 13 14  1  0
 14 15  2  0
 15 16  1  0
 16 17  2  0
 17 18  1  0
 18 19  1  0
 19 20  1  0
 20 21  2  0
 21 22  1  0
 21 23  1  0
 23 24  1  0
 24 25  2  0
 24 26  1  0
 26 27  1  0
 27 28  1  0
 28 29  1  0
 29 30  2  0
 30 31  1  0
 31 32  2  0
 32 33  1  0
 32 34  1  0
 34 35  2  0
 18 36  2  0
 10 37  2  0
 37 38  1  0
 38  2  1  0
 37  6  1  0
 36 14  1  0
 26 20  1  0
 35 29  1  0
  1 39  1  0
  7 40  1  0
  8 41  1  0
  9 42  1  0
 15 43  1  0
 16 44  1  0
 17 45  1  0
 19 46  1  0
 19 47  1  0
 27 48  1  0
 27 49  1  0
 28 50  1  0
 28 51  1  0
 30 52  1  0
 31 53  1  0
 34 54  1  0
 35 55  1  0
 36 56  1  0
M  CHG  6   3  -1  13  -1  22  -1  23  -1  33  -1  38  -1
M  END
>  <UniqueID>  (19) 
18

>  <SMILES>  (19) 
N=c1[n-]c(=O)c2cccc(C(=O)[N-]c3cccc(Cc4c([O-])[n-]c(=O)n4CCc4ccc([O-])cc4)c3)c2[n-]1

>  <Energy>  (19) 
100.82119790158836

>  <Genealogy>  (19) 
N=c1[n-]c(=O)c2cccc(C(=O)[N-]c3cccc(Cc4c([O-])[n-]c(=O)n4CCc4ccc([O-])cc4)c3)c2[n-]1 (protonated)
N=c1[n-]c(=O)c2cccc(C(=O)[N-]c3cccc(Cc4c([O-])[n-]c(=O)n4CCc4ccc([O-])cc4)c3)c2[n-]1 (3D coordinates assigned)
N=c1[n-]c(=O)c2cccc(C(=O)[N-]c3cccc(Cc4c([O-])[n-]c(=O)n4CCc4ccc([O-])cc4)c3)c2[n-]1 (optimized conformer: 100.82119790158836 kcal/mol)

>  <smiles>  (19) 
N=c1[nH]c(=O)c2cccc(C(=O)Nc3cccc(Cc4c(O)[nH]c(=O)n4CCc4ccc(O)cc4)c3)c2[nH]1

>  <score_type>  (19) 
oracle

>  <origin>  (19) 
adg

>  <m_score__min__energy>  (19) 
-20.68

>  <m_primary>  (19) 
energy

$$$$
19:0
     RDKit          3D

 40 41  0  0  0  0  0  0  0  0999 V2000
   58.3671   32.7021   43.3820 H   0  0  0  0  0  0  0  0  0  0  0  0
   57.7960   32.0560   44.0650 C   0  0  0  0  0  0  0  0  0  0  0  0
   57.1420   31.0090   43.5450 C   0  0  0  0  0  0  0  0  0  0  0  0
   56.5013   31.1934   42.6701 H   0  0  0  0  0  0  0  0  0  0  0  0
   57.2160   29.6270   44.0570 C   0  0  0  0  0  0  0  0  0  0  0  0
   56.2600   28.9650   44.8230 C   0  0  0  0  0  0  0  0  0  0  0  0
   55.0310   29.4600   45.2450 O   0  0  0  0  0  0  0  0  0  0  0  0
   56.7890   27.7340   45.1280 C   0  0  0  0  0  0  0  0  0  0  0  0
   56.2790   26.6690   45.8650 C   0  0  0  0  0  0  0  0  0  0  0  0
   55.2758   26.7171   46.3137 H   0  0  0  0  0  0  0  0  0  0  0  0
   57.0900   25.5280   46.0170 C   0  0  0  0  0  0  0  0  0  0  0  0
   56.6260   24.4690   46.7250 F   0  0  0  0  0  0  0  0  0  0  0  0
   58.3820   25.4860   45.4360 C   0  0  0  0  0  0  0  0  0  0  0  0
   59.4810   23.9370   45.6480 Br  0  0  0  0  0  0  0  0  0  0  0  0
   58.8690   26.5860   44.7040 C   0  0  0  0  0  0  0  0  0  0  0  0
   59.8722   26.5675   44.2533 H   0  0  0  0  0  0  0  0  0  0  0  0
   58.0410   27.6990   44.5680 C   0  0  0  0  0  0  0  0  0  0  0  0
   58.3170   28.8490   43.9240 N   0  0  0  0  0  0  0  0  0  0  0  0
   59.2020   29.0920   43.4250 H   0  0  0  0  0  0  0  0  0  0  0  0
   57.7940   32.3940   45.5100 C   0  0  0  0  0  0  0  0  0  0  0  0
   57.0397   31.9190   46.1545 H   0  0  0  0  0  0  0  0  0  0  0  0
   58.6650   33.2500   46.0740 C   0  0  0  0  0  0  0  0  0  0  0  0
   59.0050   34.5020   45.4320 C   0  0  0  0  0  0  0  0  0  0  0  0
   59.2790   35.5020   44.9160 N   0  0  0  0  0  0  0  0  0  0  0  0
   59.3160   32.9180   47.3600 C   0  0  0  0  0  0  0  0  0  0  0  0
   58.6990   33.1260   48.4410 O   0  0  0  0  0  0  0  0  0  0  0  0
   60.6130   32.3790   47.3660 O   0  0  0  0  0  0  0  0  0  0  0  0
   61.8280   33.0850   47.6540 C   0  0  0  0  0  0  0  0  0  0  0  0
   62.8860   32.0320   48.0210 C   0  0  0  0  0  0  0  0  0  0  0  0
   62.9629   31.9555   49.1156 H   0  0  0  0  0  0  0  0  0  0  0  0
   62.5925   31.0569   47.6050 H   0  0  0  0  0  0  0  0  0  0  0  0
   63.8597   32.3301   47.6050 H   0  0  0  0  0  0  0  0  0  0  0  0
   62.3100   33.8640   46.4160 C   0  0  0  0  0  0  0  0  0  0  0  0
   62.8634   34.7584   46.7381 H   0  0  0  0  0  0  0  0  0  0  0  0
   62.9692   33.2224   45.8128 H   0  0  0  0  0  0  0  0  0  0  0  0
   61.4417   34.1676   45.8128 H   0  0  0  0  0  0  0  0  0  0  0  0
   61.6350   34.0340   48.8530 C   0  0  0  0  0  0  0  0  0  0  0  0
   61.7499   33.4692   49.7899 H   0  0  0  0  0  0  0  0  0  0  0  0
   62.3888   34.8341   48.8124 H   0  0  0  0  0  0  0  0  0  0  0  0
   60.6286   34.4761   48.8124 H   0  0  0  0  0  0  0  0  0  0  0  0
  1  2  1  0
  2  3  2  0
  3  4  1  0
  3  5  1  0
  5  6  2  0
  6  7  1  0
  6  8  1  0
  8  9  2  0
  9 10  1  0
  9 11  1  0
 11 12  1  0
 11 13  2  0
 13 14  1  0
 13 15  1  0
 15 16  1  0
 15 17  2  0
 17 18  1  0
 18 19  1  0
  2 20  1  0
 20 21  1  0
 20 22  2  0
 22 23  1  0
 23 24  3  0
 22 25  1  0
 25 26  2  0
 25 27  1  0
 27 28  1  0
 28 29  1  0
 29 30  1  0
 29 31  1  0
 29 32  1  0
 28 33  1  0
 33 34  1  0
 33 35  1  0
 33 36  1  0
 28 37  1  0
 37 38  1  0
 37 39  1  0
 37 40  1  0
 18  5  1  0
 17  8  1  0
M  CHG  1   7  -1
M  END
>  <UniqueID>  (20) 
19

>  <SMILES>  (20) 
CC(C)(C)OC(=O)/C(C#N)=C/C=Cc1[nH]c2cc(Br)c(F)cc2c1[O-]

>  <Energy>  (20) 
75.2101453110403

>  <Genealogy>  (20) 
CC(C)(C)OC(=O)C(C#N)=CC=Cc1[nH]c2cc(Br)c(F)cc2c1[O-] (protonated)
CC(C)(C)OC(=O)/C(C#N)=C/C=Cc1[nH]c2cc(Br)c(F)cc2c1[O-] (cis-trans isomerization)
CC(C)(C)OC(=O)/C(C#N)=C/C=Cc1[nH]c2cc(Br)c(F)cc2c1[O-] (3D coordinates assigned)
CC(C)(C)OC(=O)/C(C#N)=C/C=Cc1[nH]c2cc(Br)c(F)cc2c1[O-] (optimized conformer: 75.2101453110403 kcal/mol)

>  <smiles>  (20) 
CC(C)(C)OC(=O)C(C#N)=CC=Cc1[nH]c2cc(Br)c(F)cc2c1O

>  <score_type>  (20) 
oracle

>  <origin>  (20) 
adg

>  <m_score__min__energy>  (20) 
-10.369999999999999

>  <m_primary>  (20) 
energy

$$$$
20:0
     RDKit          3D

 31 32  0  0  1  0  0  0  0  0999 V2000
   56.6270   23.4700   43.2090 C   0  0  0  0  0  0  0  0  0  0  0  0
   56.5690   24.3850   44.1730 C   0  0  0  0  0  0  0  0  0  0  0  0
   55.4190   24.3820   45.1450 C   0  0  0  0  0  0  0  0  0  0  0  0
   55.4290   25.5500   46.0020 N   0  0  0  0  0  0  0  0  0  0  0  0
   56.4920   26.2330   46.2680 C   0  0  0  0  0  0  0  0  0  0  0  0
   56.5340   27.5230   45.8970 N   0  0  0  0  0  0  0  0  0  0  0  0
   57.6100   28.3120   46.1370 C   0  0  0  0  0  0  0  0  0  0  0  0
   57.6410   29.6780   45.7370 N   0  0  0  0  0  0  0  0  0  0  0  0
   57.3140   30.0260   44.5470 C   0  0  0  0  0  0  0  0  0  0  0  0
   57.7550   31.1460   43.8760 C   0  0  0  0  0  0  0  0  0  0  0  0
   57.1310   31.0970   42.6240 C   0  0  0  0  0  0  0  0  0  0  0  0
   57.3040   32.1060   41.5470 C   0  0  0  0  0  0  0  0  0  0  0  0
   56.3720   29.9900   42.6010 N   0  0  0  0  0  0  0  0  0  0  0  0
   56.4700   29.3360   43.7450 N   0  0  0  0  0  0  0  0  0  0  0  0
   58.6700   27.7140   46.7900 C   0  0  0  0  0  0  0  0  0  0  0  0
   58.5990   26.3870   47.1600 C   0  0  0  0  0  0  0  0  0  0  0  0
   57.5140   25.6330   46.9050 N   0  0  0  0  0  0  0  0  0  0  0  0
   57.4670   23.4719   42.4987 H   0  0  0  0  0  0  0  0  0  0  0  0
   55.8350   22.7116   43.1222 H   0  0  0  0  0  0  0  0  0  0  0  0
   57.3609   25.1435   44.2600 H   0  0  0  0  0  0  0  0  0  0  0  0
   54.4759   24.3649   44.5791 H   0  0  0  0  0  0  0  0  0  0  0  0
   55.5164   23.4916   45.7835 H   0  0  0  0  0  0  0  0  0  0  0  0
   58.4495   31.9148   44.2456 H   0  0  0  0  0  0  0  0  0  0  0  0
   57.4737   33.0959   41.9957 H   0  0  0  0  0  0  0  0  0  0  0  0
   58.1684   31.8328   40.9240 H   0  0  0  0  0  0  0  0  0  0  0  0
   56.3979   32.1363   40.9240 H   0  0  0  0  0  0  0  0  0  0  0  0
   55.7780   29.6680   41.8030 H   0  0  0  0  0  0  0  0  0  0  0  0
   55.9810   28.4500   43.9780 H   0  0  0  0  0  0  0  0  0  0  0  0
   59.5743   28.2981   47.0159 H   0  0  0  0  0  0  0  0  0  0  0  0
   59.4551   25.9314   47.6791 H   0  0  0  0  0  0  0  0  0  0  0  0
   57.4580   24.6290   47.1830 H   0  0  0  0  0  0  0  0  0  0  0  0
  1  2  2  0
  2  3  1  0
  3  4  1  0
  4  5  2  0
  5  6  1  0
  6  7  2  0
  7  8  1  0
  8  9  2  0
  9 10  1  0
 10 11  2  0
 11 12  1  0
 11 13  1  0
 13 14  1  0
  7 15  1  0
 15 16  2  0
 16 17  1  0
 17  5  1  0
 14  9  1  0
  1 18  1  0
  1 19  1  0
  2 20  1  0
  3 21  1  0
  3 22  1  0
 10 23  1  0
 12 24  1  0
 12 25  1  0
 12 26  1  0
 13 27  1  0
 14 28  1  0
 15 29  1  0
 16 30  1  0
 17 31  1  0
M  END
>  <smiles>  (21) 
C=CCN=c1nc(N=c2cc(C)[nH][nH]2)cc[nH]1

>  <score_type>  (21) 
oracle

>  <origin>  (21) 
adg

>  <m_score__min__energy>  (21) 
-6.2199999999999998

>  <m_primary>  (21) 
energy

$$$$
22:0
     RDKit          3D

 23 24  0  0  0  0  0  0  0  0999 V2000
   59.2080   27.4700   44.5260 O   0  0  0  0  0  0  0  0  0  0  0  0
   58.4760   27.7820   45.5040 C   0  0  0  0  0  0  0  0  0  0  0  0
   58.8260   28.9870   46.3260 C   0  0  0  0  0  0  0  0  0  0  0  0
   58.4380   30.2460   45.5970 C   0  0  0  0  0  0  0  0  0  0  0  0
   57.9610   30.1790   44.2770 C   0  0  0  0  0  0  0  0  0  0  0  0
   57.5720   31.3430   43.6080 C   0  0  0  0  0  0  0  0  0  0  0  0
   57.1160   31.2720   42.3330 F   0  0  0  0  0  0  0  0  0  0  0  0
   57.6470   32.5810   44.2540 C   0  0  0  0  0  0  0  0  0  0  0  0
   58.1130   32.6550   45.5710 C   0  0  0  0  0  0  0  0  0  0  0  0
   58.1810   33.8560   46.1970 F   0  0  0  0  0  0  0  0  0  0  0  0
   58.5040   31.4920   46.2420 C   0  0  0  0  0  0  0  0  0  0  0  0
   57.2670   26.9880   45.7970 C   0  0  0  0  0  0  0  0  0  0  0  0
   57.2840   25.7370   46.2930 N   0  0  0  0  0  0  0  0  0  0  0  0
   55.9760   25.4230   46.3980 C   0  0  0  0  0  0  0  0  0  0  0  0
   55.5790   24.3100   46.8340 O   0  0  0  0  0  0  0  0  0  0  0  0
   55.1260   26.3930   45.9990 N   0  0  0  0  0  0  0  0  0  0  0  0
   55.9580   27.3760   45.6220 C   0  0  0  0  0  0  0  0  0  0  0  0
   55.5280   28.6010   45.1300 O   0  0  0  0  0  0  0  0  0  0  0  0
   58.2877   28.9417   47.2842 H   0  0  0  0  0  0  0  0  0  0  0  0
   59.9114   28.9962   46.5043 H   0  0  0  0  0  0  0  0  0  0  0  0
   57.8934   29.2063   43.7679 H   0  0  0  0  0  0  0  0  0  0  0  0
   57.3397   33.4962   43.7268 H   0  0  0  0  0  0  0  0  0  0  0  0
   58.8648   31.5533   47.2793 H   0  0  0  0  0  0  0  0  0  0  0  0
  1  2  2  0
  2  3  1  0
  3  4  1  0
  4  5  2  0
  5  6  1  0
  6  7  1  0
  6  8  2  0
  8  9  1  0
  9 10  1  0
  9 11  2  0
  2 12  1  0
 12 13  1  0
 13 14  1  0
 14 15  2  0
 14 16  1  0
 16 17  1  0
 17 18  1  0
 11  4  1  0
 17 12  2  0
  3 19  1  0
  3 20  1  0
  5 21  1  0
  8 22  1  0
 11 23  1  0
M  CHG  3  13  -1  16  -1  18  -1
M  END
>  <UniqueID>  (22) 
20

>  <SMILES>  (22) 
O=C(Cc1cc(F)cc(F)c1)c1[n-]c(=O)[n-]c1[O-]

>  <Energy>  (22) 
51.082471416969945

>  <Genealogy>  (22) 
O=C(Cc1cc(F)cc(F)c1)c1[n-]c(=O)[n-]c1[O-] (protonated)
O=C(Cc1cc(F)cc(F)c1)c1[n-]c(=O)[n-]c1[O-] (3D coordinates assigned)
O=C(Cc1cc(F)cc(F)c1)c1[n-]c(=O)[n-]c1[O-] (optimized conformer: 51.082471416969945 kcal/mol)

>  <smiles>  (22) 
O=C(Cc1cc(F)cc(F)c1)c1[nH]c(=O)[nH]c1O

>  <score_type>  (22) 
oracle

>  <origin>  (22) 
adg

>  <m_score__min__energy>  (22) 
-14.890000000000001

>  <m_primary>  (22) 
energy

$$$$
23:0
     RDKit          3D

 50 53  0  0  0  0  0  0  0  0999 V2000
   60.5610   34.3400   50.1010 O   0  0  0  0  0  0  0  0  0  0  0  0
   60.1920   34.0460   48.9310 C   0  0  0  0  0  0  0  0  0  0  0  0
   58.8750   33.8510   48.6930 N   0  0  0  0  0  0  0  0  0  0  0  0
   58.4000   33.5120   47.4710 C   0  0  0  0  0  0  0  0  0  0  0  0
   57.0190   33.3520   47.3430 O   0  0  0  0  0  0  0  0  0  0  0  0
   59.3090   33.3310   46.4010 C   0  0  0  0  0  0  0  0  0  0  0  0
   58.8910   32.8310   45.0260 C   0  0  0  0  0  0  0  0  0  0  0  0
   57.9940   31.6140   45.1310 C   0  0  0  0  0  0  0  0  0  0  0  0
   56.7790   31.5830   44.4230 C   0  0  0  0  0  0  0  0  0  0  0  0
   55.9620   30.4510   44.4630 C   0  0  0  0  0  0  0  0  0  0  0  0
   56.3450   29.3360   45.2100 C   0  0  0  0  0  0  0  0  0  0  0  0
   55.5320   28.2090   45.2450 O   0  0  0  0  0  0  0  0  0  0  0  0
   57.5440   29.3530   45.9260 C   0  0  0  0  0  0  0  0  0  0  0  0
   58.3710   30.4860   45.8950 C   0  0  0  0  0  0  0  0  0  0  0  0
   59.5920   30.4840   46.6460 N   0  0  0  0  0  0  0  0  0  0  0  0
   59.6900   29.9860   47.9930 C   0  0  0  0  0  0  0  0  0  0  0  0
   60.4020   28.8080   48.2950 C   0  0  0  0  0  0  0  0  0  0  0  0
   60.5350   28.3850   49.6200 C   0  0  0  0  0  0  0  0  0  0  0  0
   59.9700   29.1320   50.6560 C   0  0  0  0  0  0  0  0  0  0  0  0
   60.1770   28.5590   52.4660 Br  0  0  0  0  0  0  0  0  0  0  0  0
   59.2630   30.3020   50.3670 C   0  0  0  0  0  0  0  0  0  0  0  0
   59.1230   30.7270   49.0420 C   0  0  0  0  0  0  0  0  0  0  0  0
   60.6740   33.5890   46.6560 C   0  0  0  0  0  0  0  0  0  0  0  0
   61.5060   33.4970   45.7100 O   0  0  0  0  0  0  0  0  0  0  0  0
   61.1030   33.9330   47.9150 N   0  0  0  0  0  0  0  0  0  0  0  0
   62.5410   34.1320   48.1890 C   0  0  0  0  0  0  0  0  0  0  0  0
   63.0560   33.0610   49.1170 C   0  0  0  0  0  0  0  0  0  0  0  0
   64.2040   33.2850   49.8950 C   0  0  0  0  0  0  0  0  0  0  0  0
   64.6750   32.2910   50.7590 C   0  0  0  0  0  0  0  0  0  0  0  0
   64.0000   31.0710   50.8580 C   0  0  0  0  0  0  0  0  0  0  0  0
   62.8500   30.8460   50.0970 C   0  0  0  0  0  0  0  0  0  0  0  0
   62.3780   31.8340   49.2290 C   0  0  0  0  0  0  0  0  0  0  0  0
   56.3240   33.8550   47.8750 H   0  0  0  0  0  0  0  0  0  0  0  0
   58.3479   33.6322   44.5034 H   0  0  0  0  0  0  0  0  0  0  0  0
   59.7967   32.5474   44.4700 H   0  0  0  0  0  0  0  0  0  0  0  0
   56.4696   32.4580   43.8326 H   0  0  0  0  0  0  0  0  0  0  0  0
   55.0144   30.4382   43.9045 H   0  0  0  0  0  0  0  0  0  0  0  0
   57.8413   28.4741   46.5169 H   0  0  0  0  0  0  0  0  0  0  0  0
   60.4680   30.7530   46.1420 H   0  0  0  0  0  0  0  0  0  0  0  0
   60.8551   28.2189   47.4840 H   0  0  0  0  0  0  0  0  0  0  0  0
   61.0864   27.4608   49.8479 H   0  0  0  0  0  0  0  0  0  0  0  0
   58.8160   30.8895   51.1825 H   0  0  0  0  0  0  0  0  0  0  0  0
   58.5647   31.6484   48.8202 H   0  0  0  0  0  0  0  0  0  0  0  0
   63.0991   34.0892   47.2420 H   0  0  0  0  0  0  0  0  0  0  0  0
   62.6792   35.1130   48.6672 H   0  0  0  0  0  0  0  0  0  0  0  0
   64.7346   34.2460   49.8244 H   0  0  0  0  0  0  0  0  0  0  0  0
   65.5779   32.4696   51.3614 H   0  0  0  0  0  0  0  0  0  0  0  0
   64.3740   30.2885   51.5346 H   0  0  0  0  0  0  0  0  0  0  0  0
   62.3149   29.8887   50.1814 H   0  0  0  0  0  0  0  0  0  0  0  0
   61.4729   31.6514   48.6311 H   0  0  0  0  0  0  0  0  0  0  0  0
  1  2  2  0
  2  3  1  0
  3  4  1  0
  4  5  1  0
  4  6  2  0
  6  7  1  0
  7  8  1  0
  8  9  2  0
  9 10  1  0
 10 11  2  0
 11 12  1  0
 11 13  1  0
 13 14  2  0
 14 15  1  0
 15 16  1  0
 16 17  2  0
 17 18  1  0
 18 19  2  0
 19 20  1  0
 19 21  1  0
 21 22  2  0
  6 23  1  0
 23 24  2  0
 23 25  1  0
 25 26  1  0
 26 27  1  0
 27 28  2  0
 28 29  1  0
 29 30  2  0
 30 31  1  0
 31 32  2  0
 25  2  1  0
 32 27  1  0
 14  8  1  0
 22 16  1  0
  5 33  1  0
  7 34  1  0
  7 35  1  0
  9 36  1  0
 10 37  1  0
 13 38  1  0
 15 39  1  0
 17 40  1  0
 18 41  1  0
 21 42  1  0
 22 43  1  0
 26 44  1  0
 26 45  1  0
 28 46  1  0
 29 47  1  0
 30 48  1  0
 31 49  1  0
 32 50  1  0
M  CHG  2   3  -1  12  -1
M  END
>  <UniqueID>  (23) 
21

>  <SMILES>  (23) 
O=c1[n-]c(O)c(Cc2ccc([O-])cc2Nc2ccc(Br)cc2)c(=O)n1Cc1ccccc1

>  <Energy>  (23) 
64.14137973156623

>  <Genealogy>  (23) 
O=c1[n-]c(O)c(Cc2ccc([O-])cc2Nc2ccc(Br)cc2)c(=O)n1Cc1ccccc1 (protonated)
O=c1[n-]c(O)c(Cc2ccc([O-])cc2Nc2ccc(Br)cc2)c(=O)n1Cc1ccccc1 (3D coordinates assigned)
O=c1[n-]c(O)c(Cc2ccc([O-])cc2Nc2ccc(Br)cc2)c(=O)n1Cc1ccccc1 (optimized conformer: 64.14137973156623 kcal/mol)

>  <smiles>  (23) 
O=c1[nH]c(O)c(Cc2ccc(O)cc2Nc2ccc(Br)cc2)c(=O)n1Cc1ccccc1

>  <score_type>  (23) 
oracle

>  <origin>  (23) 
adg

>  <m_score__min__energy>  (23) 
-12.5

>  <m_primary>  (23) 
energy

$$$$
24:0
     RDKit          3D

 58 61  0  0  0  0  0  0  0  0999 V2000
   53.7840   25.9600   46.3680 H   0  0  0  0  0  0  0  0  0  0  0  0
   54.6660   26.0190   45.8730 O   0  0  0  0  0  0  0  0  0  0  0  0
   55.7950   25.3150   46.2870 C   0  0  0  0  0  0  0  0  0  0  0  0
   55.6960   24.3070   47.1970 N   0  0  0  0  0  0  0  0  0  0  0  0
   56.9010   23.7550   47.4480 C   0  0  0  0  0  0  0  0  0  0  0  0
   57.0650   22.8000   48.2520 O   0  0  0  0  0  0  0  0  0  0  0  0
   58.1340   24.4730   46.5650 S   0  0  0  0  0  0  0  0  0  0  0  0
   57.0900   25.5790   45.8280 C   0  0  0  0  0  0  0  0  0  0  0  0
   57.4450   26.5260   44.7500 C   0  0  0  0  0  0  0  0  0  0  0  0
   57.1383   26.2724   43.7245 H   0  0  0  0  0  0  0  0  0  0  0  0
   58.1180   27.6780   44.9360 C   0  0  0  0  0  0  0  0  0  0  0  0
   59.4350   27.8130   45.3610 C   0  0  0  0  0  0  0  0  0  0  0  0
   60.1411   26.9983   45.5793 H   0  0  0  0  0  0  0  0  0  0  0  0
   59.6850   29.1680   45.4560 C   0  0  0  0  0  0  0  0  0  0  0  0
   60.9680   29.7660   45.9500 C   0  0  0  0  0  0  0  0  0  0  0  0
   60.9720   29.7679   47.0500 H   0  0  0  0  0  0  0  0  0  0  0  0
   61.8161   29.1704   45.5812 H   0  0  0  0  0  0  0  0  0  0  0  0
   61.0572   30.7985   45.5812 H   0  0  0  0  0  0  0  0  0  0  0  0
   58.5850   29.8750   45.1170 N   0  0  0  0  0  0  0  0  0  0  0  0
   58.4610   31.3080   45.1630 C   0  0  0  0  0  0  0  0  0  0  0  0
   57.8680   31.9990   44.0970 C   0  0  0  0  0  0  0  0  0  0  0  0
   57.4913   31.4446   43.2248 H   0  0  0  0  0  0  0  0  0  0  0  0
   57.7550   33.3900   44.1410 C   0  0  0  0  0  0  0  0  0  0  0  0
   57.2949   33.9293   43.2999 H   0  0  0  0  0  0  0  0  0  0  0  0
   58.2240   34.0990   45.2490 C   0  0  0  0  0  0  0  0  0  0  0  0
   58.1406   35.1956   45.2726 H   0  0  0  0  0  0  0  0  0  0  0  0
   58.8020   33.4180   46.3340 C   0  0  0  0  0  0  0  0  0  0  0  0
   59.2950   34.1720   47.5070 C   0  0  0  0  0  0  0  0  0  0  0  0
   58.8880   35.3520   47.6950 O   0  0  0  0  0  0  0  0  0  0  0  0
   60.2120   33.5800   48.4480 N   0  0  0  0  0  0  0  0  0  0  0  0
   59.7210   33.0940   49.7390 C   0  0  0  0  0  0  0  0  0  0  0  0
   60.1636   33.6925   50.5489 H   0  0  0  0  0  0  0  0  0  0  0  0
   58.6253   33.1854   49.7735 H   0  0  0  0  0  0  0  0  0  0  0  0
   60.1160   31.6310   49.9130 C   0  0  0  0  0  0  0  0  0  0  0  0
   59.8297   31.2991   50.9219 H   0  0  0  0  0  0  0  0  0  0  0  0
   59.5962   31.0354   49.1481 H   0  0  0  0  0  0  0  0  0  0  0  0
   61.5650   31.4500   49.7410 N   0  0  0  0  0  0  0  0  0  0  0  0
   62.1560   30.3180   50.4070 C   0  0  0  0  0  0  0  0  0  0  0  0
   63.3190   30.4160   50.8810 O   0  0  0  0  0  0  0  0  0  0  0  0
   61.4500   28.9990   50.4760 C   0  0  0  0  0  0  0  0  0  0  0  0
   61.2997   28.7182   51.5289 H   0  0  0  0  0  0  0  0  0  0  0  0
   60.4740   29.0788   49.9749 H   0  0  0  0  0  0  0  0  0  0  0  0
   62.0577   28.2312   49.9749 H   0  0  0  0  0  0  0  0  0  0  0  0
   62.3860   32.5070   49.1050 C   0  0  1  0  0  0  0  0  0  0  0  0
   62.6684   33.2058   49.9062 H   0  0  0  0  0  0  0  0  0  0  0  0
   63.6690   31.9410   48.4680 C   0  0  0  0  0  0  0  0  0  0  0  0
   64.3669   31.6331   49.2606 H   0  0  0  0  0  0  0  0  0  0  0  0
   63.4157   31.0711   47.8442 H   0  0  0  0  0  0  0  0  0  0  0  0
   64.1407   32.7146   47.8442 H   0  0  0  0  0  0  0  0  0  0  0  0
   61.5780   33.2480   48.0130 C   0  0  0  0  0  0  0  0  0  0  0  0
   62.1030   34.1804   47.7578 H   0  0  0  0  0  0  0  0  0  0  0  0
   61.4977   32.5773   47.1448 H   0  0  0  0  0  0  0  0  0  0  0  0
   58.9350   32.0210   46.2730 C   0  0  0  0  0  0  0  0  0  0  0  0
   59.4151   31.4820   47.1031 H   0  0  0  0  0  0  0  0  0  0  0  0
   57.6180   28.9790   44.7980 C   0  0  0  0  0  0  0  0  0  0  0  0
   56.3880   29.3200   44.3790 C   0  0  0  0  0  0  0  0  0  0  0  0
   56.1049   30.3807   44.3099 H   0  0  0  0  0  0  0  0  0  0  0  0
   55.6640   28.5385   44.1050 H   0  0  0  0  0  0  0  0  0  0  0  0
  1  2  1  0
  2  3  1  0
  3  4  1  0
  4  5  1  0
  5  6  2  0
  5  7  1  0
  7  8  1  0
  8  9  1  0
  9 10  1  0
  9 11  2  0
 11 12  1  0
 12 13  1  0
 12 14  2  0
 14 15  1  0
 15 16  1  0
 15 17  1  0
 15 18  1  0
 14 19  1  0
 19 20  1  0
 20 21  2  0
 21 22  1  0
 21 23  1  0
 23 24  1  0
 23 25  2  0
 25 26  1  0
 25 27  1  0
 27 28  1  0
 28 29  2  0
 28 30  1  0
 30 31  1  0
 31 32  1  0
 31 33  1  0
 31 34  1  0
 34 35  1  0
 34 36  1  0
 34 37  1  0
 37 38  1  0
 38 39  2  0
 38 40  1  0
 40 41  1  0
 40 42  1  0
 40 43  1  0
 37 44  1  0
 44 45  1  1
 44 46  1  0
 46 47  1  0
 46 48  1  0
 46 49  1  0
 44 50  1  0
 50 51  1  0
 50 52  1  0
 27 53  2  0
 53 54  1  0
 19 55  1  0
 55 56  2  0
 56 57  1  0
 56 58  1  0
  8  3  2  0
 55 11  1  0
 53 20  1  0
 50 30  1  0
M  CHG  1   4  -1
M  END
>  <UniqueID>  (24) 
22

>  <SMILES>  (24) 
C=c1/c(=C/c2sc(=O)[n-]c2O)cc(C)n1-c1cccc(C(=O)N2CCN(C(C)=O)[C@@H](C)C2)c1

>  <Energy>  (24) 
141.50074324531641

>  <Genealogy>  (24) 
C=c1c(=Cc2sc(=O)[n-]c2O)cc(C)n1-c1cccc(C(=O)N2CCN(C(C)=O)C(C)C2)c1 (protonated)
C=c1c(=Cc2sc(=O)[n-]c2O)cc(C)n1-c1cccc(C(=O)N2CCN(C(C)=O)[C@@H](C)C2)c1 (chirality)
C=c1/c(=C/c2sc(=O)[n-]c2O)cc(C)n1-c1cccc(C(=O)N2CCN(C(C)=O)[C@@H](C)C2)c1 (cis-trans isomerization)
C=c1/c(=C/c2sc(=O)[n-]c2O)cc(C)n1-c1cccc(C(=O)N2CCN(C(C)=O)[C@@H](C)C2)c1 (3D coordinates assigned)
C=c1/c(=C/c2sc(=O)[n-]c2O)cc(C)n1-c1cccc(C(=O)N2CCN(C(C)=O)[C@@H](C)C2)c1 (nonaromatic ring conformer: 141.50074324531641 kcal/mol)

>  <smiles>  (24) 
C=c1c(=Cc2sc(=O)[nH]c2O)cc(C)n1-c1cccc(C(=O)N2CCN(C(C)=O)C(C)C2)c1

>  <score_type>  (24) 
oracle

>  <origin>  (24) 
adg

>  <m_score__min__energy>  (24) 
-13.33

>  <m_primary>  (24) 
energy

$$$$
25:0
     RDKit          3D

 33 34  0  0  0  0  0  0  0  0999 V2000
   56.8590   26.7860   46.0750 C   0  0  0  0  0  0  0  0  0  0  0  0
   55.8950   27.7700   45.6080 N   0  0  0  0  0  0  0  0  0  0  0  0
   56.2650   29.1040   45.2480 C   0  0  0  0  0  0  0  0  0  0  0  0
   55.4180   29.8870   44.7380 O   0  0  0  0  0  0  0  0  0  0  0  0
   57.6790   29.5540   45.4310 C   0  0  0  0  0  0  0  0  0  0  0  0
   57.7830   31.0340   45.1770 C   0  0  0  0  0  0  0  0  0  0  0  0
   58.1230   31.9000   46.2300 C   0  0  0  0  0  0  0  0  0  0  0  0
   58.2800   33.2760   46.0030 C   0  0  0  0  0  0  0  0  0  0  0  0
   58.7030   34.1830   47.1270 C   0  0  0  0  0  0  0  0  0  0  0  0
   60.1740   34.0090   47.4110 C   0  0  0  0  0  0  0  0  0  0  0  0
   61.0820   33.8480   46.3560 C   0  0  0  0  0  0  0  0  0  0  0  0
   62.4130   33.7330   46.6080 N   0  0  0  0  0  0  0  0  0  0  0  0
   62.8870   33.7810   47.8820 C   0  0  0  0  0  0  0  0  0  0  0  0
   64.1220   33.6730   48.1030 O   0  0  0  0  0  0  0  0  0  0  0  0
   62.0280   33.9470   48.9210 N   0  0  0  0  0  0  0  0  0  0  0  0
   60.6910   34.0670   48.7170 C   0  0  0  0  0  0  0  0  0  0  0  0
   59.9270   34.2290   49.7050 O   0  0  0  0  0  0  0  0  0  0  0  0
   58.1060   33.7830   44.7060 C   0  0  0  0  0  0  0  0  0  0  0  0
   57.7730   32.9270   43.6540 C   0  0  0  0  0  0  0  0  0  0  0  0
   57.6170   31.5570   43.8820 C   0  0  0  0  0  0  0  0  0  0  0  0
   57.3190   30.7410   42.8400 F   0  0  0  0  0  0  0  0  0  0  0  0
   56.8690   26.7758   47.1749 H   0  0  0  0  0  0  0  0  0  0  0  0
   56.5770   25.7905   45.7016 H   0  0  0  0  0  0  0  0  0  0  0  0
   57.8601   27.0475   45.7016 H   0  0  0  0  0  0  0  0  0  0  0  0
   58.0003   29.3372   46.4604 H   0  0  0  0  0  0  0  0  0  0  0  0
   58.3243   29.0183   44.7192 H   0  0  0  0  0  0  0  0  0  0  0  0
   58.2676   31.4953   47.2426 H   0  0  0  0  0  0  0  0  0  0  0  0
   58.5088   35.2279   46.8435 H   0  0  0  0  0  0  0  0  0  0  0  0
   58.1302   33.9264   48.0303 H   0  0  0  0  0  0  0  0  0  0  0  0
   60.7162   33.8145   45.3191 H   0  0  0  0  0  0  0  0  0  0  0  0
   63.0750   33.6110   45.8090 H   0  0  0  0  0  0  0  0  0  0  0  0
   58.2325   34.8593   44.5172 H   0  0  0  0  0  0  0  0  0  0  0  0
   57.6328   33.3329   42.6413 H   0  0  0  0  0  0  0  0  0  0  0  0
  1  2  1  0
  2  3  1  0
  3  4  2  0
  3  5  1  0
  5  6  1  0
  6  7  2  0
  7  8  1  0
  8  9  1  0
  9 10  1  0
 10 11  2  0
 11 12  1  0
 12 13  1  0
 13 14  2  0
 13 15  1  0
 15 16  1  0
 16 17  2  0
  8 18  2  0
 18 19  1  0
 19 20  2  0
 20 21  1  0
 20  6  1  0
 16 10  1  0
  1 22  1  0
  1 23  1  0
  1 24  1  0
  5 25  1  0
  5 26  1  0
  7 27  1  0
  9 28  1  0
  9 29  1  0
 11 30  1  0
 12 31  1  0
 18 32  1  0
 19 33  1  0
M  CHG  2   2  -1  15  -1
M  END
>  <UniqueID>  (25) 
23

>  <SMILES>  (25) 
C[N-]C(=O)Cc1cc(Cc2c[nH]c(=O)[n-]c2=O)ccc1F

>  <Energy>  (25) 
28.930276782016342

>  <Genealogy>  (25) 
C[N-]C(=O)Cc1cc(Cc2c[nH]c(=O)[n-]c2=O)ccc1F (protonated)
C[N-]C(=O)Cc1cc(Cc2c[nH]c(=O)[n-]c2=O)ccc1F (3D coordinates assigned)
C[N-]C(=O)Cc1cc(Cc2c[nH]c(=O)[n-]c2=O)ccc1F (optimized conformer: 28.930276782016342 kcal/mol)

>  <smiles>  (25) 
CNC(=O)Cc1cc(Cc2c[nH]c(=O)[nH]c2=O)ccc1F

>  <score_type>  (25) 
oracle

>  <origin>  (25) 
adg

>  <m_score__min__energy>  (25) 
-10.619999999999999

>  <m_primary>  (25) 
energy

$$$$
26:0
     RDKit          3D

 68 70  0  0  0  0  0  0  0  0999 V2000
   63.6840   32.6070   48.5140 C   0  0  0  0  0  0  0  0  0  0  0  0
   63.6590   33.1480   47.0870 C   0  0  0  0  0  0  0  0  0  0  0  0
   62.3040   33.7890   46.7590 C   0  0  0  0  0  0  0  0  0  0  0  0
   61.4060   33.9030   48.0020 C   0  0  0  0  0  0  0  0  0  0  0  0
   59.9800   33.8540   47.6350 N   0  0  0  0  0  0  0  0  0  0  0  0
   59.3850   34.9760   46.9000 C   0  0  0  0  0  0  0  0  0  0  0  0
   59.1950   32.6840   47.9690 C   0  0  0  0  0  0  0  0  0  0  0  0
   58.3850   32.7380   48.9380 O   0  0  0  0  0  0  0  0  0  0  0  0
   59.2790   31.4070   47.1500 C   0  0  1  0  0  0  0  0  0  0  0  0
   58.9380   31.6450   45.6600 C   0  0  0  0  0  0  0  0  0  0  0  0
   58.5400   30.3640   44.9670 C   0  0  0  0  0  0  0  0  0  0  0  0
   57.2160   30.1760   44.5340 C   0  0  0  0  0  0  0  0  0  0  0  0
   56.8380   28.9720   43.9280 C   0  0  0  0  0  0  0  0  0  0  0  0
   57.7730   27.9490   43.7550 C   0  0  0  0  0  0  0  0  0  0  0  0
   59.0890   28.1230   44.1980 C   0  0  0  0  0  0  0  0  0  0  0  0
   59.4720   29.3240   44.8020 C   0  0  0  0  0  0  0  0  0  0  0  0
   60.6390   30.7620   47.3100 C   0  0  0  0  0  0  0  0  0  0  0  0
   61.5000   30.9300   46.4020 O   0  0  0  0  0  0  0  0  0  0  0  0
   61.0090   29.9730   48.5010 C   0  0  0  0  0  0  0  0  0  0  0  0
   61.2990   30.5480   49.5820 O   0  0  0  0  0  0  0  0  0  0  0  0
   61.0800   28.5440   48.3990 N   0  0  0  0  0  0  0  0  0  0  0  0
   60.0820   27.6890   47.8240 C   0  0  0  0  0  0  0  0  0  0  0  0
   60.4120   26.4520   47.2420 C   0  0  0  0  0  0  0  0  0  0  0  0
   59.4090   25.6270   46.7240 C   0  0  0  0  0  0  0  0  0  0  0  0
   58.0690   26.0320   46.7710 C   0  0  0  0  0  0  0  0  0  0  0  0
   56.8040   25.0010   46.1030 S   0  0  0  0  0  0  0  0  0  0  0  0
   56.3170   24.0540   47.1670 O   0  0  0  0  0  0  0  0  0  0  0  0
   55.6510   25.8680   45.6740 O   0  0  0  0  0  0  0  0  0  0  0  0
   57.4000   24.1120   44.7200 N   0  0  0  0  0  0  0  0  0  0  0  0
   57.4590   22.6680   45.0220 C   0  0  0  0  0  0  0  0  0  0  0  0
   57.3970   21.8340   43.7310 C   0  0  0  0  0  0  0  0  0  0  0  0
   56.2000   22.0270   42.9830 O   0  0  0  0  0  0  0  0  0  0  0  0
   55.5900   23.2930   43.1950 C   0  0  0  0  0  0  0  0  0  0  0  0
   56.6000   24.4140   43.5120 C   0  0  0  0  0  0  0  0  0  0  0  0
   57.7400   27.2590   47.3620 C   0  0  0  0  0  0  0  0  0  0  0  0
   58.7390   28.0750   47.8960 C   0  0  0  0  0  0  0  0  0  0  0  0
   63.6452   33.4456   49.2248 H   0  0  0  0  0  0  0  0  0  0  0  0
   62.8152   31.9513   48.6728 H   0  0  0  0  0  0  0  0  0  0  0  0
   64.6096   32.0342   48.6728 H   0  0  0  0  0  0  0  0  0  0  0  0
   64.4498   33.9046   46.9764 H   0  0  0  0  0  0  0  0  0  0  0  0
   63.8240   32.3096   46.3942 H   0  0  0  0  0  0  0  0  0  0  0  0
   62.4766   34.7962   46.3518 H   0  0  0  0  0  0  0  0  0  0  0  0
   61.7921   33.1469   46.0271 H   0  0  0  0  0  0  0  0  0  0  0  0
   61.6298   33.0695   48.6841 H   0  0  0  0  0  0  0  0  0  0  0  0
   61.6073   34.8681   48.4899 H   0  0  0  0  0  0  0  0  0  0  0  0
   58.9929   35.7153   47.6139 H   0  0  0  0  0  0  0  0  0  0  0  0
   60.1515   35.4477   46.2675 H   0  0  0  0  0  0  0  0  0  0  0  0
   58.5645   34.6061   46.2675 H   0  0  0  0  0  0  0  0  0  0  0  0
   58.5188   30.7134   47.5387 H   0  0  0  0  0  0  0  0  0  0  0  0
   58.1042   32.3596   45.5948 H   0  0  0  0  0  0  0  0  0  0  0  0
   59.8355   32.0401   45.1616 H   0  0  0  0  0  0  0  0  0  0  0  0
   56.4749   30.9771   44.6717 H   0  0  0  0  0  0  0  0  0  0  0  0
   55.8017   28.8312   43.5871 H   0  0  0  0  0  0  0  0  0  0  0  0
   57.4752   27.0072   43.2709 H   0  0  0  0  0  0  0  0  0  0  0  0
   59.8230   27.3136   44.0707 H   0  0  0  0  0  0  0  0  0  0  0  0
   60.5072   29.4562   45.1498 H   0  0  0  0  0  0  0  0  0  0  0  0
   61.4634   26.1322   47.1941 H   0  0  0  0  0  0  0  0  0  0  0  0
   59.6731   24.6567   46.2781 H   0  0  0  0  0  0  0  0  0  0  0  0
   58.3998   22.4482   45.5478 H   0  0  0  0  0  0  0  0  0  0  0  0
   56.5963   22.4052   45.6518 H   0  0  0  0  0  0  0  0  0  0  0  0
   58.2518   22.1114   43.0966 H   0  0  0  0  0  0  0  0  0  0  0  0
   57.4230   20.7757   44.0297 H   0  0  0  0  0  0  0  0  0  0  0  0
   55.0360   23.5697   42.2859 H   0  0  0  0  0  0  0  0  0  0  0  0
   54.9305   23.1933   44.0697 H   0  0  0  0  0  0  0  0  0  0  0  0
   57.2802   24.5322   42.6556 H   0  0  0  0  0  0  0  0  0  0  0  0
   56.0345   25.3385   43.7005 H   0  0  0  0  0  0  0  0  0  0  0  0
   56.6891   27.5811   47.4055 H   0  0  0  0  0  0  0  0  0  0  0  0
   58.4687   29.0270   48.3762 H   0  0  0  0  0  0  0  0  0  0  0  0
  1  2  1  0
  2  3  1  0
  3  4  1  0
  4  5  1  0
  5  6  1  0
  5  7  1  0
  7  8  2  0
  7  9  1  0
  9 10  1  0
 10 11  1  0
 11 12  2  0
 12 13  1  0
 13 14  2  0
 14 15  1  0
 15 16  2  0
  9 17  1  0
 17 18  2  0
 17 19  1  0
 19 20  2  0
 19 21  1  0
 21 22  1  0
 22 23  2  0
 23 24  1  0
 24 25  2  0
 25 26  1  0
 26 27  2  0
 26 28  2  0
 26 29  1  0
 29 30  1  0
 30 31  1  0
 31 32  1  0
 32 33  1  0
 33 34  1  0
 25 35  1  0
 35 36  2  0
 16 11  1  0
 36 22  1  0
 34 29  1  0
  1 37  1  0
  1 38  1  0
  1 39  1  0
  2 40  1  0
  2 41  1  0
  3 42  1  0
  3 43  1  0
  4 44  1  0
  4 45  1  0
  6 46  1  0
  6 47  1  0
  6 48  1  0
  9 49  1  1
 10 50  1  0
 10 51  1  0
 12 52  1  0
 13 53  1  0
 14 54  1  0
 15 55  1  0
 16 56  1  0
 23 57  1  0
 24 58  1  0
 30 59  1  0
 30 60  1  0
 31 61  1  0
 31 62  1  0
 33 63  1  0
 33 64  1  0
 34 65  1  0
 34 66  1  0
 35 67  1  0
 36 68  1  0
M  CHG  1  21  -1
M  END
>  <UniqueID>  (26) 
24

>  <SMILES>  (26) 
CCCCN(C)C(=O)[C@@H](Cc1ccccc1)C(=O)C(=O)[N-]c1ccc(S(=O)(=O)N2CCOCC2)cc1

>  <Energy>  (26) 
71.8395563712242

>  <Genealogy>  (26) 
CCCCN(C)C(=O)C(Cc1ccccc1)C(=O)C(=O)[N-]c1ccc(S(=O)(=O)N2CCOCC2)cc1 (protonated)
CCCCN(C)C(=O)[C@@H](Cc1ccccc1)C(=O)C(=O)[N-]c1ccc(S(=O)(=O)N2CCOCC2)cc1 (chirality)
CCCCN(C)C(=O)[C@@H](Cc1ccccc1)C(=O)C(=O)[N-]c1ccc(S(=O)(=O)N2CCOCC2)cc1 (3D coordinates assigned)
CCCCN(C)C(=O)[C@@H](Cc1ccccc1)C(=O)C(=O)[N-]c1ccc(S(=O)(=O)N2CCOCC2)cc1 (nonaromatic ring conformer: 71.8395563712242 kcal/mol)

>  <smiles>  (26) 
CCCCN(C)C(=O)C(Cc1ccccc1)C(=O)C(=O)Nc1ccc(S(=O)(=O)N2CCOCC2)cc1

>  <score_type>  (26) 
oracle

>  <origin>  (26) 
adg

>  <m_score__min__energy>  (26) 
-10.869999999999999

>  <m_primary>  (26) 
energy

$$$$
27:0
     RDKit          3D

 61 65  0  0  0  0  0  0  0  0999 V2000
   60.5840   28.0690   46.9583 H   0  0  0  0  0  0  0  0  0  0  0  0
   59.8720   27.5600   46.2920 C   0  0  0  0  0  0  0  0  0  0  0  0
   59.8868   26.4635   46.2059 H   0  0  0  0  0  0  0  0  0  0  0  0
   58.9850   28.2770   45.5840 C   0  0  0  0  0  0  0  0  0  0  0  0
   58.0170   27.7820   44.6960 C   0  0  0  0  0  0  0  0  0  0  0  0
   57.5640   26.5300   44.4910 C   0  0  0  0  0  0  0  0  0  0  0  0
   57.5657   26.1575   43.4560 H   0  0  0  0  0  0  0  0  0  0  0  0
   57.0670   25.6180   45.5340 C   0  0  0  0  0  0  0  0  0  0  0  0
   57.7840   24.6210   46.0850 N   0  0  0  0  0  0  0  0  0  0  0  0
   56.9840   24.1730   47.0770 C   0  0  0  0  0  0  0  0  0  0  0  0
   57.3070   23.2150   47.8270 O   0  0  0  0  0  0  0  0  0  0  0  0
   55.8180   24.8400   47.2090 N   0  0  0  0  0  0  0  0  0  0  0  0
   55.8940   25.7600   46.2340 C   0  0  0  0  0  0  0  0  0  0  0  0
   54.9130   26.7130   45.9910 O   0  0  0  0  0  0  0  0  0  0  0  0
   57.5300   28.8790   44.0030 C   0  0  0  0  0  0  0  0  0  0  0  0
   56.7941   28.8641   43.1855 H   0  0  0  0  0  0  0  0  0  0  0  0
   58.1450   29.9930   44.5350 C   0  0  0  0  0  0  0  0  0  0  0  0
   57.8830   31.4010   44.0930 C   0  0  0  0  0  0  0  0  0  0  0  0
   57.7630   32.0461   44.9758 H   0  0  0  0  0  0  0  0  0  0  0  0
   58.7299   31.7594   43.4894 H   0  0  0  0  0  0  0  0  0  0  0  0
   56.9639   31.4308   43.4894 H   0  0  0  0  0  0  0  0  0  0  0  0
   59.0270   29.6310   45.4940 N   0  0  0  0  0  0  0  0  0  0  0  0
   59.8760   30.5260   46.2350 C   0  0  0  0  0  0  0  0  0  0  0  0
   59.3540   31.7060   46.7850 C   0  0  0  0  0  0  0  0  0  0  0  0
   58.2896   31.9491   46.6507 H   0  0  0  0  0  0  0  0  0  0  0  0
   60.1810   32.5740   47.5030 C   0  0  0  0  0  0  0  0  0  0  0  0
   59.7655   33.5010   47.9250 H   0  0  0  0  0  0  0  0  0  0  0  0
   61.5390   32.2700   47.6890 C   0  0  0  0  0  0  0  0  0  0  0  0
   62.4220   33.1920   48.4340 C   0  0  0  0  0  0  0  0  0  0  0  0
   63.3100   33.8290   47.8030 O   0  0  0  0  0  0  0  0  0  0  0  0
   62.3080   33.3540   49.8620 N   0  0  0  0  0  0  0  0  0  0  0  0
   61.9790   32.2020   50.7170 C   0  0  0  0  0  0  0  0  0  0  0  0
   60.8855   32.0914   50.7609 H   0  0  0  0  0  0  0  0  0  0  0  0
   62.4485   31.3072   50.2824 H   0  0  0  0  0  0  0  0  0  0  0  0
   62.5190   32.3810   52.1440 C   0  0  0  0  0  0  0  0  0  0  0  0
   61.8090   32.9949   52.7177 H   0  0  0  0  0  0  0  0  0  0  0  0
   62.6342   31.3824   52.5908 H   0  0  0  0  0  0  0  0  0  0  0  0
   63.8990   33.0710   52.1590 C   0  0  0  0  0  0  0  0  0  0  0  0
   64.1553   33.2952   53.2050 H   0  0  0  0  0  0  0  0  0  0  0  0
   64.9470   32.1640   51.6480 N   0  0  0  0  0  0  0  0  0  0  0  0
   66.1680   32.6230   51.0930 C   0  0  0  0  0  0  0  0  0  0  0  0
   66.4060   33.8390   50.8660 O   0  0  0  0  0  0  0  0  0  0  0  0
   67.1380   31.5450   50.8270 C   0  0  0  0  0  0  0  0  0  0  0  0
   68.0324   31.6550   51.4579 H   0  0  0  0  0  0  0  0  0  0  0  0
   67.5054   31.5424   49.7902 H   0  0  0  0  0  0  0  0  0  0  0  0
   66.3610   30.2740   51.1920 C   0  0  0  0  0  0  0  0  0  0  0  0
   66.9393   29.6724   51.9087 H   0  0  0  0  0  0  0  0  0  0  0  0
   66.1793   29.6593   50.2981 H   0  0  0  0  0  0  0  0  0  0  0  0
   65.0290   30.7160   51.8290 C   0  0  0  0  0  0  0  0  0  0  0  0
   65.0174   30.4650   52.8999 H   0  0  0  0  0  0  0  0  0  0  0  0
   64.1740   30.2060   51.3612 H   0  0  0  0  0  0  0  0  0  0  0  0
   63.8740   34.4470   51.4370 C   0  0  0  0  0  0  0  0  0  0  0  0
   63.8374   35.2387   52.1998 H   0  0  0  0  0  0  0  0  0  0  0  0
   64.7818   34.5016   50.8182 H   0  0  0  0  0  0  0  0  0  0  0  0
   62.6750   34.6280   50.4920 C   0  0  0  0  0  0  0  0  0  0  0  0
   61.8168   35.0058   51.0672 H   0  0  0  0  0  0  0  0  0  0  0  0
   62.9535   35.3427   49.7036 H   0  0  0  0  0  0  0  0  0  0  0  0
   62.0630   31.0960   47.1230 C   0  0  0  0  0  0  0  0  0  0  0  0
   63.1303   30.8588   47.2438 H   0  0  0  0  0  0  0  0  0  0  0  0
   61.2340   30.2280   46.4070 C   0  0  0  0  0  0  0  0  0  0  0  0
   61.6502   29.3055   45.9760 H   0  0  0  0  0  0  0  0  0  0  0  0
  1  2  1  0
  2  3  1  0
  2  4  2  0
  4  5  1  0
  5  6  2  0
  6  7  1  0
  6  8  1  0
  8  9  1  0
  9 10  1  0
 10 11  2  0
 10 12  1  0
 12 13  1  0
 13 14  1  0
  5 15  1  0
 15 16  1  0
 15 17  2  0
 17 18  1  0
 18 19  1  0
 18 20  1  0
 18 21  1  0
 17 22  1  0
 22 23  1  0
 23 24  2  0
 24 25  1  0
 24 26  1  0
 26 27  1  0
 26 28  2  0
 28 29  1  0
 29 30  2  0
 29 31  1  0
 31 32  1  0
 32 33  1  0
 32 34  1  0
 32 35  1  0
 35 36  1  0
 35 37  1  0
 35 38  1  0
 38 39  1  0
 38 40  1  0
 40 41  1  0
 41 42  2  0
 41 43  1  0
 43 44  1  0
 43 45  1  0
 43 46  1  0
 46 47  1  0
 46 48  1  0
 46 49  1  0
 49 50  1  0
 49 51  1  0
 38 52  1  0
 52 53  1  0
 52 54  1  0
 52 55  1  0
 55 56  1  0
 55 57  1  0
 28 58  1  0
 58 59  1  0
 58 60  2  0
 60 61  1  0
 22  4  1  0
 60 23  1  0
 13  8  2  0
 55 31  1  0
 49 40  1  0
M  CHG  3   9  -1  12  -1  14  -1
M  END
>  <UniqueID>  (27) 
25

>  <SMILES>  (27) 
C=c1/c(=C\c2[n-]c(=O)[n-]c2[O-])cc(C)n1-c1ccc(C(=O)N2CCC(N3CCCC3=O)CC2)cc1

>  <Energy>  (27) 
154.94957648668827

>  <Genealogy>  (27) 
C=c1c(=Cc2[n-]c(=O)[n-]c2[O-])cc(C)n1-c1ccc(C(=O)N2CCC(N3CCCC3=O)CC2)cc1 (protonated)
C=c1/c(=C\c2[n-]c(=O)[n-]c2[O-])cc(C)n1-c1ccc(C(=O)N2CCC(N3CCCC3=O)CC2)cc1 (cis-trans isomerization)
C=c1/c(=C\c2[n-]c(=O)[n-]c2[O-])cc(C)n1-c1ccc(C(=O)N2CCC(N3CCCC3=O)CC2)cc1 (3D coordinates assigned)
C=c1/c(=C\c2[n-]c(=O)[n-]c2[O-])cc(C)n1-c1ccc(C(=O)N2CCC(N3CCCC3=O)CC2)cc1 (nonaromatic ring conformer: 154.94957648668827 kcal/mol)

>  <smiles>  (27) 
C=c1c(=Cc2[nH]c(=O)[nH]c2O)cc(C)n1-c1ccc(C(=O)N2CCC(N3CCCC3=O)CC2)cc1

>  <score_type>  (27) 
oracle

>  <origin>  (27) 
adg

>  <m_score__min__energy>  (27) 
-16.02

>  <m_primary>  (27) 
energy

$$$$
28:0
     RDKit          3D

 56 59  0  0  0  0  0  0  0  0999 V2000
   57.6850   28.6940   43.4980 O   0  0  0  0  0  0  0  0  0  0  0  0
   57.0930   29.0580   44.5480 C   0  0  0  0  0  0  0  0  0  0  0  0
   56.9410   30.4580   44.8070 N   0  0  0  0  0  0  0  0  0  0  0  0
   57.7220   31.2310   45.7290 C   0  0  0  0  0  0  0  0  0  0  0  0
   58.5430   30.5640   46.6460 C   0  0  0  0  0  0  0  0  0  0  0  0
   59.3060   31.2870   47.5680 C   0  0  0  0  0  0  0  0  0  0  0  0
   59.2480   32.6870   47.5910 C   0  0  0  0  0  0  0  0  0  0  0  0
   60.2140   33.6010   48.7560 S   0  0  0  0  0  0  0  0  0  0  0  0
   59.5920   34.9570   48.9500 O   0  0  0  0  0  0  0  0  0  0  0  0
   60.1910   32.8870   50.0790 O   0  0  0  0  0  0  0  0  0  0  0  0
   61.8730   33.8050   48.2480 N   0  0  0  0  0  0  0  0  0  0  0  0
   61.9730   34.2030   46.8460 C   0  0  0  0  0  0  0  0  0  0  0  0
   63.3410   33.7410   46.3650 C   0  0  0  0  0  0  0  0  0  0  0  0
   63.7760   32.6720   47.3570 C   0  0  0  0  0  0  0  0  0  0  0  0
   62.6380   32.5640   48.3590 C   0  0  0  0  0  0  0  0  0  0  0  0
   58.3940   33.3560   46.7010 C   0  0  0  0  0  0  0  0  0  0  0  0
   57.6330   32.6330   45.7790 C   0  0  0  0  0  0  0  0  0  0  0  0
   56.4910   28.0810   45.4130 N   0  0  0  0  0  0  0  0  0  0  0  0
   56.8720   26.6950   45.4520 C   0  0  0  0  0  0  0  0  0  0  0  0
   57.7580   26.1520   44.5050 C   0  0  0  0  0  0  0  0  0  0  0  0
   58.1460   24.8130   44.5900 C   0  0  0  0  0  0  0  0  0  0  0  0
   57.6590   24.0050   45.6200 C   0  0  0  0  0  0  0  0  0  0  0  0
   56.7740   24.5300   46.5740 C   0  0  0  0  0  0  0  0  0  0  0  0
   56.2830   23.6740   47.6730 C   0  0  0  0  0  0  0  0  0  0  0  0
   57.0920   23.3090   48.5690 O   0  0  0  0  0  0  0  0  0  0  0  0
   54.9130   23.2350   47.7360 N   0  0  0  0  0  0  0  0  0  0  0  0
   54.3450   22.6210   48.9230 C   0  0  0  0  0  0  0  0  0  0  0  0
   52.9250   22.2270   48.5400 C   0  0  0  0  0  0  0  0  0  0  0  0
   52.9010   22.2050   47.0150 C   0  0  0  0  0  0  0  0  0  0  0  0
   54.0480   23.1050   46.5730 C   0  0  0  0  0  0  0  0  0  0  0  0
   56.4050   25.8830   46.4970 C   0  0  0  0  0  0  0  0  0  0  0  0
   58.5881   29.4649   46.6411 H   0  0  0  0  0  0  0  0  0  0  0  0
   59.9549   30.7543   48.2787 H   0  0  0  0  0  0  0  0  0  0  0  0
   61.1795   33.7209   46.2561 H   0  0  0  0  0  0  0  0  0  0  0  0
   61.8561   35.2907   46.7308 H   0  0  0  0  0  0  0  0  0  0  0  0
   63.2709   33.3201   45.3511 H   0  0  0  0  0  0  0  0  0  0  0  0
   64.0603   34.5717   46.3159 H   0  0  0  0  0  0  0  0  0  0  0  0
   63.9299   31.7110   46.8443 H   0  0  0  0  0  0  0  0  0  0  0  0
   64.7276   32.9297   47.8449 H   0  0  0  0  0  0  0  0  0  0  0  0
   62.0000   31.7007   48.1189 H   0  0  0  0  0  0  0  0  0  0  0  0
   63.0181   32.4192   49.3810 H   0  0  0  0  0  0  0  0  0  0  0  0
   58.3235   34.4534   46.7293 H   0  0  0  0  0  0  0  0  0  0  0  0
   56.9607   33.1636   45.0887 H   0  0  0  0  0  0  0  0  0  0  0  0
   55.6710   28.3830   45.9880 H   0  0  0  0  0  0  0  0  0  0  0  0
   58.1473   26.7845   43.6936 H   0  0  0  0  0  0  0  0  0  0  0  0
   58.8369   24.3937   43.8438 H   0  0  0  0  0  0  0  0  0  0  0  0
   57.9707   22.9520   45.6836 H   0  0  0  0  0  0  0  0  0  0  0  0
   54.9257   21.7323   49.2110 H   0  0  0  0  0  0  0  0  0  0  0  0
   54.3594   23.3069   49.7829 H   0  0  0  0  0  0  0  0  0  0  0  0
   52.6811   21.2326   48.9420 H   0  0  0  0  0  0  0  0  0  0  0  0
   52.1840   22.9302   48.9480 H   0  0  0  0  0  0  0  0  0  0  0  0
   53.0519   21.1807   46.6435 H   0  0  0  0  0  0  0  0  0  0  0  0
   51.9356   22.5525   46.6185 H   0  0  0  0  0  0  0  0  0  0  0  0
   54.5956   22.6465   45.7364 H   0  0  0  0  0  0  0  0  0  0  0  0
   53.6866   24.0831   46.2228 H   0  0  0  0  0  0  0  0  0  0  0  0
   55.7428   26.3108   47.2641 H   0  0  0  0  0  0  0  0  0  0  0  0
  1  2  2  0
  2  3  1  0
  3  4  1  0
  4  5  2  0
  5  6  1  0
  6  7  2  0
  7  8  1  0
  8  9  2  0
  8 10  2  0
  8 11  1  0
 11 12  1  0
 12 13  1  0
 13 14  1  0
 14 15  1  0
  7 16  1  0
 16 17  2  0
  2 18  1  0
 18 19  1  0
 19 20  2  0
 20 21  1  0
 21 22  2  0
 22 23  1  0
 23 24  1  0
 24 25  2  0
 24 26  1  0
 26 27  1  0
 27 28  1  0
 28 29  1  0
 29 30  1  0
 23 31  2  0
 17  4  1  0
 31 19  1  0
 15 11  1  0
 30 26  1  0
  5 32  1  0
  6 33  1  0
 12 34  1  0
 12 35  1  0
 13 36  1  0
 13 37  1  0
 14 38  1  0
 14 39  1  0
 15 40  1  0
 15 41  1  0
 16 42  1  0
 17 43  1  0
 18 44  1  0
 20 45  1  0
 21 46  1  0
 22 47  1  0
 27 48  1  0
 27 49  1  0
 28 50  1  0
 28 51  1  0
 29 52  1  0
 29 53  1  0
 30 54  1  0
 30 55  1  0
 31 56  1  0
M  CHG  1   3  -1
M  END
>  <UniqueID>  (28) 
26

>  <SMILES>  (28) 
O=C([N-]c1ccc(S(=O)(=O)N2CCCC2)cc1)Nc1cccc(C(=O)N2CCCC2)c1

>  <Energy>  (28) 
69.59112968882755

>  <Genealogy>  (28) 
O=C([N-]c1ccc(S(=O)(=O)N2CCCC2)cc1)Nc1cccc(C(=O)N2CCCC2)c1 (protonated)
O=C([N-]c1ccc(S(=O)(=O)N2CCCC2)cc1)Nc1cccc(C(=O)N2CCCC2)c1 (3D coordinates assigned)
O=C([N-]c1ccc(S(=O)(=O)N2CCCC2)cc1)Nc1cccc(C(=O)N2CCCC2)c1 (nonaromatic ring conformer: 69.59112968882755 kcal/mol)

>  <smiles>  (28) 
O=C(Nc1ccc(S(=O)(=O)N2CCCC2)cc1)Nc1cccc(C(=O)N2CCCC2)c1

>  <score_type>  (28) 
oracle

>  <origin>  (28) 
adg

>  <m_score__min__energy>  (28) 
-10.82

>  <m_primary>  (28) 
energy

$$$$
29:0
     RDKit          3D

 57 59  0  0  1  0  0  0  0  0999 V2000
   63.4500   32.0130   48.6840 C   0  0  0  0  0  0  0  0  0  0  0  0
   63.3900   33.1560   48.0140 C   0  0  0  0  0  0  0  0  0  0  0  0
   62.2360   33.3450   47.1140 C   0  0  0  0  0  0  0  0  0  0  0  0
   62.4610   33.8710   46.0150 O   0  0  0  0  0  0  0  0  0  0  0  0
   60.9540   32.9290   47.5250 N   0  0  0  0  0  0  0  0  0  0  0  0
   59.7640   33.0530   46.7660 C   0  0  0  0  0  0  0  0  0  0  0  0
   59.0520   34.2180   46.6700 C   0  0  0  0  0  0  0  0  0  0  0  0
   57.8920   34.2250   45.9340 C   0  0  0  0  0  0  0  0  0  0  0  0
   57.4330   33.0850   45.2950 C   0  0  0  0  0  0  0  0  0  0  0  0
   58.1380   31.8700   45.3710 C   0  0  0  0  0  0  0  0  0  0  0  0
   57.5660   30.7300   44.7910 N   0  0  0  0  0  0  0  0  0  0  0  0
   57.0990   30.9370   43.3670 C   0  0  0  0  0  0  0  0  0  0  0  0
   56.2610   29.7580   42.9730 C   0  0  0  0  0  0  0  0  0  0  0  0
   57.3740   29.4090   45.2250 C   0  0  0  0  0  0  0  0  0  0  0  0
   58.4750   28.4220   45.3190 C   0  0  0  0  0  0  0  0  0  0  0  0
   58.5410   27.8250   46.6400 N   0  0  0  0  0  0  0  0  0  0  0  0
   59.1980   28.2230   47.6450 C   0  0  0  0  0  0  0  0  0  0  0  0
   59.9760   27.3720   48.3290 N   0  0  0  0  0  0  0  0  0  0  0  0
   60.7500   27.7190   49.3680 C   0  0  0  0  0  0  0  0  0  0  0  0
   60.7710   29.0400   49.7910 C   0  0  0  0  0  0  0  0  0  0  0  0
   59.9670   29.9240   49.0860 C   0  0  0  0  0  0  0  0  0  0  0  0
   60.0280   31.1640   49.4860 N   0  0  0  0  0  0  0  0  0  0  0  0
   59.1040   31.6570   50.4700 C   0  0  0  0  0  0  0  0  0  0  0  0
   58.0220   30.9110   50.8920 C   0  0  0  0  0  0  0  0  0  0  0  0
   57.1140   31.3890   51.8400 C   0  0  0  0  0  0  0  0  0  0  0  0
   57.3090   32.6690   52.3810 C   0  0  0  0  0  0  0  0  0  0  0  0
   58.3840   33.4260   51.9700 C   0  0  0  0  0  0  0  0  0  0  0  0
   58.5460   34.6830   52.5230 O   0  0  0  0  0  0  0  0  0  0  0  0
   59.2820   32.9270   51.0190 C   0  0  0  0  0  0  0  0  0  0  0  0
   59.2160   29.5200   48.0580 N   0  0  0  0  0  0  0  0  0  0  0  0
   59.2880   31.9280   46.1190 C   0  0  0  0  0  0  0  0  0  0  0  0
   64.2890   31.8203   49.3688 H   0  0  0  0  0  0  0  0  0  0  0  0
   62.6608   31.2577   48.5549 H   0  0  0  0  0  0  0  0  0  0  0  0
   64.1655   33.9283   48.1242 H   0  0  0  0  0  0  0  0  0  0  0  0
   60.9150   32.4870   48.4910 H   0  0  0  0  0  0  0  0  0  0  0  0
   59.4021   35.1316   47.1728 H   0  0  0  0  0  0  0  0  0  0  0  0
   57.3144   35.1574   45.8502 H   0  0  0  0  0  0  0  0  0  0  0  0
   56.4985   33.1306   44.7165 H   0  0  0  0  0  0  0  0  0  0  0  0
   56.5007   31.8577   43.3014 H   0  0  0  0  0  0  0  0  0  0  0  0
   57.9635   31.0309   42.6934 H   0  0  0  0  0  0  0  0  0  0  0  0
   55.8981   29.2475   43.8773 H   0  0  0  0  0  0  0  0  0  0  0  0
   55.4029   30.1010   42.3763 H   0  0  0  0  0  0  0  0  0  0  0  0
   56.8671   29.0604   42.3763 H   0  0  0  0  0  0  0  0  0  0  0  0
   56.9449   29.4814   46.2353 H   0  0  0  0  0  0  0  0  0  0  0  0
   56.7748   28.9922   44.4021 H   0  0  0  0  0  0  0  0  0  0  0  0
   58.3084   27.6284   44.5758 H   0  0  0  0  0  0  0  0  0  0  0  0
   59.4243   28.9438   45.1276 H   0  0  0  0  0  0  0  0  0  0  0  0
   59.9990   26.3650   48.0620 H   0  0  0  0  0  0  0  0  0  0  0  0
   61.3628   26.9627   49.8803 H   0  0  0  0  0  0  0  0  0  0  0  0
   61.3907   29.3684   50.6384 H   0  0  0  0  0  0  0  0  0  0  0  0
   57.8697   29.9075   50.4680 H   0  0  0  0  0  0  0  0  0  0  0  0
   56.2602   30.7721   52.1571 H   0  0  0  0  0  0  0  0  0  0  0  0
   56.6072   33.0658   53.1293 H   0  0  0  0  0  0  0  0  0  0  0  0
   58.1390   35.4700   52.0210 H   0  0  0  0  0  0  0  0  0  0  0  0
   60.1366   33.5425   50.7015 H   0  0  0  0  0  0  0  0  0  0  0  0
   58.6180   30.2160   47.5490 H   0  0  0  0  0  0  0  0  0  0  0  0
   59.8783   31.0044   46.2108 H   0  0  0  0  0  0  0  0  0  0  0  0
  1  2  2  0
  2  3  1  0
  3  4  2  0
  3  5  1  0
  5  6  1  0
  6  7  2  0
  7  8  1  0
  8  9  2  0
  9 10  1  0
 10 11  1  0
 11 12  1  0
 12 13  1  0
 11 14  1  0
 14 15  1  0
 15 16  1  0
 16 17  2  0
 17 18  1  0
 18 19  1  0
 19 20  2  0
 20 21  1  0
 21 22  2  0
 22 23  1  0
 23 24  2  0
 24 25  1  0
 25 26  2  0
 26 27  1  0
 27 28  1  0
 27 29  2  0
 21 30  1  0
 10 31  2  0
 31  6  1  0
 30 17  1  0
 29 23  1  0
  1 32  1  0
  1 33  1  0
  2 34  1  0
  5 35  1  0
  7 36  1  0
  8 37  1  0
  9 38  1  0
 12 39  1  0
 12 40  1  0
 13 41  1  0
 13 42  1  0
 13 43  1  0
 14 44  1  0
 14 45  1  0
 15 46  1  0
 15 47  1  0
 18 48  1  0
 19 49  1  0
 20 50  1  0
 24 51  1  0
 25 52  1  0
 26 53  1  0
 28 54  1  0
 29 55  1  0
 30 56  1  0
 31 57  1  0
M  END
>  <smiles>  (29) 
C=CC(=O)Nc1cccc(N(CC)CCN=c2[nH]ccc(=Nc3cccc(O)c3)[nH]2)c1

>  <score_type>  (29) 
oracle

>  <origin>  (29) 
adg

>  <m_score__min__energy>  (29) 
-9.7300000000000004

>  <m_primary>  (29) 
energy

$$$$
30:0
     RDKit          3D

 56 59  0  0  0  0  0  0  0  0999 V2000
   57.9453   25.0870   47.2532 H   0  0  0  0  0  0  0  0  0  0  0  0
   58.8100   25.6410   46.8590 C   0  0  0  0  0  0  0  0  0  0  0  0
   59.0816   25.5532   45.7967 H   0  0  0  0  0  0  0  0  0  0  0  0
   59.5300   26.4200   47.6700 C   0  0  0  0  0  0  0  0  0  0  0  0
   59.2460   26.4976   48.7299 H   0  0  0  0  0  0  0  0  0  0  0  0
   60.7160   27.1920   47.1730 C   0  0  0  0  0  0  0  0  0  0  0  0
   61.6054   26.9103   47.7557 H   0  0  0  0  0  0  0  0  0  0  0  0
   60.8806   26.9606   46.1103 H   0  0  0  0  0  0  0  0  0  0  0  0
   60.4680   28.6480   47.3250 N   0  0  0  0  0  0  0  0  0  0  0  0
   59.0970   28.9570   47.7940 C   0  0  0  0  0  0  0  0  0  0  0  0
   58.7891   28.1838   48.5133 H   0  0  0  0  0  0  0  0  0  0  0  0
   59.1217   29.9559   48.2540 H   0  0  0  0  0  0  0  0  0  0  0  0
   58.0660   29.0000   46.6440 C   0  0  0  0  0  0  0  0  0  0  0  0
   57.1605   28.4543   46.9479 H   0  0  0  0  0  0  0  0  0  0  0  0
   57.8181   30.0490   46.4248 H   0  0  0  0  0  0  0  0  0  0  0  0
   58.6250   28.3770   45.4330 N   0  0  0  0  0  0  0  0  0  0  0  0
   57.6120   28.2260   44.3680 C   0  0  0  0  0  0  0  0  0  0  0  0
   57.8803   28.8757   43.5219 H   0  0  0  0  0  0  0  0  0  0  0  0
   57.5893   27.1722   44.0534 H   0  0  0  0  0  0  0  0  0  0  0  0
   56.2100   28.6160   44.8780 C   0  0  0  0  0  0  0  0  0  0  0  0
   55.4587   27.9984   44.3640 H   0  0  0  0  0  0  0  0  0  0  0  0
   56.1805   28.4479   45.9647 H   0  0  0  0  0  0  0  0  0  0  0  0
   55.9170   30.0300   44.6250 N   0  0  0  0  0  0  0  0  0  0  0  0
   56.7340   30.9480   44.1940 C   0  0  0  0  0  0  0  0  0  0  0  0
   57.3250   31.7660   45.1070 N   0  0  0  0  0  0  0  0  0  0  0  0
   58.1590   32.7820   44.7550 C   0  0  0  0  0  0  0  0  0  0  0  0
   58.7050   33.6560   45.8100 C   0  0  0  0  0  0  0  0  0  0  0  0
   59.1640   34.9600   45.6210 C   0  0  0  0  0  0  0  0  0  0  0  0
   59.1546   35.4933   44.6590 H   0  0  0  0  0  0  0  0  0  0  0  0
   59.6220   35.4780   46.7830 N   0  0  0  0  0  0  0  0  0  0  0  0
   60.0230   36.4300   46.9330 H   0  0  0  0  0  0  0  0  0  0  0  0
   59.4410   34.5170   47.7020 C   0  0  0  0  0  0  0  0  0  0  0  0
   59.7380   34.6150   49.0200 N   0  0  0  0  0  0  0  0  0  0  0  0
   59.4620   33.5620   49.8460 C   0  0  0  0  0  0  0  0  0  0  0  0
   59.7233   33.6262   50.9126 H   0  0  0  0  0  0  0  0  0  0  0  0
   58.8420   32.3850   49.3460 C   0  0  0  0  0  0  0  0  0  0  0  0
   58.5340   31.2640   50.2650 C   0  0  0  0  0  0  0  0  0  0  0  0
   59.4060   30.3830   50.4880 O   0  0  0  0  0  0  0  0  0  0  0  0
   57.2680   31.1650   50.9240 N   0  0  0  0  0  0  0  0  0  0  0  0
   56.5740   31.9420   50.9020 H   0  0  0  0  0  0  0  0  0  0  0  0
   57.0620   30.3410   51.5330 H   0  0  0  0  0  0  0  0  0  0  0  0
   58.5450   32.3060   47.9660 C   0  0  0  0  0  0  0  0  0  0  0  0
   58.0656   31.4123   47.5400 H   0  0  0  0  0  0  0  0  0  0  0  0
   58.8780   33.3950   47.1610 C   0  0  0  0  0  0  0  0  0  0  0  0
   58.4160   33.0210   43.3980 C   0  0  0  0  0  0  0  0  0  0  0  0
   59.0643   33.8561   43.0942 H   0  0  0  0  0  0  0  0  0  0  0  0
   57.8420   32.1900   42.4370 C   0  0  0  0  0  0  0  0  0  0  0  0
   58.0523   32.3575   41.3704 H   0  0  0  0  0  0  0  0  0  0  0  0
   57.0020   31.1470   42.8250 C   0  0  0  0  0  0  0  0  0  0  0  0
   56.5527   30.4857   42.0695 H   0  0  0  0  0  0  0  0  0  0  0  0
   59.7930   29.1420   44.9570 C   0  0  0  0  0  0  0  0  0  0  0  0
   60.3006   28.5669   44.1686 H   0  0  0  0  0  0  0  0  0  0  0  0
   59.4394   30.1084   44.5684 H   0  0  0  0  0  0  0  0  0  0  0  0
   60.7940   29.4150   46.1050 C   0  0  0  0  0  0  0  0  0  0  0  0
   61.8031   29.1341   45.7692 H   0  0  0  0  0  0  0  0  0  0  0  0
   60.7379   30.4849   46.3541 H   0  0  0  0  0  0  0  0  0  0  0  0
  1  2  1  0
  2  3  1  0
  2  4  2  0
  4  5  1  0
  4  6  1  0
  6  7  1  0
  6  8  1  0
  6  9  1  0
  9 10  1  0
 10 11  1  0
 10 12  1  0
 10 13  1  0
 13 14  1  0
 13 15  1  0
 13 16  1  0
 16 17  1  0
 17 18  1  0
 17 19  1  0
 17 20  1  0
 20 21  1  0
 20 22  1  0
 20 23  1  0
 23 24  2  0
 24 25  1  0
 25 26  1  0
 26 27  1  0
 27 28  2  0
 28 29  1  0
 28 30  1  0
 30 31  1  0
 30 32  1  0
 32 33  2  0
 33 34  1  0
 34 35  1  0
 34 36  2  0
 36 37  1  0
 37 38  2  0
 37 39  1  0
 39 40  1  0
 39 41  1  0
 36 42  1  0
 42 43  1  0
 42 44  2  0
 26 45  2  0
 45 46  1  0
 45 47  1  0
 47 48  1  0
 47 49  2  0
 49 50  1  0
 16 51  1  0
 51 52  1  0
 51 53  1  0
 51 54  1  0
 54 55  1  0
 54 56  1  0
 54  9  1  0
 49 24  1  0
 44 27  1  0
 44 32  1  0
M  CHG  1  25  -1
M  END
>  <UniqueID>  (30) 
27

>  <SMILES>  (30) 
C=CCN1CCN(CC/N=c2\cccc(-c3c[nH]c4ncc(C(N)=O)cc34)[n-]2)CC1

>  <Energy>  (30) 
108.84391961173847

>  <Genealogy>  (30) 
C=CCN1CCN(CCN=c2cccc(-c3c[nH]c4ncc(C(N)=O)cc34)[n-]2)CC1 (protonated)
C=CCN1CCN(CC/N=c2\cccc(-c3c[nH]c4ncc(C(N)=O)cc34)[n-]2)CC1 (cis-trans isomerization)
C=CCN1CCN(CC/N=c2\cccc(-c3c[nH]c4ncc(C(N)=O)cc34)[n-]2)CC1 (3D coordinates assigned)
C=CCN1CCN(CC/N=c2\cccc(-c3c[nH]c4ncc(C(N)=O)cc34)[n-]2)CC1 (nonaromatic ring conformer: 108.84391961173847 kcal/mol)

>  <smiles>  (30) 
C=CCN1CCN(CCN=c2cccc(-c3c[nH]c4ncc(C(N)=O)cc34)[nH]2)CC1

>  <score_type>  (30) 
oracle

>  <origin>  (30) 
adg

>  <m_score__min__energy>  (30) 
-10.369999999999999

>  <m_primary>  (30) 
energy

$$$$
31:0
     RDKit          3D

 56 58  0  0  0  0  0  0  0  0999 V2000
   56.2800   23.3120   43.1350 C   0  0  0  0  0  0  0  0  0  0  0  0
   56.8830   23.9850   44.3760 C   0  0  0  0  0  0  0  0  0  0  0  0
   58.0310   23.1250   44.9330 C   0  0  0  0  0  0  0  0  0  0  0  0
   55.7890   24.2160   45.4390 C   0  0  0  0  0  0  0  0  0  0  0  0
   55.8480   25.6050   46.0050 C   0  0  0  0  0  0  0  0  0  0  0  0
   54.8160   26.3300   45.9970 O   0  0  0  0  0  0  0  0  0  0  0  0
   57.0710   26.0800   46.5820 N   0  0  0  0  0  0  0  0  0  0  0  0
   57.7670   27.2820   46.2260 C   0  0  0  0  0  0  0  0  0  0  0  0
   59.0650   27.5530   46.6910 C   0  0  0  0  0  0  0  0  0  0  0  0
   59.6880   28.7590   46.3600 C   0  0  0  0  0  0  0  0  0  0  0  0
   59.0190   29.7100   45.5840 C   0  0  0  0  0  0  0  0  0  0  0  0
   57.7130   29.4600   45.1240 C   0  0  0  0  0  0  0  0  0  0  0  0
   56.9880   30.4700   44.3210 C   0  0  0  0  0  0  0  0  0  0  0  0
   56.6360   30.2020   43.1380 O   0  0  0  0  0  0  0  0  0  0  0  0
   56.6570   31.7360   44.9010 N   0  0  0  0  0  0  0  0  0  0  0  0
   57.5810   32.7440   45.3310 C   0  0  0  0  0  0  0  0  0  0  0  0
   58.0240   33.7620   44.4690 C   0  0  0  0  0  0  0  0  0  0  0  0
   58.9660   34.6960   44.9110 C   0  0  0  0  0  0  0  0  0  0  0  0
   59.4740   34.6210   46.2100 C   0  0  0  0  0  0  0  0  0  0  0  0
   59.0450   33.6060   47.0760 C   0  0  0  0  0  0  0  0  0  0  0  0
   59.6890   33.5030   48.7190 S   0  0  0  0  0  0  0  0  0  0  0  0
   58.7670   32.6620   49.5560 O   0  0  0  0  0  0  0  0  0  0  0  0
   59.7380   34.8770   49.3220 O   0  0  0  0  0  0  0  0  0  0  0  0
   61.2940   32.8120   48.7440 N   0  0  0  0  0  0  0  0  0  0  0  0
   61.4170   31.7600   47.7170 C   0  0  0  0  0  0  0  0  0  0  0  0
   62.8970   31.4600   47.4180 C   0  0  0  0  0  0  0  0  0  0  0  0
   63.6590   32.5850   46.9910 O   0  0  0  0  0  0  0  0  0  0  0  0
   63.0450   33.8380   47.2670 C   0  0  0  0  0  0  0  0  0  0  0  0
   62.3460   33.8540   48.6410 C   0  0  0  0  0  0  0  0  0  0  0  0
   58.1090   32.6630   46.6250 C   0  0  0  0  0  0  0  0  0  0  0  0
   57.0940   28.2420   45.4590 C   0  0  0  0  0  0  0  0  0  0  0  0
   55.5765   22.5268   43.4491 H   0  0  0  0  0  0  0  0  0  0  0  0
   55.7468   24.0628   42.5334 H   0  0  0  0  0  0  0  0  0  0  0  0
   57.0846   22.8641   42.5334 H   0  0  0  0  0  0  0  0  0  0  0  0
   57.2947   24.9657   44.0953 H   0  0  0  0  0  0  0  0  0  0  0  0
   58.0041   23.1452   46.0325 H   0  0  0  0  0  0  0  0  0  0  0  0
   57.9163   22.0887   44.5823 H   0  0  0  0  0  0  0  0  0  0  0  0
   58.9933   23.5263   44.5823 H   0  0  0  0  0  0  0  0  0  0  0  0
   54.8035   24.0617   44.9754 H   0  0  0  0  0  0  0  0  0  0  0  0
   55.9543   23.5039   46.2610 H   0  0  0  0  0  0  0  0  0  0  0  0
   59.5906   26.8157   47.3156 H   0  0  0  0  0  0  0  0  0  0  0  0
   60.7104   28.9612   46.7119 H   0  0  0  0  0  0  0  0  0  0  0  0
   59.5160   30.6584   45.3318 H   0  0  0  0  0  0  0  0  0  0  0  0
   57.6287   33.8241   43.4444 H   0  0  0  0  0  0  0  0  0  0  0  0
   59.3081   35.4923   44.2336 H   0  0  0  0  0  0  0  0  0  0  0  0
   60.2124   35.3602   46.5540 H   0  0  0  0  0  0  0  0  0  0  0  0
   60.9290   30.8432   48.0793 H   0  0  0  0  0  0  0  0  0  0  0  0
   60.9341   32.1105   46.7929 H   0  0  0  0  0  0  0  0  0  0  0  0
   63.3576   31.0623   48.3343 H   0  0  0  0  0  0  0  0  0  0  0  0
   62.9058   30.7444   46.5827 H   0  0  0  0  0  0  0  0  0  0  0  0
   63.8170   34.6215   47.2532 H   0  0  0  0  0  0  0  0  0  0  0  0
   62.2800   34.0161   46.4969 H   0  0  0  0  0  0  0  0  0  0  0  0
   63.0983   33.6772   49.4238 H   0  0  0  0  0  0  0  0  0  0  0  0
   61.8644   34.8352   48.7648 H   0  0  0  0  0  0  0  0  0  0  0  0
   57.7869   31.8521   47.2948 H   0  0  0  0  0  0  0  0  0  0  0  0
   56.0689   28.0408   45.1145 H   0  0  0  0  0  0  0  0  0  0  0  0
  1  2  1  0
  2  3  1  0
  2  4  1  0
  4  5  1  0
  5  6  2  0
  5  7  1  0
  7  8  1  0
  8  9  2  0
  9 10  1  0
 10 11  2  0
 11 12  1  0
 12 13  1  0
 13 14  2  0
 13 15  1  0
 15 16  1  0
 16 17  2  0
 17 18  1  0
 18 19  2  0
 19 20  1  0
 20 21  1  0
 21 22  2  0
 21 23  2  0
 21 24  1  0
 24 25  1  0
 25 26  1  0
 26 27  1  0
 27 28  1  0
 28 29  1  0
 20 30  2  0
 12 31  2  0
 31  8  1  0
 30 16  1  0
 29 24  1  0
  1 32  1  0
  1 33  1  0
  1 34  1  0
  2 35  1  0
  3 36  1  0
  3 37  1  0
  3 38  1  0
  4 39  1  0
  4 40  1  0
  9 41  1  0
 10 42  1  0
 11 43  1  0
 17 44  1  0
 18 45  1  0
 19 46  1  0
 25 47  1  0
 25 48  1  0
 26 49  1  0
 26 50  1  0
 28 51  1  0
 28 52  1  0
 29 53  1  0
 29 54  1  0
 30 55  1  0
 31 56  1  0
M  CHG  2   7  -1  15  -1
M  END
>  <UniqueID>  (31) 
28

>  <SMILES>  (31) 
CC(C)CC(=O)[N-]c1cccc(C(=O)[N-]c2cccc(S(=O)(=O)N3CCOCC3)c2)c1

>  <Energy>  (31) 
70.26055978811902

>  <Genealogy>  (31) 
CC(C)CC(=O)[N-]c1cccc(C(=O)[N-]c2cccc(S(=O)(=O)N3CCOCC3)c2)c1 (protonated)
CC(C)CC(=O)[N-]c1cccc(C(=O)[N-]c2cccc(S(=O)(=O)N3CCOCC3)c2)c1 (3D coordinates assigned)
CC(C)CC(=O)[N-]c1cccc(C(=O)[N-]c2cccc(S(=O)(=O)N3CCOCC3)c2)c1 (nonaromatic ring conformer: 70.26055978811902 kcal/mol)

>  <smiles>  (31) 
CC(C)CC(=O)Nc1cccc(C(=O)Nc2cccc(S(=O)(=O)N3CCOCC3)c2)c1

>  <score_type>  (31) 
oracle

>  <origin>  (31) 
adg

>  <m_score__min__energy>  (31) 
-13.279999999999999

>  <m_primary>  (31) 
energy

$$$$
32:0
     RDKit          3D

 56 59  0  0  0  0  0  0  0  0999 V2000
   66.4600   33.4220   51.5530 C   0  0  0  0  0  0  0  0  0  0  0  0
   65.9410   33.6990   50.2570 O   0  0  0  0  0  0  0  0  0  0  0  0
   64.8340   33.0490   49.6900 C   0  0  0  0  0  0  0  0  0  0  0  0
   64.2640   33.4550   48.4680 C   0  0  0  0  0  0  0  0  0  0  0  0
   63.1630   32.7730   47.9440 C   0  0  0  0  0  0  0  0  0  0  0  0
   62.6250   31.6700   48.6230 C   0  0  0  0  0  0  0  0  0  0  0  0
   61.4430   30.9630   48.0820 C   0  0  0  0  0  0  0  0  0  0  0  0
   61.5310   30.4610   46.7860 C   0  0  0  0  0  0  0  0  0  0  0  0
   60.4480   29.7880   46.2410 C   0  0  0  0  0  0  0  0  0  0  0  0
   60.5430   29.3350   45.0680 O   0  0  0  0  0  0  0  0  0  0  0  0
   59.3010   29.6210   46.9700 N   0  0  0  0  0  0  0  0  0  0  0  0
   58.1540   28.8850   46.3960 C   0  0  0  0  0  0  0  0  0  0  0  0
   57.6760   29.5530   45.1340 C   0  0  0  0  0  0  0  0  0  0  0  0
   57.0340   28.8010   44.1350 C   0  0  0  0  0  0  0  0  0  0  0  0
   56.5650   29.4250   42.9750 C   0  0  0  0  0  0  0  0  0  0  0  0
   56.7280   30.8020   42.8040 C   0  0  0  0  0  0  0  0  0  0  0  0
   57.3620   31.5580   43.7940 C   0  0  0  0  0  0  0  0  0  0  0  0
   57.5200   32.8950   43.6290 F   0  0  0  0  0  0  0  0  0  0  0  0
   57.8350   30.9390   44.9550 C   0  0  0  0  0  0  0  0  0  0  0  0
   59.2250   30.1190   48.2480 C   0  0  0  0  0  0  0  0  0  0  0  0
   58.1610   29.9620   48.9120 O   0  0  0  0  0  0  0  0  0  0  0  0
   60.2860   30.7980   48.8070 N   0  0  0  0  0  0  0  0  0  0  0  0
   60.1330   31.4170   50.1470 C   0  0  0  0  0  0  0  0  0  0  0  0
   59.3010   32.7070   50.0830 C   0  0  0  0  0  0  0  0  0  0  0  0
   59.2450   33.2680   48.6870 C   0  0  0  0  0  0  0  0  0  0  0  0
   60.2800   34.0890   48.2130 C   0  0  0  0  0  0  0  0  0  0  0  0
   60.1980   34.6620   46.9400 C   0  0  0  0  0  0  0  0  0  0  0  0
   59.0810   34.4270   46.1330 C   0  0  0  0  0  0  0  0  0  0  0  0
   59.0100   35.0090   44.8690 O   0  0  0  0  0  0  0  0  0  0  0  0
   58.0420   33.6130   46.6030 C   0  0  0  0  0  0  0  0  0  0  0  0
   58.1230   33.0360   47.8750 C   0  0  0  0  0  0  0  0  0  0  0  0
   63.1790   31.2780   49.8500 C   0  0  0  0  0  0  0  0  0  0  0  0
   64.2800   31.9600   50.3730 C   0  0  0  0  0  0  0  0  0  0  0  0
   65.7606   33.7953   52.3155 H   0  0  0  0  0  0  0  0  0  0  0  0
   66.5874   32.3360   51.6725 H   0  0  0  0  0  0  0  0  0  0  0  0
   67.4332   33.9207   51.6725 H   0  0  0  0  0  0  0  0  0  0  0  0
   64.6872   34.3123   47.9240 H   0  0  0  0  0  0  0  0  0  0  0  0
   62.7160   33.1026   46.9945 H   0  0  0  0  0  0  0  0  0  0  0  0
   62.4517   30.5972   46.1997 H   0  0  0  0  0  0  0  0  0  0  0  0
   58.4638   27.8551   46.1652 H   0  0  0  0  0  0  0  0  0  0  0  0
   57.3330   28.8794   47.1281 H   0  0  0  0  0  0  0  0  0  0  0  0
   56.9000   27.7171   44.2663 H   0  0  0  0  0  0  0  0  0  0  0  0
   56.0665   28.8304   42.1952 H   0  0  0  0  0  0  0  0  0  0  0  0
   56.3576   31.2909   41.8909 H   0  0  0  0  0  0  0  0  0  0  0  0
   58.3333   31.5382   45.7313 H   0  0  0  0  0  0  0  0  0  0  0  0
   59.6315   30.7017   50.8154 H   0  0  0  0  0  0  0  0  0  0  0  0
   61.1343   31.6720   50.5243 H   0  0  0  0  0  0  0  0  0  0  0  0
   58.2771   32.4873   50.4197 H   0  0  0  0  0  0  0  0  0  0  0  0
   59.7792   33.4547   50.7328 H   0  0  0  0  0  0  0  0  0  0  0  0
   61.1591   34.2825   48.8453 H   0  0  0  0  0  0  0  0  0  0  0  0
   61.0153   35.2999   46.5724 H   0  0  0  0  0  0  0  0  0  0  0  0
   58.4210   34.6220   44.1410 H   0  0  0  0  0  0  0  0  0  0  0  0
   57.1611   33.4273   45.9709 H   0  0  0  0  0  0  0  0  0  0  0  0
   57.3047   32.3982   48.2404 H   0  0  0  0  0  0  0  0  0  0  0  0
   62.7454   30.4312   50.4021 H   0  0  0  0  0  0  0  0  0  0  0  0
   64.7157   31.6384   51.3304 H   0  0  0  0  0  0  0  0  0  0  0  0
  1  2  1  0
  2  3  1  0
  3  4  2  0
  4  5  1  0
  5  6  2  0
  6  7  1  0
  7  8  2  0
  8  9  1  0
  9 10  2  0
  9 11  1  0
 11 12  1  0
 12 13  1  0
 13 14  2  0
 14 15  1  0
 15 16  2  0
 16 17  1  0
 17 18  1  0
 17 19  2  0
 11 20  1  0
 20 21  2  0
 20 22  1  0
 22 23  1  0
 23 24  1  0
 24 25  1  0
 25 26  2  0
 26 27  1  0
 27 28  2  0
 28 29  1  0
 28 30  1  0
 30 31  2  0
  6 32  1  0
 32 33  2  0
 33  3  1  0
 22  7  1  0
 31 25  1  0
 19 13  1  0
  1 34  1  0
  1 35  1  0
  1 36  1  0
  4 37  1  0
  5 38  1  0
  8 39  1  0
 12 40  1  0
 12 41  1  0
 14 42  1  0
 15 43  1  0
 16 44  1  0
 19 45  1  0
 23 46  1  0
 23 47  1  0
 24 48  1  0
 24 49  1  0
 26 50  1  0
 27 51  1  0
 29 52  1  0
 30 53  1  0
 31 54  1  0
 32 55  1  0
 33 56  1  0
M  END
>  <UniqueID>  (32) 
29

>  <SMILES>  (32) 
COc1ccc(-c2cc(=O)n(Cc3cccc(F)c3)c(=O)n2CCc2ccc(O)cc2)cc1

>  <Energy>  (32) 
70.42512872884915

>  <Genealogy>  (32) 
COc1ccc(-c2cc(=O)n(Cc3cccc(F)c3)c(=O)n2CCc2ccc(O)cc2)cc1 (3D coordinates assigned)
COc1ccc(-c2cc(=O)n(Cc3cccc(F)c3)c(=O)n2CCc2ccc(O)cc2)cc1 (optimized conformer: 70.42512872884915 kcal/mol)

>  <smiles>  (32) 
COc1ccc(-c2cc(=O)n(Cc3cccc(F)c3)c(=O)n2CCc2ccc(O)cc2)cc1

>  <score_type>  (32) 
oracle

>  <origin>  (32) 
adg

>  <m_score__min__energy>  (32) 
-8.0600000000000005

>  <m_primary>  (32) 
energy

$$$$
33:0
     RDKit          3D

 48 50  0  0  0  0  0  0  0  0999 V2000
   58.8810   34.0030   52.0150 C   0  0  0  0  0  0  0  0  0  0  0  0
   60.0840   33.2120   51.5080 C   0  0  0  0  0  0  0  0  0  0  0  0
   60.2410   33.3790   50.0470 N   0  0  0  0  0  0  0  0  0  0  0  0
   59.3170   32.8600   49.1620 C   0  0  0  0  0  0  0  0  0  0  0  0
   58.1300   32.1870   49.6210 N   0  0  0  0  0  0  0  0  0  0  0  0
   59.5260   33.0030   47.7760 C   0  0  0  0  0  0  0  0  0  0  0  0
   58.5940   32.4650   46.8260 N   0  0  0  0  0  0  0  0  0  0  0  0
   57.6620   33.3860   46.1730 C   0  0  0  0  0  0  0  0  0  0  0  0
   58.4780   31.0320   46.6890 C   0  0  0  0  0  0  0  0  0  0  0  0
   58.8200   30.2880   47.6500 O   0  0  0  0  0  0  0  0  0  0  0  0
   57.9330   30.3890   45.4430 C   0  0  0  0  0  0  0  0  0  0  0  0
   57.8930   28.9320   45.5890 N   0  0  0  0  0  0  0  0  0  0  0  0
   56.8050   28.1360   45.4870 C   0  0  0  0  0  0  0  0  0  0  0  0
   55.5190   28.5940   45.2250 O   0  0  0  0  0  0  0  0  0  0  0  0
   57.1560   26.8160   45.6800 C   0  0  0  0  0  0  0  0  0  0  0  0
   58.5210   26.7940   45.8590 C   0  0  0  0  0  0  0  0  0  0  0  0
   58.9430   28.1110   45.8150 C   0  0  0  0  0  0  0  0  0  0  0  0
   60.2530   28.5530   45.9810 O   0  0  0  0  0  0  0  0  0  0  0  0
   59.3050   25.5540   46.1630 C   0  0  0  0  0  0  0  0  0  0  0  0
   58.4990   24.2990   45.7680 C   0  0  0  0  0  0  0  0  0  0  0  0
   57.0310   24.3880   46.2370 C   0  0  0  0  0  0  0  0  0  0  0  0
   56.3010   25.5880   45.6020 C   0  0  0  0  0  0  0  0  0  0  0  0
   60.6490   33.7030   47.3330 C   0  0  0  0  0  0  0  0  0  0  0  0
   60.8650   33.8540   46.1010 O   0  0  0  0  0  0  0  0  0  0  0  0
   61.5100   34.2280   48.2320 N   0  0  0  0  0  0  0  0  0  0  0  0
   61.3210   34.0830   49.5660 C   0  0  0  0  0  0  0  0  0  0  0  0
   62.1550   34.6060   50.3540 O   0  0  0  0  0  0  0  0  0  0  0  0
   58.8799   34.0038   53.1150 H   0  0  0  0  0  0  0  0  0  0  0  0
   58.9415   35.0381   51.6477 H   0  0  0  0  0  0  0  0  0  0  0  0
   57.9547   33.5372   51.6477 H   0  0  0  0  0  0  0  0  0  0  0  0
   60.9923   33.5732   52.0125 H   0  0  0  0  0  0  0  0  0  0  0  0
   59.9242   32.1459   51.7271 H   0  0  0  0  0  0  0  0  0  0  0  0
   57.4190   32.6830   50.2020 H   0  0  0  0  0  0  0  0  0  0  0  0
   57.9650   31.1690   49.4750 H   0  0  0  0  0  0  0  0  0  0  0  0
   57.0995   33.9418   46.9377 H   0  0  0  0  0  0  0  0  0  0  0  0
   58.2244   34.0929   45.5453 H   0  0  0  0  0  0  0  0  0  0  0  0
   56.9618   32.8153   45.5453 H   0  0  0  0  0  0  0  0  0  0  0  0
   56.9145   30.7619   45.2598 H   0  0  0  0  0  0  0  0  0  0  0  0
   58.5893   30.6424   44.5974 H   0  0  0  0  0  0  0  0  0  0  0  0
   60.4770   29.3060   46.6190 H   0  0  0  0  0  0  0  0  0  0  0  0
   60.2476   25.5729   45.5963 H   0  0  0  0  0  0  0  0  0  0  0  0
   59.5142   25.5192   47.2424 H   0  0  0  0  0  0  0  0  0  0  0  0
   58.5171   24.1945   44.6731 H   0  0  0  0  0  0  0  0  0  0  0  0
   58.9613   23.4286   46.2565 H   0  0  0  0  0  0  0  0  0  0  0  0
   56.5092   23.4623   45.9527 H   0  0  0  0  0  0  0  0  0  0  0  0
   57.0275   24.5233   47.3286 H   0  0  0  0  0  0  0  0  0  0  0  0
   56.0830   25.3637   44.5474 H   0  0  0  0  0  0  0  0  0  0  0  0
   55.3643   25.7682   46.1498 H   0  0  0  0  0  0  0  0  0  0  0  0
  1  2  1  0
  2  3  1  0
  3  4  1  0
  4  5  1  0
  4  6  2  0
  6  7  1  0
  7  8  1  0
  7  9  1  0
  9 10  2  0
  9 11  1  0
 11 12  1  0
 12 13  1  0
 13 14  1  0
 13 15  2  0
 15 16  1  0
 16 17  2  0
 17 18  1  0
 16 19  1  0
 19 20  1  0
 20 21  1  0
 21 22  1  0
  6 23  1  0
 23 24  2  0
 23 25  1  0
 25 26  1  0
 26 27  2  0
 26  3  1  0
 17 12  1  0
 22 15  1  0
  1 28  1  0
  1 29  1  0
  1 30  1  0
  2 31  1  0
  2 32  1  0
  5 33  1  0
  5 34  1  0
  8 35  1  0
  8 36  1  0
  8 37  1  0
 11 38  1  0
 11 39  1  0
 18 40  1  0
 19 41  1  0
 19 42  1  0
 20 43  1  0
 20 44  1  0
 21 45  1  0
 21 46  1  0
 22 47  1  0
 22 48  1  0
M  CHG  2  14  -1  25  -1
M  END
>  <UniqueID>  (33) 
30

>  <SMILES>  (33) 
CCn1c(N)c(N(C)C(=O)Cn2c([O-])c3c(c2O)CCCC3)c(=O)[n-]c1=O

>  <Energy>  (33) 
86.04639329708462

>  <Genealogy>  (33) 
CCn1c(N)c(N(C)C(=O)Cn2c([O-])c3c(c2O)CCCC3)c(=O)[n-]c1=O (protonated)
CCn1c(N)c(N(C)C(=O)Cn2c([O-])c3c(c2O)CCCC3)c(=O)[n-]c1=O (3D coordinates assigned)
CCn1c(N)c(N(C)C(=O)Cn2c([O-])c3c(c2O)CCCC3)c(=O)[n-]c1=O (nonaromatic ring conformer: 86.04639329708462 kcal/mol)

>  <smiles>  (33) 
CCn1c(N)c(N(C)C(=O)Cn2c(O)c3c(c2O)CCCC3)c(=O)[nH]c1=O

>  <score_type>  (33) 
oracle

>  <origin>  (33) 
adg

>  <m_score__min__energy>  (33) 
-11.75

>  <m_primary>  (33) 
energy

$$$$
34:0
     RDKit          3D

 51 54  0  0  0  0  0  0  0  0999 V2000
   59.7431   27.5856   46.1739 H   0  0  0  0  0  0  0  0  0  0  0  0
   58.7880   27.0420   46.2210 C   0  0  0  0  0  0  0  0  0  0  0  0
   58.6270   26.0170   47.0960 N   0  0  0  0  0  0  0  0  0  0  0  0
   57.4590   25.3290   47.1790 C   0  0  0  0  0  0  0  0  0  0  0  0
   57.3527   24.4999   47.8940 H   0  0  0  0  0  0  0  0  0  0  0  0
   56.3850   25.6870   46.3410 C   0  0  0  0  0  0  0  0  0  0  0  0
   55.2350   25.0750   46.3680 N   0  0  0  0  0  0  0  0  0  0  0  0
   54.7420   24.0740   45.4210 C   0  0  0  0  0  0  0  0  0  0  0  0
   53.8396   23.6004   45.8350 H   0  0  0  0  0  0  0  0  0  0  0  0
   54.5114   24.5748   44.4692 H   0  0  0  0  0  0  0  0  0  0  0  0
   55.7830   23.0140   45.1670 C   0  0  0  0  0  0  0  0  0  0  0  0
   56.1310   22.0980   46.1700 C   0  0  0  0  0  0  0  0  0  0  0  0
   55.6380   22.1395   47.1524 H   0  0  0  0  0  0  0  0  0  0  0  0
   57.1080   21.1320   45.9140 C   0  0  0  0  0  0  0  0  0  0  0  0
   57.3801   20.4064   46.6947 H   0  0  0  0  0  0  0  0  0  0  0  0
   57.7230   21.0870   44.7020 N   0  0  0  0  0  0  0  0  0  0  0  0
   58.4510   20.3590   44.5250 H   0  0  0  0  0  0  0  0  0  0  0  0
   57.4130   21.9710   43.7160 C   0  0  0  0  0  0  0  0  0  0  0  0
   57.9289   21.9132   42.7462 H   0  0  0  0  0  0  0  0  0  0  0  0
   56.4430   22.9510   43.9300 C   0  0  0  0  0  0  0  0  0  0  0  0
   56.1972   23.6696   43.1343 H   0  0  0  0  0  0  0  0  0  0  0  0
   56.5570   26.7120   45.4660 N   0  0  0  0  0  0  0  0  0  0  0  0
   57.7270   27.4030   45.3770 C   0  0  0  0  0  0  0  0  0  0  0  0
   57.8420   28.5400   44.3860 C   0  0  0  0  0  0  0  0  0  0  0  0
   58.0262   28.0951   43.3970 H   0  0  0  0  0  0  0  0  0  0  0  0
   59.0600   29.4540   44.6740 C   0  0  0  0  0  0  0  0  0  0  0  0
   59.6221   29.6005   43.7399 H   0  0  0  0  0  0  0  0  0  0  0  0
   59.6785   28.9625   45.4394 H   0  0  0  0  0  0  0  0  0  0  0  0
   58.6370   30.8270   45.2180 C   0  0  0  0  0  0  0  0  0  0  0  0
   59.5379   31.4365   45.3820 H   0  0  0  0  0  0  0  0  0  0  0  0
   58.0886   30.6650   46.1577 H   0  0  0  0  0  0  0  0  0  0  0  0
   57.7360   31.5460   44.2800 N   0  0  0  0  0  0  0  0  0  0  0  0
   57.0570   32.6750   44.9510 C   0  0  0  0  0  0  0  0  0  0  0  0
   56.2619   32.2812   45.6012 H   0  0  0  0  0  0  0  0  0  0  0  0
   56.6334   33.3364   44.1808 H   0  0  0  0  0  0  0  0  0  0  0  0
   58.0250   33.4690   45.7840 C   0  0  0  0  0  0  0  0  0  0  0  0
   58.1460   33.1960   47.1130 N   0  0  0  0  0  0  0  0  0  0  0  0
   58.9880   33.9000   47.9170 C   0  0  0  0  0  0  0  0  0  0  0  0
   59.0637   33.6513   48.9858 H   0  0  0  0  0  0  0  0  0  0  0  0
   59.7560   34.9380   47.3860 C   0  0  0  0  0  0  0  0  0  0  0  0
   60.4407   35.5087   48.0306 H   0  0  0  0  0  0  0  0  0  0  0  0
   59.6460   35.2440   46.0290 C   0  0  0  0  0  0  0  0  0  0  0  0
   60.2426   36.0617   45.5983 H   0  0  0  0  0  0  0  0  0  0  0  0
   58.7770   34.5100   45.2190 C   0  0  0  0  0  0  0  0  0  0  0  0
   58.6830   34.7456   44.1487 H   0  0  0  0  0  0  0  0  0  0  0  0
   56.7590   30.6680   43.5780 C   0  0  0  0  0  0  0  0  0  0  0  0
   57.1394   30.4593   42.5672 H   0  0  0  0  0  0  0  0  0  0  0  0
   55.7971   31.2012   43.5545 H   0  0  0  0  0  0  0  0  0  0  0  0
   56.5240   29.3320   44.2970 C   0  0  0  0  0  0  0  0  0  0  0  0
   55.7827   28.7430   43.7371 H   0  0  0  0  0  0  0  0  0  0  0  0
   56.1538   29.5305   45.3136 H   0  0  0  0  0  0  0  0  0  0  0  0
  1  2  1  0
  2  3  1  0
  3  4  2  0
  4  5  1  0
  4  6  1  0
  6  7  2  0
  7  8  1  0
  8  9  1  0
  8 10  1  0
  8 11  1  0
 11 12  2  0
 12 13  1  0
 12 14  1  0
 14 15  1  0
 14 16  2  0
 16 17  1  0
 16 18  1  0
 18 19  1  0
 18 20  2  0
 20 21  1  0
  6 22  1  0
 22 23  1  0
 23 24  1  0
 24 25  1  0
 24 26  1  0
 26 27  1  0
 26 28  1  0
 26 29  1  0
 29 30  1  0
 29 31  1  0
 29 32  1  0
 32 33  1  0
 33 34  1  0
 33 35  1  0
 33 36  1  0
 36 37  2  0
 37 38  1  0
 38 39  1  0
 38 40  2  0
 40 41  1  0
 40 42  1  0
 42 43  1  0
 42 44  2  0
 44 45  1  0
 32 46  1  0
 46 47  1  0
 46 48  1  0
 46 49  1  0
 49 50  1  0
 49 51  1  0
 23  2  2  0
 49 24  1  0
 20 11  1  0
 44 36  1  0
M  CHG  2  16   1  22  -1
M  END
>  <UniqueID>  (34) 
31

>  <SMILES>  (34) 
c1ccc(CN2CCC(c3cnc/c(=N\Cc4cc[nH+]cc4)[n-]3)CC2)nc1

>  <Energy>  (34) 
67.67032257046779

>  <Genealogy>  (34) 
c1ccc(CN2CCC(c3cncc(=NCc4cc[nH+]cc4)[n-]3)CC2)nc1 (protonated)
c1ccc(CN2CCC(c3cnc/c(=N\Cc4cc[nH+]cc4)[n-]3)CC2)nc1 (cis-trans isomerization)
c1ccc(CN2CCC(c3cnc/c(=N\Cc4cc[nH+]cc4)[n-]3)CC2)nc1 (3D coordinates assigned)
c1ccc(CN2CCC(c3cnc/c(=N\Cc4cc[nH+]cc4)[n-]3)CC2)nc1 (nonaromatic ring conformer: 67.67032257046779 kcal/mol)

>  <smiles>  (34) 
c1ccc(CN2CCC(c3cncc(=NCc4ccncc4)[nH]3)CC2)nc1

>  <score_type>  (34) 
oracle

>  <origin>  (34) 
adg

>  <m_score__min__energy>  (34) 
-9.9700000000000006

>  <m_primary>  (34) 
energy

$$$$
35:0
     RDKit          3D

 35 36  0  0  0  0  0  0  0  0999 V2000
   57.4010   31.9500   41.6240 C   0  0  0  0  0  0  0  0  0  0  0  0
   57.7590   32.1230   43.0950 C   0  0  0  0  0  0  0  0  0  0  0  0
   57.2950   30.9450   43.8920 C   0  0  0  0  0  0  0  0  0  0  0  0
   56.0920   30.8810   44.4950 N   0  0  0  0  0  0  0  0  0  0  0  0
   56.0550   29.7000   45.0310 O   0  0  0  0  0  0  0  0  0  0  0  0
   57.1660   29.0590   44.7650 C   0  0  0  0  0  0  0  0  0  0  0  0
   57.4780   27.6790   45.2460 C   0  0  0  0  0  0  0  0  0  0  0  0
   58.9660   27.5530   45.5730 C   0  0  0  0  0  0  0  0  0  0  0  0
   59.2910   28.3060   46.8270 C   0  0  0  0  0  0  0  0  0  0  0  0
   59.9330   27.7310   47.7480 O   0  0  0  0  0  0  0  0  0  0  0  0
   58.9150   29.6830   46.9590 N   0  0  0  0  0  0  0  0  0  0  0  0
   59.2520   30.4540   48.1540 C   0  0  0  0  0  0  0  0  0  0  0  0
   59.9350   31.7710   47.7770 C   0  0  0  0  0  0  0  0  0  0  0  0
   58.9760   32.6800   47.0730 C   0  0  0  0  0  0  0  0  0  0  0  0
   59.1900   34.0020   46.7660 C   0  0  0  0  0  0  0  0  0  0  0  0
   58.1290   34.4660   46.0830 N   0  0  0  0  0  0  0  0  0  0  0  0
   57.3060   33.4000   45.9900 C   0  0  0  0  0  0  0  0  0  0  0  0
   57.7910   32.2850   46.5760 N   0  0  0  0  0  0  0  0  0  0  0  0
   58.0110   29.8100   44.0310 N   0  0  0  0  0  0  0  0  0  0  0  0
   56.4134   31.4728   41.5407 H   0  0  0  0  0  0  0  0  0  0  0  0
   57.3748   32.9348   41.1347 H   0  0  0  0  0  0  0  0  0  0  0  0
   58.1564   31.3175   41.1347 H   0  0  0  0  0  0  0  0  0  0  0  0
   58.8505   32.2182   43.1926 H   0  0  0  0  0  0  0  0  0  0  0  0
   57.2625   33.0272   43.4768 H   0  0  0  0  0  0  0  0  0  0  0  0
   56.8889   27.4686   46.1508 H   0  0  0  0  0  0  0  0  0  0  0  0
   57.2242   26.9589   44.4541 H   0  0  0  0  0  0  0  0  0  0  0  0
   59.2178   26.4913   45.7122 H   0  0  0  0  0  0  0  0  0  0  0  0
   59.5508   27.9745   44.7421 H   0  0  0  0  0  0  0  0  0  0  0  0
   58.3950   30.1360   46.1730 H   0  0  0  0  0  0  0  0  0  0  0  0
   58.3306   30.6730   48.7135 H   0  0  0  0  0  0  0  0  0  0  0  0
   59.9438   29.8624   48.7716 H   0  0  0  0  0  0  0  0  0  0  0  0
   60.2967   32.2651   48.6908 H   0  0  0  0  0  0  0  0  0  0  0  0
   60.7767   31.5534   47.1031 H   0  0  0  0  0  0  0  0  0  0  0  0
   60.0831   34.5852   47.0350 H   0  0  0  0  0  0  0  0  0  0  0  0
   56.3303   33.4367   45.4835 H   0  0  0  0  0  0  0  0  0  0  0  0
  1  2  1  0
  2  3  1  0
  3  4  2  0
  4  5  1  0
  5  6  1  0
  6  7  1  0
  7  8  1  0
  8  9  1  0
  9 10  2  0
  9 11  1  0
 11 12  1  0
 12 13  1  0
 13 14  1  0
 14 15  2  0
 15 16  1  0
 16 17  1  0
 17 18  2  0
  6 19  2  0
 19  3  1  0
 18 14  1  0
  1 20  1  0
  1 21  1  0
  1 22  1  0
  2 23  1  0
  2 24  1  0
  7 25  1  0
  7 26  1  0
  8 27  1  0
  8 28  1  0
 11 29  1  0
 12 30  1  0
 12 31  1  0
 13 32  1  0
 13 33  1  0
 15 34  1  0
 17 35  1  0
M  CHG  1  16  -1
M  END
>  <UniqueID>  (35) 
32

>  <SMILES>  (35) 
CCc1noc(CCC(=O)NCCc2c[n-]cn2)n1

>  <Energy>  (35) 
80.37467824196766

>  <Genealogy>  (35) 
CCc1noc(CCC(=O)NCCc2c[n-]cn2)n1 (protonated)
CCc1noc(CCC(=O)NCCc2c[n-]cn2)n1 (3D coordinates assigned)
CCc1noc(CCC(=O)NCCc2c[n-]cn2)n1 (optimized conformer: 80.37467824196766 kcal/mol)

>  <smiles>  (35) 
CCc1noc(CCC(=O)NCCc2c[nH]cn2)n1

>  <score_type>  (35) 
oracle

>  <origin>  (35) 
adg

>  <m_score__min__energy>  (35) 
-8.8900000000000006

>  <m_primary>  (35) 
energy

$$$$
36:0
     RDKit          3D

 46 49  0  0  0  0  0  0  0  0999 V2000
   57.7098   28.9509   44.6904 H   0  0  0  0  0  0  0  0  0  0  0  0
   57.5930   27.8600   44.7700 C   0  0  0  0  0  0  0  0  0  0  0  0
   56.9794   27.3175   44.0357 H   0  0  0  0  0  0  0  0  0  0  0  0
   58.1990   27.1910   45.7630 C   0  0  0  0  0  0  0  0  0  0  0  0
   58.1420   25.8120   45.9900 C   0  0  0  0  0  0  0  0  0  0  0  0
   57.4920   24.8890   45.2550 C   0  0  0  0  0  0  0  0  0  0  0  0
   58.0634   24.3418   44.4908 H   0  0  0  0  0  0  0  0  0  0  0  0
   56.0610   24.5670   45.4120 C   0  0  0  0  0  0  0  0  0  0  0  0
   55.5430   23.3600   45.1320 N   0  0  0  0  0  0  0  0  0  0  0  0
   54.2180   23.5330   45.3290 C   0  0  0  0  0  0  0  0  0  0  0  0
   53.3820   22.6050   45.1770 O   0  0  0  0  0  0  0  0  0  0  0  0
   53.8580   24.7830   45.6920 N   0  0  0  0  0  0  0  0  0  0  0  0
   55.0340   25.4290   45.7280 C   0  0  0  0  0  0  0  0  0  0  0  0
   55.1550   26.7880   45.9960 O   0  0  0  0  0  0  0  0  0  0  0  0
   58.9490   25.5660   47.0940 C   0  0  0  0  0  0  0  0  0  0  0  0
   59.1550   24.5872   47.5517 H   0  0  0  0  0  0  0  0  0  0  0  0
   59.4420   26.7880   47.5050 C   0  0  0  0  0  0  0  0  0  0  0  0
   60.3810   26.9810   48.6570 C   0  0  0  0  0  0  0  0  0  0  0  0
   59.8299   26.8677   49.6022 H   0  0  0  0  0  0  0  0  0  0  0  0
   61.1820   26.2287   48.6072 H   0  0  0  0  0  0  0  0  0  0  0  0
   60.8203   27.9882   48.6072 H   0  0  0  0  0  0  0  0  0  0  0  0
   58.9940   27.7740   46.6970 N   0  0  0  0  0  0  0  0  0  0  0  0
   59.3050   29.1730   46.8240 C   0  0  0  0  0  0  0  0  0  0  0  0
   58.4740   30.0150   47.5760 C   0  0  0  0  0  0  0  0  0  0  0  0
   57.5748   29.6066   48.0604 H   0  0  0  0  0  0  0  0  0  0  0  0
   58.7830   31.3710   47.7130 C   0  0  0  0  0  0  0  0  0  0  0  0
   58.1293   32.0243   48.3095 H   0  0  0  0  0  0  0  0  0  0  0  0
   59.9250   31.9030   47.0920 C   0  0  0  0  0  0  0  0  0  0  0  0
   60.2770   33.3560   47.2700 C   0  0  0  0  0  0  0  0  0  0  0  0
   59.7721   33.7436   48.1671 H   0  0  0  0  0  0  0  0  0  0  0  0
   61.3677   33.4471   47.3798 H   0  0  0  0  0  0  0  0  0  0  0  0
   59.8320   34.1690   46.0500 C   0  0  0  0  0  0  0  0  0  0  0  0
   60.0221   35.2360   46.2378 H   0  0  0  0  0  0  0  0  0  0  0  0
   60.4005   33.8299   45.1714 H   0  0  0  0  0  0  0  0  0  0  0  0
   58.4060   33.9730   45.7930 N   0  0  0  0  0  0  0  0  0  0  0  0
   57.9210   33.0270   45.0480 C   0  0  0  0  0  0  0  0  0  0  0  0
   56.9890   32.1390   45.4630 N   0  0  0  0  0  0  0  0  0  0  0  0
   56.6680   31.2700   44.4690 C   0  0  0  0  0  0  0  0  0  0  0  0
   55.7330   30.2600   44.6550 O   0  0  0  0  0  0  0  0  0  0  0  0
   57.3360   31.4580   43.2640 C   0  0  0  0  0  0  0  0  0  0  0  0
   57.2098   30.8563   42.3519 H   0  0  0  0  0  0  0  0  0  0  0  0
   58.3730   32.7720   43.4510 S   0  0  0  0  0  0  0  0  0  0  0  0
   60.7640   31.0540   46.3530 C   0  0  0  0  0  0  0  0  0  0  0  0
   61.6703   31.4582   45.8784 H   0  0  0  0  0  0  0  0  0  0  0  0
   60.4540   29.6980   46.2170 C   0  0  0  0  0  0  0  0  0  0  0  0
   61.1139   29.0407   45.6317 H   0  0  0  0  0  0  0  0  0  0  0  0
  1  2  1  0
  2  3  1  0
  2  4  2  0
  4  5  1  0
  5  6  2  0
  6  7  1  0
  6  8  1  0
  8  9  1  0
  9 10  1  0
 10 11  2  0
 10 12  1  0
 12 13  1  0
 13 14  1  0
  5 15  1  0
 15 16  1  0
 15 17  2  0
 17 18  1  0
 18 19  1  0
 18 20  1  0
 18 21  1  0
 17 22  1  0
 22 23  1  0
 23 24  2  0
 24 25  1  0
 24 26  1  0
 26 27  1  0
 26 28  2  0
 28 29  1  0
 29 30  1  0
 29 31  1  0
 29 32  1  0
 32 33  1  0
 32 34  1  0
 32 35  1  0
 35 36  2  3
 36 37  1  0
 37 38  1  0
 38 39  1  0
 38 40  2  0
 40 41  1  0
 40 42  1  0
 28 43  1  0
 43 44  1  0
 43 45  2  0
 45 46  1  0
 22  4  1  0
 45 23  1  0
 13  8  2  0
 42 36  1  0
M  CHG  5   9  -1  12  -1  14  -1  37  -1  39  -1
M  END
>  <UniqueID>  (36) 
33

>  <SMILES>  (36) 
C=c1/c(=C/c2[n-]c(=O)[n-]c2[O-])cc(C)n1-c1ccc(CCN=c2[n-]c([O-])cs2)cc1

>  <Energy>  (36) 
148.2367760444296

>  <Genealogy>  (36) 
C=c1c(=Cc2[n-]c(=O)[n-]c2[O-])cc(C)n1-c1ccc(CCN=c2[n-]c([O-])cs2)cc1 (protonated)
C=c1/c(=C/c2[n-]c(=O)[n-]c2[O-])cc(C)n1-c1ccc(CCN=c2[n-]c([O-])cs2)cc1 (cis-trans isomerization)
C=c1/c(=C/c2[n-]c(=O)[n-]c2[O-])cc(C)n1-c1ccc(CCN=c2[n-]c([O-])cs2)cc1 (3D coordinates assigned)
C=c1/c(=C/c2[n-]c(=O)[n-]c2[O-])cc(C)n1-c1ccc(CCN=c2[n-]c([O-])cs2)cc1 (optimized conformer: 148.2367760444296 kcal/mol)

>  <smiles>  (36) 
C=c1c(=Cc2[nH]c(=O)[nH]c2O)cc(C)n1-c1ccc(CCN=c2[nH]c(O)cs2)cc1

>  <score_type>  (36) 
oracle

>  <origin>  (36) 
adg

>  <m_score__min__energy>  (36) 
-18.370000000000001

>  <m_primary>  (36) 
energy

$$$$
37:0
     RDKit          3D

 61 64  0  0  1  0  0  0  0  0999 V2000
   60.4960   34.2840   49.0800 C   0  0  0  0  0  0  0  0  0  0  0  0
   59.6670   33.8870   47.9000 C   0  0  0  0  0  0  0  0  0  0  0  0
   58.5520   33.0880   48.0650 C   0  0  0  0  0  0  0  0  0  0  0  0
   57.7840   32.7200   46.9670 C   0  0  0  0  0  0  0  0  0  0  0  0
   58.1340   33.1560   45.6760 C   0  0  0  0  0  0  0  0  0  0  0  0
   57.2840   32.7680   44.5760 C   0  0  0  0  0  0  0  0  0  0  0  0
   56.5750   31.5980   44.4850 N   0  0  0  0  0  0  0  0  0  0  0  0
   56.8640   30.4380   44.1640 C   0  0  0  0  0  0  0  0  0  0  0  0
   56.5420   29.8240   43.0150 N   0  0  0  0  0  0  0  0  0  0  0  0
   56.9960   28.5920   42.9820 N   0  0  0  0  0  0  0  0  0  0  0  0
   57.6350   28.3900   44.1410 C   0  0  0  0  0  0  0  0  0  0  0  0
   57.5750   29.5320   44.9170 C   0  0  0  0  0  0  0  0  0  0  0  0
   58.1620   29.6150   46.1970 N   0  0  0  0  0  0  0  0  0  0  0  0
   59.5250   29.7320   46.4910 C   0  0  0  0  0  0  0  0  0  0  0  0
   60.4390   29.7810   45.6380 O   0  0  0  0  0  0  0  0  0  0  0  0
   59.9820   29.8080   47.9280 C   0  0  1  0  0  0  0  0  0  0  0  0
   60.0920   28.4210   48.5110 C   0  0  0  0  0  0  0  0  0  0  0  0
   59.5400   27.3660   47.6440 C   0  0  0  0  0  0  0  0  0  0  0  0
   58.2100   27.0420   47.5510 C   0  0  0  0  0  0  0  0  0  0  0  0
   57.7410   26.0290   46.7070 C   0  0  0  0  0  0  0  0  0  0  0  0
   58.6650   25.3490   45.9570 C   0  0  0  0  0  0  0  0  0  0  0  0
   60.0180   25.6340   46.0120 C   0  0  0  0  0  0  0  0  0  0  0  0
   60.4330   26.6400   46.8570 C   0  0  0  0  0  0  0  0  0  0  0  0
   61.2350   30.5190   48.0300 N   0  0  0  0  0  0  0  0  0  0  0  0
   61.6560   31.0200   49.2920 C   0  0  0  0  0  0  0  0  0  0  0  0
   60.8740   30.7980   50.2650 O   0  0  0  0  0  0  0  0  0  0  0  0
   62.9130   31.7420   49.4380 C   0  0  0  0  0  0  0  0  0  0  0  0
   63.3190   32.7580   48.6210 C   0  0  0  0  0  0  0  0  0  0  0  0
   64.5140   33.3890   48.8240 C   0  0  0  0  0  0  0  0  0  0  0  0
   65.3390   33.0040   49.8680 C   0  0  0  0  0  0  0  0  0  0  0  0
   64.9630   31.9790   50.7190 C   0  0  0  0  0  0  0  0  0  0  0  0
   63.7430   31.3520   50.4950 C   0  0  0  0  0  0  0  0  0  0  0  0
   59.2690   33.9680   45.5090 C   0  0  0  0  0  0  0  0  0  0  0  0
   60.0180   34.3180   46.6360 C   0  0  0  0  0  0  0  0  0  0  0  0
   59.9613   34.0279   50.0066 H   0  0  0  0  0  0  0  0  0  0  0  0
   61.4561   33.7480   49.0506 H   0  0  0  0  0  0  0  0  0  0  0  0
   60.6803   35.3681   49.0506 H   0  0  0  0  0  0  0  0  0  0  0  0
   58.2709   32.7415   49.0704 H   0  0  0  0  0  0  0  0  0  0  0  0
   56.8975   32.0843   47.1080 H   0  0  0  0  0  0  0  0  0  0  0  0
   56.5338   33.5682   44.4937 H   0  0  0  0  0  0  0  0  0  0  0  0
   58.0448   32.5897   43.8018 H   0  0  0  0  0  0  0  0  0  0  0  0
   56.0100   30.2630   42.2660 H   0  0  0  0  0  0  0  0  0  0  0  0
   56.8530   27.9480   42.1790 H   0  0  0  0  0  0  0  0  0  0  0  0
   58.1338   27.4539   44.4324 H   0  0  0  0  0  0  0  0  0  0  0  0
   57.5120   29.5860   47.0490 H   0  0  0  0  0  0  0  0  0  0  0  0
   59.2339   30.3681   48.5082 H   0  0  0  0  0  0  0  0  0  0  0  0
   61.1554   28.2028   48.6885 H   0  0  0  0  0  0  0  0  0  0  0  0
   59.5004   28.4155   49.4384 H   0  0  0  0  0  0  0  0  0  0  0  0
   57.4853   27.5993   48.1627 H   0  0  0  0  0  0  0  0  0  0  0  0
   56.6695   25.7872   46.6477 H   0  0  0  0  0  0  0  0  0  0  0  0
   58.3186   24.5480   45.2874 H   0  0  0  0  0  0  0  0  0  0  0  0
   60.7403   25.0743   45.3996 H   0  0  0  0  0  0  0  0  0  0  0  0
   61.5054   26.8785   46.9126 H   0  0  0  0  0  0  0  0  0  0  0  0
   61.7990   30.6450   47.1640 H   0  0  0  0  0  0  0  0  0  0  0  0
   62.6746   33.0732   47.7871 H   0  0  0  0  0  0  0  0  0  0  0  0
   64.8222   34.2063   48.1554 H   0  0  0  0  0  0  0  0  0  0  0  0
   66.3000   33.5166   50.0219 H   0  0  0  0  0  0  0  0  0  0  0  0
   65.6127   31.6689   51.5507 H   0  0  0  0  0  0  0  0  0  0  0  0
   63.4245   30.5355   51.1597 H   0  0  0  0  0  0  0  0  0  0  0  0
   59.5625   34.3216   44.5096 H   0  0  0  0  0  0  0  0  0  0  0  0
   60.9085   34.9520   46.5131 H   0  0  0  0  0  0  0  0  0  0  0  0
  1  2  1  0
  2  3  2  0
  3  4  1  0
  4  5  2  0
  5  6  1  0
  6  7  1  0
  7  8  2  0
  8  9  1  0
  9 10  1  0
 10 11  1  0
 11 12  2  0
 12 13  1  0
 13 14  1  0
 14 15  2  0
 14 16  1  0
 16 17  1  0
 17 18  1  0
 18 19  2  0
 19 20  1  0
 20 21  2  0
 21 22  1  0
 22 23  2  0
 16 24  1  0
 24 25  1  0
 25 26  2  0
 25 27  1  0
 27 28  2  0
 28 29  1  0
 29 30  2  0
 30 31  1  0
 31 32  2  0
  5 33  1  0
 33 34  2  0
 34  2  1  0
 12  8  1  0
 23 18  1  0
 32 27  1  0
  1 35  1  0
  1 36  1  0
  1 37  1  0
  3 38  1  0
  4 39  1  0
  6 40  1  0
  6 41  1  0
  9 42  1  0
 10 43  1  0
 11 44  1  0
 13 45  1  0
 16 46  1  1
 17 47  1  0
 17 48  1  0
 19 49  1  0
 20 50  1  0
 21 51  1  0
 22 52  1  0
 23 53  1  0
 24 54  1  0
 28 55  1  0
 29 56  1  0
 30 57  1  0
 31 58  1  0
 32 59  1  0
 33 60  1  0
 34 61  1  0
M  END
>  <smiles>  (37) 
Cc1ccc(CN=c2[nH][nH]cc2NC(=O)C(Cc2ccccc2)NC(=O)c2ccccc2)cc1

>  <score_type>  (37) 
oracle

>  <origin>  (37) 
adg

>  <m_score__min__energy>  (37) 
-9.2599999999999998

>  <m_primary>  (37) 
energy

$$$$
38:0
     RDKit          3D

 50 52  0  0  0  0  0  0  0  0999 V2000
   58.7620   34.2720   44.7890 C   0  0  0  0  0  0  0  0  0  0  0  0
   58.7820   33.9700   46.5450 S   0  0  0  0  0  0  0  0  0  0  0  0
   57.4890   33.3130   46.9380 O   0  0  0  0  0  0  0  0  0  0  0  0
   58.9110   35.2770   47.2790 O   0  0  0  0  0  0  0  0  0  0  0  0
   60.0970   32.9160   46.9690 N   0  0  0  0  0  0  0  0  0  0  0  0
   60.0340   32.5800   48.3900 C   0  0  0  0  0  0  0  0  0  0  0  0
   60.0420   31.0860   48.5430 C   0  0  0  0  0  0  0  0  0  0  0  0
   61.0870   30.4500   49.2320 C   0  0  0  0  0  0  0  0  0  0  0  0
   61.1150   29.0580   49.3380 C   0  0  0  0  0  0  0  0  0  0  0  0
   60.1070   28.2890   48.7500 C   0  0  0  0  0  0  0  0  0  0  0  0
   59.0600   28.9100   48.0530 C   0  0  0  0  0  0  0  0  0  0  0  0
   58.0110   28.0790   47.3670 C   0  0  0  0  0  0  0  0  0  0  0  0
   58.2810   28.0260   45.9270 N   0  0  0  0  0  0  0  0  0  0  0  0
   58.9670   26.8720   45.3370 C   0  0  0  0  0  0  0  0  0  0  0  0
   58.0960   25.6510   45.4460 C   0  0  0  0  0  0  0  0  0  0  0  0
   57.3140   25.2350   44.3550 C   0  0  0  0  0  0  0  0  0  0  0  0
   56.5500   24.0680   44.4430 C   0  0  0  0  0  0  0  0  0  0  0  0
   56.5680   23.3040   45.6130 C   0  0  0  0  0  0  0  0  0  0  0  0
   57.3560   23.7020   46.6960 C   0  0  0  0  0  0  0  0  0  0  0  0
   57.3830   22.9360   47.8550 O   0  0  0  0  0  0  0  0  0  0  0  0
   58.1230   24.8700   46.6130 C   0  0  0  0  0  0  0  0  0  0  0  0
   57.7590   29.0550   45.0720 C   0  0  0  0  0  0  0  0  0  0  0  0
   58.6110   30.0510   44.5710 C   0  0  0  0  0  0  0  0  0  0  0  0
   58.1070   31.0560   43.7400 C   0  0  0  0  0  0  0  0  0  0  0  0
   56.7490   31.0720   43.4070 C   0  0  0  0  0  0  0  0  0  0  0  0
   55.8930   30.0860   43.9070 C   0  0  0  0  0  0  0  0  0  0  0  0
   56.3920   29.0800   44.7400 C   0  0  0  0  0  0  0  0  0  0  0  0
   55.5270   28.1170   45.2490 O   0  0  0  0  0  0  0  0  0  0  0  0
   59.0410   30.3090   47.9390 C   0  0  0  0  0  0  0  0  0  0  0  0
   58.6903   35.3539   44.6038 H   0  0  0  0  0  0  0  0  0  0  0  0
   59.6878   33.8836   44.3396 H   0  0  0  0  0  0  0  0  0  0  0  0
   57.8955   33.7649   44.3396 H   0  0  0  0  0  0  0  0  0  0  0  0
   60.9046   33.0080   48.9086 H   0  0  0  0  0  0  0  0  0  0  0  0
   59.1128   32.9922   48.8276 H   0  0  0  0  0  0  0  0  0  0  0  0
   61.8867   31.0506   49.6900 H   0  0  0  0  0  0  0  0  0  0  0  0
   61.9322   28.5656   49.8855 H   0  0  0  0  0  0  0  0  0  0  0  0
   60.1348   27.1926   48.8341 H   0  0  0  0  0  0  0  0  0  0  0  0
   58.0263   27.0592   47.7790 H   0  0  0  0  0  0  0  0  0  0  0  0
   57.0227   28.5322   47.5342 H   0  0  0  0  0  0  0  0  0  0  0  0
   59.1789   27.0759   44.2770 H   0  0  0  0  0  0  0  0  0  0  0  0
   59.9094   26.6951   45.8761 H   0  0  0  0  0  0  0  0  0  0  0  0
   57.3032   25.8293   43.4295 H   0  0  0  0  0  0  0  0  0  0  0  0
   55.9332   23.7502   43.5895 H   0  0  0  0  0  0  0  0  0  0  0  0
   55.9615   22.3889   45.6814 H   0  0  0  0  0  0  0  0  0  0  0  0
   58.7486   25.1770   47.4641 H   0  0  0  0  0  0  0  0  0  0  0  0
   59.6793   30.0410   44.8330 H   0  0  0  0  0  0  0  0  0  0  0  0
   58.7786   31.8341   43.3482 H   0  0  0  0  0  0  0  0  0  0  0  0
   56.3536   31.8614   42.7508 H   0  0  0  0  0  0  0  0  0  0  0  0
   54.8249   30.1018   43.6445 H   0  0  0  0  0  0  0  0  0  0  0  0
   58.2360   30.7999   47.3724 H   0  0  0  0  0  0  0  0  0  0  0  0
  1  2  1  0
  2  3  2  0
  2  4  2  0
  2  5  1  0
  5  6  1  0
  6  7  1  0
  7  8  2  0
  8  9  1  0
  9 10  2  0
 10 11  1  0
 11 12  1  0
 12 13  1  0
 13 14  1  0
 14 15  1  0
 15 16  2  0
 16 17  1  0
 17 18  2  0
 18 19  1  0
 19 20  1  0
 19 21  2  0
 13 22  1  0
 22 23  2  0
 23 24  1  0
 24 25  2  0
 25 26  1  0
 26 27  2  0
 27 28  1  0
 11 29  2  0
 29  7  1  0
 21 15  1  0
 27 22  1  0
  1 30  1  0
  1 31  1  0
  1 32  1  0
  6 33  1  0
  6 34  1  0
  8 35  1  0
  9 36  1  0
 10 37  1  0
 12 38  1  0
 12 39  1  0
 14 40  1  0
 14 41  1  0
 16 42  1  0
 17 43  1  0
 18 44  1  0
 21 45  1  0
 23 46  1  0
 24 47  1  0
 25 48  1  0
 26 49  1  0
 29 50  1  0
M  CHG  3   5  -1  20  -1  28  -1
M  END
>  <UniqueID>  (38) 
34

>  <SMILES>  (38) 
CS(=O)(=O)[N-]Cc1cccc(CN(Cc2cccc([O-])c2)c2ccccc2[O-])c1

>  <Energy>  (38) 
46.3074656119063

>  <Genealogy>  (38) 
CS(=O)(=O)[N-]Cc1cccc(CN(Cc2cccc([O-])c2)c2ccccc2[O-])c1 (protonated)
CS(=O)(=O)[N-]Cc1cccc(CN(Cc2cccc([O-])c2)c2ccccc2[O-])c1 (3D coordinates assigned)
CS(=O)(=O)[N-]Cc1cccc(CN(Cc2cccc([O-])c2)c2ccccc2[O-])c1 (optimized conformer: 46.3074656119063 kcal/mol)

>  <smiles>  (38) 
CS(=O)(=O)NCc1cccc(CN(Cc2cccc(O)c2)c2ccccc2O)c1

>  <score_type>  (38) 
oracle

>  <origin>  (38) 
adg

>  <m_score__min__energy>  (38) 
-14.24

>  <m_primary>  (38) 
energy

$$$$
39:0
     RDKit          3D

 57 60  0  0  0  0  0  0  0  0999 V2000
   60.7610   28.8150   47.7240 O   0  0  0  0  0  0  0  0  0  0  0  0
   59.6660   28.3300   48.1210 C   0  0  0  0  0  0  0  0  0  0  0  0
   58.6670   27.8430   47.1130 C   0  0  0  0  0  0  0  0  0  0  0  0
   58.7070   28.6910   45.8720 C   0  0  0  0  0  0  0  0  0  0  0  0
   59.8430   29.2300   45.3870 N   0  0  0  0  0  0  0  0  0  0  0  0
   59.5170   29.9490   44.3520 O   0  0  0  0  0  0  0  0  0  0  0  0
   58.2210   29.9260   44.1440 C   0  0  0  0  0  0  0  0  0  0  0  0
   57.6140   30.6610   43.1140 O   0  0  0  0  0  0  0  0  0  0  0  0
   57.7480   32.0710   42.9220 C   0  0  0  0  0  0  0  0  0  0  0  0
   57.8220   32.7920   44.2440 C   0  0  0  0  0  0  0  0  0  0  0  0
   56.9650   32.4410   45.3010 C   0  0  0  0  0  0  0  0  0  0  0  0
   57.0440   33.1120   46.5240 C   0  0  0  0  0  0  0  0  0  0  0  0
   57.9750   34.1400   46.7000 C   0  0  0  0  0  0  0  0  0  0  0  0
   58.8330   34.4960   45.6540 C   0  0  0  0  0  0  0  0  0  0  0  0
   59.9980   35.7890   45.8760 Cl  0  0  0  0  0  0  0  0  0  0  0  0
   58.7600   33.8180   44.4320 C   0  0  0  0  0  0  0  0  0  0  0  0
   57.6290   29.1120   45.1050 C   0  0  0  0  0  0  0  0  0  0  0  0
   56.2410   28.6270   45.1970 C   0  0  0  0  0  0  0  0  0  0  0  0
   56.0000   27.4730   45.6440 O   0  0  0  0  0  0  0  0  0  0  0  0
   55.1840   29.4690   44.8920 O   0  0  0  0  0  0  0  0  0  0  0  0
   59.3540   28.2730   49.4840 O   0  0  0  0  0  0  0  0  0  0  0  0
   60.2180   28.5720   50.5470 C   0  0  0  0  0  0  0  0  0  0  0  0
   61.2820   27.7160   50.8840 C   0  0  0  0  0  0  0  0  0  0  0  0
   62.1220   28.0210   51.9580 C   0  0  0  0  0  0  0  0  0  0  0  0
   61.9000   29.1690   52.7150 C   0  0  0  0  0  0  0  0  0  0  0  0
   60.8360   30.0180   52.4040 C   0  0  0  0  0  0  0  0  0  0  0  0
   59.9840   29.7350   51.3160 C   0  0  0  0  0  0  0  0  0  0  0  0
   58.8430   30.6420   50.9940 C   0  0  0  0  0  0  0  0  0  0  0  0
   57.7810   30.1550   50.5150 O   0  0  0  0  0  0  0  0  0  0  0  0
   58.9280   32.1030   51.2170 C   0  0  0  0  0  0  0  0  0  0  0  0
   59.0970   32.9630   50.2010 C   0  0  0  0  0  0  0  0  0  0  0  0
   60.1500   32.8200   49.1600 C   0  0  0  0  0  0  0  0  0  0  0  0
   61.2970   33.6410   49.1450 C   0  0  0  0  0  0  0  0  0  0  0  0
   62.2520   33.5060   48.1350 C   0  0  0  0  0  0  0  0  0  0  0  0
   62.0770   32.5610   47.1240 C   0  0  0  0  0  0  0  0  0  0  0  0
   60.9400   31.7520   47.1150 C   0  0  0  0  0  0  0  0  0  0  0  0
   59.9740   31.8760   48.1250 C   0  0  0  0  0  0  0  0  0  0  0  0
   58.8430   31.0580   48.1040 O   0  0  0  0  0  0  0  0  0  0  0  0
   58.9013   26.8018   46.8465 H   0  0  0  0  0  0  0  0  0  0  0  0
   57.6608   27.9074   47.5529 H   0  0  0  0  0  0  0  0  0  0  0  0
   58.6671   32.2706   42.3516 H   0  0  0  0  0  0  0  0  0  0  0  0
   56.8669   32.4351   42.3732 H   0  0  0  0  0  0  0  0  0  0  0  0
   56.2291   31.6348   45.1650 H   0  0  0  0  0  0  0  0  0  0  0  0
   56.3730   32.8311   47.3492 H   0  0  0  0  0  0  0  0  0  0  0  0
   58.0329   34.6697   47.6623 H   0  0  0  0  0  0  0  0  0  0  0  0
   59.4424   34.0913   43.6137 H   0  0  0  0  0  0  0  0  0  0  0  0
   61.4538   26.8008   50.2984 H   0  0  0  0  0  0  0  0  0  0  0  0
   62.9602   27.3533   52.2062 H   0  0  0  0  0  0  0  0  0  0  0  0
   62.5639   29.4071   53.5591 H   0  0  0  0  0  0  0  0  0  0  0  0
   60.6604   30.9166   53.0136 H   0  0  0  0  0  0  0  0  0  0  0  0
   58.8506   32.4938   52.2423 H   0  0  0  0  0  0  0  0  0  0  0  0
   58.4167   33.8248   50.1339 H   0  0  0  0  0  0  0  0  0  0  0  0
   61.4403   34.3932   49.9347 H   0  0  0  0  0  0  0  0  0  0  0  0
   63.1457   34.1474   48.1367 H   0  0  0  0  0  0  0  0  0  0  0  0
   62.8350   32.4535   46.3341 H   0  0  0  0  0  0  0  0  0  0  0  0
   60.8004   31.0133   46.3120 H   0  0  0  0  0  0  0  0  0  0  0  0
   58.8100   30.1820   48.6150 H   0  0  0  0  0  0  0  0  0  0  0  0
  1  2  2  0
  2  3  1  0
  3  4  1  0
  4  5  2  0
  5  6  1  0
  6  7  1  0
  7  8  1  0
  8  9  1  0
  9 10  1  0
 10 11  2  0
 11 12  1  0
 12 13  2  0
 13 14  1  0
 14 15  1  0
 14 16  2  0
  7 17  2  0
 17 18  1  0
 18 19  2  0
 18 20  1  0
  2 21  1  0
 21 22  1  0
 22 23  2  0
 23 24  1  0
 24 25  2  0
 25 26  1  0
 26 27  2  0
 27 28  1  0
 28 29  2  0
 28 30  1  0
 30 31  2  3
 31 32  1  0
 32 33  2  0
 33 34  1  0
 34 35  2  0
 35 36  1  0
 36 37  2  0
 37 38  1  0
 17  4  1  0
 27 22  1  0
 37 32  1  0
 16 10  1  0
  3 39  1  0
  3 40  1  0
  9 41  1  0
  9 42  1  0
 11 43  1  0
 12 44  1  0
 13 45  1  0
 16 46  1  0
 23 47  1  0
 24 48  1  0
 25 49  1  0
 26 50  1  0
 30 51  1  0
 31 52  1  0
 33 53  1  0
 34 54  1  0
 35 55  1  0
 36 56  1  0
 38 57  1  0
M  CHG  1  20  -1
M  END
>  <UniqueID>  (39) 
35

>  <SMILES>  (39) 
O=C(Cc1noc(OCc2cccc(Cl)c2)c1C(=O)[O-])Oc1ccccc1C(=O)C=Cc1ccccc1O

>  <Energy>  (39) 
104.1762941503588

>  <Genealogy>  (39) 
O=C(Cc1noc(OCc2cccc(Cl)c2)c1C(=O)[O-])Oc1ccccc1C(=O)C=Cc1ccccc1O (protonated)
O=C(Cc1noc(OCc2cccc(Cl)c2)c1C(=O)[O-])Oc1ccccc1C(=O)C=Cc1ccccc1O (3D coordinates assigned)
O=C(Cc1noc(OCc2cccc(Cl)c2)c1C(=O)[O-])Oc1ccccc1C(=O)C=Cc1ccccc1O (optimized conformer: 104.1762941503588 kcal/mol)

>  <smiles>  (39) 
O=C(Cc1noc(OCc2cccc(Cl)c2)c1C(=O)O)Oc1ccccc1C(=O)C=Cc1ccccc1O

>  <score_type>  (39) 
oracle

>  <origin>  (39) 
adg

>  <m_score__min__energy>  (39) 
-11.890000000000001

>  <m_primary>  (39) 
energy

$$$$
40:0
     RDKit          3D

 42 44  0  0  0  0  0  0  0  0999 V2000
   60.5700   26.5800   47.2400 C   0  0  0  0  0  0  0  0  0  0  0  0
   59.7700   27.5210   47.7510 C   0  0  0  0  0  0  0  0  0  0  0  0
   59.8570   28.9510   47.3110 C   0  0  0  0  0  0  0  0  0  0  0  0
   60.4390   29.0460   45.5830 S   0  0  0  0  0  0  0  0  0  0  0  0
   58.8290   29.5200   44.9280 C   0  0  0  0  0  0  0  0  0  0  0  0
   58.4810   30.8780   44.9510 C   0  0  0  0  0  0  0  0  0  0  0  0
   57.2310   31.2970   44.4920 C   0  0  0  0  0  0  0  0  0  0  0  0
   56.3200   30.3630   43.9990 C   0  0  0  0  0  0  0  0  0  0  0  0
   56.6620   29.0100   43.9480 C   0  0  0  0  0  0  0  0  0  0  0  0
   57.9230   28.5720   44.3920 C   0  0  0  0  0  0  0  0  0  0  0  0
   58.2440   27.1010   44.2960 C   0  0  0  0  0  0  0  0  0  0  0  0
   57.9030   26.4380   45.5480 N   0  0  0  0  0  0  0  0  0  0  0  0
   56.5800   26.0260   45.9040 C   0  0  0  0  0  0  0  0  0  0  0  0
   55.8950   26.7160   46.7070 O   0  0  0  0  0  0  0  0  0  0  0  0
   56.0330   24.7570   45.3750 C   0  0  0  0  0  0  0  0  0  0  0  0
   54.6350   24.6120   45.2640 C   0  0  0  0  0  0  0  0  0  0  0  0
   53.7930   25.6660   45.6320 O   0  0  0  0  0  0  0  0  0  0  0  0
   54.0980   23.4010   44.8020 C   0  0  0  0  0  0  0  0  0  0  0  0
   52.8520   23.2510   44.7020 O   0  0  0  0  0  0  0  0  0  0  0  0
   54.9190   22.3760   44.4640 N   0  0  0  0  0  0  0  0  0  0  0  0
   56.2690   22.4750   44.5440 C   0  0  0  0  0  0  0  0  0  0  0  0
   57.0610   21.3850   44.1640 C   0  0  0  0  0  0  0  0  0  0  0  0
   58.4530   21.4790   44.2070 C   0  0  0  0  0  0  0  0  0  0  0  0
   59.0610   22.6650   44.6190 C   0  0  0  0  0  0  0  0  0  0  0  0
   58.2830   23.7600   45.0040 C   0  0  0  0  0  0  0  0  0  0  0  0
   56.8720   23.6770   44.9920 C   0  0  0  0  0  0  0  0  0  0  0  0
   60.4827   25.5384   47.5828 H   0  0  0  0  0  0  0  0  0  0  0  0
   61.3156   26.8472   46.4767 H   0  0  0  0  0  0  0  0  0  0  0  0
   59.0292   27.2387   48.5136 H   0  0  0  0  0  0  0  0  0  0  0  0
   58.8624   29.4150   47.3853 H   0  0  0  0  0  0  0  0  0  0  0  0
   60.5693   29.4827   47.9589 H   0  0  0  0  0  0  0  0  0  0  0  0
   59.1984   31.6189   45.3336 H   0  0  0  0  0  0  0  0  0  0  0  0
   56.9645   32.3639   44.5191 H   0  0  0  0  0  0  0  0  0  0  0  0
   55.3304   30.6927   43.6497 H   0  0  0  0  0  0  0  0  0  0  0  0
   55.9384   28.2797   43.5569 H   0  0  0  0  0  0  0  0  0  0  0  0
   57.6634   26.6534   43.4759 H   0  0  0  0  0  0  0  0  0  0  0  0
   59.3192   26.9762   44.1004 H   0  0  0  0  0  0  0  0  0  0  0  0
   54.0240   26.3080   46.3810 H   0  0  0  0  0  0  0  0  0  0  0  0
   56.5847   20.4513   43.8304 H   0  0  0  0  0  0  0  0  0  0  0  0
   59.0712   20.6170   43.9157 H   0  0  0  0  0  0  0  0  0  0  0  0
   60.1583   22.7386   44.6409 H   0  0  0  0  0  0  0  0  0  0  0  0
   58.7723   24.6936   45.3188 H   0  0  0  0  0  0  0  0  0  0  0  0
  1  2  2  0
  2  3  1  0
  3  4  1  0
  4  5  1  0
  5  6  2  0
  6  7  1  0
  7  8  2  0
  8  9  1  0
  9 10  2  0
 10 11  1  0
 11 12  1  0
 12 13  1  0
 13 14  2  0
 13 15  1  0
 15 16  2  0
 16 17  1  0
 16 18  1  0
 18 19  2  0
 18 20  1  0
 20 21  1  0
 21 22  2  0
 22 23  1  0
 23 24  2  0
 24 25  1  0
 25 26  2  0
 10  5  1  0
 26 15  1  0
 26 21  1  0
  1 27  1  0
  1 28  1  0
  2 29  1  0
  3 30  1  0
  3 31  1  0
  6 32  1  0
  7 33  1  0
  8 34  1  0
  9 35  1  0
 11 36  1  0
 11 37  1  0
 17 38  1  0
 22 39  1  0
 23 40  1  0
 24 41  1  0
 25 42  1  0
M  CHG  2  12  -1  20  -1
M  END
>  <UniqueID>  (40) 
36

>  <SMILES>  (40) 
C=CCSc1ccccc1C[N-]C(=O)c1c(O)c(=O)[n-]c2ccccc12

>  <Energy>  (40) 
48.28141907373724

>  <Genealogy>  (40) 
C=CCSc1ccccc1C[N-]C(=O)c1c(O)c(=O)[n-]c2ccccc12 (protonated)
C=CCSc1ccccc1C[N-]C(=O)c1c(O)c(=O)[n-]c2ccccc12 (3D coordinates assigned)
C=CCSc1ccccc1C[N-]C(=O)c1c(O)c(=O)[n-]c2ccccc12 (optimized conformer: 48.28141907373724 kcal/mol)

>  <smiles>  (40) 
C=CCSc1ccccc1CNC(=O)c1c(O)c(=O)[nH]c2ccccc12

>  <score_type>  (40) 
oracle

>  <origin>  (40) 
adg

>  <m_score__min__energy>  (40) 
-11.949999999999999

>  <m_primary>  (40) 
energy

$$$$
41:0
     RDKit          3D

 63 66  0  0  0  0  0  0  0  0999 V2000
   60.1850   28.9930   48.5410 H   0  0  0  0  0  0  0  0  0  0  0  0
   59.7750   28.0790   48.3830 O   0  0  0  0  0  0  0  0  0  0  0  0
   58.9480   27.8270   47.2880 C   0  0  0  0  0  0  0  0  0  0  0  0
   57.8590   26.9520   47.4200 C   0  0  0  0  0  0  0  0  0  0  0  0
   57.6734   26.4531   48.3826 H   0  0  0  0  0  0  0  0  0  0  0  0
   57.0030   26.7080   46.3310 C   0  0  0  0  0  0  0  0  0  0  0  0
   55.9070   25.8370   46.4130 O   0  0  0  0  0  0  0  0  0  0  0  0
   56.0100   24.4240   46.5630 C   0  0  0  0  0  0  0  0  0  0  0  0
   56.9384   24.0705   46.0907 H   0  0  0  0  0  0  0  0  0  0  0  0
   56.0254   24.1658   47.6321 H   0  0  0  0  0  0  0  0  0  0  0  0
   54.8090   23.7590   45.8910 C   0  0  0  0  0  0  0  0  0  0  0  0
   54.2884   23.1316   46.6295 H   0  0  0  0  0  0  0  0  0  0  0  0
   54.1452   24.5494   45.5108 H   0  0  0  0  0  0  0  0  0  0  0  0
   55.2250   22.9130   44.7490 N   0  0  0  0  0  0  0  0  0  0  0  0
   55.8900   21.6700   45.2090 C   0  0  0  0  0  0  0  0  0  0  0  0
   56.5562   21.9126   46.0500 H   0  0  0  0  0  0  0  0  0  0  0  0
   55.1100   20.9578   45.5161 H   0  0  0  0  0  0  0  0  0  0  0  0
   56.7200   21.0180   44.0870 C   0  0  0  0  0  0  0  0  0  0  0  0
   57.7751   21.3066   44.2032 H   0  0  0  0  0  0  0  0  0  0  0  0
   56.6152   19.9252   44.1568 H   0  0  0  0  0  0  0  0  0  0  0  0
   56.2600   21.4400   42.8210 O   0  0  0  0  0  0  0  0  0  0  0  0
   56.5270   22.8200   42.6410 C   0  0  0  0  0  0  0  0  0  0  0  0
   57.6049   22.9488   42.4633 H   0  0  0  0  0  0  0  0  0  0  0  0
   55.9273   23.1636   41.7852 H   0  0  0  0  0  0  0  0  0  0  0  0
   56.1230   23.6750   43.8640 C   0  0  0  0  0  0  0  0  0  0  0  0
   57.0272   23.9588   44.4225 H   0  0  0  0  0  0  0  0  0  0  0  0
   55.5979   24.5753   43.5123 H   0  0  0  0  0  0  0  0  0  0  0  0
   57.2430   27.3580   45.1160 C   0  0  0  0  0  0  0  0  0  0  0  0
   56.5690   27.1866   44.2637 H   0  0  0  0  0  0  0  0  0  0  0  0
   58.3310   28.2230   44.9750 C   0  0  0  0  0  0  0  0  0  0  0  0
   58.5065   28.7279   44.0136 H   0  0  0  0  0  0  0  0  0  0  0  0
   59.2010   28.4520   46.0510 C   0  0  0  0  0  0  0  0  0  0  0  0
   60.3490   29.4090   45.8820 C   0  0  0  0  0  0  0  0  0  0  0  0
   60.2865   29.8858   44.8927 H   0  0  0  0  0  0  0  0  0  0  0  0
   61.2990   28.8608   45.9650 H   0  0  0  0  0  0  0  0  0  0  0  0
   60.2850   30.4340   46.9220 N   0  0  0  0  0  0  0  0  0  0  0  0
   59.0800   30.9590   47.4920 C   0  0  0  0  0  0  0  0  0  0  0  0
   58.7330   30.5800   48.6410 O   0  0  0  0  0  0  0  0  0  0  0  0
   58.2420   31.8750   46.7780 N   0  0  0  0  0  0  0  0  0  0  0  0
   57.8880   31.7350   45.5340 C   0  0  0  0  0  0  0  0  0  0  0  0
   56.9430   30.8170   45.1790 N   0  0  0  0  0  0  0  0  0  0  0  0
   56.5630   30.6340   43.8880 C   0  0  0  0  0  0  0  0  0  0  0  0
   55.7927   29.8883   43.6419 H   0  0  0  0  0  0  0  0  0  0  0  0
   57.1490   31.3910   42.8750 C   0  0  0  0  0  0  0  0  0  0  0  0
   56.8494   31.2430   41.8270 H   0  0  0  0  0  0  0  0  0  0  0  0
   58.1190   32.3380   43.2030 C   0  0  0  0  0  0  0  0  0  0  0  0
   58.5901   32.9383   42.4107 H   0  0  0  0  0  0  0  0  0  0  0  0
   58.4960   32.5270   44.5450 C   0  0  0  0  0  0  0  0  0  0  0  0
   59.4440   33.4910   44.9290 O   0  0  0  0  0  0  0  0  0  0  0  0
   59.3460   34.2940   46.1010 C   0  0  0  0  0  0  0  0  0  0  0  0
   59.2869   35.3548   45.8160 H   0  0  0  0  0  0  0  0  0  0  0  0
   58.4420   34.0173   46.6634 H   0  0  0  0  0  0  0  0  0  0  0  0
   60.5600   34.0710   46.9570 C   0  0  0  0  0  0  0  0  0  0  0  0
   61.7750   33.6770   46.3710 C   0  0  0  0  0  0  0  0  0  0  0  0
   61.8400   33.5368   45.2819 H   0  0  0  0  0  0  0  0  0  0  0  0
   62.9020   33.4630   47.1720 C   0  0  0  0  0  0  0  0  0  0  0  0
   63.8552   33.1685   46.7086 H   0  0  0  0  0  0  0  0  0  0  0  0
   62.8220   33.6220   48.5600 C   0  0  0  0  0  0  0  0  0  0  0  0
   63.7115   33.4532   49.1847 H   0  0  0  0  0  0  0  0  0  0  0  0
   61.6130   33.9950   49.1530 C   0  0  0  0  0  0  0  0  0  0  0  0
   61.5509   34.1190   50.2442 H   0  0  0  0  0  0  0  0  0  0  0  0
   60.4800   34.2110   48.3580 C   0  0  0  0  0  0  0  0  0  0  0  0
   59.3110   34.5590   48.9510 F   0  0  0  0  0  0  0  0  0  0  0  0
  1  2  1  0
  2  3  1  0
  3  4  2  0
  4  5  1  0
  4  6  1  0
  6  7  1  0
  7  8  1  0
  8  9  1  0
  8 10  1  0
  8 11  1  0
 11 12  1  0
 11 13  1  0
 11 14  1  0
 14 15  1  0
 15 16  1  0
 15 17  1  0
 15 18  1  0
 18 19  1  0
 18 20  1  0
 18 21  1  0
 21 22  1  0
 22 23  1  0
 22 24  1  0
 22 25  1  0
 25 26  1  0
 25 27  1  0
  6 28  2  0
 28 29  1  0
 28 30  1  0
 30 31  1  0
 30 32  2  0
 32 33  1  0
 33 34  1  0
 33 35  1  0
 33 36  1  0
 36 37  1  0
 37 38  2  0
 37 39  1  0
 39 40  2  0
 40 41  1  0
 41 42  1  0
 42 43  1  0
 42 44  2  0
 44 45  1  0
 44 46  1  0
 46 47  1  0
 46 48  2  0
 48 49  1  0
 49 50  1  0
 50 51  1  0
 50 52  1  0
 50 53  1  0
 53 54  2  0
 54 55  1  0
 54 56  1  0
 56 57  1  0
 56 58  2  0
 58 59  1  0
 58 60  1  0
 60 61  1  0
 60 62  2  0
 62 63  1  0
 32  3  1  0
 48 40  1  0
 62 53  1  0
 25 14  1  0
M  CHG  2  36  -1  41  -1
M  END
>  <UniqueID>  (41) 
37

>  <SMILES>  (41) 
O=C(/N=c1\[n-]cccc1OCc1ccccc1F)[N-]Cc1ccc(OCCN2CCOCC2)cc1O

>  <Energy>  (41) 
82.20019645002809

>  <Genealogy>  (41) 
O=C(N=c1[n-]cccc1OCc1ccccc1F)[N-]Cc1ccc(OCCN2CCOCC2)cc1O (protonated)
O=C(/N=c1\[n-]cccc1OCc1ccccc1F)[N-]Cc1ccc(OCCN2CCOCC2)cc1O (cis-trans isomerization)
O=C(/N=c1\[n-]cccc1OCc1ccccc1F)[N-]Cc1ccc(OCCN2CCOCC2)cc1O (3D coordinates assigned)
O=C(/N=c1\[n-]cccc1OCc1ccccc1F)[N-]Cc1ccc(OCCN2CCOCC2)cc1O (nonaromatic ring conformer: 82.20019645002809 kcal/mol)

>  <smiles>  (41) 
O=C(N=c1[nH]cccc1OCc1ccccc1F)NCc1ccc(OCCN2CCOCC2)cc1O

>  <score_type>  (41) 
oracle

>  <origin>  (41) 
adg

>  <m_score__min__energy>  (41) 
-11.02

>  <m_primary>  (41) 
energy

$$$$
42:0
     RDKit          3D

 49 51  0  0  0  0  0  0  0  0999 V2000
   58.5469   29.9181   43.6828 H   0  0  0  0  0  0  0  0  0  0  0  0
   57.9510   29.4780   44.4960 C   0  0  0  0  0  0  0  0  0  0  0  0
   56.5890   29.9830   44.7310 C   0  0  0  0  0  0  0  0  0  0  0  0
   55.6250   29.1840   44.8850 O   0  0  0  0  0  0  0  0  0  0  0  0
   56.3870   31.3980   44.8390 N   0  0  0  0  0  0  0  0  0  0  0  0
   57.3700   32.3800   45.2020 C   0  0  0  0  0  0  0  0  0  0  0  0
   57.9750   33.1300   44.1880 C   0  0  0  0  0  0  0  0  0  0  0  0
   57.7011   32.9503   43.1379 H   0  0  0  0  0  0  0  0  0  0  0  0
   58.9240   34.1050   44.5000 C   0  0  0  0  0  0  0  0  0  0  0  0
   59.4063   34.6782   43.6945 H   0  0  0  0  0  0  0  0  0  0  0  0
   59.2630   34.3550   45.8310 C   0  0  0  0  0  0  0  0  0  0  0  0
   60.0177   35.1185   46.0710 H   0  0  0  0  0  0  0  0  0  0  0  0
   58.6410   33.6320   46.8670 C   0  0  0  0  0  0  0  0  0  0  0  0
   58.9270   33.8550   48.2240 O   0  0  0  0  0  0  0  0  0  0  0  0
   60.1230   34.4510   48.7290 C   0  0  0  0  0  0  0  0  0  0  0  0
   60.2645   35.4336   48.2551 H   0  0  0  0  0  0  0  0  0  0  0  0
   60.0289   34.5624   49.8193 H   0  0  0  0  0  0  0  0  0  0  0  0
   61.3180   33.5830   48.4330 C   0  0  0  0  0  0  0  0  0  0  0  0
   61.6100   32.4850   49.2590 C   0  0  0  0  0  0  0  0  0  0  0  0
   60.9702   32.2672   50.1269 H   0  0  0  0  0  0  0  0  0  0  0  0
   62.7100   31.6680   48.9830 C   0  0  0  0  0  0  0  0  0  0  0  0
   62.9362   30.8116   49.6352 H   0  0  0  0  0  0  0  0  0  0  0  0
   63.5230   31.9390   47.8780 C   0  0  0  0  0  0  0  0  0  0  0  0
   64.3912   31.2984   47.6639 H   0  0  0  0  0  0  0  0  0  0  0  0
   63.2330   33.0230   47.0460 C   0  0  0  0  0  0  0  0  0  0  0  0
   63.8720   33.2338   46.1758 H   0  0  0  0  0  0  0  0  0  0  0  0
   62.1310   33.8410   47.3180 C   0  0  0  0  0  0  0  0  0  0  0  0
   61.9009   34.6889   46.6561 H   0  0  0  0  0  0  0  0  0  0  0  0
   57.6950   32.6510   46.5450 C   0  0  0  0  0  0  0  0  0  0  0  0
   57.2008   32.0864   47.3493 H   0  0  0  0  0  0  0  0  0  0  0  0
   58.4920   28.5000   45.2380 C   0  0  0  0  0  0  0  0  0  0  0  0
   58.5735   27.4972   44.7932 H   0  0  0  0  0  0  0  0  0  0  0  0
   58.9870   28.6920   46.6240 C   0  0  0  0  0  0  0  0  0  0  0  0
   59.8360   27.7240   47.1800 C   0  0  0  0  0  0  0  0  0  0  0  0
   60.1105   26.8364   46.5910 H   0  0  0  0  0  0  0  0  0  0  0  0
   60.3220   27.8730   48.4390 N   0  0  0  0  0  0  0  0  0  0  0  0
   60.0070   28.9490   49.2080 C   0  0  0  0  0  0  0  0  0  0  0  0
   60.4188   29.0370   50.2242 H   0  0  0  0  0  0  0  0  0  0  0  0
   59.1580   29.9470   48.7080 C   0  0  0  0  0  0  0  0  0  0  0  0
   58.8360   31.1180   49.4790 N   0  0  0  0  0  0  0  0  0  0  0  0
   58.9860   32.0530   49.0340 H   0  0  0  0  0  0  0  0  0  0  0  0
   58.1760   31.0820   50.7530 C   0  0  0  0  0  0  0  0  0  0  0  0
   57.7400   29.9990   51.2250 O   0  0  0  0  0  0  0  0  0  0  0  0
   58.0050   32.3440   51.5380 C   0  0  0  0  0  0  0  0  0  0  0  0
   58.0362   32.1140   52.6132 H   0  0  0  0  0  0  0  0  0  0  0  0
   58.8166   33.0435   51.2890 H   0  0  0  0  0  0  0  0  0  0  0  0
   57.0365   32.8023   51.2890 H   0  0  0  0  0  0  0  0  0  0  0  0
   58.6710   29.8230   47.4000 C   0  0  0  0  0  0  0  0  0  0  0  0
   58.0368   30.6157   46.9763 H   0  0  0  0  0  0  0  0  0  0  0  0
  1  2  1  0
  2  3  1  0
  3  4  2  0
  3  5  1  0
  5  6  1  0
  6  7  2  0
  7  8  1  0
  7  9  1  0
  9 10  1  0
  9 11  2  0
 11 12  1  0
 11 13  1  0
 13 14  1  0
 14 15  1  0
 15 16  1  0
 15 17  1  0
 15 18  1  0
 18 19  2  0
 19 20  1  0
 19 21  1  0
 21 22  1  0
 21 23  2  0
 23 24  1  0
 23 25  1  0
 25 26  1  0
 25 27  2  0
 27 28  1  0
 13 29  2  0
 29 30  1  0
  2 31  2  0
 31 32  1  0
 31 33  1  0
 33 34  2  0
 34 35  1  0
 34 36  1  0
 36 37  2  0
 37 38  1  0
 37 39  1  0
 39 40  1  0
 40 41  1  0
 40 42  1  0
 42 43  2  0
 42 44  1  0
 44 45  1  0
 44 46  1  0
 44 47  1  0
 39 48  2  0
 48 49  1  0
 29  6  1  0
 48 33  1  0
 27 18  1  0
M  CHG  1   5  -1
M  END
>  <UniqueID>  (42) 
38

>  <SMILES>  (42) 
CC(=O)Nc1cncc(/C=C/C(=O)[N-]c2cccc(OCc3ccccc3)c2)c1

>  <Energy>  (42) 
58.66423940481246

>  <Genealogy>  (42) 
CC(=O)Nc1cncc(C=CC(=O)[N-]c2cccc(OCc3ccccc3)c2)c1 (protonated)
CC(=O)Nc1cncc(/C=C/C(=O)[N-]c2cccc(OCc3ccccc3)c2)c1 (cis-trans isomerization)
CC(=O)Nc1cncc(/C=C/C(=O)[N-]c2cccc(OCc3ccccc3)c2)c1 (3D coordinates assigned)
CC(=O)Nc1cncc(/C=C/C(=O)[N-]c2cccc(OCc3ccccc3)c2)c1 (optimized conformer: 58.66423940481246 kcal/mol)

>  <smiles>  (42) 
CC(=O)Nc1cncc(C=CC(=O)Nc2cccc(OCc3ccccc3)c2)c1

>  <score_type>  (42) 
oracle

>  <origin>  (42) 
adg

>  <m_score__min__energy>  (42) 
-10.56

>  <m_primary>  (42) 
energy

$$$$
43:0
     RDKit          3D

 37 38  0  0  0  0  0  0  0  0999 V2000
   59.7920   29.5020   48.3680 N   0  0  0  0  0  0  0  0  0  0  0  0
   60.8560   30.6630   47.6550 S   0  0  0  0  0  0  0  0  0  0  0  0
   61.4410   30.0940   46.3920 O   0  0  0  0  0  0  0  0  0  0  0  0
   61.9770   30.9670   48.6090 O   0  0  0  0  0  0  0  0  0  0  0  0
   59.9720   32.1420   47.2920 C   0  0  0  0  0  0  0  0  0  0  0  0
   60.2200   33.3120   48.0220 C   0  0  0  0  0  0  0  0  0  0  0  0
   59.5180   34.4850   47.7300 C   0  0  0  0  0  0  0  0  0  0  0  0
   58.5690   34.4970   46.7030 C   0  0  0  0  0  0  0  0  0  0  0  0
   58.3160   33.3340   45.9610 C   0  0  0  0  0  0  0  0  0  0  0  0
   57.3180   33.3580   44.8290 C   0  0  0  0  0  0  0  0  0  0  0  0
   57.8610   32.7000   43.5480 C   0  0  0  0  0  0  0  0  0  0  0  0
   57.3040   31.2910   43.3080 C   0  0  0  0  0  0  0  0  0  0  0  0
   56.6110   30.8180   44.5010 N   0  0  0  0  0  0  0  0  0  0  0  0
   55.9420   29.5570   44.5740 C   0  0  0  0  0  0  0  0  0  0  0  0
   54.8170   29.4050   44.0240 O   0  0  0  0  0  0  0  0  0  0  0  0
   56.5560   28.4350   45.3060 C   0  0  0  0  0  0  0  0  0  0  0  0
   57.8970   28.4790   45.7130 C   0  0  0  0  0  0  0  0  0  0  0  0
   58.4150   27.3980   46.4280 C   0  0  0  0  0  0  0  0  0  0  0  0
   59.6130   27.4100   46.8140 O   0  0  0  0  0  0  0  0  0  0  0  0
   57.6250   26.3310   46.7090 N   0  0  0  0  0  0  0  0  0  0  0  0
   56.3280   26.2980   46.3050 C   0  0  0  0  0  0  0  0  0  0  0  0
   55.6110   25.3000   46.5740 O   0  0  0  0  0  0  0  0  0  0  0  0
   55.8050   27.3420   45.6120 N   0  0  0  0  0  0  0  0  0  0  0  0
   59.0270   32.1580   46.2580 C   0  0  0  0  0  0  0  0  0  0  0  0
   59.0290   29.3230   47.6770 H   0  0  0  0  0  0  0  0  0  0  0  0
   60.3310   28.6140   48.4640 H   0  0  0  0  0  0  0  0  0  0  0  0
   60.9693   33.3074   48.8273 H   0  0  0  0  0  0  0  0  0  0  0  0
   59.7124   35.3999   48.3089 H   0  0  0  0  0  0  0  0  0  0  0  0
   58.0188   35.4221   46.4762 H   0  0  0  0  0  0  0  0  0  0  0  0
   56.4129   32.8190   45.1456 H   0  0  0  0  0  0  0  0  0  0  0  0
   57.1022   34.4114   44.5970 H   0  0  0  0  0  0  0  0  0  0  0  0
   57.5923   33.3328   42.6893 H   0  0  0  0  0  0  0  0  0  0  0  0
   58.9504   32.6044   43.6669 H   0  0  0  0  0  0  0  0  0  0  0  0
   56.5993   31.3169   42.4637 H   0  0  0  0  0  0  0  0  0  0  0  0
   58.1357   30.6084   43.0794 H   0  0  0  0  0  0  0  0  0  0  0  0
   58.5279   29.3477   45.4737 H   0  0  0  0  0  0  0  0  0  0  0  0
   58.8400   31.2444   45.6746 H   0  0  0  0  0  0  0  0  0  0  0  0
  1  2  1  0
  2  3  2  0
  2  4  2  0
  2  5  1  0
  5  6  2  0
  6  7  1  0
  7  8  2  0
  8  9  1  0
  9 10  1  0
 10 11  1  0
 11 12  1  0
 12 13  1  0
 13 14  1  0
 14 15  2  0
 14 16  1  0
 16 17  2  0
 17 18  1  0
 18 19  2  0
 18 20  1  0
 20 21  1  0
 21 22  2  0
 21 23  1  0
  9 24  2  0
 24  5  1  0
 23 16  1  0
  1 25  1  0
  1 26  1  0
  6 27  1  0
  7 28  1  0
  8 29  1  0
 10 30  1  0
 10 31  1  0
 11 32  1  0
 11 33  1  0
 12 34  1  0
 12 35  1  0
 17 36  1  0
 24 37  1  0
M  CHG  3  13  -1  20  -1  23  -1
M  END
>  <UniqueID>  (43) 
39

>  <SMILES>  (43) 
NS(=O)(=O)c1cccc(CCC[N-]C(=O)c2cc(=O)[n-]c(=O)[n-]2)c1

>  <Energy>  (43) 
26.287392720529034

>  <Genealogy>  (43) 
NS(=O)(=O)c1cccc(CCC[N-]C(=O)c2cc(=O)[n-]c(=O)[n-]2)c1 (protonated)
NS(=O)(=O)c1cccc(CCC[N-]C(=O)c2cc(=O)[n-]c(=O)[n-]2)c1 (3D coordinates assigned)
NS(=O)(=O)c1cccc(CCC[N-]C(=O)c2cc(=O)[n-]c(=O)[n-]2)c1 (optimized conformer: 26.287392720529034 kcal/mol)

>  <smiles>  (43) 
NS(=O)(=O)c1cccc(CCCNC(=O)c2cc(=O)[nH]c(=O)[nH]2)c1

>  <score_type>  (43) 
oracle

>  <origin>  (43) 
adg

>  <m_score__min__energy>  (43) 
-14.26

>  <m_primary>  (43) 
energy

$$$$
44:0
     RDKit          3D

 37 39  0  0  0  0  0  0  0  0999 V2000
   60.5760   27.7020   48.8690 H   0  0  0  0  0  0  0  0  0  0  0  0
   60.0110   26.9730   48.3800 N   0  0  0  0  0  0  0  0  0  0  0  0
   59.4800   27.1910   47.2200 C   0  0  0  0  0  0  0  0  0  0  0  0
   60.1640   27.8950   46.2780 N   0  0  0  0  0  0  0  0  0  0  0  0
   59.6420   28.1450   45.0470 C   0  0  0  0  0  0  0  0  0  0  0  0
   60.2253   28.7173   44.3106 H   0  0  0  0  0  0  0  0  0  0  0  0
   58.3600   27.6750   44.7120 C   0  0  0  0  0  0  0  0  0  0  0  0
   57.7770   27.9400   43.3750 C   0  0  0  0  0  0  0  0  0  0  0  0
   57.9460   27.1080   42.4420 O   0  0  0  0  0  0  0  0  0  0  0  0
   57.0240   29.1450   43.1490 N   0  0  0  0  0  0  0  0  0  0  0  0
   57.1510   30.2640   43.7980 C   0  0  0  0  0  0  0  0  0  0  0  0
   56.7890   30.4470   45.0880 N   0  0  0  0  0  0  0  0  0  0  0  0
   57.0270   31.6840   45.5210 N   0  0  0  0  0  0  0  0  0  0  0  0
   57.5790   32.4780   44.5790 C   0  0  0  0  0  0  0  0  0  0  0  0
   58.0160   34.1920   44.8590 S   0  0  0  0  0  0  0  0  0  0  0  0
   59.6270   33.8190   45.6380 C   0  0  0  0  0  0  0  0  0  0  0  0
   60.2843   33.3447   44.8944 H   0  0  0  0  0  0  0  0  0  0  0  0
   60.0671   34.7605   45.9985 H   0  0  0  0  0  0  0  0  0  0  0  0
   59.4600   32.8900   46.8100 C   0  0  0  0  0  0  0  0  0  0  0  0
   58.5240   33.1710   47.8140 C   0  0  0  0  0  0  0  0  0  0  0  0
   57.9271   34.0936   47.7629 H   0  0  0  0  0  0  0  0  0  0  0  0
   58.3450   32.2860   48.8790 C   0  0  0  0  0  0  0  0  0  0  0  0
   57.6078   32.5176   49.6619 H   0  0  0  0  0  0  0  0  0  0  0  0
   59.0980   31.1020   48.9600 C   0  0  0  0  0  0  0  0  0  0  0  0
   58.8440   30.1750   50.0280 N   0  0  0  0  0  0  0  0  0  0  0  0
   57.7910   30.2620   50.6940 O   0  0  0  0  0  0  0  0  0  0  0  0
   59.6280   29.0550   50.1720 O   0  0  0  0  0  0  0  0  0  0  0  0
   60.0700   30.8350   47.9680 C   0  0  0  0  0  0  0  0  0  0  0  0
   60.9130   29.7240   48.0340 O   0  0  0  0  0  0  0  0  0  0  0  0
   60.5780   28.7870   48.2120 H   0  0  0  0  0  0  0  0  0  0  0  0
   60.2280   31.7200   46.8950 C   0  0  0  0  0  0  0  0  0  0  0  0
   60.9637   31.4948   46.1089 H   0  0  0  0  0  0  0  0  0  0  0  0
   57.7930   31.6620   43.1190 S   0  0  0  0  0  0  0  0  0  0  0  0
   57.6440   26.9480   45.6770 C   0  0  0  0  0  0  0  0  0  0  0  0
   56.6382   26.5693   45.4425 H   0  0  0  0  0  0  0  0  0  0  0  0
   58.2030   26.7040   46.9320 C   0  0  0  0  0  0  0  0  0  0  0  0
   57.6431   26.1334   47.6876 H   0  0  0  0  0  0  0  0  0  0  0  0
  1  2  1  0
  2  3  2  0
  3  4  1  0
  4  5  1  0
  5  6  1  0
  5  7  2  0
  7  8  1  0
  8  9  2  0
  8 10  1  0
 10 11  2  0
 11 12  1  0
 12 13  1  0
 13 14  2  0
 14 15  1  0
 15 16  1  0
 16 17  1  0
 16 18  1  0
 16 19  1  0
 19 20  2  0
 20 21  1  0
 20 22  1  0
 22 23  1  0
 22 24  2  0
 24 25  1  0
 25 26  2  0
 25 27  1  0
 24 28  1  0
 28 29  1  0
 29 30  1  0
 28 31  2  0
 31 32  1  0
 14 33  1  0
  7 34  1  0
 34 35  1  0
 34 36  2  0
 36 37  1  0
 36  3  1  0
 33 11  1  0
 31 19  1  0
M  CHG  4   4  -1  12  -1  25   1  27  -1
M  END
>  <UniqueID>  (44) 
40

>  <SMILES>  (44) 
[H]/N=c1/ccc(C(=O)/N=c2\[n-]nc(SCc3ccc([N+](=O)[O-])c(O)c3)s2)c[n-]1

>  <Energy>  (44) 
78.44863725557913

>  <Genealogy>  (44) 
N=c1ccc(C(=O)N=c2[n-]nc(SCc3ccc([N+](=O)[O-])c(O)c3)s2)c[n-]1 (protonated)
[H]/N=c1/ccc(C(=O)/N=c2\[n-]nc(SCc3ccc([N+](=O)[O-])c(O)c3)s2)c[n-]1 (cis-trans isomerization)
[H]/N=c1/ccc(C(=O)/N=c2\[n-]nc(SCc3ccc([N+](=O)[O-])c(O)c3)s2)c[n-]1 (3D coordinates assigned)
[H]/N=c1/ccc(C(=O)/N=c2\[n-]nc(SCc3ccc([N+](=O)[O-])c(O)c3)s2)c[n-]1 (optimized conformer: 78.44863725557913 kcal/mol)

>  <smiles>  (44) 
N=c1ccc(C(=O)N=c2[nH]nc(SCc3ccc([N+](=O)[O-])c(O)c3)s2)c[nH]1

>  <score_type>  (44) 
oracle

>  <origin>  (44) 
adg

>  <m_score__min__energy>  (44) 
-9.4299999999999997

>  <m_primary>  (44) 
energy

$$$$
45:0
     RDKit          3D

 48 50  0  0  0  0  0  0  0  0999 V2000
   56.4279   23.1310   46.4096 H   0  0  0  0  0  0  0  0  0  0  0  0
   56.1180   24.1660   46.2030 C   0  0  0  0  0  0  0  0  0  0  0  0
   56.9330   25.2340   46.1860 N   0  0  0  0  0  0  0  0  0  0  0  0
   56.1140   26.2660   45.8920 C   0  0  0  0  0  0  0  0  0  0  0  0
   56.5770   27.6520   45.7690 C   0  0  0  0  0  0  0  0  0  0  0  0
   55.9120   28.6090   45.0990 N   0  0  0  0  0  0  0  0  0  0  0  0
   56.6920   29.6960   45.2600 C   0  0  0  0  0  0  0  0  0  0  0  0
   56.3800   30.8510   44.7550 N   0  0  0  0  0  0  0  0  0  0  0  0
   57.0720   31.4480   43.6160 C   0  0  0  0  0  0  0  0  0  0  0  0
   56.3525   32.0242   43.0157 H   0  0  0  0  0  0  0  0  0  0  0  0
   57.5151   30.6466   43.0065 H   0  0  0  0  0  0  0  0  0  0  0  0
   58.1870   32.3800   44.1000 C   0  0  0  0  0  0  0  0  0  0  0  0
   58.2504   33.2362   43.4123 H   0  0  0  0  0  0  0  0  0  0  0  0
   59.1182   31.7947   44.1174 H   0  0  0  0  0  0  0  0  0  0  0  0
   57.9550   32.9120   45.5220 C   0  0  0  0  0  0  0  0  0  0  0  0
   57.2846   32.2256   46.0599 H   0  0  0  0  0  0  0  0  0  0  0  0
   57.5026   33.9126   45.4569 H   0  0  0  0  0  0  0  0  0  0  0  0
   59.2430   33.0150   46.2590 N   0  0  0  0  0  0  0  0  0  0  0  0
   59.4430   34.3790   46.7990 C   0  0  0  0  0  0  0  0  0  0  0  0
   60.3477   34.3875   47.4247 H   0  0  0  0  0  0  0  0  0  0  0  0
   58.5571   34.6510   47.3916 H   0  0  0  0  0  0  0  0  0  0  0  0
   59.6050   35.4040   45.6750 C   0  0  0  0  0  0  0  0  0  0  0  0
   59.7628   36.4023   46.1091 H   0  0  0  0  0  0  0  0  0  0  0  0
   60.4715   35.1331   45.0538 H   0  0  0  0  0  0  0  0  0  0  0  0
   58.6972   35.4136   45.0538 H   0  0  0  0  0  0  0  0  0  0  0  0
   59.3420   31.9920   47.3260 C   0  0  0  0  0  0  0  0  0  0  0  0
   58.9469   31.0371   46.9490 H   0  0  0  0  0  0  0  0  0  0  0  0
   60.3980   31.8803   47.6131 H   0  0  0  0  0  0  0  0  0  0  0  0
   58.5400   32.4170   48.5550 C   0  0  0  0  0  0  0  0  0  0  0  0
   59.0847   32.1284   49.4661 H   0  0  0  0  0  0  0  0  0  0  0  0
   58.3995   33.5079   48.5419 H   0  0  0  0  0  0  0  0  0  0  0  0
   57.5584   31.9207   48.5419 H   0  0  0  0  0  0  0  0  0  0  0  0
   57.8100   29.4790   45.9900 N   0  0  0  0  0  0  0  0  0  0  0  0
   57.7300   28.1760   46.3100 C   0  0  0  0  0  0  0  0  0  0  0  0
   58.4663   27.6184   46.9074 H   0  0  0  0  0  0  0  0  0  0  0  0
   54.8250   25.9060   45.7230 N   0  0  0  0  0  0  0  0  0  0  0  0
   54.8300   24.5740   45.9200 C   0  0  0  0  0  0  0  0  0  0  0  0
   53.6150   23.7270   45.8360 C   0  0  0  0  0  0  0  0  0  0  0  0
   53.4820   22.5560   46.6080 C   0  0  0  0  0  0  0  0  0  0  0  0
   54.2912   22.2572   47.2905 H   0  0  0  0  0  0  0  0  0  0  0  0
   52.3290   21.7710   46.5130 C   0  0  0  0  0  0  0  0  0  0  0  0
   52.2366   20.8573   47.1184 H   0  0  0  0  0  0  0  0  0  0  0  0
   51.2940   22.1430   45.6520 C   0  0  0  0  0  0  0  0  0  0  0  0
   50.1480   21.3620   45.5610 O   0  0  0  0  0  0  0  0  0  0  0  0
   51.4140   23.3020   44.8820 C   0  0  0  0  0  0  0  0  0  0  0  0
   50.5998   23.5957   44.2031 H   0  0  0  0  0  0  0  0  0  0  0  0
   52.5650   24.0900   44.9710 C   0  0  0  0  0  0  0  0  0  0  0  0
   52.6512   25.0009   44.3604 H   0  0  0  0  0  0  0  0  0  0  0  0
  1  2  1  0
  2  3  1  0
  3  4  1  0
  4  5  1  0
  5  6  1  0
  6  7  1  0
  7  8  2  0
  8  9  1  0
  9 10  1  0
  9 11  1  0
  9 12  1  0
 12 13  1  0
 12 14  1  0
 12 15  1  0
 15 16  1  0
 15 17  1  0
 15 18  1  0
 18 19  1  0
 19 20  1  0
 19 21  1  0
 19 22  1  0
 22 23  1  0
 22 24  1  0
 22 25  1  0
 18 26  1  0
 26 27  1  0
 26 28  1  0
 26 29  1  0
 29 30  1  0
 29 31  1  0
 29 32  1  0
  7 33  1  0
 33 34  1  0
 34 35  1  0
  4 36  2  0
 36 37  1  0
 37 38  1  0
 38 39  2  0
 39 40  1  0
 39 41  1  0
 41 42  1  0
 41 43  2  0
 43 44  1  0
 43 45  1  0
 45 46  1  0
 45 47  2  0
 47 48  1  0
 37  2  2  0
 47 38  1  0
 34  5  2  0
M  CHG  4   3  -1   6  -1  33  -1  44  -1
M  END
>  <UniqueID>  (45) 
41

>  <SMILES>  (45) 
CCN(CC)CCC/N=c1\[n-]cc(-c2nc(-c3ccc([O-])cc3)c[n-]2)[n-]1

>  <Energy>  (45) 
101.02158841625838

>  <Genealogy>  (45) 
CCN(CC)CCCN=c1[n-]cc(-c2nc(-c3ccc([O-])cc3)c[n-]2)[n-]1 (protonated)
CCN(CC)CCC/N=c1\[n-]cc(-c2nc(-c3ccc([O-])cc3)c[n-]2)[n-]1 (cis-trans isomerization)
CCN(CC)CCC/N=c1\[n-]cc(-c2nc(-c3ccc([O-])cc3)c[n-]2)[n-]1 (3D coordinates assigned)
CCN(CC)CCC/N=c1\[n-]cc(-c2nc(-c3ccc([O-])cc3)c[n-]2)[n-]1 (optimized conformer: 101.02158841625838 kcal/mol)

>  <smiles>  (45) 
CCN(CC)CCCN=c1[nH]cc(-c2nc(-c3ccc(O)cc3)c[nH]2)[nH]1

>  <score_type>  (45) 
oracle

>  <origin>  (45) 
adg

>  <m_score__min__energy>  (45) 
-13.25

>  <m_primary>  (45) 
energy

$$$$
46:0
     RDKit          3D

 58 60  0  0  0  0  0  0  0  0999 V2000
   65.8500   32.6680   50.1960 C   0  0  0  0  0  0  0  0  0  0  0  0
   64.5450   33.1310   49.6320 C   0  0  0  0  0  0  0  0  0  0  0  0
   64.2370   33.0990   48.3210 N   0  0  0  0  0  0  0  0  0  0  0  0
   63.0090   33.6440   48.1940 C   0  0  0  0  0  0  0  0  0  0  0  0
   62.3180   33.8010   46.8990 C   0  0  0  0  0  0  0  0  0  0  0  0
   63.0040   33.8450   45.8420 O   0  0  0  0  0  0  0  0  0  0  0  0
   60.8870   33.8980   46.8280 N   0  0  0  0  0  0  0  0  0  0  0  0
   60.1820   34.2040   45.5830 C   0  0  0  0  0  0  0  0  0  0  0  0
   58.6490   34.2400   45.7950 C   0  0  0  0  0  0  0  0  0  0  0  0
   58.2500   33.8350   47.2340 C   0  0  0  0  0  0  0  0  0  0  0  0
   58.5720   32.3590   47.5150 C   0  0  0  0  0  0  0  0  0  0  0  0
   58.2910   31.5170   46.3430 N   0  0  0  0  0  0  0  0  0  0  0  0
   58.8260   30.1810   46.2960 C   0  0  0  0  0  0  0  0  0  0  0  0
   60.0540   29.9100   45.6710 C   0  0  0  0  0  0  0  0  0  0  0  0
   60.5510   28.6060   45.6700 C   0  0  0  0  0  0  0  0  0  0  0  0
   59.8340   27.5870   46.2970 C   0  0  0  0  0  0  0  0  0  0  0  0
   60.3260   26.2870   46.2990 O   0  0  0  0  0  0  0  0  0  0  0  0
   58.6230   27.8880   46.9270 C   0  0  0  0  0  0  0  0  0  0  0  0
   57.9050   26.8730   47.5660 O   0  0  0  0  0  0  0  0  0  0  0  0
   57.0750   25.9540   46.8620 C   0  0  0  0  0  0  0  0  0  0  0  0
   56.1730   26.7070   45.8910 C   0  0  0  0  0  0  0  0  0  0  0  0
   54.7990   26.2100   45.9950 N   0  0  0  0  0  0  0  0  0  0  0  0
   54.6960   24.5390   45.5260 S   0  0  0  0  0  0  0  0  0  0  0  0
   55.0450   23.5190   46.9390 C   0  0  0  0  0  0  0  0  0  0  0  0
   55.7000   24.2510   44.4460 O   0  0  0  0  0  0  0  0  0  0  0  0
   53.3140   24.2260   45.0230 O   0  0  0  0  0  0  0  0  0  0  0  0
   58.1560   29.1680   46.9140 N   0  0  0  0  0  0  0  0  0  0  0  0
   57.3970   32.0280   45.2960 C   0  0  0  0  0  0  0  0  0  0  0  0
   57.9240   33.3600   44.7360 C   0  0  0  0  0  0  0  0  0  0  0  0
   62.5310   34.0410   49.4340 C   0  0  0  0  0  0  0  0  0  0  0  0
   63.5160   33.7150   50.3440 C   0  0  0  0  0  0  0  0  0  0  0  0
   63.4670   34.0200   52.0700 Cl  0  0  0  0  0  0  0  0  0  0  0  0
   65.8013   32.6853   51.2948 H   0  0  0  0  0  0  0  0  0  0  0  0
   66.0541   31.6426   49.8541 H   0  0  0  0  0  0  0  0  0  0  0  0
   66.6547   33.3355   49.8541 H   0  0  0  0  0  0  0  0  0  0  0  0
   64.8390   32.7300   47.5520 H   0  0  0  0  0  0  0  0  0  0  0  0
   60.3090   33.6970   47.6740 H   0  0  0  0  0  0  0  0  0  0  0  0
   60.5154   35.1856   45.2151 H   0  0  0  0  0  0  0  0  0  0  0  0
   60.4116   33.4142   44.8525 H   0  0  0  0  0  0  0  0  0  0  0  0
   58.3227   35.2814   45.6572 H   0  0  0  0  0  0  0  0  0  0  0  0
   58.8026   34.4633   47.9481 H   0  0  0  0  0  0  0  0  0  0  0  0
   57.1648   33.9778   47.3437 H   0  0  0  0  0  0  0  0  0  0  0  0
   59.6371   32.2680   47.7742 H   0  0  0  0  0  0  0  0  0  0  0  0
   57.9378   32.0182   48.3467 H   0  0  0  0  0  0  0  0  0  0  0  0
   60.6197   30.7192   45.1861 H   0  0  0  0  0  0  0  0  0  0  0  0
   61.5075   28.3819   45.1751 H   0  0  0  0  0  0  0  0  0  0  0  0
   57.7059   25.2487   46.3012 H   0  0  0  0  0  0  0  0  0  0  0  0
   56.4517   25.4042   47.5826 H   0  0  0  0  0  0  0  0  0  0  0  0
   56.1916   27.7797   46.1338 H   0  0  0  0  0  0  0  0  0  0  0  0
   56.5368   26.5502   44.8648 H   0  0  0  0  0  0  0  0  0  0  0  0
   54.8501   24.0887   47.8596 H   0  0  0  0  0  0  0  0  0  0  0  0
   54.4007   22.6277   46.9160 H   0  0  0  0  0  0  0  0  0  0  0  0
   56.1002   23.2093   46.9160 H   0  0  0  0  0  0  0  0  0  0  0  0
   57.3371   31.2917   44.4809 H   0  0  0  0  0  0  0  0  0  0  0  0
   56.4009   32.1960   45.7315 H   0  0  0  0  0  0  0  0  0  0  0  0
   58.6324   33.1394   43.9239 H   0  0  0  0  0  0  0  0  0  0  0  0
   57.0505   33.9304   44.3872 H   0  0  0  0  0  0  0  0  0  0  0  0
   61.5636   34.5186   49.6485 H   0  0  0  0  0  0  0  0  0  0  0  0
  1  2  1  0
  2  3  1  0
  3  4  1  0
  4  5  1  0
  5  6  2  0
  5  7  1  0
  7  8  1  0
  8  9  1  0
  9 10  1  0
 10 11  1  0
 11 12  1  0
 12 13  1  0
 13 14  2  0
 14 15  1  0
 15 16  2  0
 16 17  1  0
 16 18  1  0
 18 19  1  0
 19 20  1  0
 20 21  1  0
 21 22  1  0
 22 23  1  0
 23 24  1  0
 23 25  2  0
 23 26  2  0
 18 27  2  0
 12 28  1  0
 28 29  1  0
  4 30  2  0
 30 31  1  0
 31 32  1  0
 31  2  2  0
 29  9  1  0
 27 13  1  0
  1 33  1  0
  1 34  1  0
  1 35  1  0
  3 36  1  0
  7 37  1  0
  8 38  1  0
  8 39  1  0
  9 40  1  0
 10 41  1  0
 10 42  1  0
 11 43  1  0
 11 44  1  0
 14 45  1  0
 15 46  1  0
 20 47  1  0
 20 48  1  0
 21 49  1  0
 21 50  1  0
 24 51  1  0
 24 52  1  0
 24 53  1  0
 28 54  1  0
 28 55  1  0
 29 56  1  0
 29 57  1  0
 30 58  1  0
M  CHG  2  17  -1  22  -1
M  END
>  <UniqueID>  (46) 
42

>  <SMILES>  (46) 
Cc1[nH]c(C(=O)NCC2CCN(c3ccc([O-])c(OCC[N-]S(C)(=O)=O)n3)CC2)cc1Cl

>  <Energy>  (46) 
77.49859440888343

>  <Genealogy>  (46) 
Cc1[nH]c(C(=O)NCC2CCN(c3ccc([O-])c(OCC[N-]S(C)(=O)=O)n3)CC2)cc1Cl (protonated)
Cc1[nH]c(C(=O)NCC2CCN(c3ccc([O-])c(OCC[N-]S(C)(=O)=O)n3)CC2)cc1Cl (3D coordinates assigned)
Cc1[nH]c(C(=O)NCC2CCN(c3ccc([O-])c(OCC[N-]S(C)(=O)=O)n3)CC2)cc1Cl (nonaromatic ring conformer: 77.49859440888343 kcal/mol)

>  <smiles>  (46) 
Cc1[nH]c(C(=O)NCC2CCN(c3ccc(O)c(OCCNS(C)(=O)=O)n3)CC2)cc1Cl

>  <score_type>  (46) 
oracle

>  <origin>  (46) 
adg

>  <m_score__min__energy>  (46) 
-13.25

>  <m_primary>  (46) 
energy

$$$$
47:0
     RDKit          3D

 68 71  0  0  0  0  0  0  0  0999 V2000
   58.2380   27.0840   43.2540 C   0  0  0  0  0  0  0  0  0  0  0  0
   58.6770   27.9690   44.3950 C   0  0  0  0  0  0  0  0  0  0  0  0
   60.0480   28.2590   44.5150 C   0  0  0  0  0  0  0  0  0  0  0  0
   60.5180   29.0870   45.5330 C   0  0  0  0  0  0  0  0  0  0  0  0
   59.6300   29.6490   46.4500 C   0  0  0  0  0  0  0  0  0  0  0  0
   60.2360   30.6660   47.7620 S   0  0  0  0  0  0  0  0  0  0  0  0
   59.0750   31.3210   48.4570 O   0  0  0  0  0  0  0  0  0  0  0  0
   60.9450   29.8000   48.7650 O   0  0  0  0  0  0  0  0  0  0  0  0
   61.3220   31.9060   47.1820 N   0  0  0  0  0  0  0  0  0  0  0  0
   62.7220   31.5380   47.4790 C   0  0  0  0  0  0  0  0  0  0  0  0
   63.6630   32.7140   47.2020 C   0  0  0  0  0  0  0  0  0  0  0  0
   63.3290   33.9250   48.0940 C   0  0  0  0  0  0  0  0  0  0  0  0
   61.8990   33.8760   48.6570 C   0  0  0  0  0  0  0  0  0  0  0  0
   60.9230   33.2620   47.6400 C   0  0  0  0  0  0  0  0  0  0  0  0
   58.2600   29.3720   46.3420 C   0  0  0  0  0  0  0  0  0  0  0  0
   57.7610   28.5150   45.3370 C   0  0  0  0  0  0  0  0  0  0  0  0
   56.2960   28.2380   45.3050 C   0  0  0  0  0  0  0  0  0  0  0  0
   55.5020   29.0080   44.7040 O   0  0  0  0  0  0  0  0  0  0  0  0
   55.7730   27.0920   45.9850 N   0  0  0  0  0  0  0  0  0  0  0  0
   56.1020   25.7230   45.6190 C   0  0  0  0  0  0  0  0  0  0  0  0
   54.8430   24.9050   45.5510 C   0  0  0  0  0  0  0  0  0  0  0  0
   53.7260   25.4790   45.6460 O   0  0  0  0  0  0  0  0  0  0  0  0
   54.8810   23.4880   45.3250 N   0  0  0  0  0  0  0  0  0  0  0  0
   54.5390   22.5140   46.3190 C   0  0  0  0  0  0  0  0  0  0  0  0
   55.4330   22.2080   47.3550 C   0  0  0  0  0  0  0  0  0  0  0  0
   55.1230   21.2080   48.2860 C   0  0  0  0  0  0  0  0  0  0  0  0
   56.2290   20.8730   49.6230 S   0  0  0  0  0  0  0  0  0  0  0  0
   56.7270   19.4590   49.5050 O   0  0  0  0  0  0  0  0  0  0  0  0
   57.4160   21.7920   49.5280 O   0  0  0  0  0  0  0  0  0  0  0  0
   55.4610   21.1090   51.1770 N   0  0  0  0  0  0  0  0  0  0  0  0
   54.2150   21.8770   51.0290 C   0  0  0  0  0  0  0  0  0  0  0  0
   53.6490   22.2730   52.4090 C   0  0  0  0  0  0  0  0  0  0  0  0
   54.3270   21.6030   53.4550 O   0  0  0  0  0  0  0  0  0  0  0  0
   55.6880   21.9950   53.4770 C   0  0  0  0  0  0  0  0  0  0  0  0
   56.3750   21.7890   52.1090 C   0  0  0  0  0  0  0  0  0  0  0  0
   53.9120   20.5120   48.1740 C   0  0  0  0  0  0  0  0  0  0  0  0
   53.0010   20.8420   47.1670 C   0  0  0  0  0  0  0  0  0  0  0  0
   53.3060   21.8510   46.2480 C   0  0  0  0  0  0  0  0  0  0  0  0
   52.3910   22.1810   45.2540 O   0  0  0  0  0  0  0  0  0  0  0  0
   57.7829   26.1666   43.6556 H   0  0  0  0  0  0  0  0  0  0  0  0
   57.5010   27.6193   42.6374 H   0  0  0  0  0  0  0  0  0  0  0  0
   59.1101   26.8211   42.6374 H   0  0  0  0  0  0  0  0  0  0  0  0
   60.7590   27.8265   43.7957 H   0  0  0  0  0  0  0  0  0  0  0  0
   61.5945   29.2982   45.6136 H   0  0  0  0  0  0  0  0  0  0  0  0
   62.8031   31.2528   48.5383 H   0  0  0  0  0  0  0  0  0  0  0  0
   63.0102   30.6956   46.8329 H   0  0  0  0  0  0  0  0  0  0  0  0
   64.6979   32.3984   47.4003 H   0  0  0  0  0  0  0  0  0  0  0  0
   63.5405   33.0146   46.1510 H   0  0  0  0  0  0  0  0  0  0  0  0
   64.0371   33.9472   48.9355 H   0  0  0  0  0  0  0  0  0  0  0  0
   63.4076   34.8271   47.4695 H   0  0  0  0  0  0  0  0  0  0  0  0
   61.8943   33.2661   49.5725 H   0  0  0  0  0  0  0  0  0  0  0  0
   61.5745   34.9042   48.8749 H   0  0  0  0  0  0  0  0  0  0  0  0
   59.9297   33.1936   48.1077 H   0  0  0  0  0  0  0  0  0  0  0  0
   60.9226   33.9159   46.7555 H   0  0  0  0  0  0  0  0  0  0  0  0
   57.5595   29.8317   47.0548 H   0  0  0  0  0  0  0  0  0  0  0  0
   56.5976   25.7152   44.6370 H   0  0  0  0  0  0  0  0  0  0  0  0
   56.7769   25.2942   46.3743 H   0  0  0  0  0  0  0  0  0  0  0  0
   56.3831   22.7562   47.4372 H   0  0  0  0  0  0  0  0  0  0  0  0
   54.4198   22.7883   50.4480 H   0  0  0  0  0  0  0  0  0  0  0  0
   53.4741   21.2510   50.5101 H   0  0  0  0  0  0  0  0  0  0  0  0
   53.7639   23.3585   52.5452 H   0  0  0  0  0  0  0  0  0  0  0  0
   52.5876   21.9862   52.4439 H   0  0  0  0  0  0  0  0  0  0  0  0
   55.7459   23.0600   53.7460 H   0  0  0  0  0  0  0  0  0  0  0  0
   56.2090   21.3676   54.2152 H   0  0  0  0  0  0  0  0  0  0  0  0
   56.6560   22.7677   51.6928 H   0  0  0  0  0  0  0  0  0  0  0  0
   57.2721   21.1678   52.2484 H   0  0  0  0  0  0  0  0  0  0  0  0
   53.6776   19.7029   48.8814 H   0  0  0  0  0  0  0  0  0  0  0  0
   52.0423   20.3072   47.0971 H   0  0  0  0  0  0  0  0  0  0  0  0
  1  2  1  0
  2  3  2  0
  3  4  1  0
  4  5  2  0
  5  6  1  0
  6  7  2  0
  6  8  2  0
  6  9  1  0
  9 10  1  0
 10 11  1  0
 11 12  1  0
 12 13  1  0
 13 14  1  0
  5 15  1  0
 15 16  2  0
 16 17  1  0
 17 18  2  0
 17 19  1  0
 19 20  1  0
 20 21  1  0
 21 22  2  0
 21 23  1  0
 23 24  1  0
 24 25  2  0
 25 26  1  0
 26 27  1  0
 27 28  2  0
 27 29  2  0
 27 30  1  0
 30 31  1  0
 31 32  1  0
 32 33  1  0
 33 34  1  0
 34 35  1  0
 26 36  2  0
 36 37  1  0
 37 38  2  0
 38 39  1  0
 16  2  1  0
 38 24  1  0
 14  9  1  0
 35 30  1  0
  1 40  1  0
  1 41  1  0
  1 42  1  0
  3 43  1  0
  4 44  1  0
 10 45  1  0
 10 46  1  0
 11 47  1  0
 11 48  1  0
 12 49  1  0
 12 50  1  0
 13 51  1  0
 13 52  1  0
 14 53  1  0
 14 54  1  0
 15 55  1  0
 20 56  1  0
 20 57  1  0
 25 58  1  0
 31 59  1  0
 31 60  1  0
 32 61  1  0
 32 62  1  0
 34 63  1  0
 34 64  1  0
 35 65  1  0
 35 66  1  0
 36 67  1  0
 37 68  1  0
M  CHG  3  19  -1  23  -1  39  -1
M  END
>  <UniqueID>  (47) 
43

>  <SMILES>  (47) 
Cc1ccc(S(=O)(=O)N2CCCCC2)cc1C(=O)[N-]CC(=O)[N-]c1cc(S(=O)(=O)N2CCOCC2)ccc1[O-]

>  <Energy>  (47) 
86.13071073319722

>  <Genealogy>  (47) 
Cc1ccc(S(=O)(=O)N2CCCCC2)cc1C(=O)[N-]CC(=O)[N-]c1cc(S(=O)(=O)N2CCOCC2)ccc1[O-] (protonated)
Cc1ccc(S(=O)(=O)N2CCCCC2)cc1C(=O)[N-]CC(=O)[N-]c1cc(S(=O)(=O)N2CCOCC2)ccc1[O-] (3D coordinates assigned)
Cc1ccc(S(=O)(=O)N2CCCCC2)cc1C(=O)[N-]CC(=O)[N-]c1cc(S(=O)(=O)N2CCOCC2)ccc1[O-] (nonaromatic ring conformer: 86.13071073319722 kcal/mol)

>  <smiles>  (47) 
Cc1ccc(S(=O)(=O)N2CCCCC2)cc1C(=O)NCC(=O)Nc1cc(S(=O)(=O)N2CCOCC2)ccc1O

>  <score_type>  (47) 
oracle

>  <origin>  (47) 
adg

>  <m_score__min__energy>  (47) 
-18.07

>  <m_primary>  (47) 
energy

$$$$
48:0
     RDKit          3D

 33 34  0  0  0  0  0  0  0  0999 V2000
   58.0630   34.2060   45.3220 C   0  0  0  0  0  0  0  0  0  0  0  0
   59.0760   33.2900   45.9520 C   0  0  0  0  0  0  0  0  0  0  0  0
   60.3670   33.7650   46.2370 C   0  0  0  0  0  0  0  0  0  0  0  0
   61.3100   32.9280   46.8410 C   0  0  0  0  0  0  0  0  0  0  0  0
   63.0620   33.5840   47.2230 Br  0  0  0  0  0  0  0  0  0  0  0  0
   60.9720   31.6140   47.1630 C   0  0  0  0  0  0  0  0  0  0  0  0
   59.6890   31.1310   46.8930 C   0  0  0  0  0  0  0  0  0  0  0  0
   58.7240   31.9690   46.3030 C   0  0  0  0  0  0  0  0  0  0  0  0
   57.4050   31.4870   45.9980 N   0  0  0  0  0  0  0  0  0  0  0  0
   57.0250   30.6940   44.8680 C   0  0  0  0  0  0  0  0  0  0  0  0
   55.8130   30.5670   44.5470 O   0  0  0  0  0  0  0  0  0  0  0  0
   58.0860   30.0600   44.0260 C   0  0  0  0  0  0  0  0  0  0  0  0
   58.8380   29.0830   44.8060 N   0  0  0  0  0  0  0  0  0  0  0  0
   58.3000   27.8250   45.2270 C   0  0  0  0  0  0  0  0  0  0  0  0
   58.3240   26.8280   44.4550 O   0  0  0  0  0  0  0  0  0  0  0  0
   57.7350   27.6870   46.6040 C   0  0  0  0  0  0  0  0  0  0  0  0
   57.1770   26.3120   46.7960 C   0  0  0  0  0  0  0  0  0  0  0  0
   57.9020   25.2520   47.1950 N   0  0  0  0  0  0  0  0  0  0  0  0
   57.0090   24.2380   47.1690 C   0  0  0  0  0  0  0  0  0  0  0  0
   57.3110   23.0600   47.4930 O   0  0  0  0  0  0  0  0  0  0  0  0
   55.7680   24.5860   46.7640 N   0  0  0  0  0  0  0  0  0  0  0  0
   55.8940   25.9000   46.5250 C   0  0  0  0  0  0  0  0  0  0  0  0
   54.8640   26.7030   46.0530 O   0  0  0  0  0  0  0  0  0  0  0  0
   57.4938   34.7207   46.1101 H   0  0  0  0  0  0  0  0  0  0  0  0
   58.5795   34.9498   44.6975 H   0  0  0  0  0  0  0  0  0  0  0  0
   57.3748   33.6175   44.6975 H   0  0  0  0  0  0  0  0  0  0  0  0
   60.6373   34.8007   45.9836 H   0  0  0  0  0  0  0  0  0  0  0  0
   61.7182   30.9553   47.6313 H   0  0  0  0  0  0  0  0  0  0  0  0
   59.4318   30.0910   47.1427 H   0  0  0  0  0  0  0  0  0  0  0  0
   57.6155   29.5552   43.1694 H   0  0  0  0  0  0  0  0  0  0  0  0
   58.7752   30.8411   43.6725 H   0  0  0  0  0  0  0  0  0  0  0  0
   58.5306   27.8631   47.3429 H   0  0  0  0  0  0  0  0  0  0  0  0
   56.9296   28.4241   46.7380 H   0  0  0  0  0  0  0  0  0  0  0  0
  1  2  1  0
  2  3  2  0
  3  4  1  0
  4  5  1  0
  4  6  2  0
  6  7  1  0
  7  8  2  0
  8  9  1  0
  9 10  1  0
 10 11  2  0
 10 12  1  0
 12 13  1  0
 13 14  1  0
 14 15  2  0
 14 16  1  0
 16 17  1  0
 17 18  1  0
 18 19  1  0
 19 20  2  0
 19 21  1  0
 21 22  1  0
 22 23  1  0
  8  2  1  0
 22 17  2  0
  1 24  1  0
  1 25  1  0
  1 26  1  0
  3 27  1  0
  6 28  1  0
  7 29  1  0
 12 30  1  0
 12 31  1  0
 16 32  1  0
 16 33  1  0
M  CHG  5   9  -1  13  -1  18  -1  21  -1  23  -1
M  END
>  <UniqueID>  (48) 
44

>  <SMILES>  (48) 
Cc1cc(Br)ccc1[N-]C(=O)C[N-]C(=O)Cc1[n-]c(=O)[n-]c1[O-]

>  <Energy>  (48) 
58.8810494864863

>  <Genealogy>  (48) 
Cc1cc(Br)ccc1[N-]C(=O)C[N-]C(=O)Cc1[n-]c(=O)[n-]c1[O-] (protonated)
Cc1cc(Br)ccc1[N-]C(=O)C[N-]C(=O)Cc1[n-]c(=O)[n-]c1[O-] (3D coordinates assigned)
Cc1cc(Br)ccc1[N-]C(=O)C[N-]C(=O)Cc1[n-]c(=O)[n-]c1[O-] (optimized conformer: 58.8810494864863 kcal/mol)

>  <smiles>  (48) 
Cc1cc(Br)ccc1NC(=O)CNC(=O)Cc1[nH]c(=O)[nH]c1O

>  <score_type>  (48) 
oracle

>  <origin>  (48) 
adg

>  <m_score__min__energy>  (48) 
-18.239999999999998

>  <m_primary>  (48) 
energy

$$$$
49:0
     RDKit          3D

 57 59  0  0  0  0  0  0  0  0999 V2000
   53.8930   23.6640   45.2410 C   0  0  0  0  0  0  0  0  0  0  0  0
   54.4160   24.7340   46.0000 O   0  0  0  0  0  0  0  0  0  0  0  0
   55.7880   24.9180   45.7000 C   0  0  0  0  0  0  0  0  0  0  0  0
   56.2870   26.2420   46.2250 C   0  0  0  0  0  0  0  0  0  0  0  0
   57.1890   26.2510   47.1070 O   0  0  0  0  0  0  0  0  0  0  0  0
   55.8960   27.4870   45.6310 N   0  0  0  0  0  0  0  0  0  0  0  0
   56.7680   28.5340   45.1850 C   0  0  0  0  0  0  0  0  0  0  0  0
   56.3090   29.5650   44.3460 C   0  0  0  0  0  0  0  0  0  0  0  0
   57.1690   30.6010   43.9690 C   0  0  0  0  0  0  0  0  0  0  0  0
   58.4800   30.6350   44.4520 C   0  0  0  0  0  0  0  0  0  0  0  0
   58.9420   29.6250   45.3110 C   0  0  0  0  0  0  0  0  0  0  0  0
   60.3210   29.7120   45.9060 C   0  0  0  0  0  0  0  0  0  0  0  0
   60.3240   30.7030   47.0290 C   0  0  0  0  0  0  0  0  0  0  0  0
   61.3990   30.9300   47.6440 O   0  0  0  0  0  0  0  0  0  0  0  0
   59.1230   31.4060   47.3820 N   0  0  0  0  0  0  0  0  0  0  0  0
   59.1290   32.6210   48.1950 C   0  0  0  0  0  0  0  0  0  0  0  0
   58.8870   33.8560   47.3040 C   0  0  2  0  0  0  0  0  0  0  0  0
   58.2130   33.5250   45.9750 C   0  0  0  0  0  0  0  0  0  0  0  0
   58.6500   34.6420   45.0420 C   0  0  0  0  0  0  0  0  0  0  0  0
   59.6380   35.4810   45.8480 C   0  0  0  0  0  0  0  0  0  0  0  0
   60.0840   34.6690   46.9930 N   0  0  0  0  0  0  0  0  0  0  0  0
   61.2870   33.8790   46.6190 C   0  0  0  0  0  0  0  0  0  0  0  0
   62.2610   33.7870   47.7670 C   0  0  0  0  0  0  0  0  0  0  0  0
   63.5230   33.1940   47.5880 C   0  0  0  0  0  0  0  0  0  0  0  0
   64.4150   33.0980   48.6610 C   0  0  0  0  0  0  0  0  0  0  0  0
   64.0500   33.5790   49.9220 C   0  0  0  0  0  0  0  0  0  0  0  0
   64.9180   33.4890   50.9590 F   0  0  0  0  0  0  0  0  0  0  0  0
   62.7890   34.1480   50.1140 C   0  0  0  0  0  0  0  0  0  0  0  0
   61.8930   34.2410   49.0460 C   0  0  0  0  0  0  0  0  0  0  0  0
   58.0770   28.5820   45.6800 C   0  0  0  0  0  0  0  0  0  0  0  0
   53.5125   22.8854   45.9185 H   0  0  0  0  0  0  0  0  0  0  0  0
   53.0727   24.0310   44.6066 H   0  0  0  0  0  0  0  0  0  0  0  0
   54.6865   23.2422   44.6066 H   0  0  0  0  0  0  0  0  0  0  0  0
   56.3687   24.1064   46.1626 H   0  0  0  0  0  0  0  0  0  0  0  0
   55.9107   24.9073   44.6069 H   0  0  0  0  0  0  0  0  0  0  0  0
   55.2699   29.5564   43.9851 H   0  0  0  0  0  0  0  0  0  0  0  0
   56.8131   31.3907   43.2910 H   0  0  0  0  0  0  0  0  0  0  0  0
   59.1517   31.4552   44.1584 H   0  0  0  0  0  0  0  0  0  0  0  0
   60.6171   28.7243   46.2890 H   0  0  0  0  0  0  0  0  0  0  0  0
   61.0322   30.0361   45.1320 H   0  0  0  0  0  0  0  0  0  0  0  0
   58.2220   31.1080   46.9500 H   0  0  0  0  0  0  0  0  0  0  0  0
   58.3330   32.5565   48.9514 H   0  0  0  0  0  0  0  0  0  0  0  0
   60.1072   32.7192   48.6884 H   0  0  0  0  0  0  0  0  0  0  0  0
   58.2200   34.4521   47.9440 H   0  0  0  0  0  0  0  0  0  0  0  0
   58.5522   32.5485   45.5990 H   0  0  0  0  0  0  0  0  0  0  0  0
   57.1188   33.4573   46.0649 H   0  0  0  0  0  0  0  0  0  0  0  0
   59.1375   34.2274   44.1473 H   0  0  0  0  0  0  0  0  0  0  0  0
   57.7957   35.2402   44.6923 H   0  0  0  0  0  0  0  0  0  0  0  0
   60.5006   35.7498   45.2206 H   0  0  0  0  0  0  0  0  0  0  0  0
   59.1615   36.4094   46.1960 H   0  0  0  0  0  0  0  0  0  0  0  0
   60.9743   32.8641   46.3322 H   0  0  0  0  0  0  0  0  0  0  0  0
   61.7868   34.3841   45.7793 H   0  0  0  0  0  0  0  0  0  0  0  0
   63.8100   32.8040   46.6003 H   0  0  0  0  0  0  0  0  0  0  0  0
   65.4055   32.6432   48.5125 H   0  0  0  0  0  0  0  0  0  0  0  0
   62.5010   34.5233   51.1071 H   0  0  0  0  0  0  0  0  0  0  0  0
   60.8938   34.6719   49.2066 H   0  0  0  0  0  0  0  0  0  0  0  0
   58.4307   27.7962   46.3636 H   0  0  0  0  0  0  0  0  0  0  0  0
  1  2  1  0
  2  3  1  0
  3  4  1  0
  4  5  2  0
  4  6  1  0
  6  7  1  0
  7  8  2  0
  8  9  1  0
  9 10  2  0
 10 11  1  0
 11 12  1  0
 12 13  1  0
 13 14  2  0
 13 15  1  0
 15 16  1  0
 16 17  1  0
 17 18  1  0
 18 19  1  0
 19 20  1  0
 20 21  1  0
 21 22  1  0
 22 23  1  0
 23 24  2  0
 24 25  1  0
 25 26  2  0
 26 27  1  0
 26 28  1  0
 28 29  2  0
 11 30  2  0
 30  7  1  0
 21 17  1  0
 29 23  1  0
  1 31  1  0
  1 32  1  0
  1 33  1  0
  3 34  1  0
  3 35  1  0
  8 36  1  0
  9 37  1  0
 10 38  1  0
 12 39  1  0
 12 40  1  0
 15 41  1  0
 16 42  1  0
 16 43  1  0
 17 44  1  1
 18 45  1  0
 18 46  1  0
 19 47  1  0
 19 48  1  0
 20 49  1  0
 20 50  1  0
 22 51  1  0
 22 52  1  0
 24 53  1  0
 25 54  1  0
 28 55  1  0
 29 56  1  0
 30 57  1  0
M  CHG  1   6  -1
M  END
>  <UniqueID>  (49) 
45

>  <SMILES>  (49) 
COCC(=O)[N-]c1cccc(CC(=O)NC[C@@H]2CCCN2Cc2ccc(F)cc2)c1

>  <Energy>  (49) 
67.84892796393571

>  <Genealogy>  (49) 
COCC(=O)[N-]c1cccc(CC(=O)NCC2CCCN2Cc2ccc(F)cc2)c1 (protonated)
COCC(=O)[N-]c1cccc(CC(=O)NC[C@@H]2CCCN2Cc2ccc(F)cc2)c1 (chirality)
COCC(=O)[N-]c1cccc(CC(=O)NC[C@@H]2CCCN2Cc2ccc(F)cc2)c1 (3D coordinates assigned)
COCC(=O)[N-]c1cccc(CC(=O)NC[C@@H]2CCCN2Cc2ccc(F)cc2)c1 (nonaromatic ring conformer: 67.84892796393571 kcal/mol)

>  <smiles>  (49) 
COCC(=O)Nc1cccc(CC(=O)NCC2CCCN2Cc2ccc(F)cc2)c1

>  <score_type>  (49) 
oracle

>  <origin>  (49) 
adg

>  <m_score__min__energy>  (49) 
-11.81

>  <m_primary>  (49) 
energy

$$$$
50:0
     RDKit          3D

 52 55  0  0  0  0  0  0  0  0999 V2000
   56.8880   29.8080   51.9910 N   0  0  0  0  0  0  0  0  0  0  0  0
   57.7880   30.0260   51.2970 C   0  0  0  0  0  0  0  0  0  0  0  0
   58.9070   30.2970   50.4320 C   0  0  0  0  0  0  0  0  0  0  0  0
   59.5990   29.2400   49.8320 C   0  0  0  0  0  0  0  0  0  0  0  0
   60.6770   29.5030   48.9820 C   0  0  0  0  0  0  0  0  0  0  0  0
   61.0660   30.8220   48.7300 C   0  0  0  0  0  0  0  0  0  0  0  0
   60.3850   31.8900   49.3360 C   0  0  0  0  0  0  0  0  0  0  0  0
   60.7730   33.3110   49.0290 C   0  0  0  0  0  0  0  0  0  0  0  0
   60.4040   33.6420   47.6530 N   0  0  0  0  0  0  0  0  0  0  0  0
   59.1760   33.6580   47.1150 C   0  0  0  0  0  0  0  0  0  0  0  0
   57.9990   33.4280   47.8200 O   0  0  0  0  0  0  0  0  0  0  0  0
   59.2790   33.9380   45.7690 C   0  0  0  0  0  0  0  0  0  0  0  0
   58.1460   34.1310   44.8110 C   0  0  0  0  0  0  0  0  0  0  0  0
   57.7940   32.8230   44.1590 C   0  0  0  0  0  0  0  0  0  0  0  0
   57.7680   32.7120   42.7610 C   0  0  0  0  0  0  0  0  0  0  0  0
   57.4000   31.5060   42.1580 C   0  0  0  0  0  0  0  0  0  0  0  0
   57.0570   30.4040   42.9440 C   0  0  0  0  0  0  0  0  0  0  0  0
   57.0860   30.4980   44.3430 C   0  0  0  0  0  0  0  0  0  0  0  0
   56.7340   29.3230   45.1620 C   0  0  0  0  0  0  0  0  0  0  0  0
   55.5270   28.9710   45.2360 O   0  0  0  0  0  0  0  0  0  0  0  0
   57.7270   28.5310   45.8340 N   0  0  0  0  0  0  0  0  0  0  0  0
   57.4700   27.4930   46.8310 C   0  0  0  0  0  0  0  0  0  0  0  0
   57.1760   26.1610   46.1810 C   0  0  0  0  0  0  0  0  0  0  0  0
   58.2320   25.2770   45.8960 C   0  0  0  0  0  0  0  0  0  0  0  0
   57.9780   24.0360   45.3070 C   0  0  0  0  0  0  0  0  0  0  0  0
   56.6690   23.6710   44.9800 C   0  0  0  0  0  0  0  0  0  0  0  0
   55.6140   24.5460   45.2420 C   0  0  0  0  0  0  0  0  0  0  0  0
   55.8590   25.7900   45.8340 C   0  0  0  0  0  0  0  0  0  0  0  0
   54.7900   26.6470   46.0700 O   0  0  0  0  0  0  0  0  0  0  0  0
   57.4340   31.7170   44.9460 C   0  0  0  0  0  0  0  0  0  0  0  0
   60.5800   34.1100   45.4460 N   0  0  0  0  0  0  0  0  0  0  0  0
   61.2270   33.9100   46.6160 C   0  0  0  0  0  0  0  0  0  0  0  0
   62.4800   33.9730   46.7220 O   0  0  0  0  0  0  0  0  0  0  0  0
   59.2930   31.6210   50.1790 C   0  0  0  0  0  0  0  0  0  0  0  0
   59.2948   28.2014   50.0291 H   0  0  0  0  0  0  0  0  0  0  0  0
   61.2202   28.6708   48.5105 H   0  0  0  0  0  0  0  0  0  0  0  0
   61.9097   31.0241   48.0537 H   0  0  0  0  0  0  0  0  0  0  0  0
   60.2505   33.9890   49.7198 H   0  0  0  0  0  0  0  0  0  0  0  0
   61.8606   33.4233   49.1491 H   0  0  0  0  0  0  0  0  0  0  0  0
   57.2701   34.5138   45.3554 H   0  0  0  0  0  0  0  0  0  0  0  0
   58.4479   34.8506   44.0358 H   0  0  0  0  0  0  0  0  0  0  0  0
   58.0381   33.5769   42.1372 H   0  0  0  0  0  0  0  0  0  0  0  0
   57.3805   31.4247   41.0612 H   0  0  0  0  0  0  0  0  0  0  0  0
   56.7630   29.4588   42.4642 H   0  0  0  0  0  0  0  0  0  0  0  0
   58.3558   27.3887   47.4748 H   0  0  0  0  0  0  0  0  0  0  0  0
   56.5903   27.7909   47.4203 H   0  0  0  0  0  0  0  0  0  0  0  0
   59.2656   25.5649   46.1387 H   0  0  0  0  0  0  0  0  0  0  0  0
   58.8089   23.3454   45.1004 H   0  0  0  0  0  0  0  0  0  0  0  0
   56.4704   22.6936   44.5160 H   0  0  0  0  0  0  0  0  0  0  0  0
   54.5851   24.2565   44.9820 H   0  0  0  0  0  0  0  0  0  0  0  0
   57.4246   31.8065   46.0423 H   0  0  0  0  0  0  0  0  0  0  0  0
   58.7396   32.4515   50.6416 H   0  0  0  0  0  0  0  0  0  0  0  0
  1  2  3  0
  2  3  1  0
  3  4  2  0
  4  5  1  0
  5  6  2  0
  6  7  1  0
  7  8  1  0
  8  9  1  0
  9 10  1  0
 10 11  1  0
 10 12  2  0
 12 13  1  0
 13 14  1  0
 14 15  2  0
 15 16  1  0
 16 17  2  0
 17 18  1  0
 18 19  1  0
 19 20  2  0
 19 21  1  0
 21 22  1  0
 22 23  1  0
 23 24  2  0
 24 25  1  0
 25 26  2  0
 26 27  1  0
 27 28  2  0
 28 29  1  0
 18 30  2  0
 12 31  1  0
 31 32  1  0
 32 33  2  0
  7 34  2  0
 34  3  1  0
 32  9  1  0
 30 14  1  0
 28 23  1  0
  4 35  1  0
  5 36  1  0
  6 37  1  0
  8 38  1  0
  8 39  1  0
 13 40  1  0
 13 41  1  0
 15 42  1  0
 16 43  1  0
 17 44  1  0
 22 45  1  0
 22 46  1  0
 24 47  1  0
 25 48  1  0
 26 49  1  0
 27 50  1  0
 30 51  1  0
 34 52  1  0
M  CHG  4  11  -1  21  -1  29  -1  31  -1
M  END
>  <UniqueID>  (50) 
46

>  <SMILES>  (50) 
N#Cc1cccc(Cn2c([O-])c(Cc3cccc(C(=O)[N-]Cc4ccccc4[O-])c3)[n-]c2=O)c1

>  <Energy>  (50) 
87.95099518369709

>  <Genealogy>  (50) 
N#Cc1cccc(Cn2c([O-])c(Cc3cccc(C(=O)[N-]Cc4ccccc4[O-])c3)[n-]c2=O)c1 (protonated)
N#Cc1cccc(Cn2c([O-])c(Cc3cccc(C(=O)[N-]Cc4ccccc4[O-])c3)[n-]c2=O)c1 (3D coordinates assigned)
N#Cc1cccc(Cn2c([O-])c(Cc3cccc(C(=O)[N-]Cc4ccccc4[O-])c3)[n-]c2=O)c1 (optimized conformer: 87.95099518369709 kcal/mol)

>  <smiles>  (50) 
N#Cc1cccc(Cn2c(O)c(Cc3cccc(C(=O)NCc4ccccc4O)c3)[nH]c2=O)c1

>  <score_type>  (50) 
oracle

>  <origin>  (50) 
adg

>  <m_score__min__energy>  (50) 
-17.859999999999999

>  <m_primary>  (50) 
energy

$$$$
51:0
     RDKit          3D

 49 52  0  0  0  0  0  0  0  0999 V2000
   57.7150   34.1970   45.5850 C   0  0  0  0  0  0  0  0  0  0  0  0
   57.7490   33.2040   47.1100 S   0  0  0  0  0  0  0  0  0  0  0  0
   58.1640   31.6780   46.2540 C   0  0  0  0  0  0  0  0  0  0  0  0
   57.4000   31.3140   45.1960 N   0  0  0  0  0  0  0  0  0  0  0  0
   57.6260   30.1700   44.5080 C   0  0  0  0  0  0  0  0  0  0  0  0
   56.8710   29.8870   43.5390 O   0  0  0  0  0  0  0  0  0  0  0  0
   58.6570   29.3380   44.8650 N   0  0  0  0  0  0  0  0  0  0  0  0
   58.8620   28.0570   44.1580 C   0  0  0  0  0  0  0  0  0  0  0  0
   57.8920   27.0210   44.6650 C   0  0  0  0  0  0  0  0  0  0  0  0
   57.7760   25.7790   44.0200 C   0  0  0  0  0  0  0  0  0  0  0  0
   56.9100   24.8030   44.5170 C   0  0  0  0  0  0  0  0  0  0  0  0
   56.1450   25.0470   45.6720 C   0  0  0  0  0  0  0  0  0  0  0  0
   55.2270   24.0060   46.2040 C   0  0  0  0  0  0  0  0  0  0  0  0
   54.0230   23.7070   45.5400 C   0  0  0  0  0  0  0  0  0  0  0  0
   53.1610   22.7270   46.0420 C   0  0  0  0  0  0  0  0  0  0  0  0
   53.4910   22.0360   47.2110 C   0  0  0  0  0  0  0  0  0  0  0  0
   54.6840   22.3230   47.8790 C   0  0  0  0  0  0  0  0  0  0  0  0
   55.5490   23.3030   47.3800 C   0  0  0  0  0  0  0  0  0  0  0  0
   56.2660   26.2910   46.3150 C   0  0  0  0  0  0  0  0  0  0  0  0
   57.1330   27.2670   45.8160 C   0  0  0  0  0  0  0  0  0  0  0  0
   59.4690   29.6780   45.9190 C   0  0  0  0  0  0  0  0  0  0  0  0
   60.4260   28.9240   46.2480 O   0  0  0  0  0  0  0  0  0  0  0  0
   59.2450   30.8680   46.6440 C   0  0  0  0  0  0  0  0  0  0  0  0
   60.1390   31.2470   47.8110 C   0  0  0  0  0  0  0  0  0  0  0  0
   61.2740   32.1350   47.3740 C   0  0  0  0  0  0  0  0  0  0  0  0
   62.6080   31.7460   47.5550 C   0  0  0  0  0  0  0  0  0  0  0  0
   63.6170   32.5620   47.1570 N   0  0  0  0  0  0  0  0  0  0  0  0
   63.3570   33.7690   46.5890 C   0  0  0  0  0  0  0  0  0  0  0  0
   62.0740   34.1770   46.4160 N   0  0  0  0  0  0  0  0  0  0  0  0
   61.0340   33.3910   46.7980 C   0  0  0  0  0  0  0  0  0  0  0  0
   57.6784   35.2655   45.8439 H   0  0  0  0  0  0  0  0  0  0  0  0
   58.6206   33.9936   44.9947 H   0  0  0  0  0  0  0  0  0  0  0  0
   56.8254   33.9321   44.9947 H   0  0  0  0  0  0  0  0  0  0  0  0
   58.7023   28.2074   43.0801 H   0  0  0  0  0  0  0  0  0  0  0  0
   59.8887   27.7068   44.3406 H   0  0  0  0  0  0  0  0  0  0  0  0
   58.3710   25.5738   43.1178 H   0  0  0  0  0  0  0  0  0  0  0  0
   56.8253   23.8352   44.0011 H   0  0  0  0  0  0  0  0  0  0  0  0
   53.7580   24.2479   44.6196 H   0  0  0  0  0  0  0  0  0  0  0  0
   52.2220   22.4997   45.5161 H   0  0  0  0  0  0  0  0  0  0  0  0
   52.8114   21.2661   47.6052 H   0  0  0  0  0  0  0  0  0  0  0  0
   54.9436   21.7778   48.7984 H   0  0  0  0  0  0  0  0  0  0  0  0
   56.4868   23.5255   47.9102 H   0  0  0  0  0  0  0  0  0  0  0  0
   55.6735   26.4981   47.2183 H   0  0  0  0  0  0  0  0  0  0  0  0
   57.2199   28.2352   46.3309 H   0  0  0  0  0  0  0  0  0  0  0  0
   59.5381   31.7796   48.5628 H   0  0  0  0  0  0  0  0  0  0  0  0
   60.5660   30.3244   48.2312 H   0  0  0  0  0  0  0  0  0  0  0  0
   62.8381   30.7765   48.0210 H   0  0  0  0  0  0  0  0  0  0  0  0
   64.1871   34.4160   46.2691 H   0  0  0  0  0  0  0  0  0  0  0  0
   60.0009   33.7406   46.6552 H   0  0  0  0  0  0  0  0  0  0  0  0
  1  2  1  0
  2  3  1  0
  3  4  1  0
  4  5  1  0
  5  6  2  0
  5  7  1  0
  7  8  1  0
  8  9  1  0
  9 10  2  0
 10 11  1  0
 11 12  2  0
 12 13  1  0
 13 14  2  0
 14 15  1  0
 15 16  2  0
 16 17  1  0
 17 18  2  0
 12 19  1  0
 19 20  2  0
  7 21  1  0
 21 22  2  0
 21 23  1  0
 23 24  1  0
 24 25  1  0
 25 26  2  0
 26 27  1  0
 27 28  2  0
 28 29  1  0
 29 30  2  0
 23  3  2  0
 30 25  1  0
 20  9  1  0
 18 13  1  0
  1 31  1  0
  1 32  1  0
  1 33  1  0
  8 34  1  0
  8 35  1  0
 10 36  1  0
 11 37  1  0
 14 38  1  0
 15 39  1  0
 16 40  1  0
 17 41  1  0
 18 42  1  0
 19 43  1  0
 20 44  1  0
 24 45  1  0
 24 46  1  0
 26 47  1  0
 28 48  1  0
 30 49  1  0
M  CHG  1   4  -1
M  END
>  <UniqueID>  (51) 
47

>  <SMILES>  (51) 
CSc1[n-]c(=O)n(Cc2ccc(-c3ccccc3)cc2)c(=O)c1Cc1cncnc1

>  <Energy>  (51) 
60.912476721027296

>  <Genealogy>  (51) 
CSc1[n-]c(=O)n(Cc2ccc(-c3ccccc3)cc2)c(=O)c1Cc1cncnc1 (protonated)
CSc1[n-]c(=O)n(Cc2ccc(-c3ccccc3)cc2)c(=O)c1Cc1cncnc1 (3D coordinates assigned)
CSc1[n-]c(=O)n(Cc2ccc(-c3ccccc3)cc2)c(=O)c1Cc1cncnc1 (optimized conformer: 60.912476721027296 kcal/mol)

>  <smiles>  (51) 
CSc1[nH]c(=O)n(Cc2ccc(-c3ccccc3)cc2)c(=O)c1Cc1cncnc1

>  <score_type>  (51) 
oracle

>  <origin>  (51) 
adg

>  <m_score__min__energy>  (51) 
-9.4800000000000004

>  <m_primary>  (51) 
energy

$$$$
52:0
     RDKit          3D

 54 57  0  0  1  0  0  0  0  0999 V2000
   58.2540   25.8140   45.2990 C   0  0  0  0  0  0  0  0  0  0  0  0
   57.6520   27.1440   45.1340 C   0  0  0  0  0  0  0  0  0  0  0  0
   57.7810   27.9750   44.0140 C   0  0  0  0  0  0  0  0  0  0  0  0
   57.0560   29.0970   44.3190 C   0  0  0  0  0  0  0  0  0  0  0  0
   56.8480   30.3040   43.4980 C   0  0  0  0  0  0  0  0  0  0  0  0
   56.7030   30.2430   42.2450 O   0  0  0  0  0  0  0  0  0  0  0  0
   56.8200   31.5370   44.2160 N   0  0  0  0  0  0  0  0  0  0  0  0
   57.8050   31.9290   44.9480 C   0  0  0  0  0  0  0  0  0  0  0  0
   58.7920   31.1370   45.3500 N   0  0  0  0  0  0  0  0  0  0  0  0
   59.6190   31.8670   46.0760 N   0  0  0  0  0  0  0  0  0  0  0  0
   59.1760   33.1430   46.1550 C   0  0  0  0  0  0  0  0  0  0  0  0
   59.8760   34.1860   46.8940 C   0  0  0  0  0  0  0  0  0  0  0  0
   59.3330   35.3100   47.1080 O   0  0  0  0  0  0  0  0  0  0  0  0
   61.2070   33.8970   47.3700 N   0  0  0  0  0  0  0  0  0  0  0  0
   62.3270   33.8310   46.4180 C   0  0  0  0  0  0  0  0  0  0  0  0
   63.2570   32.7110   46.8400 C   0  0  0  0  0  0  0  0  0  0  0  0
   63.8170   33.1660   48.1840 C   0  0  0  0  0  0  0  0  0  0  0  0
   62.7200   33.1480   49.1880 C   0  0  0  0  0  0  0  0  0  0  0  0
   61.4090   33.6910   48.7660 C   0  0  2  0  0  0  0  0  0  0  0  0
   60.3630   32.7240   49.2500 C   0  0  0  0  0  0  0  0  0  0  0  0
   59.3550   33.1070   50.1080 C   0  0  0  0  0  0  0  0  0  0  0  0
   58.3880   32.1890   50.5320 C   0  0  0  0  0  0  0  0  0  0  0  0
   58.4510   30.8680   50.0760 C   0  0  0  0  0  0  0  0  0  0  0  0
   59.4690   30.4660   49.2040 C   0  0  0  0  0  0  0  0  0  0  0  0
   59.5350   29.0780   48.7170 C   0  0  0  0  0  0  0  0  0  0  0  0
   58.5030   28.6060   47.8600 N   0  0  0  0  0  0  0  0  0  0  0  0
   60.5030   28.3560   49.0740 O   0  0  0  0  0  0  0  0  0  0  0  0
   60.3930   31.4050   48.8180 C   0  0  0  0  0  0  0  0  0  0  0  0
   58.0090   33.1900   45.4300 C   0  0  0  0  0  0  0  0  0  0  0  0
   57.0150   34.5850   45.1920 Cl  0  0  0  0  0  0  0  0  0  0  0  0
   56.5220   28.9530   45.5510 N   0  0  0  0  0  0  0  0  0  0  0  0
   56.8790   27.7640   46.0580 N   0  0  0  0  0  0  0  0  0  0  0  0
   58.3562   25.5882   46.3707 H   0  0  0  0  0  0  0  0  0  0  0  0
   57.6100   25.0587   44.8249 H   0  0  0  0  0  0  0  0  0  0  0  0
   59.2465   25.7994   44.8249 H   0  0  0  0  0  0  0  0  0  0  0  0
   58.3424   27.7712   43.0902 H   0  0  0  0  0  0  0  0  0  0  0  0
   58.8920   30.1320   45.1320 H   0  0  0  0  0  0  0  0  0  0  0  0
   60.5000   31.4900   46.5280 H   0  0  0  0  0  0  0  0  0  0  0  0
   61.9423   33.6317   45.4069 H   0  0  0  0  0  0  0  0  0  0  0  0
   62.8704   34.7874   46.4112 H   0  0  0  0  0  0  0  0  0  0  0  0
   62.7039   31.7664   46.9489 H   0  0  0  0  0  0  0  0  0  0  0  0
   64.0481   32.5225   46.0993 H   0  0  0  0  0  0  0  0  0  0  0  0
   64.6198   32.4839   48.5006 H   0  0  0  0  0  0  0  0  0  0  0  0
   64.2267   34.1829   48.0945 H   0  0  0  0  0  0  0  0  0  0  0  0
   62.5636   32.1016   49.4889 H   0  0  0  0  0  0  0  0  0  0  0  0
   63.0595   33.8180   49.9917 H   0  0  0  0  0  0  0  0  0  0  0  0
   61.3523   34.6999   49.2005 H   0  0  0  0  0  0  0  0  0  0  0  0
   59.3101   34.1469   50.4638 H   0  0  0  0  0  0  0  0  0  0  0  0
   57.5864   32.5028   51.2169 H   0  0  0  0  0  0  0  0  0  0  0  0
   57.6949   30.1400   50.4052 H   0  0  0  0  0  0  0  0  0  0  0  0
   57.7720   27.9350   48.1190 H   0  0  0  0  0  0  0  0  0  0  0  0
   58.5200   29.0030   46.8750 H   0  0  0  0  0  0  0  0  0  0  0  0
   61.1966   31.0972   48.1328 H   0  0  0  0  0  0  0  0  0  0  0  0
   55.9150   29.6130   46.0960 H   0  0  0  0  0  0  0  0  0  0  0  0
  1  2  1  0
  2  3  1  0
  3  4  2  0
  4  5  1  0
  5  6  2  0
  5  7  1  0
  7  8  2  0
  8  9  1  0
  9 10  1  0
 10 11  1  0
 11 12  1  0
 12 13  2  0
 12 14  1  0
 14 15  1  0
 15 16  1  0
 16 17  1  0
 17 18  1  0
 18 19  1  0
 19 20  1  0
 20 21  2  0
 21 22  1  0
 22 23  2  0
 23 24  1  0
 24 25  1  0
 25 26  1  0
 25 27  2  0
 24 28  2  0
 11 29  2  0
 29 30  1  0
  4 31  1  0
 31 32  1  0
 32  2  2  0
 29  8  1  0
 19 14  1  0
 28 20  1  0
  1 33  1  0
  1 34  1  0
  1 35  1  0
  3 36  1  0
  9 37  1  0
 10 38  1  0
 15 39  1  0
 15 40  1  0
 16 41  1  0
 16 42  1  0
 17 43  1  0
 17 44  1  0
 18 45  1  0
 18 46  1  0
 19 47  1  1
 21 48  1  0
 22 49  1  0
 23 50  1  0
 26 51  1  0
 26 52  1  0
 28 53  1  0
 31 54  1  0
M  END
>  <smiles>  (52) 
Cc1cc(C(=O)N=c2[nH][nH]c(C(=O)N3CCCCC3c3cccc(C(N)=O)c3)c2Cl)[nH]n1

>  <score_type>  (52) 
oracle

>  <origin>  (52) 
adg

>  <m_score__min__energy>  (52) 
-11.130000000000001

>  <m_primary>  (52) 
energy

$$$$
53:0
     RDKit          3D

 66 70  0  0  0  0  0  0  0  0999 V2000
   58.1910   30.0740   52.0940 C   0  0  0  0  0  0  0  0  0  0  0  0
   58.5230   31.4200   52.7010 C   0  0  0  0  0  0  0  0  0  0  0  0
   58.2690   31.5310   54.0570 N   0  0  0  0  0  0  0  0  0  0  0  0
   58.7670   33.1200   54.5310 S   0  0  0  0  0  0  0  0  0  0  0  0
   59.3170   33.6120   52.8690 N   0  0  0  0  0  0  0  0  0  0  0  0
   59.0350   32.4210   52.0890 C   0  0  0  0  0  0  0  0  0  0  0  0
   59.3990   32.6770   50.6730 N   0  0  0  0  0  0  0  0  0  0  0  0
   60.5000   33.5320   50.3620 C   0  0  0  0  0  0  0  0  0  0  0  0
   61.4470   33.1590   49.3310 C   0  0  0  0  0  0  0  0  0  0  0  0
   61.5490   34.0120   48.2270 C   0  0  0  0  0  0  0  0  0  0  0  0
   62.3820   33.7930   47.1640 C   0  0  0  0  0  0  0  0  0  0  0  0
   63.1820   32.6780   47.1450 C   0  0  0  0  0  0  0  0  0  0  0  0
   63.1020   31.8210   48.2180 C   0  0  0  0  0  0  0  0  0  0  0  0
   62.2520   32.0460   49.3000 C   0  0  0  0  0  0  0  0  0  0  0  0
   62.2310   31.0680   50.4160 C   0  0  0  0  0  0  0  0  0  0  0  0
   61.2330   30.1410   50.3270 F   0  0  0  0  0  0  0  0  0  0  0  0
   63.4730   30.4570   50.4580 F   0  0  0  0  0  0  0  0  0  0  0  0
   62.1350   31.7580   51.6430 F   0  0  0  0  0  0  0  0  0  0  0  0
   58.5910   31.9300   49.7550 C   0  0  0  0  0  0  0  0  0  0  0  0
   58.6250   32.2840   48.3470 C   0  0  0  0  0  0  0  0  0  0  0  0
   58.1450   33.4780   47.8340 C   0  0  0  0  0  0  0  0  0  0  0  0
   58.1300   33.7790   46.4930 C   0  0  0  0  0  0  0  0  0  0  0  0
   58.6120   32.8650   45.5800 C   0  0  0  0  0  0  0  0  0  0  0  0
   58.6020   33.1620   44.1360 C   0  0  0  0  0  0  0  0  0  0  0  0
   59.2300   34.1780   43.7510 O   0  0  0  0  0  0  0  0  0  0  0  0
   57.8900   32.2820   43.3090 N   0  0  0  0  0  0  0  0  0  0  0  0
   57.2020   31.2700   43.6670 C   0  0  0  0  0  0  0  0  0  0  0  0
   56.3620   31.2990   44.7350 N   0  0  0  0  0  0  0  0  0  0  0  0
   55.7980   30.1350   44.8630 N   0  0  0  0  0  0  0  0  0  0  0  0
   56.2400   29.3330   43.9090 N   0  0  0  0  0  0  0  0  0  0  0  0
   57.0980   30.0320   43.1810 N   0  0  0  0  0  0  0  0  0  0  0  0
   59.0800   31.7100   46.0640 N   0  0  0  0  0  0  0  0  0  0  0  0
   59.1070   31.3910   47.3680 C   0  0  0  0  0  0  0  0  0  0  0  0
   59.6280   30.1390   47.7640 O   0  0  0  0  0  0  0  0  0  0  0  0
   60.0750   29.2700   46.7440 C   0  0  0  0  0  0  0  0  0  0  0  0
   59.5300   27.8790   47.0690 C   0  0  0  0  0  0  0  0  0  0  0  0
   58.9060   27.3090   45.8390 C   0  0  0  0  0  0  0  0  0  0  0  0
   58.1230   26.1580   45.8800 C   0  0  0  0  0  0  0  0  0  0  0  0
   57.5420   25.6240   44.7430 C   0  0  0  0  0  0  0  0  0  0  0  0
   57.7700   26.2810   43.5540 C   0  0  0  0  0  0  0  0  0  0  0  0
   58.5440   27.4300   43.4760 C   0  0  0  0  0  0  0  0  0  0  0  0
   59.1050   27.9300   44.6310 C   0  0  0  0  0  0  0  0  0  0  0  0
   58.0110   29.3440   52.8970 H   0  0  0  0  0  0  0  0  0  0  0  0
   57.2884   30.1649   51.4719 H   0  0  0  0  0  0  0  0  0  0  0  0
   59.0324   29.7347   51.4719 H   0  0  0  0  0  0  0  0  0  0  0  0
   60.0732   34.5009   50.0636 H   0  0  0  0  0  0  0  0  0  0  0  0
   61.1058   33.5023   51.2797 H   0  0  0  0  0  0  0  0  0  0  0  0
   60.9206   34.9147   48.2126 H   0  0  0  0  0  0  0  0  0  0  0  0
   62.4104   34.5075   46.3282 H   0  0  0  0  0  0  0  0  0  0  0  0
   63.8615   32.4773   46.3036 H   0  0  0  0  0  0  0  0  0  0  0  0
   63.7347   30.9212   48.2226 H   0  0  0  0  0  0  0  0  0  0  0  0
   58.9026   30.8779   49.8317 H   0  0  0  0  0  0  0  0  0  0  0  0
   57.5594   32.1569   50.0621 H   0  0  0  0  0  0  0  0  0  0  0  0
   57.7542   34.2266   48.5389 H   0  0  0  0  0  0  0  0  0  0  0  0
   57.7346   34.7462   46.1491 H   0  0  0  0  0  0  0  0  0  0  0  0
   55.9660   28.3150   43.7480 H   0  0  0  0  0  0  0  0  0  0  0  0
   57.6220   29.6810   42.3530 H   0  0  0  0  0  0  0  0  0  0  0  0
   59.6944   29.6060   45.7682 H   0  0  0  0  0  0  0  0  0  0  0  0
   61.1737   29.2583   46.6927 H   0  0  0  0  0  0  0  0  0  0  0  0
   60.3518   27.2283   47.4025 H   0  0  0  0  0  0  0  0  0  0  0  0
   58.7805   27.9486   47.8711 H   0  0  0  0  0  0  0  0  0  0  0  0
   57.9613   25.6577   46.8462 H   0  0  0  0  0  0  0  0  0  0  0  0
   56.9250   24.7144   44.7869 H   0  0  0  0  0  0  0  0  0  0  0  0
   57.3222   25.8802   42.6327 H   0  0  0  0  0  0  0  0  0  0  0  0
   58.7066   27.9320   42.5108 H   0  0  0  0  0  0  0  0  0  0  0  0
   59.7213   28.8400   44.5844 H   0  0  0  0  0  0  0  0  0  0  0  0
  1  2  1  0
  2  3  2  0
  3  4  1  0
  4  5  1  0
  5  6  2  0
  6  7  1  0
  7  8  1  0
  8  9  1  0
  9 10  2  0
 10 11  1  0
 11 12  2  0
 12 13  1  0
 13 14  2  0
 14 15  1  0
 15 16  1  0
 15 17  1  0
 15 18  1  0
  7 19  1  0
 19 20  1  0
 20 21  2  0
 21 22  1  0
 22 23  2  0
 23 24  1  0
 24 25  2  0
 24 26  1  0
 26 27  2  3
 27 28  1  0
 28 29  2  0
 29 30  1  0
 30 31  1  0
 23 32  1  0
 32 33  2  0
 33 34  1  0
 34 35  1  0
 35 36  1  0
 36 37  1  0
 37 38  2  0
 38 39  1  0
 39 40  2  0
 40 41  1  0
 41 42  2  0
  6  2  1  0
 14  9  1  0
 33 20  1  0
 42 37  1  0
 31 27  1  0
  1 43  1  0
  1 44  1  0
  1 45  1  0
  8 46  1  0
  8 47  1  0
 10 48  1  0
 11 49  1  0
 12 50  1  0
 13 51  1  0
 19 52  1  0
 19 53  1  0
 21 54  1  0
 22 55  1  0
 30 56  1  0
 31 57  1  0
 35 58  1  0
 35 59  1  0
 36 60  1  0
 36 61  1  0
 38 62  1  0
 39 63  1  0
 40 64  1  0
 41 65  1  0
 42 66  1  0
M  END
>  <smiles>  (53) 
Cc1nsnc1N(Cc1ccccc1C(F)(F)F)Cc1ccc(C(=O)N=c2nn[nH][nH]2)nc1OCCc1ccccc1

>  <score_type>  (53) 
oracle

>  <origin>  (53) 
adg

>  <m_score__min__energy>  (53) 
-11.19

>  <m_primary>  (53) 
energy

$$$$
54:0
     RDKit          3D

 47 50  0  0  0  0  0  0  0  0999 V2000
   55.6250   27.0800   46.7520 H   0  0  0  0  0  0  0  0  0  0  0  0
   55.0530   26.3360   46.2930 N   0  0  0  0  0  0  0  0  0  0  0  0
   55.6020   25.3560   45.6470 C   0  0  0  0  0  0  0  0  0  0  0  0
   54.9010   24.2030   45.4610 N   0  0  0  0  0  0  0  0  0  0  0  0
   55.4350   23.1260   44.8310 C   0  0  0  0  0  0  0  0  0  0  0  0
   54.8323   22.2167   44.6898 H   0  0  0  0  0  0  0  0  0  0  0  0
   56.7470   23.1720   44.3630 C   0  0  0  0  0  0  0  0  0  0  0  0
   57.1888   22.2981   43.8619 H   0  0  0  0  0  0  0  0  0  0  0  0
   57.4940   24.3360   44.5360 C   0  0  0  0  0  0  0  0  0  0  0  0
   58.5324   24.3775   44.1755 H   0  0  0  0  0  0  0  0  0  0  0  0
   56.9290   25.4570   45.1680 C   0  0  0  0  0  0  0  0  0  0  0  0
   57.7500   26.6810   45.3290 C   0  0  0  0  0  0  0  0  0  0  0  0
   57.8040   27.2900   46.5470 N   0  0  0  0  0  0  0  0  0  0  0  0
   58.5510   28.4030   46.7680 C   0  0  0  0  0  0  0  0  0  0  0  0
   58.5680   28.9990   48.0320 C   0  0  0  0  0  0  0  0  0  0  0  0
   57.9742   28.5657   48.8503 H   0  0  0  0  0  0  0  0  0  0  0  0
   59.3370   30.1440   48.2600 C   0  0  0  0  0  0  0  0  0  0  0  0
   59.3436   30.6088   49.2570 H   0  0  0  0  0  0  0  0  0  0  0  0
   60.1050   30.7070   47.2180 C   0  0  0  0  0  0  0  0  0  0  0  0
   60.8960   31.8540   47.3930 O   0  0  0  0  0  0  0  0  0  0  0  0
   60.4120   33.1970   47.4400 C   0  0  0  0  0  0  0  0  0  0  0  0
   59.5962   33.2619   48.1750 H   0  0  0  0  0  0  0  0  0  0  0  0
   61.2386   33.8623   47.7299 H   0  0  0  0  0  0  0  0  0  0  0  0
   59.8880   33.6290   46.0660 C   0  0  0  0  0  0  0  0  0  0  0  0
   60.3440   34.5925   45.7944 H   0  0  0  0  0  0  0  0  0  0  0  0
   60.1539   32.8544   45.3316 H   0  0  0  0  0  0  0  0  0  0  0  0
   58.3660   33.7830   46.0800 C   0  0  0  0  0  0  0  0  0  0  0  0
   58.0669   34.3414   46.9793 H   0  0  0  0  0  0  0  0  0  0  0  0
   58.0551   34.3262   45.1754 H   0  0  0  0  0  0  0  0  0  0  0  0
   57.7340   32.5030   46.0900 O   0  0  0  0  0  0  0  0  0  0  0  0
   57.3770   31.8090   44.9290 C   0  0  0  0  0  0  0  0  0  0  0  0
   56.6520   30.6550   44.9960 N   0  0  0  0  0  0  0  0  0  0  0  0
   56.2930   29.9670   43.8810 C   0  0  0  0  0  0  0  0  0  0  0  0
   55.7064   29.0408   43.9712 H   0  0  0  0  0  0  0  0  0  0  0  0
   56.6690   30.4360   42.6190 C   0  0  0  0  0  0  0  0  0  0  0  0
   56.3818   29.8838   41.7120 H   0  0  0  0  0  0  0  0  0  0  0  0
   57.4130   31.6130   42.5230 C   0  0  0  0  0  0  0  0  0  0  0  0
   57.7167   31.9948   41.5371 H   0  0  0  0  0  0  0  0  0  0  0  0
   57.7710   32.3050   43.6830 C   0  0  0  0  0  0  0  0  0  0  0  0
   58.3582   33.2327   43.6161 H   0  0  0  0  0  0  0  0  0  0  0  0
   60.0820   30.1100   45.9520 C   0  0  0  0  0  0  0  0  0  0  0  0
   60.6731   30.5452   45.1327 H   0  0  0  0  0  0  0  0  0  0  0  0
   59.3110   28.9610   45.7200 C   0  0  0  0  0  0  0  0  0  0  0  0
   59.2840   28.3450   44.4630 C   0  0  0  0  0  0  0  0  0  0  0  0
   59.8724   28.7618   43.6323 H   0  0  0  0  0  0  0  0  0  0  0  0
   58.5090   27.2010   44.2660 C   0  0  0  0  0  0  0  0  0  0  0  0
   58.4922   26.7082   43.2827 H   0  0  0  0  0  0  0  0  0  0  0  0
  1  2  1  0
  2  3  2  0
  3  4  1  0
  4  5  1  0
  5  6  1  0
  5  7  2  0
  7  8  1  0
  7  9  1  0
  9 10  1  0
  9 11  2  0
 11 12  1  0
 12 13  2  0
 13 14  1  0
 14 15  2  0
 15 16  1  0
 15 17  1  0
 17 18  1  0
 17 19  2  0
 19 20  1  0
 20 21  1  0
 21 22  1  0
 21 23  1  0
 21 24  1  0
 24 25  1  0
 24 26  1  0
 24 27  1  0
 27 28  1  0
 27 29  1  0
 27 30  1  0
 30 31  1  0
 31 32  2  0
 32 33  1  0
 33 34  1  0
 33 35  2  0
 35 36  1  0
 35 37  1  0
 37 38  1  0
 37 39  2  0
 39 40  1  0
 19 41  1  0
 41 42  1  0
 41 43  2  0
 43 44  1  0
 44 45  1  0
 44 46  2  0
 46 47  1  0
 11  3  1  0
 46 12  1  0
 43 14  1  0
 39 31  1  0
M  CHG  1   4  -1
M  END
>  <UniqueID>  (54) 
48

>  <SMILES>  (54) 
[H]/N=c1\[n-]cccc1-c1ccc2cc(OCCCOc3ccccn3)ccc2n1

>  <Energy>  (54) 
57.67831304546391

>  <Genealogy>  (54) 
N=c1[n-]cccc1-c1ccc2cc(OCCCOc3ccccn3)ccc2n1 (protonated)
[H]/N=c1\[n-]cccc1-c1ccc2cc(OCCCOc3ccccn3)ccc2n1 (cis-trans isomerization)
[H]/N=c1\[n-]cccc1-c1ccc2cc(OCCCOc3ccccn3)ccc2n1 (3D coordinates assigned)
[H]/N=c1\[n-]cccc1-c1ccc2cc(OCCCOc3ccccn3)ccc2n1 (optimized conformer: 57.67831304546391 kcal/mol)

>  <smiles>  (54) 
N=c1[nH]cccc1-c1ccc2cc(OCCCOc3ccccn3)ccc2n1

>  <score_type>  (54) 
oracle

>  <origin>  (54) 
adg

>  <m_score__min__energy>  (54) 
-10.66

>  <m_primary>  (54) 
energy

$$$$
55:0
     RDKit          3D

 47 49  0  0  0  0  0  0  0  0999 V2000
   57.7280   32.3010   42.4430 C   0  0  0  0  0  0  0  0  0  0  0  0
   58.4300   33.0810   43.2620 C   0  0  0  0  0  0  0  0  0  0  0  0
   58.0220   33.3390   44.6600 C   0  0  0  0  0  0  0  0  0  0  0  0
   56.9100   33.8900   44.8970 O   0  0  0  0  0  0  0  0  0  0  0  0
   58.8680   32.9150   45.7550 N   0  0  0  0  0  0  0  0  0  0  0  0
   59.7610   34.0130   46.1820 C   0  0  0  0  0  0  0  0  0  0  0  0
   60.8090   33.4830   47.1710 C   0  0  0  0  0  0  0  0  0  0  0  0
   60.2370   32.4400   48.0280 N   0  0  0  0  0  0  0  0  0  0  0  0
   61.1120   31.6530   48.8550 C   0  0  0  0  0  0  0  0  0  0  0  0
   62.0910   32.2100   49.4220 O   0  0  0  0  0  0  0  0  0  0  0  0
   60.9030   30.1960   49.0250 C   0  0  0  0  0  0  0  0  0  0  0  0
   61.3070   29.5550   50.2080 C   0  0  0  0  0  0  0  0  0  0  0  0
   61.1050   28.1830   50.3720 C   0  0  0  0  0  0  0  0  0  0  0  0
   60.5150   27.4330   49.3530 C   0  0  0  0  0  0  0  0  0  0  0  0
   60.1470   28.0490   48.1480 C   0  0  0  0  0  0  0  0  0  0  0  0
   59.4800   27.2800   47.0790 C   0  0  0  0  0  0  0  0  0  0  0  0
   58.3290   27.6150   46.4570 C   0  0  0  0  0  0  0  0  0  0  0  0
   57.2830   26.7520   46.5840 N   0  0  0  0  0  0  0  0  0  0  0  0
   56.0840   26.9810   45.9940 C   0  0  0  0  0  0  0  0  0  0  0  0
   55.1480   26.1530   46.1310 O   0  0  0  0  0  0  0  0  0  0  0  0
   55.8950   28.1000   45.2540 N   0  0  0  0  0  0  0  0  0  0  0  0
   56.8830   29.0190   45.0940 C   0  0  0  0  0  0  0  0  0  0  0  0
   56.6320   30.1080   44.3600 C   0  0  0  0  0  0  0  0  0  0  0  0
   58.1350   28.8070   45.7110 C   0  0  0  0  0  0  0  0  0  0  0  0
   59.0400   29.6830   45.6210 O   0  0  0  0  0  0  0  0  0  0  0  0
   60.3240   29.4320   47.9960 C   0  0  0  0  0  0  0  0  0  0  0  0
   58.7820   32.3910   48.2260 C   0  0  0  0  0  0  0  0  0  0  0  0
   58.0320   32.4210   46.8760 C   0  0  0  0  0  0  0  0  0  0  0  0
   58.0707   32.1381   41.4105 H   0  0  0  0  0  0  0  0  0  0  0  0
   56.8052   31.8194   42.7987 H   0  0  0  0  0  0  0  0  0  0  0  0
   59.3495   33.5521   42.8843 H   0  0  0  0  0  0  0  0  0  0  0  0
   59.4710   32.1240   45.4220 H   0  0  0  0  0  0  0  0  0  0  0  0
   60.2701   34.4318   45.3014 H   0  0  0  0  0  0  0  0  0  0  0  0
   59.1629   34.7943   46.6738 H   0  0  0  0  0  0  0  0  0  0  0  0
   61.6557   33.0629   46.6083 H   0  0  0  0  0  0  0  0  0  0  0  0
   61.1461   34.3152   47.8064 H   0  0  0  0  0  0  0  0  0  0  0  0
   61.7851   30.1371   51.0096 H   0  0  0  0  0  0  0  0  0  0  0  0
   61.4118   27.6916   51.3071 H   0  0  0  0  0  0  0  0  0  0  0  0
   60.3384   26.3567   49.4955 H   0  0  0  0  0  0  0  0  0  0  0  0
   59.9660   26.3465   46.7590 H   0  0  0  0  0  0  0  0  0  0  0  0
   57.4154   30.8666   44.2157 H   0  0  0  0  0  0  0  0  0  0  0  0
   55.6421   30.2454   43.9005 H   0  0  0  0  0  0  0  0  0  0  0  0
   60.0073   29.9232   47.0641 H   0  0  0  0  0  0  0  0  0  0  0  0
   58.5237   31.4642   48.7592 H   0  0  0  0  0  0  0  0  0  0  0  0
   58.4807   33.2725   48.8109 H   0  0  0  0  0  0  0  0  0  0  0  0
   57.6971   31.4003   46.6392 H   0  0  0  0  0  0  0  0  0  0  0  0
   57.1876   33.1174   46.9861 H   0  0  0  0  0  0  0  0  0  0  0  0
  1  2  2  0
  2  3  1  0
  3  4  2  0
  3  5  1  0
  5  6  1  0
  6  7  1  0
  7  8  1  0
  8  9  1  0
  9 10  2  0
  9 11  1  0
 11 12  2  0
 12 13  1  0
 13 14  2  0
 14 15  1  0
 15 16  1  0
 16 17  2  3
 17 18  1  0
 18 19  1  0
 19 20  2  0
 19 21  1  0
 21 22  1  0
 22 23  2  0
 22 24  1  0
 24 25  2  0
 15 26  2  0
  8 27  1  0
 27 28  1  0
 28  5  1  0
 26 11  1  0
 24 17  1  0
  1 29  1  0
  1 30  1  0
  2 31  1  0
  5 32  1  0
  6 33  1  0
  6 34  1  0
  7 35  1  0
  7 36  1  0
 12 37  1  0
 13 38  1  0
 14 39  1  0
 16 40  1  0
 23 41  1  0
 23 42  1  0
 26 43  1  0
 27 44  1  0
 27 45  1  0
 28 46  1  0
 28 47  1  0
M  CHG  3   5   1  18  -1  21  -1
M  END
>  <UniqueID>  (55) 
49

>  <SMILES>  (55) 
C=CC(=O)[NH+]1CCN(C(=O)c2cccc(C=c3[n-]c(=O)[n-]c(=C)c3=O)c2)CC1

>  <Energy>  (55) 
73.20832232998389

>  <Genealogy>  (55) 
C=CC(=O)[NH+]1CCN(C(=O)c2cccc(C=c3[n-]c(=O)[n-]c(=C)c3=O)c2)CC1 (protonated)
C=CC(=O)[NH+]1CCN(C(=O)c2cccc(C=c3[n-]c(=O)[n-]c(=C)c3=O)c2)CC1 (3D coordinates assigned)
C=CC(=O)[NH+]1CCN(C(=O)c2cccc(C=c3[n-]c(=O)[n-]c(=C)c3=O)c2)CC1 (nonaromatic ring conformer: 73.20832232998389 kcal/mol)

>  <smiles>  (55) 
C=CC(=O)N1CCN(C(=O)c2cccc(C=c3[nH]c(=O)[nH]c(=C)c3=O)c2)CC1

>  <score_type>  (55) 
oracle

>  <origin>  (55) 
adg

>  <m_score__min__energy>  (55) 
-11.140000000000001

>  <m_primary>  (55) 
energy

$$$$
56:0
     RDKit          3D

 62 65  0  0  0  0  0  0  0  0999 V2000
   58.6230   27.8670   47.2220 C   0  0  0  0  0  0  0  0  0  0  0  0
   58.4420   28.4900   46.0470 C   0  0  0  0  0  0  0  0  0  0  0  0
   57.8310   27.9650   44.8950 C   0  0  0  0  0  0  0  0  0  0  0  0
   57.4760   26.7050   44.5790 C   0  0  0  0  0  0  0  0  0  0  0  0
   56.9740   25.6910   45.5240 C   0  0  0  0  0  0  0  0  0  0  0  0
   57.5940   24.5280   45.7980 N   0  0  0  0  0  0  0  0  0  0  0  0
   56.7030   23.8730   46.5730 C   0  0  0  0  0  0  0  0  0  0  0  0
   56.9320   22.7320   47.0510 O   0  0  0  0  0  0  0  0  0  0  0  0
   55.5420   24.5320   46.7810 N   0  0  0  0  0  0  0  0  0  0  0  0
   55.7260   25.6750   46.1000 C   0  0  0  0  0  0  0  0  0  0  0  0
   54.7720   26.6790   45.9980 O   0  0  0  0  0  0  0  0  0  0  0  0
   57.6290   29.0390   44.0420 C   0  0  0  0  0  0  0  0  0  0  0  0
   58.1760   30.1480   44.6540 C   0  0  0  0  0  0  0  0  0  0  0  0
   58.1710   31.5300   44.0770 C   0  0  0  0  0  0  0  0  0  0  0  0
   58.6710   29.8170   45.8680 N   0  0  0  0  0  0  0  0  0  0  0  0
   59.2510   30.7310   46.8170 C   0  0  0  0  0  0  0  0  0  0  0  0
   60.4920   30.4470   47.4050 C   0  0  0  0  0  0  0  0  0  0  0  0
   61.0760   31.3560   48.2930 C   0  0  0  0  0  0  0  0  0  0  0  0
   60.4260   32.5610   48.6020 C   0  0  0  0  0  0  0  0  0  0  0  0
   61.0740   33.5290   49.5100 C   0  0  0  0  0  0  0  0  0  0  0  0
   60.3460   34.1360   50.3420 O   0  0  0  0  0  0  0  0  0  0  0  0
   62.5080   33.7340   49.5150 N   0  0  0  0  0  0  0  0  0  0  0  0
   63.1290   34.6730   50.4620 C   0  0  0  0  0  0  0  0  0  0  0  0
   64.1660   33.9210   51.3000 C   0  0  0  0  0  0  0  0  0  0  0  0
   65.1340   33.2080   50.4470 N   0  0  0  0  0  0  0  0  0  0  0  0
   66.4900   32.9630   50.8900 C   0  0  0  0  0  0  0  0  0  0  0  0
   67.4380   33.2060   50.0930 O   0  0  0  0  0  0  0  0  0  0  0  0
   66.8640   32.3500   52.1900 C   0  0  0  0  0  0  0  0  0  0  0  0
   66.8030   31.0560   52.5140 C   0  0  0  0  0  0  0  0  0  0  0  0
   66.2700   30.0370   51.5430 C   0  0  0  0  0  0  0  0  0  0  0  0
   67.3140   29.4790   50.7640 O   0  0  0  0  0  0  0  0  0  0  0  0
   67.4480   28.1030   51.0430 C   0  0  0  0  0  0  0  0  0  0  0  0
   64.8750   33.1150   48.9990 C   0  0  0  0  0  0  0  0  0  0  0  0
   63.3880   32.8750   48.7020 C   0  0  0  0  0  0  0  0  0  0  0  0
   59.1610   32.8190   48.0510 C   0  0  0  0  0  0  0  0  0  0  0  0
   58.5840   31.9150   47.1560 C   0  0  0  0  0  0  0  0  0  0  0  0
   59.1190   28.3915   48.0520 H   0  0  0  0  0  0  0  0  0  0  0  0
   58.2753   26.8319   47.3550 H   0  0  0  0  0  0  0  0  0  0  0  0
   57.5686   26.4065   43.5243 H   0  0  0  0  0  0  0  0  0  0  0  0
   57.1278   29.0121   43.0632 H   0  0  0  0  0  0  0  0  0  0  0  0
   58.1683   32.2679   44.8928 H   0  0  0  0  0  0  0  0  0  0  0  0
   59.0686   31.6718   43.4572 H   0  0  0  0  0  0  0  0  0  0  0  0
   57.2724   31.6653   43.4572 H   0  0  0  0  0  0  0  0  0  0  0  0
   61.0083   29.5053   47.1668 H   0  0  0  0  0  0  0  0  0  0  0  0
   62.0491   31.1256   48.7513 H   0  0  0  0  0  0  0  0  0  0  0  0
   63.6216   35.4850   49.9070 H   0  0  0  0  0  0  0  0  0  0  0  0
   62.3588   35.1017   51.1201 H   0  0  0  0  0  0  0  0  0  0  0  0
   64.7076   34.6419   51.9301 H   0  0  0  0  0  0  0  0  0  0  0  0
   63.6388   33.1798   51.9186 H   0  0  0  0  0  0  0  0  0  0  0  0
   67.2303   33.0349   52.9690 H   0  0  0  0  0  0  0  0  0  0  0  0
   67.1478   30.7296   53.5063 H   0  0  0  0  0  0  0  0  0  0  0  0
   65.7712   29.2329   52.1039 H   0  0  0  0  0  0  0  0  0  0  0  0
   65.5592   30.5362   50.8680 H   0  0  0  0  0  0  0  0  0  0  0  0
   67.4629   27.9495   52.1321 H   0  0  0  0  0  0  0  0  0  0  0  0
   66.5989   27.5561   50.6072 H   0  0  0  0  0  0  0  0  0  0  0  0
   68.3867   27.7302   50.6072 H   0  0  0  0  0  0  0  0  0  0  0  0
   65.1869   34.0548   48.5201 H   0  0  0  0  0  0  0  0  0  0  0  0
   65.4456   32.2621   48.6028 H   0  0  0  0  0  0  0  0  0  0  0  0
   63.2017   33.0843   47.6383 H   0  0  0  0  0  0  0  0  0  0  0  0
   63.1601   31.8283   48.9521 H   0  0  0  0  0  0  0  0  0  0  0  0
   58.6215   33.7375   48.3253 H   0  0  0  0  0  0  0  0  0  0  0  0
   57.6004   32.1342   46.7150 H   0  0  0  0  0  0  0  0  0  0  0  0
  1  2  2  0
  2  3  1  0
  3  4  2  3
  4  5  1  0
  5  6  1  0
  6  7  1  0
  7  8  2  0
  7  9  1  0
  9 10  1  0
 10 11  1  0
  3 12  1  0
 12 13  2  0
 13 14  1  0
 13 15  1  0
 15 16  1  0
 16 17  2  0
 17 18  1  0
 18 19  2  0
 19 20  1  0
 20 21  2  0
 20 22  1  0
 22 23  1  0
 23 24  1  0
 24 25  1  0
 25 26  1  0
 26 27  2  0
 26 28  1  0
 28 29  2  3
 29 30  1  0
 30 31  1  0
 31 32  1  0
 25 33  1  0
 33 34  1  0
 19 35  1  0
 35 36  2  0
 15  2  1  0
 36 16  1  0
 10  5  2  0
 34 22  1  0
  1 37  1  0
  1 38  1  0
  4 39  1  0
 12 40  1  0
 14 41  1  0
 14 42  1  0
 14 43  1  0
 17 44  1  0
 18 45  1  0
 23 46  1  0
 23 47  1  0
 24 48  1  0
 24 49  1  0
 28 50  1  0
 29 51  1  0
 30 52  1  0
 30 53  1  0
 32 54  1  0
 32 55  1  0
 32 56  1  0
 33 57  1  0
 33 58  1  0
 34 59  1  0
 34 60  1  0
 35 61  1  0
 36 62  1  0
M  CHG  3   6  -1   9  -1  11  -1
M  END
>  <UniqueID>  (56) 
50

>  <SMILES>  (56) 
C=c1c(=Cc2[n-]c(=O)[n-]c2[O-])cc(C)n1-c1ccc(C(=O)N2CCN(C(=O)C=CCOC)CC2)cc1

>  <Energy>  (56) 
155.30427683797896

>  <Genealogy>  (56) 
C=c1c(=Cc2[n-]c(=O)[n-]c2[O-])cc(C)n1-c1ccc(C(=O)N2CCN(C(=O)C=CCOC)CC2)cc1 (protonated)
C=c1c(=Cc2[n-]c(=O)[n-]c2[O-])cc(C)n1-c1ccc(C(=O)N2CCN(C(=O)C=CCOC)CC2)cc1 (3D coordinates assigned)
C=c1c(=Cc2[n-]c(=O)[n-]c2[O-])cc(C)n1-c1ccc(C(=O)N2CCN(C(=O)C=CCOC)CC2)cc1 (nonaromatic ring conformer: 155.30427683797896 kcal/mol)

>  <smiles>  (56) 
C=c1c(=Cc2[nH]c(=O)[nH]c2O)cc(C)n1-c1ccc(C(=O)N2CCN(C(=O)C=CCOC)CC2)cc1

>  <score_type>  (56) 
oracle

>  <origin>  (56) 
adg

>  <m_score__min__energy>  (56) 
-15.66

>  <m_primary>  (56) 
energy

$$$$
57:0
     RDKit          3D

 52 55  0  0  0  0  0  0  0  0999 V2000
   60.2890   27.8890   44.4380 H   0  0  0  0  0  0  0  0  0  0  0  0
   59.7610   28.0890   45.2780 O   0  0  0  0  0  0  0  0  0  0  0  0
   58.3810   28.2950   45.2760 C   0  0  0  0  0  0  0  0  0  0  0  0
   57.5720   27.2710   45.6530 N   0  0  0  0  0  0  0  0  0  0  0  0
   56.2210   27.3920   45.6310 C   0  0  0  0  0  0  0  0  0  0  0  0
   55.4970   26.4270   45.9880 O   0  0  0  0  0  0  0  0  0  0  0  0
   55.6490   28.5520   45.2190 N   0  0  0  0  0  0  0  0  0  0  0  0
   56.4080   29.6100   44.8370 C   0  0  0  0  0  0  0  0  0  0  0  0
   55.8410   30.6720   44.4610 O   0  0  0  0  0  0  0  0  0  0  0  0
   57.8090   29.5220   44.8730 C   0  0  0  0  0  0  0  0  0  0  0  0
   58.6330   30.6810   44.4660 C   0  0  0  0  0  0  0  0  0  0  0  0
   59.1442   30.6456   43.4926 H   0  0  0  0  0  0  0  0  0  0  0  0
   58.7860   31.7780   45.2330 C   0  0  0  0  0  0  0  0  0  0  0  0
   58.8900   33.0810   44.7730 C   0  0  0  0  0  0  0  0  0  0  0  0
   58.8476   33.4129   43.7251 H   0  0  0  0  0  0  0  0  0  0  0  0
   59.0570   33.8810   45.8840 C   0  0  0  0  0  0  0  0  0  0  0  0
   59.2750   35.3630   45.8250 C   0  0  0  0  0  0  0  0  0  0  0  0
   59.3343   35.7659   46.8469 H   0  0  0  0  0  0  0  0  0  0  0  0
   60.2139   35.5746   45.2924 H   0  0  0  0  0  0  0  0  0  0  0  0
   58.4368   35.8360   45.2924 H   0  0  0  0  0  0  0  0  0  0  0  0
   59.0720   33.1330   47.0150 N   0  0  0  0  0  0  0  0  0  0  0  0
   59.2920   33.6540   48.3740 C   0  0  0  0  0  0  0  0  0  0  0  0
   59.1763   34.7479   48.3651 H   0  0  0  0  0  0  0  0  0  0  0  0
   58.5549   33.1993   49.0521 H   0  0  0  0  0  0  0  0  0  0  0  0
   60.6770   33.3060   48.8570 C   0  0  0  0  0  0  0  0  0  0  0  0
   61.7630   33.3150   47.9720 C   0  0  0  0  0  0  0  0  0  0  0  0
   61.6059   33.5915   46.9190 H   0  0  0  0  0  0  0  0  0  0  0  0
   63.0430   32.9760   48.4150 C   0  0  0  0  0  0  0  0  0  0  0  0
   63.8810   32.9852   47.7024 H   0  0  0  0  0  0  0  0  0  0  0  0
   63.2820   32.6210   49.7630 C   0  0  0  0  0  0  0  0  0  0  0  0
   64.6200   32.2620   50.2290 N   0  0  0  0  0  0  0  0  0  0  0  0
   64.8150   30.9970   50.9680 C   0  0  0  0  0  0  0  0  0  0  0  0
   64.1431   30.9961   51.8390 H   0  0  0  0  0  0  0  0  0  0  0  0
   64.5944   30.1777   50.2680 H   0  0  0  0  0  0  0  0  0  0  0  0
   66.2490   30.7900   51.4630 C   0  0  0  0  0  0  0  0  0  0  0  0
   66.3901   31.3479   52.4005 H   0  0  0  0  0  0  0  0  0  0  0  0
   66.4116   29.7145   51.6266 H   0  0  0  0  0  0  0  0  0  0  0  0
   67.1810   31.2450   50.5120 O   0  0  0  0  0  0  0  0  0  0  0  0
   67.1000   32.6490   50.4480 C   0  0  0  0  0  0  0  0  0  0  0  0
   67.1755   33.0605   51.4653 H   0  0  0  0  0  0  0  0  0  0  0  0
   67.9240   33.0195   49.8205 H   0  0  0  0  0  0  0  0  0  0  0  0
   65.7740   33.0940   49.8250 C   0  0  0  0  0  0  0  0  0  0  0  0
   65.5777   34.1324   50.1304 H   0  0  0  0  0  0  0  0  0  0  0  0
   65.8796   32.9907   48.7350 H   0  0  0  0  0  0  0  0  0  0  0  0
   62.1720   32.6150   50.6420 C   0  0  0  0  0  0  0  0  0  0  0  0
   62.3190   32.3376   51.6963 H   0  0  0  0  0  0  0  0  0  0  0  0
   60.8940   32.9550   50.1940 C   0  0  0  0  0  0  0  0  0  0  0  0
   60.0496   32.9468   50.8989 H   0  0  0  0  0  0  0  0  0  0  0  0
   58.9090   31.8390   46.6260 C   0  0  0  0  0  0  0  0  0  0  0  0
   58.8740   30.7870   47.4620 C   0  0  0  0  0  0  0  0  0  0  0  0
   58.9804   30.9420   48.5458 H   0  0  0  0  0  0  0  0  0  0  0  0
   58.7389   29.7711   47.0623 H   0  0  0  0  0  0  0  0  0  0  0  0
  1  2  1  0
  2  3  1  0
  3  4  1  0
  4  5  1  0
  5  6  2  0
  5  7  1  0
  7  8  1  0
  8  9  2  0
  8 10  1  0
 10 11  1  0
 11 12  1  0
 11 13  2  0
 13 14  1  0
 14 15  1  0
 14 16  2  0
 16 17  1  0
 17 18  1  0
 17 19  1  0
 17 20  1  0
 16 21  1  0
 21 22  1  0
 22 23  1  0
 22 24  1  0
 22 25  1  0
 25 26  2  0
 26 27  1  0
 26 28  1  0
 28 29  1  0
 28 30  2  0
 30 31  1  0
 31 32  1  0
 32 33  1  0
 32 34  1  0
 32 35  1  0
 35 36  1  0
 35 37  1  0
 35 38  1  0
 38 39  1  0
 39 40  1  0
 39 41  1  0
 39 42  1  0
 42 43  1  0
 42 44  1  0
 30 45  1  0
 45 46  1  0
 45 47  2  0
 47 48  1  0
 21 49  1  0
 49 50  2  0
 50 51  1  0
 50 52  1  0
 10  3  2  0
 49 13  1  0
 47 25  1  0
 42 31  1  0
M  CHG  2   4  -1   7  -1
M  END
>  <UniqueID>  (57) 
51

>  <SMILES>  (57) 
C=c1/c(=C/c2c(O)[n-]c(=O)[n-]c2=O)cc(C)n1Cc1ccc(N2CCOCC2)cc1

>  <Energy>  (57) 
102.10190147789731

>  <Genealogy>  (57) 
C=c1c(=Cc2c(O)[n-]c(=O)[n-]c2=O)cc(C)n1Cc1ccc(N2CCOCC2)cc1 (protonated)
C=c1/c(=C/c2c(O)[n-]c(=O)[n-]c2=O)cc(C)n1Cc1ccc(N2CCOCC2)cc1 (cis-trans isomerization)
C=c1/c(=C/c2c(O)[n-]c(=O)[n-]c2=O)cc(C)n1Cc1ccc(N2CCOCC2)cc1 (3D coordinates assigned)
C=c1/c(=C/c2c(O)[n-]c(=O)[n-]c2=O)cc(C)n1Cc1ccc(N2CCOCC2)cc1 (nonaromatic ring conformer: 102.10190147789731 kcal/mol)

>  <smiles>  (57) 
C=c1c(=Cc2c(O)[nH]c(=O)[nH]c2=O)cc(C)n1Cc1ccc(N2CCOCC2)cc1

>  <score_type>  (57) 
oracle

>  <origin>  (57) 
adg

>  <m_score__min__energy>  (57) 
-13.44

>  <m_primary>  (57) 
energy

$$$$
58:0
     RDKit          3D

 59 63  0  0  0  0  0  0  0  0999 V2000
   61.0910   27.4130   49.3850 O   0  0  0  0  0  0  0  0  0  0  0  0
   60.4380   28.4810   49.2370 C   0  0  0  0  0  0  0  0  0  0  0  0
   59.2390   28.4960   48.3730 C   0  0  0  0  0  0  0  0  0  0  0  0
   58.8720   27.4970   47.5570 C   0  0  0  0  0  0  0  0  0  0  0  0
   58.3550   27.6690   46.1810 C   0  0  0  0  0  0  0  0  0  0  0  0
   58.9140   26.9150   45.1400 C   0  0  0  0  0  0  0  0  0  0  0  0
   58.5180   27.1370   43.8180 C   0  0  0  0  0  0  0  0  0  0  0  0
   57.5980   28.1460   43.5200 C   0  0  0  0  0  0  0  0  0  0  0  0
   57.0630   28.9450   44.5440 C   0  0  0  0  0  0  0  0  0  0  0  0
   56.1300   30.0520   44.2120 C   0  0  0  0  0  0  0  0  0  0  0  0
   54.9880   29.7680   43.7600 O   0  0  0  0  0  0  0  0  0  0  0  0
   56.4480   31.4390   44.4360 N   0  0  0  0  0  0  0  0  0  0  0  0
   57.3600   31.9260   45.2290 C   0  0  0  0  0  0  0  0  0  0  0  0
   57.1180   33.1330   45.8920 C   0  0  0  0  0  0  0  0  0  0  0  0
   58.0890   33.6540   46.7500 C   0  0  0  0  0  0  0  0  0  0  0  0
   59.2920   32.9610   46.9680 C   0  0  0  0  0  0  0  0  0  0  0  0
   60.3040   33.4990   47.9130 C   0  0  0  0  0  0  0  0  0  0  0  0
   60.2590   34.7290   48.2050 O   0  0  0  0  0  0  0  0  0  0  0  0
   61.3180   32.6400   48.5030 N   0  0  2  0  0  0  0  0  0  0  0  0
   62.1500   33.2900   49.5480 C   0  0  0  0  0  0  0  0  0  0  0  0
   63.5970   33.0000   49.1070 C   0  0  2  0  0  0  0  0  0  0  0  0
   63.9120   33.8880   47.8920 C   0  0  0  0  0  0  0  0  0  0  0  0
   63.0470   33.2590   46.7920 C   0  0  0  0  0  0  0  0  0  0  0  0
   62.3270   32.1160   47.5470 C   0  0  1  0  0  0  0  0  0  0  0  0
   63.4350   31.6440   48.4630 C   0  0  0  0  0  0  0  0  0  0  0  0
   59.5000   31.7630   46.2660 C   0  0  0  0  0  0  0  0  0  0  0  0
   58.5500   31.2910   45.4170 N   0  0  0  0  0  0  0  0  0  0  0  0
   57.4170   28.6720   45.8780 C   0  0  0  0  0  0  0  0  0  0  0  0
   60.9700   29.7010   49.7760 N   0  0  0  0  0  0  0  0  0  0  0  0
   60.3470   30.5890   50.4960 C   0  0  0  0  0  0  0  0  0  0  0  0
   60.7820   30.9690   51.7860 C   0  0  0  0  0  0  0  0  0  0  0  0
   60.0980   31.9720   52.4720 C   0  0  0  0  0  0  0  0  0  0  0  0
   60.5160   32.3460   53.7090 F   0  0  0  0  0  0  0  0  0  0  0  0
   58.9950   32.5930   51.8800 C   0  0  0  0  0  0  0  0  0  0  0  0
   58.1320   33.8700   52.7180 Cl  0  0  0  0  0  0  0  0  0  0  0  0
   58.5900   32.1950   50.6040 C   0  0  0  0  0  0  0  0  0  0  0  0
   59.2700   31.2170   49.9500 N   0  0  0  0  0  0  0  0  0  0  0  0
   58.6012   29.3918   48.4013 H   0  0  0  0  0  0  0  0  0  0  0  0
   58.9623   26.4699   47.9402 H   0  0  0  0  0  0  0  0  0  0  0  0
   59.6674   26.1455   45.3643 H   0  0  0  0  0  0  0  0  0  0  0  0
   58.9316   26.5158   43.0099 H   0  0  0  0  0  0  0  0  0  0  0  0
   57.2910   28.3155   42.4774 H   0  0  0  0  0  0  0  0  0  0  0  0
   56.1694   33.6685   45.7389 H   0  0  0  0  0  0  0  0  0  0  0  0
   57.9110   34.6130   47.2585 H   0  0  0  0  0  0  0  0  0  0  0  0
   60.8310   31.8240   48.9490 H   0  0  0  0  0  0  0  0  0  0  0  0
   61.9609   34.3731   49.5805 H   0  0  0  0  0  0  0  0  0  0  0  0
   61.9318   32.9126   50.5579 H   0  0  0  0  0  0  0  0  0  0  0  0
   64.3310   33.1153   49.9182 H   0  0  0  0  0  0  0  0  0  0  0  0
   63.6228   34.9330   48.0771 H   0  0  0  0  0  0  0  0  0  0  0  0
   64.9824   33.9269   47.6414 H   0  0  0  0  0  0  0  0  0  0  0  0
   62.3260   33.9854   46.3887 H   0  0  0  0  0  0  0  0  0  0  0  0
   63.6251   32.9146   45.9218 H   0  0  0  0  0  0  0  0  0  0  0  0
   61.8544   31.4053   46.8530 H   0  0  0  0  0  0  0  0  0  0  0  0
   63.1152   30.8620   49.1674 H   0  0  0  0  0  0  0  0  0  0  0  0
   64.3182   31.1626   48.0179 H   0  0  0  0  0  0  0  0  0  0  0  0
   60.4370   31.2036   46.4041 H   0  0  0  0  0  0  0  0  0  0  0  0
   56.9552   29.2492   46.6926 H   0  0  0  0  0  0  0  0  0  0  0  0
   61.6527   30.4777   52.2449 H   0  0  0  0  0  0  0  0  0  0  0  0
   57.7208   32.6731   50.1286 H   0  0  0  0  0  0  0  0  0  0  0  0
  1  2  2  0
  2  3  1  0
  3  4  2  3
  4  5  1  0
  5  6  2  0
  6  7  1  0
  7  8  2  0
  8  9  1  0
  9 10  1  0
 10 11  2  0
 10 12  1  0
 12 13  2  3
 13 14  1  0
 14 15  2  0
 15 16  1  0
 16 17  1  0
 17 18  2  0
 17 19  1  0
 19 20  1  0
 20 21  1  0
 21 22  1  0
 22 23  1  0
 23 24  1  0
 24 25  1  0
 16 26  2  0
 26 27  1  0
  9 28  2  0
  2 29  1  0
 29 30  2  3
 30 31  1  0
 31 32  2  0
 32 33  1  0
 32 34  1  0
 34 35  1  0
 34 36  2  0
 36 37  1  0
 28  5  1  0
 37 30  1  0
 27 13  1  0
 24 19  1  0
 25 21  1  0
  3 38  1  0
  4 39  1  0
  6 40  1  0
  7 41  1  0
  8 42  1  0
 14 43  1  0
 15 44  1  0
 19 45  1  1
 20 46  1  0
 20 47  1  0
 21 48  1  1
 22 49  1  0
 22 50  1  0
 23 51  1  0
 23 52  1  0
 24 53  1  6
 25 54  1  0
 25 55  1  0
 26 56  1  0
 28 57  1  0
 31 58  1  0
 36 59  1  0
M  CHG  3  19   1  27  -1  37  -1
M  END
>  <UniqueID>  (58) 
52

>  <SMILES>  (58) 
O=C(C=Cc1cccc(C(=O)N=c2ccc(C(=O)[N@@H+]3C[C@@H]4CCC3C4)c[n-]2)c1)N=c1cc(F)c(Cl)c[n-]1

>  <Energy>  (58) 
124.72059784268856

>  <Genealogy>  (58) 
O=C(C=Cc1cccc(C(=O)N=c2ccc(C(=O)[NH+]3CC4CCC3C4)c[n-]2)c1)N=c1cc(F)c(Cl)c[n-]1 (protonated)
O=C(C=Cc1cccc(C(=O)N=c2ccc(C(=O)[N@@H+]3C[C@@H]4CCC3C4)c[n-]2)c1)N=c1cc(F)c(Cl)c[n-]1 (chirality)
O=C(C=Cc1cccc(C(=O)N=c2ccc(C(=O)[N@@H+]3C[C@@H]4CCC3C4)c[n-]2)c1)N=c1cc(F)c(Cl)c[n-]1 (3D coordinates assigned)
O=C(C=Cc1cccc(C(=O)N=c2ccc(C(=O)[N@@H+]3C[C@@H]4CCC3C4)c[n-]2)c1)N=c1cc(F)c(Cl)c[n-]1 (nonaromatic ring conformer: 124.72059784268856 kcal/mol)

>  <smiles>  (58) 
O=C(C=Cc1cccc(C(=O)N=c2ccc(C(=O)N3CC4CCC3C4)c[nH]2)c1)N=c1cc(F)c(Cl)c[nH]1

>  <score_type>  (58) 
oracle

>  <origin>  (58) 
adg

>  <m_score__min__energy>  (58) 
-11.66

>  <m_primary>  (58) 
energy

$$$$
59:0
     RDKit          3D

 48 50  0  0  0  0  0  0  0  0999 V2000
   55.1480   27.0990   45.3130 H   0  0  0  0  0  0  0  0  0  0  0  0
   54.8830   26.3230   45.9600 N   0  0  0  0  0  0  0  0  0  0  0  0
   55.7130   25.1740   46.1050 C   0  0  0  0  0  0  0  0  0  0  0  0
   55.2890   24.1700   46.7390 O   0  0  0  0  0  0  0  0  0  0  0  0
   57.0770   25.1510   45.4840 C   0  0  0  0  0  0  0  0  0  0  0  0
   56.9745   25.0850   44.3908 H   0  0  0  0  0  0  0  0  0  0  0  0
   57.6257   24.2794   45.8704 H   0  0  0  0  0  0  0  0  0  0  0  0
   57.8480   26.4040   45.8350 C   0  0  0  0  0  0  0  0  0  0  0  0
   58.0800   26.6920   47.1890 C   0  0  0  0  0  0  0  0  0  0  0  0
   57.6887   26.0155   47.9631 H   0  0  0  0  0  0  0  0  0  0  0  0
   58.8010   27.8260   47.5650 C   0  0  0  0  0  0  0  0  0  0  0  0
   58.9816   28.0296   48.6308 H   0  0  0  0  0  0  0  0  0  0  0  0
   59.2970   28.7080   46.5940 C   0  0  0  0  0  0  0  0  0  0  0  0
   60.0950   29.8900   46.9910 C   0  0  0  0  0  0  0  0  0  0  0  0
   60.9210   29.8010   47.9390 O   0  0  0  0  0  0  0  0  0  0  0  0
   60.0150   31.0990   46.2220 N   0  0  0  0  0  0  0  0  0  0  0  0
   58.9800   31.8400   45.9270 C   0  0  0  0  0  0  0  0  0  0  0  0
   58.4570   31.7170   44.6320 C   0  0  0  0  0  0  0  0  0  0  0  0
   58.8969   30.9932   43.9302 H   0  0  0  0  0  0  0  0  0  0  0  0
   57.3820   32.5080   44.2300 C   0  0  0  0  0  0  0  0  0  0  0  0
   56.9877   32.4194   43.2069 H   0  0  0  0  0  0  0  0  0  0  0  0
   56.8210   33.3870   45.0980 N   0  0  0  0  0  0  0  0  0  0  0  0
   57.2710   33.5130   46.3710 C   0  0  0  0  0  0  0  0  0  0  0  0
   56.7921   34.2349   47.0489 H   0  0  0  0  0  0  0  0  0  0  0  0
   58.3410   32.7320   46.8320 C   0  0  0  0  0  0  0  0  0  0  0  0
   58.6730   32.7950   48.2210 N   0  0  0  0  0  0  0  0  0  0  0  0
   58.5560   31.9270   48.7880 H   0  0  0  0  0  0  0  0  0  0  0  0
   59.8130   33.9660   48.7930 S   0  0  0  0  0  0  0  0  0  0  0  0
   59.6490   35.2300   47.9960 O   0  0  0  0  0  0  0  0  0  0  0  0
   59.5400   34.2840   50.2370 O   0  0  0  0  0  0  0  0  0  0  0  0
   61.4630   33.3670   48.6170 C   0  0  0  0  0  0  0  0  0  0  0  0
   62.2630   33.8080   47.5510 C   0  0  0  0  0  0  0  0  0  0  0  0
   61.8512   34.5095   46.8105 H   0  0  0  0  0  0  0  0  0  0  0  0
   63.5810   33.3590   47.4270 C   0  0  0  0  0  0  0  0  0  0  0  0
   64.2063   33.7131   46.5942 H   0  0  0  0  0  0  0  0  0  0  0  0
   64.1050   32.4600   48.3610 C   0  0  0  0  0  0  0  0  0  0  0  0
   65.1428   32.1085   48.2635 H   0  0  0  0  0  0  0  0  0  0  0  0
   63.3110   32.0080   49.4180 C   0  0  0  0  0  0  0  0  0  0  0  0
   63.7223   31.2946   50.1473 H   0  0  0  0  0  0  0  0  0  0  0  0
   61.9930   32.4610   49.5510 C   0  0  0  0  0  0  0  0  0  0  0  0
   61.2440   32.0210   50.5930 F   0  0  0  0  0  0  0  0  0  0  0  0
   59.0430   28.4430   45.2380 C   0  0  0  0  0  0  0  0  0  0  0  0
   59.4194   29.1356   44.4708 H   0  0  0  0  0  0  0  0  0  0  0  0
   58.3150   27.3060   44.8470 C   0  0  0  0  0  0  0  0  0  0  0  0
   58.1060   27.0450   43.3780 C   0  0  0  0  0  0  0  0  0  0  0  0
   57.4231   26.1921   43.2507 H   0  0  0  0  0  0  0  0  0  0  0  0
   57.6701   27.9375   42.9054 H   0  0  0  0  0  0  0  0  0  0  0  0
   59.0722   26.8148   42.9054 H   0  0  0  0  0  0  0  0  0  0  0  0
  1  2  1  0
  2  3  1  0
  3  4  2  0
  3  5  1  0
  5  6  1  0
  5  7  1  0
  5  8  1  0
  8  9  2  0
  9 10  1  0
  9 11  1  0
 11 12  1  0
 11 13  2  0
 13 14  1  0
 14 15  2  0
 14 16  1  0
 16 17  2  0
 17 18  1  0
 18 19  1  0
 18 20  2  0
 20 21  1  0
 20 22  1  0
 22 23  1  0
 23 24  1  0
 23 25  2  0
 25 26  1  0
 26 27  1  0
 26 28  1  0
 28 29  2  0
 28 30  2  0
 28 31  1  0
 31 32  2  0
 32 33  1  0
 32 34  1  0
 34 35  1  0
 34 36  2  0
 36 37  1  0
 36 38  1  0
 38 39  1  0
 38 40  2  0
 40 41  1  0
 13 42  1  0
 42 43  1  0
 42 44  2  0
 44 45  1  0
 45 46  1  0
 45 47  1  0
 45 48  1  0
 44  8  1  0
 25 17  1  0
 40 31  1  0
M  CHG  2   2  -1  22  -1
M  END
>  <UniqueID>  (59) 
53

>  <SMILES>  (59) 
Cc1cc(C(=O)/N=c2/cc[n-]cc2NS(=O)(=O)c2ccccc2F)ccc1CC([NH-])=O

>  <Energy>  (59) 
67.3190676480385

>  <Genealogy>  (59) 
Cc1cc(C(=O)N=c2cc[n-]cc2NS(=O)(=O)c2ccccc2F)ccc1CC([NH-])=O (protonated)
Cc1cc(C(=O)/N=c2/cc[n-]cc2NS(=O)(=O)c2ccccc2F)ccc1CC([NH-])=O (cis-trans isomerization)
Cc1cc(C(=O)/N=c2/cc[n-]cc2NS(=O)(=O)c2ccccc2F)ccc1CC([NH-])=O (3D coordinates assigned)
Cc1cc(C(=O)/N=c2/cc[n-]cc2NS(=O)(=O)c2ccccc2F)ccc1CC([NH-])=O (optimized conformer: 67.3190676480385 kcal/mol)

>  <smiles>  (59) 
Cc1cc(C(=O)N=c2cc[nH]cc2NS(=O)(=O)c2ccccc2F)ccc1CC(N)=O

>  <score_type>  (59) 
oracle

>  <origin>  (59) 
adg

>  <m_score__min__energy>  (59) 
-12.859999999999999

>  <m_primary>  (59) 
energy

$$$$
60:0
     RDKit          3D

 39 41  0  0  0  0  0  0  0  0999 V2000
   58.5958   32.6393   45.6225 H   0  0  0  0  0  0  0  0  0  0  0  0
   58.5160   31.5460   45.5310 C   0  0  0  0  0  0  0  0  0  0  0  0
   58.1360   31.0982   44.6009 H   0  0  0  0  0  0  0  0  0  0  0  0
   58.8830   30.7570   46.5560 C   0  0  0  0  0  0  0  0  0  0  0  0
   58.8300   29.3580   46.5650 C   0  0  0  0  0  0  0  0  0  0  0  0
   58.3830   28.5450   45.5870 C   0  0  0  0  0  0  0  0  0  0  0  0
   58.6864   28.7592   44.5516 H   0  0  0  0  0  0  0  0  0  0  0  0
   57.5050   27.3790   45.8340 C   0  0  0  0  0  0  0  0  0  0  0  0
   56.1140   27.4500   45.6420 C   0  0  0  0  0  0  0  0  0  0  0  0
   55.5180   28.6310   45.2120 O   0  0  0  0  0  0  0  0  0  0  0  0
   55.3360   26.3640   45.8980 N   0  0  0  0  0  0  0  0  0  0  0  0
   54.3040   26.4250   45.7440 H   0  0  0  0  0  0  0  0  0  0  0  0
   55.8820   25.2080   46.3630 C   0  0  0  0  0  0  0  0  0  0  0  0
   55.1490   24.2110   46.5960 O   0  0  0  0  0  0  0  0  0  0  0  0
   57.2190   25.1270   46.5830 N   0  0  0  0  0  0  0  0  0  0  0  0
   58.0370   26.1820   46.3370 C   0  0  0  0  0  0  0  0  0  0  0  0
   59.2730   26.0690   46.5570 O   0  0  0  0  0  0  0  0  0  0  0  0
   59.2970   28.9550   47.8050 C   0  0  0  0  0  0  0  0  0  0  0  0
   59.3973   27.9204   48.1649 H   0  0  0  0  0  0  0  0  0  0  0  0
   59.6120   30.1040   48.5010 C   0  0  0  0  0  0  0  0  0  0  0  0
   60.1790   30.1140   49.8890 C   0  0  0  0  0  0  0  0  0  0  0  0
   59.3578   30.0995   50.6207 H   0  0  0  0  0  0  0  0  0  0  0  0
   60.8134   29.2269   50.0323 H   0  0  0  0  0  0  0  0  0  0  0  0
   60.7818   31.0229   50.0323 H   0  0  0  0  0  0  0  0  0  0  0  0
   59.3750   31.2050   47.7460 N   0  0  0  0  0  0  0  0  0  0  0  0
   59.6150   32.5940   48.1770 C   0  0  0  0  0  0  0  0  0  0  0  0
   58.9530   33.2654   47.6105 H   0  0  0  0  0  0  0  0  0  0  0  0
   59.4080   32.6660   49.2549 H   0  0  0  0  0  0  0  0  0  0  0  0
   61.0510   32.9980   47.9360 C   0  0  0  0  0  0  0  0  0  0  0  0
   62.0050   32.9210   48.9710 C   0  0  0  0  0  0  0  0  0  0  0  0
   61.6570   32.4850   50.2100 F   0  0  0  0  0  0  0  0  0  0  0  0
   63.3330   33.2920   48.7360 C   0  0  0  0  0  0  0  0  0  0  0  0
   64.0731   33.2233   49.5469 H   0  0  0  0  0  0  0  0  0  0  0  0
   63.7220   33.7490   47.4760 C   0  0  0  0  0  0  0  0  0  0  0  0
   64.7684   34.0351   47.2936 H   0  0  0  0  0  0  0  0  0  0  0  0
   62.7840   33.8430   46.4480 C   0  0  0  0  0  0  0  0  0  0  0  0
   63.0918   34.2087   45.4573 H   0  0  0  0  0  0  0  0  0  0  0  0
   61.4530   33.4740   46.6720 C   0  0  0  0  0  0  0  0  0  0  0  0
   60.5610   33.5890   45.6570 F   0  0  0  0  0  0  0  0  0  0  0  0
  1  2  1  0
  2  3  1  0
  2  4  2  0
  4  5  1  0
  5  6  2  0
  6  7  1  0
  6  8  1  0
  8  9  2  0
  9 10  1  0
  9 11  1  0
 11 12  1  0
 11 13  1  0
 13 14  2  0
 13 15  1  0
 15 16  1  0
 16 17  2  0
  5 18  1  0
 18 19  1  0
 18 20  2  0
 20 21  1  0
 21 22  1  0
 21 23  1  0
 21 24  1  0
 20 25  1  0
 25 26  1  0
 26 27  1  0
 26 28  1  0
 26 29  1  0
 29 30  2  0
 30 31  1  0
 30 32  1  0
 32 33  1  0
 32 34  2  0
 34 35  1  0
 34 36  1  0
 36 37  1  0
 36 38  2  0
 38 39  1  0
 25  4  1  0
 38 29  1  0
 16  8  1  0
M  CHG  2  10  -1  15  -1
M  END
>  <UniqueID>  (60) 
54

>  <SMILES>  (60) 
C=c1/c(=C/c2c([O-])[nH]c(=O)[n-]c2=O)cc(C)n1Cc1c(F)cccc1F

>  <Energy>  (60) 
81.6772863616834

>  <Genealogy>  (60) 
C=c1c(=Cc2c([O-])[nH]c(=O)[n-]c2=O)cc(C)n1Cc1c(F)cccc1F (protonated)
C=c1/c(=C/c2c([O-])[nH]c(=O)[n-]c2=O)cc(C)n1Cc1c(F)cccc1F (cis-trans isomerization)
C=c1/c(=C/c2c([O-])[nH]c(=O)[n-]c2=O)cc(C)n1Cc1c(F)cccc1F (3D coordinates assigned)
C=c1/c(=C/c2c([O-])[nH]c(=O)[n-]c2=O)cc(C)n1Cc1c(F)cccc1F (optimized conformer: 81.6772863616834 kcal/mol)

>  <smiles>  (60) 
C=c1c(=Cc2c(O)[nH]c(=O)[nH]c2=O)cc(C)n1Cc1c(F)cccc1F

>  <score_type>  (60) 
oracle

>  <origin>  (60) 
adg

>  <m_score__min__energy>  (60) 
-13.59

>  <m_primary>  (60) 
energy

$$$$
61:0
     RDKit          3D

 75 80  0  0  0  0  0  0  0  0999 V2000
   56.4300   27.3760   45.3440 O   0  0  0  0  0  0  0  0  0  0  0  0
   57.5000   28.0470   45.2870 C   0  0  0  0  0  0  0  0  0  0  0  0
   58.6280   27.6100   46.1510 C   0  0  0  0  0  0  0  0  0  0  0  0
   59.4040   26.5080   45.7530 C   0  0  0  0  0  0  0  0  0  0  0  0
   60.4700   26.0700   46.5390 C   0  0  0  0  0  0  0  0  0  0  0  0
   60.7840   26.7280   47.7290 C   0  0  0  0  0  0  0  0  0  0  0  0
   60.0370   27.8470   48.1390 C   0  0  0  0  0  0  0  0  0  0  0  0
   60.3360   28.5390   49.4110 C   0  0  0  0  0  0  0  0  0  0  0  0
   59.8790   29.7720   49.7090 N   0  0  0  0  0  0  0  0  0  0  0  0
   60.3880   29.9600   50.9440 C   0  0  0  0  0  0  0  0  0  0  0  0
   60.1080   31.1680   51.7840 C   0  0  1  0  0  0  0  0  0  0  0  0
   60.7380   32.4340   51.2000 C   0  0  0  0  0  0  0  0  0  0  0  0
   59.6160   33.1470   50.4460 C   0  0  0  0  0  0  0  0  0  0  0  0
   58.3110   32.6090   51.0210 C   0  0  0  0  0  0  0  0  0  0  0  0
   58.6760   31.4220   51.7780 N   0  0  0  0  0  0  0  0  0  0  0  0
   57.7260   30.5570   52.4240 C   0  0  0  0  0  0  0  0  0  0  0  0
   57.0920   29.7050   51.7400 O   0  0  0  0  0  0  0  0  0  0  0  0
   57.4730   30.6560   53.9050 C   0  0  0  0  0  0  0  0  0  0  0  0
   56.0860   30.8580   54.1920 O   0  0  0  0  0  0  0  0  0  0  0  0
   55.0220   30.4450   53.3740 C   0  0  0  0  0  0  0  0  0  0  0  0
   54.2940   29.2590   53.6100 C   0  0  0  0  0  0  0  0  0  0  0  0
   53.2410   28.8960   52.7670 C   0  0  0  0  0  0  0  0  0  0  0  0
   52.9150   29.6930   51.6700 C   0  0  0  0  0  0  0  0  0  0  0  0
   53.6390   30.8620   51.4200 C   0  0  0  0  0  0  0  0  0  0  0  0
   54.6760   31.2450   52.2750 C   0  0  0  0  0  0  0  0  0  0  0  0
   61.1040   28.9340   51.3420 O   0  0  0  0  0  0  0  0  0  0  0  0
   61.0850   28.0330   50.4130 N   0  0  0  0  0  0  0  0  0  0  0  0
   58.9760   28.2960   47.3300 C   0  0  0  0  0  0  0  0  0  0  0  0
   57.5410   29.2590   44.4810 N   0  0  0  0  0  0  0  0  0  0  0  0
   56.2960   29.8370   43.9510 C   0  0  0  0  0  0  0  0  0  0  0  0
   56.1600   31.2610   44.4850 C   0  0  0  0  0  0  0  0  0  0  0  0
   57.3000   32.1230   44.0900 N   0  0  0  0  0  0  0  0  0  0  0  0
   57.6660   33.3030   45.3260 S   0  0  0  0  0  0  0  0  0  0  0  0
   57.6810   34.6740   44.7050 O   0  0  0  0  0  0  0  0  0  0  0  0
   56.6020   33.2790   46.3860 O   0  0  0  0  0  0  0  0  0  0  0  0
   59.2330   32.9960   46.0800 C   0  0  0  0  0  0  0  0  0  0  0  0
   59.4440   31.8160   46.8110 C   0  0  0  0  0  0  0  0  0  0  0  0
   60.6930   31.5590   47.3810 C   0  0  0  0  0  0  0  0  0  0  0  0
   61.7320   32.4830   47.2400 C   0  0  0  0  0  0  0  0  0  0  0  0
   61.5280   33.6600   46.5130 C   0  0  0  0  0  0  0  0  0  0  0  0
   60.2830   33.9170   45.9300 C   0  0  0  0  0  0  0  0  0  0  0  0
   58.5140   31.4120   43.6370 C   0  0  0  0  0  0  0  0  0  0  0  0
   58.7640   30.0720   44.3600 C   0  0  0  0  0  0  0  0  0  0  0  0
   59.1688   25.9863   44.8136 H   0  0  0  0  0  0  0  0  0  0  0  0
   61.0657   25.2022   46.2194 H   0  0  0  0  0  0  0  0  0  0  0  0
   61.6192   26.3700   48.3489 H   0  0  0  0  0  0  0  0  0  0  0  0
   60.5158   30.9613   52.7845 H   0  0  0  0  0  0  0  0  0  0  0  0
   61.1263   33.0752   52.0051 H   0  0  0  0  0  0  0  0  0  0  0  0
   61.5841   32.1972   50.5381 H   0  0  0  0  0  0  0  0  0  0  0  0
   59.6822   34.2339   50.6017 H   0  0  0  0  0  0  0  0  0  0  0  0
   59.6822   32.9666   49.3629 H   0  0  0  0  0  0  0  0  0  0  0  0
   57.8451   33.3563   51.6801 H   0  0  0  0  0  0  0  0  0  0  0  0
   57.5824   32.3786   50.2297 H   0  0  0  0  0  0  0  0  0  0  0  0
   57.8048   29.7243   54.3865 H   0  0  0  0  0  0  0  0  0  0  0  0
   58.0329   31.5203   54.2917 H   0  0  0  0  0  0  0  0  0  0  0  0
   54.5575   28.6165   54.4631 H   0  0  0  0  0  0  0  0  0  0  0  0
   52.6675   27.9793   52.9689 H   0  0  0  0  0  0  0  0  0  0  0  0
   52.0900   29.4022   51.0031 H   0  0  0  0  0  0  0  0  0  0  0  0
   53.3916   31.4832   50.5466 H   0  0  0  0  0  0  0  0  0  0  0  0
   55.2242   32.1795   52.0850 H   0  0  0  0  0  0  0  0  0  0  0  0
   61.5900   27.1210   50.4500 H   0  0  0  0  0  0  0  0  0  0  0  0
   58.4120   29.1939   47.6227 H   0  0  0  0  0  0  0  0  0  0  0  0
   56.3330   29.8544   42.8518 H   0  0  0  0  0  0  0  0  0  0  0  0
   55.4338   29.2311   44.2665 H   0  0  0  0  0  0  0  0  0  0  0  0
   55.2318   31.6995   44.0899 H   0  0  0  0  0  0  0  0  0  0  0  0
   56.1442   31.2076   45.5836 H   0  0  0  0  0  0  0  0  0  0  0  0
   58.6245   31.0928   46.9350 H   0  0  0  0  0  0  0  0  0  0  0  0
   60.8592   30.6275   47.9420 H   0  0  0  0  0  0  0  0  0  0  0  0
   62.7107   32.2843   47.7011 H   0  0  0  0  0  0  0  0  0  0  0  0
   62.3478   34.3846   46.3995 H   0  0  0  0  0  0  0  0  0  0  0  0
   60.1259   34.8407   45.3538 H   0  0  0  0  0  0  0  0  0  0  0  0
   58.4152   31.2107   42.5601 H   0  0  0  0  0  0  0  0  0  0  0  0
   59.3694   32.0633   43.8698 H   0  0  0  0  0  0  0  0  0  0  0  0
   59.5132   29.4998   43.7932 H   0  0  0  0  0  0  0  0  0  0  0  0
   59.1146   30.3015   45.3771 H   0  0  0  0  0  0  0  0  0  0  0  0
  1  2  2  0
  2  3  1  0
  3  4  2  0
  4  5  1  0
  5  6  2  0
  6  7  1  0
  7  8  1  0
  8  9  1  0
  9 10  2  0
 10 11  1  0
 11 12  1  0
 12 13  1  0
 13 14  1  0
 14 15  1  0
 15 16  1  0
 16 17  2  0
 16 18  1  0
 18 19  1  0
 19 20  1  0
 20 21  2  0
 21 22  1  0
 22 23  2  0
 23 24  1  0
 24 25  2  0
 10 26  1  0
 26 27  1  0
  7 28  2  0
  2 29  1  0
 29 30  1  0
 30 31  1  0
 31 32  1  0
 32 33  1  0
 33 34  2  0
 33 35  2  0
 33 36  1  0
 36 37  2  0
 37 38  1  0
 38 39  2  0
 39 40  1  0
 40 41  2  0
 32 42  1  0
 42 43  1  0
 28  3  1  0
 43 29  1  0
 27  8  2  0
 41 36  1  0
 15 11  1  0
 25 20  1  0
  4 44  1  0
  5 45  1  0
  6 46  1  0
 11 47  1  1
 12 48  1  0
 12 49  1  0
 13 50  1  0
 13 51  1  0
 14 52  1  0
 14 53  1  0
 18 54  1  0
 18 55  1  0
 21 56  1  0
 22 57  1  0
 23 58  1  0
 24 59  1  0
 25 60  1  0
 27 61  1  0
 28 62  1  0
 30 63  1  0
 30 64  1  0
 31 65  1  0
 31 66  1  0
 37 67  1  0
 38 68  1  0
 39 69  1  0
 40 70  1  0
 41 71  1  0
 42 72  1  0
 42 73  1  0
 43 74  1  0
 43 75  1  0
M  CHG  1  27   1
M  END
>  <UniqueID>  (61) 
55

>  <SMILES>  (61) 
O=C(c1cccc(-c2nc([C@H]3CCCN3C(=O)COc3ccccc3)o[nH+]2)c1)N1CCN(S(=O)(=O)c2ccccc2)CC1

>  <Energy>  (61) 
124.14476957896989

>  <Genealogy>  (61) 
O=C(c1cccc(-c2nc(C3CCCN3C(=O)COc3ccccc3)o[nH+]2)c1)N1CCN(S(=O)(=O)c2ccccc2)CC1 (protonated)
O=C(c1cccc(-c2nc([C@H]3CCCN3C(=O)COc3ccccc3)o[nH+]2)c1)N1CCN(S(=O)(=O)c2ccccc2)CC1 (chirality)
O=C(c1cccc(-c2nc([C@H]3CCCN3C(=O)COc3ccccc3)o[nH+]2)c1)N1CCN(S(=O)(=O)c2ccccc2)CC1 (3D coordinates assigned)
O=C(c1cccc(-c2nc([C@H]3CCCN3C(=O)COc3ccccc3)o[nH+]2)c1)N1CCN(S(=O)(=O)c2ccccc2)CC1 (nonaromatic ring conformer: 124.14476957896989 kcal/mol)

>  <smiles>  (61) 
O=C(c1cccc(-c2noc(C3CCCN3C(=O)COc3ccccc3)n2)c1)N1CCN(S(=O)(=O)c2ccccc2)CC1

>  <score_type>  (61) 
oracle

>  <origin>  (61) 
adg

>  <m_score__min__energy>  (61) 
-9.2300000000000004

>  <m_primary>  (61) 
energy

$$$$
62:0
     RDKit          3D

 62 66  0  0  0  0  0  0  0  0999 V2000
   55.1130   22.7120   47.6480 O   0  0  0  0  0  0  0  0  0  0  0  0
   56.3200   23.0760   47.6240 C   0  0  0  0  0  0  0  0  0  0  0  0
   56.6690   24.5340   47.5820 C   0  0  0  0  0  0  0  0  0  0  0  0
   57.0480   24.9670   46.1910 C   0  0  0  0  0  0  0  0  0  0  0  0
   57.0130   24.0540   45.1270 C   0  0  0  0  0  0  0  0  0  0  0  0
   57.3510   24.4690   43.8360 C   0  0  0  0  0  0  0  0  0  0  0  0
   57.7000   25.8000   43.5920 C   0  0  0  0  0  0  0  0  0  0  0  0
   57.6960   26.7370   44.6400 C   0  0  0  0  0  0  0  0  0  0  0  0
   58.0400   28.1160   44.4310 N   0  0  0  0  0  0  0  0  0  0  0  0
   57.1980   29.2250   44.7970 C   0  0  0  0  0  0  0  0  0  0  0  0
   55.9500   29.0740   44.8910 O   0  0  0  0  0  0  0  0  0  0  0  0
   57.7810   30.5610   45.0650 C   0  0  0  0  0  0  0  0  0  0  0  0
   58.6780   30.7270   46.0560 C   0  0  0  0  0  0  0  0  0  0  0  0
   59.2700   32.0510   46.3320 C   0  0  0  0  0  0  0  0  0  0  0  0
   60.3630   32.1700   47.2020 C   0  0  0  0  0  0  0  0  0  0  0  0
   60.9300   33.4290   47.4720 C   0  0  0  0  0  0  0  0  0  0  0  0
   62.0910   33.5490   48.3910 C   0  0  0  0  0  0  0  0  0  0  0  0
   61.9520   34.1820   49.6410 C   0  0  0  0  0  0  0  0  0  0  0  0
   63.0430   34.2820   50.5110 C   0  0  0  0  0  0  0  0  0  0  0  0
   64.2820   33.7550   50.1430 C   0  0  0  0  0  0  0  0  0  0  0  0
   64.4350   33.1280   48.9040 C   0  0  0  0  0  0  0  0  0  0  0  0
   63.3480   33.0240   48.0310 C   0  0  0  0  0  0  0  0  0  0  0  0
   60.3760   34.5700   46.8630 C   0  0  0  0  0  0  0  0  0  0  0  0
   59.2780   34.4550   46.0060 C   0  0  0  0  0  0  0  0  0  0  0  0
   58.7280   33.1980   45.7270 C   0  0  0  0  0  0  0  0  0  0  0  0
   57.4830   33.0710   44.8860 C   0  0  0  0  0  0  0  0  0  0  0  0
   57.4400   31.7230   44.1530 C   0  0  0  0  0  0  0  0  0  0  0  0
   57.3880   26.3060   45.9390 C   0  0  0  0  0  0  0  0  0  0  0  0
   57.3680   22.1040   47.7050 N   0  0  0  0  0  0  0  0  0  0  0  0
   57.1420   20.6660   47.6120 C   0  0  0  0  0  0  0  0  0  0  0  0
   56.5500   20.3120   46.2740 C   0  0  0  0  0  0  0  0  0  0  0  0
   55.6840   19.2150   46.1410 C   0  0  0  0  0  0  0  0  0  0  0  0
   55.1670   18.8960   44.8830 C   0  0  0  0  0  0  0  0  0  0  0  0
   55.5010   19.6430   43.7980 N   0  0  0  0  0  0  0  0  0  0  0  0
   56.3380   20.7100   43.8960 C   0  0  0  0  0  0  0  0  0  0  0  0
   56.6270   21.3740   42.8680 O   0  0  0  0  0  0  0  0  0  0  0  0
   56.8770   21.0660   45.1380 C   0  0  0  0  0  0  0  0  0  0  0  0
   55.7998   25.1200   47.9151 H   0  0  0  0  0  0  0  0  0  0  0  0
   57.5305   24.7035   48.2447 H   0  0  0  0  0  0  0  0  0  0  0  0
   56.7191   23.0097   45.3089 H   0  0  0  0  0  0  0  0  0  0  0  0
   57.3423   23.7447   43.0082 H   0  0  0  0  0  0  0  0  0  0  0  0
   57.9789   26.1158   42.5759 H   0  0  0  0  0  0  0  0  0  0  0  0
   59.0290   28.3200   44.1630 H   0  0  0  0  0  0  0  0  0  0  0  0
   58.9740   29.8629   46.6690 H   0  0  0  0  0  0  0  0  0  0  0  0
   60.7811   31.2707   47.6779 H   0  0  0  0  0  0  0  0  0  0  0  0
   60.9785   34.6009   49.9356 H   0  0  0  0  0  0  0  0  0  0  0  0
   62.9243   34.7766   51.4863 H   0  0  0  0  0  0  0  0  0  0  0  0
   65.1384   33.8334   50.8289 H   0  0  0  0  0  0  0  0  0  0  0  0
   65.4127   32.7153   48.6147 H   0  0  0  0  0  0  0  0  0  0  0  0
   63.4749   32.5291   47.0568 H   0  0  0  0  0  0  0  0  0  0  0  0
   60.8106   35.5605   47.0630 H   0  0  0  0  0  0  0  0  0  0  0  0
   58.8439   35.3563   45.5485 H   0  0  0  0  0  0  0  0  0  0  0  0
   56.6006   33.1528   45.5376 H   0  0  0  0  0  0  0  0  0  0  0  0
   57.4880   33.8746   44.1348 H   0  0  0  0  0  0  0  0  0  0  0  0
   56.4276   31.5714   43.7504 H   0  0  0  0  0  0  0  0  0  0  0  0
   58.1914   31.7524   43.3502 H   0  0  0  0  0  0  0  0  0  0  0  0
   57.4131   27.0258   46.7704 H   0  0  0  0  0  0  0  0  0  0  0  0
   58.1003   20.1401   47.7347 H   0  0  0  0  0  0  0  0  0  0  0  0
   56.4402   20.3637   48.4033 H   0  0  0  0  0  0  0  0  0  0  0  0
   55.4147   18.6115   47.0203 H   0  0  0  0  0  0  0  0  0  0  0  0
   54.4879   18.0380   44.7704 H   0  0  0  0  0  0  0  0  0  0  0  0
   57.5518   21.9306   45.2220 H   0  0  0  0  0  0  0  0  0  0  0  0
  1  2  2  0
  2  3  1  0
  3  4  1  0
  4  5  2  0
  5  6  1  0
  6  7  2  0
  7  8  1  0
  8  9  1  0
  9 10  1  0
 10 11  2  0
 10 12  1  0
 12 13  2  0
 13 14  1  0
 14 15  2  0
 15 16  1  0
 16 17  1  0
 17 18  2  0
 18 19  1  0
 19 20  2  0
 20 21  1  0
 21 22  2  0
 16 23  2  0
 23 24  1  0
 24 25  2  0
 25 26  1  0
 26 27  1  0
  8 28  2  0
  2 29  1  0
 29 30  1  0
 30 31  1  0
 31 32  1  0
 32 33  2  0
 33 34  1  0
 34 35  1  0
 35 36  2  0
 35 37  1  0
 28  4  1  0
 37 31  2  0
 27 12  1  0
 25 14  1  0
 22 17  1  0
  3 38  1  0
  3 39  1  0
  5 40  1  0
  6 41  1  0
  7 42  1  0
  9 43  1  0
 13 44  1  0
 15 45  1  0
 18 46  1  0
 19 47  1  0
 20 48  1  0
 21 49  1  0
 22 50  1  0
 23 51  1  0
 24 52  1  0
 26 53  1  0
 26 54  1  0
 27 55  1  0
 27 56  1  0
 28 57  1  0
 30 58  1  0
 30 59  1  0
 32 60  1  0
 33 61  1  0
 37 62  1  0
M  CHG  2  29  -1  34  -1
M  END
>  <UniqueID>  (62) 
56

>  <SMILES>  (62) 
O=C(Cc1cccc(NC(=O)C2=Cc3cc(-c4ccccc4)ccc3CC2)c1)[N-]Cc1cc[n-]c(=O)c1

>  <Energy>  (62) 
80.68173069690313

>  <Genealogy>  (62) 
O=C(Cc1cccc(NC(=O)C2=Cc3cc(-c4ccccc4)ccc3CC2)c1)[N-]Cc1cc[n-]c(=O)c1 (protonated)
O=C(Cc1cccc(NC(=O)C2=Cc3cc(-c4ccccc4)ccc3CC2)c1)[N-]Cc1cc[n-]c(=O)c1 (3D coordinates assigned)
O=C(Cc1cccc(NC(=O)C2=Cc3cc(-c4ccccc4)ccc3CC2)c1)[N-]Cc1cc[n-]c(=O)c1 (nonaromatic ring conformer: 80.68173069690313 kcal/mol)

>  <smiles>  (62) 
O=C(Cc1cccc(NC(=O)C2=Cc3cc(-c4ccccc4)ccc3CC2)c1)NCc1cc[nH]c(=O)c1

>  <score_type>  (62) 
oracle

>  <origin>  (62) 
adg

>  <m_score__min__energy>  (62) 
-14.31

>  <m_primary>  (62) 
energy

$$$$
63:0
     RDKit          3D

 53 56  0  0  0  0  0  0  0  0999 V2000
   60.3090   29.0930   48.2070 C   0  0  0  0  0  0  0  0  0  0  0  0
   59.5620   29.2610   46.9160 C   0  0  0  0  0  0  0  0  0  0  0  0
   59.2390   28.1320   46.1310 C   0  0  0  0  0  0  0  0  0  0  0  0
   58.5100   28.2750   44.9340 C   0  0  0  0  0  0  0  0  0  0  0  0
   58.1430   27.0760   44.1080 C   0  0  0  0  0  0  0  0  0  0  0  0
   58.0880   29.5620   44.5680 C   0  0  0  0  0  0  0  0  0  0  0  0
   58.3860   30.6530   45.3370 C   0  0  0  0  0  0  0  0  0  0  0  0
   59.1190   30.5370   46.5200 C   0  0  0  0  0  0  0  0  0  0  0  0
   57.8430   31.8360   44.7850 N   0  0  0  0  0  0  0  0  0  0  0  0
   57.8010   33.3850   45.5580 S   0  0  0  0  0  0  0  0  0  0  0  0
   56.5660   33.4990   46.4070 O   0  0  0  0  0  0  0  0  0  0  0  0
   57.7680   34.4580   44.5060 O   0  0  0  0  0  0  0  0  0  0  0  0
   59.2210   33.5570   46.5840 C   0  0  0  0  0  0  0  0  0  0  0  0
   60.5000   33.6730   46.0240 C   0  0  0  0  0  0  0  0  0  0  0  0
   61.6220   33.7690   46.8510 C   0  0  0  0  0  0  0  0  0  0  0  0
   61.4780   33.7640   48.2480 C   0  0  0  0  0  0  0  0  0  0  0  0
   62.6710   33.8470   49.1190 C   0  0  0  0  0  0  0  0  0  0  0  0
   63.0280   34.9730   49.5620 O   0  0  0  0  0  0  0  0  0  0  0  0
   63.4200   32.6700   49.4810 N   0  0  0  0  0  0  0  0  0  0  0  0
   64.8600   32.7540   49.7420 C   0  0  0  0  0  0  0  0  0  0  0  0
   65.1740   32.3330   51.1930 C   0  0  0  0  0  0  0  0  0  0  0  0
   64.2030   31.3740   51.7590 N   0  0  0  0  0  0  0  0  0  0  0  0
   63.5650   30.5430   50.7300 C   0  0  0  0  0  0  0  0  0  0  0  0
   62.7240   31.4120   49.7850 C   0  0  0  0  0  0  0  0  0  0  0  0
   60.1950   33.6350   48.8040 C   0  0  0  0  0  0  0  0  0  0  0  0
   59.0740   33.5350   47.9760 C   0  0  0  0  0  0  0  0  0  0  0  0
   57.1000   31.5000   43.5750 C   0  0  0  0  0  0  0  0  0  0  0  0
   57.2780   29.9750   43.3810 C   0  0  0  0  0  0  0  0  0  0  0  0
   59.6212   29.2477   49.0514 H   0  0  0  0  0  0  0  0  0  0  0  0
   60.7295   28.0778   48.2579 H   0  0  0  0  0  0  0  0  0  0  0  0
   61.1237   29.8304   48.2579 H   0  0  0  0  0  0  0  0  0  0  0  0
   59.5597   27.1317   46.4574 H   0  0  0  0  0  0  0  0  0  0  0  0
   57.8864   26.2377   44.7724 H   0  0  0  0  0  0  0  0  0  0  0  0
   57.2781   27.3188   43.4733 H   0  0  0  0  0  0  0  0  0  0  0  0
   58.9957   26.7931   43.4733 H   0  0  0  0  0  0  0  0  0  0  0  0
   59.3454   31.4242   47.1296 H   0  0  0  0  0  0  0  0  0  0  0  0
   60.6211   33.6885   44.9308 H   0  0  0  0  0  0  0  0  0  0  0  0
   62.6244   33.8490   46.4051 H   0  0  0  0  0  0  0  0  0  0  0  0
   65.3927   32.0867   49.0485 H   0  0  0  0  0  0  0  0  0  0  0  0
   65.1870   33.7940   49.5956 H   0  0  0  0  0  0  0  0  0  0  0  0
   66.1710   31.8686   51.2113 H   0  0  0  0  0  0  0  0  0  0  0  0
   65.1219   33.2429   51.8090 H   0  0  0  0  0  0  0  0  0  0  0  0
   63.4550   31.9110   52.2610 H   0  0  0  0  0  0  0  0  0  0  0  0
   64.3424   30.0245   50.1497 H   0  0  0  0  0  0  0  0  0  0  0  0
   62.9073   29.8105   51.2207 H   0  0  0  0  0  0  0  0  0  0  0  0
   62.5473   30.8615   48.8492 H   0  0  0  0  0  0  0  0  0  0  0  0
   61.7677   31.6459   50.2758 H   0  0  0  0  0  0  0  0  0  0  0  0
   60.0719   33.6126   49.8969 H   0  0  0  0  0  0  0  0  0  0  0  0
   58.0721   33.4386   48.4196 H   0  0  0  0  0  0  0  0  0  0  0  0
   56.0356   31.7489   43.6975 H   0  0  0  0  0  0  0  0  0  0  0  0
   57.4665   32.0644   42.7049 H   0  0  0  0  0  0  0  0  0  0  0  0
   56.3041   29.4637   43.3730 H   0  0  0  0  0  0  0  0  0  0  0  0
   57.7587   29.7188   42.4253 H   0  0  0  0  0  0  0  0  0  0  0  0
  1  2  1  0
  2  3  2  0
  3  4  1  0
  4  5  1  0
  4  6  2  0
  6  7  1  0
  7  8  2  0
  7  9  1  0
  9 10  1  0
 10 11  2  0
 10 12  2  0
 10 13  1  0
 13 14  2  0
 14 15  1  0
 15 16  2  0
 16 17  1  0
 17 18  2  0
 17 19  1  0
 19 20  1  0
 20 21  1  0
 21 22  1  0
 22 23  1  0
 23 24  1  0
 16 25  1  0
 25 26  2  0
  9 27  1  0
 27 28  1  0
  8  2  1  0
 26 13  1  0
 28  6  1  0
 24 19  1  0
  1 29  1  0
  1 30  1  0
  1 31  1  0
  3 32  1  0
  5 33  1  0
  5 34  1  0
  5 35  1  0
  8 36  1  0
 14 37  1  0
 15 38  1  0
 20 39  1  0
 20 40  1  0
 21 41  1  0
 21 42  1  0
 22 43  1  0
 23 44  1  0
 23 45  1  0
 24 46  1  0
 24 47  1  0
 25 48  1  0
 26 49  1  0
 27 50  1  0
 27 51  1  0
 28 52  1  0
 28 53  1  0
M  END
>  <UniqueID>  (63) 
57

>  <SMILES>  (63) 
Cc1cc(C)c2c(c1)N(S(=O)(=O)c1ccc(C(=O)N3CCNCC3)cc1)CC2

>  <Energy>  (63) 
78.50143599172809

>  <Genealogy>  (63) 
Cc1cc(C)c2c(c1)N(S(=O)(=O)c1ccc(C(=O)N3CCNCC3)cc1)CC2 (3D coordinates assigned)
Cc1cc(C)c2c(c1)N(S(=O)(=O)c1ccc(C(=O)N3CCNCC3)cc1)CC2 (nonaromatic ring conformer: 78.50143599172809 kcal/mol)

>  <smiles>  (63) 
Cc1cc(C)c2c(c1)N(S(=O)(=O)c1ccc(C(=O)N3CCNCC3)cc1)CC2

>  <score_type>  (63) 
oracle

>  <origin>  (63) 
adg

>  <m_score__min__energy>  (63) 
-9.4499999999999993

>  <m_primary>  (63) 
energy

$$$$
64:0
     RDKit          3D

 45 47  0  0  0  0  0  0  0  0999 V2000
   56.7879   31.9867   52.1695 H   0  0  0  0  0  0  0  0  0  0  0  0
   55.7070   31.8620   52.3310 C   0  0  0  0  0  0  0  0  0  0  0  0
   55.0188   32.6915   52.1113 H   0  0  0  0  0  0  0  0  0  0  0  0
   55.2280   30.6980   52.7960 C   0  0  0  0  0  0  0  0  0  0  0  0
   53.8870   30.3920   53.0500 C   0  0  0  0  0  0  0  0  0  0  0  0
   52.8180   31.1920   52.8640 C   0  0  0  0  0  0  0  0  0  0  0  0
   52.5104   31.8439   53.6949 H   0  0  0  0  0  0  0  0  0  0  0  0
   52.0360   31.2470   51.6160 C   0  0  0  0  0  0  0  0  0  0  0  0
   52.2390   30.4140   50.5810 N   0  0  0  0  0  0  0  0  0  0  0  0
   51.3810   30.8660   49.6400 C   0  0  0  0  0  0  0  0  0  0  0  0
   51.2680   30.3250   48.5100 O   0  0  0  0  0  0  0  0  0  0  0  0
   50.6640   31.9500   50.0030 N   0  0  0  0  0  0  0  0  0  0  0  0
   51.0970   32.1880   51.2510 C   0  0  0  0  0  0  0  0  0  0  0  0
   50.6780   33.2680   52.0170 O   0  0  0  0  0  0  0  0  0  0  0  0
   53.8610   29.0700   53.4750 C   0  0  0  0  0  0  0  0  0  0  0  0
   52.9708   28.4859   53.7513 H   0  0  0  0  0  0  0  0  0  0  0  0
   55.1700   28.6320   53.4830 C   0  0  0  0  0  0  0  0  0  0  0  0
   55.5990   27.2440   53.8530 C   0  0  0  0  0  0  0  0  0  0  0  0
   55.6283   27.1491   54.9485 H   0  0  0  0  0  0  0  0  0  0  0  0
   54.8836   26.5170   53.4410 H   0  0  0  0  0  0  0  0  0  0  0  0
   56.5998   27.0475   53.4410 H   0  0  0  0  0  0  0  0  0  0  0  0
   56.0000   29.6140   53.0670 N   0  0  0  0  0  0  0  0  0  0  0  0
   57.4300   29.5110   52.9470 C   0  0  0  0  0  0  0  0  0  0  0  0
   58.0250   29.3830   51.6850 C   0  0  0  0  0  0  0  0  0  0  0  0
   57.3966   29.3682   50.7823 H   0  0  0  0  0  0  0  0  0  0  0  0
   59.4140   29.2740   51.5680 C   0  0  0  0  0  0  0  0  0  0  0  0
   59.8742   29.1808   50.5732 H   0  0  0  0  0  0  0  0  0  0  0  0
   60.2240   29.2830   52.7150 C   0  0  0  0  0  0  0  0  0  0  0  0
   61.7240   29.2060   52.5900 C   0  0  0  0  0  0  0  0  0  0  0  0
   62.1355   30.2261   52.5865 H   0  0  0  0  0  0  0  0  0  0  0  0
   62.1129   28.6306   53.4430 H   0  0  0  0  0  0  0  0  0  0  0  0
   62.1430   28.4950   51.2980 C   0  0  0  0  0  0  0  0  0  0  0  0
   61.8699   29.1239   50.4378 H   0  0  0  0  0  0  0  0  0  0  0  0
   63.2301   28.3298   51.3288 H   0  0  0  0  0  0  0  0  0  0  0  0
   61.4830   27.2000   51.1690 N   0  0  0  0  0  0  0  0  0  0  0  0
   61.9100   26.0190   51.8540 C   0  0  0  0  0  0  0  0  0  0  0  0
   63.0190   25.4860   51.5820 O   0  0  0  0  0  0  0  0  0  0  0  0
   61.0090   25.3840   52.8580 C   0  0  0  0  0  0  0  0  0  0  0  0
   61.3583   25.6301   53.8716 H   0  0  0  0  0  0  0  0  0  0  0  0
   59.9846   25.7608   52.7216 H   0  0  0  0  0  0  0  0  0  0  0  0
   61.0194   24.2925   52.7216 H   0  0  0  0  0  0  0  0  0  0  0  0
   59.6270   29.4190   53.9780 C   0  0  0  0  0  0  0  0  0  0  0  0
   60.2547   29.4407   54.8811 H   0  0  0  0  0  0  0  0  0  0  0  0
   58.2380   29.5270   54.0930 C   0  0  0  0  0  0  0  0  0  0  0  0
   57.7768   29.6250   55.0868 H   0  0  0  0  0  0  0  0  0  0  0  0
  1  2  1  0
  2  3  1  0
  2  4  2  0
  4  5  1  0
  5  6  2  0
  6  7  1  0
  6  8  1  0
  8  9  1  0
  9 10  1  0
 10 11  2  0
 10 12  1  0
 12 13  1  0
 13 14  1  0
  5 15  1  0
 15 16  1  0
 15 17  2  0
 17 18  1  0
 18 19  1  0
 18 20  1  0
 18 21  1  0
 17 22  1  0
 22 23  1  0
 23 24  2  0
 24 25  1  0
 24 26  1  0
 26 27  1  0
 26 28  2  0
 28 29  1  0
 29 30  1  0
 29 31  1  0
 29 32  1  0
 32 33  1  0
 32 34  1  0
 32 35  1  0
 35 36  1  0
 36 37  2  0
 36 38  1  0
 38 39  1  0
 38 40  1  0
 38 41  1  0
 28 42  1  0
 42 43  1  0
 42 44  2  0
 44 45  1  0
 22  4  1  0
 44 23  1  0
 13  8  2  0
M  CHG  4   9  -1  12  -1  14  -1  35  -1
M  END
>  <UniqueID>  (64) 
58

>  <SMILES>  (64) 
C=c1/c(=C/c2[n-]c(=O)[n-]c2[O-])cc(C)n1-c1ccc(CC[N-]C(C)=O)cc1

>  <Energy>  (64) 
111.42891186139488

>  <Genealogy>  (64) 
C=c1c(=Cc2[n-]c(=O)[n-]c2[O-])cc(C)n1-c1ccc(CC[N-]C(C)=O)cc1 (protonated)
C=c1/c(=C/c2[n-]c(=O)[n-]c2[O-])cc(C)n1-c1ccc(CC[N-]C(C)=O)cc1 (cis-trans isomerization)
C=c1/c(=C/c2[n-]c(=O)[n-]c2[O-])cc(C)n1-c1ccc(CC[N-]C(C)=O)cc1 (3D coordinates assigned)
C=c1/c(=C/c2[n-]c(=O)[n-]c2[O-])cc(C)n1-c1ccc(CC[N-]C(C)=O)cc1 (optimized conformer: 111.42891186139488 kcal/mol)

>  <smiles>  (64) 
C=c1c(=Cc2[nH]c(=O)[nH]c2O)cc(C)n1-c1ccc(CCNC(C)=O)cc1

>  <score_type>  (64) 
oracle

>  <origin>  (64) 
adg

>  <m_score__min__energy>  (64) 
-16.109999999999999

>  <m_primary>  (64) 
energy

$$$$
65:0
     RDKit          3D

 44 46  0  0  0  0  0  0  0  0999 V2000
   56.5525   31.8478   52.5599 H   0  0  0  0  0  0  0  0  0  0  0  0
   55.5080   31.5630   52.3650 C   0  0  0  0  0  0  0  0  0  0  0  0
   54.8825   32.1832   51.7061 H   0  0  0  0  0  0  0  0  0  0  0  0
   54.9960   30.4570   52.9320 C   0  0  0  0  0  0  0  0  0  0  0  0
   53.6880   29.9850   52.7670 C   0  0  0  0  0  0  0  0  0  0  0  0
   52.7250   30.5010   51.9770 C   0  0  0  0  0  0  0  0  0  0  0  0
   52.6351   30.1126   50.9518 H   0  0  0  0  0  0  0  0  0  0  0  0
   51.7850   31.5540   52.4030 C   0  0  0  0  0  0  0  0  0  0  0  0
   51.4440   31.7630   53.6870 N   0  0  0  0  0  0  0  0  0  0  0  0
   50.5170   32.7420   53.6100 C   0  0  0  0  0  0  0  0  0  0  0  0
   49.9580   33.2280   54.6280 O   0  0  0  0  0  0  0  0  0  0  0  0
   50.2260   33.1510   52.3560 N   0  0  0  0  0  0  0  0  0  0  0  0
   51.0280   32.3810   51.6030 C   0  0  0  0  0  0  0  0  0  0  0  0
   51.0290   32.4040   50.2130 O   0  0  0  0  0  0  0  0  0  0  0  0
   53.5880   28.8370   53.5380 C   0  0  0  0  0  0  0  0  0  0  0  0
   52.7013   28.1955   53.6481 H   0  0  0  0  0  0  0  0  0  0  0  0
   54.8150   28.6550   54.1400 C   0  0  0  0  0  0  0  0  0  0  0  0
   55.1290   27.5410   55.0940 C   0  0  0  0  0  0  0  0  0  0  0  0
   55.0268   27.9036   56.1275 H   0  0  0  0  0  0  0  0  0  0  0  0
   54.4308   26.7076   54.9271 H   0  0  0  0  0  0  0  0  0  0  0  0
   56.1597   27.1949   54.9271 H   0  0  0  0  0  0  0  0  0  0  0  0
   55.6770   29.6360   53.7780 N   0  0  0  0  0  0  0  0  0  0  0  0
   57.0820   29.7400   54.2090 C   0  0  0  0  0  0  0  0  0  0  0  0
   57.3361   30.8019   54.3426 H   0  0  0  0  0  0  0  0  0  0  0  0
   57.1928   29.1861   55.1529 H   0  0  0  0  0  0  0  0  0  0  0  0
   58.0400   29.1250   53.1780 C   0  0  0  0  0  0  0  0  0  0  0  0
   59.0257   28.9938   53.6482 H   0  0  0  0  0  0  0  0  0  0  0  0
   57.6104   28.1644   52.8576 H   0  0  0  0  0  0  0  0  0  0  0  0
   58.2060   30.0010   51.9230 C   0  0  0  0  0  0  0  0  0  0  0  0
   58.4560   29.3561   51.0677 H   0  0  0  0  0  0  0  0  0  0  0  0
   57.2605   30.5353   51.7480 H   0  0  0  0  0  0  0  0  0  0  0  0
   59.2810   31.0050   52.0990 N   0  0  1  0  0  0  0  0  0  0  0  0
   60.1750   30.5460   52.4000 H   0  0  0  0  0  0  0  0  0  0  0  0
   59.5120   31.7010   50.8680 C   0  0  0  0  0  0  0  0  0  0  0  0
   60.0230   31.1590   49.8990 O   0  0  0  0  0  0  0  0  0  0  0  0
   59.1360   33.1320   50.8620 C   0  0  0  0  0  0  0  0  0  0  0  0
   58.4161   33.3503   50.0595 H   0  0  0  0  0  0  0  0  0  0  0  0
   59.9849   33.8073   50.6794 H   0  0  0  0  0  0  0  0  0  0  0  0
   58.5040   33.3120   52.2290 C   0  0  0  0  0  0  0  0  0  0  0  0
   57.4091   33.3695   52.1399 H   0  0  0  0  0  0  0  0  0  0  0  0
   58.8399   34.2424   52.7103 H   0  0  0  0  0  0  0  0  0  0  0  0
   58.9090   32.0780   53.0440 C   0  0  0  0  0  0  0  0  0  0  0  0
   58.0644   31.7494   53.6674 H   0  0  0  0  0  0  0  0  0  0  0  0
   59.7577   32.3176   53.7015 H   0  0  0  0  0  0  0  0  0  0  0  0
  1  2  1  0
  2  3  1  0
  2  4  2  0
  4  5  1  0
  5  6  2  0
  6  7  1  0
  6  8  1  0
  8  9  1  0
  9 10  1  0
 10 11  2  0
 10 12  1  0
 12 13  1  0
 13 14  1  0
  5 15  1  0
 15 16  1  0
 15 17  2  0
 17 18  1  0
 18 19  1  0
 18 20  1  0
 18 21  1  0
 17 22  1  0
 22 23  1  0
 23 24  1  0
 23 25  1  0
 23 26  1  0
 26 27  1  0
 26 28  1  0
 26 29  1  0
 29 30  1  0
 29 31  1  0
 29 32  1  0
 32 33  1  1
 32 34  1  0
 34 35  2  0
 34 36  1  0
 36 37  1  0
 36 38  1  0
 36 39  1  0
 39 40  1  0
 39 41  1  0
 39 42  1  0
 42 43  1  0
 42 44  1  0
 22  4  1  0
 42 32  1  0
 13  8  2  0
M  CHG  4   9  -1  12  -1  14  -1  32   1
M  END
>  <UniqueID>  (65) 
59

>  <SMILES>  (65) 
C=c1/c(=C/c2[n-]c(=O)[n-]c2[O-])cc(C)n1CCC[N@@H+]1CCCC1=O

>  <Energy>  (65) 
109.45851558604689

>  <Genealogy>  (65) 
C=c1c(=Cc2[n-]c(=O)[n-]c2[O-])cc(C)n1CCC[NH+]1CCCC1=O (protonated)
C=c1c(=Cc2[n-]c(=O)[n-]c2[O-])cc(C)n1CCC[N@@H+]1CCCC1=O (chirality)
C=c1/c(=C/c2[n-]c(=O)[n-]c2[O-])cc(C)n1CCC[N@@H+]1CCCC1=O (cis-trans isomerization)
C=c1/c(=C/c2[n-]c(=O)[n-]c2[O-])cc(C)n1CCC[N@@H+]1CCCC1=O (3D coordinates assigned)
C=c1/c(=C/c2[n-]c(=O)[n-]c2[O-])cc(C)n1CCC[N@@H+]1CCCC1=O (nonaromatic ring conformer: 109.45851558604689 kcal/mol)

>  <smiles>  (65) 
C=c1c(=Cc2[nH]c(=O)[nH]c2O)cc(C)n1CCCN1CCCC1=O

>  <score_type>  (65) 
oracle

>  <origin>  (65) 
adg

>  <m_score__min__energy>  (65) 
-14.02

>  <m_primary>  (65) 
energy

$$$$
66:0
     RDKit          3D

 39 41  0  0  1  0  0  0  0  0999 V2000
   56.2180   19.9530   43.7410 O   0  0  0  0  0  0  0  0  0  0  0  0
   56.3470   21.2080   43.6120 C   0  0  0  0  0  0  0  0  0  0  0  0
   56.5660   22.1410   44.6240 C   0  0  0  0  0  0  0  0  0  0  0  0
   56.6330   23.3600   43.9780 C   0  0  0  0  0  0  0  0  0  0  0  0
   56.8560   24.7170   44.5830 C   0  0  0  0  0  0  0  0  0  0  0  0
   55.7180   24.9250   45.5560 C   0  0  0  0  0  0  0  0  0  0  0  0
   56.4890   30.0880   44.3510 N   0  0  0  0  0  0  0  0  0  0  0  0
   56.9170   29.1230   45.0560 C   0  0  0  0  0  0  0  0  0  0  0  0
   57.8840   27.1070   46.5580 C   0  0  0  0  0  0  0  0  0  0  0  0
   58.6850   28.1770   46.2570 C   0  0  0  0  0  0  0  0  0  0  0  0
   58.1970   29.1810   45.5050 N   0  0  0  0  0  0  0  0  0  0  0  0
   56.5950   27.0870   46.0840 C   0  0  0  0  0  0  0  0  0  0  0  0
   55.8300   26.1080   46.3490 N   0  0  0  0  0  0  0  0  0  0  0  0
   57.3340   31.0030   43.6370 C   0  0  0  0  0  0  0  0  0  0  0  0
   57.7020   32.0830   44.6200 C   0  0  0  0  0  0  0  0  0  0  0  0
   57.9920   33.3680   44.1500 C   0  0  0  0  0  0  0  0  0  0  0  0
   58.3290   34.3630   45.0340 C   0  0  0  0  0  0  0  0  0  0  0  0
   58.3710   34.0630   46.3610 C   0  0  0  0  0  0  0  0  0  0  0  0
   58.0840   32.7880   46.8420 C   0  0  0  0  0  0  0  0  0  0  0  0
   57.7570   31.8350   45.9430 N   0  0  0  0  0  0  0  0  0  0  0  0
   56.1020   28.0880   45.3340 N   0  0  0  0  0  0  0  0  0  0  0  0
   56.4590   23.1220   42.6690 N   0  0  0  0  0  0  0  0  0  0  0  0
   56.2900   21.8460   42.4600 O   0  0  0  0  0  0  0  0  0  0  0  0
   56.6641   21.9484   45.7026 H   0  0  0  0  0  0  0  0  0  0  0  0
   57.8211   24.7478   45.1098 H   0  0  0  0  0  0  0  0  0  0  0  0
   56.8815   25.5040   43.8149 H   0  0  0  0  0  0  0  0  0  0  0  0
   54.7810   24.9822   44.9827 H   0  0  0  0  0  0  0  0  0  0  0  0
   55.7416   24.0751   46.2539 H   0  0  0  0  0  0  0  0  0  0  0  0
   58.2672   26.2769   47.1697 H   0  0  0  0  0  0  0  0  0  0  0  0
   59.7200   28.2153   46.6274 H   0  0  0  0  0  0  0  0  0  0  0  0
   58.7890   30.0120   45.2600 H   0  0  0  0  0  0  0  0  0  0  0  0
   58.2378   30.4883   43.2788 H   0  0  0  0  0  0  0  0  0  0  0  0
   56.8235   31.4180   42.7554 H   0  0  0  0  0  0  0  0  0  0  0  0
   57.9501   33.5815   43.0717 H   0  0  0  0  0  0  0  0  0  0  0  0
   58.5595   35.3781   44.6784 H   0  0  0  0  0  0  0  0  0  0  0  0
   58.6404   34.8535   47.0769 H   0  0  0  0  0  0  0  0  0  0  0  0
   58.1224   32.5647   47.9184 H   0  0  0  0  0  0  0  0  0  0  0  0
   55.1430   28.0770   44.9780 H   0  0  0  0  0  0  0  0  0  0  0  0
   56.4580   23.8570   41.9210 H   0  0  0  0  0  0  0  0  0  0  0  0
  1  2  2  0
  2  3  1  0
  3  4  2  0
  4  5  1  0
  5  6  1  0
  6  7  1  0
  7  8  2  0
  8  9  1  0
  9 10  2  0
 10 11  1  0
 11 12  1  0
 12 13  2  0
 13 14  1  0
 14 15  1  0
 15 16  2  0
 16 17  1  0
 17 18  2  0
 18 19  1  0
 19 20  2  0
 12 21  1  0
  4 22  1  0
 22 23  1  0
 23  2  1  0
 21  8  1  0
 20 15  1  0
  3 24  1  0
  5 25  1  0
  5 26  1  0
  6 27  1  0
  6 28  1  0
  9 29  1  0
 10 30  1  0
 11 31  1  0
 14 32  1  0
 14 33  1  0
 16 34  1  0
 17 35  1  0
 18 36  1  0
 19 37  1  0
 21 38  1  0
 22 39  1  0
M  END
>  <smiles>  (66) 
O=c1cc(CCN=c2cc[nH]c(=NCc3ccccn3)[nH]2)[nH]o1

>  <score_type>  (66) 
oracle

>  <origin>  (66) 
adg

>  <m_score__min__energy>  (66) 
-8.2599999999999998

>  <m_primary>  (66) 
energy

$$$$
67:0
     RDKit          3D

 47 51  0  0  0  0  0  0  0  0999 V2000
   56.2810   30.1140   42.6280 C   0  0  0  0  0  0  0  0  0  0  0  0
   57.0230   30.3260   43.9140 C   0  0  0  0  0  0  0  0  0  0  0  0
   57.5790   31.5810   44.2400 C   0  0  0  0  0  0  0  0  0  0  0  0
   58.2460   31.7850   45.4790 C   0  0  0  0  0  0  0  0  0  0  0  0
   58.8360   33.1080   45.8100 C   0  0  0  0  0  0  0  0  0  0  0  0
   59.4280   33.3290   47.0650 C   0  0  0  0  0  0  0  0  0  0  0  0
   59.9700   34.5810   47.3610 C   0  0  0  0  0  0  0  0  0  0  0  0
   59.9190   35.6000   46.4130 C   0  0  0  0  0  0  0  0  0  0  0  0
   59.3240   35.3530   45.1760 C   0  0  0  0  0  0  0  0  0  0  0  0
   58.7990   34.1270   44.8990 N   0  0  0  0  0  0  0  0  0  0  0  0
   58.3370   30.7180   46.4020 C   0  0  0  0  0  0  0  0  0  0  0  0
   57.7640   29.5000   46.0540 C   0  0  0  0  0  0  0  0  0  0  0  0
   57.7320   28.3740   46.7820 N   0  0  0  0  0  0  0  0  0  0  0  0
   57.0530   27.5130   45.9770 C   0  0  0  0  0  0  0  0  0  0  0  0
   56.7630   26.1100   46.3650 C   0  0  0  0  0  0  0  0  0  0  0  0
   55.5470   25.5140   45.9800 C   0  0  0  0  0  0  0  0  0  0  0  0
   55.2530   24.1850   46.3240 C   0  0  0  0  0  0  0  0  0  0  0  0
   53.9610   23.5870   45.9190 C   0  0  0  0  0  0  0  0  0  0  0  0
   52.9380   24.2590   45.2780 C   0  0  0  0  0  0  0  0  0  0  0  0
   51.9500   23.3110   45.1060 C   0  0  0  0  0  0  0  0  0  0  0  0
   52.3640   22.1290   45.6040 N   0  0  0  0  0  0  0  0  0  0  0  0
   53.5840   22.2990   46.0870 N   0  0  0  0  0  0  0  0  0  0  0  0
   54.3580   21.2110   46.6770 C   0  0  0  0  0  0  0  0  0  0  0  0
   56.1760   23.4550   47.0870 C   0  0  0  0  0  0  0  0  0  0  0  0
   57.3840   24.0350   47.4750 C   0  0  0  0  0  0  0  0  0  0  0  0
   57.6840   25.3510   47.1160 C   0  0  0  0  0  0  0  0  0  0  0  0
   58.8700   25.8770   47.5150 F   0  0  0  0  0  0  0  0  0  0  0  0
   56.6670   28.0530   44.7900 N   0  0  0  0  0  0  0  0  0  0  0  0
   57.1310   29.3100   44.8670 C   0  0  0  0  0  0  0  0  0  0  0  0
   55.2445   29.8179   42.8472 H   0  0  0  0  0  0  0  0  0  0  0  0
   56.2804   31.0479   42.0468 H   0  0  0  0  0  0  0  0  0  0  0  0
   56.7739   29.3207   42.0468 H   0  0  0  0  0  0  0  0  0  0  0  0
   57.4953   32.4133   43.5257 H   0  0  0  0  0  0  0  0  0  0  0  0
   59.4642   32.5203   47.8098 H   0  0  0  0  0  0  0  0  0  0  0  0
   60.4363   34.7623   48.3407 H   0  0  0  0  0  0  0  0  0  0  0  0
   60.3437   36.5896   46.6376 H   0  0  0  0  0  0  0  0  0  0  0  0
   59.2785   36.1516   44.4209 H   0  0  0  0  0  0  0  0  0  0  0  0
   58.3810   33.9750   43.9540 H   0  0  0  0  0  0  0  0  0  0  0  0
   58.8467   30.8478   47.3681 H   0  0  0  0  0  0  0  0  0  0  0  0
   54.8165   26.0982   45.4011 H   0  0  0  0  0  0  0  0  0  0  0  0
   52.9160   25.3155   44.9725 H   0  0  0  0  0  0  0  0  0  0  0  0
   50.9730   23.4925   44.6342 H   0  0  0  0  0  0  0  0  0  0  0  0
   54.3094   21.2793   47.7738 H   0  0  0  0  0  0  0  0  0  0  0  0
   53.9421   20.2463   46.3509 H   0  0  0  0  0  0  0  0  0  0  0  0
   55.4058   21.2876   46.3509 H   0  0  0  0  0  0  0  0  0  0  0  0
   55.9463   22.4202   47.3809 H   0  0  0  0  0  0  0  0  0  0  0  0
   58.1047   23.4522   48.0674 H   0  0  0  0  0  0  0  0  0  0  0  0
  1  2  1  0
  2  3  2  0
  3  4  1  0
  4  5  1  0
  5  6  2  0
  6  7  1  0
  7  8  2  0
  8  9  1  0
  9 10  2  0
  4 11  2  0
 11 12  1  0
 12 13  1  0
 13 14  1  0
 14 15  1  0
 15 16  2  0
 16 17  1  0
 17 18  1  0
 18 19  2  0
 19 20  1  0
 20 21  2  0
 21 22  1  0
 22 23  1  0
 17 24  2  0
 24 25  1  0
 25 26  2  0
 26 27  1  0
 14 28  2  0
 28 29  1  0
 29  2  1  0
 10  5  1  0
 29 12  2  0
 26 15  1  0
 22 18  1  0
  1 30  1  0
  1 31  1  0
  1 32  1  0
  3 33  1  0
  6 34  1  0
  7 35  1  0
  8 36  1  0
  9 37  1  0
 10 38  1  0
 11 39  1  0
 16 40  1  0
 19 41  1  0
 20 42  1  0
 23 43  1  0
 23 44  1  0
 23 45  1  0
 24 46  1  0
 25 47  1  0
M  CHG  2  10   1  13  -1
M  END
>  <UniqueID>  (67) 
60

>  <SMILES>  (67) 
Cc1cc(-c2cccc[nH+]2)cc2[n-]c(-c3cc(-c4ccnn4C)ccc3F)nc12

>  <Energy>  (67) 
128.21222914401963

>  <Genealogy>  (67) 
Cc1cc(-c2cccc[nH+]2)cc2[n-]c(-c3cc(-c4ccnn4C)ccc3F)nc12 (protonated)
Cc1cc(-c2cccc[nH+]2)cc2[n-]c(-c3cc(-c4ccnn4C)ccc3F)nc12 (3D coordinates assigned)
Cc1cc(-c2cccc[nH+]2)cc2[n-]c(-c3cc(-c4ccnn4C)ccc3F)nc12 (optimized conformer: 128.21222914401963 kcal/mol)

>  <smiles>  (67) 
Cc1cc(-c2ccccn2)cc2[nH]c(-c3cc(-c4ccnn4C)ccc3F)nc12

>  <score_type>  (67) 
oracle

>  <origin>  (67) 
adg

>  <m_score__min__energy>  (67) 
-8.1199999999999992

>  <m_primary>  (67) 
energy

$$$$
68:0
     RDKit          3D

 78 82  0  0  0  0  0  0  0  0999 V2000
   58.5210   28.9680   48.6470 O   0  0  0  0  0  0  0  0  0  0  0  0
   59.2650   29.6530   49.3980 C   0  0  0  0  0  0  0  0  0  0  0  0
   60.7110   29.2950   49.5350 C   0  0  0  0  0  0  0  0  0  0  0  0
   61.5730   30.4070   48.9960 C   0  0  0  0  0  0  0  0  0  0  0  0
   62.4970   31.0590   49.8320 C   0  0  0  0  0  0  0  0  0  0  0  0
   63.3370   32.0490   49.3150 C   0  0  0  0  0  0  0  0  0  0  0  0
   63.2760   32.3880   47.9590 C   0  0  0  0  0  0  0  0  0  0  0  0
   64.1310   33.3650   47.4550 O   0  0  0  0  0  0  0  0  0  0  0  0
   62.3590   31.7400   47.1210 C   0  0  0  0  0  0  0  0  0  0  0  0
   61.5130   30.7520   47.6360 C   0  0  0  0  0  0  0  0  0  0  0  0
   58.7370   30.7710   50.1180 N   0  0  0  0  0  0  0  0  0  0  0  0
   59.4830   31.4890   51.1470 C   0  0  2  0  0  0  0  0  0  0  0  0
   58.8380   31.2620   52.5270 C   0  0  0  0  0  0  0  0  0  0  0  0
   57.3580   31.0390   52.4080 C   0  0  0  0  0  0  0  0  0  0  0  0
   56.4170   31.9440   51.9220 C   0  0  0  0  0  0  0  0  0  0  0  0
   55.1700   31.4380   52.0480 N   0  0  0  0  0  0  0  0  0  0  0  0
   55.3140   30.2280   52.6150 C   0  0  0  0  0  0  0  0  0  0  0  0
   54.3030   29.3390   52.9770 C   0  0  0  0  0  0  0  0  0  0  0  0
   54.6800   28.1330   53.6010 C   0  0  0  0  0  0  0  0  0  0  0  0
   56.0420   27.8500   53.8510 C   0  0  0  0  0  0  0  0  0  0  0  0
   57.0390   28.7680   53.4770 C   0  0  0  0  0  0  0  0  0  0  0  0
   56.6360   29.9520   52.8530 C   0  0  0  0  0  0  0  0  0  0  0  0
   59.5580   32.9640   50.8190 C   0  0  0  0  0  0  0  0  0  0  0  0
   58.9600   33.7760   51.5760 O   0  0  0  0  0  0  0  0  0  0  0  0
   60.1880   33.4770   49.6360 N   0  0  0  0  0  0  0  0  0  0  0  0
   59.7100   34.5810   48.8080 C   0  0  0  0  0  0  0  0  0  0  0  0
   60.4240   34.5770   47.4510 C   0  0  0  0  0  0  0  0  0  0  0  0
   59.4570   34.5570   46.2560 C   0  0  0  0  0  0  0  0  0  0  0  0
   58.3990   33.5390   46.4400 N   0  0  0  0  0  0  0  0  0  0  0  0
   58.9850   32.1850   46.5520 C   0  0  0  0  0  0  0  0  0  0  0  0
   57.9220   31.0980   46.3320 C   0  0  0  0  0  0  0  0  0  0  0  0
   57.2810   31.1890   44.9940 N   0  0  0  0  0  0  0  0  0  0  0  0
   57.7470   30.1290   44.0770 C   0  0  0  0  0  0  0  0  0  0  0  0
   58.4670   29.0540   44.8460 C   0  0  0  0  0  0  0  0  0  0  0  0
   59.8690   29.0420   44.9250 C   0  0  0  0  0  0  0  0  0  0  0  0
   60.5260   28.0360   45.6420 C   0  0  0  0  0  0  0  0  0  0  0  0
   59.7880   27.0430   46.2930 C   0  0  0  0  0  0  0  0  0  0  0  0
   58.3930   27.0510   46.2210 C   0  0  0  0  0  0  0  0  0  0  0  0
   57.7340   28.0510   45.4990 C   0  0  0  0  0  0  0  0  0  0  0  0
   57.4230   32.5200   44.3640 C   0  0  0  0  0  0  0  0  0  0  0  0
   57.3320   33.6410   45.4090 C   0  0  0  0  0  0  0  0  0  0  0  0
   60.9469   29.1341   50.5973 H   0  0  0  0  0  0  0  0  0  0  0  0
   60.9101   28.3761   48.9640 H   0  0  0  0  0  0  0  0  0  0  0  0
   62.5588   30.7888   50.8965 H   0  0  0  0  0  0  0  0  0  0  0  0
   64.0490   32.5638   49.9769 H   0  0  0  0  0  0  0  0  0  0  0  0
   65.0280   33.1280   47.0480 H   0  0  0  0  0  0  0  0  0  0  0  0
   62.3041   32.0087   46.0557 H   0  0  0  0  0  0  0  0  0  0  0  0
   60.7978   30.2432   46.9729 H   0  0  0  0  0  0  0  0  0  0  0  0
   60.5104   31.0972   51.1770 H   0  0  0  0  0  0  0  0  0  0  0  0
   59.2967   30.3790   52.9960 H   0  0  0  0  0  0  0  0  0  0  0  0
   59.0054   32.1598   53.1401 H   0  0  0  0  0  0  0  0  0  0  0  0
   56.6549   32.9300   51.4963 H   0  0  0  0  0  0  0  0  0  0  0  0
   54.2750   31.9050   51.7750 H   0  0  0  0  0  0  0  0  0  0  0  0
   53.2456   29.5713   52.7820 H   0  0  0  0  0  0  0  0  0  0  0  0
   53.9085   27.4064   53.8957 H   0  0  0  0  0  0  0  0  0  0  0  0
   56.3235   26.9062   54.3409 H   0  0  0  0  0  0  0  0  0  0  0  0
   58.1021   28.5611   53.6693 H   0  0  0  0  0  0  0  0  0  0  0  0
   58.6271   34.4724   48.6485 H   0  0  0  0  0  0  0  0  0  0  0  0
   59.9222   35.5307   49.3209 H   0  0  0  0  0  0  0  0  0  0  0  0
   61.0467   35.4811   47.3813 H   0  0  0  0  0  0  0  0  0  0  0  0
   61.0237   33.6562   47.4007 H   0  0  0  0  0  0  0  0  0  0  0  0
   58.9886   35.5473   46.1570 H   0  0  0  0  0  0  0  0  0  0  0  0
   60.0282   34.3055   45.3502 H   0  0  0  0  0  0  0  0  0  0  0  0
   59.7749   32.0725   45.7948 H   0  0  0  0  0  0  0  0  0  0  0  0
   59.3979   32.0676   47.5648 H   0  0  0  0  0  0  0  0  0  0  0  0
   58.4009   30.1123   46.4271 H   0  0  0  0  0  0  0  0  0  0  0  0
   57.1365   31.2416   47.0886 H   0  0  0  0  0  0  0  0  0  0  0  0
   56.8810   29.6884   43.5613 H   0  0  0  0  0  0  0  0  0  0  0  0
   58.4383   30.5686   43.3430 H   0  0  0  0  0  0  0  0  0  0  0  0
   60.4529   29.8264   44.4213 H   0  0  0  0  0  0  0  0  0  0  0  0
   61.6248   28.0264   45.6935 H   0  0  0  0  0  0  0  0  0  0  0  0
   60.3054   26.2561   46.8614 H   0  0  0  0  0  0  0  0  0  0  0  0
   57.8121   26.2697   46.7329 H   0  0  0  0  0  0  0  0  0  0  0  0
   56.6354   28.0515   45.4426 H   0  0  0  0  0  0  0  0  0  0  0  0
   58.3997   32.5766   43.8611 H   0  0  0  0  0  0  0  0  0  0  0  0
   56.6057   32.6517   43.6396 H   0  0  0  0  0  0  0  0  0  0  0  0
   57.4259   34.6102   44.8973 H   0  0  0  0  0  0  0  0  0  0  0  0
   56.3615   33.5483   45.9185 H   0  0  0  0  0  0  0  0  0  0  0  0
  1  2  2  0
  2  3  1  0
  3  4  1  0
  4  5  2  0
  5  6  1  0
  6  7  2  0
  7  8  1  0
  7  9  1  0
  9 10  2  0
  2 11  1  0
 11 12  1  0
 12 13  1  0
 13 14  1  0
 14 15  2  0
 15 16  1  0
 16 17  1  0
 17 18  2  0
 18 19  1  0
 19 20  2  0
 20 21  1  0
 21 22  2  0
 12 23  1  0
 23 24  2  0
 23 25  1  0
 25 26  1  0
 26 27  1  0
 27 28  1  0
 28 29  1  0
 29 30  1  0
 30 31  1  0
 31 32  1  0
 32 33  1  0
 33 34  1  0
 34 35  2  0
 35 36  1  0
 36 37  2  0
 37 38  1  0
 38 39  2  0
 32 40  1  0
 40 41  1  0
 10  4  1  0
 22 14  1  0
 41 29  1  0
 22 17  1  0
 39 34  1  0
  3 42  1  0
  3 43  1  0
  5 44  1  0
  6 45  1  0
  8 46  1  0
  9 47  1  0
 10 48  1  0
 12 49  1  1
 13 50  1  0
 13 51  1  0
 15 52  1  0
 16 53  1  0
 18 54  1  0
 19 55  1  0
 20 56  1  0
 21 57  1  0
 26 58  1  0
 26 59  1  0
 27 60  1  0
 27 61  1  0
 28 62  1  0
 28 63  1  0
 30 64  1  0
 30 65  1  0
 31 66  1  0
 31 67  1  0
 33 68  1  0
 33 69  1  0
 35 70  1  0
 36 71  1  0
 37 72  1  0
 38 73  1  0
 39 74  1  0
 40 75  1  0
 40 76  1  0
 41 77  1  0
 41 78  1  0
M  CHG  2  11  -1  25  -1
M  END
>  <UniqueID>  (68) 
61

>  <SMILES>  (68) 
O=C(Cc1ccc(O)cc1)[N-][C@H](Cc1c[nH]c2ccccc12)C(=O)[N-]CCCN1CCN(Cc2ccccc2)CC1

>  <Energy>  (68) 
118.28507215200592

>  <Genealogy>  (68) 
O=C(Cc1ccc(O)cc1)[N-]C(Cc1c[nH]c2ccccc12)C(=O)[N-]CCCN1CCN(Cc2ccccc2)CC1 (protonated)
O=C(Cc1ccc(O)cc1)[N-][C@H](Cc1c[nH]c2ccccc12)C(=O)[N-]CCCN1CCN(Cc2ccccc2)CC1 (chirality)
O=C(Cc1ccc(O)cc1)[N-][C@H](Cc1c[nH]c2ccccc12)C(=O)[N-]CCCN1CCN(Cc2ccccc2)CC1 (3D coordinates assigned)
O=C(Cc1ccc(O)cc1)[N-][C@H](Cc1c[nH]c2ccccc12)C(=O)[N-]CCCN1CCN(Cc2ccccc2)CC1 (nonaromatic ring conformer: 118.28507215200592 kcal/mol)

>  <smiles>  (68) 
O=C(Cc1ccc(O)cc1)NC(Cc1c[nH]c2ccccc12)C(=O)NCCCN1CCN(Cc2ccccc2)CC1

>  <score_type>  (68) 
oracle

>  <origin>  (68) 
adg

>  <m_score__min__energy>  (68) 
-14.210000000000001

>  <m_primary>  (68) 
energy

$$$$
69:0
     RDKit          3D

 44 46  0  0  0  0  0  0  0  0999 V2000
   59.4400   33.8220   48.4470 C   0  0  0  0  0  0  0  0  0  0  0  0
   58.9730   33.0470   47.2430 C   0  0  0  0  0  0  0  0  0  0  0  0
   58.5820   31.7060   47.3980 C   0  0  0  0  0  0  0  0  0  0  0  0
   58.1450   30.9620   46.3000 C   0  0  0  0  0  0  0  0  0  0  0  0
   58.0920   31.5470   45.0330 C   0  0  0  0  0  0  0  0  0  0  0  0
   57.5080   30.5990   43.6260 S   0  0  0  0  0  0  0  0  0  0  0  0
   57.5850   29.0440   44.5360 C   0  0  0  0  0  0  0  0  0  0  0  0
   56.4130   28.4540   44.8940 N   0  0  0  0  0  0  0  0  0  0  0  0
   56.3880   27.3160   45.6290 C   0  0  0  0  0  0  0  0  0  0  0  0
   55.1620   26.7600   45.9800 O   0  0  0  0  0  0  0  0  0  0  0  0
   57.5870   26.7150   46.0310 C   0  0  0  0  0  0  0  0  0  0  0  0
   57.5790   25.4770   46.9020 C   0  0  0  0  0  0  0  0  0  0  0  0
   57.6280   24.2350   46.0520 C   0  0  0  0  0  0  0  0  0  0  0  0
   58.8630   23.6800   45.6740 C   0  0  0  0  0  0  0  0  0  0  0  0
   58.9060   22.5480   44.8560 C   0  0  0  0  0  0  0  0  0  0  0  0
   57.7200   21.9630   44.4040 C   0  0  0  0  0  0  0  0  0  0  0  0
   56.4880   22.5110   44.7700 C   0  0  0  0  0  0  0  0  0  0  0  0
   56.4390   23.6430   45.5890 C   0  0  0  0  0  0  0  0  0  0  0  0
   58.7930   27.3260   45.6420 C   0  0  0  0  0  0  0  0  0  0  0  0
   59.8920   26.8070   45.9830 O   0  0  0  0  0  0  0  0  0  0  0  0
   58.7810   28.4740   44.8940 N   0  0  0  0  0  0  0  0  0  0  0  0
   60.0040   29.0570   44.4960 N   0  0  0  0  0  0  0  0  0  0  0  0
   58.4940   32.8750   44.8610 C   0  0  0  0  0  0  0  0  0  0  0  0
   58.9390   33.6350   45.9560 C   0  0  0  0  0  0  0  0  0  0  0  0
   59.3500   35.0680   45.7410 C   0  0  0  0  0  0  0  0  0  0  0  0
   59.1258   33.3006   49.3632 H   0  0  0  0  0  0  0  0  0  0  0  0
   60.5369   33.9022   48.4286 H   0  0  0  0  0  0  0  0  0  0  0  0
   58.9984   34.8293   48.4286 H   0  0  0  0  0  0  0  0  0  0  0  0
   58.6205   31.2384   48.3929 H   0  0  0  0  0  0  0  0  0  0  0  0
   57.8419   29.9130   46.4333 H   0  0  0  0  0  0  0  0  0  0  0  0
   55.5080   28.8940   44.6120 H   0  0  0  0  0  0  0  0  0  0  0  0
   58.4555   25.4960   47.5664 H   0  0  0  0  0  0  0  0  0  0  0  0
   56.6534   25.4656   47.4963 H   0  0  0  0  0  0  0  0  0  0  0  0
   59.7996   24.1388   46.0237 H   0  0  0  0  0  0  0  0  0  0  0  0
   59.8756   22.1163   44.5671 H   0  0  0  0  0  0  0  0  0  0  0  0
   57.7564   21.0716   43.7605 H   0  0  0  0  0  0  0  0  0  0  0  0
   55.5548   22.0509   44.4131 H   0  0  0  0  0  0  0  0  0  0  0  0
   55.4668   24.0724   45.8724 H   0  0  0  0  0  0  0  0  0  0  0  0
   60.0460   29.8650   43.8370 H   0  0  0  0  0  0  0  0  0  0  0  0
   60.9210   28.6720   44.8150 H   0  0  0  0  0  0  0  0  0  0  0  0
   58.4616   33.3290   43.8596 H   0  0  0  0  0  0  0  0  0  0  0  0
   59.4909   35.5591   46.7151 H   0  0  0  0  0  0  0  0  0  0  0  0
   60.2930   35.0981   45.1754 H   0  0  0  0  0  0  0  0  0  0  0  0
   58.5663   35.5933   45.1754 H   0  0  0  0  0  0  0  0  0  0  0  0
  1  2  1  0
  2  3  2  0
  3  4  1  0
  4  5  2  0
  5  6  1  0
  6  7  1  0
  7  8  2  0
  8  9  1  0
  9 10  1  0
  9 11  2  0
 11 12  1  0
 12 13  1  0
 13 14  2  0
 14 15  1  0
 15 16  2  0
 16 17  1  0
 17 18  2  0
 11 19  1  0
 19 20  2  0
 19 21  1  0
 21 22  1  0
  5 23  1  0
 23 24  2  0
 24 25  1  0
 24  2  1  0
 21  7  1  0
 18 13  1  0
  1 26  1  0
  1 27  1  0
  1 28  1  0
  3 29  1  0
  4 30  1  0
  8 31  1  0
 12 32  1  0
 12 33  1  0
 14 34  1  0
 15 35  1  0
 16 36  1  0
 17 37  1  0
 18 38  1  0
 22 39  1  0
 22 40  1  0
 23 41  1  0
 25 42  1  0
 25 43  1  0
 25 44  1  0
M  CHG  2   8   1  10  -1
M  END
>  <UniqueID>  (69) 
62

>  <SMILES>  (69) 
Cc1ccc(Sc2[nH+]c([O-])c(Cc3ccccc3)c(=O)n2N)cc1C

>  <Energy>  (69) 
45.45936221551262

>  <Genealogy>  (69) 
Cc1ccc(Sc2[nH+]c([O-])c(Cc3ccccc3)c(=O)n2N)cc1C (protonated)
Cc1ccc(Sc2[nH+]c([O-])c(Cc3ccccc3)c(=O)n2N)cc1C (3D coordinates assigned)
Cc1ccc(Sc2[nH+]c([O-])c(Cc3ccccc3)c(=O)n2N)cc1C (optimized conformer: 45.45936221551262 kcal/mol)

>  <smiles>  (69) 
Cc1ccc(Sc2nc(O)c(Cc3ccccc3)c(=O)n2N)cc1C

>  <score_type>  (69) 
oracle

>  <origin>  (69) 
adg

>  <m_score__min__energy>  (69) 
-10.029999999999999

>  <m_primary>  (69) 
energy

$$$$
70:0
     RDKit          3D

 58 61  0  0  0  0  0  0  0  0999 V2000
   59.8600   32.7170   50.3930 C   0  0  0  0  0  0  0  0  0  0  0  0
   59.4980   32.9890   48.9590 C   0  0  0  0  0  0  0  0  0  0  0  0
   58.1990   32.7190   48.5030 C   0  0  0  0  0  0  0  0  0  0  0  0
   57.8510   32.9550   47.1730 C   0  0  0  0  0  0  0  0  0  0  0  0
   58.7960   33.4690   46.2780 C   0  0  0  0  0  0  0  0  0  0  0  0
   58.3360   33.7990   44.6070 S   0  0  0  0  0  0  0  0  0  0  0  0
   57.3880   34.9640   44.5860 O   0  0  0  0  0  0  0  0  0  0  0  0
   59.5390   34.1720   43.7880 O   0  0  0  0  0  0  0  0  0  0  0  0
   57.5350   32.4170   43.9270 N   0  0  0  0  0  0  0  0  0  0  0  0
   57.7330   31.0640   44.3750 C   0  0  0  0  0  0  0  0  0  0  0  0
   58.8260   30.7730   45.2040 C   0  0  0  0  0  0  0  0  0  0  0  0
   59.0360   29.4750   45.6780 C   0  0  0  0  0  0  0  0  0  0  0  0
   58.1540   28.4420   45.3300 C   0  0  0  0  0  0  0  0  0  0  0  0
   58.3650   27.0450   45.8620 C   0  0  0  0  0  0  0  0  0  0  0  0
   57.0980   26.2290   45.8060 C   0  0  0  0  0  0  0  0  0  0  0  0
   55.9150   26.8720   46.0000 N   0  0  0  0  0  0  0  0  0  0  0  0
   54.7480   26.2290   45.9720 N   0  0  0  0  0  0  0  0  0  0  0  0
   54.6740   24.8950   45.7450 C   0  0  0  0  0  0  0  0  0  0  0  0
   53.5510   24.3260   45.7450 O   0  0  0  0  0  0  0  0  0  0  0  0
   55.8500   24.1690   45.5130 C   0  0  0  0  0  0  0  0  0  0  0  0
   57.0830   24.8400   45.5430 C   0  0  0  0  0  0  0  0  0  0  0  0
   58.3290   24.0130   45.3200 C   0  0  0  0  0  0  0  0  0  0  0  0
   58.1290   23.0810   44.1170 C   0  0  0  0  0  0  0  0  0  0  0  0
   56.8210   22.2540   44.1770 C   0  0  0  0  0  0  0  0  0  0  0  0
   55.8450   22.6720   45.2950 C   0  0  0  0  0  0  0  0  0  0  0  0
   57.0390   28.7370   44.5300 C   0  0  0  0  0  0  0  0  0  0  0  0
   56.8340   30.0330   44.0490 C   0  0  0  0  0  0  0  0  0  0  0  0
   60.1020   33.7180   46.7180 C   0  0  0  0  0  0  0  0  0  0  0  0
   60.4670   33.4760   48.0560 C   0  0  0  0  0  0  0  0  0  0  0  0
   61.8010   33.7260   48.5290 N   0  0  0  0  0  0  0  0  0  0  0  0
   63.2570   33.1490   47.7880 S   0  0  0  0  0  0  0  0  0  0  0  0
   64.5470   33.0390   49.0080 C   0  0  0  0  0  0  0  0  0  0  0  0
   63.6800   34.1250   46.7290 O   0  0  0  0  0  0  0  0  0  0  0  0
   63.0210   31.8110   47.1480 O   0  0  0  0  0  0  0  0  0  0  0  0
   59.1576   33.2448   51.0549 H   0  0  0  0  0  0  0  0  0  0  0  0
   59.8041   31.6356   50.5865 H   0  0  0  0  0  0  0  0  0  0  0  0
   60.8831   33.0717   50.5865 H   0  0  0  0  0  0  0  0  0  0  0  0
   57.4486   32.3178   49.2001 H   0  0  0  0  0  0  0  0  0  0  0  0
   56.8302   32.7363   46.8265 H   0  0  0  0  0  0  0  0  0  0  0  0
   56.7370   32.6160   43.2820 H   0  0  0  0  0  0  0  0  0  0  0  0
   59.5253   31.5746   45.4841 H   0  0  0  0  0  0  0  0  0  0  0  0
   59.8979   29.2627   46.3276 H   0  0  0  0  0  0  0  0  0  0  0  0
   59.1371   26.5463   45.2576 H   0  0  0  0  0  0  0  0  0  0  0  0
   58.6765   27.1224   46.9141 H   0  0  0  0  0  0  0  0  0  0  0  0
   59.1806   24.6816   45.1258 H   0  0  0  0  0  0  0  0  0  0  0  0
   58.5279   23.4086   46.2173 H   0  0  0  0  0  0  0  0  0  0  0  0
   58.1105   23.6933   43.2034 H   0  0  0  0  0  0  0  0  0  0  0  0
   58.9624   22.3631   44.1262 H   0  0  0  0  0  0  0  0  0  0  0  0
   56.3033   22.3613   43.2124 H   0  0  0  0  0  0  0  0  0  0  0  0
   57.1184   21.2178   44.3957 H   0  0  0  0  0  0  0  0  0  0  0  0
   54.8287   22.3558   45.0173 H   0  0  0  0  0  0  0  0  0  0  0  0
   56.1674   22.1889   46.2292 H   0  0  0  0  0  0  0  0  0  0  0  0
   56.3211   27.9420   44.2798 H   0  0  0  0  0  0  0  0  0  0  0  0
   55.9639   30.2480   43.4113 H   0  0  0  0  0  0  0  0  0  0  0  0
   60.8500   34.1065   46.0112 H   0  0  0  0  0  0  0  0  0  0  0  0
   64.1042   33.0768   50.0142 H   0  0  0  0  0  0  0  0  0  0  0  0
   65.0909   32.0912   48.8821 H   0  0  0  0  0  0  0  0  0  0  0  0
   65.2435   33.8810   48.8821 H   0  0  0  0  0  0  0  0  0  0  0  0
  1  2  1  0
  2  3  2  0
  3  4  1  0
  4  5  2  0
  5  6  1  0
  6  7  2  0
  6  8  2  0
  6  9  1  0
  9 10  1  0
 10 11  2  0
 11 12  1  0
 12 13  2  0
 13 14  1  0
 14 15  1  0
 15 16  2  0
 16 17  1  0
 17 18  1  0
 18 19  2  0
 18 20  1  0
 20 21  2  0
 21 22  1  0
 22 23  1  0
 23 24  1  0
 24 25  1  0
 13 26  1  0
 26 27  2  0
  5 28  1  0
 28 29  2  0
 29 30  1  0
 30 31  1  0
 31 32  1  0
 31 33  2  0
 31 34  2  0
 29  2  1  0
 27 10  1  0
 21 15  1  0
 25 20  1  0
  1 35  1  0
  1 36  1  0
  1 37  1  0
  3 38  1  0
  4 39  1  0
  9 40  1  0
 11 41  1  0
 12 42  1  0
 14 43  1  0
 14 44  1  0
 22 45  1  0
 22 46  1  0
 23 47  1  0
 23 48  1  0
 24 49  1  0
 24 50  1  0
 25 51  1  0
 25 52  1  0
 26 53  1  0
 27 54  1  0
 28 55  1  0
 32 56  1  0
 32 57  1  0
 32 58  1  0
M  CHG  2  17  -1  30  -1
M  END
>  <UniqueID>  (70) 
63

>  <SMILES>  (70) 
Cc1ccc(S(=O)(=O)Nc2ccc(Cc3n[n-]c(=O)c4c3CCCC4)cc2)cc1[N-]S(C)(=O)=O

>  <Energy>  (70) 
66.80600855194297

>  <Genealogy>  (70) 
Cc1ccc(S(=O)(=O)Nc2ccc(Cc3n[n-]c(=O)c4c3CCCC4)cc2)cc1[N-]S(C)(=O)=O (protonated)
Cc1ccc(S(=O)(=O)Nc2ccc(Cc3n[n-]c(=O)c4c3CCCC4)cc2)cc1[N-]S(C)(=O)=O (3D coordinates assigned)
Cc1ccc(S(=O)(=O)Nc2ccc(Cc3n[n-]c(=O)c4c3CCCC4)cc2)cc1[N-]S(C)(=O)=O (nonaromatic ring conformer: 66.80600855194297 kcal/mol)

>  <smiles>  (70) 
Cc1ccc(S(=O)(=O)Nc2ccc(Cc3n[nH]c(=O)c4c3CCCC4)cc2)cc1NS(C)(=O)=O

>  <score_type>  (70) 
oracle

>  <origin>  (70) 
adg

>  <m_score__min__energy>  (70) 
-14.130000000000001

>  <m_primary>  (70) 
energy

$$$$
71:0
     RDKit          3D

 48 51  0  0  1  0  0  0  0  0999 V2000
   57.1160   24.1230   48.1030 C   0  0  0  0  0  0  0  0  0  0  0  0
   57.1530   23.9710   46.6260 C   0  0  0  0  0  0  0  0  0  0  0  0
   57.3030   22.7370   46.0550 C   0  0  0  0  0  0  0  0  0  0  0  0
   57.4180   21.6250   46.8920 O   0  0  0  0  0  0  0  0  0  0  0  0
   57.3370   22.6020   44.6780 C   0  0  0  0  0  0  0  0  0  0  0  0
   57.2240   23.6850   43.8210 C   0  0  0  0  0  0  0  0  0  0  0  0
   57.0720   24.9290   44.3960 C   0  0  0  0  0  0  0  0  0  0  0  0
   57.0390   25.0670   45.7680 C   0  0  0  0  0  0  0  0  0  0  0  0
   56.8820   26.3540   46.4010 N   0  0  0  0  0  0  0  0  0  0  0  0
   57.1300   27.4480   45.7740 C   0  0  0  0  0  0  0  0  0  0  0  0
   56.1180   28.2470   45.4160 N   0  0  0  0  0  0  0  0  0  0  0  0
   60.8600   28.5710   44.8330 C   0  0  0  0  0  0  0  0  0  0  0  0
   55.2640   30.0540   44.4820 O   0  0  0  0  0  0  0  0  0  0  0  0
   57.5350   29.8650   44.4070 N   0  0  0  0  0  0  0  0  0  0  0  0
   57.7930   31.1130   43.7320 C   0  0  0  0  0  0  0  0  0  0  0  0
   58.1290   32.1930   44.6670 C   0  0  0  0  0  0  0  0  0  0  0  0
   58.4590   33.4390   44.1100 C   0  0  0  0  0  0  0  0  0  0  0  0
   58.7950   34.5220   44.9010 C   0  0  0  0  0  0  0  0  0  0  0  0
   58.8230   34.4370   46.2590 C   0  0  0  0  0  0  0  0  0  0  0  0
   59.1610   35.5120   47.1250 N   0  0  0  0  0  0  0  0  0  0  0  0
   58.5030   33.2260   46.8340 C   0  0  0  0  0  0  0  0  0  0  0  0
   58.1620   32.1260   46.0290 C   0  0  0  0  0  0  0  0  0  0  0  0
   57.8490   31.0060   46.6830 F   0  0  0  0  0  0  0  0  0  0  0  0
   58.5810   29.0710   44.7580 C   0  0  0  0  0  0  0  0  0  0  0  0
   59.8580   29.3850   44.4730 N   0  0  0  0  0  0  0  0  0  0  0  0
   56.3170   29.4220   44.7510 C   0  0  0  0  0  0  0  0  0  0  0  0
   62.0740   28.9520   44.5160 N   0  0  0  0  0  0  0  0  0  0  0  0
   60.6950   27.4120   45.4860 N   0  0  0  0  0  0  0  0  0  0  0  0
   59.4450   27.0500   45.7960 C   0  0  0  0  0  0  0  0  0  0  0  0
   58.3990   27.8690   45.4360 C   0  0  0  0  0  0  0  0  0  0  0  0
   57.3508   23.1585   48.5769 H   0  0  0  0  0  0  0  0  0  0  0  0
   57.8576   24.8740   48.4130 H   0  0  0  0  0  0  0  0  0  0  0  0
   56.1122   24.4491   48.4130 H   0  0  0  0  0  0  0  0  0  0  0  0
   57.5160   20.6880   46.5100 H   0  0  0  0  0  0  0  0  0  0  0  0
   57.4583   21.5970   44.2476 H   0  0  0  0  0  0  0  0  0  0  0  0
   57.2543   23.5578   42.7288 H   0  0  0  0  0  0  0  0  0  0  0  0
   56.9763   25.8182   43.7556 H   0  0  0  0  0  0  0  0  0  0  0  0
   55.1420   27.9280   45.6720 H   0  0  0  0  0  0  0  0  0  0  0  0
   58.6342   30.9721   43.0373 H   0  0  0  0  0  0  0  0  0  0  0  0
   56.8757   31.4030   43.1987 H   0  0  0  0  0  0  0  0  0  0  0  0
   58.4500   33.5564   43.0163 H   0  0  0  0  0  0  0  0  0  0  0  0
   59.0466   35.4785   44.4196 H   0  0  0  0  0  0  0  0  0  0  0  0
   58.9350   35.4030   48.1390 H   0  0  0  0  0  0  0  0  0  0  0  0
   59.6250   36.3810   46.7310 H   0  0  0  0  0  0  0  0  0  0  0  0
   58.5146   33.1201   47.9288 H   0  0  0  0  0  0  0  0  0  0  0  0
   62.4310   28.6750   43.5770 H   0  0  0  0  0  0  0  0  0  0  0  0
   61.5480   26.8670   45.7120 H   0  0  0  0  0  0  0  0  0  0  0  0
   59.2553   26.1086   46.3325 H   0  0  0  0  0  0  0  0  0  0  0  0
  1  2  1  0
  2  3  2  0
  3  4  1  0
  3  5  1  0
  5  6  2  0
  6  7  1  0
  7  8  2  0
  8  9  1  0
  9 10  2  0
 10 11  1  0
 11 12  1  0
 12 13  2  0
 12 14  1  0
 14 15  1  0
 15 16  1  0
 16 17  2  0
 17 18  1  0
 18 19  2  0
 19 20  1  0
 19 21  1  0
 21 22  2  0
 22 23  1  0
 14 24  1  0
 24 25  2  0
 25 26  1  0
 26 27  2  3
 26 28  1  0
 28 29  1  0
 29 30  2  0
  8  2  1  0
 30 10  1  0
 22 16  1  0
 30 24  1  0
  1 31  1  0
  1 32  1  0
  1 33  1  0
  4 34  1  0
  5 35  1  0
  6 36  1  0
  7 37  1  0
 11 38  1  0
 15 39  1  0
 15 40  1  0
 17 41  1  0
 18 42  1  0
 20 43  1  0
 20 44  1  0
 21 45  1  0
 27 46  1  0
 28 47  1  0
 29 48  1  0
M  END
>  <smiles>  (71) 
Cc1c(O)cccc1N=c1[nH]c(=O)n(Cc2ccc(N)cc2F)c2nc(=N)[nH]cc12

>  <score_type>  (71) 
oracle

>  <origin>  (71) 
adg

>  <m_score__min__energy>  (71) 
-8.8300000000000001

>  <m_primary>  (71) 
energy

$$$$
72:0
     RDKit          3D

 47 49  0  0  1  0  0  0  0  0999 V2000
   57.7690   25.9260   43.6650 C   0  0  0  0  0  0  0  0  0  0  0  0
   57.8020   25.2010   44.9890 C   0  0  0  0  0  0  0  0  0  0  0  0
   56.7960   26.0510   46.1710 S   0  0  0  0  0  0  0  0  0  0  0  0
   55.6700   25.1240   46.5930 O   0  0  0  0  0  0  0  0  0  0  0  0
   57.5970   26.3500   47.4260 O   0  0  0  0  0  0  0  0  0  0  0  0
   56.1940   27.5170   45.5550 N   0  0  0  0  0  0  0  0  0  0  0  0
   56.8810   28.7150   45.3260 C   0  0  0  0  0  0  0  0  0  0  0  0
   56.6640   29.6300   44.3380 C   0  0  0  0  0  0  0  0  0  0  0  0
   57.4420   30.7870   44.2040 C   0  0  0  0  0  0  0  0  0  0  0  0
   58.4730   31.0450   45.0820 C   0  0  0  0  0  0  0  0  0  0  0  0
   58.7040   30.1300   46.0870 C   0  0  0  0  0  0  0  0  0  0  0  0
   59.7970   30.3590   47.0530 C   0  0  0  0  0  0  0  0  0  0  0  0
   61.0740   30.7940   46.7600 C   0  0  0  0  0  0  0  0  0  0  0  0
   61.7200   30.8540   47.9800 C   0  0  0  0  0  0  0  0  0  0  0  0
   62.9430   31.2190   48.1430 N   0  0  0  0  0  0  0  0  0  0  0  0
   63.3700   32.5700   48.2630 C   0  0  0  0  0  0  0  0  0  0  0  0
   64.0110   32.9660   49.2930 O   0  0  0  0  0  0  0  0  0  0  0  0
   63.0360   33.4840   47.1410 C   0  0  0  0  0  0  0  0  0  0  0  0
   61.6010   33.8610   47.1440 C   0  0  0  0  0  0  0  0  0  0  0  0
   60.9760   34.1500   48.3410 C   0  0  0  0  0  0  0  0  0  0  0  0
   59.6410   34.5090   48.4150 C   0  0  0  0  0  0  0  0  0  0  0  0
   58.8830   34.5890   47.2790 C   0  0  0  0  0  0  0  0  0  0  0  0
   59.5000   34.3010   46.0690 C   0  0  0  0  0  0  0  0  0  0  0  0
   60.8350   33.9430   45.9990 C   0  0  0  0  0  0  0  0  0  0  0  0
   60.8880   30.4780   48.9570 N   0  0  0  0  0  0  0  0  0  0  0  0
   59.7320   30.1820   48.3870 N   0  0  0  0  0  0  0  0  0  0  0  0
   57.9360   29.0020   46.2070 C   0  0  0  0  0  0  0  0  0  0  0  0
   57.7196   27.0105   43.8420 H   0  0  0  0  0  0  0  0  0  0  0  0
   58.6789   25.6887   43.0942 H   0  0  0  0  0  0  0  0  0  0  0  0
   56.8844   25.6070   43.0942 H   0  0  0  0  0  0  0  0  0  0  0  0
   57.4197   24.1785   44.8538 H   0  0  0  0  0  0  0  0  0  0  0  0
   58.8385   25.1668   45.3558 H   0  0  0  0  0  0  0  0  0  0  0  0
   55.1520   27.5420   45.3060 H   0  0  0  0  0  0  0  0  0  0  0  0
   55.8489   29.4530   43.6209 H   0  0  0  0  0  0  0  0  0  0  0  0
   57.2284   31.4962   43.3908 H   0  0  0  0  0  0  0  0  0  0  0  0
   59.0904   31.9501   44.9840 H   0  0  0  0  0  0  0  0  0  0  0  0
   61.4873   31.0394   45.7706 H   0  0  0  0  0  0  0  0  0  0  0  0
   63.6437   34.3963   47.2323 H   0  0  0  0  0  0  0  0  0  0  0  0
   63.2489   32.9589   46.1981 H   0  0  0  0  0  0  0  0  0  0  0  0
   61.5610   34.0928   49.2708 H   0  0  0  0  0  0  0  0  0  0  0  0
   59.1874   34.7310   49.3922 H   0  0  0  0  0  0  0  0  0  0  0  0
   57.8209   34.8719   47.3227 H   0  0  0  0  0  0  0  0  0  0  0  0
   58.9120   34.3589   45.1412 H   0  0  0  0  0  0  0  0  0  0  0  0
   61.2896   33.7219   45.0220 H   0  0  0  0  0  0  0  0  0  0  0  0
   61.1520   30.4420   49.9700 H   0  0  0  0  0  0  0  0  0  0  0  0
   58.9090   29.8560   48.9600 H   0  0  0  0  0  0  0  0  0  0  0  0
   58.1535   28.2962   47.0222 H   0  0  0  0  0  0  0  0  0  0  0  0
  1  2  1  0
  2  3  1  0
  3  4  2  0
  3  5  2  0
  3  6  1  0
  6  7  1  0
  7  8  2  0
  8  9  1  0
  9 10  2  0
 10 11  1  0
 11 12  1  0
 12 13  2  0
 13 14  1  0
 14 15  2  0
 15 16  1  0
 16 17  2  0
 16 18  1  0
 18 19  1  0
 19 20  2  0
 20 21  1  0
 21 22  2  0
 22 23  1  0
 23 24  2  0
 14 25  1  0
 25 26  1  0
 11 27  2  0
 27  7  1  0
 26 12  1  0
 24 19  1  0
  1 28  1  0
  1 29  1  0
  1 30  1  0
  2 31  1  0
  2 32  1  0
  6 33  1  0
  8 34  1  0
  9 35  1  0
 10 36  1  0
 13 37  1  0
 18 38  1  0
 18 39  1  0
 20 40  1  0
 21 41  1  0
 22 42  1  0
 23 43  1  0
 24 44  1  0
 25 45  1  0
 26 46  1  0
 27 47  1  0
M  END
>  <smiles>  (72) 
CCS(=O)(=O)Nc1cccc(-c2cc(=NC(=O)Cc3ccccc3)[nH][nH]2)c1

>  <score_type>  (72) 
oracle

>  <origin>  (72) 
adg

>  <m_score__min__energy>  (72) 
-9.4800000000000004

>  <m_primary>  (72) 
energy

$$$$
73:0
     RDKit          3D

 42 44  0  0  0  0  0  0  0  0999 V2000
   55.1450   29.1940   44.8530 N   0  0  0  0  0  0  0  0  0  0  0  0
   56.3320   29.9850   44.8060 C   0  0  0  0  0  0  0  0  0  0  0  0
   56.2440   31.2080   44.5160 O   0  0  0  0  0  0  0  0  0  0  0  0
   57.6540   29.3760   45.0930 C   0  0  0  0  0  0  0  0  0  0  0  0
   58.2010   28.4140   44.2280 C   0  0  0  0  0  0  0  0  0  0  0  0
   59.4480   27.8470   44.4990 C   0  0  0  0  0  0  0  0  0  0  0  0
   60.1610   28.2260   45.6360 C   0  0  0  0  0  0  0  0  0  0  0  0
   59.6310   29.1780   46.5260 C   0  0  0  0  0  0  0  0  0  0  0  0
   60.3790   29.6040   47.7390 C   0  0  0  0  0  0  0  0  0  0  0  0
   60.4380   28.8040   48.8900 C   0  0  0  0  0  0  0  0  0  0  0  0
   61.1340   29.2600   50.0070 C   0  0  0  0  0  0  0  0  0  0  0  0
   61.7680   30.5080   49.9930 C   0  0  0  0  0  0  0  0  0  0  0  0
   62.3850   30.9860   51.1950 N   0  0  0  0  0  0  0  0  0  0  0  0
   61.7150   31.2810   48.8070 C   0  0  0  0  0  0  0  0  0  0  0  0
   62.4130   32.5720   48.6460 C   0  0  0  0  0  0  0  0  0  0  0  0
   63.5110   32.7880   49.2260 O   0  0  0  0  0  0  0  0  0  0  0  0
   61.8650   33.5560   47.7630 N   0  0  0  0  0  0  0  0  0  0  0  0
   60.7130   34.3870   48.0960 C   0  0  0  0  0  0  0  0  0  0  0  0
   59.6010   34.1550   47.1100 C   0  0  0  0  0  0  0  0  0  0  0  0
   58.4970   33.3660   47.4690 C   0  0  0  0  0  0  0  0  0  0  0  0
   57.4480   33.1670   46.5640 C   0  0  0  0  0  0  0  0  0  0  0  0
   57.4940   33.7600   45.3000 C   0  0  0  0  0  0  0  0  0  0  0  0
   58.5850   34.5530   44.9370 C   0  0  0  0  0  0  0  0  0  0  0  0
   59.6360   34.7530   45.8380 C   0  0  0  0  0  0  0  0  0  0  0  0
   61.0150   30.8070   47.7390 N   0  0  0  0  0  0  0  0  0  0  0  0
   58.3790   29.7540   46.2390 C   0  0  0  0  0  0  0  0  0  0  0  0
   54.4340   29.3390   45.6040 H   0  0  0  0  0  0  0  0  0  0  0  0
   57.6435   28.1053   43.3314 H   0  0  0  0  0  0  0  0  0  0  0  0
   59.8698   27.0981   43.8126 H   0  0  0  0  0  0  0  0  0  0  0  0
   61.1448   27.7774   45.8384 H   0  0  0  0  0  0  0  0  0  0  0  0
   59.9384   27.8242   48.9102 H   0  0  0  0  0  0  0  0  0  0  0  0
   61.1860   28.6331   50.9094 H   0  0  0  0  0  0  0  0  0  0  0  0
   62.3170   30.4670   52.0970 H   0  0  0  0  0  0  0  0  0  0  0  0
   63.0490   31.7910   51.1620 H   0  0  0  0  0  0  0  0  0  0  0  0
   60.3613   34.1320   49.1066 H   0  0  0  0  0  0  0  0  0  0  0  0
   61.0113   35.4451   48.0573 H   0  0  0  0  0  0  0  0  0  0  0  0
   58.4561   32.9022   48.4656 H   0  0  0  0  0  0  0  0  0  0  0  0
   56.5873   32.5436   46.8481 H   0  0  0  0  0  0  0  0  0  0  0  0
   56.6695   33.6021   44.5892 H   0  0  0  0  0  0  0  0  0  0  0  0
   58.6177   35.0206   43.9419 H   0  0  0  0  0  0  0  0  0  0  0  0
   60.4927   35.3802   45.5505 H   0  0  0  0  0  0  0  0  0  0  0  0
   57.9612   30.5102   46.9199 H   0  0  0  0  0  0  0  0  0  0  0  0
  1  2  1  0
  2  3  2  0
  2  4  1  0
  4  5  2  0
  5  6  1  0
  6  7  2  0
  7  8  1  0
  8  9  1  0
  9 10  2  0
 10 11  1  0
 11 12  2  0
 12 13  1  0
 12 14  1  0
 14 15  1  0
 15 16  2  0
 15 17  1  0
 17 18  1  0
 18 19  1  0
 19 20  2  0
 20 21  1  0
 21 22  2  0
 22 23  1  0
 23 24  2  0
 14 25  2  0
  8 26  2  0
 26  4  1  0
 25  9  1  0
 24 19  1  0
  1 27  1  0
  5 28  1  0
  6 29  1  0
  7 30  1  0
 10 31  1  0
 11 32  1  0
 13 33  1  0
 13 34  1  0
 18 35  1  0
 18 36  1  0
 20 37  1  0
 21 38  1  0
 22 39  1  0
 23 40  1  0
 24 41  1  0
 26 42  1  0
M  CHG  2   1  -1  17  -1
M  END
>  <UniqueID>  (73) 
64

>  <SMILES>  (73) 
[NH-]C(=O)c1cccc(-c2ccc(N)c(C(=O)[N-]Cc3ccccc3)n2)c1

>  <Energy>  (73) 
51.16978258981608

>  <Genealogy>  (73) 
[NH-]C(=O)c1cccc(-c2ccc(N)c(C(=O)[N-]Cc3ccccc3)n2)c1 (protonated)
[NH-]C(=O)c1cccc(-c2ccc(N)c(C(=O)[N-]Cc3ccccc3)n2)c1 (3D coordinates assigned)
[NH-]C(=O)c1cccc(-c2ccc(N)c(C(=O)[N-]Cc3ccccc3)n2)c1 (optimized conformer: 51.16978258981608 kcal/mol)

>  <smiles>  (73) 
NC(=O)c1cccc(-c2ccc(N)c(C(=O)NCc3ccccc3)n2)c1

>  <score_type>  (73) 
oracle

>  <origin>  (73) 
adg

>  <m_score__min__energy>  (73) 
-12.76

>  <m_primary>  (73) 
energy

$$$$
74:0
     RDKit          3D

 50 53  0  0  0  0  0  0  0  0999 V2000
   59.5570   30.0460   45.6540 C   0  0  0  0  0  0  0  0  0  0  0  0
   59.5670   29.1010   46.6070 C   0  0  0  0  0  0  0  0  0  0  0  0
   59.1130   27.7760   46.5010 C   0  0  0  0  0  0  0  0  0  0  0  0
   58.4110   27.1550   45.5320 C   0  0  0  0  0  0  0  0  0  0  0  0
   57.0850   26.5410   45.6940 C   0  0  0  0  0  0  0  0  0  0  0  0
   56.8970   25.2820   46.1250 N   0  0  0  0  0  0  0  0  0  0  0  0
   55.5540   25.1910   46.2450 C   0  0  0  0  0  0  0  0  0  0  0  0
   54.9780   24.1360   46.6170 O   0  0  0  0  0  0  0  0  0  0  0  0
   54.8790   26.3220   45.9490 N   0  0  0  0  0  0  0  0  0  0  0  0
   55.8640   27.1730   45.6170 C   0  0  0  0  0  0  0  0  0  0  0  0
   55.6520   28.5030   45.2760 O   0  0  0  0  0  0  0  0  0  0  0  0
   59.5250   27.1310   47.6570 C   0  0  0  0  0  0  0  0  0  0  0  0
   60.1430   28.0790   48.4460 C   0  0  0  0  0  0  0  0  0  0  0  0
   60.7520   27.8120   49.7890 C   0  0  0  0  0  0  0  0  0  0  0  0
   60.1730   29.2690   47.8080 N   0  0  0  0  0  0  0  0  0  0  0  0
   60.7870   30.4700   48.3070 C   0  0  0  0  0  0  0  0  0  0  0  0
   61.9650   30.9380   47.7100 C   0  0  0  0  0  0  0  0  0  0  0  0
   62.5740   32.1080   48.1720 C   0  0  0  0  0  0  0  0  0  0  0  0
   62.0160   32.8190   49.2450 C   0  0  0  0  0  0  0  0  0  0  0  0
   62.6600   34.0980   49.7140 C   0  0  0  0  0  0  0  0  0  0  0  0
   63.7500   33.8120   50.6690 N   0  0  0  0  0  0  0  0  0  0  0  0
   65.0010   33.4550   49.9640 C   0  0  0  0  0  0  0  0  0  0  0  0
   66.2000   33.4400   50.9330 C   0  0  0  0  0  0  0  0  0  0  0  0
   65.7640   33.4420   52.2760 O   0  0  0  0  0  0  0  0  0  0  0  0
   65.1030   34.6620   52.5610 C   0  0  0  0  0  0  0  0  0  0  0  0
   63.9820   34.9740   51.5450 C   0  0  0  0  0  0  0  0  0  0  0  0
   60.8380   32.3510   49.8460 C   0  0  0  0  0  0  0  0  0  0  0  0
   60.2230   31.1790   49.3850 C   0  0  0  0  0  0  0  0  0  0  0  0
   59.0270   30.7060   50.0350 C   0  0  0  0  0  0  0  0  0  0  0  0
   58.0650   30.3280   50.5570 N   0  0  0  0  0  0  0  0  0  0  0  0
   59.9462   31.0514   45.8723 H   0  0  0  0  0  0  0  0  0  0  0  0
   59.1596   29.8151   44.6546 H   0  0  0  0  0  0  0  0  0  0  0  0
   58.8700   27.1032   44.5337 H   0  0  0  0  0  0  0  0  0  0  0  0
   59.3858   26.0670   47.8988 H   0  0  0  0  0  0  0  0  0  0  0  0
   60.0498   28.1199   50.5778 H   0  0  0  0  0  0  0  0  0  0  0  0
   60.9660   26.7375   49.8875 H   0  0  0  0  0  0  0  0  0  0  0  0
   61.6872   28.3826   49.8875 H   0  0  0  0  0  0  0  0  0  0  0  0
   62.4128   30.3817   46.8734 H   0  0  0  0  0  0  0  0  0  0  0  0
   63.4943   32.4728   47.6925 H   0  0  0  0  0  0  0  0  0  0  0  0
   63.0712   34.6349   48.8464 H   0  0  0  0  0  0  0  0  0  0  0  0
   61.9000   34.7136   50.2175 H   0  0  0  0  0  0  0  0  0  0  0  0
   64.8886   32.4566   49.5163 H   0  0  0  0  0  0  0  0  0  0  0  0
   65.1905   34.2089   49.1857 H   0  0  0  0  0  0  0  0  0  0  0  0
   66.7990   32.5357   50.7504 H   0  0  0  0  0  0  0  0  0  0  0  0
   66.8034   34.3430   50.7586 H   0  0  0  0  0  0  0  0  0  0  0  0
   64.6612   34.5983   53.5664 H   0  0  0  0  0  0  0  0  0  0  0  0
   65.8471   35.4698   52.4990 H   0  0  0  0  0  0  0  0  0  0  0  0
   63.0550   35.2102   52.0881 H   0  0  0  0  0  0  0  0  0  0  0  0
   64.2858   35.8328   50.9284 H   0  0  0  0  0  0  0  0  0  0  0  0
   60.3941   32.9075   50.6846 H   0  0  0  0  0  0  0  0  0  0  0  0
  1  2  2  0
  2  3  1  0
  3  4  2  3
  4  5  1  0
  5  6  1  0
  6  7  1  0
  7  8  2  0
  7  9  1  0
  9 10  1  0
 10 11  1  0
  3 12  1  0
 12 13  2  0
 13 14  1  0
 13 15  1  0
 15 16  1  0
 16 17  2  0
 17 18  1  0
 18 19  2  0
 19 20  1  0
 20 21  1  0
 21 22  1  0
 22 23  1  0
 23 24  1  0
 24 25  1  0
 25 26  1  0
 19 27  1  0
 27 28  2  0
 28 29  1  0
 29 30  3  0
 15  2  1  0
 28 16  1  0
 10  5  2  0
 26 21  1  0
  1 31  1  0
  1 32  1  0
  4 33  1  0
 12 34  1  0
 14 35  1  0
 14 36  1  0
 14 37  1  0
 17 38  1  0
 18 39  1  0
 20 40  1  0
 20 41  1  0
 22 42  1  0
 22 43  1  0
 23 44  1  0
 23 45  1  0
 25 46  1  0
 25 47  1  0
 26 48  1  0
 26 49  1  0
 27 50  1  0
M  CHG  3   6  -1   9  -1  11  -1
M  END
>  <UniqueID>  (74) 
65

>  <SMILES>  (74) 
C=c1c(=Cc2[n-]c(=O)[n-]c2[O-])cc(C)n1-c1ccc(CN2CCOCC2)cc1C#N

>  <Energy>  (74) 
137.3396957814307

>  <Genealogy>  (74) 
C=c1c(=Cc2[n-]c(=O)[n-]c2[O-])cc(C)n1-c1ccc(CN2CCOCC2)cc1C#N (protonated)
C=c1c(=Cc2[n-]c(=O)[n-]c2[O-])cc(C)n1-c1ccc(CN2CCOCC2)cc1C#N (3D coordinates assigned)
C=c1c(=Cc2[n-]c(=O)[n-]c2[O-])cc(C)n1-c1ccc(CN2CCOCC2)cc1C#N (nonaromatic ring conformer: 137.3396957814307 kcal/mol)

>  <smiles>  (74) 
C=c1c(=Cc2[nH]c(=O)[nH]c2O)cc(C)n1-c1ccc(CN2CCOCC2)cc1C#N

>  <score_type>  (74) 
oracle

>  <origin>  (74) 
adg

>  <m_score__min__energy>  (74) 
-15.68

>  <m_primary>  (74) 
energy

$$$$
75:0
     RDKit          3D

 40 43  0  0  0  0  0  0  0  0999 V2000
   52.0590   22.5840   47.4830 C   0  0  0  0  0  0  0  0  0  0  0  0
   52.7510   22.7590   45.8520 S   0  0  0  0  0  0  0  0  0  0  0  0
   51.6720   22.6680   44.8100 O   0  0  0  0  0  0  0  0  0  0  0  0
   53.7370   21.6480   45.6250 O   0  0  0  0  0  0  0  0  0  0  0  0
   53.5830   24.2760   45.7160 N   0  0  0  0  0  0  0  0  0  0  0  0
   54.9940   24.4470   45.5120 C   0  0  0  0  0  0  0  0  0  0  0  0
   55.8030   23.4170   45.0010 C   0  0  0  0  0  0  0  0  0  0  0  0
   57.1710   23.6220   44.8210 C   0  0  0  0  0  0  0  0  0  0  0  0
   57.7470   24.8510   45.1440 C   0  0  0  0  0  0  0  0  0  0  0  0
   56.9550   25.8980   45.6450 C   0  0  0  0  0  0  0  0  0  0  0  0
   57.5760   27.1930   46.0020 C   0  0  0  0  0  0  0  0  0  0  0  0
   58.6030   27.3260   46.8780 N   0  0  0  0  0  0  0  0  0  0  0  0
   58.9390   28.6110   46.9730 N   0  0  0  0  0  0  0  0  0  0  0  0
   58.1160   29.2870   46.1560 C   0  0  0  0  0  0  0  0  0  0  0  0
   58.0910   30.6270   45.9660 N   0  0  0  0  0  0  0  0  0  0  0  0
   57.1490   31.1490   45.1240 C   0  0  0  0  0  0  0  0  0  0  0  0
   57.1340   32.4330   44.9110 N   0  0  0  0  0  0  0  0  0  0  0  0
   57.9560   33.4230   45.5500 C   0  0  0  0  0  0  0  0  0  0  0  0
   58.0900   33.4940   46.9510 C   0  0  0  0  0  0  0  0  0  0  0  0
   58.9300   34.4490   47.5310 C   0  0  0  0  0  0  0  0  0  0  0  0
   59.6570   35.3270   46.7230 C   0  0  0  0  0  0  0  0  0  0  0  0
   59.5540   35.2410   45.3320 C   0  0  0  0  0  0  0  0  0  0  0  0
   58.7150   34.2870   44.7490 C   0  0  0  0  0  0  0  0  0  0  0  0
   56.2570   30.3140   44.4910 N   0  0  0  0  0  0  0  0  0  0  0  0
   56.2780   28.9620   44.6850 C   0  0  0  0  0  0  0  0  0  0  0  0
   57.2490   28.4500   45.5330 C   0  0  0  0  0  0  0  0  0  0  0  0
   55.5750   25.6840   45.8350 C   0  0  0  0  0  0  0  0  0  0  0  0
   54.7700   26.7050   46.3330 O   0  0  0  0  0  0  0  0  0  0  0  0
   52.8376   22.7809   48.2347 H   0  0  0  0  0  0  0  0  0  0  0  0
   51.2357   23.3022   47.6110 H   0  0  0  0  0  0  0  0  0  0  0  0
   51.6761   21.5608   47.6110 H   0  0  0  0  0  0  0  0  0  0  0  0
   55.3556   22.4460   44.7422 H   0  0  0  0  0  0  0  0  0  0  0  0
   57.7984   22.8111   44.4226 H   0  0  0  0  0  0  0  0  0  0  0  0
   58.8279   25.0013   45.0056 H   0  0  0  0  0  0  0  0  0  0  0  0
   57.5313   32.7951   47.5908 H   0  0  0  0  0  0  0  0  0  0  0  0
   59.0188   34.5094   48.6257 H   0  0  0  0  0  0  0  0  0  0  0  0
   60.3095   36.0848   47.1812 H   0  0  0  0  0  0  0  0  0  0  0  0
   60.1340   35.9250   44.6950 H   0  0  0  0  0  0  0  0  0  0  0  0
   58.6500   34.2139   43.6534 H   0  0  0  0  0  0  0  0  0  0  0  0
   55.5514   28.3033   44.1869 H   0  0  0  0  0  0  0  0  0  0  0  0
  1  2  1  0
  2  3  2  0
  2  4  2  0
  2  5  1  0
  5  6  1  0
  6  7  2  0
  7  8  1  0
  8  9  2  0
  9 10  1  0
 10 11  1  0
 11 12  1  0
 12 13  1  0
 13 14  2  0
 14 15  1  0
 15 16  1  0
 16 17  2  3
 17 18  1  0
 18 19  2  0
 19 20  1  0
 20 21  2  0
 21 22  1  0
 22 23  2  0
 16 24  1  0
 24 25  2  0
 25 26  1  0
 10 27  2  0
 27 28  1  0
 27  6  1  0
 26 11  2  0
 26 14  1  0
 23 18  1  0
  1 29  1  0
  1 30  1  0
  1 31  1  0
  7 32  1  0
  8 33  1  0
  9 34  1  0
 19 35  1  0
 20 36  1  0
 21 37  1  0
 22 38  1  0
 23 39  1  0
 25 40  1  0
M  CHG  4   5  -1  12  -1  15  -1  28  -1
M  END
>  <UniqueID>  (75) 
66

>  <SMILES>  (75) 
CS(=O)(=O)[N-]c1cccc(-c2[n-]nc3[n-]c(=Nc4ccccc4)ncc23)c1[O-]

>  <Energy>  (75) 
97.4385569631464

>  <Genealogy>  (75) 
CS(=O)(=O)[N-]c1cccc(-c2[n-]nc3[n-]c(=Nc4ccccc4)ncc23)c1[O-] (protonated)
CS(=O)(=O)[N-]c1cccc(-c2[n-]nc3[n-]c(=Nc4ccccc4)ncc23)c1[O-] (3D coordinates assigned)
CS(=O)(=O)[N-]c1cccc(-c2[n-]nc3[n-]c(=Nc4ccccc4)ncc23)c1[O-] (optimized conformer: 97.4385569631464 kcal/mol)

>  <smiles>  (75) 
CS(=O)(=O)Nc1cccc(-c2[nH]nc3[nH]c(=Nc4ccccc4)ncc23)c1O

>  <score_type>  (75) 
oracle

>  <origin>  (75) 
adg

>  <m_score__min__energy>  (75) 
-18.129999999999999

>  <m_primary>  (75) 
energy

$$$$
76:0
     RDKit          3D

 47 50  0  0  0  0  0  0  0  0999 V2000
   60.9360   30.7720   51.4530 O   0  0  0  0  0  0  0  0  0  0  0  0
   60.8690   30.4900   50.2270 C   0  0  0  0  0  0  0  0  0  0  0  0
   60.5250   29.2380   49.8570 N   0  0  0  0  0  0  0  0  0  0  0  0
   60.4440   28.8760   48.5550 C   0  0  0  0  0  0  0  0  0  0  0  0
   60.1120   27.6910   48.2830 O   0  0  0  0  0  0  0  0  0  0  0  0
   60.7230   29.7820   47.5590 N   0  0  0  0  0  0  0  0  0  0  0  0
   60.6230   29.3530   46.1430 C   0  0  0  0  0  0  0  0  0  0  0  0
   59.1860   29.2510   45.6920 C   0  0  0  0  0  0  0  0  0  0  0  0
   58.4090   28.1250   46.0150 C   0  0  0  0  0  0  0  0  0  0  0  0
   57.0730   28.0500   45.6110 C   0  0  0  0  0  0  0  0  0  0  0  0
   56.4930   29.1000   44.8940 C   0  0  0  0  0  0  0  0  0  0  0  0
   55.1610   29.0090   44.4970 O   0  0  0  0  0  0  0  0  0  0  0  0
   57.2560   30.2340   44.5850 C   0  0  0  0  0  0  0  0  0  0  0  0
   58.5920   30.3130   44.9880 C   0  0  0  0  0  0  0  0  0  0  0  0
   61.0990   31.0710   47.8920 C   0  0  0  0  0  0  0  0  0  0  0  0
   61.1440   31.4550   49.2510 C   0  0  0  0  0  0  0  0  0  0  0  0
   61.5330   32.8550   49.6680 C   0  0  0  0  0  0  0  0  0  0  0  0
   61.2940   33.8470   48.6090 N   0  0  0  0  0  0  0  0  0  0  0  0
   59.9480   34.4650   48.5760 C   0  0  0  0  0  0  0  0  0  0  0  0
   59.1960   34.2610   47.2780 C   0  0  0  0  0  0  0  0  0  0  0  0
   59.5750   34.9690   46.1240 C   0  0  0  0  0  0  0  0  0  0  0  0
   58.8700   34.8050   44.9290 C   0  0  0  0  0  0  0  0  0  0  0  0
   57.7980   33.9130   44.8650 C   0  0  0  0  0  0  0  0  0  0  0  0
   57.4370   33.1730   45.9930 C   0  0  0  0  0  0  0  0  0  0  0  0
   58.1380   33.3340   47.1930 C   0  0  0  0  0  0  0  0  0  0  0  0
   57.7690   32.6010   48.2750 F   0  0  0  0  0  0  0  0  0  0  0  0
   61.8810   33.4670   47.3170 C   0  0  0  0  0  0  0  0  0  0  0  0
   61.4100   32.0940   46.8110 C   0  0  0  0  0  0  0  0  0  0  0  0
   61.1442   30.0866   45.5104 H   0  0  0  0  0  0  0  0  0  0  0  0
   61.0829   28.3579   46.0523 H   0  0  0  0  0  0  0  0  0  0  0  0
   58.8546   27.2988   46.5885 H   0  0  0  0  0  0  0  0  0  0  0  0
   56.4753   27.1603   45.8586 H   0  0  0  0  0  0  0  0  0  0  0  0
   54.9080   28.8070   43.5360 H   0  0  0  0  0  0  0  0  0  0  0  0
   56.8023   31.0642   44.0238 H   0  0  0  0  0  0  0  0  0  0  0  0
   59.1820   31.2112   44.7530 H   0  0  0  0  0  0  0  0  0  0  0  0
   60.9435   33.1356   50.5533 H   0  0  0  0  0  0  0  0  0  0  0  0
   62.6116   32.8510   49.8837 H   0  0  0  0  0  0  0  0  0  0  0  0
   59.3505   34.0311   49.3913 H   0  0  0  0  0  0  0  0  0  0  0  0
   60.0985   35.5493   48.6836 H   0  0  0  0  0  0  0  0  0  0  0  0
   60.4326   35.6568   46.1622 H   0  0  0  0  0  0  0  0  0  0  0  0
   59.1601   35.3797   44.0371 H   0  0  0  0  0  0  0  0  0  0  0  0
   57.2377   33.7930   43.9261 H   0  0  0  0  0  0  0  0  0  0  0  0
   56.5996   32.4619   45.9379 H   0  0  0  0  0  0  0  0  0  0  0  0
   61.6039   34.2269   46.5715 H   0  0  0  0  0  0  0  0  0  0  0  0
   62.9695   33.4030   47.4619 H   0  0  0  0  0  0  0  0  0  0  0  0
   60.4976   32.2466   46.2159 H   0  0  0  0  0  0  0  0  0  0  0  0
   62.2502   31.6794   46.2347 H   0  0  0  0  0  0  0  0  0  0  0  0
  1  2  2  0
  2  3  1  0
  3  4  1  0
  4  5  2  0
  4  6  1  0
  6  7  1  0
  7  8  1  0
  8  9  2  0
  9 10  1  0
 10 11  2  0
 11 12  1  0
 11 13  1  0
 13 14  2  0
  6 15  1  0
 15 16  2  0
 16 17  1  0
 17 18  1  0
 18 19  1  0
 19 20  1  0
 20 21  2  0
 21 22  1  0
 22 23  2  0
 23 24  1  0
 24 25  2  0
 25 26  1  0
 18 27  1  0
 27 28  1  0
 16  2  1  0
 25 20  1  0
 14  8  1  0
 28 15  1  0
  7 29  1  0
  7 30  1  0
  9 31  1  0
 10 32  1  0
 12 33  1  0
 13 34  1  0
 14 35  1  0
 17 36  1  0
 17 37  1  0
 19 38  1  0
 19 39  1  0
 21 40  1  0
 22 41  1  0
 23 42  1  0
 24 43  1  0
 27 44  1  0
 27 45  1  0
 28 46  1  0
 28 47  1  0
M  CHG  1   3  -1
M  END
>  <UniqueID>  (76) 
67

>  <SMILES>  (76) 
O=c1[n-]c(=O)n(Cc2ccc(O)cc2)c2c1CN(Cc1ccccc1F)CC2

>  <Energy>  (76) 
67.66010211165775

>  <Genealogy>  (76) 
O=c1[n-]c(=O)n(Cc2ccc(O)cc2)c2c1CN(Cc1ccccc1F)CC2 (protonated)
O=c1[n-]c(=O)n(Cc2ccc(O)cc2)c2c1CN(Cc1ccccc1F)CC2 (3D coordinates assigned)
O=c1[n-]c(=O)n(Cc2ccc(O)cc2)c2c1CN(Cc1ccccc1F)CC2 (nonaromatic ring conformer: 67.66010211165775 kcal/mol)

>  <smiles>  (76) 
O=c1[nH]c(=O)n(Cc2ccc(O)cc2)c2c1CN(Cc1ccccc1F)CC2

>  <score_type>  (76) 
oracle

>  <origin>  (76) 
adg

>  <m_score__min__energy>  (76) 
-9.8599999999999994

>  <m_primary>  (76) 
energy

$$$$
77:0
     RDKit          3D

 53 56  0  0  0  0  0  0  0  0999 V2000
   63.2170   31.8470   47.1500 N   0  0  0  0  0  0  0  0  0  0  0  0
   62.6110   33.0800   46.7560 C   0  0  0  0  0  0  0  0  0  0  0  0
   63.3460   34.0350   46.3860 O   0  0  0  0  0  0  0  0  0  0  0  0
   61.1450   33.2660   46.8170 C   0  0  0  0  0  0  0  0  0  0  0  0
   60.6270   34.5740   46.8430 C   0  0  0  0  0  0  0  0  0  0  0  0
   59.2540   34.7930   46.9800 C   0  0  0  0  0  0  0  0  0  0  0  0
   58.3820   33.7110   47.0940 C   0  0  0  0  0  0  0  0  0  0  0  0
   58.8770   32.4060   47.0470 C   0  0  0  0  0  0  0  0  0  0  0  0
   60.2470   32.1710   46.8770 C   0  0  0  0  0  0  0  0  0  0  0  0
   60.6790   30.8420   46.7710 O   0  0  0  0  0  0  0  0  0  0  0  0
   60.0490   29.8570   45.9950 C   0  0  0  0  0  0  0  0  0  0  0  0
   59.0970   30.1770   45.0080 C   0  0  0  0  0  0  0  0  0  0  0  0
   58.4930   29.1640   44.2590 C   0  0  0  0  0  0  0  0  0  0  0  0
   58.8100   27.8150   44.5000 C   0  0  0  0  0  0  0  0  0  0  0  0
   58.2230   26.7580   43.7210 N   0  0  0  0  0  0  0  0  0  0  0  0
   57.4000   25.7140   44.2660 C   0  0  0  0  0  0  0  0  0  0  0  0
   56.8600   25.8550   45.5450 C   0  0  0  0  0  0  0  0  0  0  0  0
   56.0520   24.8480   46.0730 C   0  0  0  0  0  0  0  0  0  0  0  0
   55.7810   23.7130   45.3550 N   0  0  0  0  0  0  0  0  0  0  0  0
   54.9570   22.6520   45.9740 C   0  0  0  0  0  0  0  0  0  0  0  0
   55.7500   21.3420   46.2580 C   0  0  2  0  0  0  0  0  0  0  0  0
   55.7590   20.5210   45.1150 O   0  0  0  0  0  0  0  0  0  0  0  0
   55.1830   20.5400   47.4520 C   0  0  0  0  0  0  0  0  0  0  0  0
   56.1100   20.8240   48.6460 C   0  0  0  0  0  0  0  0  0  0  0  0
   57.3560   21.3070   48.0810 N   0  0  0  0  0  0  0  0  0  0  0  0
   57.1410   21.6110   46.7190 C   0  0  0  0  0  0  0  0  0  0  0  0
   58.0580   22.0540   45.9760 O   0  0  0  0  0  0  0  0  0  0  0  0
   56.2470   23.5910   44.0680 C   0  0  0  0  0  0  0  0  0  0  0  0
   55.9400   22.5930   43.3610 O   0  0  0  0  0  0  0  0  0  0  0  0
   57.0640   24.5820   43.5120 C   0  0  0  0  0  0  0  0  0  0  0  0
   59.7650   27.5030   45.4780 C   0  0  0  0  0  0  0  0  0  0  0  0
   60.3680   28.5160   46.2270 C   0  0  0  0  0  0  0  0  0  0  0  0
   62.6540   31.0860   47.5920 H   0  0  0  0  0  0  0  0  0  0  0  0
   64.2480   31.7160   47.0580 H   0  0  0  0  0  0  0  0  0  0  0  0
   61.3095   35.4322   46.7546 H   0  0  0  0  0  0  0  0  0  0  0  0
   58.8605   35.8201   46.9979 H   0  0  0  0  0  0  0  0  0  0  0  0
   57.3034   33.8854   47.2211 H   0  0  0  0  0  0  0  0  0  0  0  0
   58.1854   31.5561   47.1443 H   0  0  0  0  0  0  0  0  0  0  0  0
   58.8280   31.2280   44.8261 H   0  0  0  0  0  0  0  0  0  0  0  0
   57.7651   29.4230   43.4760 H   0  0  0  0  0  0  0  0  0  0  0  0
   58.3980   26.7550   42.6900 H   0  0  0  0  0  0  0  0  0  0  0  0
   57.0711   26.7586   46.1357 H   0  0  0  0  0  0  0  0  0  0  0  0
   55.6263   24.9668   47.0803 H   0  0  0  0  0  0  0  0  0  0  0  0
   54.5572   23.0313   46.9260 H   0  0  0  0  0  0  0  0  0  0  0  0
   54.1591   22.4011   45.2596 H   0  0  0  0  0  0  0  0  0  0  0  0
   56.4980   20.8290   44.5260 H   0  0  0  0  0  0  0  0  0  0  0  0
   54.1584   20.8694   47.6792 H   0  0  0  0  0  0  0  0  0  0  0  0
   55.1423   19.4642   47.2261 H   0  0  0  0  0  0  0  0  0  0  0  0
   55.6660   21.5882   49.3009 H   0  0  0  0  0  0  0  0  0  0  0  0
   56.2678   19.9224   49.2561 H   0  0  0  0  0  0  0  0  0  0  0  0
   57.4417   24.4723   42.4847 H   0  0  0  0  0  0  0  0  0  0  0  0
   60.0412   26.4533   45.6566 H   0  0  0  0  0  0  0  0  0  0  0  0
   61.1000   28.2564   47.0059 H   0  0  0  0  0  0  0  0  0  0  0  0
  1  2  1  0
  2  3  2  0
  2  4  1  0
  4  5  2  0
  5  6  1  0
  6  7  2  0
  7  8  1  0
  8  9  2  0
  9 10  1  0
 10 11  1  0
 11 12  2  0
 12 13  1  0
 13 14  2  0
 14 15  1  0
 15 16  1  0
 16 17  1  0
 17 18  2  0
 18 19  1  0
 19 20  1  0
 20 21  1  0
 21 22  1  6
 21 23  1  0
 23 24  1  0
 24 25  1  0
 25 26  1  0
 26 27  2  0
 19 28  1  0
 28 29  2  0
 28 30  1  0
 14 31  1  0
 31 32  2  0
  9  4  1  0
 32 11  1  0
 30 16  2  0
 26 21  1  0
  1 33  1  0
  1 34  1  0
  5 35  1  0
  6 36  1  0
  7 37  1  0
  8 38  1  0
 12 39  1  0
 13 40  1  0
 15 41  1  0
 17 42  1  0
 18 43  1  0
 20 44  1  0
 20 45  1  0
 22 46  1  0
 23 47  1  0
 23 48  1  0
 24 49  1  0
 24 50  1  0
 30 51  1  0
 31 52  1  0
 32 53  1  0
M  CHG  1  25  -1
M  END
>  <UniqueID>  (77) 
68

>  <SMILES>  (77) 
NC(=O)c1ccccc1Oc1ccc(Nc2ccn(C[C@]3(O)CC[N-]C3=O)c(=O)c2)cc1

>  <Energy>  (77) 
84.48787224415732

>  <Genealogy>  (77) 
NC(=O)c1ccccc1Oc1ccc(Nc2ccn(CC3(O)CC[N-]C3=O)c(=O)c2)cc1 (protonated)
NC(=O)c1ccccc1Oc1ccc(Nc2ccn(C[C@]3(O)CC[N-]C3=O)c(=O)c2)cc1 (chirality)
NC(=O)c1ccccc1Oc1ccc(Nc2ccn(C[C@]3(O)CC[N-]C3=O)c(=O)c2)cc1 (3D coordinates assigned)
NC(=O)c1ccccc1Oc1ccc(Nc2ccn(C[C@]3(O)CC[N-]C3=O)c(=O)c2)cc1 (nonaromatic ring conformer: 84.48787224415732 kcal/mol)

>  <smiles>  (77) 
NC(=O)c1ccccc1Oc1ccc(Nc2ccn(CC3(O)CCNC3=O)c(=O)c2)cc1

>  <score_type>  (77) 
oracle

>  <origin>  (77) 
adg

>  <m_score__min__energy>  (77) 
-10.550000000000001

>  <m_primary>  (77) 
energy

$$$$
78:0
     RDKit          3D

 33 35  0  0  0  0  0  0  0  0999 V2000
   55.5230   23.8170   46.7100 C   0  0  0  0  0  0  0  0  0  0  0  0
   56.8780   24.2050   46.3210 N   0  0  0  0  0  0  0  0  0  0  0  0
   57.9740   23.4100   46.3280 C   0  0  0  0  0  0  0  0  0  0  0  0
   57.9630   22.0740   46.7110 O   0  0  0  0  0  0  0  0  0  0  0  0
   59.1040   24.0940   45.9080 C   0  0  0  0  0  0  0  0  0  0  0  0
   58.6560   25.3690   45.6370 C   0  0  0  0  0  0  0  0  0  0  0  0
   59.3630   26.4820   45.2000 C   0  0  0  0  0  0  0  0  0  0  0  0
   58.6540   27.6770   45.0040 C   0  0  0  0  0  0  0  0  0  0  0  0
   57.2570   27.7490   45.2430 C   0  0  0  0  0  0  0  0  0  0  0  0
   56.5580   29.0180   44.9500 C   0  0  0  0  0  0  0  0  0  0  0  0
   55.3380   29.1480   45.2370 O   0  0  0  0  0  0  0  0  0  0  0  0
   57.2430   30.0580   44.2420 N   0  0  0  0  0  0  0  0  0  0  0  0
   57.7090   31.2900   44.8110 C   0  0  0  0  0  0  0  0  0  0  0  0
   57.7470   32.4320   43.9980 C   0  0  0  0  0  0  0  0  0  0  0  0
   58.2070   33.6490   44.5100 C   0  0  0  0  0  0  0  0  0  0  0  0
   58.6510   33.7290   45.8320 C   0  0  0  0  0  0  0  0  0  0  0  0
   58.6490   32.5890   46.6400 C   0  0  0  0  0  0  0  0  0  0  0  0
   58.1880   31.3680   46.1350 C   0  0  0  0  0  0  0  0  0  0  0  0
   58.2680   30.2640   46.9170 F   0  0  0  0  0  0  0  0  0  0  0  0
   56.5690   26.5970   45.7270 C   0  0  0  0  0  0  0  0  0  0  0  0
   55.2160   26.6230   46.0700 O   0  0  0  0  0  0  0  0  0  0  0  0
   57.3070   25.4130   45.8920 C   0  0  0  0  0  0  0  0  0  0  0  0
   55.4485   23.7957   47.8073 H   0  0  0  0  0  0  0  0  0  0  0  0
   54.8033   24.5452   46.3077 H   0  0  0  0  0  0  0  0  0  0  0  0
   55.2978   22.8183   46.3077 H   0  0  0  0  0  0  0  0  0  0  0  0
   60.1289   23.7061   45.8124 H   0  0  0  0  0  0  0  0  0  0  0  0
   60.4457   26.4282   45.0133 H   0  0  0  0  0  0  0  0  0  0  0  0
   59.1903   28.5734   44.6592 H   0  0  0  0  0  0  0  0  0  0  0  0
   57.4131   32.3700   42.9517 H   0  0  0  0  0  0  0  0  0  0  0  0
   58.2193   34.5444   43.8711 H   0  0  0  0  0  0  0  0  0  0  0  0
   59.0022   34.6895   46.2370 H   0  0  0  0  0  0  0  0  0  0  0  0
   59.0111   32.6515   47.6768 H   0  0  0  0  0  0  0  0  0  0  0  0
   54.7250   27.4630   46.3420 H   0  0  0  0  0  0  0  0  0  0  0  0
  1  2  1  0
  2  3  1  0
  3  4  1  0
  3  5  2  0
  5  6  1  0
  6  7  2  0
  7  8  1  0
  8  9  2  0
  9 10  1  0
 10 11  2  0
 10 12  1  0
 12 13  1  0
 13 14  2  0
 14 15  1  0
 15 16  2  0
 16 17  1  0
 17 18  2  0
 18 19  1  0
  9 20  1  0
 20 21  1  0
 20 22  2  0
 22  2  1  0
 22  6  1  0
 18 13  1  0
  1 23  1  0
  1 24  1  0
  1 25  1  0
  5 26  1  0
  7 27  1  0
  8 28  1  0
 14 29  1  0
 15 30  1  0
 16 31  1  0
 17 32  1  0
 21 33  1  0
M  CHG  2   4  -1  12  -1
M  END
>  <UniqueID>  (78) 
69

>  <SMILES>  (78) 
Cn1c([O-])cc2ccc(C(=O)[N-]c3ccccc3F)c(O)c21

>  <Energy>  (78) 
81.00642022431522

>  <Genealogy>  (78) 
Cn1c([O-])cc2ccc(C(=O)[N-]c3ccccc3F)c(O)c21 (protonated)
Cn1c([O-])cc2ccc(C(=O)[N-]c3ccccc3F)c(O)c21 (3D coordinates assigned)
Cn1c([O-])cc2ccc(C(=O)[N-]c3ccccc3F)c(O)c21 (optimized conformer: 81.00642022431522 kcal/mol)

>  <smiles>  (78) 
Cn1c(O)cc2ccc(C(=O)Nc3ccccc3F)c(O)c21

>  <score_type>  (78) 
oracle

>  <origin>  (78) 
adg

>  <m_score__min__energy>  (78) 
-11.49

>  <m_primary>  (78) 
energy

$$$$
79:0
     RDKit          3D

 47 49  0  0  0  0  0  0  0  0999 V2000
   55.0550   26.6430   46.0000 O   0  0  0  0  0  0  0  0  0  0  0  0
   56.2520   26.2470   46.0200 C   0  0  0  0  0  0  0  0  0  0  0  0
   57.2990   27.0520   45.3020 C   0  0  0  0  0  0  0  0  0  0  0  0
   57.1780   28.4670   45.6400 N   0  0  0  0  0  0  0  0  0  0  0  0
   56.4180   29.4370   44.9050 C   0  0  0  0  0  0  0  0  0  0  0  0
   55.1720   29.2920   44.8200 O   0  0  0  0  0  0  0  0  0  0  0  0
   57.0390   30.6270   44.2960 C   0  0  0  0  0  0  0  0  0  0  0  0
   57.0090   30.8190   42.9070 C   0  0  0  0  0  0  0  0  0  0  0  0
   57.6000   31.9510   42.3400 C   0  0  0  0  0  0  0  0  0  0  0  0
   58.2080   32.9090   43.1550 C   0  0  0  0  0  0  0  0  0  0  0  0
   58.2200   32.7420   44.5470 C   0  0  0  0  0  0  0  0  0  0  0  0
   58.9540   33.9520   45.5930 S   0  0  0  0  0  0  0  0  0  0  0  0
   58.9420   35.2780   44.8840 O   0  0  0  0  0  0  0  0  0  0  0  0
   58.1780   34.0570   46.8760 O   0  0  0  0  0  0  0  0  0  0  0  0
   60.5850   33.4720   45.9360 N   0  0  0  0  0  0  0  0  0  0  0  0
   61.3170   33.6810   47.1530 C   0  0  0  0  0  0  0  0  0  0  0  0
   60.5810   33.9160   48.3230 C   0  0  0  0  0  0  0  0  0  0  0  0
   61.2290   34.1300   49.5430 C   0  0  0  0  0  0  0  0  0  0  0  0
   62.6220   34.1090   49.6080 C   0  0  0  0  0  0  0  0  0  0  0  0
   63.3700   33.8750   48.4530 C   0  0  0  0  0  0  0  0  0  0  0  0
   62.7290   33.6610   47.2260 C   0  0  0  0  0  0  0  0  0  0  0  0
   63.5000   33.4360   46.1350 F   0  0  0  0  0  0  0  0  0  0  0  0
   57.6290   31.6030   45.1140 C   0  0  0  0  0  0  0  0  0  0  0  0
   56.5700   25.0630   46.7650 N   0  0  0  0  0  0  0  0  0  0  0  0
   55.8300   23.8040   46.7300 C   0  0  0  0  0  0  0  0  0  0  0  0
   55.9830   23.1380   45.3890 C   0  0  0  0  0  0  0  0  0  0  0  0
   56.7080   21.9450   45.2590 C   0  0  0  0  0  0  0  0  0  0  0  0
   56.8400   21.3550   44.0000 C   0  0  0  0  0  0  0  0  0  0  0  0
   56.2720   21.9350   42.9110 N   0  0  0  0  0  0  0  0  0  0  0  0
   55.5670   23.0920   43.0050 C   0  0  0  0  0  0  0  0  0  0  0  0
   55.4130   23.7160   44.2450 C   0  0  0  0  0  0  0  0  0  0  0  0
   58.2963   26.6935   45.5968 H   0  0  0  0  0  0  0  0  0  0  0  0
   57.1578   26.9323   44.2177 H   0  0  0  0  0  0  0  0  0  0  0  0
   56.5183   30.0756   42.2616 H   0  0  0  0  0  0  0  0  0  0  0  0
   57.5865   32.0883   41.2487 H   0  0  0  0  0  0  0  0  0  0  0  0
   58.6779   33.7955   42.7040 H   0  0  0  0  0  0  0  0  0  0  0  0
   59.4819   33.9321   48.2805 H   0  0  0  0  0  0  0  0  0  0  0  0
   60.6394   34.3152   50.4530 H   0  0  0  0  0  0  0  0  0  0  0  0
   63.1308   34.2767   50.5687 H   0  0  0  0  0  0  0  0  0  0  0  0
   64.4686   33.8586   48.5066 H   0  0  0  0  0  0  0  0  0  0  0  0
   57.6280   31.4741   46.2064 H   0  0  0  0  0  0  0  0  0  0  0  0
   56.2173   23.1349   47.5125 H   0  0  0  0  0  0  0  0  0  0  0  0
   54.7641   24.0137   46.9028 H   0  0  0  0  0  0  0  0  0  0  0  0
   57.1691   21.4775   46.1415 H   0  0  0  0  0  0  0  0  0  0  0  0
   57.4056   20.4180   43.8900 H   0  0  0  0  0  0  0  0  0  0  0  0
   55.1176   23.5373   42.1052 H   0  0  0  0  0  0  0  0  0  0  0  0
   54.8475   24.6562   44.3241 H   0  0  0  0  0  0  0  0  0  0  0  0
  1  2  2  0
  2  3  1  0
  3  4  1  0
  4  5  1  0
  5  6  2  0
  5  7  1  0
  7  8  2  0
  8  9  1  0
  9 10  2  0
 10 11  1  0
 11 12  1  0
 12 13  2  0
 12 14  2  0
 12 15  1  0
 15 16  1  0
 16 17  2  0
 17 18  1  0
 18 19  2  0
 19 20  1  0
 20 21  2  0
 21 22  1  0
 11 23  2  0
  2 24  1  0
 24 25  1  0
 25 26  1  0
 26 27  2  0
 27 28  1  0
 28 29  2  0
 29 30  1  0
 30 31  2  0
 23  7  1  0
 31 26  1  0
 21 16  1  0
  3 32  1  0
  3 33  1  0
  8 34  1  0
  9 35  1  0
 10 36  1  0
 17 37  1  0
 18 38  1  0
 19 39  1  0
 20 40  1  0
 23 41  1  0
 25 42  1  0
 25 43  1  0
 27 44  1  0
 28 45  1  0
 30 46  1  0
 31 47  1  0
M  CHG  3   4  -1  15  -1  24  -1
M  END
>  <UniqueID>  (79) 
70

>  <SMILES>  (79) 
O=C(C[N-]C(=O)c1cccc(S(=O)(=O)[N-]c2ccccc2F)c1)[N-]Cc1ccncc1

>  <Energy>  (79) 
59.18136078978787

>  <Genealogy>  (79) 
O=C(C[N-]C(=O)c1cccc(S(=O)(=O)[N-]c2ccccc2F)c1)[N-]Cc1ccncc1 (protonated)
O=C(C[N-]C(=O)c1cccc(S(=O)(=O)[N-]c2ccccc2F)c1)[N-]Cc1ccncc1 (3D coordinates assigned)
O=C(C[N-]C(=O)c1cccc(S(=O)(=O)[N-]c2ccccc2F)c1)[N-]Cc1ccncc1 (optimized conformer: 59.18136078978787 kcal/mol)

>  <smiles>  (79) 
O=C(CNC(=O)c1cccc(S(=O)(=O)Nc2ccccc2F)c1)NCc1ccncc1

>  <score_type>  (79) 
oracle

>  <origin>  (79) 
adg

>  <m_score__min__energy>  (79) 
-14.539999999999999

>  <m_primary>  (79) 
energy

$$$$
80:0
     RDKit          3D

 52 56  0  0  0  0  0  0  0  0999 V2000
   55.9795   33.0729   45.8125 H   0  0  0  0  0  0  0  0  0  0  0  0
   57.0160   33.4120   45.6690 C   0  0  0  0  0  0  0  0  0  0  0  0
   57.5590   33.4290   44.4220 N   0  0  0  0  0  0  0  0  0  0  0  0
   58.8330   33.8470   44.2050 C   0  0  0  0  0  0  0  0  0  0  0  0
   59.2423   33.8517   43.1840 H   0  0  0  0  0  0  0  0  0  0  0  0
   59.6250   34.2710   45.2750 C   0  0  0  0  0  0  0  0  0  0  0  0
   60.6519   34.6239   45.0990 H   0  0  0  0  0  0  0  0  0  0  0  0
   59.1000   34.2430   46.5760 C   0  0  0  0  0  0  0  0  0  0  0  0
   59.9280   34.7240   47.7410 C   0  0  0  0  0  0  0  0  0  0  0  0
   59.2717   34.8639   48.6126 H   0  0  0  0  0  0  0  0  0  0  0  0
   60.4073   35.6722   47.4561 H   0  0  0  0  0  0  0  0  0  0  0  0
   60.9780   33.7630   48.0850 N   0  0  0  0  0  0  0  0  0  0  0  0
   60.8780   32.4760   48.2770 C   0  0  0  0  0  0  0  0  0  0  0  0
   60.0930   31.7510   47.4280 N   0  0  0  0  0  0  0  0  0  0  0  0
   59.9230   30.3960   47.5380 C   0  0  0  0  0  0  0  0  0  0  0  0
   59.0540   29.6870   46.5650 C   0  0  0  0  0  0  0  0  0  0  0  0
   58.5630   30.3700   45.4390 C   0  0  0  0  0  0  0  0  0  0  0  0
   58.8387   31.4223   45.2758 H   0  0  0  0  0  0  0  0  0  0  0  0
   57.7280   29.7230   44.5260 C   0  0  0  0  0  0  0  0  0  0  0  0
   57.3469   30.2683   43.6500 H   0  0  0  0  0  0  0  0  0  0  0  0
   57.3750   28.3860   44.7210 C   0  0  0  0  0  0  0  0  0  0  0  0
   56.7118   27.8846   44.0007 H   0  0  0  0  0  0  0  0  0  0  0  0
   57.8610   27.6800   45.8290 C   0  0  0  0  0  0  0  0  0  0  0  0
   57.4590   26.3130   46.0240 N   0  0  0  0  0  0  0  0  0  0  0  0
   58.1950   25.6120   46.2700 H   0  0  0  0  0  0  0  0  0  0  0  0
   56.0960   25.8660   46.0270 C   0  0  0  0  0  0  0  0  0  0  0  0
   55.1500   26.6990   46.0230 O   0  0  0  0  0  0  0  0  0  0  0  0
   55.8250   24.4590   46.0230 N   0  0  0  0  0  0  0  0  0  0  0  0
   56.2870   23.5000   45.0610 C   0  0  0  0  0  0  0  0  0  0  0  0
   57.2150   22.5330   45.4680 C   0  0  0  0  0  0  0  0  0  0  0  0
   57.5826   22.5302   46.5048 H   0  0  0  0  0  0  0  0  0  0  0  0
   57.6770   21.5710   44.5640 C   0  0  0  0  0  0  0  0  0  0  0  0
   58.4149   20.8225   44.8883 H   0  0  0  0  0  0  0  0  0  0  0  0
   57.2030   21.5590   43.2500 C   0  0  0  0  0  0  0  0  0  0  0  0
   57.5736   20.8069   42.5380 H   0  0  0  0  0  0  0  0  0  0  0  0
   56.2580   22.5030   42.8410 C   0  0  0  0  0  0  0  0  0  0  0  0
   55.8801   22.4891   41.8080 H   0  0  0  0  0  0  0  0  0  0  0  0
   55.7910   23.4660   43.7420 C   0  0  0  0  0  0  0  0  0  0  0  0
   55.0354   24.1979   43.4205 H   0  0  0  0  0  0  0  0  0  0  0  0
   58.6820   28.3420   46.7610 C   0  0  0  0  0  0  0  0  0  0  0  0
   59.0371   27.8036   47.6521 H   0  0  0  0  0  0  0  0  0  0  0  0
   60.5990   29.7120   48.5670 C   0  0  0  0  0  0  0  0  0  0  0  0
   60.5038   28.6224   48.6841 H   0  0  0  0  0  0  0  0  0  0  0  0
   61.3700   30.4420   49.4070 N   0  0  0  0  0  0  0  0  0  0  0  0
   62.1010   30.0470   50.4580 C   0  0  0  0  0  0  0  0  0  0  0  0
   62.2077   29.0175   50.8305 H   0  0  0  0  0  0  0  0  0  0  0  0
   62.6960   31.1780   50.9860 C   0  0  0  0  0  0  0  0  0  0  0  0
   63.3614   31.1912   51.8618 H   0  0  0  0  0  0  0  0  0  0  0  0
   62.3380   32.2670   50.2650 N   0  0  0  0  0  0  0  0  0  0  0  0
   61.5300   31.7710   49.3060 C   0  0  0  0  0  0  0  0  0  0  0  0
   57.7740   33.8250   46.7680 C   0  0  0  0  0  0  0  0  0  0  0  0
   57.3345   33.8225   47.7764 H   0  0  0  0  0  0  0  0  0  0  0  0
  1  2  1  0
  2  3  2  0
  3  4  1  0
  4  5  1  0
  4  6  2  0
  6  7  1  0
  6  8  1  0
  8  9  1  0
  9 10  1  0
  9 11  1  0
  9 12  1  0
 12 13  2  0
 13 14  1  0
 14 15  1  0
 15 16  1  0
 16 17  2  0
 17 18  1  0
 17 19  1  0
 19 20  1  0
 19 21  2  0
 21 22  1  0
 21 23  1  0
 23 24  1  0
 24 25  1  0
 24 26  1  0
 26 27  2  0
 26 28  1  0
 28 29  1  0
 29 30  2  0
 30 31  1  0
 30 32  1  0
 32 33  1  0
 32 34  2  0
 34 35  1  0
 34 36  1  0
 36 37  1  0
 36 38  2  0
 38 39  1  0
 23 40  2  0
 40 41  1  0
 15 42  2  0
 42 43  1  0
 42 44  1  0
 44 45  1  0
 45 46  1  0
 45 47  2  0
 47 48  1  0
 47 49  1  0
 49 50  2  0
  8 51  2  0
 51 52  1  0
 51  2  1  0
 50 13  1  0
 40 16  1  0
 50 44  1  0
 38 29  1  0
M  CHG  2  14  -1  28  -1
M  END
>  <UniqueID>  (80) 
71

>  <SMILES>  (80) 
O=C([N-]c1ccccc1)Nc1cccc(-c2cn3ccnc3/c(=N\Cc3ccncc3)[n-]2)c1

>  <Energy>  (80) 
109.71658143053455

>  <Genealogy>  (80) 
O=C([N-]c1ccccc1)Nc1cccc(-c2cn3ccnc3c(=NCc3ccncc3)[n-]2)c1 (protonated)
O=C([N-]c1ccccc1)Nc1cccc(-c2cn3ccnc3/c(=N\Cc3ccncc3)[n-]2)c1 (cis-trans isomerization)
O=C([N-]c1ccccc1)Nc1cccc(-c2cn3ccnc3/c(=N\Cc3ccncc3)[n-]2)c1 (3D coordinates assigned)
O=C([N-]c1ccccc1)Nc1cccc(-c2cn3ccnc3/c(=N\Cc3ccncc3)[n-]2)c1 (optimized conformer: 109.71658143053455 kcal/mol)

>  <smiles>  (80) 
O=C(Nc1ccccc1)Nc1cccc(-c2cn3ccnc3c(=NCc3ccncc3)[nH]2)c1

>  <score_type>  (80) 
oracle

>  <origin>  (80) 
adg

>  <m_score__min__energy>  (80) 
-12.16

>  <m_primary>  (80) 
energy

$$$$
81:0
     RDKit          3D

 55 58  0  0  0  0  0  0  0  0999 V2000
   58.4940   29.3170   47.6910 C   0  0  0  0  0  0  0  0  0  0  0  0
   59.4300   29.0370   46.5000 C   0  0  1  0  0  0  0  0  0  0  0  0
   60.7690   29.0490   47.0210 O   0  0  0  0  0  0  0  0  0  0  0  0
   61.3740   30.1500   47.6370 C   0  0  0  0  0  0  0  0  0  0  0  0
   61.9260   31.1740   46.8620 C   0  0  0  0  0  0  0  0  0  0  0  0
   62.5160   32.2830   47.4760 C   0  0  0  0  0  0  0  0  0  0  0  0
   62.5430   32.3920   48.8790 C   0  0  0  0  0  0  0  0  0  0  0  0
   63.1750   33.5730   49.5180 C   0  0  0  0  0  0  0  0  0  0  0  0
   62.4290   34.7590   49.8040 N   0  0  0  0  0  0  0  0  0  0  0  0
   64.4020   33.5410   49.8070 O   0  0  0  0  0  0  0  0  0  0  0  0
   61.9760   31.3600   49.6520 C   0  0  0  0  0  0  0  0  0  0  0  0
   61.3890   30.2530   49.0320 C   0  0  0  0  0  0  0  0  0  0  0  0
   59.1120   27.6540   45.8690 C   0  0  0  0  0  0  0  0  0  0  0  0
   57.7330   27.6150   45.1890 C   0  0  0  0  0  0  0  0  0  0  0  0
   57.5700   28.7610   44.1840 C   0  0  0  0  0  0  0  0  0  0  0  0
   57.9300   30.0390   44.8070 N   0  0  0  0  0  0  0  0  0  0  0  0
   57.1600   31.2200   44.5190 C   0  0  0  0  0  0  0  0  0  0  0  0
   55.8990   31.1590   44.5250 O   0  0  0  0  0  0  0  0  0  0  0  0
   57.8300   32.5360   44.2370 C   0  0  0  0  0  0  0  0  0  0  0  0
   58.3710   33.1310   45.5080 C   0  0  0  0  0  0  0  0  0  0  0  0
   59.1730   34.2970   45.4580 C   0  0  0  0  0  0  0  0  0  0  0  0
   59.7080   34.8430   46.6360 C   0  0  0  0  0  0  0  0  0  0  0  0
   59.4370   34.2030   47.8420 C   0  0  0  0  0  0  0  0  0  0  0  0
   58.6730   33.0740   47.9010 C   0  0  0  0  0  0  0  0  0  0  0  0
   58.1270   32.5070   46.7490 C   0  0  0  0  0  0  0  0  0  0  0  0
   58.5590   32.6130   49.3090 C   0  0  0  0  0  0  0  0  0  0  0  0
   59.3910   33.6680   50.0790 C   0  0  0  0  0  0  0  0  0  0  0  0
   59.8730   34.5810   49.0920 O   0  0  0  0  0  0  0  0  0  0  0  0
   59.2560   30.1410   45.4320 C   0  0  0  0  0  0  0  0  0  0  0  0
   59.0394   29.1538   48.6322 H   0  0  0  0  0  0  0  0  0  0  0  0
   58.1445   30.3590   47.6456 H   0  0  0  0  0  0  0  0  0  0  0  0
   57.6297   28.6381   47.6456 H   0  0  0  0  0  0  0  0  0  0  0  0
   61.8961   31.1071   45.7644 H   0  0  0  0  0  0  0  0  0  0  0  0
   62.9623   33.0761   46.8581 H   0  0  0  0  0  0  0  0  0  0  0  0
   61.4580   34.8970   49.4520 H   0  0  0  0  0  0  0  0  0  0  0  0
   62.8870   35.5540   50.3040 H   0  0  0  0  0  0  0  0  0  0  0  0
   61.9952   31.4255   50.7499 H   0  0  0  0  0  0  0  0  0  0  0  0
   60.9366   29.4589   49.6442 H   0  0  0  0  0  0  0  0  0  0  0  0
   59.8817   27.4248   45.1173 H   0  0  0  0  0  0  0  0  0  0  0  0
   59.1031   26.9123   46.6812 H   0  0  0  0  0  0  0  0  0  0  0  0
   57.6223   26.6570   44.6599 H   0  0  0  0  0  0  0  0  0  0  0  0
   56.9618   27.7246   45.9657 H   0  0  0  0  0  0  0  0  0  0  0  0
   58.2257   28.5814   43.3192 H   0  0  0  0  0  0  0  0  0  0  0  0
   56.5203   28.8048   43.8581 H   0  0  0  0  0  0  0  0  0  0  0  0
   58.6576   32.3774   43.5299 H   0  0  0  0  0  0  0  0  0  0  0  0
   57.0915   33.2274   43.8050 H   0  0  0  0  0  0  0  0  0  0  0  0
   59.3782   34.7781   44.4903 H   0  0  0  0  0  0  0  0  0  0  0  0
   60.3253   35.7530   46.6064 H   0  0  0  0  0  0  0  0  0  0  0  0
   57.5188   31.5923   46.8075 H   0  0  0  0  0  0  0  0  0  0  0  0
   57.5110   32.6130   49.6431 H   0  0  0  0  0  0  0  0  0  0  0  0
   58.9112   31.5821   49.4614 H   0  0  0  0  0  0  0  0  0  0  0  0
   58.7600   34.1934   50.8109 H   0  0  0  0  0  0  0  0  0  0  0  0
   60.2168   33.2029   50.6373 H   0  0  0  0  0  0  0  0  0  0  0  0
   60.0312   30.0251   44.6602 H   0  0  0  0  0  0  0  0  0  0  0  0
   59.3502   31.1249   45.9147 H   0  0  0  0  0  0  0  0  0  0  0  0
  1  2  1  0
  2  3  1  1
  3  4  1  0
  4  5  2  0
  5  6  1  0
  6  7  2  0
  7  8  1  0
  8  9  1  0
  8 10  2  0
  7 11  1  0
 11 12  2  0
  2 13  1  0
 13 14  1  0
 14 15  1  0
 15 16  1  0
 16 17  1  0
 17 18  2  0
 17 19  1  0
 19 20  1  0
 20 21  2  0
 21 22  1  0
 22 23  2  0
 23 24  1  0
 24 25  2  0
 24 26  1  0
 26 27  1  0
 27 28  1  0
 16 29  1  0
 29  2  1  0
 12  4  1  0
 25 20  1  0
 28 23  1  0
  1 30  1  0
  1 31  1  0
  1 32  1  0
  5 33  1  0
  6 34  1  0
  9 35  1  0
  9 36  1  0
 11 37  1  0
 12 38  1  0
 13 39  1  0
 13 40  1  0
 14 41  1  0
 14 42  1  0
 15 43  1  0
 15 44  1  0
 19 45  1  0
 19 46  1  0
 21 47  1  0
 22 48  1  0
 25 49  1  0
 26 50  1  0
 26 51  1  0
 27 52  1  0
 27 53  1  0
 29 54  1  0
 29 55  1  0
M  END
>  <UniqueID>  (81) 
72

>  <SMILES>  (81) 
C[C@@]1(Oc2ccc(C(N)=O)cc2)CCCN(C(=O)Cc2ccc3c(c2)CCO3)C1

>  <Energy>  (81) 
79.74813068367938

>  <Genealogy>  (81) 
C[C@@]1(Oc2ccc(C(N)=O)cc2)CCCN(C(=O)Cc2ccc3c(c2)CCO3)C1 (chirality)
C[C@@]1(Oc2ccc(C(N)=O)cc2)CCCN(C(=O)Cc2ccc3c(c2)CCO3)C1 (3D coordinates assigned)
C[C@@]1(Oc2ccc(C(N)=O)cc2)CCCN(C(=O)Cc2ccc3c(c2)CCO3)C1 (nonaromatic ring conformer: 79.74813068367938 kcal/mol)

>  <smiles>  (81) 
CC1(Oc2ccc(C(N)=O)cc2)CCCN(C(=O)Cc2ccc3c(c2)CCO3)C1

>  <score_type>  (81) 
oracle

>  <origin>  (81) 
adg

>  <m_score__min__energy>  (81) 
-9.6799999999999997

>  <m_primary>  (81) 
energy

$$$$
82:0
     RDKit          3D

 54 56  0  0  0  0  0  0  0  0999 V2000
   60.8380   28.5804   51.1552 H   0  0  0  0  0  0  0  0  0  0  0  0
   60.3490   29.1690   50.3650 C   0  0  0  0  0  0  0  0  0  0  0  0
   59.3030   30.1380   50.7430 C   0  0  0  0  0  0  0  0  0  0  0  0
   58.1180   29.7290   50.8420 O   0  0  0  0  0  0  0  0  0  0  0  0
   59.5770   31.5210   51.0120 N   0  0  0  0  0  0  0  0  0  0  0  0
   59.4830   32.8110   49.8520 S   0  0  0  0  0  0  0  0  0  0  0  0
   59.2570   34.1060   50.5780 O   0  0  0  0  0  0  0  0  0  0  0  0
   58.3110   32.5670   48.9430 O   0  0  0  0  0  0  0  0  0  0  0  0
   60.9790   32.9280   48.9130 C   0  0  0  0  0  0  0  0  0  0  0  0
   60.9210   32.8020   47.5150 C   0  0  0  0  0  0  0  0  0  0  0  0
   59.9471   32.6836   47.0175 H   0  0  0  0  0  0  0  0  0  0  0  0
   62.0910   32.8260   46.7520 C   0  0  0  0  0  0  0  0  0  0  0  0
   62.0366   32.7140   45.6591 H   0  0  0  0  0  0  0  0  0  0  0  0
   63.3290   32.9920   47.3750 C   0  0  0  0  0  0  0  0  0  0  0  0
   64.2503   33.0054   46.7741 H   0  0  0  0  0  0  0  0  0  0  0  0
   63.3970   33.1410   48.7610 C   0  0  0  0  0  0  0  0  0  0  0  0
   64.3734   33.2823   49.2475 H   0  0  0  0  0  0  0  0  0  0  0  0
   62.2320   33.1120   49.5370 C   0  0  0  0  0  0  0  0  0  0  0  0
   62.4160   33.3360   51.4330 Br  0  0  0  0  0  0  0  0  0  0  0  0
   60.7220   28.9820   49.1000 C   0  0  0  0  0  0  0  0  0  0  0  0
   61.6816   29.3997   48.7613 H   0  0  0  0  0  0  0  0  0  0  0  0
   59.8950   28.2370   48.1430 C   0  0  0  0  0  0  0  0  0  0  0  0
   59.0620   28.7520   47.1560 C   0  0  0  0  0  0  0  0  0  0  0  0
   58.7260   30.1960   46.9030 C   0  0  0  0  0  0  0  0  0  0  0  0
   57.6332   30.3200   46.9215 H   0  0  0  0  0  0  0  0  0  0  0  0
   59.1957   30.8085   47.6868 H   0  0  0  0  0  0  0  0  0  0  0  0
   59.2590   30.6510   45.5420 C   0  0  0  0  0  0  0  0  0  0  0  0
   59.0251   31.7160   45.3966 H   0  0  0  0  0  0  0  0  0  0  0  0
   60.3483   30.5011   45.5121 H   0  0  0  0  0  0  0  0  0  0  0  0
   58.6360   29.8670   44.4730 N   0  0  0  0  0  0  0  0  0  0  0  0
   57.2580   30.6880   43.8050 S   0  0  0  0  0  0  0  0  0  0  0  0
   56.1670   30.7950   44.8330 O   0  0  0  0  0  0  0  0  0  0  0  0
   56.7490   29.9030   42.6300 O   0  0  0  0  0  0  0  0  0  0  0  0
   57.7370   32.3170   43.2530 C   0  0  0  0  0  0  0  0  0  0  0  0
   58.6242   32.2354   42.6079 H   0  0  0  0  0  0  0  0  0  0  0  0
   56.9034   32.7645   42.6919 H   0  0  0  0  0  0  0  0  0  0  0  0
   58.0500   33.1670   44.3970 N   0  0  0  0  0  0  0  0  0  0  0  0
   59.1180   33.9790   44.5160 C   0  0  0  0  0  0  0  0  0  0  0  0
   59.9124   34.0956   43.7641 H   0  0  0  0  0  0  0  0  0  0  0  0
   59.0640   34.6420   45.7240 C   0  0  0  0  0  0  0  0  0  0  0  0
   59.7954   35.3680   46.1088 H   0  0  0  0  0  0  0  0  0  0  0  0
   57.9110   34.2160   46.3570 C   0  0  0  0  0  0  0  0  0  0  0  0
   57.5461   34.5374   47.3437 H   0  0  0  0  0  0  0  0  0  0  0  0
   57.3070   33.3090   45.5100 C   0  0  0  0  0  0  0  0  0  0  0  0
   56.3628   32.7827   45.7136 H   0  0  0  0  0  0  0  0  0  0  0  0
   58.3380   27.6800   46.6640 C   0  0  0  0  0  0  0  0  0  0  0  0
   57.5744   27.7411   45.8746 H   0  0  0  0  0  0  0  0  0  0  0  0
   58.7090   26.5510   47.2970 N   0  0  0  0  0  0  0  0  0  0  0  0
   58.0620   25.2510   47.1680 C   0  0  0  0  0  0  0  0  0  0  0  0
   57.8584   24.8419   48.1686 H   0  0  0  0  0  0  0  0  0  0  0  0
   57.1156   25.3653   46.6190 H   0  0  0  0  0  0  0  0  0  0  0  0
   58.7238   24.5649   46.6190 H   0  0  0  0  0  0  0  0  0  0  0  0
   59.6340   26.8830   48.2180 C   0  0  0  0  0  0  0  0  0  0  0  0
   60.1086   26.1833   48.9217 H   0  0  0  0  0  0  0  0  0  0  0  0
  1  2  1  0
  2  3  1  0
  3  4  2  0
  3  5  1  0
  5  6  1  0
  6  7  2  0
  6  8  2  0
  6  9  1  0
  9 10  2  0
 10 11  1  0
 10 12  1  0
 12 13  1  0
 12 14  2  0
 14 15  1  0
 14 16  1  0
 16 17  1  0
 16 18  2  0
 18 19  1  0
  2 20  2  0
 20 21  1  0
 20 22  1  0
 22 23  1  0
 23 24  1  0
 24 25  1  0
 24 26  1  0
 24 27  1  0
 27 28  1  0
 27 29  1  0
 27 30  1  0
 30 31  1  0
 31 32  2  0
 31 33  2  0
 31 34  1  0
 34 35  1  0
 34 36  1  0
 34 37  1  0
 37 38  1  0
 38 39  1  0
 38 40  2  0
 40 41  1  0
 40 42  1  0
 42 43  1  0
 42 44  2  0
 44 45  1  0
 23 46  2  0
 46 47  1  0
 46 48  1  0
 48 49  1  0
 49 50  1  0
 49 51  1  0
 49 52  1  0
 48 53  1  0
 53 54  1  0
 18  9  1  0
 53 22  2  0
 44 37  1  0
M  CHG  2   5  -1  30  -1
M  END
>  <UniqueID>  (82) 
73

>  <SMILES>  (82) 
Cn1cc(/C=C/C(=O)[N-]S(=O)(=O)c2ccccc2Br)c(CC[N-]S(=O)(=O)Cn2cccc2)c1

>  <Energy>  (82) 
104.31412956172531

>  <Genealogy>  (82) 
Cn1cc(C=CC(=O)[N-]S(=O)(=O)c2ccccc2Br)c(CC[N-]S(=O)(=O)Cn2cccc2)c1 (protonated)
Cn1cc(/C=C/C(=O)[N-]S(=O)(=O)c2ccccc2Br)c(CC[N-]S(=O)(=O)Cn2cccc2)c1 (cis-trans isomerization)
Cn1cc(/C=C/C(=O)[N-]S(=O)(=O)c2ccccc2Br)c(CC[N-]S(=O)(=O)Cn2cccc2)c1 (3D coordinates assigned)
Cn1cc(/C=C/C(=O)[N-]S(=O)(=O)c2ccccc2Br)c(CC[N-]S(=O)(=O)Cn2cccc2)c1 (optimized conformer: 104.31412956172531 kcal/mol)

>  <smiles>  (82) 
Cn1cc(C=CC(=O)NS(=O)(=O)c2ccccc2Br)c(CCNS(=O)(=O)Cn2cccc2)c1

>  <score_type>  (82) 
oracle

>  <origin>  (82) 
adg

>  <m_score__min__energy>  (82) 
-13.130000000000001

>  <m_primary>  (82) 
energy

$$$$
83:0
     RDKit          3D

 50 52  0  0  0  0  0  0  0  0999 V2000
   59.8460   31.3783   54.8881 H   0  0  0  0  0  0  0  0  0  0  0  0
   59.7590   30.8710   53.9160 C   0  0  0  0  0  0  0  0  0  0  0  0
   60.2655   31.2856   53.0319 H   0  0  0  0  0  0  0  0  0  0  0  0
   59.0380   29.7510   53.8090 C   0  0  0  0  0  0  0  0  0  0  0  0
   58.5372   29.3483   54.7018 H   0  0  0  0  0  0  0  0  0  0  0  0
   58.8940   29.0270   52.4980 C   0  0  0  0  0  0  0  0  0  0  0  0
   59.7432   28.3398   52.3691 H   0  0  0  0  0  0  0  0  0  0  0  0
   57.9483   28.4652   52.5045 H   0  0  0  0  0  0  0  0  0  0  0  0
   58.8710   29.9870   51.3750 N   0  0  0  0  0  0  0  0  0  0  0  0
   57.7670   30.7650   51.1650 C   0  0  0  0  0  0  0  0  0  0  0  0
   56.7470   30.6440   51.8980 O   0  0  0  0  0  0  0  0  0  0  0  0
   57.7720   31.7020   50.1890 N   0  0  0  0  0  0  0  0  0  0  0  0
   56.9520   32.3460   50.0990 H   0  0  0  0  0  0  0  0  0  0  0  0
   58.8670   31.8930   49.4100 C   0  0  0  0  0  0  0  0  0  0  0  0
   58.9100   32.9900   48.6960 N   0  0  0  0  0  0  0  0  0  0  0  0
   58.5630   33.2100   47.3190 C   0  0  0  0  0  0  0  0  0  0  0  0
   59.1120   34.3050   46.6450 C   0  0  0  0  0  0  0  0  0  0  0  0
   59.7753   35.0012   47.1792 H   0  0  0  0  0  0  0  0  0  0  0  0
   58.8210   34.5180   45.2950 C   0  0  0  0  0  0  0  0  0  0  0  0
   59.2425   35.3905   44.7743 H   0  0  0  0  0  0  0  0  0  0  0  0
   57.9970   33.6270   44.6050 C   0  0  0  0  0  0  0  0  0  0  0  0
   57.7612   33.8054   43.5455 H   0  0  0  0  0  0  0  0  0  0  0  0
   57.4670   32.5000   45.2630 C   0  0  0  0  0  0  0  0  0  0  0  0
   56.6420   31.5700   44.6140 O   0  0  0  0  0  0  0  0  0  0  0  0
   57.0200   30.8240   43.4610 C   0  0  0  0  0  0  0  0  0  0  0  0
   57.0696   31.4944   42.5903 H   0  0  0  0  0  0  0  0  0  0  0  0
   58.0062   30.3660   43.6271 H   0  0  0  0  0  0  0  0  0  0  0  0
   55.9910   29.7340   43.2040 C   0  0  0  0  0  0  0  0  0  0  0  0
   55.6226   29.3438   44.1642 H   0  0  0  0  0  0  0  0  0  0  0  0
   55.1500   30.1515   42.6309 H   0  0  0  0  0  0  0  0  0  0  0  0
   56.4562   28.9184   42.6309 H   0  0  0  0  0  0  0  0  0  0  0  0
   57.7690   32.2910   46.6130 C   0  0  0  0  0  0  0  0  0  0  0  0
   57.3811   31.3988   47.1264 H   0  0  0  0  0  0  0  0  0  0  0  0
   59.8930   30.9720   49.4590 N   0  0  0  0  0  0  0  0  0  0  0  0
   60.8100   30.7280   48.3170 C   0  0  0  0  0  0  0  0  0  0  0  0
   61.0776   31.6918   47.8593 H   0  0  0  0  0  0  0  0  0  0  0  0
   61.7074   30.2155   48.6939 H   0  0  0  0  0  0  0  0  0  0  0  0
   60.1600   29.8500   47.2730 C   0  0  0  0  0  0  0  0  0  0  0  0
   58.9640   29.1680   47.5520 C   0  0  0  0  0  0  0  0  0  0  0  0
   58.5073   29.2478   48.5495 H   0  0  0  0  0  0  0  0  0  0  0  0
   58.3530   28.3890   46.5670 C   0  0  0  0  0  0  0  0  0  0  0  0
   57.4141   27.8604   46.7886 H   0  0  0  0  0  0  0  0  0  0  0  0
   58.9340   28.2800   45.2980 C   0  0  0  0  0  0  0  0  0  0  0  0
   58.1610   27.3090   44.0600 Cl  0  0  0  0  0  0  0  0  0  0  0  0
   60.1270   28.9520   45.0150 C   0  0  0  0  0  0  0  0  0  0  0  0
   60.5832   28.8657   44.0178 H   0  0  0  0  0  0  0  0  0  0  0  0
   60.7400   29.7330   45.9980 C   0  0  0  0  0  0  0  0  0  0  0  0
   61.6800   30.2583   45.7733 H   0  0  0  0  0  0  0  0  0  0  0  0
   59.9380   30.1050   50.5240 C   0  0  0  0  0  0  0  0  0  0  0  0
   60.9650   29.3890   50.7030 O   0  0  0  0  0  0  0  0  0  0  0  0
  1  2  1  0
  2  3  1  0
  2  4  2  0
  4  5  1  0
  4  6  1  0
  6  7  1  0
  6  8  1  0
  6  9  1  0
  9 10  1  0
 10 11  2  0
 10 12  1  0
 12 13  1  0
 12 14  1  0
 14 15  2  0
 15 16  1  0
 16 17  2  0
 17 18  1  0
 17 19  1  0
 19 20  1  0
 19 21  2  0
 21 22  1  0
 21 23  1  0
 23 24  1  0
 24 25  1  0
 25 26  1  0
 25 27  1  0
 25 28  1  0
 28 29  1  0
 28 30  1  0
 28 31  1  0
 23 32  2  0
 32 33  1  0
 14 34  1  0
 34 35  1  0
 35 36  1  0
 35 37  1  0
 35 38  1  0
 38 39  2  0
 39 40  1  0
 39 41  1  0
 41 42  1  0
 41 43  2  0
 43 44  1  0
 43 45  1  0
 45 46  1  0
 45 47  2  0
 47 48  1  0
 34 49  1  0
 49 50  2  0
 49  9  1  0
 32 16  1  0
 47 38  1  0
M  END
>  <UniqueID>  (83) 
74

>  <SMILES>  (83) 
C=CCn1c(=O)[nH]/c(=N/c2cccc(OCC)c2)n(Cc2ccc(Cl)cc2)c1=O

>  <Energy>  (83) 
74.70490170379004

>  <Genealogy>  (83) 
C=CCn1c(=O)[nH]/c(=N/c2cccc(OCC)c2)n(Cc2ccc(Cl)cc2)c1=O (cis-trans isomerization)
C=CCn1c(=O)[nH]/c(=N/c2cccc(OCC)c2)n(Cc2ccc(Cl)cc2)c1=O (3D coordinates assigned)
C=CCn1c(=O)[nH]/c(=N/c2cccc(OCC)c2)n(Cc2ccc(Cl)cc2)c1=O (optimized conformer: 74.70490170379004 kcal/mol)

>  <smiles>  (83) 
C=CCn1c(=O)[nH]c(=Nc2cccc(OCC)c2)n(Cc2ccc(Cl)cc2)c1=O

>  <score_type>  (83) 
oracle

>  <origin>  (83) 
adg

>  <m_score__min__energy>  (83) 
-8.4900000000000002

>  <m_primary>  (83) 
energy

$$$$
84:0
     RDKit          3D

 20 21  0  0  0  0  0  0  0  0999 V2000
   55.1420   29.3480   44.8540 N   0  0  0  0  0  0  0  0  0  0  0  0
   56.7460   29.3960   44.2140 S   0  0  0  0  0  0  0  0  0  0  0  0
   57.5800   28.3290   44.8680 O   0  0  0  0  0  0  0  0  0  0  0  0
   56.7070   29.1370   42.7340 O   0  0  0  0  0  0  0  0  0  0  0  0
   57.4510   30.9790   44.5260 C   0  0  0  0  0  0  0  0  0  0  0  0
   57.7140   31.8540   43.4630 C   0  0  0  0  0  0  0  0  0  0  0  0
   58.2820   33.1080   43.7040 C   0  0  0  0  0  0  0  0  0  0  0  0
   58.5960   33.4960   45.0100 C   0  0  0  0  0  0  0  0  0  0  0  0
   59.1490   34.7150   45.2450 N   0  0  0  0  0  0  0  0  0  0  0  0
   59.4650   35.1090   46.5050 C   0  0  0  0  0  0  0  0  0  0  0  0
   59.2300   34.2830   47.5570 N   0  0  0  0  0  0  0  0  0  0  0  0
   58.6790   33.0530   47.3810 C   0  0  0  0  0  0  0  0  0  0  0  0
   58.4780   32.3180   48.3840 O   0  0  0  0  0  0  0  0  0  0  0  0
   58.3420   32.6200   46.0870 C   0  0  0  0  0  0  0  0  0  0  0  0
   57.7700   31.3600   45.8370 C   0  0  0  0  0  0  0  0  0  0  0  0
   55.1440   28.6510   45.6320 H   0  0  0  0  0  0  0  0  0  0  0  0
   57.4720   31.5520   42.4333 H   0  0  0  0  0  0  0  0  0  0  0  0
   58.4823   33.7907   42.8650 H   0  0  0  0  0  0  0  0  0  0  0  0
   59.9124   36.0995   46.6743 H   0  0  0  0  0  0  0  0  0  0  0  0
   57.5724   30.6717   46.6720 H   0  0  0  0  0  0  0  0  0  0  0  0
  1  2  1  0
  2  3  2  0
  2  4  2  0
  2  5  1  0
  5  6  2  0
  6  7  1  0
  7  8  2  0
  8  9  1  0
  9 10  2  0
 10 11  1  0
 11 12  1  0
 12 13  2  0
 12 14  1  0
 14 15  2  0
 15  5  1  0
 14  8  1  0
  1 16  1  0
  6 17  1  0
  7 18  1  0
 10 19  1  0
 15 20  1  0
M  CHG  2   1  -1  11  -1
M  END
>  <UniqueID>  (84) 
75

>  <SMILES>  (84) 
[NH-]S(=O)(=O)c1ccc2nc[n-]c(=O)c2c1

>  <Energy>  (84) 
25.644431305772155

>  <Genealogy>  (84) 
[NH-]S(=O)(=O)c1ccc2nc[n-]c(=O)c2c1 (protonated)
[NH-]S(=O)(=O)c1ccc2nc[n-]c(=O)c2c1 (3D coordinates assigned)
[NH-]S(=O)(=O)c1ccc2nc[n-]c(=O)c2c1 (optimized conformer: 25.644431305772155 kcal/mol)

>  <smiles>  (84) 
NS(=O)(=O)c1ccc2nc[nH]c(=O)c2c1

>  <score_type>  (84) 
oracle

>  <origin>  (84) 
adg

>  <m_score__min__energy>  (84) 
-10.029999999999999

>  <m_primary>  (84) 
energy

$$$$
85:0
     RDKit          3D

 24 25  0  0  0  0  0  0  0  0999 V2000
   52.2830   25.2340   44.8270 H   0  0  0  0  0  0  0  0  0  0  0  0
   52.5830   24.2530   45.0280 N   0  0  0  0  0  0  0  0  0  0  0  0
   53.7630   23.9470   45.4700 C   0  0  0  0  0  0  0  0  0  0  0  0
   54.0800   22.6380   45.6410 N   0  0  0  0  0  0  0  0  0  0  0  0
   55.2940   22.2450   46.1000 C   0  0  0  0  0  0  0  0  0  0  0  0
   55.5104   21.1740   46.2270 H   0  0  0  0  0  0  0  0  0  0  0  0
   56.2700   23.1920   46.4120 C   0  0  0  0  0  0  0  0  0  0  0  0
   57.5130   22.7520   46.8570 O   0  0  0  0  0  0  0  0  0  0  0  0
   55.9880   24.5660   46.2540 C   0  0  0  0  0  0  0  0  0  0  0  0
   57.0040   25.6010   46.5850 C   0  0  0  0  0  0  0  0  0  0  0  0
   58.1350   25.2550   47.0210 O   0  0  0  0  0  0  0  0  0  0  0  0
   56.6690   26.9960   46.5120 N   0  0  0  0  0  0  0  0  0  0  0  0
   57.2560   27.9490   45.8410 C   0  0  0  0  0  0  0  0  0  0  0  0
   58.6130   28.0400   45.9330 N   0  0  0  0  0  0  0  0  0  0  0  0
   59.3320   28.9830   45.2720 C   0  0  0  0  0  0  0  0  0  0  0  0
   60.4267   29.0128   45.3760 H   0  0  0  0  0  0  0  0  0  0  0  0
   58.6840   29.9130   44.4620 C   0  0  0  0  0  0  0  0  0  0  0  0
   59.2620   30.6680   43.9089 H   0  0  0  0  0  0  0  0  0  0  0  0
   57.2940   29.8750   44.3610 C   0  0  0  0  0  0  0  0  0  0  0  0
   56.7706   30.6070   43.7284 H   0  0  0  0  0  0  0  0  0  0  0  0
   56.5630   28.9110   45.0600 C   0  0  0  0  0  0  0  0  0  0  0  0
   55.1760   28.9680   45.0030 O   0  0  0  0  0  0  0  0  0  0  0  0
   54.7110   24.9420   45.7770 C   0  0  0  0  0  0  0  0  0  0  0  0
   54.3820   26.2870   45.6260 O   0  0  0  0  0  0  0  0  0  0  0  0
  1  2  1  0
  2  3  2  0
  3  4  1  0
  4  5  1  0
  5  6  1  0
  5  7  2  0
  7  8  1  0
  7  9  1  0
  9 10  1  0
 10 11  2  0
 10 12  1  0
 12 13  2  3
 13 14  1  0
 14 15  1  0
 15 16  1  0
 15 17  2  0
 17 18  1  0
 17 19  1  0
 19 20  1  0
 19 21  2  0
 21 22  1  0
  9 23  2  0
 23 24  1  0
 23  3  1  0
 21 13  1  0
M  CHG  5   4  -1   8  -1  14  -1  22  -1  24  -1
M  END
>  <UniqueID>  (85) 
76

>  <SMILES>  (85) 
[H]/N=c1/[n-]cc([O-])c(C(=O)N=c2[n-]cccc2[O-])c1[O-]

>  <Energy>  (85) 
44.57920851808436

>  <Genealogy>  (85) 
N=c1[n-]cc([O-])c(C(=O)N=c2[n-]cccc2[O-])c1[O-] (protonated)
[H]/N=c1/[n-]cc([O-])c(C(=O)N=c2[n-]cccc2[O-])c1[O-] (cis-trans isomerization)
[H]/N=c1/[n-]cc([O-])c(C(=O)N=c2[n-]cccc2[O-])c1[O-] (3D coordinates assigned)
[H]/N=c1/[n-]cc([O-])c(C(=O)N=c2[n-]cccc2[O-])c1[O-] (optimized conformer: 44.57920851808436 kcal/mol)

>  <smiles>  (85) 
N=c1[nH]cc(O)c(C(=O)N=c2[nH]cccc2O)c1O

>  <score_type>  (85) 
oracle

>  <origin>  (85) 
adg

>  <m_score__min__energy>  (85) 
-17.66

>  <m_primary>  (85) 
energy

$$$$
86:0
     RDKit          3D

 44 48  0  0  0  0  0  0  0  0999 V2000
   52.4966   31.5276   53.3808 H   0  0  0  0  0  0  0  0  0  0  0  0
   52.8670   30.9050   52.5530 C   0  0  0  0  0  0  0  0  0  0  0  0
   52.1510   30.9950   51.2630 C   0  0  0  0  0  0  0  0  0  0  0  0
   52.2000   30.0900   50.2690 N   0  0  0  0  0  0  0  0  0  0  0  0
   51.3920   30.6160   49.3230 C   0  0  0  0  0  0  0  0  0  0  0  0
   51.1790   30.0460   48.2210 O   0  0  0  0  0  0  0  0  0  0  0  0
   50.8320   31.7990   49.6510 N   0  0  0  0  0  0  0  0  0  0  0  0
   51.3230   32.0240   50.8800 C   0  0  0  0  0  0  0  0  0  0  0  0
   51.0200   33.1480   51.6380 O   0  0  0  0  0  0  0  0  0  0  0  0
   53.9330   30.1250   52.7970 C   0  0  0  0  0  0  0  0  0  0  0  0
   54.0340   28.9320   53.5190 C   0  0  0  0  0  0  0  0  0  0  0  0
   53.1989   28.4266   54.0261 H   0  0  0  0  0  0  0  0  0  0  0  0
   55.3160   28.4920   53.5000 N   0  0  0  0  0  0  0  0  0  0  0  0
   56.0200   29.3620   52.7940 N   0  0  0  0  0  0  0  0  0  0  0  0
   57.3500   29.3500   52.4920 C   0  0  0  0  0  0  0  0  0  0  0  0
   58.1630   28.4120   52.8860 N   0  0  0  0  0  0  0  0  0  0  0  0
   58.7630   28.2820   54.2100 C   0  0  0  0  0  0  0  0  0  0  0  0
   59.5830   29.0024   54.0740 H   0  0  0  0  0  0  0  0  0  0  0  0
   57.7620   28.0040   55.3170 C   0  0  0  0  0  0  0  0  0  0  0  0
   57.9397   28.3938   56.3302 H   0  0  0  0  0  0  0  0  0  0  0  0
   56.6810   28.1613   55.4465 H   0  0  0  0  0  0  0  0  0  0  0  0
   58.6280   26.8790   54.7720 C   0  0  0  0  0  0  0  0  0  0  0  0
   59.4322   26.4546   55.3910 H   0  0  0  0  0  0  0  0  0  0  0  0
   58.4331   25.8847   54.3437 H   0  0  0  0  0  0  0  0  0  0  0  0
   57.8390   30.3710   51.7350 N   0  0  0  0  0  0  0  0  0  0  0  0
   57.0240   31.3770   51.2950 C   0  0  0  0  0  0  0  0  0  0  0  0
   57.5290   32.3330   50.5770 N   0  0  0  0  0  0  0  0  0  0  0  0
   58.9600   32.5210   50.3540 C   0  0  0  0  0  0  0  0  0  0  0  0
   59.4905   31.5797   50.5599 H   0  0  0  0  0  0  0  0  0  0  0  0
   59.3368   33.3069   51.0250 H   0  0  0  0  0  0  0  0  0  0  0  0
   59.1920   32.9250   48.9280 C   0  0  0  0  0  0  0  0  0  0  0  0
   60.2860   33.7400   48.5920 C   0  0  0  0  0  0  0  0  0  0  0  0
   60.9588   34.1065   49.3813 H   0  0  0  0  0  0  0  0  0  0  0  0
   60.5230   34.0870   47.2590 C   0  0  0  0  0  0  0  0  0  0  0  0
   61.3764   34.7322   47.0033 H   0  0  0  0  0  0  0  0  0  0  0  0
   59.6780   33.6160   46.2500 C   0  0  0  0  0  0  0  0  0  0  0  0
   59.8643   33.8949   45.2024 H   0  0  0  0  0  0  0  0  0  0  0  0
   58.5940   32.7890   46.5720 C   0  0  0  0  0  0  0  0  0  0  0  0
   57.7300   32.2960   45.5320 C   0  0  0  0  0  0  0  0  0  0  0  0
   57.0350   31.8990   44.6960 N   0  0  0  0  0  0  0  0  0  0  0  0
   58.3560   32.4400   47.9080 C   0  0  0  0  0  0  0  0  0  0  0  0
   57.5104   31.7830   48.1596 H   0  0  0  0  0  0  0  0  0  0  0  0
   55.6950   31.3660   51.6120 N   0  0  0  0  0  0  0  0  0  0  0  0
   55.2230   30.3440   52.3640 C   0  0  0  0  0  0  0  0  0  0  0  0
  1  2  1  0
  2  3  1  0
  3  4  1  0
  4  5  1  0
  5  6  2  0
  5  7  1  0
  7  8  1  0
  8  9  1  0
  2 10  2  3
 10 11  1  0
 11 12  1  0
 11 13  2  0
 13 14  1  0
 14 15  1  0
 15 16  2  3
 16 17  1  0
 17 18  1  0
 17 19  1  0
 19 20  1  0
 19 21  1  0
 19 22  1  0
 22 23  1  0
 22 24  1  0
 15 25  1  0
 25 26  1  0
 26 27  2  0
 27 28  1  0
 28 29  1  0
 28 30  1  0
 28 31  1  0
 31 32  2  0
 32 33  1  0
 32 34  1  0
 34 35  1  0
 34 36  2  0
 36 37  1  0
 36 38  1  0
 38 39  1  0
 39 40  3  0
 38 41  2  0
 41 42  1  0
 26 43  1  0
 43 44  2  0
  8  3  2  0
 44 10  1  0
 44 14  1  0
 22 17  1  0
 41 31  1  0
M  CHG  4   4  -1   7  -1   9  -1  25  -1
M  END
>  <UniqueID>  (86) 
77

>  <SMILES>  (86) 
N#Cc1cccc(C/N=c2\nc3c(=Cc4[n-]c(=O)[n-]c4[O-])cnn3c(=NC3CC3)[n-]2)c1

>  <Energy>  (86) 
384.8532587486777

>  <Genealogy>  (86) 
N#Cc1cccc(CN=c2nc3c(=Cc4[n-]c(=O)[n-]c4[O-])cnn3c(=NC3CC3)[n-]2)c1 (protonated)
N#Cc1cccc(C/N=c2\nc3c(=Cc4[n-]c(=O)[n-]c4[O-])cnn3c(=NC3CC3)[n-]2)c1 (cis-trans isomerization)
N#Cc1cccc(C/N=c2\nc3c(=Cc4[n-]c(=O)[n-]c4[O-])cnn3c(=NC3CC3)[n-]2)c1 (3D coordinates assigned)
N#Cc1cccc(C/N=c2\nc3c(=Cc4[n-]c(=O)[n-]c4[O-])cnn3c(=NC3CC3)[n-]2)c1 (nonaromatic ring conformer: 384.8532587486777 kcal/mol)

>  <smiles>  (86) 
N#Cc1cccc(CN=c2nc3c(=Cc4[nH]c(=O)[nH]c4O)cnn3c(=NC3CC3)[nH]2)c1

>  <score_type>  (86) 
oracle

>  <origin>  (86) 
adg

>  <m_score__min__energy>  (86) 
-18.550000000000001

>  <m_primary>  (86) 
energy

$$$$
87:0
     RDKit          3D

 64 68  0  0  0  0  0  0  0  0999 V2000
   68.0780   33.0510   50.8750 C   0  0  0  0  0  0  0  0  0  0  0  0
   66.6900   32.5520   50.6540 C   0  0  0  0  0  0  0  0  0  0  0  0
   66.2190   31.5010   51.3880 N   0  0  0  0  0  0  0  0  0  0  0  0
   64.9640   30.9950   51.2010 C   0  0  0  0  0  0  0  0  0  0  0  0
   64.5590   29.8450   51.9490 N   0  0  0  0  0  0  0  0  0  0  0  0
   63.7880   30.0490   53.1740 C   0  0  0  0  0  0  0  0  0  0  0  0
   63.1460   28.7290   53.6170 C   0  0  0  0  0  0  0  0  0  0  0  0
   64.1080   27.6940   53.6780 O   0  0  0  0  0  0  0  0  0  0  0  0
   64.6180   27.4350   52.3860 C   0  0  0  0  0  0  0  0  0  0  0  0
   65.3950   28.6450   51.8590 C   0  0  0  0  0  0  0  0  0  0  0  0
   64.1440   31.5770   50.2160 C   0  0  0  0  0  0  0  0  0  0  0  0
   62.8140   31.2600   49.8450 C   0  0  0  0  0  0  0  0  0  0  0  0
   62.0010   30.1600   50.4630 C   0  0  0  0  0  0  0  0  0  0  0  0
   62.3680   32.0610   48.7730 C   0  0  0  0  0  0  0  0  0  0  0  0
   61.0380   32.0330   48.1410 C   0  0  0  0  0  0  0  0  0  0  0  0
   60.1410   31.2880   48.6170 O   0  0  0  0  0  0  0  0  0  0  0  0
   60.7580   32.9160   47.0400 N   0  0  0  0  0  0  0  0  0  0  0  0
   59.5060   32.9730   46.3320 C   0  0  0  0  0  0  0  0  0  0  0  0
   58.7870   34.1730   46.1830 C   0  0  0  0  0  0  0  0  0  0  0  0
   57.5700   34.1840   45.4950 C   0  0  0  0  0  0  0  0  0  0  0  0
   57.0500   33.0010   44.9660 C   0  0  0  0  0  0  0  0  0  0  0  0
   57.7410   31.7940   45.1310 C   0  0  0  0  0  0  0  0  0  0  0  0
   57.0830   30.2940   44.4740 S   0  0  0  0  0  0  0  0  0  0  0  0
   55.6110   30.2300   44.7700 O   0  0  0  0  0  0  0  0  0  0  0  0
   57.2560   30.2830   42.9800 O   0  0  0  0  0  0  0  0  0  0  0  0
   57.8760   28.8930   45.1560 N   0  0  0  0  0  0  0  0  0  0  0  0
   59.1510   28.5910   44.4570 C   0  0  0  0  0  0  0  0  0  0  0  0
   60.3930   28.9860   45.2710 C   0  0  0  0  0  0  0  0  0  0  0  0
   60.4070   28.2910   46.6470 C   0  0  0  0  0  0  0  0  0  0  0  0
   58.9920   28.0250   47.1940 C   0  0  0  0  0  0  0  0  0  0  0  0
   57.9930   29.0330   46.6240 C   0  0  0  0  0  0  0  0  0  0  0  0
   58.9590   31.7840   45.8260 C   0  0  0  0  0  0  0  0  0  0  0  0
   63.5830   33.1460   48.3200 S   0  0  0  0  0  0  0  0  0  0  0  0
   64.6740   32.6140   49.4700 C   0  0  0  0  0  0  0  0  0  0  0  0
   65.9210   33.1000   49.6740 N   0  0  0  0  0  0  0  0  0  0  0  0
   68.2746   33.1217   51.9550 H   0  0  0  0  0  0  0  0  0  0  0  0
   68.7954   32.3545   50.4165 H   0  0  0  0  0  0  0  0  0  0  0  0
   68.1877   34.0449   50.4165 H   0  0  0  0  0  0  0  0  0  0  0  0
   64.4561   30.4134   53.9682 H   0  0  0  0  0  0  0  0  0  0  0  0
   62.9965   30.7886   52.9829 H   0  0  0  0  0  0  0  0  0  0  0  0
   62.6979   28.8630   54.6126 H   0  0  0  0  0  0  0  0  0  0  0  0
   62.3760   28.4495   52.8829 H   0  0  0  0  0  0  0  0  0  0  0  0
   65.2903   26.5655   52.4306 H   0  0  0  0  0  0  0  0  0  0  0  0
   63.7764   27.2318   51.7074 H   0  0  0  0  0  0  0  0  0  0  0  0
   66.3043   28.7866   52.4616 H   0  0  0  0  0  0  0  0  0  0  0  0
   65.6718   28.4713   50.8087 H   0  0  0  0  0  0  0  0  0  0  0  0
   62.0562   30.2347   51.5591 H   0  0  0  0  0  0  0  0  0  0  0  0
   60.9532   30.2534   50.1414 H   0  0  0  0  0  0  0  0  0  0  0  0
   62.3978   29.1858   50.1414 H   0  0  0  0  0  0  0  0  0  0  0  0
   61.4880   33.6220   46.7850 H   0  0  0  0  0  0  0  0  0  0  0  0
   59.1838   35.1061   46.6094 H   0  0  0  0  0  0  0  0  0  0  0  0
   57.0199   35.1283   45.3699 H   0  0  0  0  0  0  0  0  0  0  0  0
   56.0960   33.0171   44.4187 H   0  0  0  0  0  0  0  0  0  0  0  0
   59.1929   27.5102   44.2567 H   0  0  0  0  0  0  0  0  0  0  0  0
   59.1648   29.1826   43.5298 H   0  0  0  0  0  0  0  0  0  0  0  0
   61.2947   28.6936   44.7130 H   0  0  0  0  0  0  0  0  0  0  0  0
   60.3700   30.0739   45.4324 H   0  0  0  0  0  0  0  0  0  0  0  0
   60.9331   27.3298   46.5503 H   0  0  0  0  0  0  0  0  0  0  0  0
   60.9148   28.9640   47.3535 H   0  0  0  0  0  0  0  0  0  0  0  0
   58.6807   27.0087   46.9108 H   0  0  0  0  0  0  0  0  0  0  0  0
   59.0115   28.1274   48.2891 H   0  0  0  0  0  0  0  0  0  0  0  0
   57.0076   28.8604   47.0813 H   0  0  0  0  0  0  0  0  0  0  0  0
   58.3515   30.0478   46.8513 H   0  0  0  0  0  0  0  0  0  0  0  0
   59.4916   30.8333   45.9762 H   0  0  0  0  0  0  0  0  0  0  0  0
  1  2  1  0
  2  3  2  0
  3  4  1  0
  4  5  1  0
  5  6  1  0
  6  7  1  0
  7  8  1  0
  8  9  1  0
  9 10  1  0
  4 11  2  0
 11 12  1  0
 12 13  1  0
 12 14  2  0
 14 15  1  0
 15 16  2  0
 15 17  1  0
 17 18  1  0
 18 19  2  0
 19 20  1  0
 20 21  2  0
 21 22  1  0
 22 23  1  0
 23 24  2  0
 23 25  2  0
 23 26  1  0
 26 27  1  0
 27 28  1  0
 28 29  1  0
 29 30  1  0
 30 31  1  0
 22 32  2  0
 14 33  1  0
 33 34  1  0
 34 35  2  0
 35  2  1  0
 10  5  1  0
 34 11  1  0
 32 18  1  0
 31 26  1  0
  1 36  1  0
  1 37  1  0
  1 38  1  0
  6 39  1  0
  6 40  1  0
  7 41  1  0
  7 42  1  0
  9 43  1  0
  9 44  1  0
 10 45  1  0
 10 46  1  0
 13 47  1  0
 13 48  1  0
 13 49  1  0
 17 50  1  0
 19 51  1  0
 20 52  1  0
 21 53  1  0
 27 54  1  0
 27 55  1  0
 28 56  1  0
 28 57  1  0
 29 58  1  0
 29 59  1  0
 30 60  1  0
 30 61  1  0
 31 62  1  0
 31 63  1  0
 32 64  1  0
M  END
>  <UniqueID>  (87) 
78

>  <SMILES>  (87) 
Cc1nc(N2CCOCC2)c2c(C)c(C(=O)Nc3cccc(S(=O)(=O)N4CCCCC4)c3)sc2n1

>  <Energy>  (87) 
119.30261406055214

>  <Genealogy>  (87) 
Cc1nc(N2CCOCC2)c2c(C)c(C(=O)Nc3cccc(S(=O)(=O)N4CCCCC4)c3)sc2n1 (3D coordinates assigned)
Cc1nc(N2CCOCC2)c2c(C)c(C(=O)Nc3cccc(S(=O)(=O)N4CCCCC4)c3)sc2n1 (nonaromatic ring conformer: 119.30261406055214 kcal/mol)

>  <smiles>  (87) 
Cc1nc(N2CCOCC2)c2c(C)c(C(=O)Nc3cccc(S(=O)(=O)N4CCCCC4)c3)sc2n1

>  <score_type>  (87) 
oracle

>  <origin>  (87) 
adg

>  <m_score__min__energy>  (87) 
-9.7899999999999991

>  <m_primary>  (87) 
energy

$$$$
88:0
     RDKit          3D

 41 43  0  0  0  0  0  0  0  0999 V2000
   58.5930   34.7650   48.3400 H   0  0  0  0  0  0  0  0  0  0  0  0
   59.4580   34.5510   48.8190 O   0  0  0  0  0  0  0  0  0  0  0  0
   60.6040   34.1620   48.1270 C   0  0  0  0  0  0  0  0  0  0  0  0
   61.7660   33.8590   48.8510 C   0  0  0  0  0  0  0  0  0  0  0  0
   61.7424   33.8646   49.9507 H   0  0  0  0  0  0  0  0  0  0  0  0
   62.9500   33.5510   48.1850 C   0  0  0  0  0  0  0  0  0  0  0  0
   63.8603   33.3074   48.7524 H   0  0  0  0  0  0  0  0  0  0  0  0
   62.9680   33.5550   46.7940 C   0  0  0  0  0  0  0  0  0  0  0  0
   63.9013   33.3329   46.2558 H   0  0  0  0  0  0  0  0  0  0  0  0
   61.8340   33.8330   46.1000 N   0  0  0  0  0  0  0  0  0  0  0  0
   60.6470   34.1100   46.7080 C   0  0  0  0  0  0  0  0  0  0  0  0
   59.6200   34.3520   45.9400 N   0  0  0  0  0  0  0  0  0  0  0  0
   58.3250   33.7310   45.9330 C   0  0  0  0  0  0  0  0  0  0  0  0
   57.5700   33.8470   46.9370 O   0  0  0  0  0  0  0  0  0  0  0  0
   57.9250   32.8590   44.8030 C   0  0  0  0  0  0  0  0  0  0  0  0
   58.4460   33.0790   43.5160 C   0  0  0  0  0  0  0  0  0  0  0  0
   59.1504   33.9065   43.3456 H   0  0  0  0  0  0  0  0  0  0  0  0
   58.0750   32.2540   42.4530 C   0  0  0  0  0  0  0  0  0  0  0  0
   58.4887   32.4348   41.4499 H   0  0  0  0  0  0  0  0  0  0  0  0
   57.1820   31.2010   42.6560 C   0  0  0  0  0  0  0  0  0  0  0  0
   56.8950   30.5567   41.8119 H   0  0  0  0  0  0  0  0  0  0  0  0
   56.6470   30.9590   43.9340 C   0  0  0  0  0  0  0  0  0  0  0  0
   55.7010   29.8390   44.1510 C   0  0  0  0  0  0  0  0  0  0  0  0
   54.7150   29.6860   43.3790 O   0  0  0  0  0  0  0  0  0  0  0  0
   55.9000   28.9270   45.2370 N   0  0  0  0  0  0  0  0  0  0  0  0
   57.0080   27.9820   45.3080 C   0  0  0  0  0  0  0  0  0  0  0  0
   56.7816   27.2136   46.0618 H   0  0  0  0  0  0  0  0  0  0  0  0
   57.1429   27.5144   44.3215 H   0  0  0  0  0  0  0  0  0  0  0  0
   58.2780   28.6930   45.6900 C   0  0  0  0  0  0  0  0  0  0  0  0
   59.4210   28.6020   44.8780 C   0  0  0  0  0  0  0  0  0  0  0  0
   59.3952   27.9957   43.9605 H   0  0  0  0  0  0  0  0  0  0  0  0
   60.5910   29.2800   45.2330 C   0  0  0  0  0  0  0  0  0  0  0  0
   61.4849   29.2016   44.5967 H   0  0  0  0  0  0  0  0  0  0  0  0
   60.6280   30.0570   46.3940 C   0  0  0  0  0  0  0  0  0  0  0  0
   61.5496   30.5903   46.6703 H   0  0  0  0  0  0  0  0  0  0  0  0
   59.4930   30.1560   47.2040 C   0  0  0  0  0  0  0  0  0  0  0  0
   59.5220   30.7677   48.1178 H   0  0  0  0  0  0  0  0  0  0  0  0
   58.3200   29.4780   46.8540 C   0  0  0  0  0  0  0  0  0  0  0  0
   57.4280   29.5601   47.4925 H   0  0  0  0  0  0  0  0  0  0  0  0
   57.0270   31.7940   45.0020 C   0  0  0  0  0  0  0  0  0  0  0  0
   56.6162   31.6113   46.0059 H   0  0  0  0  0  0  0  0  0  0  0  0
  1  2  1  0
  2  3  1  0
  3  4  2  0
  4  5  1  0
  4  6  1  0
  6  7  1  0
  6  8  2  0
  8  9  1  0
  8 10  1  0
 10 11  1  0
 11 12  2  0
 12 13  1  0
 13 14  2  0
 13 15  1  0
 15 16  2  0
 16 17  1  0
 16 18  1  0
 18 19  1  0
 18 20  2  0
 20 21  1  0
 20 22  1  0
 22 23  1  0
 23 24  2  0
 23 25  1  0
 25 26  1  0
 26 27  1  0
 26 28  1  0
 26 29  1  0
 29 30  2  0
 30 31  1  0
 30 32  1  0
 32 33  1  0
 32 34  2  0
 34 35  1  0
 34 36  1  0
 36 37  1  0
 36 38  2  0
 38 39  1  0
 22 40  2  0
 40 41  1  0
 11  3  1  0
 40 15  1  0
 38 29  1  0
M  CHG  2  10  -1  25  -1
M  END
>  <UniqueID>  (88) 
79

>  <SMILES>  (88) 
O=C(/N=c1/[n-]cccc1O)c1cccc(C(=O)[N-]Cc2ccccc2)c1

>  <Energy>  (88) 
55.50530731001777

>  <Genealogy>  (88) 
O=C(N=c1[n-]cccc1O)c1cccc(C(=O)[N-]Cc2ccccc2)c1 (protonated)
O=C(/N=c1/[n-]cccc1O)c1cccc(C(=O)[N-]Cc2ccccc2)c1 (cis-trans isomerization)
O=C(/N=c1/[n-]cccc1O)c1cccc(C(=O)[N-]Cc2ccccc2)c1 (3D coordinates assigned)
O=C(/N=c1/[n-]cccc1O)c1cccc(C(=O)[N-]Cc2ccccc2)c1 (optimized conformer: 55.50530731001777 kcal/mol)

>  <smiles>  (88) 
O=C(N=c1[nH]cccc1O)c1cccc(C(=O)NCc2ccccc2)c1

>  <score_type>  (88) 
oracle

>  <origin>  (88) 
adg

>  <m_score__min__energy>  (88) 
-12.369999999999999

>  <m_primary>  (88) 
energy

$$$$
89:0
     RDKit          3D

 42 44  0  0  0  0  0  0  0  0999 V2000
   59.1618   34.2819   43.6490 H   0  0  0  0  0  0  0  0  0  0  0  0
   58.6350   33.4800   44.1870 C   0  0  0  0  0  0  0  0  0  0  0  0
   57.7810   32.2130   43.4860 S   0  0  0  0  0  0  0  0  0  0  0  0
   57.3400   31.5460   44.9740 C   0  0  0  0  0  0  0  0  0  0  0  0
   56.6410   30.4650   45.1630 N   0  0  0  0  0  0  0  0  0  0  0  0
   56.1060   29.5910   44.1570 C   0  0  0  0  0  0  0  0  0  0  0  0
   54.8730   29.3380   44.0930 O   0  0  0  0  0  0  0  0  0  0  0  0
   57.0350   28.9690   43.1620 C   0  0  0  0  0  0  0  0  0  0  0  0
   56.4707   28.7110   42.2537 H   0  0  0  0  0  0  0  0  0  0  0  0
   57.8323   29.6890   42.9253 H   0  0  0  0  0  0  0  0  0  0  0  0
   57.7960   27.4550   43.8450 S   0  0  0  0  0  0  0  0  0  0  0  0
   58.7080   28.3040   45.1380 C   0  0  0  0  0  0  0  0  0  0  0  0
   59.8750   29.0090   44.8260 C   0  0  0  0  0  0  0  0  0  0  0  0
   60.2374   29.0379   43.7878 H   0  0  0  0  0  0  0  0  0  0  0  0
   60.5820   29.6770   45.8300 C   0  0  0  0  0  0  0  0  0  0  0  0
   61.4946   30.2359   45.5754 H   0  0  0  0  0  0  0  0  0  0  0  0
   60.1350   29.6400   47.1650 C   0  0  0  0  0  0  0  0  0  0  0  0
   60.8840   30.3600   48.2240 C   0  0  0  0  0  0  0  0  0  0  0  0
   61.1970   29.7510   49.2840 O   0  0  0  0  0  0  0  0  0  0  0  0
   61.2130   31.7520   48.0790 N   0  0  0  0  0  0  0  0  0  0  0  0
   60.5880   32.3450   47.4870 H   0  0  0  0  0  0  0  0  0  0  0  0
   62.2580   32.4080   48.8180 C   0  0  0  0  0  0  0  0  0  0  0  0
   63.5900   32.0020   48.6360 C   0  0  0  0  0  0  0  0  0  0  0  0
   63.8244   31.1998   47.9208 H   0  0  0  0  0  0  0  0  0  0  0  0
   64.6200   32.6120   49.3590 C   0  0  0  0  0  0  0  0  0  0  0  0
   65.6619   32.2957   49.2028 H   0  0  0  0  0  0  0  0  0  0  0  0
   64.3290   33.6220   50.2790 C   0  0  0  0  0  0  0  0  0  0  0  0
   65.3290   34.2110   50.9810 F   0  0  0  0  0  0  0  0  0  0  0  0
   63.0050   34.0180   50.4830 C   0  0  0  0  0  0  0  0  0  0  0  0
   62.7749   34.8088   51.2121 H   0  0  0  0  0  0  0  0  0  0  0  0
   61.9710   33.4110   49.7620 C   0  0  0  0  0  0  0  0  0  0  0  0
   60.9292   33.7193   49.9339 H   0  0  0  0  0  0  0  0  0  0  0  0
   58.9580   28.9280   47.4670 C   0  0  0  0  0  0  0  0  0  0  0  0
   58.5889   28.8969   48.5028 H   0  0  0  0  0  0  0  0  0  0  0  0
   58.2560   28.2610   46.4600 C   0  0  0  0  0  0  0  0  0  0  0  0
   57.3434   27.6994   46.7086 H   0  0  0  0  0  0  0  0  0  0  0  0
   57.8340   32.2650   46.0030 N   0  0  0  0  0  0  0  0  0  0  0  0
   58.5570   33.3340   45.5710 C   0  0  0  0  0  0  0  0  0  0  0  0
   59.1770   34.3040   46.5230 C   0  0  0  0  0  0  0  0  0  0  0  0
   58.9732   33.9852   47.5559 H   0  0  0  0  0  0  0  0  0  0  0  0
   60.2639   34.3368   46.3571 H   0  0  0  0  0  0  0  0  0  0  0  0
   58.7504   35.3042   46.3571 H   0  0  0  0  0  0  0  0  0  0  0  0
  1  2  1  0
  2  3  1  0
  3  4  1  0
  4  5  2  0
  5  6  1  0
  6  7  2  0
  6  8  1  0
  8  9  1  0
  8 10  1  0
  8 11  1  0
 11 12  1  0
 12 13  2  0
 13 14  1  0
 13 15  1  0
 15 16  1  0
 15 17  2  0
 17 18  1  0
 18 19  2  0
 18 20  1  0
 20 21  1  0
 20 22  1  0
 22 23  2  0
 23 24  1  0
 23 25  1  0
 25 26  1  0
 25 27  2  0
 27 28  1  0
 27 29  1  0
 29 30  1  0
 29 31  2  0
 31 32  1  0
 17 33  1  0
 33 34  1  0
 33 35  2  0
 35 36  1  0
  4 37  1  0
 37 38  1  0
 38 39  1  0
 39 40  1  0
 39 41  1  0
 39 42  1  0
 38  2  2  0
 35 12  1  0
 31 22  1  0
M  CHG  1  37  -1
M  END
>  <UniqueID>  (89) 
80

>  <SMILES>  (89) 
Cc1cs/c(=N\C(=O)CSc2ccc(C(=O)Nc3ccc(F)cc3)cc2)[n-]1

>  <Energy>  (89) 
76.30415158082796

>  <Genealogy>  (89) 
Cc1csc(=NC(=O)CSc2ccc(C(=O)Nc3ccc(F)cc3)cc2)[n-]1 (protonated)
Cc1cs/c(=N\C(=O)CSc2ccc(C(=O)Nc3ccc(F)cc3)cc2)[n-]1 (cis-trans isomerization)
Cc1cs/c(=N\C(=O)CSc2ccc(C(=O)Nc3ccc(F)cc3)cc2)[n-]1 (3D coordinates assigned)
Cc1cs/c(=N\C(=O)CSc2ccc(C(=O)Nc3ccc(F)cc3)cc2)[n-]1 (optimized conformer: 76.30415158082796 kcal/mol)

>  <smiles>  (89) 
Cc1csc(=NC(=O)CSc2ccc(C(=O)Nc3ccc(F)cc3)cc2)[nH]1

>  <score_type>  (89) 
oracle

>  <origin>  (89) 
adg

>  <m_score__min__energy>  (89) 
-10.470000000000001

>  <m_primary>  (89) 
energy

$$$$
90:0
     RDKit          3D

 37 39  0  0  0  0  0  0  0  0999 V2000
   59.2090   29.8770   48.1270 C   0  0  0  0  0  0  0  0  0  0  0  0
   58.6250   30.1910   46.9600 C   0  0  0  0  0  0  0  0  0  0  0  0
   58.3810   29.3230   45.8850 C   0  0  0  0  0  0  0  0  0  0  0  0
   58.4250   27.9780   45.8070 C   0  0  0  0  0  0  0  0  0  0  0  0
   57.2640   27.0780   45.9040 C   0  0  0  0  0  0  0  0  0  0  0  0
   57.2930   25.8410   46.4360 N   0  0  0  0  0  0  0  0  0  0  0  0
   55.9950   25.4690   46.4330 C   0  0  0  0  0  0  0  0  0  0  0  0
   55.6110   24.3450   46.8480 O   0  0  0  0  0  0  0  0  0  0  0  0
   55.1400   26.4000   45.9580 N   0  0  0  0  0  0  0  0  0  0  0  0
   55.9590   27.4160   45.6420 C   0  0  0  0  0  0  0  0  0  0  0  0
   55.5210   28.6310   45.1300 O   0  0  0  0  0  0  0  0  0  0  0  0
   58.0380   30.1250   44.8110 C   0  0  0  0  0  0  0  0  0  0  0  0
   58.0060   31.4230   45.2730 C   0  0  0  0  0  0  0  0  0  0  0  0
   57.6930   32.6150   44.4180 C   0  0  0  0  0  0  0  0  0  0  0  0
   58.3420   31.4690   46.5860 N   0  0  0  0  0  0  0  0  0  0  0  0
   58.4490   32.6850   47.4100 C   0  0  0  0  0  0  0  0  0  0  0  0
   59.8940   33.0650   47.6410 C   0  0  0  0  0  0  0  0  0  0  0  0
   60.8000   33.0490   46.5650 C   0  0  0  0  0  0  0  0  0  0  0  0
   62.1380   33.4050   46.7580 C   0  0  0  0  0  0  0  0  0  0  0  0
   62.5840   33.7910   48.0230 C   0  0  0  0  0  0  0  0  0  0  0  0
   61.6910   33.8290   49.0970 C   0  0  0  0  0  0  0  0  0  0  0  0
   60.3470   33.4750   48.9130 C   0  0  0  0  0  0  0  0  0  0  0  0
   59.4650   33.5290   49.9910 O   0  0  0  0  0  0  0  0  0  0  0  0
   59.3463   30.6489   48.8986 H   0  0  0  0  0  0  0  0  0  0  0  0
   59.5503   28.8478   48.3118 H   0  0  0  0  0  0  0  0  0  0  0  0
   59.4112   27.5139   45.6584 H   0  0  0  0  0  0  0  0  0  0  0  0
   57.8304   29.7903   43.7839 H   0  0  0  0  0  0  0  0  0  0  0  0
   57.4663   33.4782   45.0611 H   0  0  0  0  0  0  0  0  0  0  0  0
   58.5603   32.8486   43.7829 H   0  0  0  0  0  0  0  0  0  0  0  0
   56.8229   32.3924   43.7829 H   0  0  0  0  0  0  0  0  0  0  0  0
   57.9384   33.5126   46.8959 H   0  0  0  0  0  0  0  0  0  0  0  0
   57.9814   32.4862   48.3856 H   0  0  0  0  0  0  0  0  0  0  0  0
   60.4529   32.7540   45.5638 H   0  0  0  0  0  0  0  0  0  0  0  0
   62.8403   33.3809   45.9117 H   0  0  0  0  0  0  0  0  0  0  0  0
   63.6384   34.0653   48.1744 H   0  0  0  0  0  0  0  0  0  0  0  0
   62.0443   34.1382   50.0918 H   0  0  0  0  0  0  0  0  0  0  0  0
   59.7940   33.6070   50.9470 H   0  0  0  0  0  0  0  0  0  0  0  0
  1  2  2  0
  2  3  1  0
  3  4  2  3
  4  5  1  0
  5  6  1  0
  6  7  1  0
  7  8  2  0
  7  9  1  0
  9 10  1  0
 10 11  1  0
  3 12  1  0
 12 13  2  0
 13 14  1  0
 13 15  1  0
 15 16  1  0
 16 17  1  0
 17 18  2  0
 18 19  1  0
 19 20  2  0
 20 21  1  0
 21 22  2  0
 22 23  1  0
 15  2  1  0
 22 17  1  0
 10  5  2  0
  1 24  1  0
  1 25  1  0
  4 26  1  0
 12 27  1  0
 14 28  1  0
 14 29  1  0
 14 30  1  0
 16 31  1  0
 16 32  1  0
 18 33  1  0
 19 34  1  0
 20 35  1  0
 21 36  1  0
 23 37  1  0
M  CHG  3   6  -1   9  -1  11  -1
M  END
>  <UniqueID>  (90) 
81

>  <SMILES>  (90) 
C=c1c(=Cc2[n-]c(=O)[n-]c2[O-])cc(C)n1Cc1ccccc1O

>  <Energy>  (90) 
107.76092620100647

>  <Genealogy>  (90) 
C=c1c(=Cc2[n-]c(=O)[n-]c2[O-])cc(C)n1Cc1ccccc1O (protonated)
C=c1c(=Cc2[n-]c(=O)[n-]c2[O-])cc(C)n1Cc1ccccc1O (3D coordinates assigned)
C=c1c(=Cc2[n-]c(=O)[n-]c2[O-])cc(C)n1Cc1ccccc1O (optimized conformer: 107.76092620100647 kcal/mol)

>  <smiles>  (90) 
C=c1c(=Cc2[nH]c(=O)[nH]c2O)cc(C)n1Cc1ccccc1O

>  <score_type>  (90) 
oracle

>  <origin>  (90) 
adg

>  <m_score__min__energy>  (90) 
-15.18

>  <m_primary>  (90) 
energy

$$$$
91:0
     RDKit          3D

 28 30  0  0  0  0  0  0  0  0999 V2000
   57.9900   32.3490   41.2220 C   0  0  0  0  0  0  0  0  0  0  0  0
   57.6930   31.9800   42.4710 C   0  0  0  0  0  0  0  0  0  0  0  0
   56.9350   30.8470   42.8820 N   0  0  0  0  0  0  0  0  0  0  0  0
   56.8680   30.8420   44.3110 C   0  0  0  0  0  0  0  0  0  0  0  0
   56.2810   29.9900   45.0210 O   0  0  0  0  0  0  0  0  0  0  0  0
   57.5720   31.9570   44.8320 N   0  0  0  0  0  0  0  0  0  0  0  0
   57.7820   32.3710   46.1940 C   0  0  0  0  0  0  0  0  0  0  0  0
   59.2220   32.5180   46.5300 C   0  0  0  0  0  0  0  0  0  0  0  0
   59.8810   31.6330   47.3030 N   0  0  0  0  0  0  0  0  0  0  0  0
   61.1650   32.0230   47.4360 C   0  0  0  0  0  0  0  0  0  0  0  0
   62.2410   31.4810   48.1100 C   0  0  0  0  0  0  0  0  0  0  0  0
   63.4910   32.1050   48.0800 C   0  0  0  0  0  0  0  0  0  0  0  0
   63.6050   33.2840   47.3490 C   0  0  0  0  0  0  0  0  0  0  0  0
   62.5290   33.8320   46.6700 C   0  0  0  0  0  0  0  0  0  0  0  0
   61.3010   33.2030   46.7110 C   0  0  0  0  0  0  0  0  0  0  0  0
   60.0830   33.4840   46.1620 N   0  0  0  0  0  0  0  0  0  0  0  0
   58.0870   32.6680   43.6930 C   0  0  0  0  0  0  0  0  0  0  0  0
   58.7820   33.7380   43.7620 O   0  0  0  0  0  0  0  0  0  0  0  0
   58.5889   33.2543   41.0436 H   0  0  0  0  0  0  0  0  0  0  0  0
   57.6357   31.7476   40.3718 H   0  0  0  0  0  0  0  0  0  0  0  0
   56.5210   30.1670   42.2150 H   0  0  0  0  0  0  0  0  0  0  0  0
   57.2833   33.3391   46.3490 H   0  0  0  0  0  0  0  0  0  0  0  0
   57.3648   31.5910   46.8479 H   0  0  0  0  0  0  0  0  0  0  0  0
   62.1129   30.5472   48.6772 H   0  0  0  0  0  0  0  0  0  0  0  0
   64.3533   31.6800   48.6145 H   0  0  0  0  0  0  0  0  0  0  0  0
   64.5780   33.7956   47.3093 H   0  0  0  0  0  0  0  0  0  0  0  0
   62.6527   34.7648   46.1003 H   0  0  0  0  0  0  0  0  0  0  0  0
   59.8340   34.2840   45.5670 H   0  0  0  0  0  0  0  0  0  0  0  0
  1  2  2  0
  2  3  1  0
  3  4  1  0
  4  5  2  0
  4  6  1  0
  6  7  1  0
  7  8  1  0
  8  9  2  0
  9 10  1  0
 10 11  2  0
 11 12  1  0
 12 13  2  0
 13 14  1  0
 14 15  2  0
 15 16  1  0
  6 17  1  0
 17 18  2  0
 17  2  1  0
 16  8  1  0
 15 10  1  0
  1 19  1  0
  1 20  1  0
  3 21  1  0
  7 22  1  0
  7 23  1  0
 11 24  1  0
 12 25  1  0
 13 26  1  0
 14 27  1  0
 16 28  1  0
M  END
>  <smiles>  (91) 
C=C1NC(=O)N(Cc2nc3ccccc3[nH]2)C1=O

>  <score_type>  (91) 
oracle

>  <origin>  (91) 
adg

>  <m_score__min__energy>  (91) 
-6.46

>  <m_primary>  (91) 
energy

$$$$
