0:0
     RDKit          3D

 27 28  0  0  0  0  0  0  0  0999 V2000
   55.1330   29.3430   44.8760 N   0  0  0  0  0  0  0  0  0  0  0  0
   56.7230   29.4330   44.2060 S   0  0  0  0  0  0  0  0  0  0  0  0
   57.4660   28.1600   44.5000 O   0  0  0  0  0  0  0  0  0  0  0  0
   56.6270   29.6030   42.7160 O   0  0  0  0  0  0  0  0  0  0  0  0
   57.5800   30.8010   44.9090 C   0  0  0  0  0  0  0  0  0  0  0  0
   58.5150   30.5940   45.9320 C   0  0  0  0  0  0  0  0  0  0  0  0
   59.1870   31.6800   46.5010 C   0  0  0  0  0  0  0  0  0  0  0  0
   58.9290   32.9870   46.0550 C   0  0  0  0  0  0  0  0  0  0  0  0
   59.6300   34.1610   46.6860 C   0  0  0  0  0  0  0  0  0  0  0  0
   60.7410   33.7020   47.5270 N   0  0  0  0  0  0  0  0  0  0  0  0
   62.0430   33.5900   47.1970 C   0  0  0  0  0  0  0  0  0  0  0  0
   62.5920   33.8390   45.9410 O   0  0  0  0  0  0  0  0  0  0  0  0
   62.7580   33.1860   48.2990 C   0  0  0  0  0  0  0  0  0  0  0  0
   61.9160   33.0440   49.3420 N   0  0  0  0  0  0  0  0  0  0  0  0
   60.7050   33.3680   48.8400 C   0  0  0  0  0  0  0  0  0  0  0  0
   59.3450   33.3480   49.7530 S   0  0  0  0  0  0  0  0  0  0  0  0
   57.9830   33.1910   45.0380 C   0  0  0  0  0  0  0  0  0  0  0  0
   57.3120   32.1040   44.4690 C   0  0  0  0  0  0  0  0  0  0  0  0
   55.1540   28.6000   45.6110 H   0  0  0  0  0  0  0  0  0  0  0  0
   58.7209   29.5739   46.2885 H   0  0  0  0  0  0  0  0  0  0  0  0
   59.9215   31.5102   47.3020 H   0  0  0  0  0  0  0  0  0  0  0  0
   60.0215   34.8173   45.8948 H   0  0  0  0  0  0  0  0  0  0  0  0
   58.9120   34.7106   47.3123 H   0  0  0  0  0  0  0  0  0  0  0  0
   63.5600   33.6460   45.7240 H   0  0  0  0  0  0  0  0  0  0  0  0
   63.8431   33.0072   48.3256 H   0  0  0  0  0  0  0  0  0  0  0  0
   57.7685   34.2111   44.6869 H   0  0  0  0  0  0  0  0  0  0  0  0
   56.5713   32.2725   43.6734 H   0  0  0  0  0  0  0  0  0  0  0  0
  1  2  1  0
  2  3  2  0
  2  4  2  0
  2  5  1  0
  5  6  2  0
  6  7  1  0
  7  8  2  0
  8  9  1  0
  9 10  1  0
 10 11  1  0
 11 12  1  0
 11 13  2  0
 13 14  1  0
 14 15  1  0
 15 16  2  0
  8 17  1  0
 17 18  2  0
 18  5  1  0
 15 10  1  0
  1 19  1  0
  6 20  1  0
  7 21  1  0
  9 22  1  0
  9 23  1  0
 12 24  1  0
 13 25  1  0
 17 26  1  0
 18 27  1  0
M  CHG  2   1  -1  14  -1
M  END
>  <UniqueID>  (1) 
1

>  <SMILES>  (1) 
[NH-]S(=O)(=O)c1ccc(Cn2c(O)c[n-]c2=S)cc1

>  <Energy>  (1) 
57.8104820042986

>  <Genealogy>  (1) 
[NH-]S(=O)(=O)c1ccc(Cn2c(O)c[n-]c2=S)cc1 (protonated)
[NH-]S(=O)(=O)c1ccc(Cn2c(O)c[n-]c2=S)cc1 (3D coordinates assigned)
[NH-]S(=O)(=O)c1ccc(Cn2c(O)c[n-]c2=S)cc1 (optimized conformer: 57.8104820042986 kcal/mol)

>  <smiles>  (1) 
NS(=O)(=O)c1ccc(Cn2c(O)c[nH]c2=S)cc1

>  <score_type>  (1) 
oracle

>  <origin>  (1) 
adg

>  <m_score__min__energy>  (1) 
-10.23

>  <m_primary>  (1) 
energy

$$$$
1:0
     RDKit          3D

 72 74  0  0  0  0  0  0  0  0999 V2000
   58.6570   34.5240   53.0050 C   0  0  0  0  0  0  0  0  0  0  0  0
   58.8500   33.1450   53.6390 C   0  0  0  0  0  0  0  0  0  0  0  0
   58.3950   32.0710   52.7260 N   0  0  0  0  0  0  0  0  0  0  0  0
   57.0080   32.3090   52.2440 C   0  0  0  0  0  0  0  0  0  0  0  0
   56.3070   30.9730   52.0290 C   0  0  0  0  0  0  0  0  0  0  0  0
   58.5340   30.7470   53.3710 C   0  0  0  0  0  0  0  0  0  0  0  0
   59.8900   30.1130   53.0370 C   0  0  0  0  0  0  0  0  0  0  0  0
   60.7100   31.0580   52.2730 N   0  0  0  0  0  0  0  0  0  0  0  0
   61.5360   30.2290   50.9860 S   0  0  0  0  0  0  0  0  0  0  0  0
   61.8250   28.8230   51.4360 O   0  0  0  0  0  0  0  0  0  0  0  0
   62.8380   30.9270   50.7120 O   0  0  0  0  0  0  0  0  0  0  0  0
   60.5760   30.2190   49.4960 C   0  0  0  0  0  0  0  0  0  0  0  0
   60.7560   29.1940   48.5600 C   0  0  0  0  0  0  0  0  0  0  0  0
   59.9920   29.1610   47.3940 C   0  0  0  0  0  0  0  0  0  0  0  0
   59.0310   30.1570   47.1690 C   0  0  0  0  0  0  0  0  0  0  0  0
   58.1990   30.1410   45.9950 N   0  0  0  0  0  0  0  0  0  0  0  0
   57.8200   28.8680   45.3640 C   0  0  0  0  0  0  0  0  0  0  0  0
   56.4880   28.9880   44.5830 C   0  0  0  0  0  0  0  0  0  0  0  0
   55.9840   30.3100   44.5080 O   0  0  0  0  0  0  0  0  0  0  0  0
   57.0070   31.1960   44.1120 C   0  0  0  0  0  0  0  0  0  0  0  0
   57.9740   31.4020   45.2760 C   0  0  0  0  0  0  0  0  0  0  0  0
   58.8490   31.1250   48.1090 N   0  0  0  0  0  0  0  0  0  0  0  0
   59.5850   31.1850   49.2540 C   0  0  0  0  0  0  0  0  0  0  0  0
   59.3400   32.1940   50.1890 O   0  0  0  0  0  0  0  0  0  0  0  0
   59.7130   33.5520   49.9820 C   0  0  0  0  0  0  0  0  0  0  0  0
   59.8000   33.8260   48.5080 C   0  0  0  0  0  0  0  0  0  0  0  0
   58.6480   33.9510   47.7930 N   0  0  0  0  0  0  0  0  0  0  0  0
   58.6510   34.2050   46.4570 C   0  0  0  0  0  0  0  0  0  0  0  0
   59.8600   34.3440   45.7750 C   0  0  0  0  0  0  0  0  0  0  0  0
   61.0590   34.2150   46.4760 C   0  0  0  0  0  0  0  0  0  0  0  0
   61.0440   33.9510   47.8510 C   0  0  0  0  0  0  0  0  0  0  0  0
   62.3200   33.8060   48.5760 C   0  0  0  0  0  0  0  0  0  0  0  0
   62.6250   34.6720   49.4410 O   0  0  0  0  0  0  0  0  0  0  0  0
   63.2220   32.7150   48.2980 N   0  0  0  0  0  0  0  0  0  0  0  0
   62.8650   31.6880   47.3150 C   0  0  0  0  0  0  0  0  0  0  0  0
   64.5180   32.6680   48.9780 C   0  0  0  0  0  0  0  0  0  0  0  0
   58.5512   35.2801   53.7969 H   0  0  0  0  0  0  0  0  0  0  0  0
   59.5300   34.7662   52.3811 H   0  0  0  0  0  0  0  0  0  0  0  0
   57.7511   34.5172   52.3811 H   0  0  0  0  0  0  0  0  0  0  0  0
   59.9170   32.9984   53.8628 H   0  0  0  0  0  0  0  0  0  0  0  0
   58.2519   33.0971   54.5610 H   0  0  0  0  0  0  0  0  0  0  0  0
   56.4557   32.8963   52.9924 H   0  0  0  0  0  0  0  0  0  0  0  0
   57.0406   32.8623   51.2939 H   0  0  0  0  0  0  0  0  0  0  0  0
   56.0704   30.5220   53.0040 H   0  0  0  0  0  0  0  0  0  0  0  0
   55.3770   31.1336   51.4639 H   0  0  0  0  0  0  0  0  0  0  0  0
   56.9676   30.2990   51.4639 H   0  0  0  0  0  0  0  0  0  0  0  0
   58.4520   30.8675   54.4613 H   0  0  0  0  0  0  0  0  0  0  0  0
   57.7370   30.0885   52.9952 H   0  0  0  0  0  0  0  0  0  0  0  0
   60.4098   29.8514   53.9705 H   0  0  0  0  0  0  0  0  0  0  0  0
   59.7268   29.2071   52.4347 H   0  0  0  0  0  0  0  0  0  0  0  0
   60.0810   31.7730   51.8390 H   0  0  0  0  0  0  0  0  0  0  0  0
   61.5047   28.4097   48.7454 H   0  0  0  0  0  0  0  0  0  0  0  0
   60.1421   28.3593   46.6559 H   0  0  0  0  0  0  0  0  0  0  0  0
   58.6154   28.5652   44.6671 H   0  0  0  0  0  0  0  0  0  0  0  0
   57.6846   28.1193   46.1584 H   0  0  0  0  0  0  0  0  0  0  0  0
   56.6526   28.6214   43.5590 H   0  0  0  0  0  0  0  0  0  0  0  0
   55.7423   28.3923   45.1299 H   0  0  0  0  0  0  0  0  0  0  0  0
   57.5493   30.7714   43.2543 H   0  0  0  0  0  0  0  0  0  0  0  0
   56.5669   32.1618   43.8228 H   0  0  0  0  0  0  0  0  0  0  0  0
   58.9340   31.7716   44.8865 H   0  0  0  0  0  0  0  0  0  0  0  0
   57.5374   32.1327   45.9727 H   0  0  0  0  0  0  0  0  0  0  0  0
   58.9588   34.2128   50.4343 H   0  0  0  0  0  0  0  0  0  0  0  0
   60.6910   33.7398   50.4491 H   0  0  0  0  0  0  0  0  0  0  0  0
   57.6994   34.3009   45.9137 H   0  0  0  0  0  0  0  0  0  0  0  0
   59.8677   34.5533   44.6951 H   0  0  0  0  0  0  0  0  0  0  0  0
   62.0180   34.3209   45.9477 H   0  0  0  0  0  0  0  0  0  0  0  0
   62.5473   30.7741   47.8384 H   0  0  0  0  0  0  0  0  0  0  0  0
   62.0415   32.0545   46.6844 H   0  0  0  0  0  0  0  0  0  0  0  0
   63.7382   31.4647   46.6844 H   0  0  0  0  0  0  0  0  0  0  0  0
   64.3612   32.6737   50.0668 H   0  0  0  0  0  0  0  0  0  0  0  0
   65.0506   31.7499   48.6890 H   0  0  0  0  0  0  0  0  0  0  0  0
   65.1157   33.5451   48.6890 H   0  0  0  0  0  0  0  0  0  0  0  0
  1  2  1  0
  2  3  1  0
  3  4  1  0
  4  5  1  0
  3  6  1  0
  6  7  1  0
  7  8  1  0
  8  9  1  0
  9 10  2  0
  9 11  2  0
  9 12  1  0
 12 13  2  0
 13 14  1  0
 14 15  2  0
 15 16  1  0
 16 17  1  0
 17 18  1  0
 18 19  1  0
 19 20  1  0
 20 21  1  0
 15 22  1  0
 22 23  2  0
 23 24  1  0
 24 25  1  0
 25 26  1  0
 26 27  2  0
 27 28  1  0
 28 29  2  0
 29 30  1  0
 30 31  2  0
 31 32  1  0
 32 33  2  0
 32 34  1  0
 34 35  1  0
 34 36  1  0
 23 12  1  0
 31 26  1  0
 21 16  1  0
  1 37  1  0
  1 38  1  0
  1 39  1  0
  2 40  1  0
  2 41  1  0
  4 42  1  0
  4 43  1  0
  5 44  1  0
  5 45  1  0
  5 46  1  0
  6 47  1  0
  6 48  1  0
  7 49  1  0
  7 50  1  0
  8 51  1  0
 13 52  1  0
 14 53  1  0
 17 54  1  0
 17 55  1  0
 18 56  1  0
 18 57  1  0
 20 58  1  0
 20 59  1  0
 21 60  1  0
 21 61  1  0
 25 62  1  0
 25 63  1  0
 28 64  1  0
 29 65  1  0
 30 66  1  0
 35 67  1  0
 35 68  1  0
 35 69  1  0
 36 70  1  0
 36 71  1  0
 36 72  1  0
M  END
>  <UniqueID>  (2) 
2

>  <SMILES>  (2) 
CCN(CC)CCNS(=O)(=O)c1ccc(N2CCOCC2)nc1OCc1ncccc1C(=O)N(C)C

>  <Energy>  (2) 
81.03407667444915

>  <Genealogy>  (2) 
CCN(CC)CCNS(=O)(=O)c1ccc(N2CCOCC2)nc1OCc1ncccc1C(=O)N(C)C (3D coordinates assigned)
CCN(CC)CCNS(=O)(=O)c1ccc(N2CCOCC2)nc1OCc1ncccc1C(=O)N(C)C (nonaromatic ring conformer: 81.03407667444915 kcal/mol)

>  <smiles>  (2) 
CCN(CC)CCNS(=O)(=O)c1ccc(N2CCOCC2)nc1OCc1ncccc1C(=O)N(C)C

>  <score_type>  (2) 
oracle

>  <origin>  (2) 
adg

>  <m_score__min__energy>  (2) 
-7.7599999999999998

>  <m_primary>  (2) 
energy

$$$$
2:0
     RDKit          3D

 50 53  0  0  0  0  0  0  0  0999 V2000
   57.0210   28.2250   42.4720 O   0  0  0  0  0  0  0  0  0  0  0  0
   57.7850   28.3050   43.4730 C   0  0  0  0  0  0  0  0  0  0  0  0
   58.4750   27.0600   43.9720 C   0  0  0  0  0  0  0  0  0  0  0  0
   57.5160   25.9690   44.1670 N   0  0  0  0  0  0  0  0  0  0  0  0
   57.0560   25.8840   45.8410 S   0  0  0  0  0  0  0  0  0  0  0  0
   57.0950   24.4540   46.2980 O   0  0  0  0  0  0  0  0  0  0  0  0
   55.6570   26.4100   46.0090 O   0  0  0  0  0  0  0  0  0  0  0  0
   58.1620   26.8290   46.8260 C   0  0  0  0  0  0  0  0  0  0  0  0
   59.4440   26.3440   47.1090 C   0  0  0  0  0  0  0  0  0  0  0  0
   60.3110   27.1200   47.8830 C   0  0  0  0  0  0  0  0  0  0  0  0
   59.8900   28.3610   48.3650 C   0  0  0  0  0  0  0  0  0  0  0  0
   58.6030   28.8110   48.0630 C   0  0  0  0  0  0  0  0  0  0  0  0
   57.7730   28.0420   47.3070 N   0  0  0  0  0  0  0  0  0  0  0  0
   58.0110   29.6270   44.1170 C   0  0  0  0  0  0  0  0  0  0  0  0
   59.0590   29.8270   45.0370 C   0  0  0  0  0  0  0  0  0  0  0  0
   59.2590   31.0790   45.6250 C   0  0  0  0  0  0  0  0  0  0  0  0
   58.4170   32.1500   45.3130 C   0  0  0  0  0  0  0  0  0  0  0  0
   58.7050   33.7230   46.0450 S   0  0  0  0  0  0  0  0  0  0  0  0
   59.3800   34.6520   45.0760 O   0  0  0  0  0  0  0  0  0  0  0  0
   57.3890   34.3250   46.4500 O   0  0  0  0  0  0  0  0  0  0  0  0
   59.7110   33.5230   47.4410 N   0  0  0  0  0  0  0  0  0  0  0  0
   59.2240   33.1750   48.7720 C   0  0  0  0  0  0  0  0  0  0  0  0
   60.4890   32.9870   49.6470 C   0  0  0  0  0  0  0  0  0  0  0  0
   61.6100   33.2360   48.6970 C   0  0  0  0  0  0  0  0  0  0  0  0
   62.9830   33.2040   48.9510 C   0  0  0  0  0  0  0  0  0  0  0  0
   63.8670   33.4790   47.8960 C   0  0  0  0  0  0  0  0  0  0  0  0
   63.3680   33.7790   46.6120 C   0  0  0  0  0  0  0  0  0  0  0  0
   61.9830   33.8070   46.3810 C   0  0  0  0  0  0  0  0  0  0  0  0
   61.1260   33.5330   47.4520 C   0  0  0  0  0  0  0  0  0  0  0  0
   57.3710   31.9630   44.4000 C   0  0  0  0  0  0  0  0  0  0  0  0
   57.1710   30.7140   43.8040 C   0  0  0  0  0  0  0  0  0  0  0  0
   59.2300   26.7477   43.2355 H   0  0  0  0  0  0  0  0  0  0  0  0
   58.9491   27.2861   44.9385 H   0  0  0  0  0  0  0  0  0  0  0  0
   56.6480   26.2000   43.6310 H   0  0  0  0  0  0  0  0  0  0  0  0
   59.7653   25.3638   46.7268 H   0  0  0  0  0  0  0  0  0  0  0  0
   61.3227   26.7540   48.1120 H   0  0  0  0  0  0  0  0  0  0  0  0
   60.5652   28.9778   48.9763 H   0  0  0  0  0  0  0  0  0  0  0  0
   58.2601   29.7873   48.4363 H   0  0  0  0  0  0  0  0  0  0  0  0
   59.7255   28.9907   45.2947 H   0  0  0  0  0  0  0  0  0  0  0  0
   60.0844   31.2224   46.3379 H   0  0  0  0  0  0  0  0  0  0  0  0
   58.5965   33.9840   49.1742 H   0  0  0  0  0  0  0  0  0  0  0  0
   58.6057   32.2654   48.7525 H   0  0  0  0  0  0  0  0  0  0  0  0
   60.5062   33.7121   50.4740 H   0  0  0  0  0  0  0  0  0  0  0  0
   60.5398   31.9945   50.1186 H   0  0  0  0  0  0  0  0  0  0  0  0
   63.3633   32.9684   49.9559 H   0  0  0  0  0  0  0  0  0  0  0  0
   64.9527   33.4604   48.0716 H   0  0  0  0  0  0  0  0  0  0  0  0
   64.0656   33.9918   45.7886 H   0  0  0  0  0  0  0  0  0  0  0  0
   61.5823   34.0385   45.3831 H   0  0  0  0  0  0  0  0  0  0  0  0
   56.7045   32.8019   44.1510 H   0  0  0  0  0  0  0  0  0  0  0  0
   56.3503   30.5788   43.0841 H   0  0  0  0  0  0  0  0  0  0  0  0
  1  2  2  0
  2  3  1  0
  3  4  1  0
  4  5  1  0
  5  6  2  0
  5  7  2  0
  5  8  1  0
  8  9  2  0
  9 10  1  0
 10 11  2  0
 11 12  1  0
 12 13  2  0
  2 14  1  0
 14 15  2  0
 15 16  1  0
 16 17  2  0
 17 18  1  0
 18 19  2  0
 18 20  2  0
 18 21  1  0
 21 22  1  0
 22 23  1  0
 23 24  1  0
 24 25  2  0
 25 26  1  0
 26 27  2  0
 27 28  1  0
 28 29  2  0
 17 30  1  0
 30 31  2  0
 13  8  1  0
 31 14  1  0
 29 21  1  0
 29 24  1  0
  3 32  1  0
  3 33  1  0
  4 34  1  0
  9 35  1  0
 10 36  1  0
 11 37  1  0
 12 38  1  0
 15 39  1  0
 16 40  1  0
 22 41  1  0
 22 42  1  0
 23 43  1  0
 23 44  1  0
 25 45  1  0
 26 46  1  0
 27 47  1  0
 28 48  1  0
 30 49  1  0
 31 50  1  0
M  END
>  <UniqueID>  (3) 
3

>  <SMILES>  (3) 
O=C(CNS(=O)(=O)c1ccccn1)c1ccc(S(=O)(=O)N2CCc3ccccc32)cc1

>  <Energy>  (3) 
69.40680259621799

>  <Genealogy>  (3) 
O=C(CNS(=O)(=O)c1ccccn1)c1ccc(S(=O)(=O)N2CCc3ccccc32)cc1 (3D coordinates assigned)
O=C(CNS(=O)(=O)c1ccccn1)c1ccc(S(=O)(=O)N2CCc3ccccc32)cc1 (nonaromatic ring conformer: 69.40680259621799 kcal/mol)

>  <smiles>  (3) 
O=C(CNS(=O)(=O)c1ccccn1)c1ccc(S(=O)(=O)N2CCc3ccccc32)cc1

>  <score_type>  (3) 
oracle

>  <origin>  (3) 
adg

>  <m_score__min__energy>  (3) 
-10.65

>  <m_primary>  (3) 
energy

$$$$
3:0
     RDKit          3D

 49 52  0  0  0  0  0  0  0  0999 V2000
   52.7230   30.9090   54.8450 C   0  0  0  0  0  0  0  0  0  0  0  0
   52.2590   29.7740   54.3020 C   0  0  0  0  0  0  0  0  0  0  0  0
   51.0550   29.5900   53.5990 C   0  0  0  0  0  0  0  0  0  0  0  0
   50.0150   30.4210   53.3890 C   0  0  0  0  0  0  0  0  0  0  0  0
   50.0670   31.8890   53.4170 C   0  0  0  0  0  0  0  0  0  0  0  0
   49.9660   32.6150   54.5430 N   0  0  0  0  0  0  0  0  0  0  0  0
   50.1930   33.8790   54.1190 C   0  0  0  0  0  0  0  0  0  0  0  0
   50.1670   34.8690   54.8960 O   0  0  0  0  0  0  0  0  0  0  0  0
   50.4620   33.9960   52.8010 N   0  0  0  0  0  0  0  0  0  0  0  0
   50.3940   32.7250   52.3740 C   0  0  0  0  0  0  0  0  0  0  0  0
   50.6470   32.3350   51.0640 O   0  0  0  0  0  0  0  0  0  0  0  0
   51.0840   28.2940   53.1120 C   0  0  0  0  0  0  0  0  0  0  0  0
   52.2550   27.7210   53.5640 C   0  0  0  0  0  0  0  0  0  0  0  0
   52.6950   26.3200   53.2660 C   0  0  0  0  0  0  0  0  0  0  0  0
   52.9680   28.6140   54.2800 N   0  0  0  0  0  0  0  0  0  0  0  0
   54.2780   28.3820   54.8260 C   0  0  0  0  0  0  0  0  0  0  0  0
   54.3950   27.6700   55.8580 O   0  0  0  0  0  0  0  0  0  0  0  0
   55.4510   28.9320   54.1960 N   0  0  0  0  0  0  0  0  0  0  0  0
   55.4800   29.1850   52.7460 C   0  0  0  0  0  0  0  0  0  0  0  0
   56.1300   30.5450   52.4570 C   0  0  0  0  0  0  0  0  0  0  0  0
   57.2970   30.7840   53.3200 N   0  0  0  0  0  0  0  0  0  0  0  0
   57.8590   32.1090   53.4020 C   0  0  0  0  0  0  0  0  0  0  0  0
   57.8340   32.9620   52.2860 C   0  0  0  0  0  0  0  0  0  0  0  0
   58.4000   34.2340   52.3770 C   0  0  0  0  0  0  0  0  0  0  0  0
   58.9930   34.6440   53.5690 C   0  0  0  0  0  0  0  0  0  0  0  0
   59.0170   33.7710   54.6560 C   0  0  0  0  0  0  0  0  0  0  0  0
   58.4590   32.5330   54.5540 N   0  0  0  0  0  0  0  0  0  0  0  0
   57.8140   29.6870   54.1500 C   0  0  0  0  0  0  0  0  0  0  0  0
   56.6770   29.1050   54.9930 C   0  0  0  0  0  0  0  0  0  0  0  0
   53.6886   30.9120   55.3719 H   0  0  0  0  0  0  0  0  0  0  0  0
   52.1380   31.8370   54.7636 H   0  0  0  0  0  0  0  0  0  0  0  0
   49.0395   29.9586   53.1776 H   0  0  0  0  0  0  0  0  0  0  0  0
   50.3193   27.8130   52.4844 H   0  0  0  0  0  0  0  0  0  0  0  0
   52.8645   25.7804   54.2095 H   0  0  0  0  0  0  0  0  0  0  0  0
   51.9149   25.8064   52.6849 H   0  0  0  0  0  0  0  0  0  0  0  0
   53.6286   26.3447   52.6849 H   0  0  0  0  0  0  0  0  0  0  0  0
   56.0603   28.3926   52.2506 H   0  0  0  0  0  0  0  0  0  0  0  0
   54.4490   29.1918   52.3626 H   0  0  0  0  0  0  0  0  0  0  0  0
   56.4529   30.5697   51.4057 H   0  0  0  0  0  0  0  0  0  0  0  0
   55.3869   31.3304   52.6594 H   0  0  0  0  0  0  0  0  0  0  0  0
   57.3707   32.6289   51.3456 H   0  0  0  0  0  0  0  0  0  0  0  0
   58.3781   34.9110   51.5103 H   0  0  0  0  0  0  0  0  0  0  0  0
   59.4379   35.6466   53.6519 H   0  0  0  0  0  0  0  0  0  0  0  0
   59.4884   34.0835   55.5994 H   0  0  0  0  0  0  0  0  0  0  0  0
   58.4850   31.9110   55.3920 H   0  0  0  0  0  0  0  0  0  0  0  0
   58.2291   28.9012   53.5018 H   0  0  0  0  0  0  0  0  0  0  0  0
   58.6032   30.0701   54.8136 H   0  0  0  0  0  0  0  0  0  0  0  0
   56.9885   28.1265   55.3872 H   0  0  0  0  0  0  0  0  0  0  0  0
   56.4607   29.8055   55.8130 H   0  0  0  0  0  0  0  0  0  0  0  0
  1  2  2  0
  2  3  1  0
  3  4  2  3
  4  5  1  0
  5  6  1  0
  6  7  1  0
  7  8  2  0
  7  9  1  0
  9 10  1  0
 10 11  1  0
  3 12  1  0
 12 13  2  0
 13 14  1  0
 13 15  1  0
 15 16  1  0
 16 17  2  0
 16 18  1  0
 18 19  1  0
 19 20  1  0
 20 21  1  0
 21 22  1  0
 22 23  2  0
 23 24  1  0
 24 25  2  0
 25 26  1  0
 26 27  2  0
 21 28  1  0
 28 29  1  0
 15  2  1  0
 29 18  1  0
 10  5  2  0
 27 22  1  0
  1 30  1  0
  1 31  1  0
  4 32  1  0
 12 33  1  0
 14 34  1  0
 14 35  1  0
 14 36  1  0
 19 37  1  0
 19 38  1  0
 20 39  1  0
 20 40  1  0
 23 41  1  0
 24 42  1  0
 25 43  1  0
 26 44  1  0
 27 45  1  0
 28 46  1  0
 28 47  1  0
 29 48  1  0
 29 49  1  0
M  CHG  4   6  -1   9  -1  11  -1  27   1
M  END
>  <UniqueID>  (4) 
4

>  <SMILES>  (4) 
C=c1c(=Cc2[n-]c(=O)[n-]c2[O-])cc(C)n1C(=O)N1CCN(c2cccc[nH+]2)CC1

>  <Energy>  (4) 
131.66606213495695

>  <Genealogy>  (4) 
C=c1c(=Cc2[n-]c(=O)[n-]c2[O-])cc(C)n1C(=O)N1CCN(c2cccc[nH+]2)CC1 (protonated)
C=c1c(=Cc2[n-]c(=O)[n-]c2[O-])cc(C)n1C(=O)N1CCN(c2cccc[nH+]2)CC1 (3D coordinates assigned)
C=c1c(=Cc2[n-]c(=O)[n-]c2[O-])cc(C)n1C(=O)N1CCN(c2cccc[nH+]2)CC1 (nonaromatic ring conformer: 131.66606213495695 kcal/mol)

>  <smiles>  (4) 
C=c1c(=Cc2[nH]c(=O)[nH]c2O)cc(C)n1C(=O)N1CCN(c2ccccn2)CC1

>  <score_type>  (4) 
oracle

>  <origin>  (4) 
adg

>  <m_score__min__energy>  (4) 
-14.859999999999999

>  <m_primary>  (4) 
energy

$$$$
4:0
     RDKit          3D

 54 56  0  0  0  0  0  0  0  0999 V2000
   58.1490   30.0010   43.0100 H   0  0  0  0  0  0  0  0  0  0  0  0
   57.8930   30.1320   43.9790 O   0  0  0  0  0  0  0  0  0  0  0  0
   57.7790   29.0760   44.8860 C   0  0  0  0  0  0  0  0  0  0  0  0
   56.5510   28.4140   44.9750 C   0  0  0  0  0  0  0  0  0  0  0  0
   55.7164   28.7230   44.3285 H   0  0  0  0  0  0  0  0  0  0  0  0
   56.3760   27.3660   45.8760 C   0  0  0  0  0  0  0  0  0  0  0  0
   55.1480   26.7200   45.9580 O   0  0  0  0  0  0  0  0  0  0  0  0
   57.4310   26.9620   46.6950 C   0  0  0  0  0  0  0  0  0  0  0  0
   57.2848   26.1364   47.4070 H   0  0  0  0  0  0  0  0  0  0  0  0
   58.6810   27.6040   46.6160 C   0  0  0  0  0  0  0  0  0  0  0  0
   59.7720   27.2040   47.4090 O   0  0  0  0  0  0  0  0  0  0  0  0
   60.0820   27.7040   48.7090 C   0  0  0  0  0  0  0  0  0  0  0  0
   61.1383   28.0097   48.7361 H   0  0  0  0  0  0  0  0  0  0  0  0
   59.8961   26.9102   49.4475 H   0  0  0  0  0  0  0  0  0  0  0  0
   59.2140   28.8910   49.0430 C   0  0  0  0  0  0  0  0  0  0  0  0
   58.3858   29.1414   48.3637 H   0  0  0  0  0  0  0  0  0  0  0  0
   59.4040   29.6610   50.1350 C   0  0  0  0  0  0  0  0  0  0  0  0
   58.1980   30.2160   50.8470 C   0  0  0  0  0  0  0  0  0  0  0  0
   58.3497   30.1462   51.9342 H   0  0  0  0  0  0  0  0  0  0  0  0
   58.0573   31.2694   50.5633 H   0  0  0  0  0  0  0  0  0  0  0  0
   57.3064   29.6376   50.5633 H   0  0  0  0  0  0  0  0  0  0  0  0
   60.7890   29.9740   50.6490 C   0  0  0  0  0  0  0  0  0  0  0  0
   60.7810   29.9722   51.7490 H   0  0  0  0  0  0  0  0  0  0  0  0
   61.4954   29.2129   50.2862 H   0  0  0  0  0  0  0  0  0  0  0  0
   61.0995   30.9650   50.2862 H   0  0  0  0  0  0  0  0  0  0  0  0
   58.8550   28.6770   45.7140 C   0  0  0  0  0  0  0  0  0  0  0  0
   60.1710   29.3500   45.6240 C   0  0  0  0  0  0  0  0  0  0  0  0
   61.0780   28.8240   44.9270 O   0  0  0  0  0  0  0  0  0  0  0  0
   60.4740   30.6070   46.3420 C   0  0  0  0  0  0  0  0  0  0  0  0
   59.9889   31.5343   46.0032 H   0  0  0  0  0  0  0  0  0  0  0  0
   61.3110   30.6690   47.3850 C   0  0  0  0  0  0  0  0  0  0  0  0
   61.4089   29.7910   48.0404 H   0  0  0  0  0  0  0  0  0  0  0  0
   62.1050   31.8720   47.6850 C   0  0  0  0  0  0  0  0  0  0  0  0
   63.4860   31.8850   47.7070 C   0  0  0  0  0  0  0  0  0  0  0  0
   64.1559   31.0424   47.4805 H   0  0  0  0  0  0  0  0  0  0  0  0
   63.8600   33.1630   48.0690 C   0  0  0  0  0  0  0  0  0  0  0  0
   64.8876   33.5414   48.1731 H   0  0  0  0  0  0  0  0  0  0  0  0
   62.6970   33.8740   48.2750 C   0  0  0  0  0  0  0  0  0  0  0  0
   62.6489   34.9292   48.5821 H   0  0  0  0  0  0  0  0  0  0  0  0
   61.6280   33.0870   48.0450 N   0  0  0  0  0  0  0  0  0  0  0  0
   59.9840   33.5570   48.3620 S   0  0  0  0  0  0  0  0  0  0  0  0
   59.3440   32.5590   49.2860 O   0  0  0  0  0  0  0  0  0  0  0  0
   59.9760   34.9060   49.0240 O   0  0  0  0  0  0  0  0  0  0  0  0
   59.0520   33.5910   46.8670 C   0  0  0  0  0  0  0  0  0  0  0  0
   59.6050   34.1640   45.7130 C   0  0  0  0  0  0  0  0  0  0  0  0
   60.6229   34.5800   45.7408 H   0  0  0  0  0  0  0  0  0  0  0  0
   58.8660   34.2080   44.5270 C   0  0  0  0  0  0  0  0  0  0  0  0
   59.2992   34.6666   43.6259 H   0  0  0  0  0  0  0  0  0  0  0  0
   57.5760   33.6690   44.4860 C   0  0  0  0  0  0  0  0  0  0  0  0
   56.9939   33.7059   43.5534 H   0  0  0  0  0  0  0  0  0  0  0  0
   57.0270   33.0840   45.6290 C   0  0  0  0  0  0  0  0  0  0  0  0
   56.0160   32.6521   45.5928 H   0  0  0  0  0  0  0  0  0  0  0  0
   57.7600   33.0460   46.8200 C   0  0  0  0  0  0  0  0  0  0  0  0
   57.3232   32.5886   47.7200 H   0  0  0  0  0  0  0  0  0  0  0  0
  1  2  1  0
  2  3  1  0
  3  4  2  0
  4  5  1  0
  4  6  1  0
  6  7  1  0
  6  8  2  0
  8  9  1  0
  8 10  1  0
 10 11  1  0
 11 12  1  0
 12 13  1  0
 12 14  1  0
 12 15  1  0
 15 16  1  0
 15 17  2  3
 17 18  1  0
 18 19  1  0
 18 20  1  0
 18 21  1  0
 17 22  1  0
 22 23  1  0
 22 24  1  0
 22 25  1  0
 10 26  2  0
 26 27  1  0
 27 28  2  0
 27 29  1  0
 29 30  1  0
 29 31  2  0
 31 32  1  0
 31 33  1  0
 33 34  2  0
 34 35  1  0
 34 36  1  0
 36 37  1  0
 36 38  2  0
 38 39  1  0
 38 40  1  0
 40 41  1  0
 41 42  2  0
 41 43  2  0
 41 44  1  0
 44 45  2  0
 45 46  1  0
 45 47  1  0
 47 48  1  0
 47 49  2  0
 49 50  1  0
 49 51  1  0
 51 52  1  0
 51 53  2  0
 53 54  1  0
 26  3  1  0
 40 33  1  0
 53 44  1  0
M  CHG  1   7  -1
M  END
>  <UniqueID>  (5) 
5

>  <SMILES>  (5) 
CC(C)=CCOc1cc([O-])cc(O)c1C(=O)/C=C/c1cccn1S(=O)(=O)c1ccccc1

>  <Energy>  (5) 
87.94644723434601

>  <Genealogy>  (5) 
CC(C)=CCOc1cc([O-])cc(O)c1C(=O)C=Cc1cccn1S(=O)(=O)c1ccccc1 (protonated)
CC(C)=CCOc1cc([O-])cc(O)c1C(=O)/C=C/c1cccn1S(=O)(=O)c1ccccc1 (cis-trans isomerization)
CC(C)=CCOc1cc([O-])cc(O)c1C(=O)/C=C/c1cccn1S(=O)(=O)c1ccccc1 (3D coordinates assigned)
CC(C)=CCOc1cc([O-])cc(O)c1C(=O)/C=C/c1cccn1S(=O)(=O)c1ccccc1 (optimized conformer: 87.94644723434601 kcal/mol)

>  <smiles>  (5) 
CC(C)=CCOc1cc(O)cc(O)c1C(=O)C=Cc1cccn1S(=O)(=O)c1ccccc1

>  <score_type>  (5) 
oracle

>  <origin>  (5) 
adg

>  <m_score__min__energy>  (5) 
-11.73

>  <m_primary>  (5) 
energy

$$$$
5:0
     RDKit          3D

 51 53  0  0  0  0  0  0  0  0999 V2000
   59.3190   35.0670   47.4930 C   0  0  0  0  0  0  0  0  0  0  0  0
   58.8420   33.8260   46.8620 N   0  0  0  0  0  0  0  0  0  0  0  0
   57.4090   33.9420   46.5100 C   0  0  0  0  0  0  0  0  0  0  0  0
   57.0310   32.9610   45.3950 C   0  0  0  0  0  0  0  0  0  0  0  0
   57.7520   33.2740   44.1410 N   0  0  0  0  0  0  0  0  0  0  0  0
   57.7810   32.0960   43.2490 C   0  0  0  0  0  0  0  0  0  0  0  0
   57.5960   30.8310   44.0440 C   0  0  0  0  0  0  0  0  0  0  0  0
   56.3380   30.2130   44.1270 C   0  0  0  0  0  0  0  0  0  0  0  0
   56.1710   29.0460   44.8780 C   0  0  0  0  0  0  0  0  0  0  0  0
   57.2620   28.4780   45.5540 C   0  0  0  0  0  0  0  0  0  0  0  0
   57.0860   27.2390   46.3880 C   0  0  0  0  0  0  0  0  0  0  0  0
   55.7360   26.7110   46.2320 N   0  0  0  0  0  0  0  0  0  0  0  0
   55.4410   25.4660   45.5880 C   0  0  0  0  0  0  0  0  0  0  0  0
   54.3090   24.9280   45.7230 O   0  0  0  0  0  0  0  0  0  0  0  0
   56.4670   24.8290   44.7080 C   0  0  0  0  0  0  0  0  0  0  0  0
   56.6850   23.4000   45.1210 C   0  0  0  0  0  0  0  0  0  0  0  0
   57.2180   23.0940   46.3820 C   0  0  0  0  0  0  0  0  0  0  0  0
   57.3800   21.7990   46.7600 N   0  0  0  0  0  0  0  0  0  0  0  0
   57.0300   20.7650   45.9490 C   0  0  0  0  0  0  0  0  0  0  0  0
   57.1990   19.5800   46.3420 O   0  0  0  0  0  0  0  0  0  0  0  0
   56.4810   21.0200   44.6870 C   0  0  0  0  0  0  0  0  0  0  0  0
   56.1130   19.9630   43.8550 O   0  0  0  0  0  0  0  0  0  0  0  0
   56.3050   22.3470   44.2770 C   0  0  0  0  0  0  0  0  0  0  0  0
   58.5190   29.0960   45.4740 C   0  0  0  0  0  0  0  0  0  0  0  0
   58.6850   30.2640   44.7230 C   0  0  0  0  0  0  0  0  0  0  0  0
   59.1070   33.8450   44.3630 C   0  0  0  0  0  0  0  0  0  0  0  0
   59.7050   33.4320   45.7190 C   0  0  0  0  0  0  0  0  0  0  0  0
   59.2783   34.9611   48.5871 H   0  0  0  0  0  0  0  0  0  0  0  0
   60.3560   35.2615   47.1818 H   0  0  0  0  0  0  0  0  0  0  0  0
   58.6793   35.9060   47.1818 H   0  0  0  0  0  0  0  0  0  0  0  0
   56.8019   33.7238   47.4009 H   0  0  0  0  0  0  0  0  0  0  0  0
   57.2198   34.9650   46.1528 H   0  0  0  0  0  0  0  0  0  0  0  0
   57.2893   31.9399   45.7124 H   0  0  0  0  0  0  0  0  0  0  0  0
   55.9506   33.0464   45.2068 H   0  0  0  0  0  0  0  0  0  0  0  0
   56.9710   32.1812   42.5097 H   0  0  0  0  0  0  0  0  0  0  0  0
   58.7552   32.0580   42.7396 H   0  0  0  0  0  0  0  0  0  0  0  0
   55.4784   30.6500   43.5977 H   0  0  0  0  0  0  0  0  0  0  0  0
   55.1808   28.5710   44.9394 H   0  0  0  0  0  0  0  0  0  0  0  0
   57.8125   26.4785   46.0657 H   0  0  0  0  0  0  0  0  0  0  0  0
   57.2505   27.4934   47.4455 H   0  0  0  0  0  0  0  0  0  0  0  0
   56.1199   24.8574   43.6646 H   0  0  0  0  0  0  0  0  0  0  0  0
   57.4145   25.3799   44.8019 H   0  0  0  0  0  0  0  0  0  0  0  0
   57.5057   23.9051   47.0670 H   0  0  0  0  0  0  0  0  0  0  0  0
   56.5610   19.0560   43.9240 H   0  0  0  0  0  0  0  0  0  0  0  0
   55.8679   22.5638   43.2911 H   0  0  0  0  0  0  0  0  0  0  0  0
   59.3782   28.6597   46.0046 H   0  0  0  0  0  0  0  0  0  0  0  0
   59.6746   30.7407   44.6643 H   0  0  0  0  0  0  0  0  0  0  0  0
   59.7736   33.4936   43.5617 H   0  0  0  0  0  0  0  0  0  0  0  0
   59.0128   34.9410   44.3589 H   0  0  0  0  0  0  0  0  0  0  0  0
   59.8308   32.3393   45.7315 H   0  0  0  0  0  0  0  0  0  0  0  0
   60.6688   33.9500   45.8323 H   0  0  0  0  0  0  0  0  0  0  0  0
  1  2  1  0
  2  3  1  0
  3  4  1  0
  4  5  1  0
  5  6  1  0
  6  7  1  0
  7  8  2  0
  8  9  1  0
  9 10  2  0
 10 11  1  0
 11 12  1  0
 12 13  1  0
 13 14  2  0
 13 15  1  0
 15 16  1  0
 16 17  2  0
 17 18  1  0
 18 19  1  0
 19 20  2  0
 19 21  1  0
 21 22  1  0
 21 23  2  0
 10 24  1  0
 24 25  2  0
  5 26  1  0
 26 27  1  0
 27  2  1  0
 25  7  1  0
 23 16  1  0
  1 28  1  0
  1 29  1  0
  1 30  1  0
  3 31  1  0
  3 32  1  0
  4 33  1  0
  4 34  1  0
  6 35  1  0
  6 36  1  0
  8 37  1  0
  9 38  1  0
 11 39  1  0
 11 40  1  0
 15 41  1  0
 15 42  1  0
 17 43  1  0
 22 44  1  0
 23 45  1  0
 24 46  1  0
 25 47  1  0
 26 48  1  0
 26 49  1  0
 27 50  1  0
 27 51  1  0
M  CHG  2  12  -1  18  -1
M  END
>  <UniqueID>  (6) 
6

>  <SMILES>  (6) 
CN1CCN(Cc2ccc(C[N-]C(=O)Cc3c[n-]c(=O)c(O)c3)cc2)CC1

>  <Energy>  (6) 
60.23805078663004

>  <Genealogy>  (6) 
CN1CCN(Cc2ccc(C[N-]C(=O)Cc3c[n-]c(=O)c(O)c3)cc2)CC1 (protonated)
CN1CCN(Cc2ccc(C[N-]C(=O)Cc3c[n-]c(=O)c(O)c3)cc2)CC1 (3D coordinates assigned)
CN1CCN(Cc2ccc(C[N-]C(=O)Cc3c[n-]c(=O)c(O)c3)cc2)CC1 (nonaromatic ring conformer: 60.23805078663004 kcal/mol)

>  <smiles>  (6) 
CN1CCN(Cc2ccc(CNC(=O)Cc3c[nH]c(=O)c(O)c3)cc2)CC1

>  <score_type>  (6) 
oracle

>  <origin>  (6) 
adg

>  <m_score__min__energy>  (6) 
-12.19

>  <m_primary>  (6) 
energy

$$$$
6:0
     RDKit          3D

 40 43  0  0  0  0  0  0  0  0999 V2000
   56.9451   21.4749   42.2646 H   0  0  0  0  0  0  0  0  0  0  0  0
   56.9000   21.8110   43.3110 C   0  0  0  0  0  0  0  0  0  0  0  0
   55.8070   22.1730   43.9420 O   0  0  0  0  0  0  0  0  0  0  0  0
   56.1260   22.5070   45.1710 C   0  0  0  0  0  0  0  0  0  0  0  0
   55.1460   22.9940   46.1900 C   0  0  0  0  0  0  0  0  0  0  0  0
   55.0800   22.2625   47.0089 H   0  0  0  0  0  0  0  0  0  0  0  0
   54.1624   23.1140   45.7124 H   0  0  0  0  0  0  0  0  0  0  0  0
   55.5730   24.2800   46.7270 N   0  0  0  0  0  0  0  0  0  0  0  0
   55.6950   25.4660   45.9360 C   0  0  0  0  0  0  0  0  0  0  0  0
   54.7560   26.3080   45.8960 O   0  0  0  0  0  0  0  0  0  0  0  0
   56.9540   25.7160   45.1690 C   0  0  0  0  0  0  0  0  0  0  0  0
   57.4050   24.7536   44.8855 H   0  0  0  0  0  0  0  0  0  0  0  0
   56.7171   26.2975   44.2658 H   0  0  0  0  0  0  0  0  0  0  0  0
   57.8990   26.4700   45.9910 N   0  0  0  0  0  0  0  0  0  0  0  0
   58.8910   25.9540   46.7640 C   0  0  0  0  0  0  0  0  0  0  0  0
   59.1228   24.8797   46.8107 H   0  0  0  0  0  0  0  0  0  0  0  0
   59.5690   26.8950   47.4740 N   0  0  0  0  0  0  0  0  0  0  0  0
   58.9480   28.0330   47.1160 C   0  0  0  0  0  0  0  0  0  0  0  0
   59.2340   29.2790   47.5600 N   0  0  0  0  0  0  0  0  0  0  0  0
   58.4770   30.3280   47.1050 C   0  0  0  0  0  0  0  0  0  0  0  0
   58.7250   31.5490   47.4780 N   0  0  0  0  0  0  0  0  0  0  0  0
   58.7450   32.7200   46.6440 C   0  0  0  0  0  0  0  0  0  0  0  0
   57.7190   32.9950   45.7180 C   0  0  0  0  0  0  0  0  0  0  0  0
   56.8553   32.3183   45.6400 H   0  0  0  0  0  0  0  0  0  0  0  0
   57.7950   34.1250   44.8980 C   0  0  0  0  0  0  0  0  0  0  0  0
   56.9843   34.3434   44.1873 H   0  0  0  0  0  0  0  0  0  0  0  0
   58.8990   34.9770   44.9800 C   0  0  0  0  0  0  0  0  0  0  0  0
   58.9528   35.8706   44.3408 H   0  0  0  0  0  0  0  0  0  0  0  0
   59.9350   34.6940   45.8740 C   0  0  0  0  0  0  0  0  0  0  0  0
   60.8082   35.3605   45.9317 H   0  0  0  0  0  0  0  0  0  0  0  0
   59.8630   33.5650   46.6950 C   0  0  0  0  0  0  0  0  0  0  0  0
   60.6886   33.3379   47.3855 H   0  0  0  0  0  0  0  0  0  0  0  0
   57.4640   30.1000   46.2080 N   0  0  0  0  0  0  0  0  0  0  0  0
   57.1710   28.8450   45.7610 C   0  0  0  0  0  0  0  0  0  0  0  0
   56.2320   28.6640   44.9440 O   0  0  0  0  0  0  0  0  0  0  0  0
   57.9460   27.7910   46.2370 C   0  0  0  0  0  0  0  0  0  0  0  0
   57.4860   22.3670   45.3630 C   0  0  0  0  0  0  0  0  0  0  0  0
   58.0526   22.5724   46.2832 H   0  0  0  0  0  0  0  0  0  0  0  0
   57.9850   21.9160   44.1600 C   0  0  0  0  0  0  0  0  0  0  0  0
   59.0344   21.6862   43.9237 H   0  0  0  0  0  0  0  0  0  0  0  0
  1  2  1  0
  2  3  1  0
  3  4  1  0
  4  5  1  0
  5  6  1  0
  5  7  1  0
  5  8  1  0
  8  9  1  0
  9 10  2  0
  9 11  1  0
 11 12  1  0
 11 13  1  0
 11 14  1  0
 14 15  1  0
 15 16  1  0
 15 17  2  0
 17 18  1  0
 18 19  1  0
 19 20  1  0
 20 21  2  0
 21 22  1  0
 22 23  2  0
 23 24  1  0
 23 25  1  0
 25 26  1  0
 25 27  2  0
 27 28  1  0
 27 29  1  0
 29 30  1  0
 29 31  2  0
 31 32  1  0
 20 33  1  0
 33 34  1  0
 34 35  2  0
 34 36  1  0
  4 37  2  0
 37 38  1  0
 37 39  1  0
 39 40  1  0
 39  2  2  0
 36 14  1  0
 36 18  2  0
 31 22  1  0
M  CHG  3   8  -1  19  -1  33  -1
M  END
>  <UniqueID>  (7) 
7

>  <SMILES>  (7) 
O=C(Cn1cnc2[n-]/c(=N\c3ccccc3)[n-]c(=O)c21)[N-]Cc1ccco1

>  <Energy>  (7) 
113.5603786234667

>  <Genealogy>  (7) 
O=C(Cn1cnc2[n-]c(=Nc3ccccc3)[n-]c(=O)c21)[N-]Cc1ccco1 (protonated)
O=C(Cn1cnc2[n-]/c(=N\c3ccccc3)[n-]c(=O)c21)[N-]Cc1ccco1 (cis-trans isomerization)
O=C(Cn1cnc2[n-]/c(=N\c3ccccc3)[n-]c(=O)c21)[N-]Cc1ccco1 (3D coordinates assigned)
O=C(Cn1cnc2[n-]/c(=N\c3ccccc3)[n-]c(=O)c21)[N-]Cc1ccco1 (optimized conformer: 113.5603786234667 kcal/mol)

>  <smiles>  (7) 
O=C(Cn1cnc2[nH]c(=Nc3ccccc3)[nH]c(=O)c21)NCc1ccco1

>  <score_type>  (7) 
oracle

>  <origin>  (7) 
adg

>  <m_score__min__energy>  (7) 
-12.26

>  <m_primary>  (7) 
energy

$$$$
7:0
     RDKit          3D

 52 55  0  0  0  0  0  0  0  0999 V2000
   59.6883   30.6153   44.3099 H   0  0  0  0  0  0  0  0  0  0  0  0
   59.1990   29.6760   44.6070 C   0  0  0  0  0  0  0  0  0  0  0  0
   58.8768   28.9570   43.8394 H   0  0  0  0  0  0  0  0  0  0  0  0
   58.9950   29.4070   45.9070 C   0  0  0  0  0  0  0  0  0  0  0  0
   58.3860   28.2520   46.4120 C   0  0  0  0  0  0  0  0  0  0  0  0
   57.9340   27.1900   45.7150 C   0  0  0  0  0  0  0  0  0  0  0  0
   58.0929   27.1813   44.6266 H   0  0  0  0  0  0  0  0  0  0  0  0
   57.2400   26.0400   46.3220 C   0  0  0  0  0  0  0  0  0  0  0  0
   57.8780   24.9400   46.7580 N   0  0  0  0  0  0  0  0  0  0  0  0
   56.8730   24.1280   47.1480 C   0  0  0  0  0  0  0  0  0  0  0  0
   57.0740   22.9860   47.6360 O   0  0  0  0  0  0  0  0  0  0  0  0
   55.6330   24.6310   46.9650 N   0  0  0  0  0  0  0  0  0  0  0  0
   55.8810   25.8370   46.4300 C   0  0  0  0  0  0  0  0  0  0  0  0
   54.8840   26.7090   46.0070 O   0  0  0  0  0  0  0  0  0  0  0  0
   58.3980   28.3750   47.7900 C   0  0  0  0  0  0  0  0  0  0  0  0
   58.0226   27.6394   48.5166 H   0  0  0  0  0  0  0  0  0  0  0  0
   58.9710   29.5970   48.0790 C   0  0  0  0  0  0  0  0  0  0  0  0
   59.2280   30.0990   49.4440 C   0  0  0  0  0  0  0  0  0  0  0  0
   58.2550   30.5730   50.0930 O   0  0  0  0  0  0  0  0  0  0  0  0
   60.5360   30.0440   50.0620 N   0  0  0  0  0  0  0  0  0  0  0  0
   61.2060   28.7420   50.1610 C   0  0  0  0  0  0  0  0  0  0  0  0
   61.3414   28.4789   51.2205 H   0  0  0  0  0  0  0  0  0  0  0  0
   60.5908   27.9746   49.6684 H   0  0  0  0  0  0  0  0  0  0  0  0
   62.1880   28.7966   49.6684 H   0  0  0  0  0  0  0  0  0  0  0  0
   61.2150   31.2410   50.5860 C   0  0  0  0  0  0  0  0  0  0  0  0
   60.4602   31.9384   50.9784 H   0  0  0  0  0  0  0  0  0  0  0  0
   61.9062   30.9278   51.3823 H   0  0  0  0  0  0  0  0  0  0  0  0
   62.0070   31.9300   49.5150 C   0  0  0  0  0  0  0  0  0  0  0  0
   62.6590   31.1920   48.5740 N   0  0  0  0  0  0  0  0  0  0  0  0
   63.3620   31.7710   47.5660 C   0  0  0  0  0  0  0  0  0  0  0  0
   63.8872   31.1436   46.8308 H   0  0  0  0  0  0  0  0  0  0  0  0
   63.4180   33.1630   47.4630 C   0  0  0  0  0  0  0  0  0  0  0  0
   63.9726   33.6382   46.6404 H   0  0  0  0  0  0  0  0  0  0  0  0
   62.7620   33.9440   48.4160 C   0  0  0  0  0  0  0  0  0  0  0  0
   62.7983   35.0413   48.3482 H   0  0  0  0  0  0  0  0  0  0  0  0
   62.0600   33.3310   49.4550 C   0  0  0  0  0  0  0  0  0  0  0  0
   61.5537   33.9396   50.2187 H   0  0  0  0  0  0  0  0  0  0  0  0
   59.3590   30.2210   46.9370 N   0  0  0  0  0  0  0  0  0  0  0  0
   60.0700   31.5120   46.8700 C   0  0  0  0  0  0  0  0  0  0  0  0
   60.3315   31.8301   47.8900 H   0  0  0  0  0  0  0  0  0  0  0  0
   60.9751   31.3780   46.2594 H   0  0  0  0  0  0  0  0  0  0  0  0
   59.2160   32.5770   46.2270 C   0  0  0  0  0  0  0  0  0  0  0  0
   57.8310   32.3800   46.0900 C   0  0  0  0  0  0  0  0  0  0  0  0
   57.3778   31.4344   46.4221 H   0  0  0  0  0  0  0  0  0  0  0  0
   57.0260   33.3790   45.5340 C   0  0  0  0  0  0  0  0  0  0  0  0
   55.9443   33.2137   45.4214 H   0  0  0  0  0  0  0  0  0  0  0  0
   57.5930   34.5850   45.1220 C   0  0  0  0  0  0  0  0  0  0  0  0
   56.9561   35.3746   44.6967 H   0  0  0  0  0  0  0  0  0  0  0  0
   58.9690   34.7910   45.2490 C   0  0  0  0  0  0  0  0  0  0  0  0
   59.4140   35.7424   44.9221 H   0  0  0  0  0  0  0  0  0  0  0  0
   59.7820   33.7900   45.7910 C   0  0  0  0  0  0  0  0  0  0  0  0
   61.1140   34.0170   45.9050 F   0  0  0  0  0  0  0  0  0  0  0  0
  1  2  1  0
  2  3  1  0
  2  4  2  0
  4  5  1  0
  5  6  2  0
  6  7  1  0
  6  8  1  0
  8  9  1  0
  9 10  1  0
 10 11  2  0
 10 12  1  0
 12 13  1  0
 13 14  1  0
  5 15  1  0
 15 16  1  0
 15 17  2  0
 17 18  1  0
 18 19  2  0
 18 20  1  0
 20 21  1  0
 21 22  1  0
 21 23  1  0
 21 24  1  0
 20 25  1  0
 25 26  1  0
 25 27  1  0
 25 28  1  0
 28 29  2  0
 29 30  1  0
 30 31  1  0
 30 32  2  0
 32 33  1  0
 32 34  1  0
 34 35  1  0
 34 36  2  0
 36 37  1  0
 17 38  1  0
 38 39  1  0
 39 40  1  0
 39 41  1  0
 39 42  1  0
 42 43  2  0
 43 44  1  0
 43 45  1  0
 45 46  1  0
 45 47  2  0
 47 48  1  0
 47 49  1  0
 49 50  1  0
 49 51  2  0
 51 52  1  0
 38  4  1  0
 51 42  1  0
 13  8  2  0
 36 28  1  0
M  CHG  3   9  -1  12  -1  14  -1
M  END
>  <UniqueID>  (8) 
8

>  <SMILES>  (8) 
C=c1/c(=C/c2[n-]c(=O)[n-]c2[O-])cc(C(=O)N(C)Cc2ccccn2)n1Cc1ccccc1F

>  <Energy>  (8) 
121.4271575387473

>  <Genealogy>  (8) 
C=c1c(=Cc2[n-]c(=O)[n-]c2[O-])cc(C(=O)N(C)Cc2ccccn2)n1Cc1ccccc1F (protonated)
C=c1/c(=C/c2[n-]c(=O)[n-]c2[O-])cc(C(=O)N(C)Cc2ccccn2)n1Cc1ccccc1F (cis-trans isomerization)
C=c1/c(=C/c2[n-]c(=O)[n-]c2[O-])cc(C(=O)N(C)Cc2ccccn2)n1Cc1ccccc1F (3D coordinates assigned)
C=c1/c(=C/c2[n-]c(=O)[n-]c2[O-])cc(C(=O)N(C)Cc2ccccn2)n1Cc1ccccc1F (optimized conformer: 121.4271575387473 kcal/mol)

>  <smiles>  (8) 
C=c1c(=Cc2[nH]c(=O)[nH]c2O)cc(C(=O)N(C)Cc2ccccn2)n1Cc1ccccc1F

>  <score_type>  (8) 
oracle

>  <origin>  (8) 
adg

>  <m_score__min__energy>  (8) 
-17.120000000000001

>  <m_primary>  (8) 
energy

$$$$
8:0
     RDKit          3D

 42 44  0  0  0  0  0  0  0  0999 V2000
   54.2670   25.5120   45.6300 O   0  0  0  0  0  0  0  0  0  0  0  0
   55.4620   25.1650   45.8200 C   0  0  0  0  0  0  0  0  0  0  0  0
   56.2630   25.9210   46.7390 N   0  0  0  0  0  0  0  0  0  0  0  0
   57.0990   27.0440   46.4200 C   0  0  0  0  0  0  0  0  0  0  0  0
   56.8600   27.8520   45.2960 C   0  0  0  0  0  0  0  0  0  0  0  0
   57.6940   28.9390   45.0190 C   0  0  0  0  0  0  0  0  0  0  0  0
   58.7740   29.2410   45.8650 C   0  0  0  0  0  0  0  0  0  0  0  0
   59.6180   30.3790   45.5940 N   0  0  0  0  0  0  0  0  0  0  0  0
   58.8420   31.5900   45.6800 C   0  0  0  0  0  0  0  0  0  0  0  0
   58.7200   32.2710   46.9050 C   0  0  0  0  0  0  0  0  0  0  0  0
   57.9920   33.4630   46.9810 C   0  0  0  0  0  0  0  0  0  0  0  0
   57.3860   33.9870   45.8370 C   0  0  0  0  0  0  0  0  0  0  0  0
   57.5080   33.3230   44.6140 C   0  0  0  0  0  0  0  0  0  0  0  0
   58.2340   32.1320   44.5320 C   0  0  0  0  0  0  0  0  0  0  0  0
   58.9870   28.4520   47.0080 C   0  0  0  0  0  0  0  0  0  0  0  0
   58.1520   27.3670   47.2830 C   0  0  0  0  0  0  0  0  0  0  0  0
   55.9880   23.9810   45.1050 C   0  0  0  0  0  0  0  0  0  0  0  0
   56.0310   24.0180   43.7020 C   0  0  0  0  0  0  0  0  0  0  0  0
   56.5380   22.9390   42.9780 C   0  0  0  0  0  0  0  0  0  0  0  0
   56.9930   21.8020   43.6460 C   0  0  0  0  0  0  0  0  0  0  0  0
   56.9270   21.7350   45.0380 C   0  0  0  0  0  0  0  0  0  0  0  0
   56.4210   22.8130   45.7860 C   0  0  0  0  0  0  0  0  0  0  0  0
   56.2820   22.6590   47.2840 C   0  0  0  0  0  0  0  0  0  0  0  0
   57.3300   23.3150   47.9440 O   0  0  0  0  0  0  0  0  0  0  0  0
   56.0128   27.6283   44.6309 H   0  0  0  0  0  0  0  0  0  0  0  0
   57.5034   29.5620   44.1327 H   0  0  0  0  0  0  0  0  0  0  0  0
   60.0450   30.2940   44.6420 H   0  0  0  0  0  0  0  0  0  0  0  0
   60.4100   30.4080   46.2770 H   0  0  0  0  0  0  0  0  0  0  0  0
   59.1995   31.8641   47.8075 H   0  0  0  0  0  0  0  0  0  0  0  0
   57.8967   33.9882   47.9428 H   0  0  0  0  0  0  0  0  0  0  0  0
   56.8121   34.9234   45.8990 H   0  0  0  0  0  0  0  0  0  0  0  0
   57.0316   33.7386   43.7138 H   0  0  0  0  0  0  0  0  0  0  0  0
   58.3309   31.6154   43.5657 H   0  0  0  0  0  0  0  0  0  0  0  0
   59.8163   28.6904   47.6902 H   0  0  0  0  0  0  0  0  0  0  0  0
   58.3234   26.7615   48.1852 H   0  0  0  0  0  0  0  0  0  0  0  0
   55.6614   24.9063   43.1688 H   0  0  0  0  0  0  0  0  0  0  0  0
   56.5791   22.9846   41.8797 H   0  0  0  0  0  0  0  0  0  0  0  0
   57.4044   20.9570   43.0744 H   0  0  0  0  0  0  0  0  0  0  0  0
   57.2746   20.8290   45.5561 H   0  0  0  0  0  0  0  0  0  0  0  0
   55.3237   23.0932   47.6052 H   0  0  0  0  0  0  0  0  0  0  0  0
   56.3169   21.5889   47.5365 H   0  0  0  0  0  0  0  0  0  0  0  0
   57.2070   24.2850   47.7740 H   0  0  0  0  0  0  0  0  0  0  0  0
  1  2  2  0
  2  3  1  0
  3  4  1  0
  4  5  2  0
  5  6  1  0
  6  7  2  0
  7  8  1  0
  8  9  1  0
  9 10  2  0
 10 11  1  0
 11 12  2  0
 12 13  1  0
 13 14  2  0
  7 15  1  0
 15 16  2  0
  2 17  1  0
 17 18  2  0
 18 19  1  0
 19 20  2  0
 20 21  1  0
 21 22  2  0
 22 23  1  0
 23 24  1  0
 16  4  1  0
 22 17  1  0
 14  9  1  0
  5 25  1  0
  6 26  1  0
  8 27  1  0
  8 28  1  0
 10 29  1  0
 11 30  1  0
 12 31  1  0
 13 32  1  0
 14 33  1  0
 15 34  1  0
 16 35  1  0
 18 36  1  0
 19 37  1  0
 20 38  1  0
 21 39  1  0
 23 40  1  0
 23 41  1  0
 24 42  1  0
M  CHG  2   3  -1   8   1
M  END
>  <UniqueID>  (9) 
9

>  <SMILES>  (9) 
O=C([N-]c1ccc([NH2+]c2ccccc2)cc1)c1ccccc1CO

>  <Energy>  (9) 
56.880700111476344

>  <Genealogy>  (9) 
O=C([N-]c1ccc([NH2+]c2ccccc2)cc1)c1ccccc1CO (protonated)
O=C([N-]c1ccc([NH2+]c2ccccc2)cc1)c1ccccc1CO (3D coordinates assigned)
O=C([N-]c1ccc([NH2+]c2ccccc2)cc1)c1ccccc1CO (optimized conformer: 56.880700111476344 kcal/mol)

>  <smiles>  (9) 
O=C(Nc1ccc(Nc2ccccc2)cc1)c1ccccc1CO

>  <score_type>  (9) 
oracle

>  <origin>  (9) 
adg

>  <m_score__min__energy>  (9) 
-8.8000000000000007

>  <m_primary>  (9) 
energy

$$$$
9:0
     RDKit          3D

 45 47  0  0  0  0  0  0  0  0999 V2000
   54.8770   26.3390   45.8770 N   0  0  0  0  0  0  0  0  0  0  0  0
   56.1680   26.1340   46.4470 C   0  0  0  0  0  0  0  0  0  0  0  0
   56.3170   25.2500   47.3320 O   0  0  0  0  0  0  0  0  0  0  0  0
   57.3390   26.8990   45.9630 C   0  0  0  0  0  0  0  0  0  0  0  0
   57.8890   27.8820   46.8040 C   0  0  0  0  0  0  0  0  0  0  0  0
   59.0460   28.5910   46.4350 C   0  0  0  0  0  0  0  0  0  0  0  0
   59.5990   29.6010   47.3100 N   0  0  0  0  0  0  0  0  0  0  0  0
   58.9950   29.8090   48.6450 C   0  0  0  0  0  0  0  0  0  0  0  0
   58.8210   31.2920   49.0230 C   0  0  0  0  0  0  0  0  0  0  0  0
   58.1540   32.1290   47.9180 C   0  0  0  0  0  0  0  0  0  0  0  0
   58.9150   32.1010   46.6590 N   0  0  0  0  0  0  0  0  0  0  0  0
   58.2130   31.9630   45.4080 C   0  0  0  0  0  0  0  0  0  0  0  0
   58.5330   32.7690   44.3090 C   0  0  0  0  0  0  0  0  0  0  0  0
   57.8660   32.5530   43.1050 C   0  0  0  0  0  0  0  0  0  0  0  0
   56.9230   31.5810   43.0160 N   0  0  0  0  0  0  0  0  0  0  0  0
   56.6040   30.8200   44.0960 C   0  0  0  0  0  0  0  0  0  0  0  0
   55.5770   29.7390   43.9740 C   0  0  0  0  0  0  0  0  0  0  0  0
   55.4910   29.0160   45.1720 O   0  0  0  0  0  0  0  0  0  0  0  0
   57.2500   31.0120   45.2750 N   0  0  0  0  0  0  0  0  0  0  0  0
   60.3730   31.9050   46.7060 C   0  0  0  0  0  0  0  0  0  0  0  0
   60.7450   30.4170   46.8670 C   0  0  0  0  0  0  0  0  0  0  0  0
   59.6470   28.3060   45.1990 C   0  0  0  0  0  0  0  0  0  0  0  0
   59.0980   27.3510   44.3460 C   0  0  0  0  0  0  0  0  0  0  0  0
   57.9390   26.6560   44.7050 C   0  0  0  0  0  0  0  0  0  0  0  0
   57.4010   25.7660   43.7720 O   0  0  0  0  0  0  0  0  0  0  0  0
   54.1020   26.7520   46.4390 H   0  0  0  0  0  0  0  0  0  0  0  0
   57.4058   28.1005   47.7677 H   0  0  0  0  0  0  0  0  0  0  0  0
   58.0051   29.3295   48.6566 H   0  0  0  0  0  0  0  0  0  0  0  0
   59.6839   29.3689   49.3810 H   0  0  0  0  0  0  0  0  0  0  0  0
   58.1991   31.3506   49.9284 H   0  0  0  0  0  0  0  0  0  0  0  0
   59.8271   31.7070   49.1827 H   0  0  0  0  0  0  0  0  0  0  0  0
   57.1464   31.7292   47.7311 H   0  0  0  0  0  0  0  0  0  0  0  0
   58.1148   33.1724   48.2640 H   0  0  0  0  0  0  0  0  0  0  0  0
   59.2957   33.5570   44.3943 H   0  0  0  0  0  0  0  0  0  0  0  0
   58.1038   33.1705   42.2263 H   0  0  0  0  0  0  0  0  0  0  0  0
   54.5990   30.1904   43.7509 H   0  0  0  0  0  0  0  0  0  0  0  0
   55.8691   29.0561   43.1626 H   0  0  0  0  0  0  0  0  0  0  0  0
   55.1370   28.1200   44.9360 H   0  0  0  0  0  0  0  0  0  0  0  0
   60.8136   32.2833   45.7718 H   0  0  0  0  0  0  0  0  0  0  0  0
   60.7640   32.4518   47.5767 H   0  0  0  0  0  0  0  0  0  0  0  0
   61.0996   30.0337   45.8988 H   0  0  0  0  0  0  0  0  0  0  0  0
   61.5277   30.3459   47.6366 H   0  0  0  0  0  0  0  0  0  0  0  0
   60.5603   28.8418   44.9010 H   0  0  0  0  0  0  0  0  0  0  0  0
   59.5812   27.1416   43.3803 H   0  0  0  0  0  0  0  0  0  0  0  0
   56.4070   25.6340   43.6400 H   0  0  0  0  0  0  0  0  0  0  0  0
  1  2  1  0
  2  3  2  0
  2  4  1  0
  4  5  2  0
  5  6  1  0
  6  7  1  0
  7  8  1  0
  8  9  1  0
  9 10  1  0
 10 11  1  0
 11 12  1  0
 12 13  2  0
 13 14  1  0
 14 15  2  0
 15 16  1  0
 16 17  1  0
 17 18  1  0
 16 19  2  0
 11 20  1  0
 20 21  1  0
  6 22  2  0
 22 23  1  0
 23 24  2  0
 24 25  1  0
 24  4  1  0
 21  7  1  0
 19 12  1  0
  1 26  1  0
  5 27  1  0
  8 28  1  0
  8 29  1  0
  9 30  1  0
  9 31  1  0
 10 32  1  0
 10 33  1  0
 13 34  1  0
 14 35  1  0
 17 36  1  0
 17 37  1  0
 18 38  1  0
 20 39  1  0
 20 40  1  0
 21 41  1  0
 21 42  1  0
 22 43  1  0
 23 44  1  0
 25 45  1  0
M  CHG  1   1  -1
M  END
>  <UniqueID>  (10) 
10

>  <SMILES>  (10) 
[NH-]C(=O)c1cc(N2CCCN(c3ccnc(CO)n3)CC2)ccc1O

>  <Energy>  (10) 
60.73087918344039

>  <Genealogy>  (10) 
[NH-]C(=O)c1cc(N2CCCN(c3ccnc(CO)n3)CC2)ccc1O (protonated)
[NH-]C(=O)c1cc(N2CCCN(c3ccnc(CO)n3)CC2)ccc1O (3D coordinates assigned)
[NH-]C(=O)c1cc(N2CCCN(c3ccnc(CO)n3)CC2)ccc1O (nonaromatic ring conformer: 60.73087918344039 kcal/mol)

>  <smiles>  (10) 
NC(=O)c1cc(N2CCCN(c3ccnc(CO)n3)CC2)ccc1O

>  <score_type>  (10) 
oracle

>  <origin>  (10) 
adg

>  <m_score__min__energy>  (10) 
-9.6300000000000008

>  <m_primary>  (10) 
energy

$$$$
10:0
     RDKit          3D

 42 44  0  0  0  0  0  0  0  0999 V2000
   55.2960   29.3430   44.8670 O   0  0  0  0  0  0  0  0  0  0  0  0
   56.4550   28.8560   44.9780 C   0  0  0  0  0  0  0  0  0  0  0  0
   57.5820   29.5740   44.4490 N   0  0  0  0  0  0  0  0  0  0  0  0
   57.4560   30.9100   43.8690 C   0  0  0  0  0  0  0  0  0  0  0  0
   57.9490   31.9470   44.8400 C   0  0  0  0  0  0  0  0  0  0  0  0
   57.2990   33.1860   44.9540 C   0  0  0  0  0  0  0  0  0  0  0  0
   57.7470   34.1330   45.8810 C   0  0  0  0  0  0  0  0  0  0  0  0
   58.8400   33.8490   46.7020 C   0  0  0  0  0  0  0  0  0  0  0  0
   59.4970   32.6120   46.6020 C   0  0  0  0  0  0  0  0  0  0  0  0
   60.6650   32.2880   47.4990 C   0  0  0  0  0  0  0  0  0  0  0  0
   61.4940   33.4920   47.7270 N   0  0  0  0  0  0  0  0  0  0  0  0
   62.4410   33.2780   48.8300 C   0  0  0  0  0  0  0  0  0  0  0  0
   63.7340   32.7430   48.2350 C   0  0  0  0  0  0  0  0  0  0  0  0
   63.6910   33.1280   46.7690 C   0  0  0  0  0  0  0  0  0  0  0  0
   62.3390   33.7970   46.5610 C   0  0  0  0  0  0  0  0  0  0  0  0
   59.0480   31.6660   45.6670 C   0  0  0  0  0  0  0  0  0  0  0  0
   56.6420   27.5540   45.6520 C   0  0  0  0  0  0  0  0  0  0  0  0
   57.9220   27.0710   45.9610 C   0  0  0  0  0  0  0  0  0  0  0  0
   58.0520   25.8360   46.5920 C   0  0  0  0  0  0  0  0  0  0  0  0
   56.9050   25.1070   46.9010 C   0  0  0  0  0  0  0  0  0  0  0  0
   56.9930   23.9880   47.4700 O   0  0  0  0  0  0  0  0  0  0  0  0
   55.6850   25.6120   46.5820 N   0  0  0  0  0  0  0  0  0  0  0  0
   55.5590   26.7960   45.9780 N   0  0  0  0  0  0  0  0  0  0  0  0
   58.5330   29.1430   44.4810 H   0  0  0  0  0  0  0  0  0  0  0  0
   58.0529   30.9633   42.9465 H   0  0  0  0  0  0  0  0  0  0  0  0
   56.3971   31.1046   43.6433 H   0  0  0  0  0  0  0  0  0  0  0  0
   56.4348   33.4129   44.3124 H   0  0  0  0  0  0  0  0  0  0  0  0
   57.2368   35.1040   45.9633 H   0  0  0  0  0  0  0  0  0  0  0  0
   59.1877   34.5969   47.4298 H   0  0  0  0  0  0  0  0  0  0  0  0
   60.2884   31.9199   48.4647 H   0  0  0  0  0  0  0  0  0  0  0  0
   61.2827   31.5179   47.0139 H   0  0  0  0  0  0  0  0  0  0  0  0
   62.6329   34.2291   49.3483 H   0  0  0  0  0  0  0  0  0  0  0  0
   62.0284   32.5637   49.5577 H   0  0  0  0  0  0  0  0  0  0  0  0
   64.6036   33.2018   48.7282 H   0  0  0  0  0  0  0  0  0  0  0  0
   63.8277   31.6554   48.3702 H   0  0  0  0  0  0  0  0  0  0  0  0
   64.5061   33.8274   46.5316 H   0  0  0  0  0  0  0  0  0  0  0  0
   63.8172   32.2530   46.1144 H   0  0  0  0  0  0  0  0  0  0  0  0
   62.4714   34.8853   46.4709 H   0  0  0  0  0  0  0  0  0  0  0  0
   61.8669   33.4242   45.6401 H   0  0  0  0  0  0  0  0  0  0  0  0
   59.5614   30.6969   45.5817 H   0  0  0  0  0  0  0  0  0  0  0  0
   58.8146   27.6618   45.7075 H   0  0  0  0  0  0  0  0  0  0  0  0
   59.0474   25.4410   46.8433 H   0  0  0  0  0  0  0  0  0  0  0  0
  1  2  2  0
  2  3  1  0
  3  4  1  0
  4  5  1  0
  5  6  2  0
  6  7  1  0
  7  8  2  0
  8  9  1  0
  9 10  1  0
 10 11  1  0
 11 12  1  0
 12 13  1  0
 13 14  1  0
 14 15  1  0
  9 16  2  0
  2 17  1  0
 17 18  1  0
 18 19  2  0
 19 20  1  0
 20 21  2  0
 20 22  1  0
 22 23  1  0
 16  5  1  0
 23 17  2  0
 15 11  1  0
  3 24  1  0
  4 25  1  0
  4 26  1  0
  6 27  1  0
  7 28  1  0
  8 29  1  0
 10 30  1  0
 10 31  1  0
 12 32  1  0
 12 33  1  0
 13 34  1  0
 13 35  1  0
 14 36  1  0
 14 37  1  0
 15 38  1  0
 15 39  1  0
 16 40  1  0
 18 41  1  0
 19 42  1  0
M  CHG  1  22  -1
M  END
>  <UniqueID>  (11) 
11

>  <SMILES>  (11) 
O=C(NCc1cccc(CN2CCCC2)c1)c1ccc(=O)[n-]n1

>  <Energy>  (11) 
44.566535366698076

>  <Genealogy>  (11) 
O=C(NCc1cccc(CN2CCCC2)c1)c1ccc(=O)[n-]n1 (protonated)
O=C(NCc1cccc(CN2CCCC2)c1)c1ccc(=O)[n-]n1 (3D coordinates assigned)
O=C(NCc1cccc(CN2CCCC2)c1)c1ccc(=O)[n-]n1 (nonaromatic ring conformer: 44.566535366698076 kcal/mol)

>  <smiles>  (11) 
O=C(NCc1cccc(CN2CCCC2)c1)c1ccc(=O)[nH]n1

>  <score_type>  (11) 
oracle

>  <origin>  (11) 
adg

>  <m_score__min__energy>  (11) 
-10.74

>  <m_primary>  (11) 
energy

$$$$
11:0
     RDKit          3D

 57 60  0  0  0  0  0  0  0  0999 V2000
   57.0070   25.5590   46.9050 C   0  0  0  0  0  0  0  0  0  0  0  0
   57.5030   26.6710   46.0380 C   0  0  0  0  0  0  0  0  0  0  0  0
   58.8440   26.7250   45.6490 C   0  0  0  0  0  0  0  0  0  0  0  0
   59.2600   27.7810   44.8370 C   0  0  0  0  0  0  0  0  0  0  0  0
   58.3680   28.7260   44.4420 N   0  0  0  0  0  0  0  0  0  0  0  0
   57.0620   28.6560   44.8160 C   0  0  0  0  0  0  0  0  0  0  0  0
   56.1620   29.6320   44.3670 O   0  0  0  0  0  0  0  0  0  0  0  0
   56.5290   30.6870   43.4780 C   0  0  0  0  0  0  0  0  0  0  0  0
   57.2900   31.7510   44.2240 C   0  0  0  0  0  0  0  0  0  0  0  0
   57.3950   31.6800   45.6200 C   0  0  0  0  0  0  0  0  0  0  0  0
   58.2040   32.5850   46.3110 C   0  0  0  0  0  0  0  0  0  0  0  0
   58.9220   33.5640   45.6130 C   0  0  0  0  0  0  0  0  0  0  0  0
   60.0600   34.5830   46.4820 S   0  0  0  0  0  0  0  0  0  0  0  0
   59.7080   34.5860   47.9430 O   0  0  0  0  0  0  0  0  0  0  0  0
   60.0230   35.9950   45.9660 O   0  0  0  0  0  0  0  0  0  0  0  0
   61.6530   33.9440   46.2810 N   0  0  0  0  0  0  0  0  0  0  0  0
   62.3600   33.3630   47.3800 C   0  0  0  0  0  0  0  0  0  0  0  0
   63.3760   34.1100   48.0010 C   0  0  0  0  0  0  0  0  0  0  0  0
   64.1300   33.5560   49.0330 C   0  0  0  0  0  0  0  0  0  0  0  0
   63.8770   32.2540   49.4600 C   0  0  0  0  0  0  0  0  0  0  0  0
   62.8600   31.5050   48.8670 C   0  0  0  0  0  0  0  0  0  0  0  0
   62.0760   32.0470   47.8290 C   0  0  0  0  0  0  0  0  0  0  0  0
   60.9810   31.2160   47.2460 C   0  0  0  0  0  0  0  0  0  0  0  0
   60.7360   31.2570   46.0100 O   0  0  0  0  0  0  0  0  0  0  0  0
   60.2290   30.3100   48.0690 N   0  0  0  0  0  0  0  0  0  0  0  0
   60.3580   28.8730   47.7920 C   0  0  0  0  0  0  0  0  0  0  0  0
   59.6280   28.0210   48.8300 C   0  0  0  0  0  0  0  0  0  0  0  0
   59.7410   28.6000   50.1110 O   0  0  0  0  0  0  0  0  0  0  0  0
   58.9360   29.7590   50.1510 C   0  0  0  0  0  0  0  0  0  0  0  0
   59.4520   30.8540   49.1960 C   0  0  0  0  0  0  0  0  0  0  0  0
   58.8010   33.6520   44.2200 C   0  0  0  0  0  0  0  0  0  0  0  0
   57.9840   32.7540   43.5290 C   0  0  0  0  0  0  0  0  0  0  0  0
   56.6450   27.6360   45.6150 N   0  0  0  0  0  0  0  0  0  0  0  0
   57.1304   25.8356   47.9625 H   0  0  0  0  0  0  0  0  0  0  0  0
   55.9426   25.3774   46.6953 H   0  0  0  0  0  0  0  0  0  0  0  0
   57.5831   24.6457   46.6953 H   0  0  0  0  0  0  0  0  0  0  0  0
   59.5558   25.9525   45.9755 H   0  0  0  0  0  0  0  0  0  0  0  0
   60.3103   27.8480   44.5169 H   0  0  0  0  0  0  0  0  0  0  0  0
   57.1623   30.2822   42.6748 H   0  0  0  0  0  0  0  0  0  0  0  0
   55.6179   31.1297   43.0491 H   0  0  0  0  0  0  0  0  0  0  0  0
   56.8385   30.9091   46.1731 H   0  0  0  0  0  0  0  0  0  0  0  0
   58.2774   32.5285   47.4071 H   0  0  0  0  0  0  0  0  0  0  0  0
   62.0570   33.8840   45.3200 H   0  0  0  0  0  0  0  0  0  0  0  0
   63.5771   35.1394   47.6696 H   0  0  0  0  0  0  0  0  0  0  0  0
   64.9254   34.1466   49.5110 H   0  0  0  0  0  0  0  0  0  0  0  0
   64.4813   31.8150   50.2676 H   0  0  0  0  0  0  0  0  0  0  0  0
   62.6679   30.4790   49.2140 H   0  0  0  0  0  0  0  0  0  0  0  0
   59.9338   28.6634   46.7990 H   0  0  0  0  0  0  0  0  0  0  0  0
   61.4264   28.6144   47.8314 H   0  0  0  0  0  0  0  0  0  0  0  0
   58.5647   27.9500   48.5572 H   0  0  0  0  0  0  0  0  0  0  0  0
   60.0815   27.0190   48.8508 H   0  0  0  0  0  0  0  0  0  0  0  0
   57.9100   29.4890   49.8604 H   0  0  0  0  0  0  0  0  0  0  0  0
   58.9672   30.1591   51.1752 H   0  0  0  0  0  0  0  0  0  0  0  0
   58.5888   31.4049   48.7941 H   0  0  0  0  0  0  0  0  0  0  0  0
   60.1212   31.5084   49.7739 H   0  0  0  0  0  0  0  0  0  0  0  0
   59.3504   34.4298   43.6693 H   0  0  0  0  0  0  0  0  0  0  0  0
   57.8841   32.8331   42.4364 H   0  0  0  0  0  0  0  0  0  0  0  0
  1  2  1  0
  2  3  2  0
  3  4  1  0
  4  5  2  0
  5  6  1  0
  6  7  1  0
  7  8  1  0
  8  9  1  0
  9 10  2  0
 10 11  1  0
 11 12  2  0
 12 13  1  0
 13 14  2  0
 13 15  2  0
 13 16  1  0
 16 17  1  0
 17 18  2  0
 18 19  1  0
 19 20  2  0
 20 21  1  0
 21 22  2  0
 22 23  1  0
 23 24  2  0
 23 25  1  0
 25 26  1  0
 26 27  1  0
 27 28  1  0
 28 29  1  0
 29 30  1  0
 12 31  1  0
 31 32  2  0
  6 33  2  0
 33  2  1  0
 32  9  1  0
 22 17  1  0
 30 25  1  0
  1 34  1  0
  1 35  1  0
  1 36  1  0
  3 37  1  0
  4 38  1  0
  8 39  1  0
  8 40  1  0
 10 41  1  0
 11 42  1  0
 16 43  1  0
 18 44  1  0
 19 45  1  0
 20 46  1  0
 21 47  1  0
 26 48  1  0
 26 49  1  0
 27 50  1  0
 27 51  1  0
 29 52  1  0
 29 53  1  0
 30 54  1  0
 30 55  1  0
 31 56  1  0
 32 57  1  0
M  END
>  <UniqueID>  (12) 
12

>  <SMILES>  (12) 
Cc1ccnc(OCc2ccc(S(=O)(=O)Nc3ccccc3C(=O)N3CCOCC3)cc2)n1

>  <Energy>  (12) 
76.1094565169288

>  <Genealogy>  (12) 
Cc1ccnc(OCc2ccc(S(=O)(=O)Nc3ccccc3C(=O)N3CCOCC3)cc2)n1 (3D coordinates assigned)
Cc1ccnc(OCc2ccc(S(=O)(=O)Nc3ccccc3C(=O)N3CCOCC3)cc2)n1 (nonaromatic ring conformer: 76.1094565169288 kcal/mol)

>  <smiles>  (12) 
Cc1ccnc(OCc2ccc(S(=O)(=O)Nc3ccccc3C(=O)N3CCOCC3)cc2)n1

>  <score_type>  (12) 
oracle

>  <origin>  (12) 
adg

>  <m_score__min__energy>  (12) 
-10.1

>  <m_primary>  (12) 
energy

$$$$
12:0
     RDKit          3D

 57 59  0  0  0  0  0  0  0  0999 V2000
   55.5200   29.7280   45.9270 H   0  0  0  0  0  0  0  0  0  0  0  0
   55.5810   28.9650   45.2620 O   0  0  0  0  0  0  0  0  0  0  0  0
   56.1170   27.7330   45.6270 C   0  0  0  0  0  0  0  0  0  0  0  0
   55.3710   26.6550   45.9250 N   0  0  0  0  0  0  0  0  0  0  0  0
   56.3000   25.7190   46.2170 C   0  0  0  0  0  0  0  0  0  0  0  0
   55.9960   24.5480   46.5620 O   0  0  0  0  0  0  0  0  0  0  0  0
   57.5820   26.1410   46.1180 N   0  0  0  0  0  0  0  0  0  0  0  0
   57.4520   27.4230   45.7330 C   0  0  0  0  0  0  0  0  0  0  0  0
   58.5750   28.3440   45.5420 C   0  0  0  0  0  0  0  0  0  0  0  0
   59.4685   27.9497   45.0359 H   0  0  0  0  0  0  0  0  0  0  0  0
   58.6070   29.6350   45.9340 C   0  0  0  0  0  0  0  0  0  0  0  0
   58.8520   29.9990   47.2460 C   0  0  0  0  0  0  0  0  0  0  0  0
   59.0353   29.3182   48.0903 H   0  0  0  0  0  0  0  0  0  0  0  0
   58.8230   31.3760   47.2950 C   0  0  0  0  0  0  0  0  0  0  0  0
   58.9700   32.1490   48.5440 C   0  0  0  0  0  0  0  0  0  0  0  0
   57.9440   32.7120   49.0220 O   0  0  0  0  0  0  0  0  0  0  0  0
   60.2310   32.2600   49.2330 N   0  0  0  0  0  0  0  0  0  0  0  0
   60.4720   33.4370   50.0810 C   0  0  0  0  0  0  0  0  0  0  0  0
   60.5997   34.3187   49.4357 H   0  0  0  0  0  0  0  0  0  0  0  0
   59.6075   33.5539   50.7510 H   0  0  0  0  0  0  0  0  0  0  0  0
   61.7230   33.2760   50.9500 C   0  0  0  0  0  0  0  0  0  0  0  0
   61.9976   34.2533   51.3738 H   0  0  0  0  0  0  0  0  0  0  0  0
   61.5061   32.5602   51.7566 H   0  0  0  0  0  0  0  0  0  0  0  0
   62.8440   32.7640   50.1490 N   0  0  0  0  0  0  0  0  0  0  0  0
   64.1840   33.2370   50.4110 C   0  0  0  0  0  0  0  0  0  0  0  0
   64.4460   33.8110   51.5040 O   0  0  0  0  0  0  0  0  0  0  0  0
   65.2920   33.0410   49.4210 C   0  0  0  0  0  0  0  0  0  0  0  0
   65.0535   32.1872   48.7697 H   0  0  0  0  0  0  0  0  0  0  0  0
   65.4017   33.9508   48.8125 H   0  0  0  0  0  0  0  0  0  0  0  0
   66.4910   32.7890   50.0980 O   0  0  0  0  0  0  0  0  0  0  0  0
   66.2840   32.8840   51.0670 H   0  0  0  0  0  0  0  0  0  0  0  0
   62.6270   31.6510   49.2040 C   0  0  0  0  0  0  0  0  0  0  0  0
   62.8505   32.0009   48.1853 H   0  0  0  0  0  0  0  0  0  0  0  0
   63.2911   30.8235   49.4941 H   0  0  0  0  0  0  0  0  0  0  0  0
   61.1810   31.1370   49.2460 C   0  0  0  0  0  0  0  0  0  0  0  0
   60.9986   30.4992   48.3686 H   0  0  0  0  0  0  0  0  0  0  0  0
   61.0364   30.5613   50.1721 H   0  0  0  0  0  0  0  0  0  0  0  0
   58.5620   31.8930   46.0690 N   0  0  0  0  0  0  0  0  0  0  0  0
   58.3370   33.3130   45.7610 C   0  0  0  0  0  0  0  0  0  0  0  0
   57.5574   33.3972   44.9895 H   0  0  0  0  0  0  0  0  0  0  0  0
   58.0194   33.8306   46.6782 H   0  0  0  0  0  0  0  0  0  0  0  0
   59.6330   33.9630   45.2450 C   0  0  0  0  0  0  0  0  0  0  0  0
   60.2541   33.1787   44.7878 H   0  0  0  0  0  0  0  0  0  0  0  0
   59.3330   34.7408   44.5274 H   0  0  0  0  0  0  0  0  0  0  0  0
   60.4320   34.6360   46.2930 N   0  0  0  0  0  0  0  0  0  0  0  0
   61.6060   33.8540   46.7100 C   0  0  0  0  0  0  0  0  0  0  0  0
   61.6540   33.8221   47.8085 H   0  0  0  0  0  0  0  0  0  0  0  0
   61.5231   32.8301   46.3167 H   0  0  0  0  0  0  0  0  0  0  0  0
   62.5189   34.3251   46.3167 H   0  0  0  0  0  0  0  0  0  0  0  0
   59.6250   35.0440   47.4550 C   0  0  0  0  0  0  0  0  0  0  0  0
   60.1545   34.7763   48.3813 H   0  0  0  0  0  0  0  0  0  0  0  0
   59.4641   36.1318   47.4259 H   0  0  0  0  0  0  0  0  0  0  0  0
   58.6536   34.5287   47.4259 H   0  0  0  0  0  0  0  0  0  0  0  0
   58.4080   30.8350   45.2230 C   0  0  0  0  0  0  0  0  0  0  0  0
   58.0750   30.9680   43.9270 C   0  0  0  0  0  0  0  0  0  0  0  0
   57.9492   31.9703   43.4915 H   0  0  0  0  0  0  0  0  0  0  0  0
   57.9284   30.0745   43.3023 H   0  0  0  0  0  0  0  0  0  0  0  0
  1  2  1  0
  2  3  1  0
  3  4  1  0
  4  5  1  0
  5  6  2  0
  5  7  1  0
  7  8  1  0
  8  9  1  0
  9 10  1  0
  9 11  2  0
 11 12  1  0
 12 13  1  0
 12 14  2  0
 14 15  1  0
 15 16  2  0
 15 17  1  0
 17 18  1  0
 18 19  1  0
 18 20  1  0
 18 21  1  0
 21 22  1  0
 21 23  1  0
 21 24  1  0
 24 25  1  0
 25 26  2  0
 25 27  1  0
 27 28  1  0
 27 29  1  0
 27 30  1  0
 30 31  1  0
 24 32  1  0
 32 33  1  0
 32 34  1  0
 32 35  1  0
 35 36  1  0
 35 37  1  0
 14 38  1  0
 38 39  1  0
 39 40  1  0
 39 41  1  0
 39 42  1  0
 42 43  1  0
 42 44  1  0
 42 45  1  0
 45 46  1  0
 46 47  1  0
 46 48  1  0
 46 49  1  0
 45 50  1  0
 50 51  1  0
 50 52  1  0
 50 53  1  0
 38 54  1  0
 54 55  2  0
 55 56  1  0
 55 57  1  0
  8  3  2  0
 54 11  1  0
 35 17  1  0
M  CHG  2   4  -1   7  -1
M  END
>  <UniqueID>  (13) 
13

>  <SMILES>  (13) 
C=c1/c(=C\c2[n-]c(=O)[n-]c2O)cc(C(=O)N2CCN(C(=O)CO)CC2)n1CCN(C)C

>  <Energy>  (13) 
133.13133118168088

>  <Genealogy>  (13) 
C=c1c(=Cc2[n-]c(=O)[n-]c2O)cc(C(=O)N2CCN(C(=O)CO)CC2)n1CCN(C)C (protonated)
C=c1/c(=C\c2[n-]c(=O)[n-]c2O)cc(C(=O)N2CCN(C(=O)CO)CC2)n1CCN(C)C (cis-trans isomerization)
C=c1/c(=C\c2[n-]c(=O)[n-]c2O)cc(C(=O)N2CCN(C(=O)CO)CC2)n1CCN(C)C (3D coordinates assigned)
C=c1/c(=C\c2[n-]c(=O)[n-]c2O)cc(C(=O)N2CCN(C(=O)CO)CC2)n1CCN(C)C (nonaromatic ring conformer: 133.13133118168088 kcal/mol)

>  <smiles>  (13) 
C=c1c(=Cc2[nH]c(=O)[nH]c2O)cc(C(=O)N2CCN(C(=O)CO)CC2)n1CCN(C)C

>  <score_type>  (13) 
oracle

>  <origin>  (13) 
adg

>  <m_score__min__energy>  (13) 
-12.41

>  <m_primary>  (13) 
energy

$$$$
13:0
     RDKit          3D

 55 57  0  0  0  0  0  0  0  0999 V2000
   64.1002   34.3964   47.8033 H   0  0  0  0  0  0  0  0  0  0  0  0
   63.2410   33.7300   47.9700 C   0  0  0  0  0  0  0  0  0  0  0  0
   62.3530   33.9830   49.0160 C   0  0  0  0  0  0  0  0  0  0  0  0
   62.5165   34.8463   49.6778 H   0  0  0  0  0  0  0  0  0  0  0  0
   61.2560   33.1420   49.2250 C   0  0  0  0  0  0  0  0  0  0  0  0
   60.5620   33.3455   50.0538 H   0  0  0  0  0  0  0  0  0  0  0  0
   61.0330   32.0360   48.3820 C   0  0  0  0  0  0  0  0  0  0  0  0
   59.8800   31.1290   48.6100 C   0  0  0  0  0  0  0  0  0  0  0  0
   58.7370   31.6080   48.8400 O   0  0  0  0  0  0  0  0  0  0  0  0
   60.0250   29.7070   48.5100 N   0  0  0  0  0  0  0  0  0  0  0  0
   59.9180   28.9840   47.4270 C   0  0  0  0  0  0  0  0  0  0  0  0
   59.5220   29.5680   46.1100 C   0  0  0  0  0  0  0  0  0  0  0  0
   60.1280   29.2120   45.0640 O   0  0  0  0  0  0  0  0  0  0  0  0
   58.4290   30.5000   46.0150 N   0  0  0  0  0  0  0  0  0  0  0  0
   58.0410   30.9110   46.8920 H   0  0  0  0  0  0  0  0  0  0  0  0
   57.7550   30.8650   44.7600 C   0  0  1  0  0  0  0  0  0  0  0  0
   58.5275   30.9530   43.9818 H   0  0  0  0  0  0  0  0  0  0  0  0
   56.8040   29.7810   44.2650 C   0  0  0  0  0  0  0  0  0  0  0  0
   55.7730   29.5730   44.8930 O   0  0  0  0  0  0  0  0  0  0  0  0
   57.0250   28.9880   43.0030 C   0  0  0  0  0  0  0  0  0  0  0  0
   56.0562   28.6452   42.6107 H   0  0  0  0  0  0  0  0  0  0  0  0
   57.5201   29.6222   42.2528 H   0  0  0  0  0  0  0  0  0  0  0  0
   58.1430   27.4550   43.3930 Br  0  0  0  0  0  0  0  0  0  0  0  0
   57.0600   32.2430   44.8990 C   0  0  0  0  0  0  0  0  0  0  0  0
   56.7429   32.5792   43.9008 H   0  0  0  0  0  0  0  0  0  0  0  0
   56.2034   32.1155   45.5773 H   0  0  0  0  0  0  0  0  0  0  0  0
   57.9620   33.2940   45.4980 C   0  0  0  0  0  0  0  0  0  0  0  0
   58.0030   33.4810   46.8920 C   0  0  0  0  0  0  0  0  0  0  0  0
   57.3744   32.8588   47.5460 H   0  0  0  0  0  0  0  0  0  0  0  0
   58.8390   34.4540   47.4510 C   0  0  0  0  0  0  0  0  0  0  0  0
   58.8641   34.5970   48.5414 H   0  0  0  0  0  0  0  0  0  0  0  0
   59.6420   35.2440   46.6240 C   0  0  0  0  0  0  0  0  0  0  0  0
   60.2990   36.0088   47.0639 H   0  0  0  0  0  0  0  0  0  0  0  0
   59.6110   35.0630   45.2370 C   0  0  0  0  0  0  0  0  0  0  0  0
   60.2458   35.6844   44.5882 H   0  0  0  0  0  0  0  0  0  0  0  0
   58.7740   34.0930   44.6730 C   0  0  0  0  0  0  0  0  0  0  0  0
   58.7513   33.9553   43.5819 H   0  0  0  0  0  0  0  0  0  0  0  0
   60.2700   27.5230   47.5360 C   0  0  0  0  0  0  0  0  0  0  0  0
   61.2150   27.3412   47.0031 H   0  0  0  0  0  0  0  0  0  0  0  0
   60.3692   27.2679   48.6014 H   0  0  0  0  0  0  0  0  0  0  0  0
   59.1920   26.6540   46.9360 C   0  0  0  0  0  0  0  0  0  0  0  0
   57.8360   27.0020   47.0760 C   0  0  0  0  0  0  0  0  0  0  0  0
   57.5587   27.9017   47.6449 H   0  0  0  0  0  0  0  0  0  0  0  0
   56.8390   26.2120   46.4970 C   0  0  0  0  0  0  0  0  0  0  0  0
   55.7818   26.4981   46.5995 H   0  0  0  0  0  0  0  0  0  0  0  0
   57.1850   25.0590   45.7880 C   0  0  0  0  0  0  0  0  0  0  0  0
   55.9370   24.0740   45.0520 Cl  0  0  0  0  0  0  0  0  0  0  0  0
   58.5290   24.6910   45.6630 C   0  0  0  0  0  0  0  0  0  0  0  0
   58.7996   23.7797   45.1095 H   0  0  0  0  0  0  0  0  0  0  0  0
   59.5280   25.4790   46.2400 C   0  0  0  0  0  0  0  0  0  0  0  0
   60.5824   25.1790   46.1495 H   0  0  0  0  0  0  0  0  0  0  0  0
   61.9390   31.7860   47.3370 C   0  0  0  0  0  0  0  0  0  0  0  0
   61.7834   30.9220   46.6742 H   0  0  0  0  0  0  0  0  0  0  0  0
   63.0370   32.6280   47.1340 C   0  0  0  0  0  0  0  0  0  0  0  0
   63.7418   32.4228   46.3147 H   0  0  0  0  0  0  0  0  0  0  0  0
  1  2  1  0
  2  3  2  0
  3  4  1  0
  3  5  1  0
  5  6  1  0
  5  7  2  0
  7  8  1  0
  8  9  2  0
  8 10  1  0
 10 11  2  0
 11 12  1  0
 12 13  2  0
 12 14  1  0
 14 15  1  0
 14 16  1  0
 16 17  1  6
 16 18  1  0
 18 19  2  0
 18 20  1  0
 20 21  1  0
 20 22  1  0
 20 23  1  0
 16 24  1  0
 24 25  1  0
 24 26  1  0
 24 27  1  0
 27 28  2  0
 28 29  1  0
 28 30  1  0
 30 31  1  0
 30 32  2  0
 32 33  1  0
 32 34  1  0
 34 35  1  0
 34 36  2  0
 36 37  1  0
 11 38  1  0
 38 39  1  0
 38 40  1  0
 38 41  1  0
 41 42  2  0
 42 43  1  0
 42 44  1  0
 44 45  1  0
 44 46  2  0
 46 47  1  0
 46 48  1  0
 48 49  1  0
 48 50  2  0
 50 51  1  0
  7 52  1  0
 52 53  1  0
 52 54  2  0
 54 55  1  0
 54  2  1  0
 36 27  1  0
 50 41  1  0
M  END
>  <UniqueID>  (14) 
14

>  <SMILES>  (14) 
O=C(N[C@H](Cc1ccccc1)C(=O)CBr)/C(Cc1ccc(Cl)cc1)=N\C(=O)c1ccccc1

>  <Energy>  (14) 
63.45231359121176

>  <Genealogy>  (14) 
O=C(N[C@H](Cc1ccccc1)C(=O)CBr)C(Cc1ccc(Cl)cc1)=NC(=O)c1ccccc1 (chirality)
O=C(N[C@H](Cc1ccccc1)C(=O)CBr)/C(Cc1ccc(Cl)cc1)=N\C(=O)c1ccccc1 (cis-trans isomerization)
O=C(N[C@H](Cc1ccccc1)C(=O)CBr)/C(Cc1ccc(Cl)cc1)=N\C(=O)c1ccccc1 (3D coordinates assigned)
O=C(N[C@H](Cc1ccccc1)C(=O)CBr)/C(Cc1ccc(Cl)cc1)=N\C(=O)c1ccccc1 (optimized conformer: 63.45231359121176 kcal/mol)

>  <smiles>  (14) 
O=C(NC(Cc1ccccc1)C(=O)CBr)C(Cc1ccc(Cl)cc1)=NC(=O)c1ccccc1

>  <score_type>  (14) 
oracle

>  <origin>  (14) 
adg

>  <m_score__min__energy>  (14) 
-9.8300000000000001

>  <m_primary>  (14) 
energy

$$$$
14:0
     RDKit          3D

 33 34  0  0  0  0  0  0  0  0999 V2000
   59.2980   32.9160   50.3480 C   0  0  0  0  0  0  0  0  0  0  0  0
   59.8910   33.4400   49.0820 C   0  0  0  0  0  0  0  0  0  0  0  0
   61.1960   33.2620   48.6620 C   0  0  0  0  0  0  0  0  0  0  0  0
   61.2340   33.8340   47.4030 C   0  0  0  0  0  0  0  0  0  0  0  0
   62.4300   33.8300   46.4980 C   0  0  0  0  0  0  0  0  0  0  0  0
   60.0080   34.3310   47.1080 N   0  0  0  0  0  0  0  0  0  0  0  0
   59.5770   34.9850   45.9030 C   0  0  0  0  0  0  0  0  0  0  0  0
   60.0110   36.1400   45.6410 O   0  0  0  0  0  0  0  0  0  0  0  0
   58.6250   34.3190   44.9440 C   0  0  0  0  0  0  0  0  0  0  0  0
   57.8120   33.2320   45.6060 C   0  0  0  0  0  0  0  0  0  0  0  0
   56.9940   33.5420   46.5150 O   0  0  0  0  0  0  0  0  0  0  0  0
   57.9030   31.8160   45.1640 C   0  0  0  0  0  0  0  0  0  0  0  0
   57.0150   31.3300   44.1860 C   0  0  0  0  0  0  0  0  0  0  0  0
   57.0900   30.0000   43.7570 C   0  0  0  0  0  0  0  0  0  0  0  0
   58.0540   29.1440   44.2930 C   0  0  0  0  0  0  0  0  0  0  0  0
   58.1480   27.4780   43.7510 Cl  0  0  0  0  0  0  0  0  0  0  0  0
   58.9480   29.6170   45.2570 C   0  0  0  0  0  0  0  0  0  0  0  0
   58.8760   30.9450   45.6900 C   0  0  0  0  0  0  0  0  0  0  0  0
   59.1940   34.0680   48.1180 N   0  0  0  0  0  0  0  0  0  0  0  0
   59.8114   33.3696   51.2086 H   0  0  0  0  0  0  0  0  0  0  0  0
   58.2281   33.1692   50.3841 H   0  0  0  0  0  0  0  0  0  0  0  0
   59.4176   31.8231   50.3841 H   0  0  0  0  0  0  0  0  0  0  0  0
   62.0187   32.7753   49.2062 H   0  0  0  0  0  0  0  0  0  0  0  0
   63.3482   33.8269   47.1038 H   0  0  0  0  0  0  0  0  0  0  0  0
   62.4065   32.9319   45.8632 H   0  0  0  0  0  0  0  0  0  0  0  0
   62.4125   34.7282   45.8632 H   0  0  0  0  0  0  0  0  0  0  0  0
   57.9388   35.0788   44.5418 H   0  0  0  0  0  0  0  0  0  0  0  0
   59.2219   33.8540   44.1456 H   0  0  0  0  0  0  0  0  0  0  0  0
   56.2565   32.0005   43.7557 H   0  0  0  0  0  0  0  0  0  0  0  0
   56.3881   29.6283   42.9960 H   0  0  0  0  0  0  0  0  0  0  0  0
   59.7100   28.9436   45.6763 H   0  0  0  0  0  0  0  0  0  0  0  0
   59.5848   31.3116   46.4471 H   0  0  0  0  0  0  0  0  0  0  0  0
   58.1790   34.3130   48.1490 H   0  0  0  0  0  0  0  0  0  0  0  0
  1  2  1  0
  2  3  1  0
  3  4  2  0
  4  5  1  0
  4  6  1  0
  6  7  1  0
  7  8  2  0
  7  9  1  0
  9 10  1  0
 10 11  2  0
 10 12  1  0
 12 13  2  0
 13 14  1  0
 14 15  2  0
 15 16  1  0
 15 17  1  0
 17 18  2  0
  6 19  1  0
 19  2  2  0
 18 12  1  0
  1 20  1  0
  1 21  1  0
  1 22  1  0
  3 23  1  0
  5 24  1  0
  5 25  1  0
  5 26  1  0
  9 27  1  0
  9 28  1  0
 13 29  1  0
 14 30  1  0
 17 31  1  0
 18 32  1  0
 19 33  1  0
M  CHG  1  19   1
M  END
>  <UniqueID>  (15) 
15

>  <SMILES>  (15) 
Cc1cc(C)n(C(=O)CC(=O)c2ccc(Cl)cc2)[nH+]1

>  <Energy>  (15) 
67.7072646211079

>  <Genealogy>  (15) 
Cc1cc(C)n(C(=O)CC(=O)c2ccc(Cl)cc2)[nH+]1 (protonated)
Cc1cc(C)n(C(=O)CC(=O)c2ccc(Cl)cc2)[nH+]1 (3D coordinates assigned)
Cc1cc(C)n(C(=O)CC(=O)c2ccc(Cl)cc2)[nH+]1 (optimized conformer: 67.7072646211079 kcal/mol)

>  <smiles>  (15) 
Cc1cc(C)n(C(=O)CC(=O)c2ccc(Cl)cc2)n1

>  <score_type>  (15) 
oracle

>  <origin>  (15) 
adg

>  <m_score__min__energy>  (15) 
-6.54

>  <m_primary>  (15) 
energy

$$$$
15:0
     RDKit          3D

 47 49  0  0  0  0  0  0  0  0999 V2000
   55.9390   23.8770   44.7290 C   0  0  0  0  0  0  0  0  0  0  0  0
   55.9310   25.3900   45.6690 S   0  0  0  0  0  0  0  0  0  0  0  0
   54.5410   25.9600   45.6410 O   0  0  0  0  0  0  0  0  0  0  0  0
   56.3140   25.1230   47.0980 O   0  0  0  0  0  0  0  0  0  0  0  0
   57.0220   26.5400   44.9640 N   0  0  0  0  0  0  0  0  0  0  0  0
   57.8980   27.4040   45.7140 C   0  0  0  0  0  0  0  0  0  0  0  0
   57.7220   27.5110   47.1020 C   0  0  0  0  0  0  0  0  0  0  0  0
   58.5530   28.3370   47.8640 C   0  0  0  0  0  0  0  0  0  0  0  0
   59.5860   29.0650   47.2540 C   0  0  0  0  0  0  0  0  0  0  0  0
   60.4650   29.9410   48.0640 C   0  0  0  0  0  0  0  0  0  0  0  0
   61.3460   29.4200   48.8010 O   0  0  0  0  0  0  0  0  0  0  0  0
   60.3260   31.3770   48.0290 N   0  0  0  0  0  0  0  0  0  0  0  0
   58.9830   31.9790   48.0200 C   0  0  0  0  0  0  0  0  0  0  0  0
   58.5900   32.4160   46.6240 C   0  0  0  0  0  0  0  0  0  0  0  0
   57.9310   31.5000   45.7830 C   0  0  0  0  0  0  0  0  0  0  0  0
   57.5550   31.8640   44.4880 C   0  0  0  0  0  0  0  0  0  0  0  0
   57.8180   33.1490   44.0190 C   0  0  0  0  0  0  0  0  0  0  0  0
   58.4500   34.0790   44.8460 C   0  0  0  0  0  0  0  0  0  0  0  0
   58.8320   33.7280   46.1470 C   0  0  0  0  0  0  0  0  0  0  0  0
   59.6070   34.9660   47.1310 Cl  0  0  0  0  0  0  0  0  0  0  0  0
   61.4990   32.2130   48.1220 C   0  0  0  0  0  0  0  0  0  0  0  0
   62.5060   32.1340   47.1420 C   0  0  0  0  0  0  0  0  0  0  0  0
   63.6390   32.9480   47.2210 C   0  0  0  0  0  0  0  0  0  0  0  0
   63.7800   33.8500   48.2780 C   0  0  0  0  0  0  0  0  0  0  0  0
   62.7870   33.9400   49.2550 C   0  0  0  0  0  0  0  0  0  0  0  0
   61.6520   33.1280   49.1800 C   0  0  0  0  0  0  0  0  0  0  0  0
   59.7570   28.9680   45.8630 C   0  0  0  0  0  0  0  0  0  0  0  0
   58.9260   28.1420   45.1000 C   0  0  0  0  0  0  0  0  0  0  0  0
   55.9435   23.0183   45.4164 H   0  0  0  0  0  0  0  0  0  0  0  0
   55.0411   23.8344   44.0950 H   0  0  0  0  0  0  0  0  0  0  0  0
   56.8373   23.8439   44.0950 H   0  0  0  0  0  0  0  0  0  0  0  0
   57.0660   26.5640   43.9200 H   0  0  0  0  0  0  0  0  0  0  0  0
   56.9222   26.9392   47.5952 H   0  0  0  0  0  0  0  0  0  0  0  0
   58.3961   28.4170   48.9498 H   0  0  0  0  0  0  0  0  0  0  0  0
   58.2550   31.2384   48.3828 H   0  0  0  0  0  0  0  0  0  0  0  0
   58.9928   32.8641   48.6731 H   0  0  0  0  0  0  0  0  0  0  0  0
   57.7097   30.4867   46.1494 H   0  0  0  0  0  0  0  0  0  0  0  0
   57.0503   31.1347   43.8374 H   0  0  0  0  0  0  0  0  0  0  0  0
   57.5274   33.4310   42.9962 H   0  0  0  0  0  0  0  0  0  0  0  0
   58.6494   35.0946   44.4734 H   0  0  0  0  0  0  0  0  0  0  0  0
   62.4003   31.4257   46.3071 H   0  0  0  0  0  0  0  0  0  0  0  0
   64.4205   32.8783   46.4501 H   0  0  0  0  0  0  0  0  0  0  0  0
   64.6731   34.4891   48.3406 H   0  0  0  0  0  0  0  0  0  0  0  0
   62.8982   34.6519   50.0861 H   0  0  0  0  0  0  0  0  0  0  0  0
   60.8732   33.2047   49.9531 H   0  0  0  0  0  0  0  0  0  0  0  0
   60.5517   29.5470   45.3697 H   0  0  0  0  0  0  0  0  0  0  0  0
   59.0771   28.0689   44.0129 H   0  0  0  0  0  0  0  0  0  0  0  0
  1  2  1  0
  2  3  2  0
  2  4  2  0
  2  5  1  0
  5  6  1  0
  6  7  2  0
  7  8  1  0
  8  9  2  0
  9 10  1  0
 10 11  2  0
 10 12  1  0
 12 13  1  0
 13 14  1  0
 14 15  2  0
 15 16  1  0
 16 17  2  0
 17 18  1  0
 18 19  2  0
 19 20  1  0
 12 21  1  0
 21 22  2  0
 22 23  1  0
 23 24  2  0
 24 25  1  0
 25 26  2  0
  9 27  1  0
 27 28  2  0
 28  6  1  0
 19 14  1  0
 26 21  1  0
  1 29  1  0
  1 30  1  0
  1 31  1  0
  5 32  1  0
  7 33  1  0
  8 34  1  0
 13 35  1  0
 13 36  1  0
 15 37  1  0
 16 38  1  0
 17 39  1  0
 18 40  1  0
 22 41  1  0
 23 42  1  0
 24 43  1  0
 25 44  1  0
 26 45  1  0
 27 46  1  0
 28 47  1  0
M  END
>  <UniqueID>  (16) 
16

>  <SMILES>  (16) 
CS(=O)(=O)Nc1ccc(C(=O)N(Cc2ccccc2Cl)c2ccccc2)cc1

>  <Energy>  (16) 
58.240688072090315

>  <Genealogy>  (16) 
CS(=O)(=O)Nc1ccc(C(=O)N(Cc2ccccc2Cl)c2ccccc2)cc1 (3D coordinates assigned)
CS(=O)(=O)Nc1ccc(C(=O)N(Cc2ccccc2Cl)c2ccccc2)cc1 (optimized conformer: 58.240688072090315 kcal/mol)

>  <smiles>  (16) 
CS(=O)(=O)Nc1ccc(C(=O)N(Cc2ccccc2Cl)c2ccccc2)cc1

>  <score_type>  (16) 
oracle

>  <origin>  (16) 
adg

>  <m_score__min__energy>  (16) 
-9.3800000000000008

>  <m_primary>  (16) 
energy

$$$$
16:0
     RDKit          3D

 50 52  0  0  0  0  0  0  0  0999 V2000
   59.2480   35.7040   44.8780 C   0  0  0  0  0  0  0  0  0  0  0  0
   59.3230   34.8160   46.0920 C   0  0  0  0  0  0  0  0  0  0  0  0
   60.4120   34.9730   46.9660 C   0  0  0  0  0  0  0  0  0  0  0  0
   60.5150   34.2050   48.1250 C   0  0  0  0  0  0  0  0  0  0  0  0
   59.5320   33.2640   48.4340 C   0  0  0  0  0  0  0  0  0  0  0  0
   59.6890   32.2940   49.8990 S   0  0  0  0  0  0  0  0  0  0  0  0
   60.8010   32.8650   50.7350 O   0  0  0  0  0  0  0  0  0  0  0  0
   58.4130   32.3470   50.6950 O   0  0  0  0  0  0  0  0  0  0  0  0
   60.0490   30.6380   49.4700 N   0  0  0  0  0  0  0  0  0  0  0  0
   61.2990   30.5590   48.6590 C   0  0  0  0  0  0  0  0  0  0  0  0
   61.0960   29.9830   47.2490 C   0  0  0  0  0  0  0  0  0  0  0  0
   60.3260   28.7350   47.3190 N   0  0  0  0  0  0  0  0  0  0  0  0
   60.5850   27.6730   46.3760 C   0  0  0  0  0  0  0  0  0  0  0  0
   61.2610   27.9140   45.3360 O   0  0  0  0  0  0  0  0  0  0  0  0
   60.0070   26.2940   46.5680 C   0  0  0  0  0  0  0  0  0  0  0  0
   58.5120   26.2910   46.3760 C   0  0  0  0  0  0  0  0  0  0  0  0
   57.7340   25.2240   46.8570 C   0  0  0  0  0  0  0  0  0  0  0  0
   56.3440   25.2410   46.7020 C   0  0  0  0  0  0  0  0  0  0  0  0
   55.7210   26.3240   46.0750 C   0  0  0  0  0  0  0  0  0  0  0  0
   54.3400   26.3380   45.9220 O   0  0  0  0  0  0  0  0  0  0  0  0
   56.4880   27.3940   45.6040 C   0  0  0  0  0  0  0  0  0  0  0  0
   57.8780   27.3820   45.7570 C   0  0  0  0  0  0  0  0  0  0  0  0
   59.1900   28.6540   48.2460 C   0  0  0  0  0  0  0  0  0  0  0  0
   58.8630   30.0340   48.8270 C   0  0  0  0  0  0  0  0  0  0  0  0
   58.4500   33.0810   47.5650 C   0  0  0  0  0  0  0  0  0  0  0  0
   58.3320   33.8370   46.3820 C   0  0  0  0  0  0  0  0  0  0  0  0
   57.1740   33.5720   45.4880 C   0  0  0  0  0  0  0  0  0  0  0  0
   56.8220   32.3860   45.2460 O   0  0  0  0  0  0  0  0  0  0  0  0
   56.4820   34.6090   44.8750 O   0  0  0  0  0  0  0  0  0  0  0  0
   59.1594   36.7533   45.1961 H   0  0  0  0  0  0  0  0  0  0  0  0
   60.1599   35.5793   44.2756 H   0  0  0  0  0  0  0  0  0  0  0  0
   58.3700   35.4281   44.2756 H   0  0  0  0  0  0  0  0  0  0  0  0
   61.1933   35.7114   46.7327 H   0  0  0  0  0  0  0  0  0  0  0  0
   61.3742   34.3413   48.7982 H   0  0  0  0  0  0  0  0  0  0  0  0
   60.2110   30.1280   50.3710 H   0  0  0  0  0  0  0  0  0  0  0  0
   61.7124   31.5737   48.5615 H   0  0  0  0  0  0  0  0  0  0  0  0
   61.9775   29.8731   49.1875 H   0  0  0  0  0  0  0  0  0  0  0  0
   60.5503   30.7129   46.6331 H   0  0  0  0  0  0  0  0  0  0  0  0
   62.0787   29.7747   46.8007 H   0  0  0  0  0  0  0  0  0  0  0  0
   60.4628   25.6102   45.8368 H   0  0  0  0  0  0  0  0  0  0  0  0
   60.2240   25.9685   47.5961 H   0  0  0  0  0  0  0  0  0  0  0  0
   58.2197   24.3730   47.3569 H   0  0  0  0  0  0  0  0  0  0  0  0
   55.7399   24.4005   47.0742 H   0  0  0  0  0  0  0  0  0  0  0  0
   55.9972   28.2468   45.1122 H   0  0  0  0  0  0  0  0  0  0  0  0
   58.4771   28.2292   45.3917 H   0  0  0  0  0  0  0  0  0  0  0  0
   58.3107   28.2721   47.7065 H   0  0  0  0  0  0  0  0  0  0  0  0
   59.4559   27.9775   49.0716 H   0  0  0  0  0  0  0  0  0  0  0  0
   58.5202   30.6929   48.0156 H   0  0  0  0  0  0  0  0  0  0  0  0
   58.0774   29.9144   49.5876 H   0  0  0  0  0  0  0  0  0  0  0  0
   57.6795   32.3350   47.8097 H   0  0  0  0  0  0  0  0  0  0  0  0
  1  2  1  0
  2  3  2  0
  3  4  1  0
  4  5  2  0
  5  6  1  0
  6  7  2  0
  6  8  2  0
  6  9  1  0
  9 10  1  0
 10 11  1  0
 11 12  1  0
 12 13  1  0
 13 14  2  0
 13 15  1  0
 15 16  1  0
 16 17  2  0
 17 18  1  0
 18 19  2  0
 19 20  1  0
 19 21  1  0
 21 22  2  0
 12 23  1  0
 23 24  1  0
  5 25  1  0
 25 26  2  0
 26 27  1  0
 27 28  2  0
 27 29  1  0
 26  2  1  0
 24  9  1  0
 22 16  1  0
  1 30  1  0
  1 31  1  0
  1 32  1  0
  3 33  1  0
  4 34  1  0
  9 35  1  0
 10 36  1  0
 10 37  1  0
 11 38  1  0
 11 39  1  0
 15 40  1  0
 15 41  1  0
 17 42  1  0
 18 43  1  0
 21 44  1  0
 22 45  1  0
 23 46  1  0
 23 47  1  0
 24 48  1  0
 24 49  1  0
 25 50  1  0
M  CHG  3   9   1  20  -1  29  -1
M  END
>  <UniqueID>  (17) 
17

>  <SMILES>  (17) 
Cc1ccc(S(=O)(=O)[NH+]2CCN(C(=O)Cc3ccc([O-])cc3)CC2)cc1C(=O)[O-]

>  <Energy>  (17) 
61.18325758472342

>  <Genealogy>  (17) 
Cc1ccc(S(=O)(=O)[NH+]2CCN(C(=O)Cc3ccc([O-])cc3)CC2)cc1C(=O)[O-] (protonated)
Cc1ccc(S(=O)(=O)[NH+]2CCN(C(=O)Cc3ccc([O-])cc3)CC2)cc1C(=O)[O-] (3D coordinates assigned)
Cc1ccc(S(=O)(=O)[NH+]2CCN(C(=O)Cc3ccc([O-])cc3)CC2)cc1C(=O)[O-] (nonaromatic ring conformer: 61.18325758472342 kcal/mol)

>  <smiles>  (17) 
Cc1ccc(S(=O)(=O)N2CCN(C(=O)Cc3ccc(O)cc3)CC2)cc1C(=O)O

>  <score_type>  (17) 
oracle

>  <origin>  (17) 
adg

>  <m_score__min__energy>  (17) 
-12.859999999999999

>  <m_primary>  (17) 
energy

$$$$
17:0
     RDKit          3D

 60 63  0  0  0  0  0  0  0  0999 V2000
   57.8880   32.6970   41.2810 C   0  0  0  0  0  0  0  0  0  0  0  0
   57.8980   31.6210   42.3740 C   0  0  0  0  0  0  0  0  0  0  0  0
   56.6270   30.7670   42.3030 C   0  0  0  0  0  0  0  0  0  0  0  0
   58.0290   32.2620   43.7440 C   0  0  0  0  0  0  0  0  0  0  0  0
   58.3820   33.5760   43.8050 N   0  0  0  0  0  0  0  0  0  0  0  0
   58.5870   34.2320   44.9770 C   0  0  0  0  0  0  0  0  0  0  0  0
   58.9150   35.4480   44.9520 O   0  0  0  0  0  0  0  0  0  0  0  0
   58.4430   33.5500   46.1960 C   0  0  0  0  0  0  0  0  0  0  0  0
   58.7170   34.2250   47.5180 C   0  0  0  0  0  0  0  0  0  0  0  0
   59.9420   33.6330   48.1600 C   0  0  0  0  0  0  0  0  0  0  0  0
   59.8840   33.1220   49.4680 C   0  0  0  0  0  0  0  0  0  0  0  0
   61.0340   32.6080   50.0750 C   0  0  0  0  0  0  0  0  0  0  0  0
   62.2490   32.6050   49.3860 C   0  0  0  0  0  0  0  0  0  0  0  0
   62.3200   33.1210   48.0870 C   0  0  0  0  0  0  0  0  0  0  0  0
   63.8490   33.1270   47.2260 Cl  0  0  0  0  0  0  0  0  0  0  0  0
   61.1710   33.6360   47.4760 C   0  0  0  0  0  0  0  0  0  0  0  0
   58.0870   32.1960   46.1670 C   0  0  0  0  0  0  0  0  0  0  0  0
   57.8550   31.5420   44.9510 C   0  0  0  0  0  0  0  0  0  0  0  0
   57.4440   30.1260   44.9870 C   0  0  0  0  0  0  0  0  0  0  0  0
   56.2160   29.8470   45.0560 O   0  0  0  0  0  0  0  0  0  0  0  0
   58.4330   29.0840   44.9330 N   0  0  0  0  0  0  0  0  0  0  0  0
   58.1260   27.6800   44.9270 C   0  0  0  0  0  0  0  0  0  0  0  0
   58.0540   26.9480   43.7290 C   0  0  0  0  0  0  0  0  0  0  0  0
   57.7740   25.5790   43.7540 C   0  0  0  0  0  0  0  0  0  0  0  0
   57.5810   24.9140   44.9750 C   0  0  0  0  0  0  0  0  0  0  0  0
   57.2770   23.5070   44.9950 N   0  0  0  0  0  0  0  0  0  0  0  0
   58.1190   22.5600   44.2500 C   0  0  0  0  0  0  0  0  0  0  0  0
   57.3040   21.3530   43.7300 C   0  0  0  0  0  0  0  0  0  0  0  0
   55.9470   21.3710   44.1360 O   0  0  0  0  0  0  0  0  0  0  0  0
   55.8680   21.5580   45.5320 C   0  0  0  0  0  0  0  0  0  0  0  0
   56.2100   23.0090   45.8720 C   0  0  0  0  0  0  0  0  0  0  0  0
   57.6720   25.6430   46.1720 C   0  0  0  0  0  0  0  0  0  0  0  0
   57.9530   27.0120   46.1470 C   0  0  0  0  0  0  0  0  0  0  0  0
   57.8787   33.6932   41.7473 H   0  0  0  0  0  0  0  0  0  0  0  0
   58.7872   32.5931   40.6559 H   0  0  0  0  0  0  0  0  0  0  0  0
   56.9909   32.5764   40.6559 H   0  0  0  0  0  0  0  0  0  0  0  0
   58.7654   30.9652   42.2080 H   0  0  0  0  0  0  0  0  0  0  0  0
   56.2831   30.5359   43.3220 H   0  0  0  0  0  0  0  0  0  0  0  0
   55.8420   31.3216   41.7680 H   0  0  0  0  0  0  0  0  0  0  0  0
   56.8438   29.8306   41.7680 H   0  0  0  0  0  0  0  0  0  0  0  0
   58.8783   35.3001   47.3504 H   0  0  0  0  0  0  0  0  0  0  0  0
   57.8544   34.0737   48.1837 H   0  0  0  0  0  0  0  0  0  0  0  0
   58.9304   33.1264   50.0162 H   0  0  0  0  0  0  0  0  0  0  0  0
   60.9817   32.2052   51.0973 H   0  0  0  0  0  0  0  0  0  0  0  0
   63.1511   32.1966   49.8649 H   0  0  0  0  0  0  0  0  0  0  0  0
   61.2293   34.0449   46.4565 H   0  0  0  0  0  0  0  0  0  0  0  0
   57.9885   31.6396   47.1108 H   0  0  0  0  0  0  0  0  0  0  0  0
   59.4390   29.3610   44.9900 H   0  0  0  0  0  0  0  0  0  0  0  0
   58.2189   27.4553   42.7670 H   0  0  0  0  0  0  0  0  0  0  0  0
   57.7044   25.0186   42.8100 H   0  0  0  0  0  0  0  0  0  0  0  0
   58.5688   23.0819   43.3925 H   0  0  0  0  0  0  0  0  0  0  0  0
   58.8936   22.1809   44.9328 H   0  0  0  0  0  0  0  0  0  0  0  0
   57.3387   21.3571   42.6306 H   0  0  0  0  0  0  0  0  0  0  0  0
   57.7580   20.4472   44.1581 H   0  0  0  0  0  0  0  0  0  0  0  0
   54.8477   21.3317   45.8751 H   0  0  0  0  0  0  0  0  0  0  0  0
   56.5807   20.8863   46.0328 H   0  0  0  0  0  0  0  0  0  0  0  0
   55.3132   23.6323   45.7403 H   0  0  0  0  0  0  0  0  0  0  0  0
   56.5565   23.0569   46.9149 H   0  0  0  0  0  0  0  0  0  0  0  0
   57.5212   25.1335   47.1351 H   0  0  0  0  0  0  0  0  0  0  0  0
   58.0390   27.5691   47.0916 H   0  0  0  0  0  0  0  0  0  0  0  0
  1  2  1  0
  2  3  1  0
  2  4  1  0
  4  5  1  0
  5  6  1  0
  6  7  2  0
  6  8  1  0
  8  9  1  0
  9 10  1  0
 10 11  2  0
 11 12  1  0
 12 13  2  0
 13 14  1  0
 14 15  1  0
 14 16  2  0
  8 17  2  0
 17 18  1  0
 18 19  1  0
 19 20  2  0
 19 21  1  0
 21 22  1  0
 22 23  2  0
 23 24  1  0
 24 25  2  0
 25 26  1  0
 26 27  1  0
 27 28  1  0
 28 29  1  0
 29 30  1  0
 30 31  1  0
 25 32  1  0
 32 33  2  0
 18  4  2  0
 33 22  1  0
 16 10  1  0
 31 26  1  0
  1 34  1  0
  1 35  1  0
  1 36  1  0
  2 37  1  0
  3 38  1  0
  3 39  1  0
  3 40  1  0
  9 41  1  0
  9 42  1  0
 11 43  1  0
 12 44  1  0
 13 45  1  0
 16 46  1  0
 17 47  1  0
 21 48  1  0
 23 49  1  0
 24 50  1  0
 27 51  1  0
 27 52  1  0
 28 53  1  0
 28 54  1  0
 30 55  1  0
 30 56  1  0
 31 57  1  0
 31 58  1  0
 32 59  1  0
 33 60  1  0
M  CHG  1   5  -1
M  END
>  <UniqueID>  (18) 
18

>  <SMILES>  (18) 
CC(C)c1[n-]c(=O)c(Cc2cccc(Cl)c2)cc1C(=O)Nc1ccc(N2CCOCC2)cc1

>  <Energy>  (18) 
80.53430352138244

>  <Genealogy>  (18) 
CC(C)c1[n-]c(=O)c(Cc2cccc(Cl)c2)cc1C(=O)Nc1ccc(N2CCOCC2)cc1 (protonated)
CC(C)c1[n-]c(=O)c(Cc2cccc(Cl)c2)cc1C(=O)Nc1ccc(N2CCOCC2)cc1 (3D coordinates assigned)
CC(C)c1[n-]c(=O)c(Cc2cccc(Cl)c2)cc1C(=O)Nc1ccc(N2CCOCC2)cc1 (nonaromatic ring conformer: 80.53430352138244 kcal/mol)

>  <smiles>  (18) 
CC(C)c1[nH]c(=O)c(Cc2cccc(Cl)c2)cc1C(=O)Nc1ccc(N2CCOCC2)cc1

>  <score_type>  (18) 
oracle

>  <origin>  (18) 
adg

>  <m_score__min__energy>  (18) 
-11.720000000000001

>  <m_primary>  (18) 
energy

$$$$
18:0
     RDKit          3D

 45 48  0  0  0  0  0  0  0  0999 V2000
   56.1870   26.3810   45.9960 N   0  0  0  0  0  0  0  0  0  0  0  0
   56.5490   27.4590   45.7780 C   0  0  0  0  0  0  0  0  0  0  0  0
   57.0030   28.8050   45.5050 C   0  0  0  0  0  0  0  0  0  0  0  0
   58.3000   29.2410   45.8630 C   0  0  0  0  0  0  0  0  0  0  0  0
   59.2550   28.3970   46.6200 C   0  0  0  0  0  0  0  0  0  0  0  0
   59.4650   28.6410   47.9880 C   0  0  0  0  0  0  0  0  0  0  0  0
   60.3330   27.8290   48.7260 C   0  0  0  0  0  0  0  0  0  0  0  0
   60.9880   26.7610   48.1090 C   0  0  0  0  0  0  0  0  0  0  0  0
   60.7670   26.4950   46.7550 C   0  0  0  0  0  0  0  0  0  0  0  0
   59.9010   27.3040   46.0130 C   0  0  0  0  0  0  0  0  0  0  0  0
   58.7010   30.4870   45.4950 N   0  0  0  0  0  0  0  0  0  0  0  0
   57.8790   31.3320   44.8230 C   0  0  0  0  0  0  0  0  0  0  0  0
   58.4530   32.9730   44.3930 S   0  0  0  0  0  0  0  0  0  0  0  0
   57.6790   33.7900   45.8330 C   0  0  0  0  0  0  0  0  0  0  0  0
   58.6190   33.8360   47.0010 C   0  0  0  0  0  0  0  0  0  0  0  0
   58.8540   34.9420   47.5630 O   0  0  0  0  0  0  0  0  0  0  0  0
   59.2280   32.6310   47.4870 N   0  0  0  0  0  0  0  0  0  0  0  0
   60.1010   32.6080   48.6610 C   0  0  0  0  0  0  0  0  0  0  0  0
   59.2810   32.4240   49.9060 C   0  0  0  0  0  0  0  0  0  0  0  0
   59.3030   33.4030   50.9330 C   0  0  0  0  0  0  0  0  0  0  0  0
   58.5660   33.2120   52.1190 C   0  0  0  0  0  0  0  0  0  0  0  0
   57.8320   32.0370   52.2460 C   0  0  0  0  0  0  0  0  0  0  0  0
   57.8130   31.0930   51.2700 C   0  0  0  0  0  0  0  0  0  0  0  0
   58.5260   31.2440   50.0830 C   0  0  0  0  0  0  0  0  0  0  0  0
   57.0140   30.0380   51.6650 O   0  0  0  0  0  0  0  0  0  0  0  0
   56.4980   30.3370   52.9700 C   0  0  0  0  0  0  0  0  0  0  0  0
   57.0440   31.6220   53.3030 O   0  0  0  0  0  0  0  0  0  0  0  0
   56.6280   30.9350   44.4840 N   0  0  0  0  0  0  0  0  0  0  0  0
   56.1750   29.6950   44.8020 C   0  0  0  0  0  0  0  0  0  0  0  0
   55.0130   29.3530   44.4540 O   0  0  0  0  0  0  0  0  0  0  0  0
   58.9441   29.4749   48.4812 H   0  0  0  0  0  0  0  0  0  0  0  0
   60.4998   28.0322   49.7941 H   0  0  0  0  0  0  0  0  0  0  0  0
   61.6775   26.1295   48.6885 H   0  0  0  0  0  0  0  0  0  0  0  0
   61.2753   25.6475   46.2720 H   0  0  0  0  0  0  0  0  0  0  0  0
   59.7238   27.0851   44.9497 H   0  0  0  0  0  0  0  0  0  0  0  0
   57.4007   34.8175   45.5558 H   0  0  0  0  0  0  0  0  0  0  0  0
   56.7894   33.2123   46.1245 H   0  0  0  0  0  0  0  0  0  0  0  0
   59.0200   31.7250   47.0090 H   0  0  0  0  0  0  0  0  0  0  0  0
   60.8146   31.7760   48.5683 H   0  0  0  0  0  0  0  0  0  0  0  0
   60.6463   33.5612   48.7248 H   0  0  0  0  0  0  0  0  0  0  0  0
   59.8997   34.3178   50.8024 H   0  0  0  0  0  0  0  0  0  0  0  0
   58.5710   33.9676   52.9184 H   0  0  0  0  0  0  0  0  0  0  0  0
   58.5016   30.4661   49.3056 H   0  0  0  0  0  0  0  0  0  0  0  0
   55.3989   30.3777   52.9506 H   0  0  0  0  0  0  0  0  0  0  0  0
   56.7730   29.5688   53.7077 H   0  0  0  0  0  0  0  0  0  0  0  0
  1  2  3  0
  2  3  1  0
  3  4  2  0
  4  5  1  0
  5  6  2  0
  6  7  1  0
  7  8  2  0
  8  9  1  0
  9 10  2  0
  4 11  1  0
 11 12  2  0
 12 13  1  0
 13 14  1  0
 14 15  1  0
 15 16  2  0
 15 17  1  0
 17 18  1  0
 18 19  1  0
 19 20  2  0
 20 21  1  0
 21 22  2  0
 22 23  1  0
 23 24  2  0
 23 25  1  0
 25 26  1  0
 26 27  1  0
 12 28  1  0
 28 29  1  0
 29 30  2  0
 29  3  1  0
 10  5  1  0
 24 19  1  0
 27 22  1  0
  6 31  1  0
  7 32  1  0
  8 33  1  0
  9 34  1  0
 10 35  1  0
 14 36  1  0
 14 37  1  0
 17 38  1  0
 18 39  1  0
 18 40  1  0
 20 41  1  0
 21 42  1  0
 24 43  1  0
 26 44  1  0
 26 45  1  0
M  CHG  1  28  -1
M  END
>  <UniqueID>  (19) 
19

>  <SMILES>  (19) 
N#Cc1c(-c2ccccc2)nc(SCC(=O)NCc2ccc3c(c2)OCO3)[n-]c1=O

>  <Energy>  (19) 
76.75983135884775

>  <Genealogy>  (19) 
N#Cc1c(-c2ccccc2)nc(SCC(=O)NCc2ccc3c(c2)OCO3)[n-]c1=O (protonated)
N#Cc1c(-c2ccccc2)nc(SCC(=O)NCc2ccc3c(c2)OCO3)[n-]c1=O (3D coordinates assigned)
N#Cc1c(-c2ccccc2)nc(SCC(=O)NCc2ccc3c(c2)OCO3)[n-]c1=O (nonaromatic ring conformer: 76.75983135884775 kcal/mol)

>  <smiles>  (19) 
N#Cc1c(-c2ccccc2)nc(SCC(=O)NCc2ccc3c(c2)OCO3)[nH]c1=O

>  <score_type>  (19) 
oracle

>  <origin>  (19) 
adg

>  <m_score__min__energy>  (19) 
-9.4900000000000002

>  <m_primary>  (19) 
energy

$$$$
19:0
     RDKit          3D

 84 88  0  0  0  0  0  0  0  0999 V2000
   58.1170   26.7220   42.5490 C   0  0  0  0  0  0  0  0  0  0  0  0
   58.1480   27.3120   43.7480 C   0  0  0  0  0  0  0  0  0  0  0  0
   59.2810   28.2090   44.1600 C   0  0  0  0  0  0  0  0  0  0  0  0
   58.8060   29.2780   45.0480 N   0  0  0  0  0  0  0  0  0  0  0  0
   57.6380   30.0710   44.7480 C   0  0  0  0  0  0  0  0  0  0  0  0
   56.5180   29.7190   45.2130 O   0  0  0  0  0  0  0  0  0  0  0  0
   57.7300   31.3460   43.9480 C   0  0  0  0  0  0  0  0  0  0  0  0
   58.0570   32.5250   44.8290 C   0  0  0  0  0  0  0  0  0  0  0  0
   58.8950   33.5520   44.3620 C   0  0  0  0  0  0  0  0  0  0  0  0
   59.2300   34.6230   45.1990 C   0  0  0  0  0  0  0  0  0  0  0  0
   58.7420   34.6680   46.5080 C   0  0  0  0  0  0  0  0  0  0  0  0
   57.9160   33.6430   46.9820 C   0  0  0  0  0  0  0  0  0  0  0  0
   57.5770   32.5740   46.1480 C   0  0  0  0  0  0  0  0  0  0  0  0
   59.5760   29.5980   46.2140 C   0  0  0  0  0  0  0  0  0  0  0  0
   59.6510   28.6880   47.2720 C   0  0  0  0  0  0  0  0  0  0  0  0
   60.4610   28.9610   48.3820 C   0  0  0  0  0  0  0  0  0  0  0  0
   60.5910   27.9770   49.4720 C   0  0  0  0  0  0  0  0  0  0  0  0
   60.3420   26.7660   49.2390 O   0  0  0  0  0  0  0  0  0  0  0  0
   60.9600   28.3670   50.8000 N   0  0  0  0  0  0  0  0  0  0  0  0
   60.0540   28.3290   51.9450 C   0  0  0  0  0  0  0  0  0  0  0  0
   60.1540   29.6310   52.7410 C   0  0  0  0  0  0  0  0  0  0  0  0
   59.7060   30.8100   51.9170 C   0  0  0  0  0  0  0  0  0  0  0  0
   60.2130   32.0940   52.1790 C   0  0  0  0  0  0  0  0  0  0  0  0
   59.8220   33.1790   51.3890 C   0  0  0  0  0  0  0  0  0  0  0  0
   58.9320   32.9900   50.3290 C   0  0  0  0  0  0  0  0  0  0  0  0
   58.4340   31.7130   50.0530 C   0  0  0  0  0  0  0  0  0  0  0  0
   58.8210   30.6250   50.8420 C   0  0  0  0  0  0  0  0  0  0  0  0
   61.1580   30.1750   48.4500 C   0  0  0  0  0  0  0  0  0  0  0  0
   61.0840   31.1030   47.3950 C   0  0  0  0  0  0  0  0  0  0  0  0
   61.8560   32.3240   47.4330 N   0  0  0  0  0  0  0  0  0  0  0  0
   63.2880   32.2970   47.0930 C   0  0  0  0  0  0  0  0  0  0  0  0
   64.0510   33.4400   47.7840 C   0  0  0  0  0  0  0  0  0  0  0  0
   63.5100   33.6990   49.2070 C   0  0  0  0  0  0  0  0  0  0  0  0
   63.8130   32.5110   50.1040 C   0  0  0  0  0  0  0  0  0  0  0  0
   62.8770   31.7350   50.4420 O   0  0  0  0  0  0  0  0  0  0  0  0
   65.1590   32.2060   50.5140 N   0  0  0  0  0  0  0  0  0  0  0  0
   65.5090   30.9710   51.1930 C   0  0  0  0  0  0  0  0  0  0  0  0
   66.9760   31.1130   51.5820 C   0  0  0  0  0  0  0  0  0  0  0  0
   67.5200   32.2720   50.7560 C   0  0  0  0  0  0  0  0  0  0  0  0
   66.3050   33.0750   50.3050 C   0  0  0  0  0  0  0  0  0  0  0  0
   61.9940   34.0560   49.1860 C   0  0  0  0  0  0  0  0  0  0  0  0
   61.2730   33.5830   47.9110 C   0  0  0  0  0  0  0  0  0  0  0  0
   60.3000   30.7950   46.2710 C   0  0  0  0  0  0  0  0  0  0  0  0
   57.2728   26.0708   42.2781 H   0  0  0  0  0  0  0  0  0  0  0  0
   58.9357   26.8876   41.8332 H   0  0  0  0  0  0  0  0  0  0  0  0
   57.3216   27.1361   44.4523 H   0  0  0  0  0  0  0  0  0  0  0  0
   60.0392   27.6122   44.6882 H   0  0  0  0  0  0  0  0  0  0  0  0
   59.7129   28.6670   43.2580 H   0  0  0  0  0  0  0  0  0  0  0  0
   58.5188   31.2364   43.1892 H   0  0  0  0  0  0  0  0  0  0  0  0
   56.7547   31.5283   43.4732 H   0  0  0  0  0  0  0  0  0  0  0  0
   59.2889   33.5142   43.3356 H   0  0  0  0  0  0  0  0  0  0  0  0
   59.8779   35.4299   44.8261 H   0  0  0  0  0  0  0  0  0  0  0  0
   59.0073   35.5091   47.1654 H   0  0  0  0  0  0  0  0  0  0  0  0
   57.5329   33.6786   48.0125 H   0  0  0  0  0  0  0  0  0  0  0  0
   56.9315   31.7676   46.5262 H   0  0  0  0  0  0  0  0  0  0  0  0
   59.0718   27.7537   47.2331 H   0  0  0  0  0  0  0  0  0  0  0  0
   59.0218   28.2001   51.5874 H   0  0  0  0  0  0  0  0  0  0  0  0
   60.3337   27.4878   52.5962 H   0  0  0  0  0  0  0  0  0  0  0  0
   59.5168   29.5550   53.6344 H   0  0  0  0  0  0  0  0  0  0  0  0
   61.2053   29.7849   53.0258 H   0  0  0  0  0  0  0  0  0  0  0  0
   60.9197   32.2459   53.0082 H   0  0  0  0  0  0  0  0  0  0  0  0
   60.2159   34.1836   51.6025 H   0  0  0  0  0  0  0  0  0  0  0  0
   58.6229   33.8461   49.7113 H   0  0  0  0  0  0  0  0  0  0  0  0
   57.7374   31.5640   49.2148 H   0  0  0  0  0  0  0  0  0  0  0  0
   58.4309   29.6208   50.6199 H   0  0  0  0  0  0  0  0  0  0  0  0
   61.7683   30.4043   49.3360 H   0  0  0  0  0  0  0  0  0  0  0  0
   63.7143   31.3357   47.4158 H   0  0  0  0  0  0  0  0  0  0  0  0
   63.3877   32.4227   46.0048 H   0  0  0  0  0  0  0  0  0  0  0  0
   65.1157   33.1715   47.8493 H   0  0  0  0  0  0  0  0  0  0  0  0
   63.9152   34.3558   47.1899 H   0  0  0  0  0  0  0  0  0  0  0  0
   64.0253   34.5758   49.6262 H   0  0  0  0  0  0  0  0  0  0  0  0
   64.8861   30.8369   52.0897 H   0  0  0  0  0  0  0  0  0  0  0  0
   65.3435   30.0941   50.5498 H   0  0  0  0  0  0  0  0  0  0  0  0
   67.0669   31.3334   52.6559 H   0  0  0  0  0  0  0  0  0  0  0  0
   67.5349   30.1851   51.3907 H   0  0  0  0  0  0  0  0  0  0  0  0
   68.1858   32.8980   51.3682 H   0  0  0  0  0  0  0  0  0  0  0  0
   68.1068   31.9136   49.8974 H   0  0  0  0  0  0  0  0  0  0  0  0
   66.2062   33.9911   50.9059 H   0  0  0  0  0  0  0  0  0  0  0  0
   66.3918   33.3863   49.2535 H   0  0  0  0  0  0  0  0  0  0  0  0
   61.5123   33.5835   50.0548 H   0  0  0  0  0  0  0  0  0  0  0  0
   61.9179   35.1530   49.2145 H   0  0  0  0  0  0  0  0  0  0  0  0
   60.2070   33.4278   48.1334 H   0  0  0  0  0  0  0  0  0  0  0  0
   61.3876   34.3493   47.1302 H   0  0  0  0  0  0  0  0  0  0  0  0
   60.2544   31.5004   45.4282 H   0  0  0  0  0  0  0  0  0  0  0  0
  1  2  2  0
  2  3  1  0
  3  4  1  0
  4  5  1  0
  5  6  2  0
  5  7  1  0
  7  8  1  0
  8  9  2  0
  9 10  1  0
 10 11  2  0
 11 12  1  0
 12 13  2  0
  4 14  1  0
 14 15  2  0
 15 16  1  0
 16 17  1  0
 17 18  2  0
 17 19  1  0
 19 20  1  0
 20 21  1  0
 21 22  1  0
 22 23  2  0
 23 24  1  0
 24 25  2  0
 25 26  1  0
 26 27  2  0
 16 28  2  0
 28 29  1  0
 29 30  1  0
 30 31  1  0
 31 32  1  0
 32 33  1  0
 33 34  1  0
 34 35  2  0
 34 36  1  0
 36 37  1  0
 37 38  1  0
 38 39  1  0
 39 40  1  0
 33 41  1  0
 41 42  1  0
 29 43  2  0
 13  8  1  0
 43 14  1  0
 27 22  1  0
 42 30  1  0
 40 36  1  0
  1 44  1  0
  1 45  1  0
  2 46  1  0
  3 47  1  0
  3 48  1  0
  7 49  1  0
  7 50  1  0
  9 51  1  0
 10 52  1  0
 11 53  1  0
 12 54  1  0
 13 55  1  0
 15 56  1  0
 20 57  1  0
 20 58  1  0
 21 59  1  0
 21 60  1  0
 23 61  1  0
 24 62  1  0
 25 63  1  0
 26 64  1  0
 27 65  1  0
 28 66  1  0
 31 67  1  0
 31 68  1  0
 32 69  1  0
 32 70  1  0
 33 71  1  0
 37 72  1  0
 37 73  1  0
 38 74  1  0
 38 75  1  0
 39 76  1  0
 39 77  1  0
 40 78  1  0
 40 79  1  0
 41 80  1  0
 41 81  1  0
 42 82  1  0
 42 83  1  0
 43 84  1  0
M  CHG  1  19  -1
M  END
>  <UniqueID>  (20) 
20

>  <SMILES>  (20) 
C=CCN(C(=O)Cc1ccccc1)c1cc(C(=O)[N-]CCc2ccccc2)cc(N2CCC(C(=O)N3CCCC3)CC2)c1

>  <Energy>  (20) 
98.46299583133452

>  <Genealogy>  (20) 
C=CCN(C(=O)Cc1ccccc1)c1cc(C(=O)[N-]CCc2ccccc2)cc(N2CCC(C(=O)N3CCCC3)CC2)c1 (protonated)
C=CCN(C(=O)Cc1ccccc1)c1cc(C(=O)[N-]CCc2ccccc2)cc(N2CCC(C(=O)N3CCCC3)CC2)c1 (3D coordinates assigned)
C=CCN(C(=O)Cc1ccccc1)c1cc(C(=O)[N-]CCc2ccccc2)cc(N2CCC(C(=O)N3CCCC3)CC2)c1 (nonaromatic ring conformer: 98.46299583133452 kcal/mol)

>  <smiles>  (20) 
C=CCN(C(=O)Cc1ccccc1)c1cc(C(=O)NCCc2ccccc2)cc(N2CCC(C(=O)N3CCCC3)CC2)c1

>  <score_type>  (20) 
oracle

>  <origin>  (20) 
adg

>  <m_score__min__energy>  (20) 
-12.300000000000001

>  <m_primary>  (20) 
energy

$$$$
20:0
     RDKit          3D

 38 39  0  0  0  0  0  0  0  0999 V2000
   54.6550   26.5150   46.7360 H   0  0  0  0  0  0  0  0  0  0  0  0
   55.4590   26.4250   46.0750 N   0  0  0  0  0  0  0  0  0  0  0  0
   56.3040   27.3870   45.8840 C   0  0  0  0  0  0  0  0  0  0  0  0
   55.8980   28.5130   45.2460 N   0  0  0  0  0  0  0  0  0  0  0  0
   56.7490   29.5480   45.0310 C   0  0  0  0  0  0  0  0  0  0  0  0
   56.3420   30.5630   44.4060 O   0  0  0  0  0  0  0  0  0  0  0  0
   58.0740   29.4700   45.4850 C   0  0  0  0  0  0  0  0  0  0  0  0
   59.0130   30.5300   45.2350 N   0  0  0  0  0  0  0  0  0  0  0  0
   59.9040   30.2870   44.7450 H   0  0  0  0  0  0  0  0  0  0  0  0
   58.8420   31.8800   45.7010 C   0  0  0  0  0  0  0  0  0  0  0  0
   58.2980   32.8800   44.8700 C   0  0  0  0  0  0  0  0  0  0  0  0
   58.0119   32.6379   43.8358 H   0  0  0  0  0  0  0  0  0  0  0  0
   58.1210   34.1780   45.3560 C   0  0  0  0  0  0  0  0  0  0  0  0
   57.7040   34.9567   44.7005 H   0  0  0  0  0  0  0  0  0  0  0  0
   58.4720   34.4900   46.6720 C   0  0  0  0  0  0  0  0  0  0  0  0
   58.3363   35.5141   47.0498 H   0  0  0  0  0  0  0  0  0  0  0  0
   58.9950   33.5010   47.5070 C   0  0  0  0  0  0  0  0  0  0  0  0
   59.2667   33.7453   48.5446 H   0  0  0  0  0  0  0  0  0  0  0  0
   59.1740   32.2000   47.0260 C   0  0  0  0  0  0  0  0  0  0  0  0
   59.5778   31.4224   47.6910 H   0  0  0  0  0  0  0  0  0  0  0  0
   58.4860   28.2890   46.1250 C   0  0  0  0  0  0  0  0  0  0  0  0
   59.8340   28.1510   46.6080 N   0  0  0  0  0  0  0  0  0  0  0  0
   60.2590   28.9080   47.7890 C   0  0  0  0  0  0  0  0  0  0  0  0
   61.0733   28.3668   48.2930 H   0  0  0  0  0  0  0  0  0  0  0  0
   60.6069   29.9017   47.4704 H   0  0  0  0  0  0  0  0  0  0  0  0
   59.0940   29.0780   48.7570 C   0  0  0  0  0  0  0  0  0  0  0  0
   59.4655   29.0238   49.7910 H   0  0  0  0  0  0  0  0  0  0  0  0
   58.6176   30.0552   48.5893 H   0  0  0  0  0  0  0  0  0  0  0  0
   58.3582   28.2777   48.5893 H   0  0  0  0  0  0  0  0  0  0  0  0
   60.7040   27.1090   46.0470 C   0  0  0  0  0  0  0  0  0  0  0  0
   60.7551   27.2290   44.9548 H   0  0  0  0  0  0  0  0  0  0  0  0
   61.7078   27.2082   46.4858 H   0  0  0  0  0  0  0  0  0  0  0  0
   60.1560   25.7250   46.3750 C   0  0  0  0  0  0  0  0  0  0  0  0
   60.1063   25.5996   47.4667 H   0  0  0  0  0  0  0  0  0  0  0  0
   59.1480   25.6190   45.9475 H   0  0  0  0  0  0  0  0  0  0  0  0
   60.8182   24.9577   45.9475 H   0  0  0  0  0  0  0  0  0  0  0  0
   57.5930   27.2770   46.3150 N   0  0  0  0  0  0  0  0  0  0  0  0
   57.9000   26.4130   46.8170 H   0  0  0  0  0  0  0  0  0  0  0  0
  1  2  1  0
  2  3  2  0
  3  4  1  0
  4  5  1  0
  5  6  2  0
  5  7  1  0
  7  8  1  0
  8  9  1  0
  8 10  1  0
 10 11  2  0
 11 12  1  0
 11 13  1  0
 13 14  1  0
 13 15  2  0
 15 16  1  0
 15 17  1  0
 17 18  1  0
 17 19  2  0
 19 20  1  0
  7 21  2  0
 21 22  1  0
 22 23  1  0
 23 24  1  0
 23 25  1  0
 23 26  1  0
 26 27  1  0
 26 28  1  0
 26 29  1  0
 22 30  1  0
 30 31  1  0
 30 32  1  0
 30 33  1  0
 33 34  1  0
 33 35  1  0
 33 36  1  0
 21 37  1  0
 37 38  1  0
 37  3  1  0
 19 10  1  0
M  CHG  1   4  -1
M  END
>  <UniqueID>  (21) 
21

>  <SMILES>  (21) 
[H]/N=c1/[n-]c(=O)c(Nc2ccccc2)c(N(CC)CC)[nH]1

>  <Energy>  (21) 
42.610831699319135

>  <Genealogy>  (21) 
CCN(CC)c1[nH]c(=N)[n-]c(=O)c1Nc1ccccc1 (protonated)
[H]/N=c1/[n-]c(=O)c(Nc2ccccc2)c(N(CC)CC)[nH]1 (cis-trans isomerization)
[H]/N=c1/[n-]c(=O)c(Nc2ccccc2)c(N(CC)CC)[nH]1 (3D coordinates assigned)
[H]/N=c1/[n-]c(=O)c(Nc2ccccc2)c(N(CC)CC)[nH]1 (optimized conformer: 42.610831699319135 kcal/mol)

>  <smiles>  (21) 
CCN(CC)c1[nH]c(=N)[nH]c(=O)c1Nc1ccccc1

>  <score_type>  (21) 
oracle

>  <origin>  (21) 
adg

>  <m_score__min__energy>  (21) 
-7.8899999999999997

>  <m_primary>  (21) 
energy

$$$$
21:0
     RDKit          3D

 77 81  0  0  0  0  0  0  0  0999 V2000
   58.2110   33.0890   47.9230 C   0  0  0  0  0  0  0  0  0  0  0  0
   59.0300   33.1110   46.6040 C   0  0  2  0  0  0  0  0  0  0  0  0
   58.0990   33.1040   45.3580 C   0  0  0  0  0  0  0  0  0  0  0  0
   57.9260   31.6880   44.7290 C   0  0  0  0  0  0  0  0  0  0  0  0
   58.0400   30.5190   45.7640 C   0  0  2  0  0  0  0  0  0  0  0  0
   59.3870   30.5720   46.5900 C   0  0  1  0  0  0  0  0  0  0  0  0
   60.3850   29.4940   46.1490 C   0  0  0  0  0  0  0  0  0  0  0  0
   59.8060   28.0770   46.2140 C   0  0  0  0  0  0  0  0  0  0  0  0
   58.2560   27.9790   46.1040 C   0  0  2  0  0  0  0  0  0  0  0  0
   57.8880   26.5170   45.6810 C   0  0  1  0  0  0  0  0  0  0  0  0
   56.5980   25.9230   46.3170 C   0  0  0  0  0  0  0  0  0  0  0  0
   56.7990   24.9510   47.4940 C   0  0  0  0  0  0  0  0  0  0  0  0
   57.3720   23.6250   47.0890 C   0  0  0  0  0  0  0  0  0  0  0  0
   57.2730   22.6440   47.8760 O   0  0  0  0  0  0  0  0  0  0  0  0
   57.9630   23.4670   45.8330 O   0  0  0  0  0  0  0  0  0  0  0  0
   57.7670   22.3010   45.0400 C   0  0  0  0  0  0  0  0  0  0  0  0
   56.6830   22.5280   43.9700 C   0  0  0  0  0  0  0  0  0  0  0  0
   55.2930   22.6000   44.4780 N   0  0  0  0  0  0  0  0  0  0  0  0
   55.0650   21.8150   45.7060 C   0  0  0  0  0  0  0  0  0  0  0  0
   53.6720   22.1110   46.2930 C   0  0  0  0  0  0  0  0  0  0  0  0
   52.8050   22.5860   45.2840 O   0  0  0  0  0  0  0  0  0  0  0  0
   53.2170   23.8770   44.8570 C   0  0  0  0  0  0  0  0  0  0  0  0
   54.7330   23.9580   44.5770 C   0  0  0  0  0  0  0  0  0  0  0  0
   57.8590   26.3280   44.1730 C   0  0  0  0  0  0  0  0  0  0  0  0
   57.8190   25.1880   43.7340 O   0  0  0  0  0  0  0  0  0  0  0  0
   57.8370   27.4600   43.1720 C   0  0  0  0  0  0  0  0  0  0  0  0
   58.1460   28.8620   43.7330 C   0  0  0  0  0  0  0  0  0  0  0  0
   57.6450   29.0910   45.1860 C   0  0  2  0  0  0  0  0  0  0  0  0
   56.0890   29.0070   45.1950 C   0  0  0  0  0  0  0  0  0  0  0  0
   60.0430   31.9680   46.4650 C   0  0  2  0  0  0  0  0  0  0  0  0
   61.2160   32.3370   47.3760 C   0  0  0  0  0  0  0  0  0  0  0  0
   61.3210   33.8640   47.2200 C   0  0  0  0  0  0  0  0  0  0  0  0
   59.9710   34.2670   46.7100 C   0  0  0  0  0  0  0  0  0  0  0  0
   59.6620   35.4240   46.4700 O   0  0  0  0  0  0  0  0  0  0  0  0
   58.8983   33.1075   48.7817 H   0  0  0  0  0  0  0  0  0  0  0  0
   57.5532   33.9698   47.9609 H   0  0  0  0  0  0  0  0  0  0  0  0
   57.6014   32.1742   47.9609 H   0  0  0  0  0  0  0  0  0  0  0  0
   58.5269   33.7743   44.5980 H   0  0  0  0  0  0  0  0  0  0  0  0
   57.1050   33.4378   45.6906 H   0  0  0  0  0  0  0  0  0  0  0  0
   58.7042   31.5509   43.9638 H   0  0  0  0  0  0  0  0  0  0  0  0
   56.9104   31.6459   44.3086 H   0  0  0  0  0  0  0  0  0  0  0  0
   57.2510   30.6939   46.5103 H   0  0  0  0  0  0  0  0  0  0  0  0
   59.1246   30.3766   47.6402 H   0  0  0  0  0  0  0  0  0  0  0  0
   61.2661   29.5427   46.8058 H   0  0  0  0  0  0  0  0  0  0  0  0
   60.6429   29.6953   45.0988 H   0  0  0  0  0  0  0  0  0  0  0  0
   60.1061   27.6323   47.1743 H   0  0  0  0  0  0  0  0  0  0  0  0
   60.2045   27.5481   45.3357 H   0  0  0  0  0  0  0  0  0  0  0  0
   57.7948   28.1791   47.0824 H   0  0  0  0  0  0  0  0  0  0  0  0
   58.7201   25.9366   46.1061 H   0  0  0  0  0  0  0  0  0  0  0  0
   55.9856   26.7627   46.6775 H   0  0  0  0  0  0  0  0  0  0  0  0
   56.1292   25.3251   45.5216 H   0  0  0  0  0  0  0  0  0  0  0  0
   57.4828   25.4185   48.2178 H   0  0  0  0  0  0  0  0  0  0  0  0
   55.8051   24.7547   47.9226 H   0  0  0  0  0  0  0  0  0  0  0  0
   58.7134   22.0429   44.5422 H   0  0  0  0  0  0  0  0  0  0  0  0
   57.4386   21.4839   45.6992 H   0  0  0  0  0  0  0  0  0  0  0  0
   56.9061   23.4750   43.4567 H   0  0  0  0  0  0  0  0  0  0  0  0
   56.7193   21.6482   43.3108 H   0  0  0  0  0  0  0  0  0  0  0  0
   55.1357   20.7435   45.4675 H   0  0  0  0  0  0  0  0  0  0  0  0
   55.8272   22.0927   46.4489 H   0  0  0  0  0  0  0  0  0  0  0  0
   53.2562   21.1881   46.7236 H   0  0  0  0  0  0  0  0  0  0  0  0
   53.7688   22.8808   47.0728 H   0  0  0  0  0  0  0  0  0  0  0  0
   52.6749   24.1318   43.9344 H   0  0  0  0  0  0  0  0  0  0  0  0
   52.9918   24.5827   45.6702 H   0  0  0  0  0  0  0  0  0  0  0  0
   54.9019   24.4930   43.6308 H   0  0  0  0  0  0  0  0  0  0  0  0
   55.2269   24.4965   45.3993 H   0  0  0  0  0  0  0  0  0  0  0  0
   56.8343   27.4912   42.7208 H   0  0  0  0  0  0  0  0  0  0  0  0
   58.6444   27.2410   42.4578 H   0  0  0  0  0  0  0  0  0  0  0  0
   57.6670   29.6076   43.0814 H   0  0  0  0  0  0  0  0  0  0  0  0
   59.2415   28.9585   43.7574 H   0  0  0  0  0  0  0  0  0  0  0  0
   55.7289   28.9876   46.2342 H   0  0  0  0  0  0  0  0  0  0  0  0
   55.6715   29.8839   44.6786 H   0  0  0  0  0  0  0  0  0  0  0  0
   55.7683   28.0902   44.6786 H   0  0  0  0  0  0  0  0  0  0  0  0
   60.4622   31.8568   45.4541 H   0  0  0  0  0  0  0  0  0  0  0  0
   62.1416   31.8429   47.0457 H   0  0  0  0  0  0  0  0  0  0  0  0
   61.0662   32.0209   48.4189 H   0  0  0  0  0  0  0  0  0  0  0  0
   62.1076   34.1307   46.4988 H   0  0  0  0  0  0  0  0  0  0  0  0
   61.5880   34.3694   48.1598 H   0  0  0  0  0  0  0  0  0  0  0  0
  2  1  1  1
  2  3  1  0
  3  4  1  0
  4  5  1  0
  5  6  1  0
  6  7  1  0
  7  8  1  0
  8  9  1  0
  9 10  1  0
 10 11  1  0
 11 12  1  0
 12 13  1  0
 13 14  2  0
 13 15  1  0
 15 16  1  0
 16 17  1  0
 17 18  1  0
 18 19  1  0
 19 20  1  0
 20 21  1  0
 21 22  1  0
 22 23  1  0
 10 24  1  0
 24 25  2  0
 24 26  1  0
 26 27  1  0
 27 28  1  0
 28 29  1  6
  6 30  1  0
 30 31  1  0
 31 32  1  0
 32 33  1  0
 33 34  2  0
 30  2  1  0
 33  2  1  0
 28  5  1  0
 28  9  1  0
 23 18  1  0
  1 35  1  0
  1 36  1  0
  1 37  1  0
  3 38  1  0
  3 39  1  0
  4 40  1  0
  4 41  1  0
  5 42  1  1
  6 43  1  1
  7 44  1  0
  7 45  1  0
  8 46  1  0
  8 47  1  0
  9 48  1  1
 10 49  1  1
 11 50  1  0
 11 51  1  0
 12 52  1  0
 12 53  1  0
 16 54  1  0
 16 55  1  0
 17 56  1  0
 17 57  1  0
 19 58  1  0
 19 59  1  0
 20 60  1  0
 20 61  1  0
 22 62  1  0
 22 63  1  0
 23 64  1  0
 23 65  1  0
 26 66  1  0
 26 67  1  0
 27 68  1  0
 27 69  1  0
 29 70  1  0
 29 71  1  0
 29 72  1  0
 30 73  1  6
 31 74  1  0
 31 75  1  0
 32 76  1  0
 32 77  1  0
M  END
>  <UniqueID>  (22) 
22

>  <SMILES>  (22) 
CC12CCC(=O)C(CCC(=O)OCCN3CCOCC3)C1CCC1C3CCC(=O)[C@@]3(C)CC[C@H]12

>  <Energy>  (22) 
120.586897402303

>  <Genealogy>  (22) 
CC12CCC(=O)C(CCC(=O)OCCN3CCOCC3)C1CCC1C3CCC(=O)[C@@]3(C)CC[C@H]12 (chirality)
CC12CCC(=O)C(CCC(=O)OCCN3CCOCC3)C1CCC1C3CCC(=O)[C@@]3(C)CC[C@H]12 (3D coordinates assigned)
CC12CCC(=O)C(CCC(=O)OCCN3CCOCC3)C1CCC1C3CCC(=O)[C@@]3(C)CC[C@H]12 (nonaromatic ring conformer: 120.586897402303 kcal/mol)

>  <smiles>  (22) 
CC12CCC3C(CCC4C(CCC(=O)OCCN5CCOCC5)C(=O)CCC43C)C1CCC2=O

>  <score_type>  (22) 
oracle

>  <origin>  (22) 
adg

>  <m_score__min__energy>  (22) 
-11.42

>  <m_primary>  (22) 
energy

$$$$
22:0
     RDKit          3D

 36 38  0  0  0  0  0  0  0  0999 V2000
   60.5350   27.4610   47.8020 O   0  0  0  0  0  0  0  0  0  0  0  0
   59.3470   27.7110   47.4630 C   0  0  0  0  0  0  0  0  0  0  0  0
   58.7780   27.1030   46.2060 C   0  0  0  0  0  0  0  0  0  0  0  0
   57.6400   27.9170   45.6470 C   0  0  0  0  0  0  0  0  0  0  0  0
   56.2750   27.6000   45.6190 C   0  0  0  0  0  0  0  0  0  0  0  0
   55.6410   26.3690   46.1260 C   0  0  0  0  0  0  0  0  0  0  0  0
   54.4000   26.2070   45.9940 O   0  0  0  0  0  0  0  0  0  0  0  0
   56.3860   25.3860   46.7620 O   0  0  0  0  0  0  0  0  0  0  0  0
   55.5490   28.6030   45.0680 N   0  0  0  0  0  0  0  0  0  0  0  0
   56.4490   29.5540   44.7610 C   0  0  0  0  0  0  0  0  0  0  0  0
   56.1810   30.7930   44.1800 C   0  0  0  0  0  0  0  0  0  0  0  0
   57.2610   31.6630   43.9520 C   0  0  0  0  0  0  0  0  0  0  0  0
   58.5730   31.2820   44.3080 C   0  0  0  0  0  0  0  0  0  0  0  0
   58.8160   30.0260   44.8930 C   0  0  0  0  0  0  0  0  0  0  0  0
   57.7230   29.1810   45.1020 C   0  0  0  0  0  0  0  0  0  0  0  0
   58.5420   28.5110   48.3400 N   0  0  0  0  0  0  0  0  0  0  0  0
   59.0440   29.5500   49.2350 C   0  0  0  0  0  0  0  0  0  0  0  0
   59.5920   30.7120   48.4500 C   0  0  0  0  0  0  0  0  0  0  0  0
   60.9690   30.8130   48.1910 C   0  0  0  0  0  0  0  0  0  0  0  0
   61.4710   31.8930   47.4600 C   0  0  0  0  0  0  0  0  0  0  0  0
   60.6040   32.8750   46.9700 C   0  0  0  0  0  0  0  0  0  0  0  0
   61.1170   33.9460   46.2470 O   0  0  0  0  0  0  0  0  0  0  0  0
   59.2270   32.7730   47.2080 C   0  0  0  0  0  0  0  0  0  0  0  0
   58.1220   33.9940   46.5960 Cl  0  0  0  0  0  0  0  0  0  0  0  0
   58.7230   31.6910   47.9400 C   0  0  0  0  0  0  0  0  0  0  0  0
   59.5746   27.0411   45.4500 H   0  0  0  0  0  0  0  0  0  0  0  0
   58.3888   26.1056   46.4585 H   0  0  0  0  0  0  0  0  0  0  0  0
   55.1547   31.0809   43.9082 H   0  0  0  0  0  0  0  0  0  0  0  0
   57.0830   32.6468   43.4934 H   0  0  0  0  0  0  0  0  0  0  0  0
   59.4105   31.9717   44.1268 H   0  0  0  0  0  0  0  0  0  0  0  0
   59.8335   29.7190   45.1767 H   0  0  0  0  0  0  0  0  0  0  0  0
   58.2220   29.9027   49.8752 H   0  0  0  0  0  0  0  0  0  0  0  0
   59.8524   29.1264   49.8491 H   0  0  0  0  0  0  0  0  0  0  0  0
   61.6549   30.0387   48.5652 H   0  0  0  0  0  0  0  0  0  0  0  0
   62.5515   31.9711   47.2693 H   0  0  0  0  0  0  0  0  0  0  0  0
   57.6405   31.6070   48.1167 H   0  0  0  0  0  0  0  0  0  0  0  0
  1  2  2  0
  2  3  1  0
  3  4  1  0
  4  5  2  0
  5  6  1  0
  6  7  2  0
  6  8  1  0
  5  9  1  0
  9 10  1  0
 10 11  2  0
 11 12  1  0
 12 13  2  0
 13 14  1  0
 14 15  2  0
  2 16  1  0
 16 17  1  0
 17 18  1  0
 18 19  2  0
 19 20  1  0
 20 21  2  0
 21 22  1  0
 21 23  1  0
 23 24  1  0
 23 25  2  0
 15  4  1  0
 25 18  1  0
 15 10  1  0
  3 26  1  0
  3 27  1  0
 11 28  1  0
 12 29  1  0
 13 30  1  0
 14 31  1  0
 17 32  1  0
 17 33  1  0
 19 34  1  0
 20 35  1  0
 25 36  1  0
M  CHG  4   8  -1   9  -1  16  -1  22  -1
M  END
>  <UniqueID>  (23) 
23

>  <SMILES>  (23) 
O=C(Cc1c(C(=O)[O-])[n-]c2ccccc12)[N-]Cc1ccc([O-])c(Cl)c1

>  <Energy>  (23) 
68.29713076919116

>  <Genealogy>  (23) 
O=C(Cc1c(C(=O)[O-])[n-]c2ccccc12)[N-]Cc1ccc([O-])c(Cl)c1 (protonated)
O=C(Cc1c(C(=O)[O-])[n-]c2ccccc12)[N-]Cc1ccc([O-])c(Cl)c1 (3D coordinates assigned)
O=C(Cc1c(C(=O)[O-])[n-]c2ccccc12)[N-]Cc1ccc([O-])c(Cl)c1 (optimized conformer: 68.29713076919116 kcal/mol)

>  <smiles>  (23) 
O=C(Cc1c(C(=O)O)[nH]c2ccccc12)NCc1ccc(O)c(Cl)c1

>  <score_type>  (23) 
oracle

>  <origin>  (23) 
adg

>  <m_score__min__energy>  (23) 
-14.66

>  <m_primary>  (23) 
energy

$$$$
23:0
     RDKit          3D

 54 57  0  0  0  0  0  0  0  0999 V2000
   56.8923   28.7857   42.6327 H   0  0  0  0  0  0  0  0  0  0  0  0
   56.6210   29.8250   42.8700 C   0  0  0  0  0  0  0  0  0  0  0  0
   55.9620   30.3895   42.1940 H   0  0  0  0  0  0  0  0  0  0  0  0
   57.0930   30.4030   43.9820 C   0  0  0  0  0  0  0  0  0  0  0  0
   57.9050   29.8250   44.9600 C   0  0  0  0  0  0  0  0  0  0  0  0
   58.3780   28.5610   44.9520 C   0  0  0  0  0  0  0  0  0  0  0  0
   59.3597   28.3812   44.4894 H   0  0  0  0  0  0  0  0  0  0  0  0
   57.6610   27.4040   45.5250 C   0  0  0  0  0  0  0  0  0  0  0  0
   56.2700   27.4360   45.6910 C   0  0  0  0  0  0  0  0  0  0  0  0
   55.5290   28.5250   45.2490 O   0  0  0  0  0  0  0  0  0  0  0  0
   55.6340   26.3880   46.2800 N   0  0  0  0  0  0  0  0  0  0  0  0
   56.3250   25.3110   46.7300 C   0  0  0  0  0  0  0  0  0  0  0  0
   55.5360   24.0730   47.4430 S   0  0  0  0  0  0  0  0  0  0  0  0
   57.6770   25.2730   46.6150 N   0  0  0  0  0  0  0  0  0  0  0  0
   58.3590   26.2950   46.0350 C   0  0  0  0  0  0  0  0  0  0  0  0
   59.6180   26.2460   45.9810 O   0  0  0  0  0  0  0  0  0  0  0  0
   58.1110   30.8230   45.9260 C   0  0  0  0  0  0  0  0  0  0  0  0
   59.1340   30.8430   46.9940 C   0  0  0  0  0  0  0  0  0  0  0  0
   58.9040   30.2520   48.0810 O   0  0  0  0  0  0  0  0  0  0  0  0
   60.4050   31.4780   46.7930 N   0  0  0  0  0  0  0  0  0  0  0  0
   61.6300   30.8310   47.2650 C   0  0  0  0  0  0  0  0  0  0  0  0
   61.3973   29.8149   47.6163 H   0  0  0  0  0  0  0  0  0  0  0  0
   62.3578   30.7739   46.4421 H   0  0  0  0  0  0  0  0  0  0  0  0
   62.2220   31.6500   48.4200 C   0  0  0  0  0  0  0  0  0  0  0  0
   61.6568   31.4174   49.3346 H   0  0  0  0  0  0  0  0  0  0  0  0
   63.2835   31.3720   48.4967 H   0  0  0  0  0  0  0  0  0  0  0  0
   62.1760   33.1260   48.2020 N   0  0  0  0  0  0  0  0  0  0  0  0
   61.3460   33.8130   49.2170 C   0  0  0  0  0  0  0  0  0  0  0  0
   62.0021   34.3235   49.9374 H   0  0  0  0  0  0  0  0  0  0  0  0
   60.6978   34.5454   48.7136 H   0  0  0  0  0  0  0  0  0  0  0  0
   60.4850   32.8170   49.9480 C   0  0  0  0  0  0  0  0  0  0  0  0
   59.1220   32.6980   49.6260 C   0  0  0  0  0  0  0  0  0  0  0  0
   58.6895   33.3272   48.8341 H   0  0  0  0  0  0  0  0  0  0  0  0
   58.3130   31.7830   50.3080 C   0  0  0  0  0  0  0  0  0  0  0  0
   57.2455   31.6986   50.0565 H   0  0  0  0  0  0  0  0  0  0  0  0
   58.8610   30.9760   51.3090 C   0  0  0  0  0  0  0  0  0  0  0  0
   58.2259   30.2526   51.8412 H   0  0  0  0  0  0  0  0  0  0  0  0
   60.2160   31.0880   51.6340 C   0  0  0  0  0  0  0  0  0  0  0  0
   60.6464   30.4497   52.4197 H   0  0  0  0  0  0  0  0  0  0  0  0
   61.0250   32.0090   50.9630 C   0  0  0  0  0  0  0  0  0  0  0  0
   62.0880   32.1018   51.2302 H   0  0  0  0  0  0  0  0  0  0  0  0
   61.7960   33.5200   46.8240 C   0  0  0  0  0  0  0  0  0  0  0  0
   61.7054   34.6153   46.7786 H   0  0  0  0  0  0  0  0  0  0  0  0
   62.5761   33.1601   46.1370 H   0  0  0  0  0  0  0  0  0  0  0  0
   60.4570   32.8910   46.4010 C   0  0  0  0  0  0  0  0  0  0  0  0
   59.6329   33.4323   46.8888 H   0  0  0  0  0  0  0  0  0  0  0  0
   60.3620   32.9599   45.3073 H   0  0  0  0  0  0  0  0  0  0  0  0
   57.4140   31.9410   45.4780 C   0  0  0  0  0  0  0  0  0  0  0  0
   57.3400   33.2820   46.1440 C   0  0  0  0  0  0  0  0  0  0  0  0
   57.3473   33.1500   47.2360 H   0  0  0  0  0  0  0  0  0  0  0  0
   58.2060   33.8895   45.8423 H   0  0  0  0  0  0  0  0  0  0  0  0
   56.4124   33.7905   45.8423 H   0  0  0  0  0  0  0  0  0  0  0  0
   56.7900   31.6730   44.3170 N   0  0  0  0  0  0  0  0  0  0  0  0
   56.2070   32.3420   43.7620 H   0  0  0  0  0  0  0  0  0  0  0  0
  1  2  1  0
  2  3  1  0
  2  4  2  0
  4  5  1  0
  5  6  2  0
  6  7  1  0
  6  8  1  0
  8  9  2  0
  9 10  1  0
  9 11  1  0
 11 12  1  0
 12 13  2  0
 12 14  1  0
 14 15  1  0
 15 16  2  0
  5 17  1  0
 17 18  1  0
 18 19  2  0
 18 20  1  0
 20 21  1  0
 21 22  1  0
 21 23  1  0
 21 24  1  0
 24 25  1  0
 24 26  1  0
 24 27  1  0
 27 28  1  0
 28 29  1  0
 28 30  1  0
 28 31  1  0
 31 32  2  0
 32 33  1  0
 32 34  1  0
 34 35  1  0
 34 36  2  0
 36 37  1  0
 36 38  1  0
 38 39  1  0
 38 40  2  0
 40 41  1  0
 27 42  1  0
 42 43  1  0
 42 44  1  0
 42 45  1  0
 45 46  1  0
 45 47  1  0
 17 48  2  0
 48 49  1  0
 49 50  1  0
 49 51  1  0
 49 52  1  0
 48 53  1  0
 53 54  1  0
 53  4  1  0
 15  8  1  0
 45 20  1  0
 40 31  1  0
M  CHG  3  10  -1  11  -1  14  -1
M  END
>  <UniqueID>  (24) 
24

>  <SMILES>  (24) 
C=c1[nH]c(C)c(C(=O)N2CCN(Cc3ccccc3)CC2)/c1=C\c1c([O-])[n-]c(=S)[n-]c1=O

>  <Energy>  (24) 
110.43691750540052

>  <Genealogy>  (24) 
C=c1[nH]c(C)c(C(=O)N2CCN(Cc3ccccc3)CC2)c1=Cc1c([O-])[n-]c(=S)[n-]c1=O (protonated)
C=c1[nH]c(C)c(C(=O)N2CCN(Cc3ccccc3)CC2)/c1=C\c1c([O-])[n-]c(=S)[n-]c1=O (cis-trans isomerization)
C=c1[nH]c(C)c(C(=O)N2CCN(Cc3ccccc3)CC2)/c1=C\c1c([O-])[n-]c(=S)[n-]c1=O (3D coordinates assigned)
C=c1[nH]c(C)c(C(=O)N2CCN(Cc3ccccc3)CC2)/c1=C\c1c([O-])[n-]c(=S)[n-]c1=O (nonaromatic ring conformer: 110.43691750540052 kcal/mol)

>  <smiles>  (24) 
C=c1[nH]c(C)c(C(=O)N2CCN(Cc3ccccc3)CC2)c1=Cc1c(O)[nH]c(=S)[nH]c1=O

>  <score_type>  (24) 
oracle

>  <origin>  (24) 
adg

>  <m_score__min__energy>  (24) 
-16.399999999999999

>  <m_primary>  (24) 
energy

$$$$
24:0
     RDKit          3D

 62 66  0  0  0  0  0  0  0  0999 V2000
   59.8160   29.0510   48.3210 C   0  0  0  0  0  0  0  0  0  0  0  0
   59.0580   29.7130   47.4340 C   0  0  0  0  0  0  0  0  0  0  0  0
   58.5100   29.2180   46.2380 C   0  0  0  0  0  0  0  0  0  0  0  0
   58.4330   27.9650   45.7510 C   0  0  0  0  0  0  0  0  0  0  0  0
   57.2730   27.0670   45.8760 C   0  0  0  0  0  0  0  0  0  0  0  0
   57.3120   25.8350   46.4160 N   0  0  0  0  0  0  0  0  0  0  0  0
   56.0130   25.4630   46.4350 C   0  0  0  0  0  0  0  0  0  0  0  0
   55.6350   24.3420   46.8640 O   0  0  0  0  0  0  0  0  0  0  0  0
   55.1500   26.3920   45.9710 N   0  0  0  0  0  0  0  0  0  0  0  0
   55.9640   27.4060   45.6360 C   0  0  0  0  0  0  0  0  0  0  0  0
   55.5190   28.6180   45.1240 O   0  0  0  0  0  0  0  0  0  0  0  0
   57.9800   30.3140   45.5730 C   0  0  0  0  0  0  0  0  0  0  0  0
   58.1620   31.4080   46.3940 C   0  0  0  0  0  0  0  0  0  0  0  0
   57.6960   32.8000   46.0950 C   0  0  0  0  0  0  0  0  0  0  0  0
   58.8140   31.0450   47.5180 N   0  0  0  0  0  0  0  0  0  0  0  0
   59.1680   31.9270   48.5950 C   0  0  0  0  0  0  0  0  0  0  0  0
   58.3940   31.9090   49.7630 C   0  0  0  0  0  0  0  0  0  0  0  0
   58.7130   32.7370   50.8490 C   0  0  0  0  0  0  0  0  0  0  0  0
   57.8770   32.7120   52.0710 C   0  0  0  0  0  0  0  0  0  0  0  0
   57.3650   33.7900   52.4830 O   0  0  0  0  0  0  0  0  0  0  0  0
   57.6230   31.4910   52.7910 N   0  0  0  0  0  0  0  0  0  0  0  0
   57.4590   30.2110   52.0940 C   0  0  0  0  0  0  0  0  0  0  0  0
   56.3300   29.4140   52.7520 C   0  0  0  0  0  0  0  0  0  0  0  0
   56.5430   29.2990   54.1470 O   0  0  0  0  0  0  0  0  0  0  0  0
   56.4730   30.5780   54.7510 C   0  0  0  0  0  0  0  0  0  0  0  0
   57.6100   31.4780   54.2560 C   0  0  0  0  0  0  0  0  0  0  0  0
   59.8070   33.6080   50.7450 C   0  0  0  0  0  0  0  0  0  0  0  0
   60.5830   33.6330   49.5850 C   0  0  0  0  0  0  0  0  0  0  0  0
   60.2700   32.8040   48.4970 C   0  0  0  0  0  0  0  0  0  0  0  0
   61.2840   32.8840   47.0480 S   0  0  0  0  0  0  0  0  0  0  0  0
   60.5030   33.3950   45.8690 O   0  0  0  0  0  0  0  0  0  0  0  0
   61.7990   31.5080   46.7350 O   0  0  0  0  0  0  0  0  0  0  0  0
   62.6350   33.9390   47.3260 N   0  0  0  0  0  0  0  0  0  0  0  0
   63.7940   33.1600   47.7690 C   0  0  0  0  0  0  0  0  0  0  0  0
   63.8960   33.0520   49.3020 C   0  0  0  0  0  0  0  0  0  0  0  0
   65.0600   32.2570   49.8790 C   0  0  0  0  0  0  0  0  0  0  0  0
   63.6480   31.6800   49.9150 C   0  0  0  0  0  0  0  0  0  0  0  0
   60.1817   29.5636   49.2229 H   0  0  0  0  0  0  0  0  0  0  0  0
   60.0719   27.9955   48.1464 H   0  0  0  0  0  0  0  0  0  0  0  0
   59.3120   27.5793   45.2138 H   0  0  0  0  0  0  0  0  0  0  0  0
   57.5053   30.3115   44.5807 H   0  0  0  0  0  0  0  0  0  0  0  0
   57.5162   33.3370   47.0380 H   0  0  0  0  0  0  0  0  0  0  0  0
   58.4665   33.3277   45.5137 H   0  0  0  0  0  0  0  0  0  0  0  0
   56.7631   32.7574   45.5137 H   0  0  0  0  0  0  0  0  0  0  0  0
   57.5255   31.2371   49.8289 H   0  0  0  0  0  0  0  0  0  0  0  0
   57.2100   30.3971   51.0388 H   0  0  0  0  0  0  0  0  0  0  0  0
   58.3960   29.6379   52.1535 H   0  0  0  0  0  0  0  0  0  0  0  0
   55.3742   29.9286   52.5743 H   0  0  0  0  0  0  0  0  0  0  0  0
   56.3088   28.4051   52.3141 H   0  0  0  0  0  0  0  0  0  0  0  0
   55.5089   31.0435   54.4984 H   0  0  0  0  0  0  0  0  0  0  0  0
   56.5675   30.4585   55.8404 H   0  0  0  0  0  0  0  0  0  0  0  0
   57.4566   32.5010   54.6300 H   0  0  0  0  0  0  0  0  0  0  0  0
   58.5706   31.0910   54.6268 H   0  0  0  0  0  0  0  0  0  0  0  0
   60.0553   34.2759   51.5830 H   0  0  0  0  0  0  0  0  0  0  0  0
   61.4484   34.3092   49.5232 H   0  0  0  0  0  0  0  0  0  0  0  0
   63.7153   32.1457   47.3506 H   0  0  0  0  0  0  0  0  0  0  0  0
   64.6957   33.6813   47.4151 H   0  0  0  0  0  0  0  0  0  0  0  0
   63.4956   34.0640   49.4621 H   0  0  0  0  0  0  0  0  0  0  0  0
   65.8152   31.8218   49.2080 H   0  0  0  0  0  0  0  0  0  0  0  0
   65.8400   32.4529   50.6295 H   0  0  0  0  0  0  0  0  0  0  0  0
   63.3850   30.8286   49.2700 H   0  0  0  0  0  0  0  0  0  0  0  0
   62.9877   31.2873   50.7023 H   0  0  0  0  0  0  0  0  0  0  0  0
  1  2  2  0
  2  3  1  0
  3  4  2  3
  4  5  1  0
  5  6  1  0
  6  7  1  0
  7  8  2  0
  7  9  1  0
  9 10  1  0
 10 11  1  0
  3 12  1  0
 12 13  2  0
 13 14  1  0
 13 15  1  0
 15 16  1  0
 16 17  2  0
 17 18  1  0
 18 19  1  0
 19 20  2  0
 19 21  1  0
 21 22  1  0
 22 23  1  0
 23 24  1  0
 24 25  1  0
 25 26  1  0
 18 27  2  0
 27 28  1  0
 28 29  2  0
 29 30  1  0
 30 31  2  0
 30 32  2  0
 30 33  1  0
 33 34  1  0
 34 35  1  0
 35 36  1  0
 36 37  1  0
 15  2  1  0
 29 16  1  0
 37 35  1  0
 10  5  2  0
 26 21  1  0
  1 38  1  0
  1 39  1  0
  4 40  1  0
 12 41  1  0
 14 42  1  0
 14 43  1  0
 14 44  1  0
 17 45  1  0
 22 46  1  0
 22 47  1  0
 23 48  1  0
 23 49  1  0
 25 50  1  0
 25 51  1  0
 26 52  1  0
 26 53  1  0
 27 54  1  0
 28 55  1  0
 34 56  1  0
 34 57  1  0
 35 58  1  0
 36 59  1  0
 36 60  1  0
 37 61  1  0
 37 62  1  0
M  CHG  4   6  -1   9  -1  11  -1  33  -1
M  END
>  <UniqueID>  (25) 
25

>  <SMILES>  (25) 
C=c1c(=Cc2[n-]c(=O)[n-]c2[O-])cc(C)n1-c1cc(C(=O)N2CCOCC2)ccc1S(=O)(=O)[N-]CC1CC1

>  <Energy>  (25) 
411.3006209837322

>  <Genealogy>  (25) 
C=c1c(=Cc2[n-]c(=O)[n-]c2[O-])cc(C)n1-c1cc(C(=O)N2CCOCC2)ccc1S(=O)(=O)[N-]CC1CC1 (protonated)
C=c1c(=Cc2[n-]c(=O)[n-]c2[O-])cc(C)n1-c1cc(C(=O)N2CCOCC2)ccc1S(=O)(=O)[N-]CC1CC1 (3D coordinates assigned)
C=c1c(=Cc2[n-]c(=O)[n-]c2[O-])cc(C)n1-c1cc(C(=O)N2CCOCC2)ccc1S(=O)(=O)[N-]CC1CC1 (nonaromatic ring conformer: 411.3006209837322 kcal/mol)

>  <smiles>  (25) 
C=c1c(=Cc2[nH]c(=O)[nH]c2O)cc(C)n1-c1cc(C(=O)N2CCOCC2)ccc1S(=O)(=O)NCC1CC1

>  <score_type>  (25) 
oracle

>  <origin>  (25) 
adg

>  <m_score__min__energy>  (25) 
-18.719999999999999

>  <m_primary>  (25) 
energy

$$$$
25:0
     RDKit          3D

 61 64  0  0  0  0  0  0  0  0999 V2000
   58.8910   32.8380   50.4670 O   0  0  0  0  0  0  0  0  0  0  0  0
   59.6230   31.8160   50.3620 C   0  0  0  0  0  0  0  0  0  0  0  0
   59.5800   30.7610   51.4290 C   0  0  0  0  0  0  0  0  0  0  0  0
   59.3470   29.3620   50.8440 C   0  0  0  0  0  0  0  0  0  0  0  0
   60.9030   28.4630   50.4800 S   0  0  0  0  0  0  0  0  0  0  0  0
   60.6230   28.3430   48.7140 C   0  0  0  0  0  0  0  0  0  0  0  0
   60.1030   27.1660   48.1630 C   0  0  0  0  0  0  0  0  0  0  0  0
   59.8990   27.0890   46.7840 C   0  0  0  0  0  0  0  0  0  0  0  0
   60.2230   28.1780   45.9730 C   0  0  0  0  0  0  0  0  0  0  0  0
   60.7470   29.3350   46.5590 C   0  0  0  0  0  0  0  0  0  0  0  0
   60.9370   29.3910   47.9050 N   0  0  0  0  0  0  0  0  0  0  0  0
   60.5110   31.6740   49.2440 N   0  0  0  0  0  0  0  0  0  0  0  0
   60.3950   32.4600   48.0480 C   0  0  0  0  0  0  0  0  0  0  0  0
   59.3210   32.2490   47.1670 C   0  0  0  0  0  0  0  0  0  0  0  0
   59.2410   32.9570   45.9600 C   0  0  0  0  0  0  0  0  0  0  0  0
   57.9220   32.6630   44.8290 S   0  0  0  0  0  0  0  0  0  0  0  0
   56.6270   33.1810   45.3920 O   0  0  0  0  0  0  0  0  0  0  0  0
   58.2190   33.3910   43.5470 O   0  0  0  0  0  0  0  0  0  0  0  0
   57.7860   30.9500   44.5140 N   0  0  0  0  0  0  0  0  0  0  0  0
   57.5990   30.2200   45.7820 C   0  0  0  0  0  0  0  0  0  0  0  0
   57.0020   28.8270   45.5210 C   0  0  0  0  0  0  0  0  0  0  0  0
   55.7390   28.8440   44.8650 O   0  0  0  0  0  0  0  0  0  0  0  0
   55.4670   30.0550   44.1740 C   0  0  0  0  0  0  0  0  0  0  0  0
   56.7200   30.6710   43.5250 C   0  0  0  0  0  0  0  0  0  0  0  0
   60.2420   33.8740   45.6270 C   0  0  0  0  0  0  0  0  0  0  0  0
   61.3200   34.0810   46.4880 C   0  0  0  0  0  0  0  0  0  0  0  0
   61.4060   33.3800   47.7000 C   0  0  0  0  0  0  0  0  0  0  0  0
   62.5100   33.6390   48.5810 N   0  0  0  0  0  0  0  0  0  0  0  0
   63.8660   33.2100   48.2310 C   0  0  0  0  0  0  0  0  0  0  0  0
   64.6000   32.7760   49.5030 C   0  0  0  0  0  0  0  0  0  0  0  0
   64.5360   33.7900   50.4900 O   0  0  0  0  0  0  0  0  0  0  0  0
   63.1940   33.9770   50.9030 C   0  0  0  0  0  0  0  0  0  0  0  0
   62.3330   34.5010   49.7490 C   0  0  0  0  0  0  0  0  0  0  0  0
   60.5373   30.7646   51.9709 H   0  0  0  0  0  0  0  0  0  0  0  0
   58.7413   30.9921   52.1021 H   0  0  0  0  0  0  0  0  0  0  0  0
   58.7641   28.7732   51.5675 H   0  0  0  0  0  0  0  0  0  0  0  0
   58.8133   29.4910   49.8908 H   0  0  0  0  0  0  0  0  0  0  0  0
   59.8577   26.3107   48.8097 H   0  0  0  0  0  0  0  0  0  0  0  0
   59.4842   26.1730   46.3380 H   0  0  0  0  0  0  0  0  0  0  0  0
   60.0680   28.1268   44.8852 H   0  0  0  0  0  0  0  0  0  0  0  0
   61.0057   30.2003   45.9310 H   0  0  0  0  0  0  0  0  0  0  0  0
   61.3010   30.9940   49.3180 H   0  0  0  0  0  0  0  0  0  0  0  0
   58.5369   31.5225   47.4266 H   0  0  0  0  0  0  0  0  0  0  0  0
   58.5725   30.1083   46.2819 H   0  0  0  0  0  0  0  0  0  0  0  0
   56.9068   30.7888   46.4202 H   0  0  0  0  0  0  0  0  0  0  0  0
   57.7078   28.2617   44.8947 H   0  0  0  0  0  0  0  0  0  0  0  0
   56.8390   28.3649   46.5058 H   0  0  0  0  0  0  0  0  0  0  0  0
   54.7282   29.8503   43.3852 H   0  0  0  0  0  0  0  0  0  0  0  0
   55.0894   30.7778   44.9122 H   0  0  0  0  0  0  0  0  0  0  0  0
   57.1101   29.9693   42.7730 H   0  0  0  0  0  0  0  0  0  0  0  0
   56.4264   31.6275   43.0680 H   0  0  0  0  0  0  0  0  0  0  0  0
   60.1795   34.4345   44.6826 H   0  0  0  0  0  0  0  0  0  0  0  0
   62.1077   34.7986   46.2147 H   0  0  0  0  0  0  0  0  0  0  0  0
   63.8149   32.3647   47.5290 H   0  0  0  0  0  0  0  0  0  0  0  0
   64.4069   34.0427   47.7577 H   0  0  0  0  0  0  0  0  0  0  0  0
   64.1324   31.8608   49.8950 H   0  0  0  0  0  0  0  0  0  0  0  0
   65.6556   32.5901   49.2556 H   0  0  0  0  0  0  0  0  0  0  0  0
   62.7864   33.0154   51.2482 H   0  0  0  0  0  0  0  0  0  0  0  0
   63.1774   34.7167   51.7170 H   0  0  0  0  0  0  0  0  0  0  0  0
   61.2750   34.4986   50.0500 H   0  0  0  0  0  0  0  0  0  0  0  0
   62.6395   35.5272   49.4983 H   0  0  0  0  0  0  0  0  0  0  0  0
  1  2  2  0
  2  3  1  0
  3  4  1  0
  4  5  1  0
  5  6  1  0
  6  7  2  0
  7  8  1  0
  8  9  2  0
  9 10  1  0
 10 11  2  0
  2 12  1  0
 12 13  1  0
 13 14  2  0
 14 15  1  0
 15 16  1  0
 16 17  2  0
 16 18  2  0
 16 19  1  0
 19 20  1  0
 20 21  1  0
 21 22  1  0
 22 23  1  0
 23 24  1  0
 15 25  2  0
 25 26  1  0
 26 27  2  0
 27 28  1  0
 28 29  1  0
 29 30  1  0
 30 31  1  0
 31 32  1  0
 32 33  1  0
 11  6  1  0
 27 13  1  0
 33 28  1  0
 24 19  1  0
  3 34  1  0
  3 35  1  0
  4 36  1  0
  4 37  1  0
  7 38  1  0
  8 39  1  0
  9 40  1  0
 10 41  1  0
 12 42  1  0
 14 43  1  0
 20 44  1  0
 20 45  1  0
 21 46  1  0
 21 47  1  0
 23 48  1  0
 23 49  1  0
 24 50  1  0
 24 51  1  0
 25 52  1  0
 26 53  1  0
 29 54  1  0
 29 55  1  0
 30 56  1  0
 30 57  1  0
 32 58  1  0
 32 59  1  0
 33 60  1  0
 33 61  1  0
M  END
>  <UniqueID>  (26) 
26

>  <SMILES>  (26) 
O=C(CCSc1ccccn1)Nc1cc(S(=O)(=O)N2CCOCC2)ccc1N1CCOCC1

>  <Energy>  (26) 
78.60574784942274

>  <Genealogy>  (26) 
O=C(CCSc1ccccn1)Nc1cc(S(=O)(=O)N2CCOCC2)ccc1N1CCOCC1 (3D coordinates assigned)
O=C(CCSc1ccccn1)Nc1cc(S(=O)(=O)N2CCOCC2)ccc1N1CCOCC1 (nonaromatic ring conformer: 78.60574784942274 kcal/mol)

>  <smiles>  (26) 
O=C(CCSc1ccccn1)Nc1cc(S(=O)(=O)N2CCOCC2)ccc1N1CCOCC1

>  <score_type>  (26) 
oracle

>  <origin>  (26) 
adg

>  <m_score__min__energy>  (26) 
-10.32

>  <m_primary>  (26) 
energy

$$$$
26:0
     RDKit          3D

 57 59  0  0  0  0  0  0  0  0999 V2000
   64.1910   33.0790   48.5330 C   0  0  0  0  0  0  0  0  0  0  0  0
   63.7210   32.7240   47.1190 C   0  0  0  0  0  0  0  0  0  0  0  0
   63.1640   33.9420   46.3710 C   0  0  0  0  0  0  0  0  0  0  0  0
   61.7210   33.8220   46.1530 N   0  0  0  0  0  0  0  0  0  0  0  0
   60.8310   33.0150   46.9350 C   0  0  0  0  0  0  0  0  0  0  0  0
   59.8840   32.4200   46.3590 O   0  0  0  0  0  0  0  0  0  0  0  0
   60.9900   32.8800   48.3530 N   0  0  0  0  0  0  0  0  0  0  0  0
   61.0400   31.5340   48.9440 C   0  0  0  0  0  0  0  0  0  0  0  0
   61.0240   31.6080   50.4730 C   0  0  0  0  0  0  0  0  0  0  0  0
   59.9580   32.5240   50.9000 N   0  0  0  0  0  0  0  0  0  0  0  0
   58.8590   32.0590   51.7110 C   0  0  0  0  0  0  0  0  0  0  0  0
   57.5300   32.2540   51.2920 C   0  0  0  0  0  0  0  0  0  0  0  0
   56.4660   31.7350   52.0370 C   0  0  0  0  0  0  0  0  0  0  0  0
   56.7080   31.0090   53.2130 C   0  0  0  0  0  0  0  0  0  0  0  0
   55.5640   30.4060   53.9870 C   0  0  0  0  0  0  0  0  0  0  0  0
   54.9590   29.2460   53.2430 C   0  0  0  0  0  0  0  0  0  0  0  0
   55.6230   28.6950   52.3270 O   0  0  0  0  0  0  0  0  0  0  0  0
   53.6650   28.7230   53.5620 N   0  0  0  0  0  0  0  0  0  0  0  0
   52.5030   29.5370   53.9100 C   0  0  0  0  0  0  0  0  0  0  0  0
   52.1010   30.3680   52.7300 C   0  0  0  0  0  0  0  0  0  0  0  0
   52.3060   29.8940   51.4240 C   0  0  0  0  0  0  0  0  0  0  0  0
   51.9420   30.6780   50.3250 C   0  0  0  0  0  0  0  0  0  0  0  0
   51.3820   31.9450   50.5200 C   0  0  0  0  0  0  0  0  0  0  0  0
   51.0130   32.7120   49.4230 O   0  0  0  0  0  0  0  0  0  0  0  0
   51.1940   32.4340   51.8170 C   0  0  0  0  0  0  0  0  0  0  0  0
   50.6460   33.6960   52.0160 O   0  0  0  0  0  0  0  0  0  0  0  0
   51.5580   31.6510   52.9190 C   0  0  0  0  0  0  0  0  0  0  0  0
   58.0300   30.8430   53.6540 C   0  0  0  0  0  0  0  0  0  0  0  0
   59.0940   31.3530   52.9050 C   0  0  0  0  0  0  0  0  0  0  0  0
   59.9020   33.8790   50.3230 C   0  0  0  0  0  0  0  0  0  0  0  0
   60.9500   34.0680   49.2150 C   0  0  0  0  0  0  0  0  0  0  0  0
   63.5396   32.5870   49.2703 H   0  0  0  0  0  0  0  0  0  0  0  0
   65.2268   32.7358   48.6721 H   0  0  0  0  0  0  0  0  0  0  0  0
   64.1442   34.1692   48.6721 H   0  0  0  0  0  0  0  0  0  0  0  0
   64.5735   32.3201   46.5532 H   0  0  0  0  0  0  0  0  0  0  0  0
   62.9126   31.9833   47.2077 H   0  0  0  0  0  0  0  0  0  0  0  0
   63.3622   34.8472   46.9637 H   0  0  0  0  0  0  0  0  0  0  0  0
   63.6583   34.0013   45.3901 H   0  0  0  0  0  0  0  0  0  0  0  0
   60.1675   30.9579   48.6021 H   0  0  0  0  0  0  0  0  0  0  0  0
   61.9722   31.0446   48.6255 H   0  0  0  0  0  0  0  0  0  0  0  0
   60.8370   30.6066   50.8881 H   0  0  0  0  0  0  0  0  0  0  0  0
   61.9952   31.9756   50.8359 H   0  0  0  0  0  0  0  0  0  0  0  0
   57.3260   32.8194   50.3707 H   0  0  0  0  0  0  0  0  0  0  0  0
   55.4320   31.8972   51.6985 H   0  0  0  0  0  0  0  0  0  0  0  0
   55.9350   30.0541   54.9609 H   0  0  0  0  0  0  0  0  0  0  0  0
   54.7901   31.1757   54.1235 H   0  0  0  0  0  0  0  0  0  0  0  0
   51.6685   28.8803   54.1968 H   0  0  0  0  0  0  0  0  0  0  0  0
   52.7579   30.1970   54.7523 H   0  0  0  0  0  0  0  0  0  0  0  0
   52.7546   28.9023   51.2651 H   0  0  0  0  0  0  0  0  0  0  0  0
   52.0964   30.2976   49.3045 H   0  0  0  0  0  0  0  0  0  0  0  0
   51.4185   32.0415   53.9378 H   0  0  0  0  0  0  0  0  0  0  0  0
   58.2298   30.3085   54.5944 H   0  0  0  0  0  0  0  0  0  0  0  0
   60.1264   31.2008   53.2528 H   0  0  0  0  0  0  0  0  0  0  0  0
   58.9007   34.0449   49.8988 H   0  0  0  0  0  0  0  0  0  0  0  0
   60.1152   34.6022   51.1240 H   0  0  0  0  0  0  0  0  0  0  0  0
   60.6859   34.9481   48.6102 H   0  0  0  0  0  0  0  0  0  0  0  0
   61.9387   34.2139   49.6745 H   0  0  0  0  0  0  0  0  0  0  0  0
  1  2  1  0
  2  3  1  0
  3  4  1  0
  4  5  1  0
  5  6  2  0
  5  7  1  0
  7  8  1  0
  8  9  1  0
  9 10  1  0
 10 11  1  0
 11 12  2  0
 12 13  1  0
 13 14  2  0
 14 15  1  0
 15 16  1  0
 16 17  2  0
 16 18  1  0
 18 19  1  0
 19 20  1  0
 20 21  2  0
 21 22  1  0
 22 23  2  0
 23 24  1  0
 23 25  1  0
 25 26  1  0
 25 27  2  0
 14 28  1  0
 28 29  2  0
 10 30  1  0
 30 31  1  0
 31  7  1  0
 29 11  1  0
 27 20  1  0
  1 32  1  0
  1 33  1  0
  1 34  1  0
  2 35  1  0
  2 36  1  0
  3 37  1  0
  3 38  1  0
  8 39  1  0
  8 40  1  0
  9 41  1  0
  9 42  1  0
 12 43  1  0
 13 44  1  0
 15 45  1  0
 15 46  1  0
 19 47  1  0
 19 48  1  0
 21 49  1  0
 22 50  1  0
 27 51  1  0
 28 52  1  0
 29 53  1  0
 30 54  1  0
 30 55  1  0
 31 56  1  0
 31 57  1  0
M  CHG  4   4  -1  18  -1  24  -1  26  -1
M  END
>  <UniqueID>  (27) 
27

>  <SMILES>  (27) 
CCC[N-]C(=O)N1CCN(c2ccc(CC(=O)[N-]Cc3ccc([O-])c([O-])c3)cc2)CC1

>  <Energy>  (27) 
57.2795116943553

>  <Genealogy>  (27) 
CCC[N-]C(=O)N1CCN(c2ccc(CC(=O)[N-]Cc3ccc([O-])c([O-])c3)cc2)CC1 (protonated)
CCC[N-]C(=O)N1CCN(c2ccc(CC(=O)[N-]Cc3ccc([O-])c([O-])c3)cc2)CC1 (3D coordinates assigned)
CCC[N-]C(=O)N1CCN(c2ccc(CC(=O)[N-]Cc3ccc([O-])c([O-])c3)cc2)CC1 (nonaromatic ring conformer: 57.2795116943553 kcal/mol)

>  <smiles>  (27) 
CCCNC(=O)N1CCN(c2ccc(CC(=O)NCc3ccc(O)c(O)c3)cc2)CC1

>  <score_type>  (27) 
oracle

>  <origin>  (27) 
adg

>  <m_score__min__energy>  (27) 
-19.399999999999999

>  <m_primary>  (27) 
energy

$$$$
27:0
     RDKit          3D

 56 59  0  0  0  0  0  0  0  0999 V2000
   61.7800   33.3770   49.2830 H   0  0  0  0  0  0  0  0  0  0  0  0
   61.2360   34.1790   49.4850 O   0  0  0  0  0  0  0  0  0  0  0  0
   59.6410   33.6580   49.3730 S   0  0  0  0  0  0  0  0  0  0  0  0
   58.9840   33.2300   50.9430 C   0  0  0  0  0  0  0  0  0  0  0  0
   59.4130   33.8970   52.0970 C   0  0  0  0  0  0  0  0  0  0  0  0
   60.1964   34.6661   52.0287 H   0  0  0  0  0  0  0  0  0  0  0  0
   58.8450   33.5850   53.3370 C   0  0  0  0  0  0  0  0  0  0  0  0
   59.1782   34.1135   54.2424 H   0  0  0  0  0  0  0  0  0  0  0  0
   57.8540   32.6020   53.4270 C   0  0  0  0  0  0  0  0  0  0  0  0
   57.4065   32.3596   54.4022 H   0  0  0  0  0  0  0  0  0  0  0  0
   57.4320   31.9270   52.2760 C   0  0  0  0  0  0  0  0  0  0  0  0
   56.0840   30.5800   52.3980 Br  0  0  0  0  0  0  0  0  0  0  0  0
   57.9940   32.2450   51.0340 C   0  0  0  0  0  0  0  0  0  0  0  0
   57.6570   31.7199   50.1281 H   0  0  0  0  0  0  0  0  0  0  0  0
   59.4630   32.4000   48.1840 N   0  0  0  0  0  0  0  0  0  0  0  0
   58.9670   31.5990   48.6390 H   0  0  0  0  0  0  0  0  0  0  0  0
   60.4190   32.0870   47.9020 H   0  0  0  0  0  0  0  0  0  0  0  0
   58.7430   32.8000   46.9910 C   0  0  0  0  0  0  0  0  0  0  0  0
   58.8460   34.0910   46.4230 C   0  0  0  0  0  0  0  0  0  0  0  0
   59.4324   34.8670   46.9369 H   0  0  0  0  0  0  0  0  0  0  0  0
   58.2110   34.3900   45.2170 C   0  0  0  0  0  0  0  0  0  0  0  0
   58.2711   35.4079   44.8043 H   0  0  0  0  0  0  0  0  0  0  0  0
   57.5010   33.4050   44.5330 C   0  0  0  0  0  0  0  0  0  0  0  0
   57.0141   33.6472   43.5768 H   0  0  0  0  0  0  0  0  0  0  0  0
   57.4030   32.1080   45.0550 C   0  0  0  0  0  0  0  0  0  0  0  0
   56.7430   31.0550   44.2530 C   0  0  0  0  0  0  0  0  0  0  0  0
   56.6390   31.2170   43.0080 O   0  0  0  0  0  0  0  0  0  0  0  0
   56.1710   29.8770   44.8350 N   0  0  0  0  0  0  0  0  0  0  0  0
   56.9130   28.7050   45.2800 C   0  0  0  0  0  0  0  0  0  0  0  0
   56.6879   28.5076   46.3385 H   0  0  0  0  0  0  0  0  0  0  0  0
   56.6210   27.8330   44.6764 H   0  0  0  0  0  0  0  0  0  0  0  0
   58.4110   28.9630   45.1160 C   0  0  0  0  0  0  0  0  0  0  0  0
   58.6687   28.8594   44.0516 H   0  0  0  0  0  0  0  0  0  0  0  0
   58.6105   29.9766   45.4938 H   0  0  0  0  0  0  0  0  0  0  0  0
   59.2860   27.9950   45.9260 C   0  0  0  0  0  0  0  0  0  0  0  0
   58.7678   27.0284   46.0107 H   0  0  0  0  0  0  0  0  0  0  0  0
   60.2473   27.8757   45.4048 H   0  0  0  0  0  0  0  0  0  0  0  0
   59.5490   28.5160   47.2710 N   0  0  0  0  0  0  0  0  0  0  0  0
   60.3980   29.4410   47.6360 C   0  0  0  0  0  0  0  0  0  0  0  0
   61.1550   30.1790   46.7000 C   0  0  0  0  0  0  0  0  0  0  0  0
   61.0464   29.9774   45.6241 H   0  0  0  0  0  0  0  0  0  0  0  0
   62.0390   31.1620   47.1380 C   0  0  0  0  0  0  0  0  0  0  0  0
   62.6230   31.7381   46.4051 H   0  0  0  0  0  0  0  0  0  0  0  0
   62.1840   31.4130   48.4620 N   0  0  0  0  0  0  0  0  0  0  0  0
   61.4830   30.7290   49.4030 C   0  0  0  0  0  0  0  0  0  0  0  0
   61.6710   31.0270   50.7570 C   0  0  0  0  0  0  0  0  0  0  0  0
   62.3881   31.8071   51.0523 H   0  0  0  0  0  0  0  0  0  0  0  0
   60.9510   30.3370   51.7350 C   0  0  0  0  0  0  0  0  0  0  0  0
   61.1880   30.7200   53.4300 Cl  0  0  0  0  0  0  0  0  0  0  0  0
   60.0430   29.3430   51.3630 C   0  0  0  0  0  0  0  0  0  0  0  0
   59.4777   28.8013   52.1356 H   0  0  0  0  0  0  0  0  0  0  0  0
   59.8490   29.0330   50.0130 C   0  0  0  0  0  0  0  0  0  0  0  0
   59.1319   28.2485   49.7294 H   0  0  0  0  0  0  0  0  0  0  0  0
   60.5680   29.7210   49.0130 C   0  0  0  0  0  0  0  0  0  0  0  0
   58.0270   31.8140   46.2810 C   0  0  0  0  0  0  0  0  0  0  0  0
   57.9552   30.7967   46.6933 H   0  0  0  0  0  0  0  0  0  0  0  0
  1  2  1  0
  3  2  1  1
  3  4  1  0
  4  5  2  0
  5  6  1  0
  5  7  1  0
  7  8  1  0
  7  9  2  0
  9 10  1  0
  9 11  1  0
 11 12  1  0
 11 13  2  0
 13 14  1  0
  3 15  1  0
 15 16  1  0
 15 17  1  0
 15 18  1  0
 18 19  2  0
 19 20  1  0
 19 21  1  0
 21 22  1  0
 21 23  2  0
 23 24  1  0
 23 25  1  0
 25 26  1  0
 26 27  2  0
 26 28  1  0
 28 29  1  0
 29 30  1  0
 29 31  1  0
 29 32  1  0
 32 33  1  0
 32 34  1  0
 32 35  1  0
 35 36  1  0
 35 37  1  0
 35 38  1  0
 38 39  2  0
 39 40  1  0
 40 41  1  0
 40 42  2  0
 42 43  1  0
 42 44  1  0
 44 45  1  0
 45 46  2  0
 46 47  1  0
 46 48  1  0
 48 49  1  0
 48 50  2  0
 50 51  1  0
 50 52  1  0
 52 53  1  0
 52 54  2  0
 25 55  2  0
 55 56  1  0
 13  4  1  0
 55 18  1  0
 54 39  1  0
 54 45  1  0
M  CHG  4   3   1  15   1  28  -1  44  -1
M  END
>  <UniqueID>  (28) 
28

>  <SMILES>  (28) 
O=C([N-]CCC/N=c1\cc[n-]c2cc(Cl)ccc12)c1cccc([NH2+][S@+](O)c2cccc(Br)c2)c1

>  <Energy>  (28) 
66.95940514350247

>  <Genealogy>  (28) 
O=C([N-]CCCN=c1cc[n-]c2cc(Cl)ccc12)c1cccc([NH2+][S+](O)c2cccc(Br)c2)c1 (protonated)
O=C([N-]CCCN=c1cc[n-]c2cc(Cl)ccc12)c1cccc([NH2+][S@+](O)c2cccc(Br)c2)c1 (chirality)
O=C([N-]CCC/N=c1\cc[n-]c2cc(Cl)ccc12)c1cccc([NH2+][S@+](O)c2cccc(Br)c2)c1 (cis-trans isomerization)
O=C([N-]CCC/N=c1\cc[n-]c2cc(Cl)ccc12)c1cccc([NH2+][S@+](O)c2cccc(Br)c2)c1 (3D coordinates assigned)
O=C([N-]CCC/N=c1\cc[n-]c2cc(Cl)ccc12)c1cccc([NH2+][S@+](O)c2cccc(Br)c2)c1 (optimized conformer: 66.95940514350247 kcal/mol)

>  <smiles>  (28) 
O=C(NCCCN=c1cc[nH]c2cc(Cl)ccc12)c1cccc(N[S+]([O-])c2cccc(Br)c2)c1

>  <score_type>  (28) 
oracle

>  <origin>  (28) 
adg

>  <m_score__min__energy>  (28) 
-9.6899999999999995

>  <m_primary>  (28) 
energy

$$$$
28:0
     RDKit          3D

 58 61  0  0  0  0  0  0  0  0999 V2000
   57.2840   24.3530   43.7050 C   0  0  0  0  0  0  0  0  0  0  0  0
   57.7670   24.9160   45.0090 C   0  0  0  0  0  0  0  0  0  0  0  0
   57.5020   24.2520   46.2120 C   0  0  0  0  0  0  0  0  0  0  0  0
   57.8970   24.7950   47.3930 N   0  0  0  0  0  0  0  0  0  0  0  0
   58.5500   25.9860   47.4520 C   0  0  0  0  0  0  0  0  0  0  0  0
   58.8380   26.7000   46.2760 C   0  0  0  0  0  0  0  0  0  0  0  0
   59.5360   28.0050   46.3550 C   0  0  0  0  0  0  0  0  0  0  0  0
   60.1830   28.4110   45.3510 O   0  0  0  0  0  0  0  0  0  0  0  0
   59.4900   28.8070   47.5510 N   0  0  0  0  0  0  0  0  0  0  0  0
   60.1060   30.1020   47.6610 C   0  0  0  0  0  0  0  0  0  0  0  0
   61.4960   30.2160   47.5260 C   0  0  0  0  0  0  0  0  0  0  0  0
   62.1150   31.4620   47.6380 C   0  0  0  0  0  0  0  0  0  0  0  0
   61.3510   32.6050   47.8830 C   0  0  0  0  0  0  0  0  0  0  0  0
   59.9560   32.5130   48.0230 C   0  0  0  0  0  0  0  0  0  0  0  0
   59.1240   33.7530   48.2820 C   0  0  0  0  0  0  0  0  0  0  0  0
   58.4300   34.2750   47.0810 N   0  0  0  0  0  0  0  0  0  0  0  0
   57.5370   33.2840   46.4380 C   0  0  0  0  0  0  0  0  0  0  0  0
   57.1440   33.7310   45.0240 C   0  0  0  0  0  0  0  0  0  0  0  0
   58.3260   33.8840   44.1360 N   0  0  0  0  0  0  0  0  0  0  0  0
   58.5260   32.7050   43.2680 C   0  0  0  0  0  0  0  0  0  0  0  0
   57.7430   31.5250   43.7860 C   0  0  0  0  0  0  0  0  0  0  0  0
   58.1170   30.8870   44.9800 C   0  0  0  0  0  0  0  0  0  0  0  0
   57.3810   29.7970   45.4550 C   0  0  0  0  0  0  0  0  0  0  0  0
   56.2710   29.3350   44.7410 C   0  0  0  0  0  0  0  0  0  0  0  0
   55.5410   28.2520   45.2150 O   0  0  0  0  0  0  0  0  0  0  0  0
   55.8940   29.9660   43.5510 C   0  0  0  0  0  0  0  0  0  0  0  0
   56.6270   31.0570   43.0740 C   0  0  0  0  0  0  0  0  0  0  0  0
   59.5780   34.2080   44.8630 C   0  0  0  0  0  0  0  0  0  0  0  0
   59.3000   35.0170   46.1380 C   0  0  0  0  0  0  0  0  0  0  0  0
   59.3470   31.2480   47.9510 C   0  0  0  0  0  0  0  0  0  0  0  0
   58.4210   26.1560   45.0490 C   0  0  0  0  0  0  0  0  0  0  0  0
   56.5790   23.5312   43.8991 H   0  0  0  0  0  0  0  0  0  0  0  0
   56.7778   25.1423   43.1299 H   0  0  0  0  0  0  0  0  0  0  0  0
   58.1411   23.9727   43.1299 H   0  0  0  0  0  0  0  0  0  0  0  0
   56.9725   23.2879   46.2013 H   0  0  0  0  0  0  0  0  0  0  0  0
   58.8551   26.3938   48.4270 H   0  0  0  0  0  0  0  0  0  0  0  0
   59.0510   28.4180   48.4140 H   0  0  0  0  0  0  0  0  0  0  0  0
   62.1023   29.3192   47.3308 H   0  0  0  0  0  0  0  0  0  0  0  0
   63.2069   31.5438   47.5331 H   0  0  0  0  0  0  0  0  0  0  0  0
   61.8449   33.5843   47.9670 H   0  0  0  0  0  0  0  0  0  0  0  0
   58.3659   33.5086   49.0407 H   0  0  0  0  0  0  0  0  0  0  0  0
   59.8185   34.5384   48.6148 H   0  0  0  0  0  0  0  0  0  0  0  0
   58.0578   32.3170   46.3774 H   0  0  0  0  0  0  0  0  0  0  0  0
   56.6226   33.1932   47.0427 H   0  0  0  0  0  0  0  0  0  0  0  0
   56.4690   32.9790   44.5893 H   0  0  0  0  0  0  0  0  0  0  0  0
   56.6517   34.7115   45.1038 H   0  0  0  0  0  0  0  0  0  0  0  0
   58.1871   32.9445   42.2493 H   0  0  0  0  0  0  0  0  0  0  0  0
   59.5951   32.4461   43.2626 H   0  0  0  0  0  0  0  0  0  0  0  0
   58.9913   31.2457   45.5430 H   0  0  0  0  0  0  0  0  0  0  0  0
   57.6758   29.3021   46.3921 H   0  0  0  0  0  0  0  0  0  0  0  0
   55.0200   29.6036   42.9899 H   0  0  0  0  0  0  0  0  0  0  0  0
   56.3282   31.5505   42.1374 H   0  0  0  0  0  0  0  0  0  0  0  0
   60.0833   33.2706   45.1385 H   0  0  0  0  0  0  0  0  0  0  0  0
   60.2115   34.8170   44.2013 H   0  0  0  0  0  0  0  0  0  0  0  0
   60.2561   35.2387   46.6347 H   0  0  0  0  0  0  0  0  0  0  0  0
   58.7807   35.9428   45.8495 H   0  0  0  0  0  0  0  0  0  0  0  0
   58.2647   31.1545   48.1236 H   0  0  0  0  0  0  0  0  0  0  0  0
   58.6086   26.7058   44.1149 H   0  0  0  0  0  0  0  0  0  0  0  0
  1  2  1  0
  2  3  2  0
  3  4  1  0
  4  5  2  0
  5  6  1  0
  6  7  1  0
  7  8  2  0
  7  9  1  0
  9 10  1  0
 10 11  2  0
 11 12  1  0
 12 13  2  0
 13 14  1  0
 14 15  1  0
 15 16  1  0
 16 17  1  0
 17 18  1  0
 18 19  1  0
 19 20  1  0
 20 21  1  0
 21 22  2  0
 22 23  1  0
 23 24  2  0
 24 25  1  0
 24 26  1  0
 26 27  2  0
 19 28  1  0
 28 29  1  0
 14 30  2  0
  6 31  2  0
 31  2  1  0
 30 10  1  0
 29 16  1  0
 27 21  1  0
  1 32  1  0
  1 33  1  0
  1 34  1  0
  3 35  1  0
  5 36  1  0
  9 37  1  0
 11 38  1  0
 12 39  1  0
 13 40  1  0
 15 41  1  0
 15 42  1  0
 17 43  1  0
 17 44  1  0
 18 45  1  0
 18 46  1  0
 20 47  1  0
 20 48  1  0
 22 49  1  0
 23 50  1  0
 26 51  1  0
 27 52  1  0
 28 53  1  0
 28 54  1  0
 29 55  1  0
 29 56  1  0
 30 57  1  0
 31 58  1  0
M  CHG  1  25  -1
M  END
>  <UniqueID>  (29) 
29

>  <SMILES>  (29) 
Cc1cncc(C(=O)Nc2cccc(CN3CCN(Cc4ccc([O-])cc4)CC3)c2)c1

>  <Energy>  (29) 
82.69771796301502

>  <Genealogy>  (29) 
Cc1cncc(C(=O)Nc2cccc(CN3CCN(Cc4ccc([O-])cc4)CC3)c2)c1 (protonated)
Cc1cncc(C(=O)Nc2cccc(CN3CCN(Cc4ccc([O-])cc4)CC3)c2)c1 (3D coordinates assigned)
Cc1cncc(C(=O)Nc2cccc(CN3CCN(Cc4ccc([O-])cc4)CC3)c2)c1 (nonaromatic ring conformer: 82.69771796301502 kcal/mol)

>  <smiles>  (29) 
Cc1cncc(C(=O)Nc2cccc(CN3CCN(Cc4ccc(O)cc4)CC3)c2)c1

>  <score_type>  (29) 
oracle

>  <origin>  (29) 
adg

>  <m_score__min__energy>  (29) 
-12.720000000000001

>  <m_primary>  (29) 
energy

$$$$
29:0
     RDKit          3D

 68 71  0  0  0  0  0  0  0  0999 V2000
   55.3600   25.7030   46.0010 O   0  0  0  0  0  0  0  0  0  0  0  0
   56.5310   25.6680   46.4610 C   0  0  0  0  0  0  0  0  0  0  0  0
   57.6680   26.1800   45.6120 C   0  0  0  0  0  0  0  0  0  0  0  0
   58.5130   27.1700   46.3720 C   0  0  0  0  0  0  0  0  0  0  0  0
   59.8500   26.8690   46.6760 C   0  0  0  0  0  0  0  0  0  0  0  0
   60.6320   27.7750   47.3970 C   0  0  0  0  0  0  0  0  0  0  0  0
   60.0960   28.9980   47.8260 C   0  0  0  0  0  0  0  0  0  0  0  0
   60.9440   29.9280   48.5250 N   0  0  0  0  0  0  0  0  0  0  0  0
   60.4620   31.0410   49.3060 C   0  0  0  0  0  0  0  0  0  0  0  0
   59.2240   31.2060   49.4630 O   0  0  0  0  0  0  0  0  0  0  0  0
   61.4010   32.0900   49.8760 C   0  0  2  0  0  0  0  0  0  0  0  0
   60.8390   33.4930   50.0700 C   0  0  0  0  0  0  0  0  0  0  0  0
   62.0770   34.3580   50.1970 C   0  0  0  0  0  0  0  0  0  0  0  0
   63.2280   33.5190   49.6400 C   0  0  0  0  0  0  0  0  0  0  0  0
   62.6850   32.2360   49.1630 N   0  0  0  0  0  0  0  0  0  0  0  0
   62.5680   32.2280   47.4040 S   0  0  0  0  0  0  0  0  0  0  0  0
   63.6430   33.1100   46.8300 O   0  0  0  0  0  0  0  0  0  0  0  0
   62.8170   30.8370   46.8910 O   0  0  0  0  0  0  0  0  0  0  0  0
   61.0080   32.7970   46.8100 C   0  0  0  0  0  0  0  0  0  0  0  0
   60.7060   34.1670   46.8020 C   0  0  0  0  0  0  0  0  0  0  0  0
   59.4790   34.6140   46.3080 C   0  0  0  0  0  0  0  0  0  0  0  0
   58.5390   33.6950   45.8310 C   0  0  0  0  0  0  0  0  0  0  0  0
   57.0040   34.2590   45.1970 Cl  0  0  0  0  0  0  0  0  0  0  0  0
   58.8250   32.3270   45.8580 C   0  0  0  0  0  0  0  0  0  0  0  0
   60.0530   31.8780   46.3510 C   0  0  0  0  0  0  0  0  0  0  0  0
   58.7630   29.3090   47.5020 C   0  0  0  0  0  0  0  0  0  0  0  0
   57.9750   28.3960   46.7950 C   0  0  0  0  0  0  0  0  0  0  0  0
   56.7130   25.2220   47.8130 N   0  0  0  0  0  0  0  0  0  0  0  0
   56.8860   23.8440   48.2620 C   0  0  0  0  0  0  0  0  0  0  0  0
   55.8940   22.9190   47.5460 C   0  0  0  0  0  0  0  0  0  0  0  0
   56.5840   21.9140   46.6530 C   0  0  0  0  0  0  0  0  0  0  0  0
   57.3760   21.0770   47.1700 O   0  0  0  0  0  0  0  0  0  0  0  0
   56.4020   21.9290   45.2190 N   0  0  0  0  0  0  0  0  0  0  0  0
   55.6610   23.0140   44.5630 C   0  0  0  0  0  0  0  0  0  0  0  0
   56.0880   23.1460   43.0980 C   0  0  0  0  0  0  0  0  0  0  0  0
   56.0270   21.8970   42.4400 O   0  0  0  0  0  0  0  0  0  0  0  0
   56.9830   21.0210   43.0030 C   0  0  0  0  0  0  0  0  0  0  0  0
   56.6300   20.6940   44.4570 C   0  0  0  0  0  0  0  0  0  0  0  0
   58.2975   25.3315   45.3058 H   0  0  0  0  0  0  0  0  0  0  0  0
   57.2449   26.6865   44.7320 H   0  0  0  0  0  0  0  0  0  0  0  0
   60.2845   25.9143   46.3447 H   0  0  0  0  0  0  0  0  0  0  0  0
   61.6779   27.5267   47.6304 H   0  0  0  0  0  0  0  0  0  0  0  0
   61.9610   29.7070   48.5260 H   0  0  0  0  0  0  0  0  0  0  0  0
   61.5600   31.6433   50.8686 H   0  0  0  0  0  0  0  0  0  0  0  0
   60.2344   33.7973   49.2029 H   0  0  0  0  0  0  0  0  0  0  0  0
   60.1725   33.5698   50.9417 H   0  0  0  0  0  0  0  0  0  0  0  0
   61.9597   35.2832   49.6137 H   0  0  0  0  0  0  0  0  0  0  0  0
   62.2592   34.6548   51.2404 H   0  0  0  0  0  0  0  0  0  0  0  0
   63.7057   34.0527   48.8052 H   0  0  0  0  0  0  0  0  0  0  0  0
   63.9782   33.3415   50.4247 H   0  0  0  0  0  0  0  0  0  0  0  0
   61.4387   34.8918   47.1864 H   0  0  0  0  0  0  0  0  0  0  0  0
   59.2515   35.6901   46.2940 H   0  0  0  0  0  0  0  0  0  0  0  0
   58.0826   31.6031   45.4908 H   0  0  0  0  0  0  0  0  0  0  0  0
   60.2714   30.8003   46.3792 H   0  0  0  0  0  0  0  0  0  0  0  0
   58.3379   30.2767   47.8068 H   0  0  0  0  0  0  0  0  0  0  0  0
   56.9265   28.6397   46.5686 H   0  0  0  0  0  0  0  0  0  0  0  0
   57.9122   23.5165   48.0393 H   0  0  0  0  0  0  0  0  0  0  0  0
   56.7001   23.7960   49.3451 H   0  0  0  0  0  0  0  0  0  0  0  0
   55.3085   22.3759   48.3024 H   0  0  0  0  0  0  0  0  0  0  0  0
   55.2503   23.5453   46.9108 H   0  0  0  0  0  0  0  0  0  0  0  0
   54.5839   22.7954   44.6078 H   0  0  0  0  0  0  0  0  0  0  0  0
   55.8783   23.9585   45.0833 H   0  0  0  0  0  0  0  0  0  0  0  0
   55.4168   23.8539   42.5897 H   0  0  0  0  0  0  0  0  0  0  0  0
   57.1257   23.5095   43.0660 H   0  0  0  0  0  0  0  0  0  0  0  0
   57.0064   20.0891   42.4191 H   0  0  0  0  0  0  0  0  0  0  0  0
   57.9674   21.5113   42.9805 H   0  0  0  0  0  0  0  0  0  0  0  0
   55.7171   20.0807   44.4792 H   0  0  0  0  0  0  0  0  0  0  0  0
   57.4665   20.1434   44.9120 H   0  0  0  0  0  0  0  0  0  0  0  0
  1  2  2  0
  2  3  1  0
  3  4  1  0
  4  5  2  0
  5  6  1  0
  6  7  2  0
  7  8  1  0
  8  9  1  0
  9 10  2  0
  9 11  1  0
 11 12  1  0
 12 13  1  0
 13 14  1  0
 14 15  1  0
 15 16  1  0
 16 17  2  0
 16 18  2  0
 16 19  1  0
 19 20  2  0
 20 21  1  0
 21 22  2  0
 22 23  1  0
 22 24  1  0
 24 25  2  0
  7 26  1  0
 26 27  2  0
  2 28  1  0
 28 29  1  0
 29 30  1  0
 30 31  1  0
 31 32  2  0
 31 33  1  0
 33 34  1  0
 34 35  1  0
 35 36  1  0
 36 37  1  0
 37 38  1  0
 27  4  1  0
 38 33  1  0
 15 11  1  0
 25 19  1  0
  3 39  1  0
  3 40  1  0
  5 41  1  0
  6 42  1  0
  8 43  1  0
 11 44  1  1
 12 45  1  0
 12 46  1  0
 13 47  1  0
 13 48  1  0
 14 49  1  0
 14 50  1  0
 20 51  1  0
 21 52  1  0
 24 53  1  0
 25 54  1  0
 26 55  1  0
 27 56  1  0
 29 57  1  0
 29 58  1  0
 30 59  1  0
 30 60  1  0
 34 61  1  0
 34 62  1  0
 35 63  1  0
 35 64  1  0
 37 65  1  0
 37 66  1  0
 38 67  1  0
 38 68  1  0
M  CHG  1  28  -1
M  END
>  <UniqueID>  (30) 
30

>  <SMILES>  (30) 
O=C(Cc1ccc(NC(=O)[C@@H]2CCCN2S(=O)(=O)c2ccc(Cl)cc2)cc1)[N-]CCC(=O)N1CCOCC1

>  <Energy>  (30) 
80.7784175093945

>  <Genealogy>  (30) 
O=C(Cc1ccc(NC(=O)C2CCCN2S(=O)(=O)c2ccc(Cl)cc2)cc1)[N-]CCC(=O)N1CCOCC1 (protonated)
O=C(Cc1ccc(NC(=O)[C@@H]2CCCN2S(=O)(=O)c2ccc(Cl)cc2)cc1)[N-]CCC(=O)N1CCOCC1 (chirality)
O=C(Cc1ccc(NC(=O)[C@@H]2CCCN2S(=O)(=O)c2ccc(Cl)cc2)cc1)[N-]CCC(=O)N1CCOCC1 (3D coordinates assigned)
O=C(Cc1ccc(NC(=O)[C@@H]2CCCN2S(=O)(=O)c2ccc(Cl)cc2)cc1)[N-]CCC(=O)N1CCOCC1 (nonaromatic ring conformer: 80.7784175093945 kcal/mol)

>  <smiles>  (30) 
O=C(Cc1ccc(NC(=O)C2CCCN2S(=O)(=O)c2ccc(Cl)cc2)cc1)NCCC(=O)N1CCOCC1

>  <score_type>  (30) 
oracle

>  <origin>  (30) 
adg

>  <m_score__min__energy>  (30) 
-12.25

>  <m_primary>  (30) 
energy

$$$$
30:0
     RDKit          3D

 53 55  0  0  0  0  0  0  0  0999 V2000
   63.0420   34.2340   48.7970 C   0  0  0  0  0  0  0  0  0  0  0  0
   62.9950   33.3570   50.0560 C   0  0  0  0  0  0  0  0  0  0  0  0
   64.3850   33.3200   50.7070 C   0  0  0  0  0  0  0  0  0  0  0  0
   61.9210   33.8820   51.0340 C   0  0  0  0  0  0  0  0  0  0  0  0
   60.2490   33.5400   50.4910 S   0  0  0  0  0  0  0  0  0  0  0  0
   60.0360   34.2020   49.1600 O   0  0  0  0  0  0  0  0  0  0  0  0
   59.2540   34.1020   51.4670 O   0  0  0  0  0  0  0  0  0  0  0  0
   60.0210   31.8310   50.3020 N   0  0  0  0  0  0  0  0  0  0  0  0
   60.3240   31.1140   49.1000 C   0  0  0  0  0  0  0  0  0  0  0  0
   61.3730   31.5630   48.2920 C   0  0  0  0  0  0  0  0  0  0  0  0
   61.6730   30.9070   47.0980 C   0  0  0  0  0  0  0  0  0  0  0  0
   60.9410   29.7810   46.7140 C   0  0  0  0  0  0  0  0  0  0  0  0
   59.9130   29.2920   47.5330 C   0  0  0  0  0  0  0  0  0  0  0  0
   59.1000   28.1030   47.0900 C   0  0  0  0  0  0  0  0  0  0  0  0
   58.0330   28.5510   46.1360 C   0  0  0  0  0  0  0  0  0  0  0  0
   58.1560   29.7550   45.4380 C   0  0  0  0  0  0  0  0  0  0  0  0
   57.0940   30.2060   44.6410 C   0  0  0  0  0  0  0  0  0  0  0  0
   57.2210   31.5060   43.8770 C   0  0  0  0  0  0  0  0  0  0  0  0
   57.8420   32.5880   44.7220 C   0  0  0  0  0  0  0  0  0  0  0  0
   58.7680   33.4810   44.1610 C   0  0  0  0  0  0  0  0  0  0  0  0
   59.3160   34.5070   44.9350 C   0  0  0  0  0  0  0  0  0  0  0  0
   58.9470   34.6500   46.2760 C   0  0  0  0  0  0  0  0  0  0  0  0
   59.5000   35.6790   47.0360 O   0  0  0  0  0  0  0  0  0  0  0  0
   58.0270   33.7610   46.8440 C   0  0  0  0  0  0  0  0  0  0  0  0
   57.4750   32.7350   46.0710 C   0  0  0  0  0  0  0  0  0  0  0  0
   55.9460   29.3990   44.5430 C   0  0  0  0  0  0  0  0  0  0  0  0
   54.9670   29.7400   43.8270 O   0  0  0  0  0  0  0  0  0  0  0  0
   55.8850   28.2340   45.2390 N   0  0  0  0  0  0  0  0  0  0  0  0
   56.8900   27.8270   46.0150 N   0  0  0  0  0  0  0  0  0  0  0  0
   59.6040   29.9640   48.7290 C   0  0  0  0  0  0  0  0  0  0  0  0
   58.6320   29.4790   49.5370 F   0  0  0  0  0  0  0  0  0  0  0  0
   63.0987   35.2928   49.0896 H   0  0  0  0  0  0  0  0  0  0  0  0
   63.9273   33.9707   48.1996 H   0  0  0  0  0  0  0  0  0  0  0  0
   62.1336   34.0669   48.1996 H   0  0  0  0  0  0  0  0  0  0  0  0
   62.7162   32.3290   49.7813 H   0  0  0  0  0  0  0  0  0  0  0  0
   64.2774   33.3229   51.8017 H   0  0  0  0  0  0  0  0  0  0  0  0
   64.9129   32.4075   50.3928 H   0  0  0  0  0  0  0  0  0  0  0  0
   64.9606   34.2031   50.3928 H   0  0  0  0  0  0  0  0  0  0  0  0
   62.0757   33.4047   52.0129 H   0  0  0  0  0  0  0  0  0  0  0  0
   62.0316   34.9752   51.0866 H   0  0  0  0  0  0  0  0  0  0  0  0
   61.9647   32.4379   48.5994 H   0  0  0  0  0  0  0  0  0  0  0  0
   62.4874   31.2771   46.4578 H   0  0  0  0  0  0  0  0  0  0  0  0
   61.1720   29.2755   45.7647 H   0  0  0  0  0  0  0  0  0  0  0  0
   59.7568   27.3762   46.5897 H   0  0  0  0  0  0  0  0  0  0  0  0
   58.6319   27.6329   47.9674 H   0  0  0  0  0  0  0  0  0  0  0  0
   59.0808   30.3459   45.5132 H   0  0  0  0  0  0  0  0  0  0  0  0
   57.8512   31.3392   42.9910 H   0  0  0  0  0  0  0  0  0  0  0  0
   56.2122   31.8336   43.5857 H   0  0  0  0  0  0  0  0  0  0  0  0
   59.0637   33.3726   43.1070 H   0  0  0  0  0  0  0  0  0  0  0  0
   60.0399   35.2043   44.4881 H   0  0  0  0  0  0  0  0  0  0  0  0
   59.2270   35.8300   48.0000 H   0  0  0  0  0  0  0  0  0  0  0  0
   57.7380   33.8697   47.8998 H   0  0  0  0  0  0  0  0  0  0  0  0
   56.7505   32.0399   46.5203 H   0  0  0  0  0  0  0  0  0  0  0  0
  1  2  1  0
  2  3  1  0
  2  4  1  0
  4  5  1  0
  5  6  2  0
  5  7  2  0
  5  8  1  0
  8  9  1  0
  9 10  2  0
 10 11  1  0
 11 12  2  0
 12 13  1  0
 13 14  1  0
 14 15  1  0
 15 16  1  0
 16 17  2  0
 17 18  1  0
 18 19  1  0
 19 20  2  0
 20 21  1  0
 21 22  2  0
 22 23  1  0
 22 24  1  0
 24 25  2  0
 17 26  1  0
 26 27  2  0
 26 28  1  0
 28 29  1  0
 13 30  2  0
 30 31  1  0
 30  9  1  0
 29 15  2  0
 25 19  1  0
  1 32  1  0
  1 33  1  0
  1 34  1  0
  2 35  1  0
  3 36  1  0
  3 37  1  0
  3 38  1  0
  4 39  1  0
  4 40  1  0
 10 41  1  0
 11 42  1  0
 12 43  1  0
 14 44  1  0
 14 45  1  0
 16 46  1  0
 18 47  1  0
 18 48  1  0
 20 49  1  0
 21 50  1  0
 23 51  1  0
 24 52  1  0
 25 53  1  0
M  CHG  2   8  -1  28  -1
M  END
>  <UniqueID>  (31) 
31

>  <SMILES>  (31) 
CC(C)CS(=O)(=O)[N-]c1cccc(Cc2cc(Cc3ccc(O)cc3)c(=O)[n-]n2)c1F

>  <Energy>  (31) 
55.366596351389695

>  <Genealogy>  (31) 
CC(C)CS(=O)(=O)[N-]c1cccc(Cc2cc(Cc3ccc(O)cc3)c(=O)[n-]n2)c1F (protonated)
CC(C)CS(=O)(=O)[N-]c1cccc(Cc2cc(Cc3ccc(O)cc3)c(=O)[n-]n2)c1F (3D coordinates assigned)
CC(C)CS(=O)(=O)[N-]c1cccc(Cc2cc(Cc3ccc(O)cc3)c(=O)[n-]n2)c1F (optimized conformer: 55.366596351389695 kcal/mol)

>  <smiles>  (31) 
CC(C)CS(=O)(=O)Nc1cccc(Cc2cc(Cc3ccc(O)cc3)c(=O)[nH]n2)c1F

>  <score_type>  (31) 
oracle

>  <origin>  (31) 
adg

>  <m_score__min__energy>  (31) 
-13.25

>  <m_primary>  (31) 
energy

$$$$
31:0
     RDKit          3D

 69 74  0  0  0  0  0  0  0  0999 V2000
   49.9190   21.3040   46.8820 C   0  0  0  0  0  0  0  0  0  0  0  0
   51.3380   21.7200   46.6270 C   0  0  0  0  0  0  0  0  0  0  0  0
   51.6110   22.9490   46.0120 C   0  0  0  0  0  0  0  0  0  0  0  0
   52.9300   23.3540   45.8020 C   0  0  0  0  0  0  0  0  0  0  0  0
   53.9950   22.5440   46.2170 C   0  0  0  0  0  0  0  0  0  0  0  0
   55.3450   22.9830   45.9830 N   0  0  0  0  0  0  0  0  0  0  0  0
   55.9950   23.8060   46.8750 C   0  0  0  0  0  0  0  0  0  0  0  0
   55.4000   24.1640   47.9310 O   0  0  0  0  0  0  0  0  0  0  0  0
   57.2900   24.2380   46.6260 N   0  0  0  0  0  0  0  0  0  0  0  0
   57.9600   25.1640   47.5610 C   0  0  0  0  0  0  0  0  0  0  0  0
   57.9260   26.5700   47.0180 C   0  0  0  0  0  0  0  0  0  0  0  0
   57.1090   26.8910   45.9230 C   0  0  0  0  0  0  0  0  0  0  0  0
   57.0430   28.2040   45.4500 C   0  0  0  0  0  0  0  0  0  0  0  0
   57.7930   29.2200   46.0640 C   0  0  0  0  0  0  0  0  0  0  0  0
   57.7040   30.6160   45.5770 C   0  0  0  0  0  0  0  0  0  0  0  0
   56.8540   30.9190   44.6970 O   0  0  0  0  0  0  0  0  0  0  0  0
   58.5560   31.6400   46.1110 N   0  0  0  0  0  0  0  0  0  0  0  0
   57.9680   32.8960   46.5880 C   0  0  0  0  0  0  0  0  0  0  0  0
   58.6710   33.3460   47.8750 C   0  0  0  0  0  0  0  0  0  0  0  0
   60.1290   33.1730   47.7830 N   0  0  0  0  0  0  0  0  0  0  0  0
   60.9410   33.3980   48.9480 C   0  0  0  0  0  0  0  0  0  0  0  0
   60.4190   33.1520   50.2300 C   0  0  0  0  0  0  0  0  0  0  0  0
   61.2100   33.3550   51.3640 C   0  0  0  0  0  0  0  0  0  0  0  0
   62.5270   33.8020   51.2290 C   0  0  0  0  0  0  0  0  0  0  0  0
   63.0570   34.0410   49.9600 C   0  0  0  0  0  0  0  0  0  0  0  0
   62.2710   33.8400   48.8200 C   0  0  0  0  0  0  0  0  0  0  0  0
   62.8160   34.0400   47.5940 F   0  0  0  0  0  0  0  0  0  0  0  0
   60.7400   32.7430   46.5190 C   0  0  0  0  0  0  0  0  0  0  0  0
   60.0160   31.5010   45.9900 C   0  0  0  0  0  0  0  0  0  0  0  0
   58.5970   28.9000   47.1710 C   0  0  0  0  0  0  0  0  0  0  0  0
   58.6660   27.5860   47.6410 C   0  0  0  0  0  0  0  0  0  0  0  0
   57.9360   23.8440   45.4740 C   0  0  0  0  0  0  0  0  0  0  0  0
   59.1110   24.2220   45.2150 O   0  0  0  0  0  0  0  0  0  0  0  0
   57.2640   23.0150   44.5940 C   0  0  0  0  0  0  0  0  0  0  0  0
   57.5840   22.4530   43.3820 C   0  0  0  0  0  0  0  0  0  0  0  0
   56.5140   21.7360   42.9610 N   0  0  0  0  0  0  0  0  0  0  0  0
   55.5400   21.8300   43.8640 N   0  0  0  0  0  0  0  0  0  0  0  0
   56.0050   22.6090   44.8570 C   0  0  0  0  0  0  0  0  0  0  0  0
   53.7330   21.3200   46.8690 C   0  0  0  0  0  0  0  0  0  0  0  0
   54.8590   20.4360   47.3300 C   0  0  0  0  0  0  0  0  0  0  0  0
   52.4010   20.9140   47.0630 C   0  0  0  0  0  0  0  0  0  0  0  0
   49.7414   21.2519   47.9663 H   0  0  0  0  0  0  0  0  0  0  0  0
   49.2350   22.0394   46.4333 H   0  0  0  0  0  0  0  0  0  0  0  0
   49.7404   20.3157   46.4333 H   0  0  0  0  0  0  0  0  0  0  0  0
   50.7818   23.5977   45.6932 H   0  0  0  0  0  0  0  0  0  0  0  0
   53.1346   24.3151   45.3076 H   0  0  0  0  0  0  0  0  0  0  0  0
   57.4429   25.1371   48.5315 H   0  0  0  0  0  0  0  0  0  0  0  0
   59.0079   24.8528   47.6840 H   0  0  0  0  0  0  0  0  0  0  0  0
   56.5167   26.1036   45.4339 H   0  0  0  0  0  0  0  0  0  0  0  0
   56.3992   28.4434   44.5908 H   0  0  0  0  0  0  0  0  0  0  0  0
   58.0881   33.6710   45.8167 H   0  0  0  0  0  0  0  0  0  0  0  0
   56.8990   32.7398   46.7949 H   0  0  0  0  0  0  0  0  0  0  0  0
   58.4478   34.4086   48.0512 H   0  0  0  0  0  0  0  0  0  0  0  0
   58.3019   32.7250   48.7045 H   0  0  0  0  0  0  0  0  0  0  0  0
   59.3834   32.7982   50.3409 H   0  0  0  0  0  0  0  0  0  0  0  0
   60.7952   33.1626   52.3645 H   0  0  0  0  0  0  0  0  0  0  0  0
   63.1464   33.9656   52.1232 H   0  0  0  0  0  0  0  0  0  0  0  0
   64.0955   34.3883   49.8559 H   0  0  0  0  0  0  0  0  0  0  0  0
   60.6610   33.5543   45.7804 H   0  0  0  0  0  0  0  0  0  0  0  0
   61.7992   32.5009   46.6909 H   0  0  0  0  0  0  0  0  0  0  0  0
   60.2757   31.3591   44.9306 H   0  0  0  0  0  0  0  0  0  0  0  0
   60.3326   30.6339   46.5883 H   0  0  0  0  0  0  0  0  0  0  0  0
   59.1764   29.6899   47.6714 H   0  0  0  0  0  0  0  0  0  0  0  0
   59.3042   27.3468   48.5044 H   0  0  0  0  0  0  0  0  0  0  0  0
   58.5392   22.5651   42.8481 H   0  0  0  0  0  0  0  0  0  0  0  0
   54.8835   20.4168   48.4296 H   0  0  0  0  0  0  0  0  0  0  0  0
   54.7039   19.4159   46.9488 H   0  0  0  0  0  0  0  0  0  0  0  0
   55.8132   20.8288   46.9488 H   0  0  0  0  0  0  0  0  0  0  0  0
   52.1901   19.9561   47.5609 H   0  0  0  0  0  0  0  0  0  0  0  0
  1  2  1  0
  2  3  2  0
  3  4  1  0
  4  5  2  0
  5  6  1  0
  6  7  1  0
  7  8  2  0
  7  9  1  0
  9 10  1  0
 10 11  1  0
 11 12  2  0
 12 13  1  0
 13 14  2  0
 14 15  1  0
 15 16  2  0
 15 17  1  0
 17 18  1  0
 18 19  1  0
 19 20  1  0
 20 21  1  0
 21 22  2  0
 22 23  1  0
 23 24  2  0
 24 25  1  0
 25 26  2  0
 26 27  1  0
 20 28  1  0
 28 29  1  0
 14 30  1  0
 30 31  2  0
  9 32  1  0
 32 33  2  0
 32 34  1  0
 34 35  1  0
 35 36  2  0
 36 37  1  0
 37 38  1  0
  5 39  1  0
 39 40  1  0
 39 41  2  0
 41  2  1  0
 38  6  1  0
 31 11  1  0
 38 34  2  0
 29 17  1  0
 26 21  1  0
  1 42  1  0
  1 43  1  0
  1 44  1  0
  3 45  1  0
  4 46  1  0
 10 47  1  0
 10 48  1  0
 12 49  1  0
 13 50  1  0
 18 51  1  0
 18 52  1  0
 19 53  1  0
 19 54  1  0
 22 55  1  0
 23 56  1  0
 24 57  1  0
 25 58  1  0
 28 59  1  0
 28 60  1  0
 29 61  1  0
 29 62  1  0
 30 63  1  0
 31 64  1  0
 35 65  1  0
 40 66  1  0
 40 67  1  0
 40 68  1  0
 41 69  1  0
M  CHG  1  37  -1
M  END
>  <UniqueID>  (32) 
32

>  <SMILES>  (32) 
Cc1ccc(-n2c(=O)n(Cc3ccc(C(=O)N4CCN(c5ccccc5F)CC4)cc3)c(=O)c3cn[n-]c32)c(C)c1

>  <Energy>  (32) 
137.7024449876605

>  <Genealogy>  (32) 
Cc1ccc(-n2c(=O)n(Cc3ccc(C(=O)N4CCN(c5ccccc5F)CC4)cc3)c(=O)c3cn[n-]c32)c(C)c1 (protonated)
Cc1ccc(-n2c(=O)n(Cc3ccc(C(=O)N4CCN(c5ccccc5F)CC4)cc3)c(=O)c3cn[n-]c32)c(C)c1 (3D coordinates assigned)
Cc1ccc(-n2c(=O)n(Cc3ccc(C(=O)N4CCN(c5ccccc5F)CC4)cc3)c(=O)c3cn[n-]c32)c(C)c1 (nonaromatic ring conformer: 137.7024449876605 kcal/mol)

>  <smiles>  (32) 
Cc1ccc(-n2c(=O)n(Cc3ccc(C(=O)N4CCN(c5ccccc5F)CC4)cc3)c(=O)c3cn[nH]c32)c(C)c1

>  <score_type>  (32) 
oracle

>  <origin>  (32) 
adg

>  <m_score__min__energy>  (32) 
-10.67

>  <m_primary>  (32) 
energy

$$$$
32:0
     RDKit          3D

 48 50  0  0  0  0  0  0  0  0999 V2000
   53.5210   23.1330   45.8850 C   0  0  0  0  0  0  0  0  0  0  0  0
   54.8200   22.9120   45.6930 C   0  0  0  0  0  0  0  0  0  0  0  0
   55.7150   23.8760   45.0030 C   0  0  0  0  0  0  0  0  0  0  0  0
   56.1620   23.5850   43.7150 C   0  0  0  0  0  0  0  0  0  0  0  0
   55.7830   22.4100   43.0760 O   0  0  0  0  0  0  0  0  0  0  0  0
   56.9910   24.4430   43.0810 N   0  0  0  0  0  0  0  0  0  0  0  0
   57.3960   25.6010   43.6520 C   0  0  0  0  0  0  0  0  0  0  0  0
   58.2010   26.3330   43.0120 O   0  0  0  0  0  0  0  0  0  0  0  0
   56.9460   25.9680   44.9030 N   0  0  0  0  0  0  0  0  0  0  0  0
   57.4590   27.2430   45.4930 C   0  0  1  0  0  0  0  0  0  0  0  0
   59.0040   27.3490   45.5770 C   0  0  0  0  0  0  0  0  0  0  0  0
   59.4300   28.5170   46.4350 C   0  0  0  0  0  0  0  0  0  0  0  0
   60.3850   29.4330   45.9640 C   0  0  0  0  0  0  0  0  0  0  0  0
   60.7470   30.5380   46.7400 C   0  0  0  0  0  0  0  0  0  0  0  0
   60.1550   30.7390   47.9900 C   0  0  0  0  0  0  0  0  0  0  0  0
   59.1990   29.8370   48.4640 C   0  0  0  0  0  0  0  0  0  0  0  0
   58.8330   28.7300   47.6880 C   0  0  0  0  0  0  0  0  0  0  0  0
   56.8500   28.4350   44.7930 C   0  0  0  0  0  0  0  0  0  0  0  0
   55.7800   28.9260   45.2440 O   0  0  0  0  0  0  0  0  0  0  0  0
   57.4700   29.0140   43.6340 N   0  0  0  0  0  0  0  0  0  0  0  0
   57.0160   30.2770   43.0570 C   0  0  0  0  0  0  0  0  0  0  0  0
   57.4820   31.4240   43.9080 C   0  0  0  0  0  0  0  0  0  0  0  0
   57.4170   31.3480   45.3090 C   0  0  0  0  0  0  0  0  0  0  0  0
   57.9080   32.3950   46.0950 C   0  0  0  0  0  0  0  0  0  0  0  0
   58.4720   33.5210   45.4890 C   0  0  0  0  0  0  0  0  0  0  0  0
   58.5440   33.6020   44.0960 C   0  0  0  0  0  0  0  0  0  0  0  0
   58.0550   32.5560   43.3070 C   0  0  0  0  0  0  0  0  0  0  0  0
   56.1080   25.1030   45.5810 C   0  0  0  0  0  0  0  0  0  0  0  0
   55.6550   25.4060   46.7180 O   0  0  0  0  0  0  0  0  0  0  0  0
   52.9061   22.3824   46.4032 H   0  0  0  0  0  0  0  0  0  0  0  0
   53.0628   24.0662   45.5254 H   0  0  0  0  0  0  0  0  0  0  0  0
   55.2511   21.9701   46.0632 H   0  0  0  0  0  0  0  0  0  0  0  0
   57.1323   27.2365   46.5433 H   0  0  0  0  0  0  0  0  0  0  0  0
   59.4034   26.4209   46.0119 H   0  0  0  0  0  0  0  0  0  0  0  0
   59.3963   27.5042   44.5611 H   0  0  0  0  0  0  0  0  0  0  0  0
   60.8506   29.2800   44.9792 H   0  0  0  0  0  0  0  0  0  0  0  0
   61.4981   31.2496   46.3666 H   0  0  0  0  0  0  0  0  0  0  0  0
   60.4418   31.6077   48.6009 H   0  0  0  0  0  0  0  0  0  0  0  0
   58.7333   29.9965   49.4477 H   0  0  0  0  0  0  0  0  0  0  0  0
   58.0755   28.0252   48.0613 H   0  0  0  0  0  0  0  0  0  0  0  0
   58.3160   28.5680   43.2210 H   0  0  0  0  0  0  0  0  0  0  0  0
   57.4284   30.3840   42.0429 H   0  0  0  0  0  0  0  0  0  0  0  0
   55.9169   30.2812   43.0134 H   0  0  0  0  0  0  0  0  0  0  0  0
   56.9781   30.4613   45.7898 H   0  0  0  0  0  0  0  0  0  0  0  0
   57.8503   32.3323   47.1917 H   0  0  0  0  0  0  0  0  0  0  0  0
   58.8592   34.3433   46.1086 H   0  0  0  0  0  0  0  0  0  0  0  0
   58.9858   34.4895   43.6194 H   0  0  0  0  0  0  0  0  0  0  0  0
   58.1196   32.6205   42.2108 H   0  0  0  0  0  0  0  0  0  0  0  0
  1  2  2  0
  2  3  1  0
  3  4  2  0
  4  5  1  0
  4  6  1  0
  6  7  1  0
  7  8  2  0
  7  9  1  0
  9 10  1  0
 10 11  1  0
 11 12  1  0
 12 13  2  0
 13 14  1  0
 14 15  2  0
 15 16  1  0
 16 17  2  0
 10 18  1  0
 18 19  2  0
 18 20  1  0
 20 21  1  0
 21 22  1  0
 22 23  2  0
 23 24  1  0
 24 25  2  0
 25 26  1  0
 26 27  2  0
  9 28  1  0
 28 29  2  0
 28  3  1  0
 17 12  1  0
 27 22  1  0
  1 30  1  0
  1 31  1  0
  2 32  1  0
 10 33  1  1
 11 34  1  0
 11 35  1  0
 13 36  1  0
 14 37  1  0
 15 38  1  0
 16 39  1  0
 17 40  1  0
 20 41  1  0
 21 42  1  0
 21 43  1  0
 23 44  1  0
 24 45  1  0
 25 46  1  0
 26 47  1  0
 27 48  1  0
M  CHG  2   5  -1   6  -1
M  END
>  <UniqueID>  (33) 
33

>  <SMILES>  (33) 
C=Cc1c([O-])[n-]c(=O)n([C@@H](Cc2ccccc2)C(=O)NCc2ccccc2)c1=O

>  <Energy>  (33) 
59.338245405874794

>  <Genealogy>  (33) 
C=Cc1c([O-])[n-]c(=O)n(C(Cc2ccccc2)C(=O)NCc2ccccc2)c1=O (protonated)
C=Cc1c([O-])[n-]c(=O)n([C@@H](Cc2ccccc2)C(=O)NCc2ccccc2)c1=O (chirality)
C=Cc1c([O-])[n-]c(=O)n([C@@H](Cc2ccccc2)C(=O)NCc2ccccc2)c1=O (3D coordinates assigned)
C=Cc1c([O-])[n-]c(=O)n([C@@H](Cc2ccccc2)C(=O)NCc2ccccc2)c1=O (optimized conformer: 59.338245405874794 kcal/mol)

>  <smiles>  (33) 
C=Cc1c(O)[nH]c(=O)n(C(Cc2ccccc2)C(=O)NCc2ccccc2)c1=O

>  <score_type>  (33) 
oracle

>  <origin>  (33) 
adg

>  <m_score__min__energy>  (33) 
-12.609999999999999

>  <m_primary>  (33) 
energy

$$$$
33:0
     RDKit          3D

 58 61  0  0  0  0  0  0  0  0999 V2000
   63.4190   31.6830   50.8450 C   0  0  0  0  0  0  0  0  0  0  0  0
   63.0290   33.1020   50.8700 N   0  0  0  0  0  0  0  0  0  0  0  0
   63.8870   33.8700   49.9410 C   0  0  0  0  0  0  0  0  0  0  0  0
   64.1440   33.1470   48.6020 C   0  0  0  0  0  0  0  0  0  0  0  0
   63.0750   33.4410   47.5340 C   0  0  0  0  0  0  0  0  0  0  0  0
   61.6980   33.4210   48.0640 N   0  0  0  0  0  0  0  0  0  0  0  0
   60.6660   32.7440   47.3130 C   0  0  0  0  0  0  0  0  0  0  0  0
   59.5970   33.4640   46.7500 C   0  0  0  0  0  0  0  0  0  0  0  0
   58.6060   32.8080   46.0150 C   0  0  0  0  0  0  0  0  0  0  0  0
   58.6630   31.4170   45.8190 C   0  0  0  0  0  0  0  0  0  0  0  0
   57.6160   30.7190   45.0370 C   0  0  0  0  0  0  0  0  0  0  0  0
   56.5150   31.2920   44.8110 O   0  0  0  0  0  0  0  0  0  0  0  0
   57.8350   29.3760   44.5810 N   0  0  0  0  0  0  0  0  0  0  0  0
   57.7710   28.1810   45.3730 C   0  0  0  0  0  0  0  0  0  0  0  0
   58.9380   27.7300   46.0020 C   0  0  0  0  0  0  0  0  0  0  0  0
   58.9220   26.5610   46.7680 C   0  0  0  0  0  0  0  0  0  0  0  0
   57.7400   25.8300   46.9080 C   0  0  0  0  0  0  0  0  0  0  0  0
   56.5610   26.2670   46.2790 C   0  0  0  0  0  0  0  0  0  0  0  0
   55.3380   25.5230   46.3750 N   0  0  0  0  0  0  0  0  0  0  0  0
   54.8570   24.5600   45.4280 C   0  0  0  0  0  0  0  0  0  0  0  0
   53.6220   24.5270   45.1770 O   0  0  0  0  0  0  0  0  0  0  0  0
   55.7560   23.5720   44.7830 C   0  0  0  0  0  0  0  0  0  0  0  0
   56.7200   22.8740   45.5340 C   0  0  0  0  0  0  0  0  0  0  0  0
   57.5540   21.9390   44.9160 C   0  0  0  0  0  0  0  0  0  0  0  0
   57.4290   21.6810   43.5500 C   0  0  0  0  0  0  0  0  0  0  0  0
   56.4650   22.3550   42.7980 C   0  0  0  0  0  0  0  0  0  0  0  0
   55.6270   23.2930   43.4100 C   0  0  0  0  0  0  0  0  0  0  0  0
   56.5890   27.4240   45.4890 C   0  0  0  0  0  0  0  0  0  0  0  0
   59.7340   30.6980   46.3780 C   0  0  0  0  0  0  0  0  0  0  0  0
   60.7240   31.3530   47.1140 C   0  0  0  0  0  0  0  0  0  0  0  0
   61.3600   34.1290   49.3120 C   0  0  0  0  0  0  0  0  0  0  0  0
   61.5900   33.2440   50.5560 C   0  0  0  0  0  0  0  0  0  0  0  0
   63.5208   31.3125   51.8757 H   0  0  0  0  0  0  0  0  0  0  0  0
   62.6478   31.1000   50.3203 H   0  0  0  0  0  0  0  0  0  0  0  0
   64.3799   31.5760   50.3203 H   0  0  0  0  0  0  0  0  0  0  0  0
   63.3973   34.8319   49.7291 H   0  0  0  0  0  0  0  0  0  0  0  0
   64.8627   33.9985   50.4324 H   0  0  0  0  0  0  0  0  0  0  0  0
   65.1220   33.4683   48.2143 H   0  0  0  0  0  0  0  0  0  0  0  0
   64.1120   32.0663   48.8049 H   0  0  0  0  0  0  0  0  0  0  0  0
   63.2709   34.4365   47.1090 H   0  0  0  0  0  0  0  0  0  0  0  0
   63.1439   32.6457   46.7772 H   0  0  0  0  0  0  0  0  0  0  0  0
   59.5405   34.5536   46.8896 H   0  0  0  0  0  0  0  0  0  0  0  0
   57.7737   33.3852   45.5859 H   0  0  0  0  0  0  0  0  0  0  0  0
   59.8729   28.2992   45.8926 H   0  0  0  0  0  0  0  0  0  0  0  0
   59.8424   26.2159   47.2617 H   0  0  0  0  0  0  0  0  0  0  0  0
   57.7316   24.9105   47.5117 H   0  0  0  0  0  0  0  0  0  0  0  0
   56.8173   23.0655   46.6128 H   0  0  0  0  0  0  0  0  0  0  0  0
   58.3116   21.4044   45.5078 H   0  0  0  0  0  0  0  0  0  0  0  0
   58.0899   20.9468   43.0661 H   0  0  0  0  0  0  0  0  0  0  0  0
   56.3643   22.1481   41.7223 H   0  0  0  0  0  0  0  0  0  0  0  0
   54.8633   23.8151   42.8149 H   0  0  0  0  0  0  0  0  0  0  0  0
   55.6814   27.7433   44.9557 H   0  0  0  0  0  0  0  0  0  0  0  0
   59.7929   29.6090   46.2343 H   0  0  0  0  0  0  0  0  0  0  0  0
   61.5567   30.7755   47.5419 H   0  0  0  0  0  0  0  0  0  0  0  0
   61.9898   35.0272   49.3931 H   0  0  0  0  0  0  0  0  0  0  0  0
   60.2932   34.3949   49.2751 H   0  0  0  0  0  0  0  0  0  0  0  0
   61.0809   33.7010   51.4173 H   0  0  0  0  0  0  0  0  0  0  0  0
   61.1857   32.2433   50.3436 H   0  0  0  0  0  0  0  0  0  0  0  0
  1  2  1  0
  2  3  1  0
  3  4  1  0
  4  5  1  0
  5  6  1  0
  6  7  1  0
  7  8  2  0
  8  9  1  0
  9 10  2  0
 10 11  1  0
 11 12  2  0
 11 13  1  0
 13 14  1  0
 14 15  2  0
 15 16  1  0
 16 17  2  0
 17 18  1  0
 18 19  1  0
 19 20  1  0
 20 21  2  0
 20 22  1  0
 22 23  2  0
 23 24  1  0
 24 25  2  0
 25 26  1  0
 26 27  2  0
 18 28  2  0
 10 29  1  0
 29 30  2  0
  6 31  1  0
 31 32  1  0
 32  2  1  0
 30  7  1  0
 28 14  1  0
 27 22  1  0
  1 33  1  0
  1 34  1  0
  1 35  1  0
  3 36  1  0
  3 37  1  0
  4 38  1  0
  4 39  1  0
  5 40  1  0
  5 41  1  0
  8 42  1  0
  9 43  1  0
 15 44  1  0
 16 45  1  0
 17 46  1  0
 23 47  1  0
 24 48  1  0
 25 49  1  0
 26 50  1  0
 27 51  1  0
 28 52  1  0
 29 53  1  0
 30 54  1  0
 31 55  1  0
 31 56  1  0
 32 57  1  0
 32 58  1  0
M  CHG  2  13  -1  19  -1
M  END
>  <UniqueID>  (34) 
34

>  <SMILES>  (34) 
CN1CCCN(c2ccc(C(=O)[N-]c3cccc([N-]C(=O)c4ccccc4)c3)cc2)CC1

>  <Energy>  (34) 
83.8356824109226

>  <Genealogy>  (34) 
CN1CCCN(c2ccc(C(=O)[N-]c3cccc([N-]C(=O)c4ccccc4)c3)cc2)CC1 (protonated)
CN1CCCN(c2ccc(C(=O)[N-]c3cccc([N-]C(=O)c4ccccc4)c3)cc2)CC1 (3D coordinates assigned)
CN1CCCN(c2ccc(C(=O)[N-]c3cccc([N-]C(=O)c4ccccc4)c3)cc2)CC1 (nonaromatic ring conformer: 83.8356824109226 kcal/mol)

>  <smiles>  (34) 
CN1CCCN(c2ccc(C(=O)Nc3cccc(NC(=O)c4ccccc4)c3)cc2)CC1

>  <score_type>  (34) 
oracle

>  <origin>  (34) 
adg

>  <m_score__min__energy>  (34) 
-10.16

>  <m_primary>  (34) 
energy

$$$$
34:0
     RDKit          3D

 48 51  0  0  0  0  0  0  0  0999 V2000
   58.1420   27.2700   43.3780 C   0  0  0  0  0  0  0  0  0  0  0  0
   58.2850   26.7900   44.6230 C   0  0  0  0  0  0  0  0  0  0  0  0
   57.7880   25.5780   45.1310 C   0  0  0  0  0  0  0  0  0  0  0  0
   56.9180   24.6910   44.6110 C   0  0  0  0  0  0  0  0  0  0  0  0
   55.5310   24.4850   45.0610 C   0  0  0  0  0  0  0  0  0  0  0  0
   54.7980   23.3850   44.8060 N   0  0  0  0  0  0  0  0  0  0  0  0
   53.5740   23.7110   45.2770 C   0  0  0  0  0  0  0  0  0  0  0  0
   52.5980   22.9180   45.2330 O   0  0  0  0  0  0  0  0  0  0  0  0
   53.4780   24.9560   45.7910 N   0  0  0  0  0  0  0  0  0  0  0  0
   54.7220   25.4350   45.6320 C   0  0  0  0  0  0  0  0  0  0  0  0
   55.1070   26.7200   45.9940 O   0  0  0  0  0  0  0  0  0  0  0  0
   58.3730   25.4120   46.3760 C   0  0  0  0  0  0  0  0  0  0  0  0
   59.1270   26.5420   46.6190 C   0  0  0  0  0  0  0  0  0  0  0  0
   60.0080   26.7330   47.8160 C   0  0  0  0  0  0  0  0  0  0  0  0
   59.0740   27.3750   45.5580 N   0  0  0  0  0  0  0  0  0  0  0  0
   59.8260   28.5910   45.4180 C   0  0  0  0  0  0  0  0  0  0  0  0
   60.5130   28.7700   44.3760 O   0  0  0  0  0  0  0  0  0  0  0  0
   59.8180   29.5900   46.4590 N   0  0  0  0  0  0  0  0  0  0  0  0
   60.8340   30.6540   46.4340 C   0  0  0  0  0  0  0  0  0  0  0  0
   60.6370   31.6600   47.5730 C   0  0  0  0  0  0  0  0  0  0  0  0
   60.3380   30.9550   48.8260 N   0  0  0  0  0  0  0  0  0  0  0  0
   60.8720   31.4350   50.0710 C   0  0  0  0  0  0  0  0  0  0  0  0
   60.0910   31.6620   51.0340 O   0  0  0  0  0  0  0  0  0  0  0  0
   62.3240   31.6440   50.2540 C   0  0  0  0  0  0  0  0  0  0  0  0
   63.0500   32.6700   49.6250 C   0  0  0  0  0  0  0  0  0  0  0  0
   64.4050   32.6560   49.9230 C   0  0  0  0  0  0  0  0  0  0  0  0
   64.7000   31.3660   50.9570 S   0  0  0  0  0  0  0  0  0  0  0  0
   63.1160   30.8110   51.0390 C   0  0  0  0  0  0  0  0  0  0  0  0
   59.3110   29.9030   48.8530 C   0  0  0  0  0  0  0  0  0  0  0  0
   58.7380   29.6330   47.4570 C   0  0  0  0  0  0  0  0  0  0  0  0
   58.5845   28.2403   43.1084 H   0  0  0  0  0  0  0  0  0  0  0  0
   57.5822   26.6931   42.6271 H   0  0  0  0  0  0  0  0  0  0  0  0
   57.2742   24.0666   43.7784 H   0  0  0  0  0  0  0  0  0  0  0  0
   58.2583   24.5451   47.0433 H   0  0  0  0  0  0  0  0  0  0  0  0
   59.4139   26.6042   48.7328 H   0  0  0  0  0  0  0  0  0  0  0  0
   60.8187   25.9897   47.7970 H   0  0  0  0  0  0  0  0  0  0  0  0
   60.4381   27.7453   47.7970 H   0  0  0  0  0  0  0  0  0  0  0  0
   61.8298   30.1970   46.5316 H   0  0  0  0  0  0  0  0  0  0  0  0
   60.7372   31.1950   45.4812 H   0  0  0  0  0  0  0  0  0  0  0  0
   61.5562   32.2509   47.6990 H   0  0  0  0  0  0  0  0  0  0  0  0
   59.7953   32.3233   47.3246 H   0  0  0  0  0  0  0  0  0  0  0  0
   62.5876   33.4138   48.9594 H   0  0  0  0  0  0  0  0  0  0  0  0
   65.1558   33.3666   49.5472 H   0  0  0  0  0  0  0  0  0  0  0  0
   62.7659   29.9406   51.6133 H   0  0  0  0  0  0  0  0  0  0  0  0
   59.7603   28.9762   49.2391 H   0  0  0  0  0  0  0  0  0  0  0  0
   58.4894   30.2428   49.5007 H   0  0  0  0  0  0  0  0  0  0  0  0
   58.2106   28.6677   47.4621 H   0  0  0  0  0  0  0  0  0  0  0  0
   58.0414   30.4428   47.1944 H   0  0  0  0  0  0  0  0  0  0  0  0
  1  2  2  0
  2  3  1  0
  3  4  2  3
  4  5  1  0
  5  6  1  0
  6  7  1  0
  7  8  2  0
  7  9  1  0
  9 10  1  0
 10 11  1  0
  3 12  1  0
 12 13  2  0
 13 14  1  0
 13 15  1  0
 15 16  1  0
 16 17  2  0
 16 18  1  0
 18 19  1  0
 19 20  1  0
 20 21  1  0
 21 22  1  0
 22 23  2  0
 22 24  1  0
 24 25  1  0
 25 26  2  0
 26 27  1  0
 27 28  1  0
 21 29  1  0
 29 30  1  0
 15  2  1  0
 30 18  1  0
 10  5  2  0
 28 24  2  0
  1 31  1  0
  1 32  1  0
  4 33  1  0
 12 34  1  0
 14 35  1  0
 14 36  1  0
 14 37  1  0
 19 38  1  0
 19 39  1  0
 20 40  1  0
 20 41  1  0
 25 42  1  0
 26 43  1  0
 28 44  1  0
 29 45  1  0
 29 46  1  0
 30 47  1  0
 30 48  1  0
M  CHG  3   6  -1   9  -1  11  -1
M  END
>  <UniqueID>  (35) 
35

>  <SMILES>  (35) 
C=c1c(=Cc2[n-]c(=O)[n-]c2[O-])cc(C)n1C(=O)N1CCN(C(=O)c2ccsc2)CC1

>  <Energy>  (35) 
154.9387453008278

>  <Genealogy>  (35) 
C=c1c(=Cc2[n-]c(=O)[n-]c2[O-])cc(C)n1C(=O)N1CCN(C(=O)c2ccsc2)CC1 (protonated)
C=c1c(=Cc2[n-]c(=O)[n-]c2[O-])cc(C)n1C(=O)N1CCN(C(=O)c2ccsc2)CC1 (3D coordinates assigned)
C=c1c(=Cc2[n-]c(=O)[n-]c2[O-])cc(C)n1C(=O)N1CCN(C(=O)c2ccsc2)CC1 (nonaromatic ring conformer: 154.9387453008278 kcal/mol)

>  <smiles>  (35) 
C=c1c(=Cc2[nH]c(=O)[nH]c2O)cc(C)n1C(=O)N1CCN(C(=O)c2ccsc2)CC1

>  <score_type>  (35) 
oracle

>  <origin>  (35) 
adg

>  <m_score__min__energy>  (35) 
-15.98

>  <m_primary>  (35) 
energy

$$$$
35:0
     RDKit          3D

 45 48  0  0  0  0  0  0  0  0999 V2000
   58.3790   30.4770   45.1960 C   0  0  0  0  0  0  0  0  0  0  0  0
   58.4650   29.7990   46.3540 C   0  0  0  0  0  0  0  0  0  0  0  0
   58.2970   28.4140   46.5160 C   0  0  0  0  0  0  0  0  0  0  0  0
   57.8010   27.4790   45.6830 C   0  0  0  0  0  0  0  0  0  0  0  0
   57.2430   26.1780   46.0870 C   0  0  0  0  0  0  0  0  0  0  0  0
   57.9960   25.1450   46.5030 N   0  0  0  0  0  0  0  0  0  0  0  0
   57.0810   24.2240   46.8790 C   0  0  0  0  0  0  0  0  0  0  0  0
   57.4030   23.0910   47.3210 O   0  0  0  0  0  0  0  0  0  0  0  0
   55.7950   24.6190   46.7550 N   0  0  0  0  0  0  0  0  0  0  0  0
   55.9150   25.8640   46.2680 C   0  0  0  0  0  0  0  0  0  0  0  0
   54.8370   26.7060   46.0160 O   0  0  0  0  0  0  0  0  0  0  0  0
   58.7510   28.1150   47.7860 C   0  0  0  0  0  0  0  0  0  0  0  0
   59.1150   29.3080   48.3700 C   0  0  0  0  0  0  0  0  0  0  0  0
   59.6580   29.4020   49.7320 C   0  0  0  0  0  0  0  0  0  0  0  0
   60.7710   28.8740   49.9940 O   0  0  0  0  0  0  0  0  0  0  0  0
   58.9660   30.1310   50.7430 N   0  0  0  0  0  0  0  0  0  0  0  0
   57.8190   31.0500   50.8470 C   0  0  0  0  0  0  0  0  0  0  0  0
   57.9950   31.3600   52.2960 C   0  0  0  0  0  0  0  0  0  0  0  0
   59.1570   30.4310   52.1730 C   0  0  0  0  0  0  0  0  0  0  0  0
   58.8990   30.3480   47.5240 N   0  0  0  0  0  0  0  0  0  0  0  0
   59.1160   31.7810   47.8080 C   0  0  0  0  0  0  0  0  0  0  0  0
   60.5390   32.2110   47.5370 C   0  0  0  0  0  0  0  0  0  0  0  0
   61.6000   31.3530   47.8820 C   0  0  0  0  0  0  0  0  0  0  0  0
   62.9230   31.7370   47.6580 C   0  0  0  0  0  0  0  0  0  0  0  0
   63.2050   32.9740   47.0750 C   0  0  0  0  0  0  0  0  0  0  0  0
   62.1620   33.8270   46.7080 C   0  0  0  0  0  0  0  0  0  0  0  0
   60.8300   33.4530   46.9290 C   0  0  0  0  0  0  0  0  0  0  0  0
   59.5580   34.5600   46.4230 Cl  0  0  0  0  0  0  0  0  0  0  0  0
   58.5292   31.5666   45.1842 H   0  0  0  0  0  0  0  0  0  0  0  0
   58.1584   29.9420   44.2605 H   0  0  0  0  0  0  0  0  0  0  0  0
   57.8140   27.7074   44.6071 H   0  0  0  0  0  0  0  0  0  0  0  0
   54.3940   26.7210   45.1060 H   0  0  0  0  0  0  0  0  0  0  0  0
   58.8104   27.1162   48.2429 H   0  0  0  0  0  0  0  0  0  0  0  0
   57.9270   31.9379   50.2067 H   0  0  0  0  0  0  0  0  0  0  0  0
   56.8380   30.6641   50.5329 H   0  0  0  0  0  0  0  0  0  0  0  0
   58.2455   32.4050   52.5309 H   0  0  0  0  0  0  0  0  0  0  0  0
   57.1996   31.2526   53.0482 H   0  0  0  0  0  0  0  0  0  0  0  0
   60.1185   30.9241   52.3787 H   0  0  0  0  0  0  0  0  0  0  0  0
   59.1904   29.5760   52.8643 H   0  0  0  0  0  0  0  0  0  0  0  0
   58.4406   32.3735   47.1733 H   0  0  0  0  0  0  0  0  0  0  0  0
   58.9124   31.9466   48.8762 H   0  0  0  0  0  0  0  0  0  0  0  0
   61.3849   30.3724   48.3316 H   0  0  0  0  0  0  0  0  0  0  0  0
   63.7454   31.0636   47.9414 H   0  0  0  0  0  0  0  0  0  0  0  0
   64.2488   33.2766   46.9048 H   0  0  0  0  0  0  0  0  0  0  0  0
   62.3875   34.7980   46.2428 H   0  0  0  0  0  0  0  0  0  0  0  0
  1  2  2  0
  2  3  1  0
  3  4  2  3
  4  5  1  0
  5  6  1  0
  6  7  1  0
  7  8  2  0
  7  9  1  0
  9 10  1  0
 10 11  1  0
  3 12  1  0
 12 13  2  0
 13 14  1  0
 14 15  2  0
 14 16  1  0
 16 17  1  0
 17 18  1  0
 18 19  1  0
 13 20  1  0
 20 21  1  0
 21 22  1  0
 22 23  2  0
 23 24  1  0
 24 25  2  0
 25 26  1  0
 26 27  2  0
 27 28  1  0
 20  2  1  0
 27 22  1  0
 10  5  2  0
 19 16  1  0
  1 29  1  0
  1 30  1  0
  4 31  1  0
 11 32  1  0
 12 33  1  0
 17 34  1  0
 17 35  1  0
 18 36  1  0
 18 37  1  0
 19 38  1  0
 19 39  1  0
 21 40  1  0
 21 41  1  0
 23 42  1  0
 24 43  1  0
 25 44  1  0
 26 45  1  0
M  CHG  2   6  -1   9  -1
M  END
>  <UniqueID>  (36) 
36

>  <SMILES>  (36) 
C=c1c(=Cc2[n-]c(=O)[n-]c2O)cc(C(=O)N2CCC2)n1Cc1ccccc1Cl

>  <Energy>  (36) 
167.38749029171342

>  <Genealogy>  (36) 
C=c1c(=Cc2[n-]c(=O)[n-]c2O)cc(C(=O)N2CCC2)n1Cc1ccccc1Cl (protonated)
C=c1c(=Cc2[n-]c(=O)[n-]c2O)cc(C(=O)N2CCC2)n1Cc1ccccc1Cl (3D coordinates assigned)
C=c1c(=Cc2[n-]c(=O)[n-]c2O)cc(C(=O)N2CCC2)n1Cc1ccccc1Cl (nonaromatic ring conformer: 167.38749029171342 kcal/mol)

>  <smiles>  (36) 
C=c1c(=Cc2[nH]c(=O)[nH]c2O)cc(C(=O)N2CCC2)n1Cc1ccccc1Cl

>  <score_type>  (36) 
oracle

>  <origin>  (36) 
adg

>  <m_score__min__energy>  (36) 
-13.119999999999999

>  <m_primary>  (36) 
energy

$$$$
36:0
     RDKit          3D

 49 52  0  0  0  0  0  0  0  0999 V2000
   60.1492   25.9766   46.4255 H   0  0  0  0  0  0  0  0  0  0  0  0
   59.1280   25.7520   46.0840 C   0  0  0  0  0  0  0  0  0  0  0  0
   58.1790   26.7230   46.0810 N   0  0  0  0  0  0  0  0  0  0  0  0
   56.9060   26.4810   45.6690 C   0  0  0  0  0  0  0  0  0  0  0  0
   56.0480   27.4620   45.6800 N   0  0  0  0  0  0  0  0  0  0  0  0
   56.2680   28.8070   45.2340 C   0  0  0  0  0  0  0  0  0  0  0  0
   55.2940   29.4630   44.7800 O   0  0  0  0  0  0  0  0  0  0  0  0
   57.5890   29.3770   45.2550 N   0  0  0  0  0  0  0  0  0  0  0  0
   58.3630   28.8110   45.6710 H   0  0  0  0  0  0  0  0  0  0  0  0
   57.8950   30.7190   44.8430 C   0  0  0  0  0  0  0  0  0  0  0  0
   57.6620   31.0970   43.5150 C   0  0  0  0  0  0  0  0  0  0  0  0
   57.2621   30.3628   42.8001 H   0  0  0  0  0  0  0  0  0  0  0  0
   57.9340   32.4000   43.0920 C   0  0  0  0  0  0  0  0  0  0  0  0
   57.7624   32.6835   42.0431 H   0  0  0  0  0  0  0  0  0  0  0  0
   58.4230   33.3430   43.9970 C   0  0  0  0  0  0  0  0  0  0  0  0
   58.6464   34.3642   43.6548 H   0  0  0  0  0  0  0  0  0  0  0  0
   58.6320   32.9960   45.3440 C   0  0  0  0  0  0  0  0  0  0  0  0
   59.1280   34.0020   46.3160 C   0  0  0  0  0  0  0  0  0  0  0  0
   58.9680   35.2320   46.0820 O   0  0  0  0  0  0  0  0  0  0  0  0
   59.7610   33.6040   47.5430 N   0  0  0  0  0  0  0  0  0  0  0  0
   61.2010   33.4330   47.6280 C   0  0  0  0  0  0  0  0  0  0  0  0
   62.0590   33.9240   46.6210 C   0  0  0  0  0  0  0  0  0  0  0  0
   61.6360   34.4566   45.7565 H   0  0  0  0  0  0  0  0  0  0  0  0
   63.4390   33.7400   46.7120 C   0  0  0  0  0  0  0  0  0  0  0  0
   64.0967   34.1204   45.9165 H   0  0  0  0  0  0  0  0  0  0  0  0
   63.9870   33.0750   47.8090 C   0  0  0  0  0  0  0  0  0  0  0  0
   65.0743   32.9202   47.8708 H   0  0  0  0  0  0  0  0  0  0  0  0
   63.1570   32.6060   48.8280 C   0  0  0  0  0  0  0  0  0  0  0  0
   63.5929   32.0817   49.6912 H   0  0  0  0  0  0  0  0  0  0  0  0
   61.7680   32.8000   48.7570 C   0  0  0  0  0  0  0  0  0  0  0  0
   60.8850   32.2830   49.8580 C   0  0  0  0  0  0  0  0  0  0  0  0
   61.4351   32.3195   50.8099 H   0  0  0  0  0  0  0  0  0  0  0  0
   60.5967   31.2474   49.6248 H   0  0  0  0  0  0  0  0  0  0  0  0
   59.6200   33.1320   49.9760 C   0  0  0  0  0  0  0  0  0  0  0  0
   59.8960   34.1557   50.2690 H   0  0  0  0  0  0  0  0  0  0  0  0
   58.9603   32.6877   50.7358 H   0  0  0  0  0  0  0  0  0  0  0  0
   58.8810   33.1720   48.6370 C   0  0  0  0  0  0  0  0  0  0  0  0
   58.0387   33.8751   48.7157 H   0  0  0  0  0  0  0  0  0  0  0  0
   58.5265   32.1556   48.4107 H   0  0  0  0  0  0  0  0  0  0  0  0
   58.3640   31.6790   45.7590 C   0  0  0  0  0  0  0  0  0  0  0  0
   58.5226   31.3965   46.8102 H   0  0  0  0  0  0  0  0  0  0  0  0
   56.5830   25.1890   45.2040 C   0  0  0  0  0  0  0  0  0  0  0  0
   55.5682   24.9673   44.8421 H   0  0  0  0  0  0  0  0  0  0  0  0
   57.5370   24.2200   45.2070 N   0  0  0  0  0  0  0  0  0  0  0  0
   58.7980   24.4650   45.6500 C   0  0  0  0  0  0  0  0  0  0  0  0
   59.8280   23.3810   45.6190 C   0  0  0  0  0  0  0  0  0  0  0  0
   60.0953   23.0997   46.6483 H   0  0  0  0  0  0  0  0  0  0  0  0
   59.4220   22.5044   45.0930 H   0  0  0  0  0  0  0  0  0  0  0  0
   60.7242   23.7417   45.0930 H   0  0  0  0  0  0  0  0  0  0  0  0
  1  2  1  0
  2  3  1  0
  3  4  1  0
  4  5  2  0
  5  6  1  0
  6  7  2  0
  6  8  1  0
  8  9  1  0
  8 10  1  0
 10 11  2  0
 11 12  1  0
 11 13  1  0
 13 14  1  0
 13 15  2  0
 15 16  1  0
 15 17  1  0
 17 18  1  0
 18 19  2  0
 18 20  1  0
 20 21  1  0
 21 22  2  0
 22 23  1  0
 22 24  1  0
 24 25  1  0
 24 26  2  0
 26 27  1  0
 26 28  1  0
 28 29  1  0
 28 30  2  0
 30 31  1  0
 31 32  1  0
 31 33  1  0
 31 34  1  0
 34 35  1  0
 34 36  1  0
 34 37  1  0
 37 38  1  0
 37 39  1  0
 17 40  2  0
 40 41  1  0
  4 42  1  0
 42 43  1  0
 42 44  2  0
 44 45  1  0
 45 46  1  0
 46 47  1  0
 46 48  1  0
 46 49  1  0
 45  2  2  0
 40 10  1  0
 37 20  1  0
 30 21  1  0
M  CHG  1   3  -1
M  END
>  <UniqueID>  (37) 
37

>  <SMILES>  (37) 
Cc1c[n-]/c(=N/C(=O)Nc2cccc(C(=O)N3CCCc4ccccc43)c2)cn1

>  <Energy>  (37) 
73.60637246091908

>  <Genealogy>  (37) 
Cc1c[n-]c(=NC(=O)Nc2cccc(C(=O)N3CCCc4ccccc43)c2)cn1 (protonated)
Cc1c[n-]/c(=N/C(=O)Nc2cccc(C(=O)N3CCCc4ccccc43)c2)cn1 (cis-trans isomerization)
Cc1c[n-]/c(=N/C(=O)Nc2cccc(C(=O)N3CCCc4ccccc43)c2)cn1 (3D coordinates assigned)
Cc1c[n-]/c(=N/C(=O)Nc2cccc(C(=O)N3CCCc4ccccc43)c2)cn1 (nonaromatic ring conformer: 73.60637246091908 kcal/mol)

>  <smiles>  (37) 
Cc1c[nH]c(=NC(=O)Nc2cccc(C(=O)N3CCCc4ccccc43)c2)cn1

>  <score_type>  (37) 
oracle

>  <origin>  (37) 
adg

>  <m_score__min__energy>  (37) 
-11.619999999999999

>  <m_primary>  (37) 
energy

$$$$
37:0
     RDKit          3D

 59 62  0  0  0  0  0  0  0  0999 V2000
   54.9970   28.9140   43.6510 H   0  0  0  0  0  0  0  0  0  0  0  0
   55.1450   28.9730   44.6470 O   0  0  0  0  0  0  0  0  0  0  0  0
   56.3970   28.7070   45.2020 C   0  0  0  0  0  0  0  0  0  0  0  0
   56.6130   27.5310   45.8390 N   0  0  0  0  0  0  0  0  0  0  0  0
   57.8090   27.2360   46.4140 C   0  0  0  0  0  0  0  0  0  0  0  0
   57.9410   26.1350   47.0140 O   0  0  0  0  0  0  0  0  0  0  0  0
   58.8500   28.1270   46.3460 N   0  0  0  0  0  0  0  0  0  0  0  0
   60.1320   27.8310   47.0130 C   0  0  0  0  0  0  0  0  0  0  0  0
   59.9937   27.8629   48.1038 H   0  0  0  0  0  0  0  0  0  0  0  0
   60.4771   26.8296   46.7163 H   0  0  0  0  0  0  0  0  0  0  0  0
   60.8812   28.5798   46.7163 H   0  0  0  0  0  0  0  0  0  0  0  0
   58.6630   29.3350   45.7230 C   0  0  0  0  0  0  0  0  0  0  0  0
   59.6040   30.1740   45.6780 O   0  0  0  0  0  0  0  0  0  0  0  0
   57.4260   29.6490   45.1240 C   0  0  0  0  0  0  0  0  0  0  0  0
   57.2090   30.9660   44.4690 C   0  0  0  0  0  0  0  0  0  0  0  0
   57.2310   32.0920   45.1220 N   0  0  0  0  0  0  0  0  0  0  0  0
   58.2020   32.5700   46.0670 C   0  0  0  0  0  0  0  0  0  0  0  0
   58.1450   32.0830   47.3780 C   0  0  0  0  0  0  0  0  0  0  0  0
   57.3516   31.3773   47.6651 H   0  0  0  0  0  0  0  0  0  0  0  0
   59.0900   32.4880   48.3240 C   0  0  0  0  0  0  0  0  0  0  0  0
   59.0301   32.1041   49.3531 H   0  0  0  0  0  0  0  0  0  0  0  0
   60.1160   33.3810   47.9730 C   0  0  0  0  0  0  0  0  0  0  0  0
   61.1260   33.7790   48.9760 C   0  0  0  0  0  0  0  0  0  0  0  0
   61.5590   34.9650   48.9700 O   0  0  0  0  0  0  0  0  0  0  0  0
   61.6440   32.8380   49.9380 N   0  0  0  0  0  0  0  0  0  0  0  0
   62.0050   33.3070   51.2880 C   0  0  0  0  0  0  0  0  0  0  0  0
   62.4847   34.2939   51.2113 H   0  0  0  0  0  0  0  0  0  0  0  0
   61.0907   33.3738   51.8959 H   0  0  0  0  0  0  0  0  0  0  0  0
   62.9740   32.3270   51.9600 C   0  0  0  0  0  0  0  0  0  0  0  0
   63.4640   32.8218   52.8115 H   0  0  0  0  0  0  0  0  0  0  0  0
   62.4173   31.4481   52.3172 H   0  0  0  0  0  0  0  0  0  0  0  0
   63.9910   31.9010   50.9900 N   0  0  0  0  0  0  0  0  0  0  0  0
   65.3760   32.2730   51.1640 C   0  0  0  0  0  0  0  0  0  0  0  0
   66.0700   31.8370   52.2600 N   0  0  0  0  0  0  0  0  0  0  0  0
   67.3620   32.1780   52.4870 C   0  0  0  0  0  0  0  0  0  0  0  0
   67.8791   31.8104   53.3856 H   0  0  0  0  0  0  0  0  0  0  0  0
   68.0350   32.9960   51.5790 C   0  0  0  0  0  0  0  0  0  0  0  0
   69.0847   33.2741   51.7542 H   0  0  0  0  0  0  0  0  0  0  0  0
   67.3630   33.4580   50.4460 C   0  0  0  0  0  0  0  0  0  0  0  0
   67.8818   34.1063   49.7245 H   0  0  0  0  0  0  0  0  0  0  0  0
   66.0370   33.0980   50.2300 C   0  0  0  0  0  0  0  0  0  0  0  0
   65.5063   33.4549   49.3351 H   0  0  0  0  0  0  0  0  0  0  0  0
   63.5420   31.3030   49.7210 C   0  0  0  0  0  0  0  0  0  0  0  0
   64.0755   31.7868   48.8896 H   0  0  0  0  0  0  0  0  0  0  0  0
   63.7593   30.2251   49.7519 H   0  0  0  0  0  0  0  0  0  0  0  0
   62.0360   31.4830   49.5170 C   0  0  0  0  0  0  0  0  0  0  0  0
   61.7904   31.3436   48.4539 H   0  0  0  0  0  0  0  0  0  0  0  0
   61.4923   30.7397   50.1186 H   0  0  0  0  0  0  0  0  0  0  0  0
   60.1950   33.8490   46.6510 C   0  0  0  0  0  0  0  0  0  0  0  0
   60.9959   34.5461   46.3637 H   0  0  0  0  0  0  0  0  0  0  0  0
   59.2590   33.4320   45.6980 C   0  0  0  0  0  0  0  0  0  0  0  0
   59.3465   33.7768   44.6571 H   0  0  0  0  0  0  0  0  0  0  0  0
   57.0300   31.0290   43.0090 C   0  0  0  0  0  0  0  0  0  0  0  0
   56.2720   30.2080   42.4300 O   0  0  0  0  0  0  0  0  0  0  0  0
   57.6990   32.0160   42.2730 O   0  0  0  0  0  0  0  0  0  0  0  0
   57.3750   32.3310   40.9370 C   0  0  0  0  0  0  0  0  0  0  0  0
   56.5864   33.0977   40.9220 H   0  0  0  0  0  0  0  0  0  0  0  0
   58.2690   32.7145   40.4235 H   0  0  0  0  0  0  0  0  0  0  0  0
   57.0169   31.4265   40.4235 H   0  0  0  0  0  0  0  0  0  0  0  0
  1  2  1  0
  2  3  1  0
  3  4  1  0
  4  5  1  0
  5  6  2  0
  5  7  1  0
  7  8  1  0
  8  9  1  0
  8 10  1  0
  8 11  1  0
  7 12  1  0
 12 13  2  0
 12 14  1  0
 14 15  1  0
 15 16  2  0
 16 17  1  0
 17 18  2  0
 18 19  1  0
 18 20  1  0
 20 21  1  0
 20 22  2  0
 22 23  1  0
 23 24  2  0
 23 25  1  0
 25 26  1  0
 26 27  1  0
 26 28  1  0
 26 29  1  0
 29 30  1  0
 29 31  1  0
 29 32  1  0
 32 33  1  0
 33 34  2  0
 34 35  1  0
 35 36  1  0
 35 37  2  0
 37 38  1  0
 37 39  1  0
 39 40  1  0
 39 41  2  0
 41 42  1  0
 32 43  1  0
 43 44  1  0
 43 45  1  0
 43 46  1  0
 46 47  1  0
 46 48  1  0
 22 49  1  0
 49 50  1  0
 49 51  2  0
 51 52  1  0
 15 53  1  0
 53 54  2  0
 53 55  1  0
 55 56  1  0
 56 57  1  0
 56 58  1  0
 56 59  1  0
 14  3  2  0
 51 17  1  0
 46 25  1  0
 41 33  1  0
M  CHG  1   4  -1
M  END
>  <UniqueID>  (38) 
38

>  <SMILES>  (38) 
COC(=O)/C(=N/c1ccc(C(=O)N2CCN(c3ccccn3)CC2)cc1)c1c(O)[n-]c(=O)n(C)c1=O

>  <Energy>  (38) 
87.68046350092993

>  <Genealogy>  (38) 
COC(=O)C(=Nc1ccc(C(=O)N2CCN(c3ccccn3)CC2)cc1)c1c(O)[n-]c(=O)n(C)c1=O (protonated)
COC(=O)/C(=N/c1ccc(C(=O)N2CCN(c3ccccn3)CC2)cc1)c1c(O)[n-]c(=O)n(C)c1=O (cis-trans isomerization)
COC(=O)/C(=N/c1ccc(C(=O)N2CCN(c3ccccn3)CC2)cc1)c1c(O)[n-]c(=O)n(C)c1=O (3D coordinates assigned)
COC(=O)/C(=N/c1ccc(C(=O)N2CCN(c3ccccn3)CC2)cc1)c1c(O)[n-]c(=O)n(C)c1=O (nonaromatic ring conformer: 87.68046350092993 kcal/mol)

>  <smiles>  (38) 
COC(=O)C(=Nc1ccc(C(=O)N2CCN(c3ccccn3)CC2)cc1)c1c(O)[nH]c(=O)n(C)c1=O

>  <score_type>  (38) 
oracle

>  <origin>  (38) 
adg

>  <m_score__min__energy>  (38) 
-10.369999999999999

>  <m_primary>  (38) 
energy

$$$$
38:0
     RDKit          3D

 47 49  0  0  0  0  0  0  0  0999 V2000
   54.4650   23.6960   44.8670 C   0  0  0  0  0  0  0  0  0  0  0  0
   54.7550   24.8840   45.7230 C   0  0  0  0  0  0  0  0  0  0  0  0
   54.0210   25.9040   45.6380 O   0  0  0  0  0  0  0  0  0  0  0  0
   55.9260   24.8870   46.5480 N   0  0  0  0  0  0  0  0  0  0  0  0
   56.9280   25.9130   46.6040 C   0  0  0  0  0  0  0  0  0  0  0  0
   58.1200   25.7520   47.3340 C   0  0  0  0  0  0  0  0  0  0  0  0
   59.0880   26.7580   47.3270 C   0  0  0  0  0  0  0  0  0  0  0  0
   58.8810   27.9270   46.5920 C   0  0  0  0  0  0  0  0  0  0  0  0
   57.7000   28.1050   45.8610 C   0  0  0  0  0  0  0  0  0  0  0  0
   57.5420   29.3060   45.0930 N   0  0  0  0  0  0  0  0  0  0  0  0
   56.3120   29.9970   44.8320 C   0  0  0  0  0  0  0  0  0  0  0  0
   55.2270   29.3630   44.7600 O   0  0  0  0  0  0  0  0  0  0  0  0
   56.2850   31.4270   44.7590 N   0  0  0  0  0  0  0  0  0  0  0  0
   57.3520   32.3110   45.1280 C   0  0  0  0  0  0  0  0  0  0  0  0
   57.5640   33.5350   44.4680 C   0  0  0  0  0  0  0  0  0  0  0  0
   58.5950   34.3850   44.8770 C   0  0  0  0  0  0  0  0  0  0  0  0
   59.4130   34.0300   45.9520 C   0  0  0  0  0  0  0  0  0  0  0  0
   59.2040   32.8200   46.6290 C   0  0  0  0  0  0  0  0  0  0  0  0
   60.0570   32.4650   47.8180 C   0  0  0  0  0  0  0  0  0  0  0  0
   61.2520   33.3280   47.8670 N   0  0  0  0  0  0  0  0  0  0  0  0
   61.7530   33.5210   49.2330 C   0  0  0  0  0  0  0  0  0  0  0  0
   63.2420   33.8050   49.1170 C   0  0  0  0  0  0  0  0  0  0  0  0
   63.6440   33.3090   47.7370 C   0  0  0  0  0  0  0  0  0  0  0  0
   62.3720   32.7410   47.1280 C   0  0  0  0  0  0  0  0  0  0  0  0
   58.1590   31.9730   46.2220 C   0  0  0  0  0  0  0  0  0  0  0  0
   56.7370   27.0790   45.8500 C   0  0  0  0  0  0  0  0  0  0  0  0
   54.2527   22.8264   45.5064 H   0  0  0  0  0  0  0  0  0  0  0  0
   53.5918   23.9060   44.2319 H   0  0  0  0  0  0  0  0  0  0  0  0
   55.3368   23.4801   44.2319 H   0  0  0  0  0  0  0  0  0  0  0  0
   58.2896   24.8313   47.9116 H   0  0  0  0  0  0  0  0  0  0  0  0
   60.0167   26.6293   47.9023 H   0  0  0  0  0  0  0  0  0  0  0  0
   59.6505   28.7130   46.5872 H   0  0  0  0  0  0  0  0  0  0  0  0
   56.9162   33.8240   43.6273 H   0  0  0  0  0  0  0  0  0  0  0  0
   58.7628   35.3363   44.3509 H   0  0  0  0  0  0  0  0  0  0  0  0
   60.2242   34.7021   46.2687 H   0  0  0  0  0  0  0  0  0  0  0  0
   59.4715   32.6034   48.7389 H   0  0  0  0  0  0  0  0  0  0  0  0
   60.3766   31.4163   47.7286 H   0  0  0  0  0  0  0  0  0  0  0  0
   61.2410   34.3709   49.7079 H   0  0  0  0  0  0  0  0  0  0  0  0
   61.5674   32.6306   49.8517 H   0  0  0  0  0  0  0  0  0  0  0  0
   63.4359   34.8838   49.2093 H   0  0  0  0  0  0  0  0  0  0  0  0
   63.8156   33.3070   49.9126 H   0  0  0  0  0  0  0  0  0  0  0  0
   64.0264   34.1395   47.1254 H   0  0  0  0  0  0  0  0  0  0  0  0
   64.4449   32.5568   47.7890 H   0  0  0  0  0  0  0  0  0  0  0  0
   62.3075   33.0121   46.0639 H   0  0  0  0  0  0  0  0  0  0  0  0
   62.3577   31.6431   47.1949 H   0  0  0  0  0  0  0  0  0  0  0  0
   57.9731   31.0361   46.7675 H   0  0  0  0  0  0  0  0  0  0  0  0
   55.8260   27.1931   45.2441 H   0  0  0  0  0  0  0  0  0  0  0  0
  1  2  1  0
  2  3  2  0
  2  4  1  0
  4  5  1  0
  5  6  2  0
  6  7  1  0
  7  8  2  0
  8  9  1  0
  9 10  1  0
 10 11  1  0
 11 12  2  0
 11 13  1  0
 13 14  1  0
 14 15  2  0
 15 16  1  0
 16 17  2  0
 17 18  1  0
 18 19  1  0
 19 20  1  0
 20 21  1  0
 21 22  1  0
 22 23  1  0
 23 24  1  0
 18 25  2  0
  9 26  2  0
 26  5  1  0
 25 14  1  0
 24 20  1  0
  1 27  1  0
  1 28  1  0
  1 29  1  0
  6 30  1  0
  7 31  1  0
  8 32  1  0
 15 33  1  0
 16 34  1  0
 17 35  1  0
 19 36  1  0
 19 37  1  0
 21 38  1  0
 21 39  1  0
 22 40  1  0
 22 41  1  0
 23 42  1  0
 23 43  1  0
 24 44  1  0
 24 45  1  0
 25 46  1  0
 26 47  1  0
M  CHG  3   4  -1  10  -1  13  -1
M  END
>  <UniqueID>  (39) 
39

>  <SMILES>  (39) 
CC(=O)[N-]c1cccc([N-]C(=O)[N-]c2cccc(CN3CCCC3)c2)c1

>  <Energy>  (39) 
57.74903763571415

>  <Genealogy>  (39) 
CC(=O)[N-]c1cccc([N-]C(=O)[N-]c2cccc(CN3CCCC3)c2)c1 (protonated)
CC(=O)[N-]c1cccc([N-]C(=O)[N-]c2cccc(CN3CCCC3)c2)c1 (3D coordinates assigned)
CC(=O)[N-]c1cccc([N-]C(=O)[N-]c2cccc(CN3CCCC3)c2)c1 (nonaromatic ring conformer: 57.74903763571415 kcal/mol)

>  <smiles>  (39) 
CC(=O)Nc1cccc(NC(=O)Nc2cccc(CN3CCCC3)c2)c1

>  <score_type>  (39) 
oracle

>  <origin>  (39) 
adg

>  <m_score__min__energy>  (39) 
-13.67

>  <m_primary>  (39) 
energy

$$$$
39:0
     RDKit          3D

 36 38  0  0  0  0  0  0  0  0999 V2000
   55.8970   29.6790   43.0070 C   0  0  0  0  0  0  0  0  0  0  0  0
   56.6220   29.5110   44.1140 C   0  0  0  0  0  0  0  0  0  0  0  0
   56.6940   28.3490   44.7920 N   0  0  0  0  0  0  0  0  0  0  0  0
   57.4860   28.5640   45.8640 C   0  0  0  0  0  0  0  0  0  0  0  0
   57.7150   27.6150   46.7890 C   0  0  0  0  0  0  0  0  0  0  0  0
   57.2070   26.2260   46.7500 C   0  0  0  0  0  0  0  0  0  0  0  0
   57.8950   25.1230   47.1000 N   0  0  0  0  0  0  0  0  0  0  0  0
   56.9980   24.1270   46.9370 C   0  0  0  0  0  0  0  0  0  0  0  0
   57.2760   22.9220   47.1710 O   0  0  0  0  0  0  0  0  0  0  0  0
   55.7810   24.5250   46.5120 N   0  0  0  0  0  0  0  0  0  0  0  0
   55.9310   25.8550   46.4010 C   0  0  0  0  0  0  0  0  0  0  0  0
   54.9180   26.7130   45.9890 O   0  0  0  0  0  0  0  0  0  0  0  0
   57.9540   29.8750   45.8530 C   0  0  0  0  0  0  0  0  0  0  0  0
   57.3920   30.4730   44.7410 C   0  0  0  0  0  0  0  0  0  0  0  0
   57.5020   31.8990   44.4030 C   0  0  0  0  0  0  0  0  0  0  0  0
   58.1400   32.2370   43.3710 O   0  0  0  0  0  0  0  0  0  0  0  0
   56.9320   32.9130   45.2400 N   0  0  0  0  0  0  0  0  0  0  0  0
   57.5440   34.2100   45.5250 C   0  0  0  0  0  0  0  0  0  0  0  0
   58.7790   34.0540   46.3760 C   0  0  0  0  0  0  0  0  0  0  0  0
   60.0530   34.3030   45.8370 C   0  0  0  0  0  0  0  0  0  0  0  0
   61.1900   34.2150   46.6440 C   0  0  0  0  0  0  0  0  0  0  0  0
   61.0680   33.8630   47.9910 C   0  0  0  0  0  0  0  0  0  0  0  0
   62.1720   33.7890   48.7760 F   0  0  0  0  0  0  0  0  0  0  0  0
   59.8070   33.5900   48.5300 C   0  0  0  0  0  0  0  0  0  0  0  0
   58.6660   33.6790   47.7260 C   0  0  0  0  0  0  0  0  0  0  0  0
   55.8826   30.6561   42.5020 H   0  0  0  0  0  0  0  0  0  0  0  0
   55.3135   28.8404   42.5991 H   0  0  0  0  0  0  0  0  0  0  0  0
   56.2030   27.4590   44.5490 H   0  0  0  0  0  0  0  0  0  0  0  0
   58.3358   27.8969   47.6522 H   0  0  0  0  0  0  0  0  0  0  0  0
   58.6336   30.3407   46.5819 H   0  0  0  0  0  0  0  0  0  0  0  0
   57.8206   34.6927   44.5761 H   0  0  0  0  0  0  0  0  0  0  0  0
   56.8169   34.8253   46.0752 H   0  0  0  0  0  0  0  0  0  0  0  0
   60.1553   34.5685   44.7744 H   0  0  0  0  0  0  0  0  0  0  0  0
   62.1828   34.4231   46.2185 H   0  0  0  0  0  0  0  0  0  0  0  0
   59.7122   33.3048   49.5881 H   0  0  0  0  0  0  0  0  0  0  0  0
   57.6768   33.4548   48.1516 H   0  0  0  0  0  0  0  0  0  0  0  0
  1  2  2  0
  2  3  1  0
  3  4  1  0
  4  5  2  3
  5  6  1  0
  6  7  1  0
  7  8  1  0
  8  9  2  0
  8 10  1  0
 10 11  1  0
 11 12  1  0
  4 13  1  0
 13 14  2  0
 14 15  1  0
 15 16  2  0
 15 17  1  0
 17 18  1  0
 18 19  1  0
 19 20  2  0
 20 21  1  0
 21 22  2  0
 22 23  1  0
 22 24  1  0
 24 25  2  0
 14  2  1  0
 25 19  1  0
 11  6  2  0
  1 26  1  0
  1 27  1  0
  3 28  1  0
  5 29  1  0
 13 30  1  0
 18 31  1  0
 18 32  1  0
 20 33  1  0
 21 34  1  0
 24 35  1  0
 25 36  1  0
M  CHG  4   7  -1  10  -1  12  -1  17  -1
M  END
>  <UniqueID>  (40) 
40

>  <SMILES>  (40) 
C=c1[nH]c(=Cc2[n-]c(=O)[n-]c2[O-])cc1C(=O)[N-]Cc1ccc(F)cc1

>  <Energy>  (40) 
98.7571112687026

>  <Genealogy>  (40) 
C=c1[nH]c(=Cc2[n-]c(=O)[n-]c2[O-])cc1C(=O)[N-]Cc1ccc(F)cc1 (protonated)
C=c1[nH]c(=Cc2[n-]c(=O)[n-]c2[O-])cc1C(=O)[N-]Cc1ccc(F)cc1 (3D coordinates assigned)
C=c1[nH]c(=Cc2[n-]c(=O)[n-]c2[O-])cc1C(=O)[N-]Cc1ccc(F)cc1 (optimized conformer: 98.7571112687026 kcal/mol)

>  <smiles>  (40) 
C=c1[nH]c(=Cc2[nH]c(=O)[nH]c2O)cc1C(=O)NCc1ccc(F)cc1

>  <score_type>  (40) 
oracle

>  <origin>  (40) 
adg

>  <m_score__min__energy>  (40) 
-17.52

>  <m_primary>  (40) 
energy

$$$$
40:0
     RDKit          3D

 60 63  0  0  0  0  0  0  0  0999 V2000
   53.5746   27.5400   53.4958 H   0  0  0  0  0  0  0  0  0  0  0  0
   53.4040   28.4050   52.8380 C   0  0  0  0  0  0  0  0  0  0  0  0
   52.4641   28.4892   52.2728 H   0  0  0  0  0  0  0  0  0  0  0  0
   54.3430   29.3580   52.7250 C   0  0  0  0  0  0  0  0  0  0  0  0
   54.2840   30.5180   51.9350 C   0  0  0  0  0  0  0  0  0  0  0  0
   53.2610   31.0790   51.2640 C   0  0  0  0  0  0  0  0  0  0  0  0
   53.3660   31.1769   50.1734 H   0  0  0  0  0  0  0  0  0  0  0  0
   52.0140   31.5720   51.8690 C   0  0  0  0  0  0  0  0  0  0  0  0
   51.7180   31.4970   53.1790 N   0  0  0  0  0  0  0  0  0  0  0  0
   50.5550   32.1790   53.2710 C   0  0  0  0  0  0  0  0  0  0  0  0
   49.9400   32.3250   54.3620 O   0  0  0  0  0  0  0  0  0  0  0  0
   50.1080   32.6990   52.1090 N   0  0  0  0  0  0  0  0  0  0  0  0
   51.0510   32.3170   51.2340 C   0  0  0  0  0  0  0  0  0  0  0  0
   51.0300   32.6400   49.8830 O   0  0  0  0  0  0  0  0  0  0  0  0
   55.5620   31.0530   51.9390 C   0  0  0  0  0  0  0  0  0  0  0  0
   55.9011   31.9446   51.3911 H   0  0  0  0  0  0  0  0  0  0  0  0
   56.3270   30.2540   52.7610 C   0  0  0  0  0  0  0  0  0  0  0  0
   57.7760   30.4130   52.9610 C   0  0  0  0  0  0  0  0  0  0  0  0
   58.3920   29.5870   53.6870 O   0  0  0  0  0  0  0  0  0  0  0  0
   58.4930   31.4750   52.3080 N   0  0  0  0  0  0  0  0  0  0  0  0
   57.8120   32.7440   52.0460 C   0  0  0  0  0  0  0  0  0  0  0  0
   57.2725   32.6727   51.0901 H   0  0  0  0  0  0  0  0  0  0  0  0
   57.1099   32.9430   52.8691 H   0  0  0  0  0  0  0  0  0  0  0  0
   58.8170   33.8970   51.9700 C   0  0  0  0  0  0  0  0  0  0  0  0
   58.3042   34.7849   51.5716 H   0  0  0  0  0  0  0  0  0  0  0  0
   59.2009   34.0700   52.9862 H   0  0  0  0  0  0  0  0  0  0  0  0
   59.9720   33.5910   51.1040 N   0  0  0  0  0  0  0  0  0  0  0  0
   59.8870   34.0080   49.6840 C   0  0  0  0  0  0  0  0  0  0  0  0
   58.9689   34.5991   49.5507 H   0  0  0  0  0  0  0  0  0  0  0  0
   60.7965   34.5868   49.4656 H   0  0  0  0  0  0  0  0  0  0  0  0
   59.8560   32.8560   48.7110 C   0  0  0  0  0  0  0  0  0  0  0  0
   58.6370   32.2540   48.3670 C   0  0  0  0  0  0  0  0  0  0  0  0
   57.6934   32.6794   48.7393 H   0  0  0  0  0  0  0  0  0  0  0  0
   58.6130   31.1180   47.5550 C   0  0  0  0  0  0  0  0  0  0  0  0
   57.6505   30.6453   47.3097 H   0  0  0  0  0  0  0  0  0  0  0  0
   59.8080   30.5700   47.0460 C   0  0  0  0  0  0  0  0  0  0  0  0
   59.7950   29.3240   46.3010 N   0  0  0  0  0  0  0  0  0  0  0  0
   60.0170   28.0460   46.9880 C   0  0  0  0  0  0  0  0  0  0  0  0
   59.9894   28.2050   48.0761 H   0  0  0  0  0  0  0  0  0  0  0  0
   59.2291   27.3339   46.7014 H   0  0  0  0  0  0  0  0  0  0  0  0
   60.9989   27.6413   46.7014 H   0  0  0  0  0  0  0  0  0  0  0  0
   59.6320   29.3240   44.8430 C   0  0  0  0  0  0  0  0  0  0  0  0
   59.5913   28.2869   44.4786 H   0  0  0  0  0  0  0  0  0  0  0  0
   58.6987   29.8425   44.5784 H   0  0  0  0  0  0  0  0  0  0  0  0
   60.4838   29.8425   44.3788 H   0  0  0  0  0  0  0  0  0  0  0  0
   61.0180   31.2440   47.3150 C   0  0  0  0  0  0  0  0  0  0  0  0
   61.9556   30.8765   46.8725 H   0  0  0  0  0  0  0  0  0  0  0  0
   61.0380   32.3740   48.1380 C   0  0  0  0  0  0  0  0  0  0  0  0
   61.9901   32.8880   48.3365 H   0  0  0  0  0  0  0  0  0  0  0  0
   60.6380   32.3050   51.3930 C   0  0  0  0  0  0  0  0  0  0  0  0
   61.3574   32.0947   50.5878 H   0  0  0  0  0  0  0  0  0  0  0  0
   61.1315   32.4040   52.3711 H   0  0  0  0  0  0  0  0  0  0  0  0
   59.6600   31.1300   51.4920 C   0  0  0  0  0  0  0  0  0  0  0  0
   59.3225   30.8588   50.4808 H   0  0  0  0  0  0  0  0  0  0  0  0
   60.1793   30.2857   51.9689 H   0  0  0  0  0  0  0  0  0  0  0  0
   55.5870   29.2410   53.2580 N   0  0  0  0  0  0  0  0  0  0  0  0
   56.0800   28.1580   54.1150 C   0  0  0  0  0  0  0  0  0  0  0  0
   55.9522   28.4388   55.1708 H   0  0  0  0  0  0  0  0  0  0  0  0
   55.5114   27.2393   53.9085 H   0  0  0  0  0  0  0  0  0  0  0  0
   57.1463   27.9835   53.9085 H   0  0  0  0  0  0  0  0  0  0  0  0
  1  2  1  0
  2  3  1  0
  2  4  2  0
  4  5  1  0
  5  6  2  0
  6  7  1  0
  6  8  1  0
  8  9  1  0
  9 10  1  0
 10 11  2  0
 10 12  1  0
 12 13  1  0
 13 14  1  0
  5 15  1  0
 15 16  1  0
 15 17  2  0
 17 18  1  0
 18 19  2  0
 18 20  1  0
 20 21  1  0
 21 22  1  0
 21 23  1  0
 21 24  1  0
 24 25  1  0
 24 26  1  0
 24 27  1  0
 27 28  1  0
 28 29  1  0
 28 30  1  0
 28 31  1  0
 31 32  2  0
 32 33  1  0
 32 34  1  0
 34 35  1  0
 34 36  2  0
 36 37  1  0
 37 38  1  0
 38 39  1  0
 38 40  1  0
 38 41  1  0
 37 42  1  0
 42 43  1  0
 42 44  1  0
 42 45  1  0
 36 46  1  0
 46 47  1  0
 46 48  2  0
 48 49  1  0
 27 50  1  0
 50 51  1  0
 50 52  1  0
 50 53  1  0
 53 54  1  0
 53 55  1  0
 17 56  1  0
 56 57  1  0
 57 58  1  0
 57 59  1  0
 57 60  1  0
 56  4  1  0
 13  8  2  0
 53 20  1  0
 48 31  1  0
M  CHG  3   9  -1  12  -1  14  -1
M  END
>  <UniqueID>  (41) 
41

>  <SMILES>  (41) 
C=c1/c(=C\c2[n-]c(=O)[n-]c2[O-])cc(C(=O)N2CCN(Cc3ccc(N(C)C)cc3)CC2)n1C

>  <Energy>  (41) 
148.13427555986215

>  <Genealogy>  (41) 
C=c1c(=Cc2[n-]c(=O)[n-]c2[O-])cc(C(=O)N2CCN(Cc3ccc(N(C)C)cc3)CC2)n1C (protonated)
C=c1/c(=C\c2[n-]c(=O)[n-]c2[O-])cc(C(=O)N2CCN(Cc3ccc(N(C)C)cc3)CC2)n1C (cis-trans isomerization)
C=c1/c(=C\c2[n-]c(=O)[n-]c2[O-])cc(C(=O)N2CCN(Cc3ccc(N(C)C)cc3)CC2)n1C (3D coordinates assigned)
C=c1/c(=C\c2[n-]c(=O)[n-]c2[O-])cc(C(=O)N2CCN(Cc3ccc(N(C)C)cc3)CC2)n1C (nonaromatic ring conformer: 148.13427555986215 kcal/mol)

>  <smiles>  (41) 
C=c1c(=Cc2[nH]c(=O)[nH]c2O)cc(C(=O)N2CCN(Cc3ccc(N(C)C)cc3)CC2)n1C

>  <score_type>  (41) 
oracle

>  <origin>  (41) 
adg

>  <m_score__min__energy>  (41) 
-18.370000000000001

>  <m_primary>  (41) 
energy

$$$$
41:0
     RDKit          3D

 59 62  0  0  0  0  0  0  0  0999 V2000
   60.7020   28.1070   50.3450 C   0  0  0  0  0  0  0  0  0  0  0  0
   61.1180   28.5960   49.0750 O   0  0  0  0  0  0  0  0  0  0  0  0
   60.2650   28.7880   47.9760 C   0  0  0  0  0  0  0  0  0  0  0  0
   60.0330   27.7750   47.0270 C   0  0  0  0  0  0  0  0  0  0  0  0
   59.1530   27.9900   45.9640 C   0  0  0  0  0  0  0  0  0  0  0  0
   58.4860   29.2160   45.8310 C   0  0  0  0  0  0  0  0  0  0  0  0
   57.5460   29.4470   44.6790 C   0  0  0  0  0  0  0  0  0  0  0  0
   56.1590   29.0240   45.0450 C   0  0  0  0  0  0  0  0  0  0  0  0
   55.1900   29.8080   44.8710 O   0  0  0  0  0  0  0  0  0  0  0  0
   55.9380   27.7650   45.5940 O   0  0  0  0  0  0  0  0  0  0  0  0
   58.7320   30.2380   46.7590 C   0  0  0  0  0  0  0  0  0  0  0  0
   59.6140   30.0270   47.8300 C   0  0  0  0  0  0  0  0  0  0  0  0
   59.8290   31.1000   48.8230 C   0  0  0  0  0  0  0  0  0  0  0  0
   58.7230   31.5760   49.5400 C   0  0  0  0  0  0  0  0  0  0  0  0
   58.8710   32.6110   50.4610 C   0  0  0  0  0  0  0  0  0  0  0  0
   60.1220   33.1880   50.6740 C   0  0  0  0  0  0  0  0  0  0  0  0
   60.2340   34.2120   51.5570 F   0  0  0  0  0  0  0  0  0  0  0  0
   61.2460   32.7270   49.9690 C   0  0  0  0  0  0  0  0  0  0  0  0
   61.1040   31.6810   49.0270 C   0  0  0  0  0  0  0  0  0  0  0  0
   62.3300   31.1650   48.2920 C   0  0  0  0  0  0  0  0  0  0  0  0
   63.3640   32.2100   48.1290 N   0  0  1  0  0  0  0  0  0  0  0  0
   63.0050   33.2820   47.1980 C   0  0  0  0  0  0  0  0  0  0  0  0
   63.8350   34.1420   46.9350 O   0  0  0  0  0  0  0  0  0  0  0  0
   61.7040   33.2700   46.4020 C   0  0  0  0  0  0  0  0  0  0  0  0
   60.8920   34.5720   46.5200 C   0  0  0  0  0  0  0  0  0  0  0  0
   59.4620   34.3530   46.9530 C   0  0  0  0  0  0  0  0  0  0  0  0
   59.0870   34.6890   48.1110 O   0  0  0  0  0  0  0  0  0  0  0  0
   58.4970   33.7000   46.0490 C   0  0  0  0  0  0  0  0  0  0  0  0
   58.7930   33.2030   44.7920 C   0  0  0  0  0  0  0  0  0  0  0  0
   57.6110   32.6980   44.2880 C   0  0  0  0  0  0  0  0  0  0  0  0
   56.6480   32.9100   45.2550 C   0  0  0  0  0  0  0  0  0  0  0  0
   57.1910   33.5190   46.3250 N   0  0  0  0  0  0  0  0  0  0  0  0
   63.7360   32.7310   49.4630 C   0  0  0  0  0  0  0  0  0  0  0  0
   62.5630   33.4420   50.1550 C   0  0  0  0  0  0  0  0  0  0  0  0
   61.1945   28.6860   51.1401 H   0  0  0  0  0  0  0  0  0  0  0  0
   59.6109   28.2105   50.4383 H   0  0  0  0  0  0  0  0  0  0  0  0
   60.9790   27.0466   50.4383 H   0  0  0  0  0  0  0  0  0  0  0  0
   60.5480   26.8078   47.1231 H   0  0  0  0  0  0  0  0  0  0  0  0
   58.9821   27.1922   45.2263 H   0  0  0  0  0  0  0  0  0  0  0  0
   57.5429   30.5167   44.4226 H   0  0  0  0  0  0  0  0  0  0  0  0
   57.8846   28.8528   43.8175 H   0  0  0  0  0  0  0  0  0  0  0  0
   58.2308   31.2107   46.6469 H   0  0  0  0  0  0  0  0  0  0  0  0
   57.7314   31.1295   49.3746 H   0  0  0  0  0  0  0  0  0  0  0  0
   57.9974   32.9742   51.0222 H   0  0  0  0  0  0  0  0  0  0  0  0
   62.7590   30.3280   48.8624 H   0  0  0  0  0  0  0  0  0  0  0  0
   62.0125   30.8443   47.2888 H   0  0  0  0  0  0  0  0  0  0  0  0
   64.2150   31.7450   47.7310 H   0  0  0  0  0  0  0  0  0  0  0  0
   61.9476   33.1080   45.3416 H   0  0  0  0  0  0  0  0  0  0  0  0
   61.0809   32.4648   46.8184 H   0  0  0  0  0  0  0  0  0  0  0  0
   61.3834   35.2231   47.2580 H   0  0  0  0  0  0  0  0  0  0  0  0
   60.8609   35.0258   45.5184 H   0  0  0  0  0  0  0  0  0  0  0  0
   59.7738   33.2090   44.2940 H   0  0  0  0  0  0  0  0  0  0  0  0
   57.4649   32.2203   43.3080 H   0  0  0  0  0  0  0  0  0  0  0  0
   55.5901   32.6226   45.1637 H   0  0  0  0  0  0  0  0  0  0  0  0
   56.6800   33.8020   47.1910 H   0  0  0  0  0  0  0  0  0  0  0  0
   64.0627   31.8907   50.0932 H   0  0  0  0  0  0  0  0  0  0  0  0
   64.5433   33.4655   49.3261 H   0  0  0  0  0  0  0  0  0  0  0  0
   62.7780   33.5057   51.2319 H   0  0  0  0  0  0  0  0  0  0  0  0
   62.4646   34.4367   49.6959 H   0  0  0  0  0  0  0  0  0  0  0  0
  1  2  1  0
  2  3  1  0
  3  4  2  0
  4  5  1  0
  5  6  2  0
  6  7  1  0
  7  8  1  0
  8  9  2  0
  8 10  1  0
  6 11  1  0
 11 12  2  0
 12 13  1  0
 13 14  2  0
 14 15  1  0
 15 16  2  0
 16 17  1  0
 16 18  1  0
 18 19  2  0
 19 20  1  0
 20 21  1  0
 21 22  1  0
 22 23  2  0
 22 24  1  0
 24 25  1  0
 25 26  1  0
 26 27  2  0
 26 28  1  0
 28 29  2  0
 29 30  1  0
 30 31  2  0
 31 32  1  0
 21 33  1  0
 33 34  1  0
 12  3  1  0
 19 13  1  0
 32 28  1  0
 34 18  1  0
  1 35  1  0
  1 36  1  0
  1 37  1  0
  4 38  1  0
  5 39  1  0
  7 40  1  0
  7 41  1  0
 11 42  1  0
 14 43  1  0
 15 44  1  0
 20 45  1  0
 20 46  1  0
 21 47  1  6
 24 48  1  0
 24 49  1  0
 25 50  1  0
 25 51  1  0
 29 52  1  0
 30 53  1  0
 31 54  1  0
 32 55  1  0
 33 56  1  0
 33 57  1  0
 34 58  1  0
 34 59  1  0
M  CHG  2  10  -1  21   1
M  END
>  <UniqueID>  (42) 
42

>  <SMILES>  (42) 
COc1ccc(CC(=O)[O-])cc1-c1ccc(F)c2c1C[N@@H+](C(=O)CCC(=O)c1ccc[nH]1)CC2

>  <Energy>  (42) 
100.85547897059999

>  <Genealogy>  (42) 
COc1ccc(CC(=O)[O-])cc1-c1ccc(F)c2c1C[NH+](C(=O)CCC(=O)c1ccc[nH]1)CC2 (protonated)
COc1ccc(CC(=O)[O-])cc1-c1ccc(F)c2c1C[N@@H+](C(=O)CCC(=O)c1ccc[nH]1)CC2 (chirality)
COc1ccc(CC(=O)[O-])cc1-c1ccc(F)c2c1C[N@@H+](C(=O)CCC(=O)c1ccc[nH]1)CC2 (3D coordinates assigned)
COc1ccc(CC(=O)[O-])cc1-c1ccc(F)c2c1C[N@@H+](C(=O)CCC(=O)c1ccc[nH]1)CC2 (nonaromatic ring conformer: 100.85547897059999 kcal/mol)

>  <smiles>  (42) 
COc1ccc(CC(=O)O)cc1-c1ccc(F)c2c1CN(C(=O)CCC(=O)c1ccc[nH]1)CC2

>  <score_type>  (42) 
oracle

>  <origin>  (42) 
adg

>  <m_score__min__energy>  (42) 
-10.460000000000001

>  <m_primary>  (42) 
energy

$$$$
42:0
     RDKit          3D

 56 59  0  0  0  0  0  0  0  0999 V2000
   55.3460   26.6790   45.9930 N   0  0  0  0  0  0  0  0  0  0  0  0
   56.3670   25.7850   46.4360 C   0  0  0  0  0  0  0  0  0  0  0  0
   56.0280   24.6960   46.9780 O   0  0  0  0  0  0  0  0  0  0  0  0
   57.8010   26.1320   46.2510 C   0  0  0  0  0  0  0  0  0  0  0  0
   58.7890   25.2330   46.7000 C   0  0  0  0  0  0  0  0  0  0  0  0
   60.1430   25.5420   46.5790 C   0  0  0  0  0  0  0  0  0  0  0  0
   60.5410   26.7470   46.0000 C   0  0  0  0  0  0  0  0  0  0  0  0
   59.5810   27.6500   45.5430 C   0  0  0  0  0  0  0  0  0  0  0  0
   58.2090   27.3580   45.6650 C   0  0  0  0  0  0  0  0  0  0  0  0
   57.2290   28.2680   45.1410 N   0  0  0  0  0  0  0  0  0  0  0  0
   57.1420   29.6750   45.3960 C   0  0  0  0  0  0  0  0  0  0  0  0
   56.2300   30.3310   44.8260 O   0  0  0  0  0  0  0  0  0  0  0  0
   58.0430   30.3640   46.3550 C   0  0  0  0  0  0  0  0  0  0  0  0
   58.3860   29.7740   47.5870 C   0  0  0  0  0  0  0  0  0  0  0  0
   59.2120   30.4470   48.4900 C   0  0  0  0  0  0  0  0  0  0  0  0
   59.6810   31.7280   48.1940 C   0  0  0  0  0  0  0  0  0  0  0  0
   59.3270   32.3440   46.9850 C   0  0  0  0  0  0  0  0  0  0  0  0
   59.8810   33.9750   46.6120 S   0  0  0  0  0  0  0  0  0  0  0  0
   58.9210   34.9860   47.1790 O   0  0  0  0  0  0  0  0  0  0  0  0
   59.9180   34.1390   45.1170 O   0  0  0  0  0  0  0  0  0  0  0  0
   61.4750   34.2270   47.2800 N   0  0  0  0  0  0  0  0  0  0  0  0
   62.4470   33.2450   46.7350 C   0  0  0  0  0  0  0  0  0  0  0  0
   62.8620   32.1630   47.7460 C   0  0  0  0  0  0  0  0  0  0  0  0
   63.3420   32.7840   48.9850 N   0  0  0  0  0  0  0  0  0  0  0  0
   64.3360   32.1250   49.8050 C   0  0  0  0  0  0  0  0  0  0  0  0
   65.6790   32.5490   49.7830 C   0  0  0  0  0  0  0  0  0  0  0  0
   66.6420   31.9070   50.5690 C   0  0  0  0  0  0  0  0  0  0  0  0
   66.2780   30.8390   51.3910 C   0  0  0  0  0  0  0  0  0  0  0  0
   67.2470   30.2100   52.1670 O   0  0  0  0  0  0  0  0  0  0  0  0
   64.9440   30.4120   51.4240 C   0  0  0  0  0  0  0  0  0  0  0  0
   63.9790   31.0490   50.6380 C   0  0  0  0  0  0  0  0  0  0  0  0
   62.7690   34.0710   49.4020 C   0  0  0  0  0  0  0  0  0  0  0  0
   61.3950   34.2690   48.7550 C   0  0  0  0  0  0  0  0  0  0  0  0
   58.5190   31.6580   46.0670 C   0  0  0  0  0  0  0  0  0  0  0  0
   55.5470   27.4090   45.2730 H   0  0  0  0  0  0  0  0  0  0  0  0
   58.4882   24.2760   47.1513 H   0  0  0  0  0  0  0  0  0  0  0  0
   60.9010   24.8323   46.9418 H   0  0  0  0  0  0  0  0  0  0  0  0
   61.6107   26.9849   45.9039 H   0  0  0  0  0  0  0  0  0  0  0  0
   59.8984   28.5978   45.0836 H   0  0  0  0  0  0  0  0  0  0  0  0
   58.0003   28.7754   47.8400 H   0  0  0  0  0  0  0  0  0  0  0  0
   59.4941   29.9658   49.4381 H   0  0  0  0  0  0  0  0  0  0  0  0
   60.3290   32.2548   48.9099 H   0  0  0  0  0  0  0  0  0  0  0  0
   61.9910   32.7509   45.8645 H   0  0  0  0  0  0  0  0  0  0  0  0
   63.3563   33.8044   46.4700 H   0  0  0  0  0  0  0  0  0  0  0  0
   61.9948   31.5250   47.9717 H   0  0  0  0  0  0  0  0  0  0  0  0
   63.6711   31.5575   47.3115 H   0  0  0  0  0  0  0  0  0  0  0  0
   65.9735   33.3929   49.1418 H   0  0  0  0  0  0  0  0  0  0  0  0
   67.6885   32.2446   50.5392 H   0  0  0  0  0  0  0  0  0  0  0  0
   66.9980   29.5140   52.8570 H   0  0  0  0  0  0  0  0  0  0  0  0
   64.6544   29.5713   52.0716 H   0  0  0  0  0  0  0  0  0  0  0  0
   62.9341   30.7067   50.6711 H   0  0  0  0  0  0  0  0  0  0  0  0
   62.6611   34.0837   50.4966 H   0  0  0  0  0  0  0  0  0  0  0  0
   63.4381   34.8836   49.0827 H   0  0  0  0  0  0  0  0  0  0  0  0
   60.7207   33.4706   49.0984 H   0  0  0  0  0  0  0  0  0  0  0  0
   61.0161   35.2586   49.0501 H   0  0  0  0  0  0  0  0  0  0  0  0
   58.2541   32.1354   45.1120 H   0  0  0  0  0  0  0  0  0  0  0  0
  1  2  1  0
  2  3  2  0
  2  4  1  0
  4  5  2  0
  5  6  1  0
  6  7  2  0
  7  8  1  0
  8  9  2  0
  9 10  1  0
 10 11  1  0
 11 12  2  0
 11 13  1  0
 13 14  2  0
 14 15  1  0
 15 16  2  0
 16 17  1  0
 17 18  1  0
 18 19  2  0
 18 20  2  0
 18 21  1  0
 21 22  1  0
 22 23  1  0
 23 24  1  0
 24 25  1  0
 25 26  2  0
 26 27  1  0
 27 28  2  0
 28 29  1  0
 28 30  1  0
 30 31  2  0
 24 32  1  0
 32 33  1  0
 17 34  2  0
  9  4  1  0
 34 13  1  0
 33 21  1  0
 31 25  1  0
  1 35  1  0
  5 36  1  0
  6 37  1  0
  7 38  1  0
  8 39  1  0
 14 40  1  0
 15 41  1  0
 16 42  1  0
 22 43  1  0
 22 44  1  0
 23 45  1  0
 23 46  1  0
 26 47  1  0
 27 48  1  0
 29 49  1  0
 30 50  1  0
 31 51  1  0
 32 52  1  0
 32 53  1  0
 33 54  1  0
 33 55  1  0
 34 56  1  0
M  CHG  2   1  -1  10  -1
M  END
>  <UniqueID>  (43) 
43

>  <SMILES>  (43) 
[NH-]C(=O)c1ccccc1[N-]C(=O)c1cccc(S(=O)(=O)N2CCN(c3ccc(O)cc3)CC2)c1

>  <Energy>  (43) 
77.96365960746459

>  <Genealogy>  (43) 
[NH-]C(=O)c1ccccc1[N-]C(=O)c1cccc(S(=O)(=O)N2CCN(c3ccc(O)cc3)CC2)c1 (protonated)
[NH-]C(=O)c1ccccc1[N-]C(=O)c1cccc(S(=O)(=O)N2CCN(c3ccc(O)cc3)CC2)c1 (3D coordinates assigned)
[NH-]C(=O)c1ccccc1[N-]C(=O)c1cccc(S(=O)(=O)N2CCN(c3ccc(O)cc3)CC2)c1 (nonaromatic ring conformer: 77.96365960746459 kcal/mol)

>  <smiles>  (43) 
NC(=O)c1ccccc1NC(=O)c1cccc(S(=O)(=O)N2CCN(c3ccc(O)cc3)CC2)c1

>  <score_type>  (43) 
oracle

>  <origin>  (43) 
adg

>  <m_score__min__energy>  (43) 
-15.869999999999999

>  <m_primary>  (43) 
energy

$$$$
43:0
     RDKit          3D

 54 57  0  0  0  0  0  0  0  0999 V2000
   60.0530   27.0060   46.6520 C   0  0  0  0  0  0  0  0  0  0  0  0
   59.2270   27.8490   46.0110 C   0  0  0  0  0  0  0  0  0  0  0  0
   58.0150   27.5370   45.3710 C   0  0  0  0  0  0  0  0  0  0  0  0
   57.4590   26.3490   45.0610 C   0  0  0  0  0  0  0  0  0  0  0  0
   56.9480   25.3670   46.0300 C   0  0  0  0  0  0  0  0  0  0  0  0
   57.6950   24.4200   46.6260 N   0  0  0  0  0  0  0  0  0  0  0  0
   56.7850   23.6900   47.3070 C   0  0  0  0  0  0  0  0  0  0  0  0
   57.1050   22.7020   48.0170 O   0  0  0  0  0  0  0  0  0  0  0  0
   55.5070   24.0960   47.1590 N   0  0  0  0  0  0  0  0  0  0  0  0
   55.6270   25.1500   46.3350 C   0  0  0  0  0  0  0  0  0  0  0  0
   54.5520   25.8980   45.8680 O   0  0  0  0  0  0  0  0  0  0  0  0
   57.4150   28.7500   45.0680 C   0  0  0  0  0  0  0  0  0  0  0  0
   58.2910   29.7400   45.4590 C   0  0  0  0  0  0  0  0  0  0  0  0
   58.0240   31.2100   45.3480 C   0  0  0  0  0  0  0  0  0  0  0  0
   59.3840   29.1950   46.0340 N   0  0  0  0  0  0  0  0  0  0  0  0
   60.4610   29.9280   46.6390 C   0  0  0  0  0  0  0  0  0  0  0  0
   61.5290   30.0910   45.9900 O   0  0  0  0  0  0  0  0  0  0  0  0
   60.3300   30.4570   47.9760 N   0  0  0  0  0  0  0  0  0  0  0  0
   59.1130   30.1800   48.7540 C   0  0  0  0  0  0  0  0  0  0  0  0
   59.3140   30.4550   50.2480 C   0  0  0  0  0  0  0  0  0  0  0  0
   59.9230   31.7740   50.4670 N   0  0  0  0  0  0  0  0  0  0  0  0
   59.6300   32.5200   51.6710 C   0  0  0  0  0  0  0  0  0  0  0  0
   59.0580   33.8040   51.5990 C   0  0  0  0  0  0  0  0  0  0  0  0
   58.7790   34.5250   52.7630 C   0  0  0  0  0  0  0  0  0  0  0  0
   59.0610   33.9830   54.0210 C   0  0  0  0  0  0  0  0  0  0  0  0
   58.7650   34.7480   55.1590 O   0  0  0  0  0  0  0  0  0  0  0  0
   58.9350   36.1590   55.2460 C   0  0  0  0  0  0  0  0  0  0  0  0
   59.6260   32.6970   54.1010 C   0  0  0  0  0  0  0  0  0  0  0  0
   59.9050   31.9750   52.9370 C   0  0  0  0  0  0  0  0  0  0  0  0
   60.9170   32.2930   49.5140 C   0  0  0  0  0  0  0  0  0  0  0  0
   61.4450   31.1900   48.5920 C   0  0  0  0  0  0  0  0  0  0  0  0
   60.9771   27.3854   47.1125 H   0  0  0  0  0  0  0  0  0  0  0  0
   59.8054   25.9362   46.7165 H   0  0  0  0  0  0  0  0  0  0  0  0
   57.3808   26.0922   43.9943 H   0  0  0  0  0  0  0  0  0  0  0  0
   53.6810   25.9280   46.3850 H   0  0  0  0  0  0  0  0  0  0  0  0
   56.4282   28.8946   44.6041 H   0  0  0  0  0  0  0  0  0  0  0  0
   57.9449   31.6454   46.3551 H   0  0  0  0  0  0  0  0  0  0  0  0
   58.8492   31.6925   44.8037 H   0  0  0  0  0  0  0  0  0  0  0  0
   57.0818   31.3715   44.8037 H   0  0  0  0  0  0  0  0  0  0  0  0
   58.2995   30.8196   48.3811 H   0  0  0  0  0  0  0  0  0  0  0  0
   58.8671   29.1146   48.6339 H   0  0  0  0  0  0  0  0  0  0  0  0
   58.3377   30.4219   50.7537 H   0  0  0  0  0  0  0  0  0  0  0  0
   59.9879   29.6875   50.6564 H   0  0  0  0  0  0  0  0  0  0  0  0
   58.8285   34.2440   50.6173 H   0  0  0  0  0  0  0  0  0  0  0  0
   58.3335   35.5280   52.6892 H   0  0  0  0  0  0  0  0  0  0  0  0
   58.9712   36.4594   56.3036 H   0  0  0  0  0  0  0  0  0  0  0  0
   59.8743   36.4464   54.7508 H   0  0  0  0  0  0  0  0  0  0  0  0
   58.0909   36.6612   54.7508 H   0  0  0  0  0  0  0  0  0  0  0  0
   59.8493   32.2575   55.0844 H   0  0  0  0  0  0  0  0  0  0  0  0
   60.3445   30.9695   53.0127 H   0  0  0  0  0  0  0  0  0  0  0  0
   60.4481   33.0766   48.9007 H   0  0  0  0  0  0  0  0  0  0  0  0
   61.7646   32.6967   50.0873 H   0  0  0  0  0  0  0  0  0  0  0  0
   62.0611   31.6431   47.8014 H   0  0  0  0  0  0  0  0  0  0  0  0
   62.0476   30.4875   49.1864 H   0  0  0  0  0  0  0  0  0  0  0  0
  1  2  2  0
  2  3  1  0
  3  4  2  3
  4  5  1  0
  5  6  1  0
  6  7  1  0
  7  8  2  0
  7  9  1  0
  9 10  1  0
 10 11  1  0
  3 12  1  0
 12 13  2  0
 13 14  1  0
 13 15  1  0
 15 16  1  0
 16 17  2  0
 16 18  1  0
 18 19  1  0
 19 20  1  0
 20 21  1  0
 21 22  1  0
 22 23  2  0
 23 24  1  0
 24 25  2  0
 25 26  1  0
 26 27  1  0
 25 28  1  0
 28 29  2  0
 21 30  1  0
 30 31  1  0
 15  2  1  0
 31 18  1  0
 10  5  2  0
 29 22  1  0
  1 32  1  0
  1 33  1  0
  4 34  1  0
 11 35  1  0
 12 36  1  0
 14 37  1  0
 14 38  1  0
 14 39  1  0
 19 40  1  0
 19 41  1  0
 20 42  1  0
 20 43  1  0
 23 44  1  0
 24 45  1  0
 27 46  1  0
 27 47  1  0
 27 48  1  0
 28 49  1  0
 29 50  1  0
 30 51  1  0
 30 52  1  0
 31 53  1  0
 31 54  1  0
M  CHG  2   6  -1   9  -1
M  END
>  <UniqueID>  (44) 
44

>  <SMILES>  (44) 
C=c1c(=Cc2[n-]c(=O)[n-]c2O)cc(C)n1C(=O)N1CCN(c2ccc(OC)cc2)CC1

>  <Energy>  (44) 
133.52161347417862

>  <Genealogy>  (44) 
C=c1c(=Cc2[n-]c(=O)[n-]c2O)cc(C)n1C(=O)N1CCN(c2ccc(OC)cc2)CC1 (protonated)
C=c1c(=Cc2[n-]c(=O)[n-]c2O)cc(C)n1C(=O)N1CCN(c2ccc(OC)cc2)CC1 (3D coordinates assigned)
C=c1c(=Cc2[n-]c(=O)[n-]c2O)cc(C)n1C(=O)N1CCN(c2ccc(OC)cc2)CC1 (nonaromatic ring conformer: 133.52161347417862 kcal/mol)

>  <smiles>  (44) 
C=c1c(=Cc2[nH]c(=O)[nH]c2O)cc(C)n1C(=O)N1CCN(c2ccc(OC)cc2)CC1

>  <score_type>  (44) 
oracle

>  <origin>  (44) 
adg

>  <m_score__min__energy>  (44) 
-12.859999999999999

>  <m_primary>  (44) 
energy

$$$$
44:0
     RDKit          3D

 57 60  0  0  0  0  0  0  0  0999 V2000
   58.0110   27.3820   43.1620 C   0  0  0  0  0  0  0  0  0  0  0  0
   58.1690   27.3480   44.6600 C   0  0  0  0  0  0  0  0  0  0  0  0
   58.8980   26.2920   45.2380 C   0  0  0  0  0  0  0  0  0  0  0  0
   59.0500   26.2080   46.6230 C   0  0  0  0  0  0  0  0  0  0  0  0
   58.4900   27.1810   47.4480 C   0  0  0  0  0  0  0  0  0  0  0  0
   57.7790   28.2470   46.8920 C   0  0  0  0  0  0  0  0  0  0  0  0
   57.6040   28.3440   45.4990 C   0  0  0  0  0  0  0  0  0  0  0  0
   56.8500   29.4980   44.9490 C   0  0  0  0  0  0  0  0  0  0  0  0
   55.5930   29.4470   44.8940 O   0  0  0  0  0  0  0  0  0  0  0  0
   57.5110   30.6560   44.4220 N   0  0  0  0  0  0  0  0  0  0  0  0
   57.8310   31.8520   45.1490 C   0  0  0  0  0  0  0  0  0  0  0  0
   57.0450   32.9860   44.9160 C   0  0  0  0  0  0  0  0  0  0  0  0
   57.3290   34.1880   45.5580 C   0  0  0  0  0  0  0  0  0  0  0  0
   58.3900   34.2690   46.4550 C   0  0  0  0  0  0  0  0  0  0  0  0
   59.1630   33.1340   46.7550 C   0  0  0  0  0  0  0  0  0  0  0  0
   60.2630   33.2420   47.6790 N   0  0  0  0  0  0  0  0  0  0  0  0
   61.6350   33.3730   47.2690 C   0  0  0  0  0  0  0  0  0  0  0  0
   61.9280   33.5330   46.0530 O   0  0  0  0  0  0  0  0  0  0  0  0
   62.7320   33.3540   48.2910 C   0  0  0  0  0  0  0  0  0  0  0  0
   63.0000   31.6700   48.9520 S   0  0  0  0  0  0  0  0  0  0  0  0
   61.3980   31.5580   49.7710 C   0  0  0  0  0  0  0  0  0  0  0  0
   60.9940   32.6260   50.5040 N   0  0  0  0  0  0  0  0  0  0  0  0
   59.7890   32.6510   51.1190 C   0  0  0  0  0  0  0  0  0  0  0  0
   59.3960   33.7840   51.8410 C   0  0  0  0  0  0  0  0  0  0  0  0
   58.1310   33.8320   52.4330 C   0  0  0  0  0  0  0  0  0  0  0  0
   57.2580   32.7480   52.3090 C   0  0  0  0  0  0  0  0  0  0  0  0
   57.6450   31.6130   51.5900 C   0  0  0  0  0  0  0  0  0  0  0  0
   58.9150   31.5570   50.9870 C   0  0  0  0  0  0  0  0  0  0  0  0
   59.3470   30.4490   50.2370 C   0  0  0  0  0  0  0  0  0  0  0  0
   58.5760   29.4600   50.0910 O   0  0  0  0  0  0  0  0  0  0  0  0
   60.5960   30.4450   49.6630 N   0  0  0  0  0  0  0  0  0  0  0  0
   61.0560   29.2790   48.8880 C   0  0  0  0  0  0  0  0  0  0  0  0
   58.8770   31.9040   46.1080 C   0  0  0  0  0  0  0  0  0  0  0  0
   59.6660   30.6670   46.4610 C   0  0  0  0  0  0  0  0  0  0  0  0
   56.9645   27.6072   42.9087 H   0  0  0  0  0  0  0  0  0  0  0  0
   58.6655   28.1599   42.7418 H   0  0  0  0  0  0  0  0  0  0  0  0
   58.2876   26.4038   42.7418 H   0  0  0  0  0  0  0  0  0  0  0  0
   59.3521   25.5258   44.5924 H   0  0  0  0  0  0  0  0  0  0  0  0
   59.6129   25.3721   47.0638 H   0  0  0  0  0  0  0  0  0  0  0  0
   58.6080   27.1096   48.5393 H   0  0  0  0  0  0  0  0  0  0  0  0
   57.3516   29.0184   47.5495 H   0  0  0  0  0  0  0  0  0  0  0  0
   56.1955   32.9271   44.2196 H   0  0  0  0  0  0  0  0  0  0  0  0
   56.7129   35.0766   45.3557 H   0  0  0  0  0  0  0  0  0  0  0  0
   58.6260   35.2307   46.9339 H   0  0  0  0  0  0  0  0  0  0  0  0
   60.0510   33.2890   48.7010 H   0  0  0  0  0  0  0  0  0  0  0  0
   63.6629   33.7071   47.8233 H   0  0  0  0  0  0  0  0  0  0  0  0
   62.4401   34.0103   49.1241 H   0  0  0  0  0  0  0  0  0  0  0  0
   60.0832   34.6369   51.9424 H   0  0  0  0  0  0  0  0  0  0  0  0
   57.8221   34.7243   52.9973 H   0  0  0  0  0  0  0  0  0  0  0  0
   56.2639   32.7877   52.7782 H   0  0  0  0  0  0  0  0  0  0  0  0
   56.9548   30.7617   51.4955 H   0  0  0  0  0  0  0  0  0  0  0  0
   61.3706   28.4816   49.5773 H   0  0  0  0  0  0  0  0  0  0  0  0
   60.2349   28.9130   48.2541 H   0  0  0  0  0  0  0  0  0  0  0  0
   61.9059   29.5722   48.2541 H   0  0  0  0  0  0  0  0  0  0  0  0
   59.7272   30.5710   47.5551 H   0  0  0  0  0  0  0  0  0  0  0  0
   59.1657   29.7812   46.0426 H   0  0  0  0  0  0  0  0  0  0  0  0
   60.6802   30.7472   46.0426 H   0  0  0  0  0  0  0  0  0  0  0  0
  1  2  1  0
  2  3  2  0
  3  4  1  0
  4  5  2  0
  5  6  1  0
  6  7  2  0
  7  8  1  0
  8  9  2  0
  8 10  1  0
 10 11  1  0
 11 12  2  0
 12 13  1  0
 13 14  2  0
 14 15  1  0
 15 16  1  0
 16 17  1  0
 17 18  2  0
 17 19  1  0
 19 20  1  0
 20 21  1  0
 21 22  2  0
 22 23  1  0
 23 24  2  0
 24 25  1  0
 25 26  2  0
 26 27  1  0
 27 28  2  0
 28 29  1  0
 29 30  2  0
 29 31  1  0
 31 32  1  0
 15 33  2  0
 33 34  1  0
  7  2  1  0
 33 11  1  0
 31 21  1  0
 28 23  1  0
  1 35  1  0
  1 36  1  0
  1 37  1  0
  3 38  1  0
  4 39  1  0
  5 40  1  0
  6 41  1  0
 12 42  1  0
 13 43  1  0
 14 44  1  0
 16 45  1  0
 19 46  1  0
 19 47  1  0
 24 48  1  0
 25 49  1  0
 26 50  1  0
 27 51  1  0
 32 52  1  0
 32 53  1  0
 32 54  1  0
 34 55  1  0
 34 56  1  0
 34 57  1  0
M  CHG  1  10  -1
M  END
>  <UniqueID>  (45) 
45

>  <SMILES>  (45) 
Cc1ccccc1C(=O)[N-]c1cccc(NC(=O)CSc2nc3ccccc3c(=O)n2C)c1C

>  <Energy>  (45) 
78.11903235657097

>  <Genealogy>  (45) 
Cc1ccccc1C(=O)[N-]c1cccc(NC(=O)CSc2nc3ccccc3c(=O)n2C)c1C (protonated)
Cc1ccccc1C(=O)[N-]c1cccc(NC(=O)CSc2nc3ccccc3c(=O)n2C)c1C (3D coordinates assigned)
Cc1ccccc1C(=O)[N-]c1cccc(NC(=O)CSc2nc3ccccc3c(=O)n2C)c1C (optimized conformer: 78.11903235657097 kcal/mol)

>  <smiles>  (45) 
Cc1ccccc1C(=O)Nc1cccc(NC(=O)CSc2nc3ccccc3c(=O)n2C)c1C

>  <score_type>  (45) 
oracle

>  <origin>  (45) 
adg

>  <m_score__min__energy>  (45) 
-12.51

>  <m_primary>  (45) 
energy

$$$$
45:0
     RDKit          3D

 58 61  0  0  0  0  0  0  0  0999 V2000
   62.0010   31.9480   47.9840 O   0  0  0  0  0  0  0  0  0  0  0  0
   61.3250   32.7490   48.6810 C   0  0  0  0  0  0  0  0  0  0  0  0
   60.9510   34.1030   48.1350 C   0  0  0  0  0  0  0  0  0  0  0  0
   59.8260   33.9970   47.1230 C   0  0  0  0  0  0  0  0  0  0  0  0
   58.4940   33.8280   47.5500 C   0  0  0  0  0  0  0  0  0  0  0  0
   57.4550   33.8370   46.6120 C   0  0  0  0  0  0  0  0  0  0  0  0
   57.7320   33.9500   45.2450 C   0  0  0  0  0  0  0  0  0  0  0  0
   59.0590   34.0900   44.8210 C   0  0  0  0  0  0  0  0  0  0  0  0
   60.0990   34.1160   45.7510 C   0  0  0  0  0  0  0  0  0  0  0  0
   60.9270   32.3090   49.9790 N   0  0  0  0  0  0  0  0  0  0  0  0
   59.7720   32.6220   50.7630 C   0  0  0  0  0  0  0  0  0  0  0  0
   59.6720   33.7900   51.5450 C   0  0  0  0  0  0  0  0  0  0  0  0
   58.5380   34.0200   52.3270 C   0  0  0  0  0  0  0  0  0  0  0  0
   57.4810   33.0910   52.3460 C   0  0  0  0  0  0  0  0  0  0  0  0
   57.6080   31.8910   51.6380 C   0  0  0  0  0  0  0  0  0  0  0  0
   58.7530   31.6560   50.8450 C   0  0  0  0  0  0  0  0  0  0  0  0
   58.9480   30.3620   50.1420 C   0  0  0  0  0  0  0  0  0  0  0  0
   58.4530   29.3430   50.7100 O   0  0  0  0  0  0  0  0  0  0  0  0
   59.6120   30.2190   48.8470 N   0  0  1  0  0  0  0  0  0  0  0  0
   60.0120   28.8280   48.4690 C   0  0  0  0  0  0  0  0  0  0  0  0
   58.9040   27.8810   47.9020 C   0  0  0  0  0  0  0  0  0  0  0  0
   58.4010   27.9910   46.4220 C   0  0  0  0  0  0  0  0  0  0  0  0
   58.1800   29.3590   45.9050 N   0  0  0  0  0  0  0  0  0  0  0  0
   57.7590   29.3890   44.4820 C   0  0  0  0  0  0  0  0  0  0  0  0
   56.2480   29.3320   44.2980 C   0  0  0  0  0  0  0  0  0  0  0  0
   56.3170   30.5830   43.4010 C   0  0  0  0  0  0  0  0  0  0  0  0
   57.7880   30.7530   43.7710 C   0  0  0  0  0  0  0  0  0  0  0  0
   59.1940   30.3230   46.3710 C   0  0  0  0  0  0  0  0  0  0  0  0
   58.8880   30.9080   47.7540 C   0  0  0  0  0  0  0  0  0  0  0  0
   60.6265   34.7472   48.9655 H   0  0  0  0  0  0  0  0  0  0  0  0
   61.8313   34.5302   47.6324 H   0  0  0  0  0  0  0  0  0  0  0  0
   58.2710   33.6893   48.6182 H   0  0  0  0  0  0  0  0  0  0  0  0
   56.4122   33.7546   46.9523 H   0  0  0  0  0  0  0  0  0  0  0  0
   56.9141   33.9290   44.5098 H   0  0  0  0  0  0  0  0  0  0  0  0
   59.2832   34.1801   43.7479 H   0  0  0  0  0  0  0  0  0  0  0  0
   61.1377   34.2303   45.4075 H   0  0  0  0  0  0  0  0  0  0  0  0
   60.4911   34.5242   51.5395 H   0  0  0  0  0  0  0  0  0  0  0  0
   58.4704   34.9353   52.9334 H   0  0  0  0  0  0  0  0  0  0  0  0
   56.5631   33.3065   52.9125 H   0  0  0  0  0  0  0  0  0  0  0  0
   56.8158   31.1302   51.6989 H   0  0  0  0  0  0  0  0  0  0  0  0
   60.5170   30.7280   48.9750 H   0  0  0  0  0  0  0  0  0  0  0  0
   60.7981   28.9088   47.7038 H   0  0  0  0  0  0  0  0  0  0  0  0
   60.3192   28.3603   49.4160 H   0  0  0  0  0  0  0  0  0  0  0  0
   59.2823   26.8554   48.0241 H   0  0  0  0  0  0  0  0  0  0  0  0
   58.0170   28.1923   48.4732 H   0  0  0  0  0  0  0  0  0  0  0  0
   59.1483   27.5057   45.7771 H   0  0  0  0  0  0  0  0  0  0  0  0
   57.4117   27.5103   46.4120 H   0  0  0  0  0  0  0  0  0  0  0  0
   58.4232   28.5904   44.1200 H   0  0  0  0  0  0  0  0  0  0  0  0
   55.8911   28.4280   43.7829 H   0  0  0  0  0  0  0  0  0  0  0  0
   55.5791   29.3062   45.1709 H   0  0  0  0  0  0  0  0  0  0  0  0
   56.1409   30.3827   42.3338 H   0  0  0  0  0  0  0  0  0  0  0  0
   55.6054   31.4106   43.5376 H   0  0  0  0  0  0  0  0  0  0  0  0
   58.4675   30.7959   42.9070 H   0  0  0  0  0  0  0  0  0  0  0  0
   58.1306   31.6533   44.3021 H   0  0  0  0  0  0  0  0  0  0  0  0
   60.1666   29.8112   46.4164 H   0  0  0  0  0  0  0  0  0  0  0  0
   59.1975   31.1605   45.6579 H   0  0  0  0  0  0  0  0  0  0  0  0
   59.1764   31.9695   47.7572 H   0  0  0  0  0  0  0  0  0  0  0  0
   57.8116   30.7743   47.9369 H   0  0  0  0  0  0  0  0  0  0  0  0
  1  2  2  0
  2  3  1  0
  3  4  1  0
  4  5  2  0
  5  6  1  0
  6  7  2  0
  7  8  1  0
  8  9  2  0
  2 10  1  0
 10 11  1  0
 11 12  2  0
 12 13  1  0
 13 14  2  0
 14 15  1  0
 15 16  2  0
 16 17  1  0
 17 18  2  0
 17 19  1  0
 19 20  1  0
 20 21  1  0
 21 22  1  0
 22 23  1  0
 23 24  1  0
 24 25  1  0
 25 26  1  0
 26 27  1  0
 23 28  1  0
 28 29  1  0
  9  4  1  0
 16 11  1  0
 29 19  1  0
 27 24  1  0
  3 30  1  0
  3 31  1  0
  5 32  1  0
  6 33  1  0
  7 34  1  0
  8 35  1  0
  9 36  1  0
 12 37  1  0
 13 38  1  0
 14 39  1  0
 15 40  1  0
 19 41  1  1
 20 42  1  0
 20 43  1  0
 21 44  1  0
 21 45  1  0
 22 46  1  0
 22 47  1  0
 24 48  1  0
 25 49  1  0
 25 50  1  0
 26 51  1  0
 26 52  1  0
 27 53  1  0
 27 54  1  0
 28 55  1  0
 28 56  1  0
 29 57  1  0
 29 58  1  0
M  CHG  2  10  -1  19   1
M  END
>  <UniqueID>  (46) 
46

>  <SMILES>  (46) 
O=C(Cc1ccccc1)[N-]c1ccccc1C(=O)[N@H+]1CCCN(C2CCC2)CC1

>  <Energy>  (46) 
171.0157789165893

>  <Genealogy>  (46) 
O=C(Cc1ccccc1)[N-]c1ccccc1C(=O)[NH+]1CCCN(C2CCC2)CC1 (protonated)
O=C(Cc1ccccc1)[N-]c1ccccc1C(=O)[N@H+]1CCCN(C2CCC2)CC1 (chirality)
O=C(Cc1ccccc1)[N-]c1ccccc1C(=O)[N@H+]1CCCN(C2CCC2)CC1 (3D coordinates assigned)
O=C(Cc1ccccc1)[N-]c1ccccc1C(=O)[N@H+]1CCCN(C2CCC2)CC1 (nonaromatic ring conformer: 171.0157789165893 kcal/mol)

>  <smiles>  (46) 
O=C(Cc1ccccc1)Nc1ccccc1C(=O)N1CCCN(C2CCC2)CC1

>  <score_type>  (46) 
oracle

>  <origin>  (46) 
adg

>  <m_score__min__energy>  (46) 
-6.1600000000000001

>  <m_primary>  (46) 
energy

$$$$
46:0
     RDKit          3D

 62 65  0  0  0  0  0  0  0  0999 V2000
   54.8456   25.8556   45.4824 H   0  0  0  0  0  0  0  0  0  0  0  0
   55.8710   25.6140   45.7990 C   0  0  0  0  0  0  0  0  0  0  0  0
   56.8220   26.7350   45.9260 C   0  0  0  0  0  0  0  0  0  0  0  0
   57.5270   26.8150   46.9700 O   0  0  0  0  0  0  0  0  0  0  0  0
   57.0310   27.6610   44.8490 N   0  0  0  0  0  0  0  0  0  0  0  0
   56.8510   27.3340   43.8720 H   0  0  0  0  0  0  0  0  0  0  0  0
   57.5070   29.0040   45.0420 C   0  0  0  0  0  0  0  0  0  0  0  0
   56.7100   30.0850   44.6370 C   0  0  0  0  0  0  0  0  0  0  0  0
   55.7388   29.8975   44.1558 H   0  0  0  0  0  0  0  0  0  0  0  0
   57.1420   31.4000   44.8410 C   0  0  0  0  0  0  0  0  0  0  0  0
   56.5202   32.2408   44.4998 H   0  0  0  0  0  0  0  0  0  0  0  0
   58.3650   31.6490   45.4790 C   0  0  0  0  0  0  0  0  0  0  0  0
   58.8910   33.3070   45.7740 S   0  0  0  0  0  0  0  0  0  0  0  0
   57.7210   34.1110   46.2720 O   0  0  0  0  0  0  0  0  0  0  0  0
   59.3600   33.9200   44.4830 O   0  0  0  0  0  0  0  0  0  0  0  0
   60.1940   33.3730   46.9360 N   0  0  0  0  0  0  0  0  0  0  0  0
   61.4010   33.9550   46.3440 C   0  0  0  0  0  0  0  0  0  0  0  0
   61.5819   33.5104   45.3542 H   0  0  0  0  0  0  0  0  0  0  0  0
   61.2796   35.0417   46.2243 H   0  0  0  0  0  0  0  0  0  0  0  0
   62.5800   33.6540   47.2700 C   0  0  0  0  0  0  0  0  0  0  0  0
   62.8875   32.6082   47.1223 H   0  0  0  0  0  0  0  0  0  0  0  0
   63.3922   34.3516   47.0176 H   0  0  0  0  0  0  0  0  0  0  0  0
   62.2400   33.8530   48.6970 N   0  0  0  0  0  0  0  0  0  0  0  0
   62.6440   32.7810   49.6310 C   0  0  0  0  0  0  0  0  0  0  0  0
   63.7082   32.9205   49.8720 H   0  0  0  0  0  0  0  0  0  0  0  0
   61.9846   32.8696   50.5070 H   0  0  0  0  0  0  0  0  0  0  0  0
   62.4580   31.3450   49.0910 C   0  0  0  0  0  0  0  0  0  0  0  0
   62.6572   31.3550   48.0092 H   0  0  0  0  0  0  0  0  0  0  0  0
   63.1582   30.7053   49.6482 H   0  0  0  0  0  0  0  0  0  0  0  0
   61.0770   30.7720   49.3130 C   0  0  0  0  0  0  0  0  0  0  0  0
   60.1090   31.4890   50.0350 C   0  0  0  0  0  0  0  0  0  0  0  0
   60.3521   32.4746   50.4586 H   0  0  0  0  0  0  0  0  0  0  0  0
   58.8340   30.9420   50.2120 C   0  0  0  0  0  0  0  0  0  0  0  0
   58.0797   31.4869   50.7986 H   0  0  0  0  0  0  0  0  0  0  0  0
   58.5250   29.7390   49.6610 N   0  0  0  0  0  0  0  0  0  0  0  0
   59.4280   29.0410   48.9240 C   0  0  0  0  0  0  0  0  0  0  0  0
   59.1467   28.0726   48.4846 H   0  0  0  0  0  0  0  0  0  0  0  0
   60.7140   29.5510   48.7230 C   0  0  0  0  0  0  0  0  0  0  0  0
   61.4377   28.9984   48.1058 H   0  0  0  0  0  0  0  0  0  0  0  0
   60.9870   34.5750   49.0040 C   0  0  0  0  0  0  0  0  0  0  0  0
   60.7417   34.4124   50.0639 H   0  0  0  0  0  0  0  0  0  0  0  0
   61.1599   35.6370   48.7752 H   0  0  0  0  0  0  0  0  0  0  0  0
   59.7850   34.1130   48.1460 C   0  0  0  0  0  0  0  0  0  0  0  0
   59.1472   33.4589   48.7587 H   0  0  0  0  0  0  0  0  0  0  0  0
   59.2488   35.0150   47.8160 H   0  0  0  0  0  0  0  0  0  0  0  0
   59.1540   30.5720   45.9020 C   0  0  0  0  0  0  0  0  0  0  0  0
   60.1138   30.7617   46.4048 H   0  0  0  0  0  0  0  0  0  0  0  0
   58.7290   29.2570   45.6890 C   0  0  0  0  0  0  0  0  0  0  0  0
   59.3532   28.4175   46.0290 H   0  0  0  0  0  0  0  0  0  0  0  0
   56.1540   24.3230   46.0380 C   0  0  0  0  0  0  0  0  0  0  0  0
   56.0945   23.9781   47.0808 H   0  0  0  0  0  0  0  0  0  0  0  0
   56.5390   23.3270   45.0150 C   0  0  0  0  0  0  0  0  0  0  0  0
   57.5680   22.3950   45.2440 C   0  0  0  0  0  0  0  0  0  0  0  0
   58.0972   22.3890   46.2083 H   0  0  0  0  0  0  0  0  0  0  0  0
   57.9210   21.4750   44.2490 C   0  0  0  0  0  0  0  0  0  0  0  0
   58.7098   20.7329   44.4415 H   0  0  0  0  0  0  0  0  0  0  0  0
   57.2720   21.4990   43.0120 C   0  0  0  0  0  0  0  0  0  0  0  0
   57.5418   20.7686   42.2350 H   0  0  0  0  0  0  0  0  0  0  0  0
   56.2800   22.4510   42.7620 C   0  0  0  0  0  0  0  0  0  0  0  0
   55.7811   22.4793   41.7820 H   0  0  0  0  0  0  0  0  0  0  0  0
   55.9200   23.3680   43.7550 C   0  0  0  0  0  0  0  0  0  0  0  0
   55.1487   24.1245   43.5481 H   0  0  0  0  0  0  0  0  0  0  0  0
  1  2  1  0
  2  3  1  0
  3  4  2  0
  3  5  1  0
  5  6  1  0
  5  7  1  0
  7  8  2  0
  8  9  1  0
  8 10  1  0
 10 11  1  0
 10 12  2  0
 12 13  1  0
 13 14  2  0
 13 15  2  0
 13 16  1  0
 16 17  1  0
 17 18  1  0
 17 19  1  0
 17 20  1  0
 20 21  1  0
 20 22  1  0
 20 23  1  0
 23 24  1  0
 24 25  1  0
 24 26  1  0
 24 27  1  0
 27 28  1  0
 27 29  1  0
 27 30  1  0
 30 31  2  0
 31 32  1  0
 31 33  1  0
 33 34  1  0
 33 35  2  0
 35 36  1  0
 36 37  1  0
 36 38  2  0
 38 39  1  0
 23 40  1  0
 40 41  1  0
 40 42  1  0
 40 43  1  0
 43 44  1  0
 43 45  1  0
 12 46  1  0
 46 47  1  0
 46 48  2  0
 48 49  1  0
  2 50  2  0
 50 51  1  0
 50 52  1  0
 52 53  2  0
 53 54  1  0
 53 55  1  0
 55 56  1  0
 55 57  2  0
 57 58  1  0
 57 59  1  0
 59 60  1  0
 59 61  2  0
 61 62  1  0
 48  7  1  0
 61 52  1  0
 43 16  1  0
 38 30  1  0
M  END
>  <UniqueID>  (47) 
47

>  <SMILES>  (47) 
O=C(/C=C\c1ccccc1)Nc1ccc(S(=O)(=O)N2CCN(CCc3ccncc3)CC2)cc1

>  <Energy>  (47) 
89.4266732725306

>  <Genealogy>  (47) 
O=C(/C=C\c1ccccc1)Nc1ccc(S(=O)(=O)N2CCN(CCc3ccncc3)CC2)cc1 (cis-trans isomerization)
O=C(/C=C\c1ccccc1)Nc1ccc(S(=O)(=O)N2CCN(CCc3ccncc3)CC2)cc1 (3D coordinates assigned)
O=C(/C=C\c1ccccc1)Nc1ccc(S(=O)(=O)N2CCN(CCc3ccncc3)CC2)cc1 (nonaromatic ring conformer: 89.4266732725306 kcal/mol)

>  <smiles>  (47) 
O=C(C=Cc1ccccc1)Nc1ccc(S(=O)(=O)N2CCN(CCc3ccncc3)CC2)cc1

>  <score_type>  (47) 
oracle

>  <origin>  (47) 
adg

>  <m_score__min__energy>  (47) 
-9.4199999999999999

>  <m_primary>  (47) 
energy

$$$$
47:0
     RDKit          3D

 63 66  0  0  0  0  0  0  0  0999 V2000
   60.4440   26.3480   49.1470 O   0  0  0  0  0  0  0  0  0  0  0  0
   60.0330   27.5240   48.9650 C   0  0  0  0  0  0  0  0  0  0  0  0
   58.9560   27.7730   48.0540 N   0  0  0  0  0  0  0  0  0  0  0  0
   58.3030   26.7040   47.2990 C   0  0  0  0  0  0  0  0  0  0  0  0
   57.2240   27.2680   46.4170 C   0  0  0  0  0  0  0  0  0  0  0  0
   56.1030   26.6870   46.4110 O   0  0  0  0  0  0  0  0  0  0  0  0
   57.4140   28.4600   45.6190 N   0  0  0  0  0  0  0  0  0  0  0  0
   56.2630   29.0170   44.8940 C   0  0  0  0  0  0  0  0  0  0  0  0
   56.6890   30.1030   43.8940 C   0  0  0  0  0  0  0  0  0  0  0  0
   57.5840   31.1140   44.4980 N   0  0  0  0  0  0  0  0  0  0  0  0
   56.9380   32.3950   44.8690 C   0  0  0  0  0  0  0  0  0  0  0  0
   57.9020   33.4240   45.4260 C   0  0  0  0  0  0  0  0  0  0  0  0
   57.9930   33.6470   46.8120 C   0  0  0  0  0  0  0  0  0  0  0  0
   58.8690   34.6110   47.3160 C   0  0  0  0  0  0  0  0  0  0  0  0
   59.6770   35.3490   46.4480 C   0  0  0  0  0  0  0  0  0  0  0  0
   59.6180   35.1140   45.0730 C   0  0  0  0  0  0  0  0  0  0  0  0
   58.7400   34.1520   44.5630 C   0  0  0  0  0  0  0  0  0  0  0  0
   58.5710   30.6150   45.4840 C   0  0  0  0  0  0  0  0  0  0  0  0
   58.7290   29.0930   45.4450 C   0  0  0  0  0  0  0  0  0  0  0  0
   60.6490   28.6320   49.7210 C   0  0  0  0  0  0  0  0  0  0  0  0
   61.6100   28.3760   50.7130 C   0  0  0  0  0  0  0  0  0  0  0  0
   62.2000   29.4330   51.4090 C   0  0  0  0  0  0  0  0  0  0  0  0
   61.8410   30.7530   51.1210 C   0  0  0  0  0  0  0  0  0  0  0  0
   60.8780   31.0220   50.1400 C   0  0  0  0  0  0  0  0  0  0  0  0
   60.4790   32.6860   49.7240 S   0  0  0  0  0  0  0  0  0  0  0  0
   59.0070   32.7870   49.4270 O   0  0  0  0  0  0  0  0  0  0  0  0
   60.7980   33.5910   50.8840 O   0  0  0  0  0  0  0  0  0  0  0  0
   61.3900   33.1510   48.3120 N   0  0  0  0  0  0  0  0  0  0  0  0
   62.1660   32.0330   47.7770 C   0  0  0  0  0  0  0  0  0  0  0  0
   63.3460   32.6450   47.0400 C   0  0  0  0  0  0  0  0  0  0  0  0
   63.4780   34.0570   47.5930 C   0  0  0  0  0  0  0  0  0  0  0  0
   62.3640   34.1960   48.6190 C   0  0  0  0  0  0  0  0  0  0  0  0
   60.2830   29.9620   49.4450 C   0  0  0  0  0  0  0  0  0  0  0  0
   58.5900   28.7420   47.9510 H   0  0  0  0  0  0  0  0  0  0  0  0
   59.0505   26.1924   46.6749 H   0  0  0  0  0  0  0  0  0  0  0  0
   57.8503   25.9934   48.0061 H   0  0  0  0  0  0  0  0  0  0  0  0
   55.7610   28.2059   44.3462 H   0  0  0  0  0  0  0  0  0  0  0  0
   55.5858   29.4762   45.6292 H   0  0  0  0  0  0  0  0  0  0  0  0
   57.2150   29.6229   43.0557 H   0  0  0  0  0  0  0  0  0  0  0  0
   55.7790   30.6220   43.5586 H   0  0  0  0  0  0  0  0  0  0  0  0
   56.4606   32.8160   43.9718 H   0  0  0  0  0  0  0  0  0  0  0  0
   56.2119   32.1707   45.6643 H   0  0  0  0  0  0  0  0  0  0  0  0
   57.3708   33.0589   47.5026 H   0  0  0  0  0  0  0  0  0  0  0  0
   58.9228   34.7896   48.4001 H   0  0  0  0  0  0  0  0  0  0  0  0
   60.3589   36.1143   46.8472 H   0  0  0  0  0  0  0  0  0  0  0  0
   60.2629   35.6862   44.3898 H   0  0  0  0  0  0  0  0  0  0  0  0
   58.7049   33.9638   43.4798 H   0  0  0  0  0  0  0  0  0  0  0  0
   59.5466   31.0755   45.2690 H   0  0  0  0  0  0  0  0  0  0  0  0
   58.2050   30.8850   46.4856 H   0  0  0  0  0  0  0  0  0  0  0  0
   59.1551   28.7932   44.4762 H   0  0  0  0  0  0  0  0  0  0  0  0
   59.4005   28.7729   46.2553 H   0  0  0  0  0  0  0  0  0  0  0  0
   61.8987   27.3396   50.9423 H   0  0  0  0  0  0  0  0  0  0  0  0
   62.9500   29.2263   52.1867 H   0  0  0  0  0  0  0  0  0  0  0  0
   62.3158   31.5822   51.6659 H   0  0  0  0  0  0  0  0  0  0  0  0
   62.5207   31.3896   48.5957 H   0  0  0  0  0  0  0  0  0  0  0  0
   61.5569   31.4087   47.1067 H   0  0  0  0  0  0  0  0  0  0  0  0
   64.2623   32.0682   47.2340 H   0  0  0  0  0  0  0  0  0  0  0  0
   63.1935   32.6443   45.9506 H   0  0  0  0  0  0  0  0  0  0  0  0
   64.4597   34.1930   48.0703 H   0  0  0  0  0  0  0  0  0  0  0  0
   63.4001   34.8153   46.8000 H   0  0  0  0  0  0  0  0  0  0  0  0
   62.7627   34.0583   49.6349 H   0  0  0  0  0  0  0  0  0  0  0  0
   61.9049   35.1947   48.5774 H   0  0  0  0  0  0  0  0  0  0  0  0
   59.5235   30.1709   48.6772 H   0  0  0  0  0  0  0  0  0  0  0  0
  1  2  2  0
  2  3  1  0
  3  4  1  0
  4  5  1  0
  5  6  2  0
  5  7  1  0
  7  8  1  0
  8  9  1  0
  9 10  1  0
 10 11  1  0
 11 12  1  0
 12 13  2  0
 13 14  1  0
 14 15  2  0
 15 16  1  0
 16 17  2  0
 10 18  1  0
 18 19  1  0
  2 20  1  0
 20 21  2  0
 21 22  1  0
 22 23  2  0
 23 24  1  0
 24 25  1  0
 25 26  2  0
 25 27  2  0
 25 28  1  0
 28 29  1  0
 29 30  1  0
 30 31  1  0
 31 32  1  0
 24 33  2  0
 19  7  1  0
 33 20  1  0
 17 12  1  0
 32 28  1  0
  3 34  1  0
  4 35  1  0
  4 36  1  0
  8 37  1  0
  8 38  1  0
  9 39  1  0
  9 40  1  0
 11 41  1  0
 11 42  1  0
 13 43  1  0
 14 44  1  0
 15 45  1  0
 16 46  1  0
 17 47  1  0
 18 48  1  0
 18 49  1  0
 19 50  1  0
 19 51  1  0
 21 52  1  0
 22 53  1  0
 23 54  1  0
 29 55  1  0
 29 56  1  0
 30 57  1  0
 30 58  1  0
 31 59  1  0
 31 60  1  0
 32 61  1  0
 32 62  1  0
 33 63  1  0
M  END
>  <UniqueID>  (48) 
48

>  <SMILES>  (48) 
O=C(NCC(=O)N1CCN(Cc2ccccc2)CC1)c1cccc(S(=O)(=O)N2CCCC2)c1

>  <Energy>  (48) 
73.63694222785452

>  <Genealogy>  (48) 
O=C(NCC(=O)N1CCN(Cc2ccccc2)CC1)c1cccc(S(=O)(=O)N2CCCC2)c1 (3D coordinates assigned)
O=C(NCC(=O)N1CCN(Cc2ccccc2)CC1)c1cccc(S(=O)(=O)N2CCCC2)c1 (nonaromatic ring conformer: 73.63694222785452 kcal/mol)

>  <smiles>  (48) 
O=C(NCC(=O)N1CCN(Cc2ccccc2)CC1)c1cccc(S(=O)(=O)N2CCCC2)c1

>  <score_type>  (48) 
oracle

>  <origin>  (48) 
adg

>  <m_score__min__energy>  (48) 
-10.06

>  <m_primary>  (48) 
energy

$$$$
48:0
     RDKit          3D

 32 33  0  0  0  0  0  0  0  0999 V2000
   51.0250   32.3420   50.1590 N   0  0  0  0  0  0  0  0  0  0  0  0
   51.1950   32.2820   51.5740 C   0  0  0  0  0  0  0  0  0  0  0  0
   50.9530   33.3040   52.2680 O   0  0  0  0  0  0  0  0  0  0  0  0
   51.6210   31.0170   52.2040 C   0  0  0  0  0  0  0  0  0  0  0  0
   50.7420   30.2780   52.7230 O   0  0  0  0  0  0  0  0  0  0  0  0
   53.0360   30.5840   52.2640 C   0  0  0  0  0  0  0  0  0  0  0  0
   53.4870   29.4060   52.8290 C   0  0  0  0  0  0  0  0  0  0  0  0
   54.8190   29.3050   52.6790 N   0  0  0  0  0  0  0  0  0  0  0  0
   55.2290   30.4050   52.0170 C   0  0  0  0  0  0  0  0  0  0  0  0
   56.6360   30.6480   51.6370 C   0  0  0  0  0  0  0  0  0  0  0  0
   57.4570   29.6920   51.6920 O   0  0  0  0  0  0  0  0  0  0  0  0
   57.0800   31.9480   51.2170 N   0  0  0  0  0  0  0  0  0  0  0  0
   58.4310   32.1860   50.7140 C   0  0  0  0  0  0  0  0  0  0  0  0
   58.5110   31.8350   49.2530 C   0  0  0  0  0  0  0  0  0  0  0  0
   58.8990   30.5440   48.8620 C   0  0  0  0  0  0  0  0  0  0  0  0
   58.9990   30.2190   47.5050 C   0  0  0  0  0  0  0  0  0  0  0  0
   58.7170   31.1810   46.5320 C   0  0  0  0  0  0  0  0  0  0  0  0
   58.3350   32.4720   46.9130 C   0  0  0  0  0  0  0  0  0  0  0  0
   57.9570   33.7880   45.5820 Br  0  0  0  0  0  0  0  0  0  0  0  0
   58.2340   32.7990   48.2690 C   0  0  0  0  0  0  0  0  0  0  0  0
   54.1470   31.2220   51.7340 C   0  0  0  0  0  0  0  0  0  0  0  0
   51.7050   32.8610   49.5590 H   0  0  0  0  0  0  0  0  0  0  0  0
   52.8498   28.6609   53.3279 H   0  0  0  0  0  0  0  0  0  0  0  0
   55.4160   28.5140   53.0120 H   0  0  0  0  0  0  0  0  0  0  0  0
   56.4370   32.7670   51.2840 H   0  0  0  0  0  0  0  0  0  0  0  0
   58.6865   33.2476   50.8471 H   0  0  0  0  0  0  0  0  0  0  0  0
   59.1384   31.5564   51.2736 H   0  0  0  0  0  0  0  0  0  0  0  0
   59.1253   29.7850   49.6254 H   0  0  0  0  0  0  0  0  0  0  0  0
   59.3000   29.2048   47.2038 H   0  0  0  0  0  0  0  0  0  0  0  0
   58.7953   30.9233   45.4655 H   0  0  0  0  0  0  0  0  0  0  0  0
   57.9364   33.8153   48.5665 H   0  0  0  0  0  0  0  0  0  0  0  0
   54.1654   32.1822   51.1976 H   0  0  0  0  0  0  0  0  0  0  0  0
  1  2  1  0
  2  3  2  0
  2  4  1  0
  4  5  2  0
  4  6  1  0
  6  7  2  0
  7  8  1  0
  8  9  1  0
  9 10  1  0
 10 11  2  0
 10 12  1  0
 12 13  1  0
 13 14  1  0
 14 15  2  0
 15 16  1  0
 16 17  2  0
 17 18  1  0
 18 19  1  0
 18 20  2  0
  9 21  2  0
 21  6  1  0
 20 14  1  0
  1 22  1  0
  7 23  1  0
  8 24  1  0
 12 25  1  0
 13 26  1  0
 13 27  1  0
 15 28  1  0
 16 29  1  0
 17 30  1  0
 20 31  1  0
 21 32  1  0
M  CHG  1   1  -1
M  END
>  <UniqueID>  (49) 
49

>  <SMILES>  (49) 
[NH-]C(=O)C(=O)c1c[nH]c(C(=O)NCc2cccc(Br)c2)c1

>  <Energy>  (49) 
55.372142405796815

>  <Genealogy>  (49) 
[NH-]C(=O)C(=O)c1c[nH]c(C(=O)NCc2cccc(Br)c2)c1 (protonated)
[NH-]C(=O)C(=O)c1c[nH]c(C(=O)NCc2cccc(Br)c2)c1 (3D coordinates assigned)
[NH-]C(=O)C(=O)c1c[nH]c(C(=O)NCc2cccc(Br)c2)c1 (optimized conformer: 55.372142405796815 kcal/mol)

>  <smiles>  (49) 
NC(=O)C(=O)c1c[nH]c(C(=O)NCc2cccc(Br)c2)c1

>  <score_type>  (49) 
oracle

>  <origin>  (49) 
adg

>  <m_score__min__energy>  (49) 
-11.550000000000001

>  <m_primary>  (49) 
energy

$$$$
49:0
     RDKit          3D

 58 61  0  0  0  0  0  0  0  0999 V2000
   59.5262   32.0035   51.8748 H   0  0  0  0  0  0  0  0  0  0  0  0
   59.0740   32.1370   50.8810 C   0  0  0  0  0  0  0  0  0  0  0  0
   59.2330   33.2930   50.2980 N   0  0  0  0  0  0  0  0  0  0  0  0
   60.0380   33.6160   49.1540 C   0  0  0  0  0  0  0  0  0  0  0  0
   60.8930   34.5390   49.2170 O   0  0  0  0  0  0  0  0  0  0  0  0
   59.9280   32.8060   47.9180 C   0  0  0  0  0  0  0  0  0  0  0  0
   58.9600   32.9110   46.9180 C   0  0  0  0  0  0  0  0  0  0  0  0
   57.8250   33.8940   46.8600 C   0  0  0  0  0  0  0  0  0  0  0  0
   57.5178   34.1601   47.8822 H   0  0  0  0  0  0  0  0  0  0  0  0
   58.1512   34.7997   46.3277 H   0  0  0  0  0  0  0  0  0  0  0  0
   56.9752   33.4419   46.3277 H   0  0  0  0  0  0  0  0  0  0  0  0
   59.2410   31.9120   45.9930 C   0  0  0  0  0  0  0  0  0  0  0  0
   58.4780   31.6050   44.7310 C   0  0  0  0  0  0  0  0  0  0  0  0
   59.1391   31.7526   43.8643 H   0  0  0  0  0  0  0  0  0  0  0  0
   57.6111   32.2793   44.6689 H   0  0  0  0  0  0  0  0  0  0  0  0
   57.9860   30.1850   44.7400 C   0  0  0  0  0  0  0  0  0  0  0  0
   58.7530   29.0690   45.0230 C   0  0  0  0  0  0  0  0  0  0  0  0
   59.8316   29.0472   45.2377 H   0  0  0  0  0  0  0  0  0  0  0  0
   57.8880   27.9790   44.9820 C   0  0  0  0  0  0  0  0  0  0  0  0
   58.1790   26.6850   45.2000 C   0  0  0  0  0  0  0  0  0  0  0  0
   59.0458   26.2719   44.6633 H   0  0  0  0  0  0  0  0  0  0  0  0
   57.4430   25.7640   46.0940 C   0  0  0  0  0  0  0  0  0  0  0  0
   57.9730   24.7410   46.7890 N   0  0  0  0  0  0  0  0  0  0  0  0
   56.9120   24.2100   47.4320 C   0  0  0  0  0  0  0  0  0  0  0  0
   57.0110   23.2160   48.1980 O   0  0  0  0  0  0  0  0  0  0  0  0
   55.7380   24.8280   47.1910 N   0  0  0  0  0  0  0  0  0  0  0  0
   56.0910   25.8070   46.3420 C   0  0  0  0  0  0  0  0  0  0  0  0
   55.1940   26.7210   45.8050 O   0  0  0  0  0  0  0  0  0  0  0  0
   56.6360   28.3980   44.6940 N   0  0  0  0  0  0  0  0  0  0  0  0
   55.7840   27.7990   44.6080 H   0  0  0  0  0  0  0  0  0  0  0  0
   56.6870   29.7360   44.5530 C   0  0  0  0  0  0  0  0  0  0  0  0
   55.6200   30.4910   44.2860 C   0  0  0  0  0  0  0  0  0  0  0  0
   55.7292   31.5807   44.1827 H   0  0  0  0  0  0  0  0  0  0  0  0
   54.6310   30.0238   44.1691 H   0  0  0  0  0  0  0  0  0  0  0  0
   60.3570   31.2500   46.3560 N   0  0  0  0  0  0  0  0  0  0  0  0
   60.8110   30.4680   45.8340 H   0  0  0  0  0  0  0  0  0  0  0  0
   60.7770   31.7780   47.5210 C   0  0  0  0  0  0  0  0  0  0  0  0
   61.9870   31.2850   48.2500 C   0  0  0  0  0  0  0  0  0  0  0  0
   61.8156   31.3548   49.3343 H   0  0  0  0  0  0  0  0  0  0  0  0
   62.1786   30.2371   47.9758 H   0  0  0  0  0  0  0  0  0  0  0  0
   62.8564   31.9006   47.9758 H   0  0  0  0  0  0  0  0  0  0  0  0
   58.3180   30.9690   50.2980 C   0  0  0  0  0  0  0  0  0  0  0  0
   57.7707   30.4557   51.1024 H   0  0  0  0  0  0  0  0  0  0  0  0
   57.6170   31.3458   49.5386 H   0  0  0  0  0  0  0  0  0  0  0  0
   59.2440   30.0140   49.6560 N   0  0  0  0  0  0  0  0  0  0  0  0
   59.7640   29.0570   50.6490 C   0  0  0  0  0  0  0  0  0  0  0  0
   60.2791   29.6085   51.4493 H   0  0  0  0  0  0  0  0  0  0  0  0
   58.9237   28.4833   51.0672 H   0  0  0  0  0  0  0  0  0  0  0  0
   60.7570   28.0800   49.9830 C   0  0  0  0  0  0  0  0  0  0  0  0
   61.7675   28.2885   50.3644 H   0  0  0  0  0  0  0  0  0  0  0  0
   60.4371   27.0566   50.2288 H   0  0  0  0  0  0  0  0  0  0  0  0
   60.7690   28.2020   48.5730 O   0  0  0  0  0  0  0  0  0  0  0  0
   59.4510   28.0960   48.0760 C   0  0  0  0  0  0  0  0  0  0  0  0
   59.4801   28.0885   46.9764 H   0  0  0  0  0  0  0  0  0  0  0  0
   59.0062   27.1639   48.4547 H   0  0  0  0  0  0  0  0  0  0  0  0
   58.5880   29.2820   48.5500 C   0  0  0  0  0  0  0  0  0  0  0  0
   58.4314   29.9711   47.7070 H   0  0  0  0  0  0  0  0  0  0  0  0
   57.6272   28.8894   48.9143 H   0  0  0  0  0  0  0  0  0  0  0  0
  1  2  1  0
  2  3  2  3
  3  4  1  0
  4  5  2  0
  4  6  1  0
  6  7  1  0
  7  8  1  0
  8  9  1  0
  8 10  1  0
  8 11  1  0
  7 12  2  0
 12 13  1  0
 13 14  1  0
 13 15  1  0
 13 16  1  0
 16 17  2  0
 17 18  1  0
 17 19  1  0
 19 20  2  0
 20 21  1  0
 20 22  1  0
 22 23  1  0
 23 24  1  0
 24 25  2  0
 24 26  1  0
 26 27  1  0
 27 28  1  0
 19 29  1  0
 29 30  1  0
 29 31  1  0
 31 32  2  0
 32 33  1  0
 32 34  1  0
 12 35  1  0
 35 36  1  0
 35 37  1  0
 37 38  1  0
 38 39  1  0
 38 40  1  0
 38 41  1  0
  2 42  1  0
 42 43  1  0
 42 44  1  0
 42 45  1  0
 45 46  1  0
 46 47  1  0
 46 48  1  0
 46 49  1  0
 49 50  1  0
 49 51  1  0
 49 52  1  0
 52 53  1  0
 53 54  1  0
 53 55  1  0
 53 56  1  0
 56 57  1  0
 56 58  1  0
 37  6  2  0
 56 45  1  0
 31 16  1  0
 27 22  2  0
M  CHG  3  23  -1  26  -1  28  -1
M  END
>  <UniqueID>  (50) 
50

>  <SMILES>  (50) 
C=c1[nH]/c(=C/c2[n-]c(=O)[n-]c2[O-])cc1Cc1[nH]c(C)c(C(=O)N=CCN2CCOCC2)c1C

>  <Energy>  (50) 
158.25972209713547

>  <Genealogy>  (50) 
C=c1[nH]c(=Cc2[n-]c(=O)[n-]c2[O-])cc1Cc1[nH]c(C)c(C(=O)N=CCN2CCOCC2)c1C (protonated)
C=c1[nH]/c(=C/c2[n-]c(=O)[n-]c2[O-])cc1Cc1[nH]c(C)c(C(=O)N=CCN2CCOCC2)c1C (cis-trans isomerization)
C=c1[nH]/c(=C/c2[n-]c(=O)[n-]c2[O-])cc1Cc1[nH]c(C)c(C(=O)N=CCN2CCOCC2)c1C (3D coordinates assigned)
C=c1[nH]/c(=C/c2[n-]c(=O)[n-]c2[O-])cc1Cc1[nH]c(C)c(C(=O)N=CCN2CCOCC2)c1C (nonaromatic ring conformer: 158.25972209713547 kcal/mol)

>  <smiles>  (50) 
C=c1[nH]c(=Cc2[nH]c(=O)[nH]c2O)cc1Cc1[nH]c(C)c(C(=O)N=CCN2CCOCC2)c1C

>  <score_type>  (50) 
oracle

>  <origin>  (50) 
adg

>  <m_score__min__energy>  (50) 
-19.34

>  <m_primary>  (50) 
energy

$$$$
50:0
     RDKit          3D

 67 70  0  0  0  0  0  0  0  0999 V2000
   65.3430   32.4620   50.0950 C   0  0  0  0  0  0  0  0  0  0  0  0
   64.8500   31.2390   50.8610 C   0  0  0  0  0  0  0  0  0  0  0  0
   63.4360   31.2980   51.0530 O   0  0  0  0  0  0  0  0  0  0  0  0
   62.4800   30.5510   50.3430 C   0  0  0  0  0  0  0  0  0  0  0  0
   61.9180   29.3660   50.8540 C   0  0  0  0  0  0  0  0  0  0  0  0
   61.0010   28.6360   50.0990 C   0  0  0  0  0  0  0  0  0  0  0  0
   60.6330   29.0690   48.8210 C   0  0  0  0  0  0  0  0  0  0  0  0
   59.5070   28.1220   47.8410 S   0  0  0  0  0  0  0  0  0  0  0  0
   59.4060   26.7360   48.4150 O   0  0  0  0  0  0  0  0  0  0  0  0
   58.1480   28.7590   47.9440 O   0  0  0  0  0  0  0  0  0  0  0  0
   59.9460   28.0350   46.1430 N   0  0  0  0  0  0  0  0  0  0  0  0
   58.8280   27.7120   45.2490 C   0  0  0  0  0  0  0  0  0  0  0  0
   57.9190   28.9110   44.9030 C   0  0  0  0  0  0  0  0  0  0  0  0
   58.4900   30.2460   45.1710 N   0  0  0  0  0  0  0  0  0  0  0  0
   57.6150   31.3870   44.9980 C   0  0  0  0  0  0  0  0  0  0  0  0
   56.4380   31.2090   44.5750 O   0  0  0  0  0  0  0  0  0  0  0  0
   58.0950   32.7990   45.2590 C   0  0  0  0  0  0  0  0  0  0  0  0
   58.5240   33.0020   46.6920 C   0  0  0  0  0  0  0  0  0  0  0  0
   58.1380   32.0860   47.6820 C   0  0  0  0  0  0  0  0  0  0  0  0
   58.5710   32.2490   49.0010 C   0  0  0  0  0  0  0  0  0  0  0  0
   59.4040   33.3270   49.3520 C   0  0  0  0  0  0  0  0  0  0  0  0
   59.8680   33.4980   50.7530 C   0  0  0  0  0  0  0  0  0  0  0  0
   61.2400   33.4870   51.0610 C   0  0  0  0  0  0  0  0  0  0  0  0
   61.6540   33.6520   52.3860 C   0  0  0  0  0  0  0  0  0  0  0  0
   60.7350   33.8240   53.3720 N   0  0  0  0  0  0  0  0  0  0  0  0
   59.4010   33.8400   53.1080 C   0  0  0  0  0  0  0  0  0  0  0  0
   58.9440   33.6770   51.7980 C   0  0  0  0  0  0  0  0  0  0  0  0
   59.7930   34.2390   48.3530 C   0  0  0  0  0  0  0  0  0  0  0  0
   59.3590   34.0750   47.0360 C   0  0  0  0  0  0  0  0  0  0  0  0
   59.8750   30.4610   45.6210 C   0  0  0  0  0  0  0  0  0  0  0  0
   60.7080   29.1840   45.6530 C   0  0  0  0  0  0  0  0  0  0  0  0
   61.1490   30.2740   48.3280 C   0  0  0  0  0  0  0  0  0  0  0  0
   62.0890   31.0110   49.0750 C   0  0  0  0  0  0  0  0  0  0  0  0
   62.6610   32.2040   48.5990 O   0  0  0  0  0  0  0  0  0  0  0  0
   63.2520   32.3910   47.3130 C   0  0  0  0  0  0  0  0  0  0  0  0
   63.0140   33.8110   46.8090 C   0  0  0  0  0  0  0  0  0  0  0  0
   65.6563   33.2392   50.8076 H   0  0  0  0  0  0  0  0  0  0  0  0
   66.1972   32.1787   49.4624 H   0  0  0  0  0  0  0  0  0  0  0  0
   64.5311   32.8503   49.4624 H   0  0  0  0  0  0  0  0  0  0  0  0
   65.0992   30.3317   50.2911 H   0  0  0  0  0  0  0  0  0  0  0  0
   65.3394   31.2184   51.8459 H   0  0  0  0  0  0  0  0  0  0  0  0
   62.2042   29.0135   51.8559 H   0  0  0  0  0  0  0  0  0  0  0  0
   60.5644   27.7142   50.5108 H   0  0  0  0  0  0  0  0  0  0  0  0
   59.2420   27.3127   44.3114 H   0  0  0  0  0  0  0  0  0  0  0  0
   58.1985   26.9860   45.7844 H   0  0  0  0  0  0  0  0  0  0  0  0
   57.6793   28.8550   43.8309 H   0  0  0  0  0  0  0  0  0  0  0  0
   57.0423   28.8223   45.5615 H   0  0  0  0  0  0  0  0  0  0  0  0
   58.9505   33.0093   44.6003 H   0  0  0  0  0  0  0  0  0  0  0  0
   57.2565   33.4822   45.0585 H   0  0  0  0  0  0  0  0  0  0  0  0
   57.4917   31.2356   47.4191 H   0  0  0  0  0  0  0  0  0  0  0  0
   58.2578   31.5284   49.7709 H   0  0  0  0  0  0  0  0  0  0  0  0
   61.9842   33.3492   50.2628 H   0  0  0  0  0  0  0  0  0  0  0  0
   62.7263   33.6426   52.6310 H   0  0  0  0  0  0  0  0  0  0  0  0
   58.6807   33.9815   53.9273 H   0  0  0  0  0  0  0  0  0  0  0  0
   57.8650   33.6886   51.5845 H   0  0  0  0  0  0  0  0  0  0  0  0
   60.4438   35.0873   48.6117 H   0  0  0  0  0  0  0  0  0  0  0  0
   59.6740   34.7919   46.2635 H   0  0  0  0  0  0  0  0  0  0  0  0
   60.3570   31.1744   44.9363 H   0  0  0  0  0  0  0  0  0  0  0  0
   59.8255   30.8416   46.6519 H   0  0  0  0  0  0  0  0  0  0  0  0
   61.0603   28.9660   44.6340 H   0  0  0  0  0  0  0  0  0  0  0  0
   61.5490   29.3485   46.3428 H   0  0  0  0  0  0  0  0  0  0  0  0
   60.8172   30.6485   47.3484 H   0  0  0  0  0  0  0  0  0  0  0  0
   64.3347   32.2102   47.3839 H   0  0  0  0  0  0  0  0  0  0  0  0
   62.7913   31.6843   46.6070 H   0  0  0  0  0  0  0  0  0  0  0  0
   62.9002   34.4902   47.6667 H   0  0  0  0  0  0  0  0  0  0  0  0
   63.8709   34.1318   46.1984 H   0  0  0  0  0  0  0  0  0  0  0  0
   62.0993   33.8349   46.1984 H   0  0  0  0  0  0  0  0  0  0  0  0
  1  2  1  0
  2  3  1  0
  3  4  1  0
  4  5  2  0
  5  6  1  0
  6  7  2  0
  7  8  1  0
  8  9  2  0
  8 10  2  0
  8 11  1  0
 11 12  1  0
 12 13  1  0
 13 14  1  0
 14 15  1  0
 15 16  2  0
 15 17  1  0
 17 18  1  0
 18 19  2  0
 19 20  1  0
 20 21  2  0
 21 22  1  0
 22 23  2  0
 23 24  1  0
 24 25  2  0
 25 26  1  0
 26 27  2  0
 21 28  1  0
 28 29  2  0
 14 30  1  0
 30 31  1  0
  7 32  1  0
 32 33  2  0
 33 34  1  0
 34 35  1  0
 35 36  1  0
 33  4  1  0
 31 11  1  0
 29 18  1  0
 27 22  1  0
  1 37  1  0
  1 38  1  0
  1 39  1  0
  2 40  1  0
  2 41  1  0
  5 42  1  0
  6 43  1  0
 12 44  1  0
 12 45  1  0
 13 46  1  0
 13 47  1  0
 17 48  1  0
 17 49  1  0
 19 50  1  0
 20 51  1  0
 23 52  1  0
 24 53  1  0
 26 54  1  0
 27 55  1  0
 28 56  1  0
 29 57  1  0
 30 58  1  0
 30 59  1  0
 31 60  1  0
 31 61  1  0
 32 62  1  0
 35 63  1  0
 35 64  1  0
 36 65  1  0
 36 66  1  0
 36 67  1  0
M  END
>  <UniqueID>  (51) 
51

>  <SMILES>  (51) 
CCOc1ccc(S(=O)(=O)N2CCN(C(=O)Cc3ccc(-c4ccncc4)cc3)CC2)cc1OCC

>  <Energy>  (51) 
75.7845444679431

>  <Genealogy>  (51) 
CCOc1ccc(S(=O)(=O)N2CCN(C(=O)Cc3ccc(-c4ccncc4)cc3)CC2)cc1OCC (3D coordinates assigned)
CCOc1ccc(S(=O)(=O)N2CCN(C(=O)Cc3ccc(-c4ccncc4)cc3)CC2)cc1OCC (nonaromatic ring conformer: 75.7845444679431 kcal/mol)

>  <smiles>  (51) 
CCOc1ccc(S(=O)(=O)N2CCN(C(=O)Cc3ccc(-c4ccncc4)cc3)CC2)cc1OCC

>  <score_type>  (51) 
oracle

>  <origin>  (51) 
adg

>  <m_score__min__energy>  (51) 
-8.9499999999999993

>  <m_primary>  (51) 
energy

$$$$
51:0
     RDKit          3D

 60 63  0  0  0  0  0  0  0  0999 V2000
   59.7520   29.8050   47.6050 O   0  0  0  0  0  0  0  0  0  0  0  0
   59.8020   30.5610   46.5970 C   0  0  0  0  0  0  0  0  0  0  0  0
   60.6130   31.7450   46.6180 N   0  0  0  0  0  0  0  0  0  0  0  0
   61.7240   32.0140   47.4800 C   0  0  0  0  0  0  0  0  0  0  0  0
   61.7290   31.4480   48.7610 C   0  0  0  0  0  0  0  0  0  0  0  0
   62.7920   31.6870   49.6360 C   0  0  0  0  0  0  0  0  0  0  0  0
   63.8560   32.5100   49.2460 C   0  0  0  0  0  0  0  0  0  0  0  0
   65.1930   32.8010   50.3540 S   0  0  0  0  0  0  0  0  0  0  0  0
   66.4910   32.7130   49.6020 O   0  0  0  0  0  0  0  0  0  0  0  0
   65.0410   34.1710   50.9550 O   0  0  0  0  0  0  0  0  0  0  0  0
   65.1700   31.6160   51.6230 N   0  0  0  0  0  0  0  0  0  0  0  0
   65.6760   30.4270   51.5130 C   0  0  0  0  0  0  0  0  0  0  0  0
   64.9620   29.3240   51.8750 N   0  0  0  0  0  0  0  0  0  0  0  0
   65.4870   28.0780   51.7520 C   0  0  0  0  0  0  0  0  0  0  0  0
   66.7770   27.9140   51.2500 C   0  0  0  0  0  0  0  0  0  0  0  0
   67.4980   29.0520   50.8880 C   0  0  0  0  0  0  0  0  0  0  0  0
   66.9370   30.2810   51.0260 N   0  0  0  0  0  0  0  0  0  0  0  0
   63.8360   33.1120   47.9810 C   0  0  0  0  0  0  0  0  0  0  0  0
   62.7750   32.8680   47.1010 C   0  0  0  0  0  0  0  0  0  0  0  0
   59.0250   30.2140   45.3840 C   0  0  0  0  0  0  0  0  0  0  0  0
   58.9780   28.9710   44.8630 C   0  0  0  0  0  0  0  0  0  0  0  0
   58.2660   27.8240   45.4630 C   0  0  0  0  0  0  0  0  0  0  0  0
   58.9670   26.7100   45.9560 C   0  0  0  0  0  0  0  0  0  0  0  0
   58.2720   25.6190   46.4870 C   0  0  0  0  0  0  0  0  0  0  0  0
   56.8760   25.6220   46.5090 C   0  0  0  0  0  0  0  0  0  0  0  0
   56.1700   26.7140   45.9930 C   0  0  0  0  0  0  0  0  0  0  0  0
   54.7800   26.7110   46.0040 O   0  0  0  0  0  0  0  0  0  0  0  0
   56.8630   27.8090   45.4640 C   0  0  0  0  0  0  0  0  0  0  0  0
   58.2460   31.2810   44.7270 C   0  0  0  0  0  0  0  0  0  0  0  0
   58.5180   31.5980   43.5400 O   0  0  0  0  0  0  0  0  0  0  0  0
   57.1770   31.9610   45.4000 N   0  0  0  0  0  0  0  0  0  0  0  0
   57.2690   33.3020   45.9810 C   0  0  0  0  0  0  0  0  0  0  0  0
   57.7650   34.2940   44.9030 C   0  0  0  0  0  0  0  0  0  0  0  0
   59.2910   34.4460   44.9240 C   0  0  0  0  0  0  0  0  0  0  0  0
   59.7870   34.9930   46.2780 C   0  0  0  0  0  0  0  0  0  0  0  0
   58.8820   34.6080   47.4670 C   0  0  0  0  0  0  0  0  0  0  0  0
   58.1810   33.2660   47.2340 C   0  0  0  0  0  0  0  0  0  0  0  0
   60.8908   30.8113   49.0804 H   0  0  0  0  0  0  0  0  0  0  0  0
   62.7931   31.2269   50.6351 H   0  0  0  0  0  0  0  0  0  0  0  0
   64.8953   27.1992   52.0480 H   0  0  0  0  0  0  0  0  0  0  0  0
   67.2160   26.9112   51.1419 H   0  0  0  0  0  0  0  0  0  0  0  0
   68.5193   28.9540   50.4914 H   0  0  0  0  0  0  0  0  0  0  0  0
   64.6569   33.7787   47.6783 H   0  0  0  0  0  0  0  0  0  0  0  0
   62.7634   33.3457   46.1102 H   0  0  0  0  0  0  0  0  0  0  0  0
   59.5117   28.7975   43.9169 H   0  0  0  0  0  0  0  0  0  0  0  0
   60.0664   26.6963   45.9240 H   0  0  0  0  0  0  0  0  0  0  0  0
   58.8258   24.7573   46.8879 H   0  0  0  0  0  0  0  0  0  0  0  0
   56.3310   24.7654   46.9322 H   0  0  0  0  0  0  0  0  0  0  0  0
   56.3056   28.6610   45.0475 H   0  0  0  0  0  0  0  0  0  0  0  0
   56.2802   33.6498   46.3146 H   0  0  0  0  0  0  0  0  0  0  0  0
   57.4579   33.9260   43.9129 H   0  0  0  0  0  0  0  0  0  0  0  0
   57.3216   35.2780   45.1155 H   0  0  0  0  0  0  0  0  0  0  0  0
   59.7505   33.4625   44.7461 H   0  0  0  0  0  0  0  0  0  0  0  0
   59.5771   35.1604   44.1380 H   0  0  0  0  0  0  0  0  0  0  0  0
   60.7955   34.5959   46.4654 H   0  0  0  0  0  0  0  0  0  0  0  0
   59.7770   36.0906   46.2064 H   0  0  0  0  0  0  0  0  0  0  0  0
   59.4983   34.5353   48.3752 H   0  0  0  0  0  0  0  0  0  0  0  0
   58.1099   35.3839   47.5757 H   0  0  0  0  0  0  0  0  0  0  0  0
   58.9436   32.4852   47.0969 H   0  0  0  0  0  0  0  0  0  0  0  0
   57.5501   33.0535   48.1097 H   0  0  0  0  0  0  0  0  0  0  0  0
  1  2  2  0
  2  3  1  0
  3  4  1  0
  4  5  2  0
  5  6  1  0
  6  7  2  0
  7  8  1  0
  8  9  2  0
  8 10  2  0
  8 11  1  0
 11 12  2  3
 12 13  1  0
 13 14  2  0
 14 15  1  0
 15 16  2  0
 16 17  1  0
  7 18  1  0
 18 19  2  0
  2 20  1  0
 20 21  2  3
 21 22  1  0
 22 23  2  0
 23 24  1  0
 24 25  2  0
 25 26  1  0
 26 27  1  0
 26 28  2  0
 20 29  1  0
 29 30  2  0
 29 31  1  0
 31 32  1  0
 32 33  1  0
 33 34  1  0
 34 35  1  0
 35 36  1  0
 36 37  1  0
 19  4  1  0
 28 22  1  0
 37 32  1  0
 17 12  1  0
  5 38  1  0
  6 39  1  0
 14 40  1  0
 15 41  1  0
 16 42  1  0
 18 43  1  0
 19 44  1  0
 21 45  1  0
 23 46  1  0
 24 47  1  0
 25 48  1  0
 28 49  1  0
 32 50  1  0
 33 51  1  0
 33 52  1  0
 34 53  1  0
 34 54  1  0
 35 55  1  0
 35 56  1  0
 36 57  1  0
 36 58  1  0
 37 59  1  0
 37 60  1  0
M  CHG  4   3  -1  17  -1  27  -1  31  -1
M  END
>  <UniqueID>  (52) 
52

>  <SMILES>  (52) 
O=C([N-]c1ccc(S(=O)(=O)N=c2nccc[n-]2)cc1)C(=Cc1cccc([O-])c1)C(=O)[N-]C1CCCCC1

>  <Energy>  (52) 
85.96012323520365

>  <Genealogy>  (52) 
O=C([N-]c1ccc(S(=O)(=O)N=c2nccc[n-]2)cc1)C(=Cc1cccc([O-])c1)C(=O)[N-]C1CCCCC1 (protonated)
O=C([N-]c1ccc(S(=O)(=O)N=c2nccc[n-]2)cc1)C(=Cc1cccc([O-])c1)C(=O)[N-]C1CCCCC1 (3D coordinates assigned)
O=C([N-]c1ccc(S(=O)(=O)N=c2nccc[n-]2)cc1)C(=Cc1cccc([O-])c1)C(=O)[N-]C1CCCCC1 (nonaromatic ring conformer: 85.96012323520365 kcal/mol)

>  <smiles>  (52) 
O=C(Nc1ccc(S(=O)(=O)N=c2nccc[nH]2)cc1)C(=Cc1cccc(O)c1)C(=O)NC1CCCCC1

>  <score_type>  (52) 
oracle

>  <origin>  (52) 
adg

>  <m_score__min__energy>  (52) 
-16.690000000000001

>  <m_primary>  (52) 
energy

$$$$
52:0
     RDKit          3D

 48 50  0  0  0  0  0  0  0  0999 V2000
   65.9790   33.0850   48.5300 H   0  0  0  0  0  0  0  0  0  0  0  0
   66.0470   33.0990   49.5730 N   0  0  0  0  0  0  0  0  0  0  0  0
   65.5310   32.1570   50.2950 C   0  0  0  0  0  0  0  0  0  0  0  0
   66.5490   31.3000   51.4940 S   0  0  0  0  0  0  0  0  0  0  0  0
   67.7000   32.0130   51.1030 H   0  0  0  0  0  0  0  0  0  0  0  0
   64.1700   31.7410   50.1040 N   0  0  0  0  0  0  0  0  0  0  0  0
   63.8960   30.8070   50.4850 H   0  0  0  0  0  0  0  0  0  0  0  0
   63.1930   32.4710   49.3420 C   0  0  0  0  0  0  0  0  0  0  0  0
   61.9590   32.8530   49.9000 C   0  0  0  0  0  0  0  0  0  0  0  0
   61.7333   32.6063   50.9480 H   0  0  0  0  0  0  0  0  0  0  0  0
   61.0180   33.5440   49.1310 C   0  0  0  0  0  0  0  0  0  0  0  0
   60.0645   33.8555   49.5825 H   0  0  0  0  0  0  0  0  0  0  0  0
   61.2840   33.8420   47.7860 C   0  0  0  0  0  0  0  0  0  0  0  0
   60.2900   34.6240   46.9700 C   0  0  0  0  0  0  0  0  0  0  0  0
   59.7435   35.3160   47.6276 H   0  0  0  0  0  0  0  0  0  0  0  0
   60.8266   35.1902   46.1945 H   0  0  0  0  0  0  0  0  0  0  0  0
   59.3130   33.6880   46.3100 C   0  0  0  0  0  0  0  0  0  0  0  0
   57.9990   34.1070   46.0480 C   0  0  0  0  0  0  0  0  0  0  0  0
   57.6912   35.1330   46.2983 H   0  0  0  0  0  0  0  0  0  0  0  0
   57.0810   33.2270   45.4710 C   0  0  0  0  0  0  0  0  0  0  0  0
   56.0503   33.5610   45.2807 H   0  0  0  0  0  0  0  0  0  0  0  0
   57.4630   31.9200   45.1320 C   0  0  0  0  0  0  0  0  0  0  0  0
   56.5420   30.9790   44.5630 N   0  0  0  0  0  0  0  0  0  0  0  0
   56.3280   29.6110   44.9390 C   0  0  0  0  0  0  0  0  0  0  0  0
   55.2850   29.0320   44.5350 O   0  0  0  0  0  0  0  0  0  0  0  0
   57.4060   28.7370   46.0860 S   0  0  0  0  0  0  0  0  0  0  0  0
   58.1840   27.6380   44.8340 C   0  0  0  0  0  0  0  0  0  0  0  0
   59.2618   27.6722   45.0511 H   0  0  0  0  0  0  0  0  0  0  0  0
   57.6540   26.2130   44.9010 C   0  0  0  0  0  0  0  0  0  0  0  0
   58.2613   25.6107   45.5927 H   0  0  0  0  0  0  0  0  0  0  0  0
   56.6179   26.1836   45.2693 H   0  0  0  0  0  0  0  0  0  0  0  0
   57.7610   25.6620   43.4830 C   0  0  0  0  0  0  0  0  0  0  0  0
   58.6228   24.9829   43.4048 H   0  0  0  0  0  0  0  0  0  0  0  0
   56.8595   25.0928   43.2121 H   0  0  0  0  0  0  0  0  0  0  0  0
   57.9510   26.8620   42.5550 C   0  0  0  0  0  0  0  0  0  0  0  0
   58.9397   26.8180   42.0748 H   0  0  0  0  0  0  0  0  0  0  0  0
   57.1942   26.8708   41.7568 H   0  0  0  0  0  0  0  0  0  0  0  0
   57.8450   28.1050   43.4270 C   0  0  0  0  0  0  0  0  0  0  0  0
   58.5592   28.8720   43.0930 H   0  0  0  0  0  0  0  0  0  0  0  0
   56.8440   28.5582   43.3753 H   0  0  0  0  0  0  0  0  0  0  0  0
   58.7620   31.4900   45.4350 C   0  0  0  0  0  0  0  0  0  0  0  0
   59.0589   30.4539   45.2153 H   0  0  0  0  0  0  0  0  0  0  0  0
   59.6830   32.3670   46.0140 C   0  0  0  0  0  0  0  0  0  0  0  0
   60.7025   32.0204   46.2388 H   0  0  0  0  0  0  0  0  0  0  0  0
   62.5080   33.4490   47.2240 C   0  0  0  0  0  0  0  0  0  0  0  0
   62.7289   33.6857   46.1727 H   0  0  0  0  0  0  0  0  0  0  0  0
   63.4480   32.7580   47.9940 C   0  0  0  0  0  0  0  0  0  0  0  0
   64.3961   32.4367   47.5380 H   0  0  0  0  0  0  0  0  0  0  0  0
  1  2  1  0
  2  3  2  0
  3  4  1  0
  4  5  1  0
  3  6  1  0
  6  7  1  0
  6  8  1  0
  8  9  2  0
  9 10  1  0
  9 11  1  0
 11 12  1  0
 11 13  2  0
 13 14  1  0
 14 15  1  0
 14 16  1  0
 14 17  1  0
 17 18  2  0
 18 19  1  0
 18 20  1  0
 20 21  1  0
 20 22  2  0
 22 23  1  0
 23 24  1  0
 24 25  2  0
 24 26  1  0
 26 27  1  0
 27 28  1  0
 27 29  1  0
 29 30  1  0
 29 31  1  0
 29 32  1  0
 32 33  1  0
 32 34  1  0
 32 35  1  0
 35 36  1  0
 35 37  1  0
 35 38  1  0
 38 39  1  0
 38 40  1  0
 22 41  1  0
 41 42  1  0
 41 43  2  0
 43 44  1  0
 13 45  1  0
 45 46  1  0
 45 47  2  0
 47 48  1  0
 47  8  1  0
 43 17  1  0
 38 27  1  0
M  CHG  1  23  -1
M  END
>  <UniqueID>  (53) 
53

>  <SMILES>  (53) 
[H]/N=C(\S)Nc1ccc(Cc2ccc([N-]C(=O)SC3CCCC3)cc2)cc1

>  <Energy>  (53) 
54.321079356934085

>  <Genealogy>  (53) 
N=C(S)Nc1ccc(Cc2ccc([N-]C(=O)SC3CCCC3)cc2)cc1 (protonated)
[H]/N=C(\S)Nc1ccc(Cc2ccc([N-]C(=O)SC3CCCC3)cc2)cc1 (cis-trans isomerization)
[H]/N=C(\S)Nc1ccc(Cc2ccc([N-]C(=O)SC3CCCC3)cc2)cc1 (3D coordinates assigned)
[H]/N=C(\S)Nc1ccc(Cc2ccc([N-]C(=O)SC3CCCC3)cc2)cc1 (nonaromatic ring conformer: 54.321079356934085 kcal/mol)

>  <smiles>  (53) 
N=C(S)Nc1ccc(Cc2ccc(NC(=O)SC3CCCC3)cc2)cc1

>  <score_type>  (53) 
oracle

>  <origin>  (53) 
adg

>  <m_score__min__energy>  (53) 
-10.48

>  <m_primary>  (53) 
energy

$$$$
53:0
     RDKit          3D

 41 43  0  0  0  0  0  0  0  0999 V2000
   60.0970   27.1080   48.1000 C   0  0  0  0  0  0  0  0  0  0  0  0
   59.5500   26.7540   46.7510 C   0  0  0  0  0  0  0  0  0  0  0  0
   60.2250   26.0160   45.9860 O   0  0  0  0  0  0  0  0  0  0  0  0
   58.2730   27.3340   46.2850 C   0  0  0  0  0  0  0  0  0  0  0  0
   57.0790   26.5740   46.4240 C   0  0  0  0  0  0  0  0  0  0  0  0
   57.0200   25.2790   47.2150 C   0  0  0  0  0  0  0  0  0  0  0  0
   56.5700   23.8590   46.1480 S   0  0  0  0  0  0  0  0  0  0  0  0
   56.3380   22.7100   47.5020 C   0  0  0  0  0  0  0  0  0  0  0  0
   57.2880   21.8170   47.8770 N   0  0  0  0  0  0  0  0  0  0  0  0
   56.7080   21.2030   48.9180 C   0  0  0  0  0  0  0  0  0  0  0  0
   57.2420   20.1990   49.7220 C   0  0  0  0  0  0  0  0  0  0  0  0
   56.4510   19.7240   50.7850 C   0  0  0  0  0  0  0  0  0  0  0  0
   55.1620   20.2600   51.0130 C   0  0  0  0  0  0  0  0  0  0  0  0
   54.6570   21.2750   50.1790 C   0  0  0  0  0  0  0  0  0  0  0  0
   55.4680   21.7200   49.1390 C   0  0  0  0  0  0  0  0  0  0  0  0
   55.2020   22.6830   48.2470 N   0  0  0  0  0  0  0  0  0  0  0  0
   55.8940   27.0710   45.8610 C   0  0  0  0  0  0  0  0  0  0  0  0
   54.7140   26.3380   45.9270 O   0  0  0  0  0  0  0  0  0  0  0  0
   55.8790   28.2770   45.2520 N   0  0  0  0  0  0  0  0  0  0  0  0
   56.9810   29.0570   45.1480 C   0  0  0  0  0  0  0  0  0  0  0  0
   56.8670   30.1830   44.5960 O   0  0  0  0  0  0  0  0  0  0  0  0
   58.2290   28.6130   45.6480 C   0  0  0  0  0  0  0  0  0  0  0  0
   59.4360   29.5600   45.5470 C   0  0  0  0  0  0  0  0  0  0  0  0
   59.7800   30.1690   46.9120 C   0  0  0  0  0  0  0  0  0  0  0  0
   60.6710   28.9540   44.8650 C   0  0  0  0  0  0  0  0  0  0  0  0
   59.4469   26.6873   48.8812 H   0  0  0  0  0  0  0  0  0  0  0  0
   61.1109   26.6943   48.2046 H   0  0  0  0  0  0  0  0  0  0  0  0
   60.1349   28.2024   48.2046 H   0  0  0  0  0  0  0  0  0  0  0  0
   58.0059   25.0897   47.6646 H   0  0  0  0  0  0  0  0  0  0  0  0
   56.2485   25.3845   47.9920 H   0  0  0  0  0  0  0  0  0  0  0  0
   58.2462   19.7917   49.5330 H   0  0  0  0  0  0  0  0  0  0  0  0
   56.8376   18.9312   51.4423 H   0  0  0  0  0  0  0  0  0  0  0  0
   54.5514   19.8817   51.8461 H   0  0  0  0  0  0  0  0  0  0  0  0
   53.6565   21.7016   50.3433 H   0  0  0  0  0  0  0  0  0  0  0  0
   59.1152   30.3682   44.8733 H   0  0  0  0  0  0  0  0  0  0  0  0
   59.4083   29.5110   47.7113 H   0  0  0  0  0  0  0  0  0  0  0  0
   60.8712   30.2747   47.0018 H   0  0  0  0  0  0  0  0  0  0  0  0
   59.3072   31.1581   47.0018 H   0  0  0  0  0  0  0  0  0  0  0  0
   61.3795   28.6064   45.6313 H   0  0  0  0  0  0  0  0  0  0  0  0
   60.3635   28.1044   44.2376 H   0  0  0  0  0  0  0  0  0  0  0  0
   61.1548   29.7171   44.2376 H   0  0  0  0  0  0  0  0  0  0  0  0
  1  2  1  0
  2  3  2  0
  2  4  1  0
  4  5  1  0
  5  6  1  0
  6  7  1  0
  7  8  1  0
  8  9  2  0
  9 10  1  0
 10 11  2  0
 11 12  1  0
 12 13  2  0
 13 14  1  0
 14 15  2  0
 15 16  1  0
  5 17  2  0
 17 18  1  0
 17 19  1  0
 19 20  1  0
 20 21  2  0
 20 22  1  0
 22 23  1  0
 23 24  1  0
 23 25  1  0
 22  4  2  0
 16  8  1  0
 15 10  1  0
  1 26  1  0
  1 27  1  0
  1 28  1  0
  6 29  1  0
  6 30  1  0
 11 31  1  0
 12 32  1  0
 13 33  1  0
 14 34  1  0
 23 35  1  0
 24 36  1  0
 24 37  1  0
 24 38  1  0
 25 39  1  0
 25 40  1  0
 25 41  1  0
M  CHG  3  16  -1  18  -1  19  -1
M  END
>  <UniqueID>  (54) 
54

>  <SMILES>  (54) 
CC(=O)c1c(CSc2nc3ccccc3[n-]2)c([O-])[n-]c(=O)c1C(C)C

>  <Energy>  (54) 
85.30349205674365

>  <Genealogy>  (54) 
CC(=O)c1c(CSc2nc3ccccc3[n-]2)c([O-])[n-]c(=O)c1C(C)C (protonated)
CC(=O)c1c(CSc2nc3ccccc3[n-]2)c([O-])[n-]c(=O)c1C(C)C (3D coordinates assigned)
CC(=O)c1c(CSc2nc3ccccc3[n-]2)c([O-])[n-]c(=O)c1C(C)C (optimized conformer: 85.30349205674365 kcal/mol)

>  <smiles>  (54) 
CC(=O)c1c(CSc2nc3ccccc3[nH]2)c(O)[nH]c(=O)c1C(C)C

>  <score_type>  (54) 
oracle

>  <origin>  (54) 
adg

>  <m_score__min__energy>  (54) 
-15.01

>  <m_primary>  (54) 
energy

$$$$
54:0
     RDKit          3D

 53 56  0  0  0  0  0  0  0  0999 V2000
   59.7150   33.8320   52.5370 C   0  0  0  0  0  0  0  0  0  0  0  0
   59.4220   33.3160   51.1560 C   0  0  0  0  0  0  0  0  0  0  0  0
   59.5710   34.1820   50.1200 N   0  0  0  0  0  0  0  0  0  0  0  0
   59.3410   33.8120   48.8390 C   0  0  0  0  0  0  0  0  0  0  0  0
   59.5040   34.7390   47.8050 C   0  0  0  0  0  0  0  0  0  0  0  0
   59.2770   34.3580   46.4810 C   0  0  0  0  0  0  0  0  0  0  0  0
   58.9000   33.0370   46.1750 C   0  0  0  0  0  0  0  0  0  0  0  0
   58.6560   32.6270   44.8180 N   0  0  0  0  0  0  0  0  0  0  0  0
   58.1720   31.3250   44.4470 C   0  0  0  0  0  0  0  0  0  0  0  0
   57.0150   31.2200   43.6610 C   0  0  0  0  0  0  0  0  0  0  0  0
   56.5160   29.9640   43.3060 C   0  0  0  0  0  0  0  0  0  0  0  0
   57.1710   28.8040   43.7270 C   0  0  0  0  0  0  0  0  0  0  0  0
   58.3310   28.8910   44.5050 C   0  0  0  0  0  0  0  0  0  0  0  0
   58.9770   27.6860   44.9320 N   0  0  0  0  0  0  0  0  0  0  0  0
   58.6980   26.9710   46.1440 C   0  0  0  0  0  0  0  0  0  0  0  0
   58.8020   27.5820   47.2400 O   0  0  0  0  0  0  0  0  0  0  0  0
   58.1490   25.5640   46.1320 C   0  0  0  0  0  0  0  0  0  0  0  0
   56.9650   25.3920   45.1700 C   0  0  0  0  0  0  0  0  0  0  0  0
   55.6500   25.5610   45.8650 C   0  0  0  0  0  0  0  0  0  0  0  0
   55.1430   26.7070   45.9970 O   0  0  0  0  0  0  0  0  0  0  0  0
   54.9740   24.4500   46.3530 O   0  0  0  0  0  0  0  0  0  0  0  0
   58.8030   30.1530   44.9060 C   0  0  0  0  0  0  0  0  0  0  0  0
   59.8210   30.2360   45.7970 F   0  0  0  0  0  0  0  0  0  0  0  0
   58.7150   32.1180   47.2180 C   0  0  0  0  0  0  0  0  0  0  0  0
   58.9420   32.4970   48.5550 C   0  0  0  0  0  0  0  0  0  0  0  0
   58.7850   31.6050   49.6280 C   0  0  0  0  0  0  0  0  0  0  0  0
   58.4420   30.4100   49.3960 O   0  0  0  0  0  0  0  0  0  0  0  0
   59.0080   32.0220   50.9210 N   0  0  0  0  0  0  0  0  0  0  0  0
   58.8490   31.0510   52.0260 C   0  0  0  0  0  0  0  0  0  0  0  0
   57.4110   30.5110   52.0520 C   0  0  0  0  0  0  0  0  0  0  0  0
   56.5920   30.8000   53.3020 C   0  0  0  0  0  0  0  0  0  0  0  0
   56.3450   31.5970   52.0330 C   0  0  0  0  0  0  0  0  0  0  0  0
   59.3160   33.1293   53.2833 H   0  0  0  0  0  0  0  0  0  0  0  0
   60.8027   33.9287   52.6692 H   0  0  0  0  0  0  0  0  0  0  0  0
   59.2407   34.8157   52.6692 H   0  0  0  0  0  0  0  0  0  0  0  0
   59.8115   35.7698   48.0349 H   0  0  0  0  0  0  0  0  0  0  0  0
   59.3935   35.0946   45.6724 H   0  0  0  0  0  0  0  0  0  0  0  0
   58.8840   33.3010   44.0510 H   0  0  0  0  0  0  0  0  0  0  0  0
   56.4983   32.1302   43.3226 H   0  0  0  0  0  0  0  0  0  0  0  0
   55.6053   29.8884   42.6936 H   0  0  0  0  0  0  0  0  0  0  0  0
   56.7731   27.8178   43.4457 H   0  0  0  0  0  0  0  0  0  0  0  0
   58.9518   24.8768   45.8267 H   0  0  0  0  0  0  0  0  0  0  0  0
   57.7845   25.3436   47.1462 H   0  0  0  0  0  0  0  0  0  0  0  0
   57.0440   26.1442   44.3712 H   0  0  0  0  0  0  0  0  0  0  0  0
   57.0048   24.3718   44.7605 H   0  0  0  0  0  0  0  0  0  0  0  0
   58.3898   31.0923   46.9897 H   0  0  0  0  0  0  0  0  0  0  0  0
   59.5488   30.2151   51.8792 H   0  0  0  0  0  0  0  0  0  0  0  0
   59.0617   31.5543   52.9807 H   0  0  0  0  0  0  0  0  0  0  0  0
   57.6307   29.5994   51.4768 H   0  0  0  0  0  0  0  0  0  0  0  0
   55.8432   30.0728   53.6490 H   0  0  0  0  0  0  0  0  0  0  0  0
   56.8295   31.0538   54.3456 H   0  0  0  0  0  0  0  0  0  0  0  0
   55.4173   31.4469   51.4613 H   0  0  0  0  0  0  0  0  0  0  0  0
   56.3296   32.6668   51.7775 H   0  0  0  0  0  0  0  0  0  0  0  0
  1  2  1  0
  2  3  2  0
  3  4  1  0
  4  5  2  0
  5  6  1  0
  6  7  2  0
  7  8  1  0
  8  9  1  0
  9 10  2  0
 10 11  1  0
 11 12  2  0
 12 13  1  0
 13 14  1  0
 14 15  1  0
 15 16  2  0
 15 17  1  0
 17 18  1  0
 18 19  1  0
 19 20  2  0
 19 21  1  0
 13 22  2  0
 22 23  1  0
  7 24  1  0
 24 25  2  0
 25 26  1  0
 26 27  2  0
 26 28  1  0
 28 29  1  0
 29 30  1  0
 30 31  1  0
 31 32  1  0
 28  2  1  0
 32 30  1  0
 25  4  1  0
 22  9  1  0
  1 33  1  0
  1 34  1  0
  1 35  1  0
  5 36  1  0
  6 37  1  0
  8 38  1  0
 10 39  1  0
 11 40  1  0
 12 41  1  0
 17 42  1  0
 17 43  1  0
 18 44  1  0
 18 45  1  0
 24 46  1  0
 29 47  1  0
 29 48  1  0
 30 49  1  0
 31 50  1  0
 31 51  1  0
 32 52  1  0
 32 53  1  0
M  CHG  2  14  -1  21  -1
M  END
>  <UniqueID>  (55) 
55

>  <SMILES>  (55) 
Cc1nc2ccc(Nc3cccc([N-]C(=O)CCC(=O)[O-])c3F)cc2c(=O)n1CC1CC1

>  <Energy>  (55) 
335.7220887841723

>  <Genealogy>  (55) 
Cc1nc2ccc(Nc3cccc([N-]C(=O)CCC(=O)[O-])c3F)cc2c(=O)n1CC1CC1 (protonated)
Cc1nc2ccc(Nc3cccc([N-]C(=O)CCC(=O)[O-])c3F)cc2c(=O)n1CC1CC1 (3D coordinates assigned)
Cc1nc2ccc(Nc3cccc([N-]C(=O)CCC(=O)[O-])c3F)cc2c(=O)n1CC1CC1 (nonaromatic ring conformer: 335.7220887841723 kcal/mol)

>  <smiles>  (55) 
Cc1nc2ccc(Nc3cccc(NC(=O)CCC(=O)O)c3F)cc2c(=O)n1CC1CC1

>  <score_type>  (55) 
oracle

>  <origin>  (55) 
adg

>  <m_score__min__energy>  (55) 
-13.550000000000001

>  <m_primary>  (55) 
energy

$$$$
55:0
     RDKit          3D

 37 38  0  0  0  0  0  0  0  0999 V2000
   58.9100   35.8010   48.7820 H   0  0  0  0  0  0  0  0  0  0  0  0
   59.3090   34.9240   48.4660 O   0  0  0  0  0  0  0  0  0  0  0  0
   58.9840   34.3840   47.2230 C   0  0  0  0  0  0  0  0  0  0  0  0
   59.6360   34.8160   46.0600 C   0  0  0  0  0  0  0  0  0  0  0  0
   60.4167   35.5884   46.1230 H   0  0  0  0  0  0  0  0  0  0  0  0
   59.2960   34.2670   44.8200 C   0  0  0  0  0  0  0  0  0  0  0  0
   59.8117   34.6061   43.9095 H   0  0  0  0  0  0  0  0  0  0  0  0
   58.3000   33.2860   44.7350 C   0  0  0  0  0  0  0  0  0  0  0  0
   57.8580   32.5880   43.1430 S   0  0  0  0  0  0  0  0  0  0  0  0
   58.0530   30.8970   43.7250 C   0  0  0  0  0  0  0  0  0  0  0  0
   58.9879   30.6304   44.2396 H   0  0  0  0  0  0  0  0  0  0  0  0
   57.1270   29.9460   43.5680 C   0  0  0  0  0  0  0  0  0  0  0  0
   56.9208   29.5901   42.5478 H   0  0  0  0  0  0  0  0  0  0  0  0
   56.3630   29.3430   44.6800 C   0  0  0  0  0  0  0  0  0  0  0  0
   55.1660   29.6780   44.8810 O   0  0  0  0  0  0  0  0  0  0  0  0
   56.9650   28.3810   45.5510 N   0  0  0  0  0  0  0  0  0  0  0  0
   58.2910   27.8080   45.3430 C   0  0  0  0  0  0  0  0  0  0  0  0
   58.1918   26.8351   44.8395 H   0  0  0  0  0  0  0  0  0  0  0  0
   58.8852   28.4932   44.7206 H   0  0  0  0  0  0  0  0  0  0  0  0
   58.9960   27.6130   46.6840 C   0  0  0  0  0  0  0  0  0  0  0  0
   58.2659   27.2557   47.4251 H   0  0  0  0  0  0  0  0  0  0  0  0
   59.8031   26.8776   46.5508 H   0  0  0  0  0  0  0  0  0  0  0  0
   59.6010   28.9050   47.1720 C   0  0  0  0  0  0  0  0  0  0  0  0
   59.8020   29.1240   48.5440 C   0  0  0  0  0  0  0  0  0  0  0  0
   59.4908   28.3600   49.2717 H   0  0  0  0  0  0  0  0  0  0  0  0
   60.3960   30.3090   48.9900 C   0  0  0  0  0  0  0  0  0  0  0  0
   60.5472   30.4767   50.0666 H   0  0  0  0  0  0  0  0  0  0  0  0
   60.7980   31.2810   48.0680 C   0  0  0  0  0  0  0  0  0  0  0  0
   61.2572   32.2166   48.4198 H   0  0  0  0  0  0  0  0  0  0  0  0
   60.6160   31.0630   46.7000 C   0  0  0  0  0  0  0  0  0  0  0  0
   60.9399   31.8244   45.9752 H   0  0  0  0  0  0  0  0  0  0  0  0
   60.0230   29.8790   46.2500 C   0  0  0  0  0  0  0  0  0  0  0  0
   59.8864   29.7093   45.1718 H   0  0  0  0  0  0  0  0  0  0  0  0
   57.6540   32.8480   45.8990 C   0  0  0  0  0  0  0  0  0  0  0  0
   56.8768   32.0720   45.8370 H   0  0  0  0  0  0  0  0  0  0  0  0
   57.9960   33.3960   47.1390 C   0  0  0  0  0  0  0  0  0  0  0  0
   57.4874   33.0498   48.0509 H   0  0  0  0  0  0  0  0  0  0  0  0
  1  2  1  0
  2  3  1  0
  3  4  2  0
  4  5  1  0
  4  6  1  0
  6  7  1  0
  6  8  2  0
  8  9  1  0
  9 10  1  0
 10 11  1  0
 10 12  2  0
 12 13  1  0
 12 14  1  0
 14 15  2  0
 14 16  1  0
 16 17  1  0
 17 18  1  0
 17 19  1  0
 17 20  1  0
 20 21  1  0
 20 22  1  0
 20 23  1  0
 23 24  2  0
 24 25  1  0
 24 26  1  0
 26 27  1  0
 26 28  2  0
 28 29  1  0
 28 30  1  0
 30 31  1  0
 30 32  2  0
 32 33  1  0
  8 34  1  0
 34 35  1  0
 34 36  2  0
 36 37  1  0
 36  3  1  0
 32 23  1  0
M  CHG  1  16  -1
M  END
>  <UniqueID>  (56) 
56

>  <SMILES>  (56) 
O=C(/C=C\Sc1ccc(O)cc1)[N-]CCc1ccccc1

>  <Energy>  (56) 
28.986416856679707

>  <Genealogy>  (56) 
O=C(C=CSc1ccc(O)cc1)[N-]CCc1ccccc1 (protonated)
O=C(/C=C\Sc1ccc(O)cc1)[N-]CCc1ccccc1 (cis-trans isomerization)
O=C(/C=C\Sc1ccc(O)cc1)[N-]CCc1ccccc1 (3D coordinates assigned)
O=C(/C=C\Sc1ccc(O)cc1)[N-]CCc1ccccc1 (optimized conformer: 28.986416856679707 kcal/mol)

>  <smiles>  (56) 
O=C(C=CSc1ccc(O)cc1)NCCc1ccccc1

>  <score_type>  (56) 
oracle

>  <origin>  (56) 
adg

>  <m_score__min__energy>  (56) 
-9.5899999999999999

>  <m_primary>  (56) 
energy

$$$$
56:0
     RDKit          3D

 51 53  0  0  0  0  0  0  0  0999 V2000
   60.4180   33.8170   51.0690 C   0  0  0  0  0  0  0  0  0  0  0  0
   60.3370   33.7980   49.5730 C   0  0  0  0  0  0  0  0  0  0  0  0
   59.2850   34.2240   49.0250 O   0  0  0  0  0  0  0  0  0  0  0  0
   61.4770   33.3330   48.7390 C   0  0  0  0  0  0  0  0  0  0  0  0
   62.0560   34.2010   47.7940 C   0  0  0  0  0  0  0  0  0  0  0  0
   63.1130   33.7760   46.9900 C   0  0  0  0  0  0  0  0  0  0  0  0
   63.6130   32.4810   47.1170 C   0  0  0  0  0  0  0  0  0  0  0  0
   63.0580   31.6070   48.0520 C   0  0  0  0  0  0  0  0  0  0  0  0
   61.9880   32.0180   48.8710 C   0  0  0  0  0  0  0  0  0  0  0  0
   61.4250   31.1510   49.8290 O   0  0  0  0  0  0  0  0  0  0  0  0
   60.8930   29.8520   49.5590 C   0  0  0  0  0  0  0  0  0  0  0  0
   59.5980   29.9600   48.8140 C   0  0  0  0  0  0  0  0  0  0  0  0
   58.8810   28.9360   48.6530 O   0  0  0  0  0  0  0  0  0  0  0  0
   59.1550   31.2340   48.3340 N   0  0  0  0  0  0  0  0  0  0  0  0
   58.7380   31.4810   46.9790 C   0  0  0  0  0  0  0  0  0  0  0  0
   58.9120   32.7360   46.3630 C   0  0  0  0  0  0  0  0  0  0  0  0
   58.4350   32.9590   45.0700 C   0  0  0  0  0  0  0  0  0  0  0  0
   57.7670   31.9440   44.3830 C   0  0  0  0  0  0  0  0  0  0  0  0
   57.5720   30.6950   44.9860 C   0  0  0  0  0  0  0  0  0  0  0  0
   56.6760   29.4300   44.1440 S   0  0  0  0  0  0  0  0  0  0  0  0
   56.6070   29.7610   42.6790 O   0  0  0  0  0  0  0  0  0  0  0  0
   55.2720   29.3780   44.6780 O   0  0  0  0  0  0  0  0  0  0  0  0
   57.4310   27.8670   44.3490 N   0  0  0  0  0  0  0  0  0  0  0  0
   57.0910   27.3010   45.6660 C   0  0  0  0  0  0  0  0  0  0  0  0
   58.0950   26.2050   46.0590 C   0  0  0  0  0  0  0  0  0  0  0  0
   59.4420   26.6570   46.1500 O   0  0  0  0  0  0  0  0  0  0  0  0
   59.7020   27.8400   45.4060 C   0  0  0  0  0  0  0  0  0  0  0  0
   58.8880   27.9250   44.1010 C   0  0  0  0  0  0  0  0  0  0  0  0
   58.0710   30.4660   46.2760 C   0  0  0  0  0  0  0  0  0  0  0  0
   59.4297   33.5852   51.4927 H   0  0  0  0  0  0  0  0  0  0  0  0
   61.1470   33.0655   51.4063 H   0  0  0  0  0  0  0  0  0  0  0  0
   60.7368   34.8143   51.4063 H   0  0  0  0  0  0  0  0  0  0  0  0
   61.6703   35.2258   47.6887 H   0  0  0  0  0  0  0  0  0  0  0  0
   63.5534   34.4644   46.2537 H   0  0  0  0  0  0  0  0  0  0  0  0
   64.4455   32.1481   46.4797 H   0  0  0  0  0  0  0  0  0  0  0  0
   63.4595   30.5877   48.1506 H   0  0  0  0  0  0  0  0  0  0  0  0
   61.6137   29.2847   48.9518 H   0  0  0  0  0  0  0  0  0  0  0  0
   60.7124   29.3361   50.5136 H   0  0  0  0  0  0  0  0  0  0  0  0
   59.3040   32.0550   48.9630 H   0  0  0  0  0  0  0  0  0  0  0  0
   59.4263   33.5443   46.9035 H   0  0  0  0  0  0  0  0  0  0  0  0
   58.5861   33.9377   44.5911 H   0  0  0  0  0  0  0  0  0  0  0  0
   57.3925   32.1257   43.3648 H   0  0  0  0  0  0  0  0  0  0  0  0
   57.1153   28.1010   46.4206 H   0  0  0  0  0  0  0  0  0  0  0  0
   56.0853   26.8585   45.6131 H   0  0  0  0  0  0  0  0  0  0  0  0
   57.7993   25.8005   47.0383 H   0  0  0  0  0  0  0  0  0  0  0  0
   58.0673   25.4482   45.2612 H   0  0  0  0  0  0  0  0  0  0  0  0
   59.4516   28.7092   46.0319 H   0  0  0  0  0  0  0  0  0  0  0  0
   60.7662   27.8251   45.1281 H   0  0  0  0  0  0  0  0  0  0  0  0
   59.1244   28.8736   43.5967 H   0  0  0  0  0  0  0  0  0  0  0  0
   59.1597   27.0618   43.4756 H   0  0  0  0  0  0  0  0  0  0  0  0
   57.9381   29.4788   46.7427 H   0  0  0  0  0  0  0  0  0  0  0  0
  1  2  1  0
  2  3  2  0
  2  4  1  0
  4  5  2  0
  5  6  1  0
  6  7  2  0
  7  8  1  0
  8  9  2  0
  9 10  1  0
 10 11  1  0
 11 12  1  0
 12 13  2  0
 12 14  1  0
 14 15  1  0
 15 16  2  0
 16 17  1  0
 17 18  2  0
 18 19  1  0
 19 20  1  0
 20 21  2  0
 20 22  2  0
 20 23  1  0
 23 24  1  0
 24 25  1  0
 25 26  1  0
 26 27  1  0
 27 28  1  0
 19 29  2  0
  9  4  1  0
 29 15  1  0
 28 23  1  0
  1 30  1  0
  1 31  1  0
  1 32  1  0
  5 33  1  0
  6 34  1  0
  7 35  1  0
  8 36  1  0
 11 37  1  0
 11 38  1  0
 14 39  1  0
 16 40  1  0
 17 41  1  0
 18 42  1  0
 24 43  1  0
 24 44  1  0
 25 45  1  0
 25 46  1  0
 27 47  1  0
 27 48  1  0
 28 49  1  0
 28 50  1  0
 29 51  1  0
M  END
>  <UniqueID>  (57) 
57

>  <SMILES>  (57) 
CC(=O)c1ccccc1OCC(=O)Nc1cccc(S(=O)(=O)N2CCOCC2)c1

>  <Energy>  (57) 
66.47502973900829

>  <Genealogy>  (57) 
CC(=O)c1ccccc1OCC(=O)Nc1cccc(S(=O)(=O)N2CCOCC2)c1 (3D coordinates assigned)
CC(=O)c1ccccc1OCC(=O)Nc1cccc(S(=O)(=O)N2CCOCC2)c1 (nonaromatic ring conformer: 66.47502973900829 kcal/mol)

>  <smiles>  (57) 
CC(=O)c1ccccc1OCC(=O)Nc1cccc(S(=O)(=O)N2CCOCC2)c1

>  <score_type>  (57) 
oracle

>  <origin>  (57) 
adg

>  <m_score__min__energy>  (57) 
-9.9100000000000001

>  <m_primary>  (57) 
energy

$$$$
57:0
     RDKit          3D

 79 83  0  0  0  0  0  0  0  0999 V2000
   55.4260   19.3470   49.4870 C   0  0  0  0  0  0  0  0  0  0  0  0
   55.2770   20.6390   48.7960 N   0  0  0  0  0  0  0  0  0  0  0  0
   54.4170   21.5410   49.5870 C   0  0  0  0  0  0  0  0  0  0  0  0
   54.1570   22.8580   48.8230 C   0  0  0  0  0  0  0  0  0  0  0  0
   55.3360   23.3460   48.0610 N   0  0  0  0  0  0  0  0  0  0  0  0
   55.1870   23.1920   46.5990 C   0  0  0  0  0  0  0  0  0  0  0  0
   56.0100   24.2330   45.8860 C   0  0  0  0  0  0  0  0  0  0  0  0
   56.6540   23.9100   44.6830 C   0  0  0  0  0  0  0  0  0  0  0  0
   57.4300   24.8640   44.0170 C   0  0  0  0  0  0  0  0  0  0  0  0
   57.5760   26.1600   44.5460 C   0  0  0  0  0  0  0  0  0  0  0  0
   58.3760   27.1760   43.8220 C   0  0  0  0  0  0  0  0  0  0  0  0
   58.0910   27.4630   42.6270 O   0  0  0  0  0  0  0  0  0  0  0  0
   59.5010   27.8000   44.4570 N   0  0  0  0  0  0  0  0  0  0  0  0
   59.6860   27.9730   45.8700 C   0  0  0  0  0  0  0  0  0  0  0  0
   60.3780   27.0260   46.6490 C   0  0  0  0  0  0  0  0  0  0  0  0
   60.5520   27.2320   48.0190 C   0  0  0  0  0  0  0  0  0  0  0  0
   60.0580   28.3890   48.6220 C   0  0  0  0  0  0  0  0  0  0  0  0
   59.3920   29.3570   47.8550 C   0  0  0  0  0  0  0  0  0  0  0  0
   58.8900   30.6250   48.4970 C   0  0  0  0  0  0  0  0  0  0  0  0
   60.0180   31.4180   49.0350 N   0  0  0  0  0  0  0  0  0  0  0  0
   61.1790   31.4180   48.1220 C   0  0  0  0  0  0  0  0  0  0  0  0
   60.9030   32.2020   46.8180 C   0  0  0  0  0  0  0  0  0  0  0  0
   59.7790   33.1560   46.9650 N   0  0  0  0  0  0  0  0  0  0  0  0
   59.7480   34.1450   45.8660 C   0  0  0  0  0  0  0  0  0  0  0  0
   58.3430   34.2410   45.2580 C   0  0  0  0  0  0  0  0  0  0  0  0
   57.9460   32.9410   44.6070 C   0  0  0  0  0  0  0  0  0  0  0  0
   58.0540   32.7800   43.2160 C   0  0  0  0  0  0  0  0  0  0  0  0
   57.6660   31.5770   42.6150 C   0  0  0  0  0  0  0  0  0  0  0  0
   57.1600   30.5330   43.3940 C   0  0  0  0  0  0  0  0  0  0  0  0
   57.0310   30.6950   44.7780 C   0  0  0  0  0  0  0  0  0  0  0  0
   57.4200   31.8940   45.3830 C   0  0  0  0  0  0  0  0  0  0  0  0
   59.8430   33.8260   48.2740 C   0  0  0  0  0  0  0  0  0  0  0  0
   59.6300   32.8010   49.4090 C   0  0  0  0  0  0  0  0  0  0  0  0
   59.2180   29.1460   46.4770 C   0  0  0  0  0  0  0  0  0  0  0  0
   56.9370   26.4760   45.7580 C   0  0  0  0  0  0  0  0  0  0  0  0
   56.1620   25.5190   46.4240 C   0  0  0  0  0  0  0  0  0  0  0  0
   56.6060   22.7810   48.5560 C   0  0  0  0  0  0  0  0  0  0  0  0
   56.6110   21.2370   48.5150 C   0  0  0  0  0  0  0  0  0  0  0  0
   55.4073   19.5087   50.5749 H   0  0  0  0  0  0  0  0  0  0  0  0
   54.5987   18.6807   49.2011 H   0  0  0  0  0  0  0  0  0  0  0  0
   56.3832   18.8865   49.2011 H   0  0  0  0  0  0  0  0  0  0  0  0
   54.7950   20.4430   47.8850 H   0  0  0  0  0  0  0  0  0  0  0  0
   53.4565   21.0426   49.7845 H   0  0  0  0  0  0  0  0  0  0  0  0
   54.9271   21.7760   50.5328 H   0  0  0  0  0  0  0  0  0  0  0  0
   53.3302   22.6929   48.1165 H   0  0  0  0  0  0  0  0  0  0  0  0
   53.9181   23.6252   49.5742 H   0  0  0  0  0  0  0  0  0  0  0  0
   55.5294   22.1899   46.3013 H   0  0  0  0  0  0  0  0  0  0  0  0
   54.1286   23.3198   46.3279 H   0  0  0  0  0  0  0  0  0  0  0  0
   56.5482   22.8999   44.2605 H   0  0  0  0  0  0  0  0  0  0  0  0
   57.9296   24.5997   43.0733 H   0  0  0  0  0  0  0  0  0  0  0  0
   60.7835   26.1195   46.1760 H   0  0  0  0  0  0  0  0  0  0  0  0
   61.0798   26.4803   48.6242 H   0  0  0  0  0  0  0  0  0  0  0  0
   60.1911   28.5430   49.7030 H   0  0  0  0  0  0  0  0  0  0  0  0
   58.3536   31.2230   47.7455 H   0  0  0  0  0  0  0  0  0  0  0  0
   58.2155   30.3606   49.3248 H   0  0  0  0  0  0  0  0  0  0  0  0
   62.0340   31.8797   48.6376 H   0  0  0  0  0  0  0  0  0  0  0  0
   61.3900   30.3739   47.8475 H   0  0  0  0  0  0  0  0  0  0  0  0
   61.8090   32.7619   46.5429 H   0  0  0  0  0  0  0  0  0  0  0  0
   60.6291   31.4753   46.0390 H   0  0  0  0  0  0  0  0  0  0  0  0
   60.0386   35.1303   46.2594 H   0  0  0  0  0  0  0  0  0  0  0  0
   60.4496   33.8230   45.0824 H   0  0  0  0  0  0  0  0  0  0  0  0
   57.6222   34.4795   46.0539 H   0  0  0  0  0  0  0  0  0  0  0  0
   58.3461   35.0300   44.4916 H   0  0  0  0  0  0  0  0  0  0  0  0
   58.4445   33.6014   42.5973 H   0  0  0  0  0  0  0  0  0  0  0  0
   57.7597   31.4529   41.5260 H   0  0  0  0  0  0  0  0  0  0  0  0
   56.8636   29.5856   42.9202 H   0  0  0  0  0  0  0  0  0  0  0  0
   56.6229   29.8778   45.3909 H   0  0  0  0  0  0  0  0  0  0  0  0
   57.3139   32.0183   46.4708 H   0  0  0  0  0  0  0  0  0  0  0  0
   60.8290   34.2992   48.3921 H   0  0  0  0  0  0  0  0  0  0  0  0
   59.0518   34.5884   48.3259 H   0  0  0  0  0  0  0  0  0  0  0  0
   60.2330   33.1100   50.2755 H   0  0  0  0  0  0  0  0  0  0  0  0
   58.5536   32.7862   49.6354 H   0  0  0  0  0  0  0  0  0  0  0  0
   58.7096   29.9087   45.8689 H   0  0  0  0  0  0  0  0  0  0  0  0
   57.0469   27.4832   46.1863 H   0  0  0  0  0  0  0  0  0  0  0  0
   55.6702   25.7770   47.3735 H   0  0  0  0  0  0  0  0  0  0  0  0
   57.4287   23.1550   47.9289 H   0  0  0  0  0  0  0  0  0  0  0  0
   56.7291   23.0921   49.6039 H   0  0  0  0  0  0  0  0  0  0  0  0
   56.9349   20.9148   47.5144 H   0  0  0  0  0  0  0  0  0  0  0  0
   57.2969   20.8911   49.3023 H   0  0  0  0  0  0  0  0  0  0  0  0
  1  2  1  0
  2  3  1  0
  3  4  1  0
  4  5  1  0
  5  6  1  0
  6  7  1  0
  7  8  2  0
  8  9  1  0
  9 10  2  0
 10 11  1  0
 11 12  2  0
 11 13  1  0
 13 14  1  0
 14 15  2  0
 15 16  1  0
 16 17  2  0
 17 18  1  0
 18 19  1  0
 19 20  1  0
 20 21  1  0
 21 22  1  0
 22 23  1  0
 23 24  1  0
 24 25  1  0
 25 26  1  0
 26 27  2  0
 27 28  1  0
 28 29  2  0
 29 30  1  0
 30 31  2  0
 23 32  1  0
 32 33  1  0
 18 34  2  0
 10 35  1  0
 35 36  2  0
  5 37  1  0
 37 38  1  0
 38  2  1  0
 36  7  1  0
 34 14  1  0
 33 20  1  0
 31 26  1  0
  1 39  1  0
  1 40  1  0
  1 41  1  0
  2 42  1  0
  3 43  1  0
  3 44  1  0
  4 45  1  0
  4 46  1  0
  6 47  1  0
  6 48  1  0
  8 49  1  0
  9 50  1  0
 15 51  1  0
 16 52  1  0
 17 53  1  0
 19 54  1  0
 19 55  1  0
 21 56  1  0
 21 57  1  0
 22 58  1  0
 22 59  1  0
 24 60  1  0
 24 61  1  0
 25 62  1  0
 25 63  1  0
 27 64  1  0
 28 65  1  0
 29 66  1  0
 30 67  1  0
 31 68  1  0
 32 69  1  0
 32 70  1  0
 33 71  1  0
 33 72  1  0
 34 73  1  0
 35 74  1  0
 36 75  1  0
 37 76  1  0
 37 77  1  0
 38 78  1  0
 38 79  1  0
M  CHG  2   2   1  13  -1
M  END
>  <UniqueID>  (58) 
58

>  <SMILES>  (58) 
C[NH+]1CCN(Cc2ccc(C(=O)[N-]c3cccc(CN4CCN(CCc5ccccc5)CC4)c3)cc2)CC1

>  <Energy>  (58) 
108.92916708653738

>  <Genealogy>  (58) 
C[NH+]1CCN(Cc2ccc(C(=O)[N-]c3cccc(CN4CCN(CCc5ccccc5)CC4)c3)cc2)CC1 (protonated)
C[NH+]1CCN(Cc2ccc(C(=O)[N-]c3cccc(CN4CCN(CCc5ccccc5)CC4)c3)cc2)CC1 (3D coordinates assigned)
C[NH+]1CCN(Cc2ccc(C(=O)[N-]c3cccc(CN4CCN(CCc5ccccc5)CC4)c3)cc2)CC1 (nonaromatic ring conformer: 108.92916708653738 kcal/mol)

>  <smiles>  (58) 
CN1CCN(Cc2ccc(C(=O)Nc3cccc(CN4CCN(CCc5ccccc5)CC4)c3)cc2)CC1

>  <score_type>  (58) 
oracle

>  <origin>  (58) 
adg

>  <m_score__min__energy>  (58) 
-9.2799999999999994

>  <m_primary>  (58) 
energy

$$$$
58:0
     RDKit          3D

 51 54  0  0  0  0  0  0  0  0999 V2000
   59.9850   34.5740   49.3580 C   0  0  0  0  0  0  0  0  0  0  0  0
   59.8920   34.7660   47.9510 O   0  0  0  0  0  0  0  0  0  0  0  0
   59.5060   33.7730   47.0360 C   0  0  0  0  0  0  0  0  0  0  0  0
   58.4580   33.9690   46.1200 C   0  0  0  0  0  0  0  0  0  0  0  0
   58.1000   32.9590   45.2260 C   0  0  0  0  0  0  0  0  0  0  0  0
   58.7760   31.7240   45.2350 C   0  0  0  0  0  0  0  0  0  0  0  0
   58.4330   30.6160   44.2500 C   0  0  2  0  0  0  0  0  0  0  0  0
   57.0960   30.8950   43.5410 C   0  0  0  0  0  0  0  0  0  0  0  0
   55.9110   30.5020   44.4200 C   0  0  0  0  0  0  0  0  0  0  0  0
   55.9390   29.0040   44.7290 C   0  0  0  0  0  0  0  0  0  0  0  0
   57.3030   28.4950   45.1610 C   0  0  0  0  0  0  0  0  0  0  0  0
   57.4600   27.2320   45.7940 C   0  0  0  0  0  0  0  0  0  0  0  0
   56.3360   26.3020   46.0590 C   0  0  0  0  0  0  0  0  0  0  0  0
   55.1430   26.7050   46.0010 O   0  0  0  0  0  0  0  0  0  0  0  0
   56.6120   24.9270   46.3740 N   0  0  0  0  0  0  0  0  0  0  0  0
   55.6240   23.8830   46.3630 C   0  0  0  0  0  0  0  0  0  0  0  0
   55.5190   22.9520   47.4100 C   0  0  0  0  0  0  0  0  0  0  0  0
   54.5280   21.9700   47.3750 C   0  0  0  0  0  0  0  0  0  0  0  0
   53.6390   21.9320   46.2990 C   0  0  0  0  0  0  0  0  0  0  0  0
   53.7370   22.8530   45.3030 N   0  0  0  0  0  0  0  0  0  0  0  0
   54.6930   23.8200   45.3160 C   0  0  0  0  0  0  0  0  0  0  0  0
   58.7030   26.8300   46.1690 N   0  0  0  0  0  0  0  0  0  0  0  0
   59.8020   27.5840   45.9310 C   0  0  0  0  0  0  0  0  0  0  0  0
   59.6830   28.7740   45.2990 N   0  0  0  0  0  0  0  0  0  0  0  0
   58.4740   29.2480   44.8990 C   0  0  0  0  0  0  0  0  0  0  0  0
   59.8320   31.5360   46.1410 C   0  0  0  0  0  0  0  0  0  0  0  0
   60.1980   32.5530   47.0450 C   0  0  0  0  0  0  0  0  0  0  0  0
   61.2460   32.3890   47.9670 O   0  0  0  0  0  0  0  0  0  0  0  0
   62.6270   32.5390   47.6560 C   0  0  0  0  0  0  0  0  0  0  0  0
   59.5620   35.4473   49.8760 H   0  0  0  0  0  0  0  0  0  0  0  0
   59.4242   33.6716   49.6428 H   0  0  0  0  0  0  0  0  0  0  0  0
   61.0408   34.4547   49.6428 H   0  0  0  0  0  0  0  0  0  0  0  0
   57.9158   34.9260   46.1077 H   0  0  0  0  0  0  0  0  0  0  0  0
   57.2834   33.1291   44.5088 H   0  0  0  0  0  0  0  0  0  0  0  0
   59.2116   30.6081   43.4730 H   0  0  0  0  0  0  0  0  0  0  0  0
   57.0302   31.9683   43.3092 H   0  0  0  0  0  0  0  0  0  0  0  0
   57.0593   30.2956   42.6194 H   0  0  0  0  0  0  0  0  0  0  0  0
   55.9586   31.0660   45.3632 H   0  0  0  0  0  0  0  0  0  0  0  0
   54.9799   30.7344   43.8823 H   0  0  0  0  0  0  0  0  0  0  0  0
   55.2212   28.8028   45.5378 H   0  0  0  0  0  0  0  0  0  0  0  0
   55.6802   28.4789   43.7977 H   0  0  0  0  0  0  0  0  0  0  0  0
   57.5690   24.6890   46.7250 H   0  0  0  0  0  0  0  0  0  0  0  0
   56.2184   22.9971   48.2579 H   0  0  0  0  0  0  0  0  0  0  0  0
   54.4480   21.2328   48.1875 H   0  0  0  0  0  0  0  0  0  0  0  0
   52.8593   21.1572   46.2568 H   0  0  0  0  0  0  0  0  0  0  0  0
   54.7364   24.5571   44.5006 H   0  0  0  0  0  0  0  0  0  0  0  0
   60.7924   27.2287   46.2518 H   0  0  0  0  0  0  0  0  0  0  0  0
   60.3806   30.5826   46.1451 H   0  0  0  0  0  0  0  0  0  0  0  0
   63.2080   32.6021   48.5879 H   0  0  0  0  0  0  0  0  0  0  0  0
   62.9671   31.6725   47.0699 H   0  0  0  0  0  0  0  0  0  0  0  0
   62.7731   33.4583   47.0699 H   0  0  0  0  0  0  0  0  0  0  0  0
  1  2  1  0
  2  3  1  0
  3  4  2  0
  4  5  1  0
  5  6  2  0
  6  7  1  0
  7  8  1  0
  8  9  1  0
  9 10  1  0
 10 11  1  0
 11 12  2  0
 12 13  1  0
 13 14  2  0
 13 15  1  0
 15 16  1  0
 16 17  2  0
 17 18  1  0
 18 19  2  0
 19 20  1  0
 20 21  2  0
 12 22  1  0
 22 23  2  0
 23 24  1  0
 24 25  2  0
  6 26  1  0
 26 27  2  0
 27 28  1  0
 28 29  1  0
 27  3  1  0
 25  7  1  0
 25 11  1  0
 21 16  1  0
  1 30  1  0
  1 31  1  0
  1 32  1  0
  4 33  1  0
  5 34  1  0
  7 35  1  6
  8 36  1  0
  8 37  1  0
  9 38  1  0
  9 39  1  0
 10 40  1  0
 10 41  1  0
 15 42  1  0
 17 43  1  0
 18 44  1  0
 19 45  1  0
 21 46  1  0
 23 47  1  0
 26 48  1  0
 29 49  1  0
 29 50  1  0
 29 51  1  0
M  END
>  <UniqueID>  (59) 
59

>  <SMILES>  (59) 
COc1ccc([C@@H]2CCCc3c(C(=O)Nc4cccnc4)ncnc32)cc1OC

>  <Energy>  (59) 
65.04719850022411

>  <Genealogy>  (59) 
COc1ccc([C@@H]2CCCc3c(C(=O)Nc4cccnc4)ncnc32)cc1OC (chirality)
COc1ccc([C@@H]2CCCc3c(C(=O)Nc4cccnc4)ncnc32)cc1OC (3D coordinates assigned)
COc1ccc([C@@H]2CCCc3c(C(=O)Nc4cccnc4)ncnc32)cc1OC (nonaromatic ring conformer: 65.04719850022411 kcal/mol)

>  <smiles>  (59) 
COc1ccc(C2CCCc3c(C(=O)Nc4cccnc4)ncnc32)cc1OC

>  <score_type>  (59) 
oracle

>  <origin>  (59) 
adg

>  <m_score__min__energy>  (59) 
-7.9000000000000004

>  <m_primary>  (59) 
energy

$$$$
59:0
     RDKit          3D

 50 53  0  0  0  0  0  0  0  0999 V2000
   64.4380   33.7770   50.5850 C   0  0  0  0  0  0  0  0  0  0  0  0
   63.2270   33.5390   50.0940 C   0  0  0  0  0  0  0  0  0  0  0  0
   62.2750   34.5120   49.8280 O   0  0  0  0  0  0  0  0  0  0  0  0
   61.1490   33.8640   49.3160 C   0  0  0  0  0  0  0  0  0  0  0  0
   59.9720   34.5800   48.9240 N   0  0  0  0  0  0  0  0  0  0  0  0
   59.3470   34.4530   47.6340 C   0  0  0  0  0  0  0  0  0  0  0  0
   59.9770   35.0080   46.5080 C   0  0  0  0  0  0  0  0  0  0  0  0
   59.3930   34.8960   45.2430 C   0  0  0  0  0  0  0  0  0  0  0  0
   58.1820   34.2170   45.0880 C   0  0  0  0  0  0  0  0  0  0  0  0
   57.5570   33.6430   46.1980 C   0  0  0  0  0  0  0  0  0  0  0  0
   58.1370   33.7530   47.4660 C   0  0  0  0  0  0  0  0  0  0  0  0
   61.3080   32.5320   49.2670 C   0  0  0  0  0  0  0  0  0  0  0  0
   60.3120   31.5090   48.8880 C   0  0  0  0  0  0  0  0  0  0  0  0
   59.1080   31.7110   49.2030 O   0  0  0  0  0  0  0  0  0  0  0  0
   60.6630   30.2970   48.1640 N   0  0  0  0  0  0  0  0  0  0  0  0
   61.0890   30.6140   46.7700 C   0  0  0  0  0  0  0  0  0  0  0  0
   60.5840   29.6010   45.7440 C   0  0  0  0  0  0  0  0  0  0  0  0
   59.1290   29.5020   45.8690 N   0  0  0  0  0  0  0  0  0  0  0  0
   58.2630   29.7950   44.7570 C   0  0  0  0  0  0  0  0  0  0  0  0
   57.5450   28.7680   44.1190 C   0  0  0  0  0  0  0  0  0  0  0  0
   56.7230   29.0540   43.0240 C   0  0  0  0  0  0  0  0  0  0  0  0
   56.6110   30.3660   42.5570 C   0  0  0  0  0  0  0  0  0  0  0  0
   57.3240   31.3920   43.1800 C   0  0  0  0  0  0  0  0  0  0  0  0
   58.1500   31.1100   44.2720 C   0  0  0  0  0  0  0  0  0  0  0  0
   58.5500   29.2760   47.1980 C   0  0  0  0  0  0  0  0  0  0  0  0
   59.6400   29.2210   48.2870 C   0  0  0  0  0  0  0  0  0  0  0  0
   62.6570   32.2550   49.7420 C   0  0  0  0  0  0  0  0  0  0  0  0
   63.2150   31.1280   49.8200 O   0  0  0  0  0  0  0  0  0  0  0  0
   65.1318   32.9428   50.7659 H   0  0  0  0  0  0  0  0  0  0  0  0
   64.7471   34.8083   50.8107 H   0  0  0  0  0  0  0  0  0  0  0  0
   59.6440   35.3400   49.5610 H   0  0  0  0  0  0  0  0  0  0  0  0
   60.9362   35.5342   46.6224 H   0  0  0  0  0  0  0  0  0  0  0  0
   59.8877   35.3432   44.3682 H   0  0  0  0  0  0  0  0  0  0  0  0
   57.7208   34.1343   44.0928 H   0  0  0  0  0  0  0  0  0  0  0  0
   56.6065   33.1033   46.0744 H   0  0  0  0  0  0  0  0  0  0  0  0
   57.6460   33.2909   48.3351 H   0  0  0  0  0  0  0  0  0  0  0  0
   61.5090   29.9150   48.6500 H   0  0  0  0  0  0  0  0  0  0  0  0
   60.6995   31.6073   46.5022 H   0  0  0  0  0  0  0  0  0  0  0  0
   62.1883   30.5830   46.7479 H   0  0  0  0  0  0  0  0  0  0  0  0
   60.8477   29.9364   44.7301 H   0  0  0  0  0  0  0  0  0  0  0  0
   61.0462   28.6191   45.9236 H   0  0  0  0  0  0  0  0  0  0  0  0
   57.6303   27.7335   44.4832 H   0  0  0  0  0  0  0  0  0  0  0  0
   56.1643   28.2453   42.5302 H   0  0  0  0  0  0  0  0  0  0  0  0
   55.9610   30.5906   41.6984 H   0  0  0  0  0  0  0  0  0  0  0  0
   57.2356   32.4244   42.8108 H   0  0  0  0  0  0  0  0  0  0  0  0
   58.7147   31.9213   44.7545 H   0  0  0  0  0  0  0  0  0  0  0  0
   57.8547   30.0964   47.4293 H   0  0  0  0  0  0  0  0  0  0  0  0
   58.0249   28.3095   47.1860 H   0  0  0  0  0  0  0  0  0  0  0  0
   59.1544   29.3139   49.2696 H   0  0  0  0  0  0  0  0  0  0  0  0
   60.1656   28.2620   48.1681 H   0  0  0  0  0  0  0  0  0  0  0  0
  1  2  2  0
  2  3  1  0
  3  4  1  0
  4  5  1  0
  5  6  1  0
  6  7  2  0
  7  8  1  0
  8  9  2  0
  9 10  1  0
 10 11  2  0
  4 12  2  0
 12 13  1  0
 13 14  2  0
 13 15  1  0
 15 16  1  0
 16 17  1  0
 17 18  1  0
 18 19  1  0
 19 20  2  0
 20 21  1  0
 21 22  2  0
 22 23  1  0
 23 24  2  0
 18 25  1  0
 25 26  1  0
 12 27  1  0
 27 28  2  0
 27  2  1  0
 11  6  1  0
 26 15  1  0
 24 19  1  0
  1 29  1  0
  1 30  1  0
  5 31  1  0
  7 32  1  0
  8 33  1  0
  9 34  1  0
 10 35  1  0
 11 36  1  0
 15 37  1  0
 16 38  1  0
 16 39  1  0
 17 40  1  0
 17 41  1  0
 20 42  1  0
 21 43  1  0
 22 44  1  0
 23 45  1  0
 24 46  1  0
 25 47  1  0
 25 48  1  0
 26 49  1  0
 26 50  1  0
M  CHG  1  15   1
M  END
>  <UniqueID>  (60) 
60

>  <SMILES>  (60) 
C=C1OC(Nc2ccccc2)=C(C(=O)[NH+]2CCN(c3ccccc3)CC2)C1=O

>  <Energy>  (60) 
107.00356215685784

>  <Genealogy>  (60) 
C=C1OC(Nc2ccccc2)=C(C(=O)[NH+]2CCN(c3ccccc3)CC2)C1=O (protonated)
C=C1OC(Nc2ccccc2)=C(C(=O)[NH+]2CCN(c3ccccc3)CC2)C1=O (3D coordinates assigned)
C=C1OC(Nc2ccccc2)=C(C(=O)[NH+]2CCN(c3ccccc3)CC2)C1=O (nonaromatic ring conformer: 107.00356215685784 kcal/mol)

>  <smiles>  (60) 
C=C1OC(Nc2ccccc2)=C(C(=O)N2CCN(c3ccccc3)CC2)C1=O

>  <score_type>  (60) 
oracle

>  <origin>  (60) 
adg

>  <m_score__min__energy>  (60) 
-6.9500000000000002

>  <m_primary>  (60) 
energy

$$$$
60:0
     RDKit          3D

 45 47  0  0  0  0  0  0  0  0999 V2000
   59.3760   25.2560   46.0220 C   0  0  0  0  0  0  0  0  0  0  0  0
   58.2560   25.9750   45.9270 C   0  0  0  0  0  0  0  0  0  0  0  0
   58.2500   27.2430   45.5760 O   0  0  0  0  0  0  0  0  0  0  0  0
   57.0080   27.6800   45.5620 C   0  0  0  0  0  0  0  0  0  0  0  0
   56.6190   29.0610   45.2180 C   0  0  0  0  0  0  0  0  0  0  0  0
   55.7400   29.2580   44.3390 O   0  0  0  0  0  0  0  0  0  0  0  0
   57.1670   30.1880   45.9130 N   0  0  0  0  0  0  0  0  0  0  0  0
   57.7010   31.3760   45.3050 C   0  0  0  0  0  0  0  0  0  0  0  0
   57.5590   31.5990   43.9230 C   0  0  0  0  0  0  0  0  0  0  0  0
   58.0840   32.7510   43.3350 C   0  0  0  0  0  0  0  0  0  0  0  0
   58.7370   33.7010   44.1200 C   0  0  0  0  0  0  0  0  0  0  0  0
   58.8620   33.5050   45.4970 C   0  0  0  0  0  0  0  0  0  0  0  0
   58.3470   32.3460   46.1020 C   0  0  0  0  0  0  0  0  0  0  0  0
   58.4850   32.1650   47.5640 C   0  0  0  0  0  0  0  0  0  0  0  0
   57.8400   32.9240   48.3390 O   0  0  0  0  0  0  0  0  0  0  0  0
   59.3420   31.1450   48.1160 N   0  0  0  0  0  0  0  0  0  0  0  0
   59.8130   31.2590   49.5010 C   0  0  0  0  0  0  0  0  0  0  0  0
   61.1190   30.4720   49.6790 C   0  0  0  0  0  0  0  0  0  0  0  0
   61.0270   29.0570   49.2310 N   0  0  0  0  0  0  0  0  0  0  0  0
   61.0640   28.1300   50.3720 C   0  0  0  0  0  0  0  0  0  0  0  0
   59.8670   28.7520   48.3630 C   0  0  0  0  0  0  0  0  0  0  0  0
   59.5780   29.8940   47.3840 C   0  0  0  0  0  0  0  0  0  0  0  0
   56.1620   26.6510   45.9300 C   0  0  0  0  0  0  0  0  0  0  0  0
   54.7760   26.7160   46.0340 O   0  0  0  0  0  0  0  0  0  0  0  0
   56.9520   25.5470   46.1660 C   0  0  0  0  0  0  0  0  0  0  0  0
   56.5260   24.3370   46.5390 C   0  0  0  0  0  0  0  0  0  0  0  0
   59.3269   24.1982   46.3198 H   0  0  0  0  0  0  0  0  0  0  0  0
   60.3484   25.7210   45.8025 H   0  0  0  0  0  0  0  0  0  0  0  0
   57.0308   30.8606   43.3019 H   0  0  0  0  0  0  0  0  0  0  0  0
   57.9826   32.9097   42.2512 H   0  0  0  0  0  0  0  0  0  0  0  0
   59.1541   34.6058   43.6539 H   0  0  0  0  0  0  0  0  0  0  0  0
   59.3674   34.2636   46.1127 H   0  0  0  0  0  0  0  0  0  0  0  0
   59.9908   32.3181   49.7391 H   0  0  0  0  0  0  0  0  0  0  0  0
   59.0489   30.8474   50.1768 H   0  0  0  0  0  0  0  0  0  0  0  0
   61.9077   30.9706   49.0965 H   0  0  0  0  0  0  0  0  0  0  0  0
   61.3415   30.4556   50.7561 H   0  0  0  0  0  0  0  0  0  0  0  0
   61.0411   28.7029   51.3108 H   0  0  0  0  0  0  0  0  0  0  0  0
   60.1918   27.4610   50.3294 H   0  0  0  0  0  0  0  0  0  0  0  0
   61.9867   27.5327   50.3294 H   0  0  0  0  0  0  0  0  0  0  0  0
   60.0804   27.8370   47.7909 H   0  0  0  0  0  0  0  0  0  0  0  0
   58.9837   28.6178   49.0047 H   0  0  0  0  0  0  0  0  0  0  0  0
   60.4397   30.0233   46.7127 H   0  0  0  0  0  0  0  0  0  0  0  0
   58.6794   29.6460   46.8000 H   0  0  0  0  0  0  0  0  0  0  0  0
   57.2499   23.5246   46.7001 H   0  0  0  0  0  0  0  0  0  0  0  0
   55.4514   24.1531   46.6851 H   0  0  0  0  0  0  0  0  0  0  0  0
  1  2  2  0
  2  3  1  0
  3  4  1  0
  4  5  1  0
  5  6  2  0
  5  7  1  0
  7  8  1  0
  8  9  2  0
  9 10  1  0
 10 11  2  0
 11 12  1  0
 12 13  2  0
 13 14  1  0
 14 15  2  0
 14 16  1  0
 16 17  1  0
 17 18  1  0
 18 19  1  0
 19 20  1  0
 19 21  1  0
 21 22  1  0
  4 23  2  0
 23 24  1  0
 23 25  1  0
 25 26  2  0
 25  2  1  0
 13  8  1  0
 22 16  1  0
  1 27  1  0
  1 28  1  0
  9 29  1  0
 10 30  1  0
 11 31  1  0
 12 32  1  0
 17 33  1  0
 17 34  1  0
 18 35  1  0
 18 36  1  0
 20 37  1  0
 20 38  1  0
 20 39  1  0
 21 40  1  0
 21 41  1  0
 22 42  1  0
 22 43  1  0
 26 44  1  0
 26 45  1  0
M  CHG  2   7  -1  24  -1
M  END
>  <UniqueID>  (61) 
61

>  <SMILES>  (61) 
C=c1oc(C(=O)[N-]c2ccccc2C(=O)N2CCN(C)CC2)c([O-])c1=C

>  <Energy>  (61) 
92.70163645777413

>  <Genealogy>  (61) 
C=c1oc(C(=O)[N-]c2ccccc2C(=O)N2CCN(C)CC2)c([O-])c1=C (protonated)
C=c1oc(C(=O)[N-]c2ccccc2C(=O)N2CCN(C)CC2)c([O-])c1=C (3D coordinates assigned)
C=c1oc(C(=O)[N-]c2ccccc2C(=O)N2CCN(C)CC2)c([O-])c1=C (nonaromatic ring conformer: 92.70163645777413 kcal/mol)

>  <smiles>  (61) 
C=c1oc(C(=O)Nc2ccccc2C(=O)N2CCN(C)CC2)c(O)c1=C

>  <score_type>  (61) 
oracle

>  <origin>  (61) 
adg

>  <m_score__min__energy>  (61) 
-13.470000000000001

>  <m_primary>  (61) 
energy

$$$$
61:0
     RDKit          3D

 60 62  0  0  0  0  0  0  0  0999 V2000
   60.7850   27.9940   50.8120 C   0  0  0  0  0  0  0  0  0  0  0  0
   60.9940   28.4040   49.3570 C   0  0  0  0  0  0  0  0  0  0  0  0
   60.3780   29.7160   49.0890 N   0  0  0  0  0  0  0  0  0  0  0  0
   61.2150   30.7480   48.4460 C   0  0  0  0  0  0  0  0  0  0  0  0
   60.8770   30.8870   46.9510 C   0  0  0  0  0  0  0  0  0  0  0  0
   59.4930   30.6640   46.6740 O   0  0  0  0  0  0  0  0  0  0  0  0
   59.0340   29.7560   45.7080 C   0  0  0  0  0  0  0  0  0  0  0  0
   59.7630   28.5940   45.3900 C   0  0  0  0  0  0  0  0  0  0  0  0
   59.2780   27.6860   44.4420 C   0  0  0  0  0  0  0  0  0  0  0  0
   58.0660   27.9260   43.8010 C   0  0  0  0  0  0  0  0  0  0  0  0
   57.3550   29.1030   44.0620 C   0  0  0  0  0  0  0  0  0  0  0  0
   57.8330   30.0190   45.0100 C   0  0  0  0  0  0  0  0  0  0  0  0
   57.0650   31.1590   45.2650 O   0  0  0  0  0  0  0  0  0  0  0  0
   57.3080   32.4220   44.6490 C   0  0  0  0  0  0  0  0  0  0  0  0
   58.1690   33.2400   45.5710 C   0  0  0  0  0  0  0  0  0  0  0  0
   58.0840   33.0690   46.9620 C   0  0  0  0  0  0  0  0  0  0  0  0
   58.8360   33.8790   47.8210 C   0  0  0  0  0  0  0  0  0  0  0  0
   59.6690   34.8710   47.2940 C   0  0  0  0  0  0  0  0  0  0  0  0
   59.7480   35.0570   45.9140 C   0  0  0  0  0  0  0  0  0  0  0  0
   58.9920   34.2520   45.0530 C   0  0  0  0  0  0  0  0  0  0  0  0
   58.9460   29.8600   49.3010 C   0  0  0  0  0  0  0  0  0  0  0  0
   58.1560   29.3100   48.4630 O   0  0  0  0  0  0  0  0  0  0  0  0
   58.3380   30.5540   50.4800 C   0  0  0  0  0  0  0  0  0  0  0  0
   58.5580   31.8660   50.6790 C   0  0  0  0  0  0  0  0  0  0  0  0
   58.0240   32.5320   51.8690 C   0  0  0  0  0  0  0  0  0  0  0  0
   58.1110   33.7820   51.9850 O   0  0  0  0  0  0  0  0  0  0  0  0
   57.4340   31.7170   52.9820 C   0  0  0  0  0  0  0  0  0  0  0  0
   56.7310   30.4590   52.4140 C   0  0  0  0  0  0  0  0  0  0  0  0
   56.5040   29.4360   53.5400 C   0  0  0  0  0  0  0  0  0  0  0  0
   55.3710   30.8350   51.7920 C   0  0  0  0  0  0  0  0  0  0  0  0
   57.5490   29.8450   51.4040 O   0  0  0  0  0  0  0  0  0  0  0  0
   61.1839   28.7764   51.4743 H   0  0  0  0  0  0  0  0  0  0  0  0
   59.7101   27.8629   51.0052 H   0  0  0  0  0  0  0  0  0  0  0  0
   61.3104   27.0471   51.0052 H   0  0  0  0  0  0  0  0  0  0  0  0
   62.0728   28.4632   49.1505 H   0  0  0  0  0  0  0  0  0  0  0  0
   60.5204   27.6530   48.7077 H   0  0  0  0  0  0  0  0  0  0  0  0
   61.0408   31.7130   48.9444 H   0  0  0  0  0  0  0  0  0  0  0  0
   62.2694   30.4484   48.5383 H   0  0  0  0  0  0  0  0  0  0  0  0
   61.1418   31.9032   46.6236 H   0  0  0  0  0  0  0  0  0  0  0  0
   61.4513   30.1214   46.4086 H   0  0  0  0  0  0  0  0  0  0  0  0
   60.7224   28.3982   45.8913 H   0  0  0  0  0  0  0  0  0  0  0  0
   59.8557   26.7809   44.2030 H   0  0  0  0  0  0  0  0  0  0  0  0
   57.6664   27.1896   43.0883 H   0  0  0  0  0  0  0  0  0  0  0  0
   56.4191   29.3099   43.5222 H   0  0  0  0  0  0  0  0  0  0  0  0
   57.8260   32.2744   43.6899 H   0  0  0  0  0  0  0  0  0  0  0  0
   56.3564   32.9405   44.4601 H   0  0  0  0  0  0  0  0  0  0  0  0
   57.4232   32.2947   47.3788 H   0  0  0  0  0  0  0  0  0  0  0  0
   58.7718   33.7353   48.9097 H   0  0  0  0  0  0  0  0  0  0  0  0
   60.2626   35.5054   47.9687 H   0  0  0  0  0  0  0  0  0  0  0  0
   60.4049   35.8369   45.5015 H   0  0  0  0  0  0  0  0  0  0  0  0
   59.0434   34.4135   43.9661 H   0  0  0  0  0  0  0  0  0  0  0  0
   59.1414   32.4411   49.9449 H   0  0  0  0  0  0  0  0  0  0  0  0
   58.2356   31.4059   53.6681 H   0  0  0  0  0  0  0  0  0  0  0  0
   56.6938   32.3283   53.5191 H   0  0  0  0  0  0  0  0  0  0  0  0
   56.6144   29.9333   54.5149 H   0  0  0  0  0  0  0  0  0  0  0  0
   55.4908   29.0161   53.4552 H   0  0  0  0  0  0  0  0  0  0  0  0
   57.2445   28.6270   53.4552 H   0  0  0  0  0  0  0  0  0  0  0  0
   54.6444   31.0359   52.5931 H   0  0  0  0  0  0  0  0  0  0  0  0
   55.4885   31.7343   51.1696 H   0  0  0  0  0  0  0  0  0  0  0  0
   55.0099   30.0030   51.1696 H   0  0  0  0  0  0  0  0  0  0  0  0
  1  2  1  0
  2  3  1  0
  3  4  1  0
  4  5  1  0
  5  6  1  0
  6  7  1  0
  7  8  2  0
  8  9  1  0
  9 10  2  0
 10 11  1  0
 11 12  2  0
 12 13  1  0
 13 14  1  0
 14 15  1  0
 15 16  2  0
 16 17  1  0
 17 18  2  0
 18 19  1  0
 19 20  2  0
  3 21  1  0
 21 22  2  0
 21 23  1  0
 23 24  2  0
 24 25  1  0
 25 26  2  0
 25 27  1  0
 27 28  1  0
 28 29  1  0
 28 30  1  0
 28 31  1  0
 12  7  1  0
 20 15  1  0
 31 23  1  0
  1 32  1  0
  1 33  1  0
  1 34  1  0
  2 35  1  0
  2 36  1  0
  4 37  1  0
  4 38  1  0
  5 39  1  0
  5 40  1  0
  8 41  1  0
  9 42  1  0
 10 43  1  0
 11 44  1  0
 14 45  1  0
 14 46  1  0
 16 47  1  0
 17 48  1  0
 18 49  1  0
 19 50  1  0
 20 51  1  0
 24 52  1  0
 27 53  1  0
 27 54  1  0
 29 55  1  0
 29 56  1  0
 29 57  1  0
 30 58  1  0
 30 59  1  0
 30 60  1  0
M  END
>  <UniqueID>  (62) 
62

>  <SMILES>  (62) 
CCN(CCOc1ccccc1OCc1ccccc1)C(=O)C1=CC(=O)CC(C)(C)O1

>  <Energy>  (62) 
69.52918621583129

>  <Genealogy>  (62) 
CCN(CCOc1ccccc1OCc1ccccc1)C(=O)C1=CC(=O)CC(C)(C)O1 (3D coordinates assigned)
CCN(CCOc1ccccc1OCc1ccccc1)C(=O)C1=CC(=O)CC(C)(C)O1 (nonaromatic ring conformer: 69.52918621583129 kcal/mol)

>  <smiles>  (62) 
CCN(CCOc1ccccc1OCc1ccccc1)C(=O)C1=CC(=O)CC(C)(C)O1

>  <score_type>  (62) 
oracle

>  <origin>  (62) 
adg

>  <m_score__min__energy>  (62) 
-7.9199999999999999

>  <m_primary>  (62) 
energy

$$$$
62:0
     RDKit          3D

 32 34  0  0  0  0  0  0  0  0999 V2000
   60.5860   28.2660   45.2040 C   0  0  0  0  0  0  0  0  0  0  0  0
   59.3710   28.8190   45.2230 C   0  0  0  0  0  0  0  0  0  0  0  0
   59.2030   30.1510   45.3730 N   0  0  0  0  0  0  0  0  0  0  0  0
   57.9160   30.4260   45.2330 N   0  0  0  0  0  0  0  0  0  0  0  0
   57.3880   31.7610   45.2800 C   0  0  0  0  0  0  0  0  0  0  0  0
   56.2140   31.9680   44.8710 O   0  0  0  0  0  0  0  0  0  0  0  0
   58.1960   32.9030   45.7670 C   0  0  0  0  0  0  0  0  0  0  0  0
   58.5670   32.9790   47.1210 C   0  0  0  0  0  0  0  0  0  0  0  0
   59.3120   34.0640   47.5900 C   0  0  0  0  0  0  0  0  0  0  0  0
   59.6840   35.0880   46.7160 C   0  0  0  0  0  0  0  0  0  0  0  0
   59.3060   35.0320   45.3730 C   0  0  0  0  0  0  0  0  0  0  0  0
   58.5610   33.9480   44.8990 C   0  0  0  0  0  0  0  0  0  0  0  0
   57.2520   29.2840   44.9640 C   0  0  0  0  0  0  0  0  0  0  0  0
   56.0170   29.2200   44.7160 O   0  0  0  0  0  0  0  0  0  0  0  0
   58.1280   28.2140   44.9810 C   0  0  0  0  0  0  0  0  0  0  0  0
   57.7770   26.9270   44.7880 C   0  0  0  0  0  0  0  0  0  0  0  0
   57.3420   25.9990   45.8400 C   0  0  0  0  0  0  0  0  0  0  0  0
   58.2940   24.7630   46.4740 S   0  0  0  0  0  0  0  0  0  0  0  0
   57.0270   24.1440   47.3890 C   0  0  0  0  0  0  0  0  0  0  0  0
   57.1230   23.1500   48.1520 O   0  0  0  0  0  0  0  0  0  0  0  0
   55.8750   24.8250   47.2120 N   0  0  0  0  0  0  0  0  0  0  0  0
   56.0450   25.8500   46.3330 C   0  0  0  0  0  0  0  0  0  0  0  0
   54.9900   26.6700   45.9480 O   0  0  0  0  0  0  0  0  0  0  0  0
   60.6933   27.1783   45.0804 H   0  0  0  0  0  0  0  0  0  0  0  0
   61.4797   28.8981   45.3120 H   0  0  0  0  0  0  0  0  0  0  0  0
   58.2690   32.1795   47.8152 H   0  0  0  0  0  0  0  0  0  0  0  0
   59.6059   34.1118   48.6489 H   0  0  0  0  0  0  0  0  0  0  0  0
   60.2750   35.9389   47.0858 H   0  0  0  0  0  0  0  0  0  0  0  0
   59.5948   35.8419   44.6869 H   0  0  0  0  0  0  0  0  0  0  0  0
   58.2588   33.9122   43.8419 H   0  0  0  0  0  0  0  0  0  0  0  0
   57.8198   26.5403   43.7591 H   0  0  0  0  0  0  0  0  0  0  0  0
   55.1600   27.6130   45.6220 H   0  0  0  0  0  0  0  0  0  0  0  0
  1  2  2  0
  2  3  1  0
  3  4  1  0
  4  5  1  0
  5  6  2  0
  5  7  1  0
  7  8  2  0
  8  9  1  0
  9 10  2  0
 10 11  1  0
 11 12  2  0
  4 13  1  0
 13 14  2  0
 13 15  1  0
 15 16  2  3
 16 17  1  0
 17 18  1  0
 18 19  1  0
 19 20  2  0
 19 21  1  0
 21 22  1  0
 22 23  1  0
 15  2  1  0
 22 17  2  0
 12  7  1  0
  1 24  1  0
  1 25  1  0
  8 26  1  0
  9 27  1  0
 10 28  1  0
 11 29  1  0
 12 30  1  0
 16 31  1  0
 23 32  1  0
M  CHG  2   3  -1  21  -1
M  END
>  <UniqueID>  (63) 
63

>  <SMILES>  (63) 
C=c1[n-]n(C(=O)c2ccccc2)c(=O)c1=Cc1sc(=O)[n-]c1O

>  <Energy>  (63) 
115.6322011289648

>  <Genealogy>  (63) 
C=c1[n-]n(C(=O)c2ccccc2)c(=O)c1=Cc1sc(=O)[n-]c1O (protonated)
C=c1[n-]n(C(=O)c2ccccc2)c(=O)c1=Cc1sc(=O)[n-]c1O (3D coordinates assigned)
C=c1[n-]n(C(=O)c2ccccc2)c(=O)c1=Cc1sc(=O)[n-]c1O (optimized conformer: 115.6322011289648 kcal/mol)

>  <smiles>  (63) 
C=c1[nH]n(C(=O)c2ccccc2)c(=O)c1=Cc1sc(=O)[nH]c1O

>  <score_type>  (63) 
oracle

>  <origin>  (63) 
adg

>  <m_score__min__energy>  (63) 
-13.09

>  <m_primary>  (63) 
energy

$$$$
63:0
     RDKit          3D

 41 43  0  0  0  0  0  0  0  0999 V2000
   57.8336   27.4438   45.0684 H   0  0  0  0  0  0  0  0  0  0  0  0
   57.0370   28.1940   45.1810 C   0  0  0  0  0  0  0  0  0  0  0  0
   55.9000   27.8400   45.5930 O   0  0  0  0  0  0  0  0  0  0  0  0
   57.3100   29.6060   44.8480 C   0  0  0  0  0  0  0  0  0  0  0  0
   58.0120   30.4620   45.7170 C   0  0  0  0  0  0  0  0  0  0  0  0
   58.4014   30.1399   46.6940 H   0  0  0  0  0  0  0  0  0  0  0  0
   58.1680   31.7600   45.2220 C   0  0  0  0  0  0  0  0  0  0  0  0
   58.7910   32.7870   45.8250 C   0  0  0  0  0  0  0  0  0  0  0  0
   59.4640   32.8100   47.1230 C   0  0  0  0  0  0  0  0  0  0  0  0
   59.5790   31.8520   47.9320 O   0  0  0  0  0  0  0  0  0  0  0  0
   59.9860   34.1530   47.3210 C   0  0  0  0  0  0  0  0  0  0  0  0
   60.6280   34.5860   48.4160 C   0  0  0  0  0  0  0  0  0  0  0  0
   60.1953   35.4349   48.9656 H   0  0  0  0  0  0  0  0  0  0  0  0
   61.8800   33.9940   48.9300 C   0  0  0  0  0  0  0  0  0  0  0  0
   62.8620   33.5760   48.0230 C   0  0  0  0  0  0  0  0  0  0  0  0
   62.6804   33.6682   46.9420 H   0  0  0  0  0  0  0  0  0  0  0  0
   64.0700   33.0430   48.4790 C   0  0  0  0  0  0  0  0  0  0  0  0
   64.8232   32.7048   47.7522 H   0  0  0  0  0  0  0  0  0  0  0  0
   64.3360   32.9330   49.8600 C   0  0  0  0  0  0  0  0  0  0  0  0
   65.5910   32.3780   50.3360 N   0  0  0  0  0  0  0  0  0  0  0  0
   65.6190   31.0900   51.0390 C   0  0  0  0  0  0  0  0  0  0  0  0
   65.6152   31.2649   52.1250 H   0  0  0  0  0  0  0  0  0  0  0  0
   64.7335   30.5004   50.7595 H   0  0  0  0  0  0  0  0  0  0  0  0
   66.5293   30.5394   50.7595 H   0  0  0  0  0  0  0  0  0  0  0  0
   66.8540   33.0940   50.1170 C   0  0  0  0  0  0  0  0  0  0  0  0
   67.3040   33.3491   51.0878 H   0  0  0  0  0  0  0  0  0  0  0  0
   67.5451   32.4533   49.5496 H   0  0  0  0  0  0  0  0  0  0  0  0
   66.6592   34.0160   49.5496 H   0  0  0  0  0  0  0  0  0  0  0  0
   63.3540   33.3850   50.7660 C   0  0  0  0  0  0  0  0  0  0  0  0
   63.5408   33.3182   51.8480 H   0  0  0  0  0  0  0  0  0  0  0  0
   62.1460   33.9170   50.3050 C   0  0  0  0  0  0  0  0  0  0  0  0
   61.3982   34.2781   51.0264 H   0  0  0  0  0  0  0  0  0  0  0  0
   59.5950   34.9240   46.1340 C   0  0  0  0  0  0  0  0  0  0  0  0
   59.8241   35.9872   45.9690 H   0  0  0  0  0  0  0  0  0  0  0  0
   58.9220   34.1470   45.2860 C   0  0  0  0  0  0  0  0  0  0  0  0
   58.5204   34.4781   44.3170 H   0  0  0  0  0  0  0  0  0  0  0  0
   57.4330   31.8360   43.7080 S   0  0  0  0  0  0  0  0  0  0  0  0
   56.9130   30.2390   43.6630 C   0  0  0  0  0  0  0  0  0  0  0  0
   56.2370   29.7090   42.6440 C   0  0  0  0  0  0  0  0  0  0  0  0
   55.9262   28.6544   42.6793 H   0  0  0  0  0  0  0  0  0  0  0  0
   55.9898   30.3262   41.7676 H   0  0  0  0  0  0  0  0  0  0  0  0
  1  2  1  0
  2  3  2  0
  2  4  1  0
  4  5  2  0
  5  6  1  0
  5  7  1  0
  7  8  2  3
  8  9  1  0
  9 10  2  0
  9 11  1  0
 11 12  2  0
 12 13  1  0
 12 14  1  0
 14 15  2  0
 15 16  1  0
 15 17  1  0
 17 18  1  0
 17 19  2  0
 19 20  1  0
 20 21  1  0
 21 22  1  0
 21 23  1  0
 21 24  1  0
 20 25  1  0
 25 26  1  0
 25 27  1  0
 25 28  1  0
 19 29  1  0
 29 30  1  0
 29 31  2  0
 31 32  1  0
 11 33  1  0
 33 34  1  0
 33 35  2  0
 35 36  1  0
  7 37  1  0
 37 38  1  0
 38 39  2  0
 39 40  1  0
 39 41  1  0
 38  4  1  0
 35  8  1  0
 31 14  1  0
M  END
>  <UniqueID>  (64) 
64

>  <SMILES>  (64) 
C=c1sc(=C2C=C/C(=C\c3ccc(N(C)C)cc3)C2=O)cc1C=O

>  <Energy>  (64) 
101.33888859774001

>  <Genealogy>  (64) 
C=c1sc(=C2C=C/C(=C\c3ccc(N(C)C)cc3)C2=O)cc1C=O (cis-trans isomerization)
C=c1sc(=C2C=C/C(=C\c3ccc(N(C)C)cc3)C2=O)cc1C=O (3D coordinates assigned)
C=c1sc(=C2C=C/C(=C\c3ccc(N(C)C)cc3)C2=O)cc1C=O (nonaromatic ring conformer: 101.33888859774001 kcal/mol)

>  <smiles>  (64) 
C=c1sc(=C2C=CC(=Cc3ccc(N(C)C)cc3)C2=O)cc1C=O

>  <score_type>  (64) 
oracle

>  <origin>  (64) 
adg

>  <m_score__min__energy>  (64) 
-8.6600000000000001

>  <m_primary>  (64) 
energy

$$$$
64:0
     RDKit          3D

 42 44  0  0  0  0  0  0  0  0999 V2000
   59.1570   30.8088   48.1116 H   0  0  0  0  0  0  0  0  0  0  0  0
   58.9380   30.3440   47.1390 C   0  0  0  0  0  0  0  0  0  0  0  0
   59.2555   29.3099   46.9397 H   0  0  0  0  0  0  0  0  0  0  0  0
   58.2830   31.0390   46.1950 C   0  0  0  0  0  0  0  0  0  0  0  0
   57.9350   30.5810   44.9140 C   0  0  0  0  0  0  0  0  0  0  0  0
   57.9400   29.3410   44.3850 C   0  0  0  0  0  0  0  0  0  0  0  0
   58.3889   29.2213   43.3879 H   0  0  0  0  0  0  0  0  0  0  0  0
   57.3940   28.1290   45.0300 C   0  0  0  0  0  0  0  0  0  0  0  0
   56.0170   28.0180   45.2690 C   0  0  0  0  0  0  0  0  0  0  0  0
   55.1440   29.0210   44.8620 O   0  0  0  0  0  0  0  0  0  0  0  0
   55.5240   26.9180   45.8950 N   0  0  0  0  0  0  0  0  0  0  0  0
   56.3450   25.9210   46.3130 C   0  0  0  0  0  0  0  0  0  0  0  0
   55.8640   24.9100   46.8860 O   0  0  0  0  0  0  0  0  0  0  0  0
   57.6850   26.0180   46.1180 N   0  0  0  0  0  0  0  0  0  0  0  0
   58.2280   27.0970   45.4980 C   0  0  0  0  0  0  0  0  0  0  0  0
   59.4790   27.1640   45.3580 O   0  0  0  0  0  0  0  0  0  0  0  0
   57.5580   31.6980   44.1930 C   0  0  0  0  0  0  0  0  0  0  0  0
   57.2638   31.7250   43.1334 H   0  0  0  0  0  0  0  0  0  0  0  0
   57.6210   32.7720   45.0550 C   0  0  0  0  0  0  0  0  0  0  0  0
   57.3920   34.1950   44.6360 C   0  0  0  0  0  0  0  0  0  0  0  0
   57.2901   34.8284   45.5295 H   0  0  0  0  0  0  0  0  0  0  0  0
   58.2458   34.5424   44.0357 H   0  0  0  0  0  0  0  0  0  0  0  0
   56.4723   34.2570   44.0357 H   0  0  0  0  0  0  0  0  0  0  0  0
   58.0120   32.3720   46.2900 N   0  0  0  0  0  0  0  0  0  0  0  0
   58.2200   33.2620   47.4500 C   0  0  0  0  0  0  0  0  0  0  0  0
   57.7562   34.2360   47.2348 H   0  0  0  0  0  0  0  0  0  0  0  0
   57.7622   32.7805   48.3267 H   0  0  0  0  0  0  0  0  0  0  0  0
   59.6920   33.4810   47.7600 C   0  0  0  0  0  0  0  0  0  0  0  0
   60.5720   33.7130   46.6870 C   0  0  0  0  0  0  0  0  0  0  0  0
   60.1733   33.7883   45.6646 H   0  0  0  0  0  0  0  0  0  0  0  0
   61.9450   33.8490   46.9030 C   0  0  0  0  0  0  0  0  0  0  0  0
   62.6208   34.0233   46.0527 H   0  0  0  0  0  0  0  0  0  0  0  0
   62.4590   33.7640   48.1950 C   0  0  0  0  0  0  0  0  0  0  0  0
   63.5425   33.8540   48.3620 H   0  0  0  0  0  0  0  0  0  0  0  0
   61.6020   33.5650   49.2770 C   0  0  0  0  0  0  0  0  0  0  0  0
   62.0153   33.5044   50.2946 H   0  0  0  0  0  0  0  0  0  0  0  0
   60.2150   33.4410   49.0810 C   0  0  0  0  0  0  0  0  0  0  0  0
   59.3530   33.3050   50.2720 C   0  0  0  0  0  0  0  0  0  0  0  0
   59.3740   34.1890   51.1670 O   0  0  0  0  0  0  0  0  0  0  0  0
   58.5220   32.1560   50.4410 N   0  0  0  0  0  0  0  0  0  0  0  0
   57.9270   32.0590   51.2930 H   0  0  0  0  0  0  0  0  0  0  0  0
   58.4740   31.4170   49.7050 H   0  0  0  0  0  0  0  0  0  0  0  0
  1  2  1  0
  2  3  1  0
  2  4  2  0
  4  5  1  0
  5  6  2  0
  6  7  1  0
  6  8  1  0
  8  9  2  0
  9 10  1  0
  9 11  1  0
 11 12  1  0
 12 13  2  0
 12 14  1  0
 14 15  1  0
 15 16  2  0
  5 17  1  0
 17 18  1  0
 17 19  2  0
 19 20  1  0
 20 21  1  0
 20 22  1  0
 20 23  1  0
 19 24  1  0
 24 25  1  0
 25 26  1  0
 25 27  1  0
 25 28  1  0
 28 29  2  0
 29 30  1  0
 29 31  1  0
 31 32  1  0
 31 33  2  0
 33 34  1  0
 33 35  1  0
 35 36  1  0
 35 37  2  0
 37 38  1  0
 38 39  2  0
 38 40  1  0
 40 41  1  0
 40 42  1  0
 24  4  1  0
 37 28  1  0
 15  8  1  0
M  CHG  3  10  -1  11  -1  14  -1
M  END
>  <UniqueID>  (65) 
65

>  <SMILES>  (65) 
C=c1/c(=C\c2c([O-])[n-]c(=O)[n-]c2=O)cc(C)n1Cc1ccccc1C(N)=O

>  <Energy>  (65) 
93.20497174938949

>  <Genealogy>  (65) 
C=c1c(=Cc2c([O-])[n-]c(=O)[n-]c2=O)cc(C)n1Cc1ccccc1C(N)=O (protonated)
C=c1/c(=C\c2c([O-])[n-]c(=O)[n-]c2=O)cc(C)n1Cc1ccccc1C(N)=O (cis-trans isomerization)
C=c1/c(=C\c2c([O-])[n-]c(=O)[n-]c2=O)cc(C)n1Cc1ccccc1C(N)=O (3D coordinates assigned)
C=c1/c(=C\c2c([O-])[n-]c(=O)[n-]c2=O)cc(C)n1Cc1ccccc1C(N)=O (optimized conformer: 93.20497174938949 kcal/mol)

>  <smiles>  (65) 
C=c1c(=Cc2c(O)[nH]c(=O)[nH]c2=O)cc(C)n1Cc1ccccc1C(N)=O

>  <score_type>  (65) 
oracle

>  <origin>  (65) 
adg

>  <m_score__min__energy>  (65) 
-15.91

>  <m_primary>  (65) 
energy

$$$$
65:0
     RDKit          3D

 51 54  0  0  0  0  0  0  0  0999 V2000
   55.8750   26.3750   46.6230 O   0  0  0  0  0  0  0  0  0  0  0  0
   56.6740   26.2600   45.6630 C   0  0  0  0  0  0  0  0  0  0  0  0
   57.7430   27.2670   45.4770 C   0  0  0  0  0  0  0  0  0  0  0  0
   58.5440   27.2240   44.3250 C   0  0  0  0  0  0  0  0  0  0  0  0
   59.5200   28.2000   44.1280 C   0  0  0  0  0  0  0  0  0  0  0  0
   59.7010   29.2020   45.0810 C   0  0  0  0  0  0  0  0  0  0  0  0
   58.9090   29.2100   46.2410 C   0  0  0  0  0  0  0  0  0  0  0  0
   59.1040   30.2570   47.2690 C   0  0  0  0  0  0  0  0  0  0  0  0
   58.6140   30.1150   48.4240 O   0  0  0  0  0  0  0  0  0  0  0  0
   59.8580   31.4420   46.9750 N   0  0  0  0  0  0  0  0  0  0  0  0
   61.2680   31.4930   47.3820 C   0  0  0  0  0  0  0  0  0  0  0  0
   61.6920   32.9470   47.6230 C   0  0  0  0  0  0  0  0  0  0  0  0
   60.6820   33.6220   48.3470 O   0  0  0  0  0  0  0  0  0  0  0  0
   59.4950   33.8030   47.5730 C   0  0  0  0  0  0  0  0  0  0  0  0
   59.2240   32.6900   46.5200 C   0  0  2  0  0  0  0  0  0  0  0  0
   57.7170   32.5380   46.2040 C   0  0  0  0  0  0  0  0  0  0  0  0
   57.4880   32.0870   44.7830 C   0  0  0  0  0  0  0  0  0  0  0  0
   56.7120   30.9460   44.5160 C   0  0  0  0  0  0  0  0  0  0  0  0
   56.5030   30.5250   43.1990 C   0  0  0  0  0  0  0  0  0  0  0  0
   57.0800   31.2350   42.1400 C   0  0  0  0  0  0  0  0  0  0  0  0
   57.8590   32.3680   42.3970 C   0  0  0  0  0  0  0  0  0  0  0  0
   58.0650   32.7930   43.7130 C   0  0  0  0  0  0  0  0  0  0  0  0
   57.9620   28.2380   46.4140 N   0  0  0  0  0  0  0  0  0  0  0  0
   56.5890   25.0970   44.8300 N   0  0  0  0  0  0  0  0  0  0  0  0
   57.3320   24.4510   43.7340 C   0  0  0  0  0  0  0  0  0  0  0  0
   56.5030   23.2130   43.6830 C   0  0  0  0  0  0  0  0  0  0  0  0
   55.7610   23.8780   44.7900 C   0  0  0  0  0  0  0  0  0  0  0  0
   58.4025   26.4251   43.5822 H   0  0  0  0  0  0  0  0  0  0  0  0
   60.1455   28.1798   43.2234 H   0  0  0  0  0  0  0  0  0  0  0  0
   60.4604   29.9824   44.9250 H   0  0  0  0  0  0  0  0  0  0  0  0
   61.4006   30.9164   48.3093 H   0  0  0  0  0  0  0  0  0  0  0  0
   61.8902   31.0631   46.5832 H   0  0  0  0  0  0  0  0  0  0  0  0
   62.6290   32.9644   48.1989 H   0  0  0  0  0  0  0  0  0  0  0  0
   61.8449   33.4480   46.6557 H   0  0  0  0  0  0  0  0  0  0  0  0
   58.6389   33.8365   48.2629 H   0  0  0  0  0  0  0  0  0  0  0  0
   59.6347   34.7359   47.0071 H   0  0  0  0  0  0  0  0  0  0  0  0
   59.6778   32.9738   45.5590 H   0  0  0  0  0  0  0  0  0  0  0  0
   57.2824   31.7946   46.8884 H   0  0  0  0  0  0  0  0  0  0  0  0
   57.2386   33.5200   46.3336 H   0  0  0  0  0  0  0  0  0  0  0  0
   56.2665   30.3808   45.3479 H   0  0  0  0  0  0  0  0  0  0  0  0
   55.8861   29.6372   42.9957 H   0  0  0  0  0  0  0  0  0  0  0  0
   56.9207   30.9016   41.1039 H   0  0  0  0  0  0  0  0  0  0  0  0
   58.3101   32.9253   41.5628 H   0  0  0  0  0  0  0  0  0  0  0  0
   58.6806   33.6827   43.9117 H   0  0  0  0  0  0  0  0  0  0  0  0
   57.4170   28.2160   47.2980 H   0  0  0  0  0  0  0  0  0  0  0  0
   57.2919   25.0268   42.7976 H   0  0  0  0  0  0  0  0  0  0  0  0
   58.4153   24.3211   43.8738 H   0  0  0  0  0  0  0  0  0  0  0  0
   55.9339   23.0603   42.7541 H   0  0  0  0  0  0  0  0  0  0  0  0
   56.9142   22.1945   43.7429 H   0  0  0  0  0  0  0  0  0  0  0  0
   54.7122   24.0864   44.5320 H   0  0  0  0  0  0  0  0  0  0  0  0
   55.6559   23.3151   45.7292 H   0  0  0  0  0  0  0  0  0  0  0  0
  1  2  2  0
  2  3  1  0
  3  4  2  0
  4  5  1  0
  5  6  2  0
  6  7  1  0
  7  8  1  0
  8  9  2  0
  8 10  1  0
 10 11  1  0
 11 12  1  0
 12 13  1  0
 13 14  1  0
 14 15  1  0
 15 16  1  0
 16 17  1  0
 17 18  2  0
 18 19  1  0
 19 20  2  0
 20 21  1  0
 21 22  2  0
  7 23  2  0
  2 24  1  0
 24 25  1  0
 25 26  1  0
 26 27  1  0
 23  3  1  0
 27 24  1  0
 15 10  1  0
 22 17  1  0
  4 28  1  0
  5 29  1  0
  6 30  1  0
 11 31  1  0
 11 32  1  0
 12 33  1  0
 12 34  1  0
 14 35  1  0
 14 36  1  0
 15 37  1  6
 16 38  1  0
 16 39  1  0
 18 40  1  0
 19 41  1  0
 20 42  1  0
 21 43  1  0
 22 44  1  0
 23 45  1  0
 25 46  1  0
 25 47  1  0
 26 48  1  0
 26 49  1  0
 27 50  1  0
 27 51  1  0
M  CHG  1  23   1
M  END
>  <UniqueID>  (66) 
66

>  <SMILES>  (66) 
O=C(c1cccc(C(=O)N2CCOC[C@@H]2Cc2ccccc2)[nH+]1)N1CCC1

>  <Energy>  (66) 
114.04728652629414

>  <Genealogy>  (66) 
O=C(c1cccc(C(=O)N2CCOCC2Cc2ccccc2)[nH+]1)N1CCC1 (protonated)
O=C(c1cccc(C(=O)N2CCOC[C@@H]2Cc2ccccc2)[nH+]1)N1CCC1 (chirality)
O=C(c1cccc(C(=O)N2CCOC[C@@H]2Cc2ccccc2)[nH+]1)N1CCC1 (3D coordinates assigned)
O=C(c1cccc(C(=O)N2CCOC[C@@H]2Cc2ccccc2)[nH+]1)N1CCC1 (nonaromatic ring conformer: 114.04728652629414 kcal/mol)

>  <smiles>  (66) 
O=C(c1cccc(C(=O)N2CCOCC2Cc2ccccc2)n1)N1CCC1

>  <score_type>  (66) 
oracle

>  <origin>  (66) 
adg

>  <m_score__min__energy>  (66) 
-6.7000000000000002

>  <m_primary>  (66) 
energy

$$$$
66:0
     RDKit          3D

 34 36  0  0  0  0  0  0  0  0999 V2000
   58.1570   26.5860   47.4430 O   0  0  0  0  0  0  0  0  0  0  0  0
   57.2950   27.1810   46.7410 C   0  0  0  0  0  0  0  0  0  0  0  0
   56.1250   26.4770   46.3010 N   0  0  0  0  0  0  0  0  0  0  0  0
   56.0910   25.3060   45.4730 C   0  0  0  0  0  0  0  0  0  0  0  0
   57.1420   24.9820   44.5930 C   0  0  0  0  0  0  0  0  0  0  0  0
   57.0780   23.8180   43.8210 C   0  0  0  0  0  0  0  0  0  0  0  0
   55.9790   22.9620   43.9300 C   0  0  0  0  0  0  0  0  0  0  0  0
   55.9170   21.8060   43.1610 O   0  0  0  0  0  0  0  0  0  0  0  0
   54.9430   23.2670   44.8180 C   0  0  0  0  0  0  0  0  0  0  0  0
   55.0040   24.4300   45.5920 C   0  0  0  0  0  0  0  0  0  0  0  0
   57.5220   28.5910   46.3200 C   0  0  0  0  0  0  0  0  0  0  0  0
   56.6420   29.2330   45.4310 C   0  0  0  0  0  0  0  0  0  0  0  0
   55.5190   28.5830   44.9320 O   0  0  0  0  0  0  0  0  0  0  0  0
   56.8700   30.5140   45.0590 N   0  0  0  0  0  0  0  0  0  0  0  0
   57.9310   31.2160   45.5260 C   0  0  0  0  0  0  0  0  0  0  0  0
   58.0830   32.4110   45.1560 O   0  0  0  0  0  0  0  0  0  0  0  0
   58.8120   30.6340   46.3970 N   0  0  0  0  0  0  0  0  0  0  0  0
   59.9400   31.3860   46.8910 C   0  0  0  0  0  0  0  0  0  0  0  0
   61.2370   30.8510   46.8180 C   0  0  0  0  0  0  0  0  0  0  0  0
   62.3280   31.5810   47.2970 C   0  0  0  0  0  0  0  0  0  0  0  0
   62.1320   32.8500   47.8520 C   0  0  0  0  0  0  0  0  0  0  0  0
   60.8450   33.3890   47.9290 C   0  0  0  0  0  0  0  0  0  0  0  0
   59.7510   32.6610   47.4490 C   0  0  0  0  0  0  0  0  0  0  0  0
   58.6250   29.3340   46.7960 C   0  0  0  0  0  0  0  0  0  0  0  0
   59.4590   28.7900   47.5740 O   0  0  0  0  0  0  0  0  0  0  0  0
   58.0151   25.6462   44.5129 H   0  0  0  0  0  0  0  0  0  0  0  0
   57.8952   23.5754   43.1258 H   0  0  0  0  0  0  0  0  0  0  0  0
   54.0794   22.5916   44.9078 H   0  0  0  0  0  0  0  0  0  0  0  0
   54.1930   24.6587   46.2991 H   0  0  0  0  0  0  0  0  0  0  0  0
   61.3943   29.8534   46.3820 H   0  0  0  0  0  0  0  0  0  0  0  0
   63.3415   31.1575   47.2376 H   0  0  0  0  0  0  0  0  0  0  0  0
   62.9916   33.4241   48.2281 H   0  0  0  0  0  0  0  0  0  0  0  0
   60.6920   34.3863   48.3673 H   0  0  0  0  0  0  0  0  0  0  0  0
   58.7393   33.0886   47.5088 H   0  0  0  0  0  0  0  0  0  0  0  0
  1  2  2  0
  2  3  1  0
  3  4  1  0
  4  5  2  0
  5  6  1  0
  6  7  2  0
  7  8  1  0
  7  9  1  0
  9 10  2  0
  2 11  1  0
 11 12  2  0
 12 13  1  0
 12 14  1  0
 14 15  1  0
 15 16  2  0
 15 17  1  0
 17 18  1  0
 18 19  2  0
 19 20  1  0
 20 21  2  0
 21 22  1  0
 22 23  2  0
 17 24  1  0
 24 25  2  0
 10  4  1  0
 24 11  1  0
 23 18  1  0
  5 26  1  0
  6 27  1  0
  9 28  1  0
 10 29  1  0
 19 30  1  0
 20 31  1  0
 21 32  1  0
 22 33  1  0
 23 34  1  0
M  CHG  4   3  -1   8  -1  13  -1  14  -1
M  END
>  <UniqueID>  (67) 
67

>  <SMILES>  (67) 
O=C([N-]c1ccc([O-])cc1)c1c([O-])[n-]c(=O)n(-c2ccccc2)c1=O

>  <Energy>  (67) 
56.67625346926639

>  <Genealogy>  (67) 
O=C([N-]c1ccc([O-])cc1)c1c([O-])[n-]c(=O)n(-c2ccccc2)c1=O (protonated)
O=C([N-]c1ccc([O-])cc1)c1c([O-])[n-]c(=O)n(-c2ccccc2)c1=O (3D coordinates assigned)
O=C([N-]c1ccc([O-])cc1)c1c([O-])[n-]c(=O)n(-c2ccccc2)c1=O (optimized conformer: 56.67625346926639 kcal/mol)

>  <smiles>  (67) 
O=C(Nc1ccc(O)cc1)c1c(O)[nH]c(=O)n(-c2ccccc2)c1=O

>  <score_type>  (67) 
oracle

>  <origin>  (67) 
adg

>  <m_score__min__energy>  (67) 
-15.26

>  <m_primary>  (67) 
energy

$$$$
67:0
     RDKit          3D

 40 42  0  0  0  0  0  0  0  0999 V2000
   56.1540   24.1060   46.8420 C   0  0  0  0  0  0  0  0  0  0  0  0
   56.5840   25.3350   46.5700 C   0  0  0  0  0  0  0  0  0  0  0  0
   57.8310   25.7470   46.7920 O   0  0  0  0  0  0  0  0  0  0  0  0
   57.8580   26.9960   46.3990 C   0  0  0  0  0  0  0  0  0  0  0  0
   58.7740   28.0060   46.3070 C   0  0  0  0  0  0  0  0  0  0  0  0
   58.0320   29.0800   45.7470 C   0  0  0  0  0  0  0  0  0  0  0  0
   58.5520   30.3110   45.4840 C   0  0  0  0  0  0  0  0  0  0  0  0
   59.7350   30.8710   46.2520 C   0  0  0  0  0  0  0  0  0  0  0  0
   59.5750   32.3510   46.4870 C   0  0  0  0  0  0  0  0  0  0  0  0
   58.4530   32.8350   47.1860 C   0  0  0  0  0  0  0  0  0  0  0  0
   58.3080   34.2050   47.4240 C   0  0  0  0  0  0  0  0  0  0  0  0
   59.2780   35.1040   46.9680 C   0  0  0  0  0  0  0  0  0  0  0  0
   60.3910   34.6320   46.2670 C   0  0  0  0  0  0  0  0  0  0  0  0
   60.5420   33.2620   46.0270 C   0  0  0  0  0  0  0  0  0  0  0  0
   57.9370   31.2300   44.5100 C   0  0  0  0  0  0  0  0  0  0  0  0
   56.9900   31.9780   44.8760 O   0  0  0  0  0  0  0  0  0  0  0  0
   58.4410   31.3030   43.1730 N   0  0  0  0  0  0  0  0  0  0  0  0
   57.8370   32.1720   42.1720 C   0  0  0  0  0  0  0  0  0  0  0  0
   56.7300   28.6790   45.5020 N   0  0  0  0  0  0  0  0  0  0  0  0
   55.6230   29.3690   44.8350 C   0  0  0  0  0  0  0  0  0  0  0  0
   56.6990   27.4120   45.9400 C   0  0  0  0  0  0  0  0  0  0  0  0
   55.8160   26.3690   46.0140 C   0  0  0  0  0  0  0  0  0  0  0  0
   54.4800   26.3390   45.6330 O   0  0  0  0  0  0  0  0  0  0  0  0
   55.1097   23.8301   46.6339 H   0  0  0  0  0  0  0  0  0  0  0  0
   56.8427   23.3656   47.2750 H   0  0  0  0  0  0  0  0  0  0  0  0
   59.8348   27.9908   46.5978 H   0  0  0  0  0  0  0  0  0  0  0  0
   59.8088   30.3586   47.2226 H   0  0  0  0  0  0  0  0  0  0  0  0
   60.6469   30.7070   45.6591 H   0  0  0  0  0  0  0  0  0  0  0  0
   57.6872   32.1324   47.5464 H   0  0  0  0  0  0  0  0  0  0  0  0
   57.4291   34.5769   47.9711 H   0  0  0  0  0  0  0  0  0  0  0  0
   59.1648   36.1810   47.1610 H   0  0  0  0  0  0  0  0  0  0  0  0
   61.1504   35.3396   45.9029 H   0  0  0  0  0  0  0  0  0  0  0  0
   61.4210   32.8961   45.4761 H   0  0  0  0  0  0  0  0  0  0  0  0
   59.2390   30.6900   42.8920 H   0  0  0  0  0  0  0  0  0  0  0  0
   57.2782   32.9759   42.6735 H   0  0  0  0  0  0  0  0  0  0  0  0
   58.6258   32.6107   41.5433 H   0  0  0  0  0  0  0  0  0  0  0  0
   57.1508   31.5855   41.5433 H   0  0  0  0  0  0  0  0  0  0  0  0
   54.9453   29.7914   45.5914 H   0  0  0  0  0  0  0  0  0  0  0  0
   56.0214   30.1790   44.2064 H   0  0  0  0  0  0  0  0  0  0  0  0
   55.0712   28.6546   44.2064 H   0  0  0  0  0  0  0  0  0  0  0  0
  1  2  2  0
  2  3  1  0
  3  4  1  0
  4  5  2  0
  5  6  1  0
  6  7  2  3
  7  8  1  0
  8  9  1  0
  9 10  2  0
 10 11  1  0
 11 12  2  0
 12 13  1  0
 13 14  2  0
  7 15  1  0
 15 16  2  0
 15 17  1  0
 17 18  1  0
  6 19  1  0
 19 20  1  0
 19 21  1  0
 21 22  2  0
 22 23  1  0
 22  2  1  0
 21  4  1  0
 14  9  1  0
  1 24  1  0
  1 25  1  0
  5 26  1  0
  8 27  1  0
  8 28  1  0
 10 29  1  0
 11 30  1  0
 12 31  1  0
 13 32  1  0
 14 33  1  0
 17 34  1  0
 18 35  1  0
 18 36  1  0
 18 37  1  0
 20 38  1  0
 20 39  1  0
 20 40  1  0
M  CHG  1  23  -1
M  END
>  <UniqueID>  (68) 
68

>  <SMILES>  (68) 
C=c1oc2cc(=C(Cc3ccccc3)C(=O)NC)n(C)c2c1[O-]

>  <Energy>  (68) 
138.593059442146

>  <Genealogy>  (68) 
C=c1oc2cc(=C(Cc3ccccc3)C(=O)NC)n(C)c2c1[O-] (protonated)
C=c1oc2cc(=C(Cc3ccccc3)C(=O)NC)n(C)c2c1[O-] (3D coordinates assigned)
C=c1oc2cc(=C(Cc3ccccc3)C(=O)NC)n(C)c2c1[O-] (optimized conformer: 138.593059442146 kcal/mol)

>  <smiles>  (68) 
C=c1oc2cc(=C(Cc3ccccc3)C(=O)NC)n(C)c2c1O

>  <score_type>  (68) 
oracle

>  <origin>  (68) 
adg

>  <m_score__min__energy>  (68) 
-11.17

>  <m_primary>  (68) 
energy

$$$$
68:0
     RDKit          3D

 58 62  0  0  0  0  0  0  0  0999 V2000
   56.3030   30.7580   42.7400 O   0  0  0  0  0  0  0  0  0  0  0  0
   56.5100   30.5500   43.9630 C   0  0  0  0  0  0  0  0  0  0  0  0
   56.7230   29.1430   44.4450 C   0  0  0  0  0  0  0  0  0  0  0  0
   58.4380   28.6010   44.1200 S   0  0  0  0  0  0  0  0  0  0  0  0
   58.2190   26.9360   44.7590 C   0  0  0  0  0  0  0  0  0  0  0  0
   57.7560   25.9240   44.0070 N   0  0  0  0  0  0  0  0  0  0  0  0
   57.8240   24.8500   44.8230 C   0  0  0  0  0  0  0  0  0  0  0  0
   57.4230   23.4880   44.4080 C   0  0  0  0  0  0  0  0  0  0  0  0
   56.6840   23.2900   43.2270 C   0  0  0  0  0  0  0  0  0  0  0  0
   56.3030   22.0020   42.8390 C   0  0  0  0  0  0  0  0  0  0  0  0
   56.6550   20.9010   43.6230 C   0  0  0  0  0  0  0  0  0  0  0  0
   57.3880   21.0850   44.7970 C   0  0  0  0  0  0  0  0  0  0  0  0
   57.7700   22.3720   45.1910 C   0  0  0  0  0  0  0  0  0  0  0  0
   58.3060   25.1370   46.0530 N   0  0  0  0  0  0  0  0  0  0  0  0
   58.5460   26.4610   46.0170 C   0  0  0  0  0  0  0  0  0  0  0  0
   59.0840   27.2140   47.1700 C   0  0  0  0  0  0  0  0  0  0  0  0
   60.2160   26.7650   47.8730 C   0  0  0  0  0  0  0  0  0  0  0  0
   60.7070   27.4930   48.9610 C   0  0  0  0  0  0  0  0  0  0  0  0
   60.0810   28.6800   49.3500 C   0  0  0  0  0  0  0  0  0  0  0  0
   58.9690   29.1460   48.6440 C   0  0  0  0  0  0  0  0  0  0  0  0
   58.4750   28.4210   47.5560 C   0  0  0  0  0  0  0  0  0  0  0  0
   56.5920   31.6720   44.8500 N   0  0  0  0  0  0  0  0  0  0  0  0
   57.7660   32.1240   45.5370 C   0  0  0  0  0  0  0  0  0  0  0  0
   57.8500   33.4650   45.9280 C   0  0  0  0  0  0  0  0  0  0  0  0
   58.9670   33.9290   46.6300 C   0  0  0  0  0  0  0  0  0  0  0  0
   60.0090   33.0490   46.9710 C   0  0  0  0  0  0  0  0  0  0  0  0
   61.1650   33.5220   47.6910 N   0  0  0  0  0  0  0  0  0  0  0  0
   60.9990   34.2130   48.9740 C   0  0  0  0  0  0  0  0  0  0  0  0
   62.2420   33.9930   49.8400 C   0  0  0  0  0  0  0  0  0  0  0  0
   63.4160   34.3460   49.1340 O   0  0  0  0  0  0  0  0  0  0  0  0
   63.5910   33.4770   48.0300 C   0  0  0  0  0  0  0  0  0  0  0  0
   62.4580   33.6510   47.0140 C   0  0  0  0  0  0  0  0  0  0  0  0
   59.9130   31.7000   46.5940 C   0  0  0  0  0  0  0  0  0  0  0  0
   58.7970   31.2370   45.8930 C   0  0  0  0  0  0  0  0  0  0  0  0
   56.5293   29.0988   45.5269 H   0  0  0  0  0  0  0  0  0  0  0  0
   56.0335   28.4765   43.9061 H   0  0  0  0  0  0  0  0  0  0  0  0
   56.4045   24.1535   42.6055 H   0  0  0  0  0  0  0  0  0  0  0  0
   55.7250   21.8555   41.9146 H   0  0  0  0  0  0  0  0  0  0  0  0
   56.3546   19.8885   43.3154 H   0  0  0  0  0  0  0  0  0  0  0  0
   57.6655   20.2169   45.4130 H   0  0  0  0  0  0  0  0  0  0  0  0
   58.3449   22.5120   46.1183 H   0  0  0  0  0  0  0  0  0  0  0  0
   60.7180   25.8359   47.5653 H   0  0  0  0  0  0  0  0  0  0  0  0
   61.5876   27.1306   49.5117 H   0  0  0  0  0  0  0  0  0  0  0  0
   60.4633   29.2472   50.2114 H   0  0  0  0  0  0  0  0  0  0  0  0
   58.4815   30.0850   48.9450 H   0  0  0  0  0  0  0  0  0  0  0  0
   57.6045   28.7970   46.9984 H   0  0  0  0  0  0  0  0  0  0  0  0
   57.0324   34.1584   45.6817 H   0  0  0  0  0  0  0  0  0  0  0  0
   59.0307   34.9890   46.9171 H   0  0  0  0  0  0  0  0  0  0  0  0
   60.8634   35.2898   48.7950 H   0  0  0  0  0  0  0  0  0  0  0  0
   60.1161   33.8121   49.4934 H   0  0  0  0  0  0  0  0  0  0  0  0
   62.1653   34.6136   50.7450 H   0  0  0  0  0  0  0  0  0  0  0  0
   62.2997   32.9280   50.1092 H   0  0  0  0  0  0  0  0  0  0  0  0
   64.5505   33.7031   47.5420 H   0  0  0  0  0  0  0  0  0  0  0  0
   63.5810   32.4390   48.3941 H   0  0  0  0  0  0  0  0  0  0  0  0
   62.5311   34.6463   46.5514 H   0  0  0  0  0  0  0  0  0  0  0  0
   62.5421   32.8763   46.2376 H   0  0  0  0  0  0  0  0  0  0  0  0
   60.7230   31.0022   46.8527 H   0  0  0  0  0  0  0  0  0  0  0  0
   58.7246   30.1743   45.6185 H   0  0  0  0  0  0  0  0  0  0  0  0
  1  2  2  0
  2  3  1  0
  3  4  1  0
  4  5  1  0
  5  6  1  0
  6  7  2  0
  7  8  1  0
  8  9  2  0
  9 10  1  0
 10 11  2  0
 11 12  1  0
 12 13  2  0
  7 14  1  0
 14 15  1  0
 15 16  1  0
 16 17  2  0
 17 18  1  0
 18 19  2  0
 19 20  1  0
 20 21  2  0
  2 22  1  0
 22 23  1  0
 23 24  2  0
 24 25  1  0
 25 26  2  0
 26 27  1  0
 27 28  1  0
 28 29  1  0
 29 30  1  0
 30 31  1  0
 31 32  1  0
 26 33  1  0
 33 34  2  0
 15  5  2  0
 21 16  1  0
 34 23  1  0
 13  8  1  0
 32 27  1  0
  3 35  1  0
  3 36  1  0
  9 37  1  0
 10 38  1  0
 11 39  1  0
 12 40  1  0
 13 41  1  0
 17 42  1  0
 18 43  1  0
 19 44  1  0
 20 45  1  0
 21 46  1  0
 24 47  1  0
 25 48  1  0
 28 49  1  0
 28 50  1  0
 29 51  1  0
 29 52  1  0
 31 53  1  0
 31 54  1  0
 32 55  1  0
 32 56  1  0
 33 57  1  0
 34 58  1  0
M  CHG  2  14  -1  22  -1
M  END
>  <UniqueID>  (69) 
69

>  <SMILES>  (69) 
O=C(CSc1nc(-c2ccccc2)[n-]c1-c1ccccc1)[N-]c1ccc(N2CCOCC2)cc1

>  <Energy>  (69) 
103.07647379013119

>  <Genealogy>  (69) 
O=C(CSc1nc(-c2ccccc2)[n-]c1-c1ccccc1)[N-]c1ccc(N2CCOCC2)cc1 (protonated)
O=C(CSc1nc(-c2ccccc2)[n-]c1-c1ccccc1)[N-]c1ccc(N2CCOCC2)cc1 (3D coordinates assigned)
O=C(CSc1nc(-c2ccccc2)[n-]c1-c1ccccc1)[N-]c1ccc(N2CCOCC2)cc1 (nonaromatic ring conformer: 103.07647379013119 kcal/mol)

>  <smiles>  (69) 
O=C(CSc1nc(-c2ccccc2)[nH]c1-c1ccccc1)Nc1ccc(N2CCOCC2)cc1

>  <score_type>  (69) 
oracle

>  <origin>  (69) 
adg

>  <m_score__min__energy>  (69) 
-12.52

>  <m_primary>  (69) 
energy

$$$$
69:0
     RDKit          3D

 59 62  0  0  0  0  0  0  0  0999 V2000
   62.0930   30.7920   49.5730 C   0  0  0  0  0  0  0  0  0  0  0  0
   60.6870   30.9940   49.2060 N   0  0  0  0  0  0  0  0  0  0  0  0
   59.7550   29.9090   49.3820 C   0  0  0  0  0  0  0  0  0  0  0  0
   58.6340   30.1310   49.9100 O   0  0  0  0  0  0  0  0  0  0  0  0
   60.1020   28.5650   49.0250 N   0  0  0  0  0  0  0  0  0  0  0  0
   59.8740   27.9730   47.7390 C   0  0  0  0  0  0  0  0  0  0  0  0
   59.1970   26.7470   47.6750 C   0  0  0  0  0  0  0  0  0  0  0  0
   58.9920   26.1010   46.4460 C   0  0  0  0  0  0  0  0  0  0  0  0
   58.2870   24.7990   46.3750 C   0  0  0  0  0  0  0  0  0  0  0  0
   58.9190   23.7800   45.9840 O   0  0  0  0  0  0  0  0  0  0  0  0
   56.8910   24.6750   46.7220 N   0  0  0  0  0  0  0  0  0  0  0  0
   56.3690   23.4400   47.3130 C   0  0  0  0  0  0  0  0  0  0  0  0
   55.2180   22.9220   46.4470 C   0  0  0  0  0  0  0  0  0  0  0  0
   54.2350   23.9280   46.2660 O   0  0  0  0  0  0  0  0  0  0  0  0
   54.7800   25.0160   45.5420 C   0  0  0  0  0  0  0  0  0  0  0  0
   55.9090   25.6900   46.3290 C   0  0  0  0  0  0  0  0  0  0  0  0
   59.4980   26.6900   45.2740 C   0  0  0  0  0  0  0  0  0  0  0  0
   60.1530   27.9220   45.3280 C   0  0  0  0  0  0  0  0  0  0  0  0
   60.3150   28.5860   46.5460 C   0  0  0  0  0  0  0  0  0  0  0  0
   60.8800   29.8610   46.5350 O   0  0  0  0  0  0  0  0  0  0  0  0
   60.2630   32.2940   48.7280 C   0  0  0  0  0  0  0  0  0  0  0  0
   60.0410   33.3710   49.6060 C   0  0  0  0  0  0  0  0  0  0  0  0
   59.6060   34.5870   49.0820 C   0  0  0  0  0  0  0  0  0  0  0  0
   59.3960   34.7150   47.7480 N   0  0  0  0  0  0  0  0  0  0  0  0
   59.6020   33.6680   46.9010 C   0  0  0  0  0  0  0  0  0  0  0  0
   59.4320   33.7940   45.6190 N   0  0  0  0  0  0  0  0  0  0  0  0
   58.6840   32.9120   44.7660 C   0  0  0  0  0  0  0  0  0  0  0  0
   58.5090   33.2630   43.4240 C   0  0  0  0  0  0  0  0  0  0  0  0
   57.8080   32.4200   42.5580 C   0  0  0  0  0  0  0  0  0  0  0  0
   57.2980   31.2050   43.0220 C   0  0  0  0  0  0  0  0  0  0  0  0
   57.5000   30.8220   44.3540 C   0  0  0  0  0  0  0  0  0  0  0  0
   56.8740   29.2860   44.9440 S   0  0  0  0  0  0  0  0  0  0  0  0
   55.1470   29.3040   44.8850 N   0  0  0  0  0  0  0  0  0  0  0  0
   57.3260   29.0690   46.3610 O   0  0  0  0  0  0  0  0  0  0  0  0
   57.3870   28.1580   44.0950 O   0  0  0  0  0  0  0  0  0  0  0  0
   58.1960   31.6750   45.2240 C   0  0  0  0  0  0  0  0  0  0  0  0
   60.0360   32.4810   47.3980 N   0  0  0  0  0  0  0  0  0  0  0  0
   62.1876   30.7784   50.6688 H   0  0  0  0  0  0  0  0  0  0  0  0
   62.4451   29.8340   49.1627 H   0  0  0  0  0  0  0  0  0  0  0  0
   62.7005   31.6121   49.1627 H   0  0  0  0  0  0  0  0  0  0  0  0
   58.8216   26.2853   48.6001 H   0  0  0  0  0  0  0  0  0  0  0  0
   57.1677   22.6849   47.3553 H   0  0  0  0  0  0  0  0  0  0  0  0
   56.0070   23.6394   48.3324 H   0  0  0  0  0  0  0  0  0  0  0  0
   55.6120   22.6212   45.4650 H   0  0  0  0  0  0  0  0  0  0  0  0
   54.7548   22.0616   46.9521 H   0  0  0  0  0  0  0  0  0  0  0  0
   55.1788   24.6476   44.5853 H   0  0  0  0  0  0  0  0  0  0  0  0
   53.9840   25.7553   45.3691 H   0  0  0  0  0  0  0  0  0  0  0  0
   56.3956   26.4489   45.6986 H   0  0  0  0  0  0  0  0  0  0  0  0
   55.4974   26.1750   47.2264 H   0  0  0  0  0  0  0  0  0  0  0  0
   59.3772   26.1771   44.3084 H   0  0  0  0  0  0  0  0  0  0  0  0
   60.5444   28.3730   44.4042 H   0  0  0  0  0  0  0  0  0  0  0  0
   60.6800   30.5480   47.2500 H   0  0  0  0  0  0  0  0  0  0  0  0
   60.2079   33.2552   50.6871 H   0  0  0  0  0  0  0  0  0  0  0  0
   59.4329   35.4433   49.7505 H   0  0  0  0  0  0  0  0  0  0  0  0
   58.9259   34.2088   43.0476 H   0  0  0  0  0  0  0  0  0  0  0  0
   57.6573   32.7136   41.5087 H   0  0  0  0  0  0  0  0  0  0  0  0
   56.7372   30.5484   42.3405 H   0  0  0  0  0  0  0  0  0  0  0  0
   54.8620   28.6100   44.1590 H   0  0  0  0  0  0  0  0  0  0  0  0
   58.3607   31.3748   46.2693 H   0  0  0  0  0  0  0  0  0  0  0  0
  1  2  1  0
  2  3  1  0
  3  4  2  0
  3  5  1  0
  5  6  1  0
  6  7  2  0
  7  8  1  0
  8  9  1  0
  9 10  2  0
  9 11  1  0
 11 12  1  0
 12 13  1  0
 13 14  1  0
 14 15  1  0
 15 16  1  0
  8 17  2  0
 17 18  1  0
 18 19  2  0
 19 20  1  0
  2 21  1  0
 21 22  1  0
 22 23  2  0
 23 24  1  0
 24 25  1  0
 25 26  2  3
 26 27  1  0
 27 28  2  0
 28 29  1  0
 29 30  2  0
 30 31  1  0
 31 32  1  0
 32 33  1  0
 32 34  2  0
 32 35  2  0
 31 36  2  0
 25 37  1  0
 19  6  1  0
 37 21  2  0
 16 11  1  0
 36 27  1  0
  1 38  1  0
  1 39  1  0
  1 40  1  0
  7 41  1  0
 12 42  1  0
 12 43  1  0
 13 44  1  0
 13 45  1  0
 15 46  1  0
 15 47  1  0
 16 48  1  0
 16 49  1  0
 17 50  1  0
 18 51  1  0
 20 52  1  0
 22 53  1  0
 23 54  1  0
 28 55  1  0
 29 56  1  0
 30 57  1  0
 33 58  1  0
 36 59  1  0
M  CHG  3   5  -1  24  -1  33  -1
M  END
>  <UniqueID>  (70) 
70

>  <SMILES>  (70) 
CN(C(=O)[N-]c1cc(C(=O)N2CCOCC2)ccc1O)c1cc[n-]c(=Nc2cccc(S([NH-])(=O)=O)c2)n1

>  <Energy>  (70) 
88.57486546216761

>  <Genealogy>  (70) 
CN(C(=O)[N-]c1cc(C(=O)N2CCOCC2)ccc1O)c1cc[n-]c(=Nc2cccc(S([NH-])(=O)=O)c2)n1 (protonated)
CN(C(=O)[N-]c1cc(C(=O)N2CCOCC2)ccc1O)c1cc[n-]c(=Nc2cccc(S([NH-])(=O)=O)c2)n1 (3D coordinates assigned)
CN(C(=O)[N-]c1cc(C(=O)N2CCOCC2)ccc1O)c1cc[n-]c(=Nc2cccc(S([NH-])(=O)=O)c2)n1 (nonaromatic ring conformer: 88.57486546216761 kcal/mol)

>  <smiles>  (70) 
CN(C(=O)Nc1cc(C(=O)N2CCOCC2)ccc1O)c1cc[nH]c(=Nc2cccc(S(N)(=O)=O)c2)n1

>  <score_type>  (70) 
oracle

>  <origin>  (70) 
adg

>  <m_score__min__energy>  (70) 
-14.26

>  <m_primary>  (70) 
energy

$$$$
70:0
     RDKit          3D

 55 58  0  0  0  0  0  0  0  0999 V2000
   59.2350   27.6580   45.1360 C   0  0  0  0  0  0  0  0  0  0  0  0
   58.9740   28.5780   46.2520 N   0  0  0  0  0  0  0  0  0  0  0  0
   58.8150   30.0150   46.0120 C   0  0  0  0  0  0  0  0  0  0  0  0
   57.7410   30.2450   44.9980 C   0  0  0  0  0  0  0  0  0  0  0  0
   57.9140   30.8380   43.7650 C   0  0  0  0  0  0  0  0  0  0  0  0
   56.6730   30.8070   43.1620 C   0  0  0  0  0  0  0  0  0  0  0  0
   55.8260   30.1910   44.0630 C   0  0  0  0  0  0  0  0  0  0  0  0
   56.4920   29.8650   45.1480 O   0  0  0  0  0  0  0  0  0  0  0  0
   58.9650   28.0780   47.6040 C   0  0  0  0  0  0  0  0  0  0  0  0
   58.4630   26.9460   47.8460 O   0  0  0  0  0  0  0  0  0  0  0  0
   59.5270   28.8670   48.7210 C   0  0  0  0  0  0  0  0  0  0  0  0
   60.7620   28.5140   49.2830 C   0  0  0  0  0  0  0  0  0  0  0  0
   61.2980   29.2580   50.3400 C   0  0  0  0  0  0  0  0  0  0  0  0
   60.6180   30.3880   50.8290 C   0  0  0  0  0  0  0  0  0  0  0  0
   61.1070   31.1610   51.9360 N   0  0  0  0  0  0  0  0  0  0  0  0
   62.4330   31.6720   52.1190 C   0  0  0  0  0  0  0  0  0  0  0  0
   63.1840   31.2160   53.0240 O   0  0  0  0  0  0  0  0  0  0  0  0
   62.9180   32.7770   51.2300 C   0  0  0  0  0  0  0  0  0  0  0  0
   61.9900   32.9980   50.1070 N   0  0  0  0  0  0  0  0  0  0  0  0
   60.9090   33.8120   50.2950 C   0  0  0  0  0  0  0  0  0  0  0  0
   60.0040   34.0250   49.2580 C   0  0  0  0  0  0  0  0  0  0  0  0
   60.1860   33.4170   48.0480 N   0  0  0  0  0  0  0  0  0  0  0  0
   59.2430   33.6750   46.9860 C   0  0  0  0  0  0  0  0  0  0  0  0
   57.9200   33.2040   47.0810 C   0  0  0  0  0  0  0  0  0  0  0  0
   57.0040   33.4610   46.0550 C   0  0  0  0  0  0  0  0  0  0  0  0
   57.3990   34.1900   44.9310 C   0  0  0  0  0  0  0  0  0  0  0  0
   58.7090   34.6670   44.8300 C   0  0  0  0  0  0  0  0  0  0  0  0
   59.6280   34.4130   45.8540 C   0  0  0  0  0  0  0  0  0  0  0  0
   61.2520   32.5770   47.8610 C   0  0  0  0  0  0  0  0  0  0  0  0
   61.4130   31.9750   46.7620 O   0  0  0  0  0  0  0  0  0  0  0  0
   62.1670   32.3660   48.9040 C   0  0  0  0  0  0  0  0  0  0  0  0
   63.1450   31.5850   48.7250 O   0  0  0  0  0  0  0  0  0  0  0  0
   59.3870   30.7410   50.2630 C   0  0  0  0  0  0  0  0  0  0  0  0
   58.8480   29.9940   49.2110 C   0  0  0  0  0  0  0  0  0  0  0  0
   59.5150   26.6709   45.5324 H   0  0  0  0  0  0  0  0  0  0  0  0
   58.3286   27.5622   44.5202 H   0  0  0  0  0  0  0  0  0  0  0  0
   60.0567   28.0524   44.5202 H   0  0  0  0  0  0  0  0  0  0  0  0
   58.5410   30.5140   46.9532 H   0  0  0  0  0  0  0  0  0  0  0  0
   59.7631   30.4267   45.6355 H   0  0  0  0  0  0  0  0  0  0  0  0
   58.8457   31.2494   43.3493 H   0  0  0  0  0  0  0  0  0  0  0  0
   56.4114   31.1942   42.1662 H   0  0  0  0  0  0  0  0  0  0  0  0
   54.7552   30.0018   43.8971 H   0  0  0  0  0  0  0  0  0  0  0  0
   61.3131   27.6467   48.8905 H   0  0  0  0  0  0  0  0  0  0  0  0
   62.2555   28.9578   50.7906 H   0  0  0  0  0  0  0  0  0  0  0  0
   62.9976   33.7031   51.8183 H   0  0  0  0  0  0  0  0  0  0  0  0
   63.8996   32.4933   50.8225 H   0  0  0  0  0  0  0  0  0  0  0  0
   60.7530   34.3005   51.2681 H   0  0  0  0  0  0  0  0  0  0  0  0
   59.1386   34.6859   49.4139 H   0  0  0  0  0  0  0  0  0  0  0  0
   57.6048   32.6314   47.9657 H   0  0  0  0  0  0  0  0  0  0  0  0
   55.9719   33.0886   46.1337 H   0  0  0  0  0  0  0  0  0  0  0  0
   56.6782   34.3890   44.1242 H   0  0  0  0  0  0  0  0  0  0  0  0
   59.0176   35.2425   43.9448 H   0  0  0  0  0  0  0  0  0  0  0  0
   60.6571   34.7930   45.7724 H   0  0  0  0  0  0  0  0  0  0  0  0
   58.8393   31.6133   50.6491 H   0  0  0  0  0  0  0  0  0  0  0  0
   57.8872   30.2908   48.7651 H   0  0  0  0  0  0  0  0  0  0  0  0
  1  2  1  0
  2  3  1  0
  3  4  1  0
  4  5  2  0
  5  6  1  0
  6  7  2  0
  7  8  1  0
  2  9  1  0
  9 10  2  0
  9 11  1  0
 11 12  2  0
 12 13  1  0
 13 14  2  0
 14 15  1  0
 15 16  1  0
 16 17  2  0
 16 18  1  0
 18 19  1  0
 19 20  1  0
 20 21  2  0
 21 22  1  0
 22 23  1  0
 23 24  2  0
 24 25  1  0
 25 26  2  0
 26 27  1  0
 27 28  2  0
 22 29  1  0
 29 30  2  0
 29 31  1  0
 31 32  2  0
 14 33  1  0
 33 34  2  0
  8  4  1  0
 34 11  1  0
 31 19  1  0
 28 23  1  0
  1 35  1  0
  1 36  1  0
  1 37  1  0
  3 38  1  0
  3 39  1  0
  5 40  1  0
  6 41  1  0
  7 42  1  0
 12 43  1  0
 13 44  1  0
 18 45  1  0
 18 46  1  0
 20 47  1  0
 21 48  1  0
 24 49  1  0
 25 50  1  0
 26 51  1  0
 27 52  1  0
 28 53  1  0
 33 54  1  0
 34 55  1  0
M  CHG  1  15  -1
M  END
>  <UniqueID>  (71) 
71

>  <SMILES>  (71) 
CN(Cc1ccco1)C(=O)c1ccc([N-]C(=O)Cn2ccn(-c3ccccc3)c(=O)c2=O)cc1

>  <Energy>  (71) 
102.59826606699902

>  <Genealogy>  (71) 
CN(Cc1ccco1)C(=O)c1ccc([N-]C(=O)Cn2ccn(-c3ccccc3)c(=O)c2=O)cc1 (protonated)
CN(Cc1ccco1)C(=O)c1ccc([N-]C(=O)Cn2ccn(-c3ccccc3)c(=O)c2=O)cc1 (3D coordinates assigned)
CN(Cc1ccco1)C(=O)c1ccc([N-]C(=O)Cn2ccn(-c3ccccc3)c(=O)c2=O)cc1 (optimized conformer: 102.59826606699902 kcal/mol)

>  <smiles>  (71) 
CN(Cc1ccco1)C(=O)c1ccc(NC(=O)Cn2ccn(-c3ccccc3)c(=O)c2=O)cc1

>  <score_type>  (71) 
oracle

>  <origin>  (71) 
adg

>  <m_score__min__energy>  (71) 
-9.75

>  <m_primary>  (71) 
energy

$$$$
71:0
     RDKit          3D

 38 40  0  0  0  0  0  0  0  0999 V2000
   63.4200   32.9760   47.1300 C   0  0  0  0  0  0  0  0  0  0  0  0
   62.1910   33.4670   47.6540 O   0  0  0  0  0  0  0  0  0  0  0  0
   60.9490   33.3340   47.0150 C   0  0  0  0  0  0  0  0  0  0  0  0
   60.1680   34.4440   46.6460 C   0  0  0  0  0  0  0  0  0  0  0  0
   58.9400   34.2580   46.0080 C   0  0  0  0  0  0  0  0  0  0  0  0
   58.4780   32.9700   45.7330 C   0  0  0  0  0  0  0  0  0  0  0  0
   59.2430   31.8470   46.0950 C   0  0  0  0  0  0  0  0  0  0  0  0
   58.7530   30.4750   45.8040 C   0  0  0  0  0  0  0  0  0  0  0  0
   59.6380   29.3850   45.8110 C   0  0  0  0  0  0  0  0  0  0  0  0
   59.1790   28.0940   45.5380 C   0  0  0  0  0  0  0  0  0  0  0  0
   57.8220   27.8660   45.2520 C   0  0  0  0  0  0  0  0  0  0  0  0
   57.3240   26.5500   44.9670 N   0  0  0  0  0  0  0  0  0  0  0  0
   56.2270   25.6540   45.9660 S   0  0  0  0  0  0  0  0  0  0  0  0
   54.8730   26.3090   45.9490 O   0  0  0  0  0  0  0  0  0  0  0  0
   56.7520   25.5980   47.3730 O   0  0  0  0  0  0  0  0  0  0  0  0
   56.0900   23.9990   45.3210 C   0  0  0  0  0  0  0  0  0  0  0  0
   54.6590   23.5760   45.2770 C   0  0  0  0  0  0  0  0  0  0  0  0
   54.1210   22.6390   46.0770 N   0  0  0  0  0  0  0  0  0  0  0  0
   52.8660   22.5340   45.6700 N   0  0  0  0  0  0  0  0  0  0  0  0
   52.6520   23.3630   44.6600 N   0  0  0  0  0  0  0  0  0  0  0  0
   53.7620   24.0280   44.3840 N   0  0  0  0  0  0  0  0  0  0  0  0
   56.9300   28.9560   45.2420 C   0  0  0  0  0  0  0  0  0  0  0  0
   55.5750   28.7800   44.9600 O   0  0  0  0  0  0  0  0  0  0  0  0
   57.3960   30.2460   45.5180 C   0  0  0  0  0  0  0  0  0  0  0  0
   60.4800   32.0440   46.7370 C   0  0  0  0  0  0  0  0  0  0  0  0
   64.0911   32.7079   47.9593 H   0  0  0  0  0  0  0  0  0  0  0  0
   63.2261   32.0863   46.5129 H   0  0  0  0  0  0  0  0  0  0  0  0
   63.8925   33.7544   46.5129 H   0  0  0  0  0  0  0  0  0  0  0  0
   60.5257   35.4618   46.8607 H   0  0  0  0  0  0  0  0  0  0  0  0
   58.3342   35.1301   45.7209 H   0  0  0  0  0  0  0  0  0  0  0  0
   57.5095   32.8325   45.2300 H   0  0  0  0  0  0  0  0  0  0  0  0
   60.7027   29.5490   46.0335 H   0  0  0  0  0  0  0  0  0  0  0  0
   59.8846   27.2502   45.5470 H   0  0  0  0  0  0  0  0  0  0  0  0
   56.5082   23.9703   44.3040 H   0  0  0  0  0  0  0  0  0  0  0  0
   56.6456   23.3126   45.9769 H   0  0  0  0  0  0  0  0  0  0  0  0
   55.1420   27.8660   44.9190 H   0  0  0  0  0  0  0  0  0  0  0  0
   56.6920   31.0912   45.5111 H   0  0  0  0  0  0  0  0  0  0  0  0
   61.0868   31.1726   47.0244 H   0  0  0  0  0  0  0  0  0  0  0  0
  1  2  1  0
  2  3  1  0
  3  4  2  0
  4  5  1  0
  5  6  2  0
  6  7  1  0
  7  8  1  0
  8  9  2  0
  9 10  1  0
 10 11  2  0
 11 12  1  0
 12 13  1  0
 13 14  2  0
 13 15  2  0
 13 16  1  0
 16 17  1  0
 17 18  1  0
 18 19  2  0
 19 20  1  0
 20 21  1  0
 11 22  1  0
 22 23  1  0
 22 24  2  0
  7 25  2  0
 25  3  1  0
 24  8  1  0
 21 17  2  0
  1 26  1  0
  1 27  1  0
  1 28  1  0
  4 29  1  0
  5 30  1  0
  6 31  1  0
  9 32  1  0
 10 33  1  0
 16 34  1  0
 16 35  1  0
 23 36  1  0
 24 37  1  0
 25 38  1  0
M  CHG  2  12  -1  20  -1
M  END
>  <UniqueID>  (72) 
72

>  <SMILES>  (72) 
COc1cccc(-c2ccc([N-]S(=O)(=O)Cc3nn[n-]n3)c(O)c2)c1

>  <Energy>  (72) 
81.69328706436248

>  <Genealogy>  (72) 
COc1cccc(-c2ccc([N-]S(=O)(=O)Cc3nn[n-]n3)c(O)c2)c1 (protonated)
COc1cccc(-c2ccc([N-]S(=O)(=O)Cc3nn[n-]n3)c(O)c2)c1 (3D coordinates assigned)
COc1cccc(-c2ccc([N-]S(=O)(=O)Cc3nn[n-]n3)c(O)c2)c1 (optimized conformer: 81.69328706436248 kcal/mol)

>  <smiles>  (72) 
COc1cccc(-c2ccc(NS(=O)(=O)Cc3nn[nH]n3)c(O)c2)c1

>  <score_type>  (72) 
oracle

>  <origin>  (72) 
adg

>  <m_score__min__energy>  (72) 
-12.43

>  <m_primary>  (72) 
energy

$$$$
72:0
     RDKit          3D

 38 40  0  0  0  0  0  0  0  0999 V2000
   58.7250   27.2860   44.0630 C   0  0  0  0  0  0  0  0  0  0  0  0
   58.5430   27.2090   45.3910 C   0  0  0  0  0  0  0  0  0  0  0  0
   58.0340   26.1230   46.1220 C   0  0  0  0  0  0  0  0  0  0  0  0
   57.4570   24.9760   45.7140 C   0  0  0  0  0  0  0  0  0  0  0  0
   56.0110   24.7050   45.7060 C   0  0  0  0  0  0  0  0  0  0  0  0
   55.4600   23.4990   45.4710 N   0  0  0  0  0  0  0  0  0  0  0  0
   54.1380   23.7670   45.4150 C   0  0  0  0  0  0  0  0  0  0  0  0
   53.2730   22.8740   45.2170 O   0  0  0  0  0  0  0  0  0  0  0  0
   53.8160   25.0690   45.5720 N   0  0  0  0  0  0  0  0  0  0  0  0
   55.0150   25.6500   45.7410 C   0  0  0  0  0  0  0  0  0  0  0  0
   55.1950   27.0150   45.9240 O   0  0  0  0  0  0  0  0  0  0  0  0
   58.2090   26.4380   47.4590 C   0  0  0  0  0  0  0  0  0  0  0  0
   58.7660   27.6990   47.5040 C   0  0  0  0  0  0  0  0  0  0  0  0
   59.1050   28.4350   48.7640 C   0  0  0  0  0  0  0  0  0  0  0  0
   58.9530   28.1730   46.2540 N   0  0  0  0  0  0  0  0  0  0  0  0
   59.5850   29.4200   45.9220 C   0  0  0  0  0  0  0  0  0  0  0  0
   60.8330   29.4660   45.7630 O   0  0  0  0  0  0  0  0  0  0  0  0
   58.7580   30.6470   45.6840 C   0  0  0  0  0  0  0  0  0  0  0  0
   57.6270   30.3240   44.7470 C   0  0  0  0  0  0  0  0  0  0  0  0
   57.5840   30.8890   43.4630 C   0  0  0  0  0  0  0  0  0  0  0  0
   56.5150   30.6050   42.6120 C   0  0  0  0  0  0  0  0  0  0  0  0
   55.4940   29.7600   43.0540 C   0  0  0  0  0  0  0  0  0  0  0  0
   55.5440   29.2210   44.3040 N   0  0  0  0  0  0  0  0  0  0  0  0
   56.5730   29.4890   45.1530 C   0  0  0  0  0  0  0  0  0  0  0  0
   59.1355   28.2036   43.6164 H   0  0  0  0  0  0  0  0  0  0  0  0
   58.4636   26.4315   43.4216 H   0  0  0  0  0  0  0  0  0  0  0  0
   58.1222   24.1758   45.3573 H   0  0  0  0  0  0  0  0  0  0  0  0
   57.9528   25.8038   48.3205 H   0  0  0  0  0  0  0  0  0  0  0  0
   58.8231   27.8229   49.6334 H   0  0  0  0  0  0  0  0  0  0  0  0
   60.1862   28.6355   48.7919 H   0  0  0  0  0  0  0  0  0  0  0  0
   58.5547   29.3870   48.7919 H   0  0  0  0  0  0  0  0  0  0  0  0
   58.3492   31.0033   46.6410 H   0  0  0  0  0  0  0  0  0  0  0  0
   59.3886   31.4294   45.2366 H   0  0  0  0  0  0  0  0  0  0  0  0
   58.3924   31.5553   43.1276 H   0  0  0  0  0  0  0  0  0  0  0  0
   56.4767   31.0421   41.6033 H   0  0  0  0  0  0  0  0  0  0  0  0
   54.6473   29.5293   42.3907 H   0  0  0  0  0  0  0  0  0  0  0  0
   54.7720   28.5930   44.6210 H   0  0  0  0  0  0  0  0  0  0  0  0
   56.5795   29.0499   46.1615 H   0  0  0  0  0  0  0  0  0  0  0  0
  1  2  2  0
  2  3  1  0
  3  4  2  3
  4  5  1  0
  5  6  1  0
  6  7  1  0
  7  8  2  0
  7  9  1  0
  9 10  1  0
 10 11  1  0
  3 12  1  0
 12 13  2  0
 13 14  1  0
 13 15  1  0
 15 16  1  0
 16 17  2  0
 16 18  1  0
 18 19  1  0
 19 20  2  0
 20 21  1  0
 21 22  2  0
 22 23  1  0
 23 24  2  0
 15  2  1  0
 24 19  1  0
 10  5  2  0
  1 25  1  0
  1 26  1  0
  4 27  1  0
 12 28  1  0
 14 29  1  0
 14 30  1  0
 14 31  1  0
 18 32  1  0
 18 33  1  0
 20 34  1  0
 21 35  1  0
 22 36  1  0
 23 37  1  0
 24 38  1  0
M  CHG  4   6  -1   9  -1  11  -1  23   1
M  END
>  <UniqueID>  (73) 
73

>  <SMILES>  (73) 
C=c1c(=Cc2[n-]c(=O)[n-]c2[O-])cc(C)n1C(=O)Cc1ccc[nH+]c1

>  <Energy>  (73) 
112.53245574127442

>  <Genealogy>  (73) 
C=c1c(=Cc2[n-]c(=O)[n-]c2[O-])cc(C)n1C(=O)Cc1ccc[nH+]c1 (protonated)
C=c1c(=Cc2[n-]c(=O)[n-]c2[O-])cc(C)n1C(=O)Cc1ccc[nH+]c1 (3D coordinates assigned)
C=c1c(=Cc2[n-]c(=O)[n-]c2[O-])cc(C)n1C(=O)Cc1ccc[nH+]c1 (optimized conformer: 112.53245574127442 kcal/mol)

>  <smiles>  (73) 
C=c1c(=Cc2[nH]c(=O)[nH]c2O)cc(C)n1C(=O)Cc1cccnc1

>  <score_type>  (73) 
oracle

>  <origin>  (73) 
adg

>  <m_score__min__energy>  (73) 
-14.19

>  <m_primary>  (73) 
energy

$$$$
73:0
     RDKit          3D

 54 57  0  0  0  0  0  0  0  0999 V2000
   59.4230   27.0350   47.8920 C   0  0  0  0  0  0  0  0  0  0  0  0
   59.1010   28.0570   47.0890 C   0  0  0  0  0  0  0  0  0  0  0  0
   59.5890   29.2790   47.4350 N   0  0  0  0  0  0  0  0  0  0  0  0
   59.1850   30.4340   46.8510 C   0  0  0  0  0  0  0  0  0  0  0  0
   59.7630   31.6680   47.2890 N   0  0  0  0  0  0  0  0  0  0  0  0
   61.0990   32.0370   46.8090 C   0  0  0  0  0  0  0  0  0  0  0  0
   61.5490   33.3830   47.3870 C   0  0  0  0  0  0  0  0  0  0  0  0
   61.3000   33.4290   48.8370 N   0  0  0  0  0  0  0  0  0  0  0  0
   62.2300   34.1230   49.6960 C   0  0  0  0  0  0  0  0  0  0  0  0
   63.0280   34.9650   49.2030 O   0  0  0  0  0  0  0  0  0  0  0  0
   62.3220   33.8250   51.1670 C   0  0  0  0  0  0  0  0  0  0  0  0
   63.3670   32.7300   51.4110 C   0  0  0  0  0  0  0  0  0  0  0  0
   63.1900   31.4990   50.5320 C   0  0  0  0  0  0  0  0  0  0  0  0
   64.3450   32.4530   50.2760 C   0  0  0  0  0  0  0  0  0  0  0  0
   60.0350   32.9110   49.3840 C   0  0  0  0  0  0  0  0  0  0  0  0
   59.0640   32.4950   48.2750 C   0  0  0  0  0  0  0  0  0  0  0  0
   58.1780   30.4060   45.8740 C   0  0  0  0  0  0  0  0  0  0  0  0
   57.6190   31.6700   45.2640 C   0  0  0  0  0  0  0  0  0  0  0  0
   57.8230   31.6780   43.7520 C   0  0  0  0  0  0  0  0  0  0  0  0
   57.6720   29.1640   45.4730 C   0  0  0  0  0  0  0  0  0  0  0  0
   58.1790   27.9590   46.0010 C   0  0  0  0  0  0  0  0  0  0  0  0
   57.7660   26.8060   45.4150 C   0  0  0  0  0  0  0  0  0  0  0  0
   57.1580   25.6490   46.1030 C   0  0  0  0  0  0  0  0  0  0  0  0
   57.8310   24.5470   46.4830 N   0  0  0  0  0  0  0  0  0  0  0  0
   56.8600   23.7310   46.9440 C   0  0  0  0  0  0  0  0  0  0  0  0
   57.1020   22.5890   47.4160 O   0  0  0  0  0  0  0  0  0  0  0  0
   55.6100   24.2320   46.8590 N   0  0  0  0  0  0  0  0  0  0  0  0
   55.8140   25.4430   46.3150 C   0  0  0  0  0  0  0  0  0  0  0  0
   54.7840   26.3320   46.0230 O   0  0  0  0  0  0  0  0  0  0  0  0
   59.0590   26.0219   47.6658 H   0  0  0  0  0  0  0  0  0  0  0  0
   60.0516   27.2085   48.7779 H   0  0  0  0  0  0  0  0  0  0  0  0
   61.8156   31.2596   47.1125 H   0  0  0  0  0  0  0  0  0  0  0  0
   61.0606   32.1263   45.7133 H   0  0  0  0  0  0  0  0  0  0  0  0
   62.6247   33.5162   47.1998 H   0  0  0  0  0  0  0  0  0  0  0  0
   60.9778   34.1881   46.9016 H   0  0  0  0  0  0  0  0  0  0  0  0
   62.6162   34.7373   51.7066 H   0  0  0  0  0  0  0  0  0  0  0  0
   61.3426   33.4794   51.5294 H   0  0  0  0  0  0  0  0  0  0  0  0
   63.4802   32.9304   52.4867 H   0  0  0  0  0  0  0  0  0  0  0  0
   63.3850   30.4974   50.9429 H   0  0  0  0  0  0  0  0  0  0  0  0
   62.3702   31.0900   49.9232 H   0  0  0  0  0  0  0  0  0  0  0  0
   65.3756   32.1418   50.5019 H   0  0  0  0  0  0  0  0  0  0  0  0
   64.7068   33.0200   49.4056 H   0  0  0  0  0  0  0  0  0  0  0  0
   60.2515   32.0360   50.0145 H   0  0  0  0  0  0  0  0  0  0  0  0
   59.5619   33.7129   49.9697 H   0  0  0  0  0  0  0  0  0  0  0  0
   58.2348   31.9196   48.7124 H   0  0  0  0  0  0  0  0  0  0  0  0
   58.6698   33.3951   47.7805 H   0  0  0  0  0  0  0  0  0  0  0  0
   56.5427   31.7308   45.4830 H   0  0  0  0  0  0  0  0  0  0  0  0
   58.1469   32.5332   45.6956 H   0  0  0  0  0  0  0  0  0  0  0  0
   58.8990   31.7202   43.5274 H   0  0  0  0  0  0  0  0  0  0  0  0
   57.3937   30.7623   43.3192 H   0  0  0  0  0  0  0  0  0  0  0  0
   57.3233   32.5572   43.3192 H   0  0  0  0  0  0  0  0  0  0  0  0
   56.8616   29.1273   44.7301 H   0  0  0  0  0  0  0  0  0  0  0  0
   57.8964   26.7260   44.3257 H   0  0  0  0  0  0  0  0  0  0  0  0
   54.1930   26.7140   46.7530 H   0  0  0  0  0  0  0  0  0  0  0  0
  1  2  2  0
  2  3  1  0
  3  4  2  0
  4  5  1  0
  5  6  1  0
  6  7  1  0
  7  8  1  0
  8  9  1  0
  9 10  2  0
  9 11  1  0
 11 12  1  0
 12 13  1  0
 13 14  1  0
  8 15  1  0
 15 16  1  0
  4 17  1  0
 17 18  1  0
 18 19  1  0
 17 20  2  0
 20 21  1  0
 21 22  2  3
 22 23  1  0
 23 24  1  0
 24 25  1  0
 25 26  2  0
 25 27  1  0
 27 28  1  0
 28 29  1  0
 21  2  1  0
 28 23  2  0
 16  5  1  0
 14 12  1  0
  1 30  1  0
  1 31  1  0
  6 32  1  0
  6 33  1  0
  7 34  1  0
  7 35  1  0
 11 36  1  0
 11 37  1  0
 12 38  1  0
 13 39  1  0
 13 40  1  0
 14 41  1  0
 14 42  1  0
 15 43  1  0
 15 44  1  0
 16 45  1  0
 16 46  1  0
 18 47  1  0
 18 48  1  0
 19 49  1  0
 19 50  1  0
 19 51  1  0
 20 52  1  0
 22 53  1  0
 29 54  1  0
M  CHG  2  24  -1  27  -1
M  END
>  <UniqueID>  (74) 
74

>  <SMILES>  (74) 
C=c1nc(N2CCN(C(=O)CC3CC3)CC2)c(CC)cc1=Cc1[n-]c(=O)[n-]c1O

>  <Energy>  (74) 
368.95877428213447

>  <Genealogy>  (74) 
C=c1nc(N2CCN(C(=O)CC3CC3)CC2)c(CC)cc1=Cc1[n-]c(=O)[n-]c1O (protonated)
C=c1nc(N2CCN(C(=O)CC3CC3)CC2)c(CC)cc1=Cc1[n-]c(=O)[n-]c1O (3D coordinates assigned)
C=c1nc(N2CCN(C(=O)CC3CC3)CC2)c(CC)cc1=Cc1[n-]c(=O)[n-]c1O (nonaromatic ring conformer: 368.95877428213447 kcal/mol)

>  <smiles>  (74) 
C=c1nc(N2CCN(C(=O)CC3CC3)CC2)c(CC)cc1=Cc1[nH]c(=O)[nH]c1O

>  <score_type>  (74) 
oracle

>  <origin>  (74) 
adg

>  <m_score__min__energy>  (74) 
-12.359999999999999

>  <m_primary>  (74) 
energy

$$$$
74:0
     RDKit          3D

 47 48  0  0  0  0  0  0  0  0999 V2000
   55.3670   20.6260   47.5280 C   0  0  0  0  0  0  0  0  0  0  0  0
   54.9950   22.0440   47.8790 C   0  0  0  0  0  0  0  0  0  0  0  0
   56.0850   23.0560   48.1500 C   0  0  0  0  0  0  0  0  0  0  0  0
   53.6860   22.3680   47.9450 C   0  0  0  0  0  0  0  0  0  0  0  0
   52.5880   21.6360   47.2120 C   0  0  0  0  0  0  0  0  0  0  0  0
   51.9480   22.6170   45.8080 S   0  0  0  0  0  0  0  0  0  0  0  0
   53.5190   23.3950   45.4410 C   0  0  0  0  0  0  0  0  0  0  0  0
   53.7670   24.6590   45.8650 N   0  0  0  0  0  0  0  0  0  0  0  0
   54.9460   25.2720   45.5930 C   0  0  0  0  0  0  0  0  0  0  0  0
   55.1330   26.4500   46.0000 O   0  0  0  0  0  0  0  0  0  0  0  0
   55.9430   24.5960   44.8610 C   0  0  0  0  0  0  0  0  0  0  0  0
   57.2470   25.2920   44.5250 C   0  0  0  0  0  0  0  0  0  0  0  0
   58.1520   25.3710   45.7590 C   0  0  0  0  0  0  0  0  0  0  0  0
   58.4170   26.7980   46.1210 C   0  0  0  0  0  0  0  0  0  0  0  0
   59.5600   27.1340   46.5340 O   0  0  0  0  0  0  0  0  0  0  0  0
   57.3700   27.7660   45.9820 N   0  0  0  0  0  0  0  0  0  0  0  0
   57.4990   29.0900   45.4410 C   0  0  0  0  0  0  0  0  0  0  0  0
   58.6920   29.8280   45.5670 C   0  0  0  0  0  0  0  0  0  0  0  0
   58.7760   31.1240   45.0490 C   0  0  0  0  0  0  0  0  0  0  0  0
   57.6740   31.6990   44.4150 C   0  0  0  0  0  0  0  0  0  0  0  0
   56.4770   30.9840   44.3080 C   0  0  0  0  0  0  0  0  0  0  0  0
   56.3850   29.6830   44.8250 C   0  0  0  0  0  0  0  0  0  0  0  0
   55.1890   28.9730   44.7270 O   0  0  0  0  0  0  0  0  0  0  0  0
   55.6530   23.2850   44.4140 C   0  0  0  0  0  0  0  0  0  0  0  0
   56.6320   22.4720   43.6180 C   0  0  0  0  0  0  0  0  0  0  0  0
   54.4560   22.7220   44.7280 N   0  0  0  0  0  0  0  0  0  0  0  0
   55.5188   20.0475   48.4512 H   0  0  0  0  0  0  0  0  0  0  0  0
   54.5581   20.1700   46.9383 H   0  0  0  0  0  0  0  0  0  0  0  0
   56.2956   20.6258   46.9383 H   0  0  0  0  0  0  0  0  0  0  0  0
   56.2131   23.1750   49.2360 H   0  0  0  0  0  0  0  0  0  0  0  0
   57.0286   22.7065   47.7056 H   0  0  0  0  0  0  0  0  0  0  0  0
   55.8064   24.0229   47.7056 H   0  0  0  0  0  0  0  0  0  0  0  0
   53.4004   23.2230   48.5754 H   0  0  0  0  0  0  0  0  0  0  0  0
   52.9861   20.6841   46.8306 H   0  0  0  0  0  0  0  0  0  0  0  0
   51.7608   21.4613   47.9158 H   0  0  0  0  0  0  0  0  0  0  0  0
   57.7635   24.7288   43.7338 H   0  0  0  0  0  0  0  0  0  0  0  0
   57.0249   26.3137   44.1832 H   0  0  0  0  0  0  0  0  0  0  0  0
   57.6578   24.8686   46.6036 H   0  0  0  0  0  0  0  0  0  0  0  0
   59.1083   24.8770   45.5323 H   0  0  0  0  0  0  0  0  0  0  0  0
   59.5606   29.3833   46.0747 H   0  0  0  0  0  0  0  0  0  0  0  0
   59.7135   31.6919   45.1415 H   0  0  0  0  0  0  0  0  0  0  0  0
   57.7468   32.7148   43.9993 H   0  0  0  0  0  0  0  0  0  0  0  0
   55.6057   31.4426   43.8175 H   0  0  0  0  0  0  0  0  0  0  0  0
   55.1490   27.9750   44.8950 H   0  0  0  0  0  0  0  0  0  0  0  0
   57.2943   21.9220   44.3028 H   0  0  0  0  0  0  0  0  0  0  0  0
   56.0858   21.7581   42.9839 H   0  0  0  0  0  0  0  0  0  0  0  0
   57.2334   23.1400   42.9839 H   0  0  0  0  0  0  0  0  0  0  0  0
  1  2  1  0
  2  3  1  0
  2  4  2  3
  4  5  1  0
  5  6  1  0
  6  7  1  0
  7  8  2  0
  8  9  1  0
  9 10  2  0
  9 11  1  0
 11 12  1  0
 12 13  1  0
 13 14  1  0
 14 15  2  0
 14 16  1  0
 16 17  1  0
 17 18  2  0
 18 19  1  0
 19 20  2  0
 20 21  1  0
 21 22  2  0
 22 23  1  0
 11 24  2  0
 24 25  1  0
 24 26  1  0
 26  7  1  0
 22 17  1  0
  1 27  1  0
  1 28  1  0
  1 29  1  0
  3 30  1  0
  3 31  1  0
  3 32  1  0
  4 33  1  0
  5 34  1  0
  5 35  1  0
 12 36  1  0
 12 37  1  0
 13 38  1  0
 13 39  1  0
 18 40  1  0
 19 41  1  0
 20 42  1  0
 21 43  1  0
 23 44  1  0
 25 45  1  0
 25 46  1  0
 25 47  1  0
M  CHG  2  16  -1  26  -1
M  END
>  <UniqueID>  (75) 
75

>  <SMILES>  (75) 
CC(C)=CCSc1nc(=O)c(CCC(=O)[N-]c2ccccc2O)c(C)[n-]1

>  <Energy>  (75) 
39.75029359765973

>  <Genealogy>  (75) 
CC(C)=CCSc1nc(=O)c(CCC(=O)[N-]c2ccccc2O)c(C)[n-]1 (protonated)
CC(C)=CCSc1nc(=O)c(CCC(=O)[N-]c2ccccc2O)c(C)[n-]1 (3D coordinates assigned)
CC(C)=CCSc1nc(=O)c(CCC(=O)[N-]c2ccccc2O)c(C)[n-]1 (optimized conformer: 39.75029359765973 kcal/mol)

>  <smiles>  (75) 
CC(C)=CCSc1nc(=O)c(CCC(=O)Nc2ccccc2O)c(C)[nH]1

>  <score_type>  (75) 
oracle

>  <origin>  (75) 
adg

>  <m_score__min__energy>  (75) 
-12.44

>  <m_primary>  (75) 
energy

$$$$
75:0
     RDKit          3D

 38 40  0  0  0  0  0  0  0  0999 V2000
   56.2250   31.0610   44.8690 O   0  0  0  0  0  0  0  0  0  0  0  0
   57.4840   31.1290   44.9010 C   0  0  0  0  0  0  0  0  0  0  0  0
   58.2670   30.0790   44.1580 C   0  0  0  0  0  0  0  0  0  0  0  0
   58.7840   29.0280   45.0930 C   0  0  0  0  0  0  0  0  0  0  0  0
   60.1180   28.6880   45.2860 C   0  0  0  0  0  0  0  0  0  0  0  0
   60.2990   27.7010   46.2630 C   0  0  0  0  0  0  0  0  0  0  0  0
   59.1160   27.2730   46.8500 C   0  0  0  0  0  0  0  0  0  0  0  0
   57.8430   28.1230   46.1520 S   0  0  0  0  0  0  0  0  0  0  0  0
   58.1240   32.1990   45.6390 N   0  0  0  0  0  0  0  0  0  0  0  0
   57.7250   33.6020   45.4780 C   0  0  0  0  0  0  0  0  0  0  0  0
   58.9520   34.4900   45.2270 C   0  0  0  0  0  0  0  0  0  0  0  0
   59.8770   34.5600   46.4620 C   0  0  0  0  0  0  0  0  0  0  0  0
   60.9160   33.5020   46.5330 N   0  0  0  0  0  0  0  0  0  0  0  0
   61.6960   33.6330   47.7730 C   0  0  0  0  0  0  0  0  0  0  0  0
   63.1960   33.7250   47.5400 C   0  0  0  0  0  0  0  0  0  0  0  0
   62.5880   32.4350   48.0640 C   0  0  0  0  0  0  0  0  0  0  0  0
   60.4600   32.0990   46.3770 C   0  0  0  0  0  0  0  0  0  0  0  0
   58.9940   31.8670   46.7740 C   0  0  0  0  0  0  0  0  0  0  0  0
   57.6132   29.6050   43.4111 H   0  0  0  0  0  0  0  0  0  0  0  0
   59.1249   30.5640   43.6693 H   0  0  0  0  0  0  0  0  0  0  0  0
   60.9472   29.1475   44.7280 H   0  0  0  0  0  0  0  0  0  0  0  0
   61.2862   27.3022   46.5394 H   0  0  0  0  0  0  0  0  0  0  0  0
   59.0264   26.5092   47.6365 H   0  0  0  0  0  0  0  0  0  0  0  0
   57.0376   33.6861   44.6234 H   0  0  0  0  0  0  0  0  0  0  0  0
   57.2292   33.9367   46.4011 H   0  0  0  0  0  0  0  0  0  0  0  0
   59.5208   34.0789   44.3800 H   0  0  0  0  0  0  0  0  0  0  0  0
   58.5964   35.5081   45.0103 H   0  0  0  0  0  0  0  0  0  0  0  0
   60.3847   35.5358   46.4523 H   0  0  0  0  0  0  0  0  0  0  0  0
   59.2289   34.4113   47.3383 H   0  0  0  0  0  0  0  0  0  0  0  0
   60.9560   34.2123   48.3446 H   0  0  0  0  0  0  0  0  0  0  0  0
   63.5914   33.7696   46.5145 H   0  0  0  0  0  0  0  0  0  0  0  0
   63.9952   34.4012   47.8778 H   0  0  0  0  0  0  0  0  0  0  0  0
   62.5430   31.5460   47.4178 H   0  0  0  0  0  0  0  0  0  0  0  0
   62.7645   31.7908   48.9380 H   0  0  0  0  0  0  0  0  0  0  0  0
   60.5817   31.8117   45.3222 H   0  0  0  0  0  0  0  0  0  0  0  0
   61.0727   31.4893   47.0573 H   0  0  0  0  0  0  0  0  0  0  0  0
   58.8509   30.8118   47.0500 H   0  0  0  0  0  0  0  0  0  0  0  0
   58.7396   32.5067   47.6319 H   0  0  0  0  0  0  0  0  0  0  0  0
  1  2  2  0
  2  3  1  0
  3  4  1  0
  4  5  2  0
  5  6  1  0
  6  7  2  0
  7  8  1  0
  2  9  1  0
  9 10  1  0
 10 11  1  0
 11 12  1  0
 12 13  1  0
 13 14  1  0
 14 15  1  0
 15 16  1  0
 13 17  1  0
 17 18  1  0
  8  4  1  0
 18  9  1  0
 16 14  1  0
  3 19  1  0
  3 20  1  0
  5 21  1  0
  6 22  1  0
  7 23  1  0
 10 24  1  0
 10 25  1  0
 11 26  1  0
 11 27  1  0
 12 28  1  0
 12 29  1  0
 14 30  1  0
 15 31  1  0
 15 32  1  0
 16 33  1  0
 16 34  1  0
 17 35  1  0
 17 36  1  0
 18 37  1  0
 18 38  1  0
M  END
>  <UniqueID>  (76) 
76

>  <SMILES>  (76) 
O=C(Cc1cccs1)N1CCCN(C2CC2)CC1

>  <Energy>  (76) 
336.09142098797423

>  <Genealogy>  (76) 
O=C(Cc1cccs1)N1CCCN(C2CC2)CC1 (3D coordinates assigned)
O=C(Cc1cccs1)N1CCCN(C2CC2)CC1 (nonaromatic ring conformer: 336.09142098797423 kcal/mol)

>  <smiles>  (76) 
O=C(Cc1cccs1)N1CCCN(C2CC2)CC1

>  <score_type>  (76) 
oracle

>  <origin>  (76) 
adg

>  <m_score__min__energy>  (76) 
-5.3499999999999996

>  <m_primary>  (76) 
energy

$$$$
76:0
     RDKit          3D

 49 52  0  0  0  0  0  0  0  0999 V2000
   55.4580   29.4070   52.2560 O   0  0  0  0  0  0  0  0  0  0  0  0
   55.1450   30.6010   51.9950 C   0  0  0  0  0  0  0  0  0  0  0  0
   56.1660   31.5620   51.6830 N   0  0  0  0  0  0  0  0  0  0  0  0
   57.4880   31.2010   51.2480 C   0  0  0  0  0  0  0  0  0  0  0  0
   58.1830   30.1830   51.9170 C   0  0  0  0  0  0  0  0  0  0  0  0
   59.4730   29.8270   51.5160 C   0  0  0  0  0  0  0  0  0  0  0  0
   60.0840   30.4910   50.4490 C   0  0  0  0  0  0  0  0  0  0  0  0
   59.4110   31.5230   49.7830 C   0  0  0  0  0  0  0  0  0  0  0  0
   60.1760   32.3580   48.4280 S   0  0  0  0  0  0  0  0  0  0  0  0
   60.6630   31.3420   47.4300 O   0  0  0  0  0  0  0  0  0  0  0  0
   61.3680   33.1260   48.9280 O   0  0  0  0  0  0  0  0  0  0  0  0
   59.0640   33.4560   47.6450 N   0  0  0  0  0  0  0  0  0  0  0  0
   57.8730   32.7450   47.1160 C   0  0  0  0  0  0  0  0  0  0  0  0
   57.9210   32.5430   45.5950 C   0  0  0  0  0  0  0  0  0  0  0  0
   58.0450   33.8870   44.8560 C   0  0  0  0  0  0  0  0  0  0  0  0
   58.8040   34.9470   45.6720 C   0  0  0  0  0  0  0  0  0  0  0  0
   59.7780   34.2900   46.6540 C   0  0  0  0  0  0  0  0  0  0  0  0
   58.1210   31.8860   50.1940 C   0  0  0  0  0  0  0  0  0  0  0  0
   53.7260   30.9970   52.0450 C   0  0  0  0  0  0  0  0  0  0  0  0
   52.9920   31.5990   51.0380 C   0  0  0  0  0  0  0  0  0  0  0  0
   51.7200   31.7480   51.5450 C   0  0  0  0  0  0  0  0  0  0  0  0
   50.6570   32.3170   50.8540 O   0  0  0  0  0  0  0  0  0  0  0  0
   51.6340   31.2710   52.8030 N   0  0  0  0  0  0  0  0  0  0  0  0
   50.4070   31.2730   53.6170 C   0  0  0  0  0  0  0  0  0  0  0  0
   50.5840   31.7400   55.0550 C   0  0  0  0  0  0  0  0  0  0  0  0
   49.9050   32.6480   54.0360 C   0  0  0  0  0  0  0  0  0  0  0  0
   52.8650   30.8040   53.1130 C   0  0  0  0  0  0  0  0  0  0  0  0
   55.9700   32.5720   51.8650 H   0  0  0  0  0  0  0  0  0  0  0  0
   57.7097   29.6619   52.7622 H   0  0  0  0  0  0  0  0  0  0  0  0
   60.0088   29.0225   52.0411 H   0  0  0  0  0  0  0  0  0  0  0  0
   61.0967   30.2022   50.1312 H   0  0  0  0  0  0  0  0  0  0  0  0
   57.8107   31.7586   47.5987 H   0  0  0  0  0  0  0  0  0  0  0  0
   56.9933   33.3671   47.3375 H   0  0  0  0  0  0  0  0  0  0  0  0
   58.7885   31.9148   45.3442 H   0  0  0  0  0  0  0  0  0  0  0  0
   56.9853   32.0584   45.2795 H   0  0  0  0  0  0  0  0  0  0  0  0
   58.5819   33.7202   43.9105 H   0  0  0  0  0  0  0  0  0  0  0  0
   57.0268   34.2666   44.6850 H   0  0  0  0  0  0  0  0  0  0  0  0
   59.3683   35.5942   44.9844 H   0  0  0  0  0  0  0  0  0  0  0  0
   58.0737   35.5373   46.2449 H   0  0  0  0  0  0  0  0  0  0  0  0
   60.4798   33.6562   46.0921 H   0  0  0  0  0  0  0  0  0  0  0  0
   60.3153   35.0844   47.1927 H   0  0  0  0  0  0  0  0  0  0  0  0
   57.5995   32.7124   49.6890 H   0  0  0  0  0  0  0  0  0  0  0  0
   53.3496   31.8963   50.0412 H   0  0  0  0  0  0  0  0  0  0  0  0
   49.9564   30.3945   53.1321 H   0  0  0  0  0  0  0  0  0  0  0  0
   49.9934   31.2782   55.8600 H   0  0  0  0  0  0  0  0  0  0  0  0
   51.4383   31.8418   55.7404 H   0  0  0  0  0  0  0  0  0  0  0  0
   48.8244   32.8415   54.1055 H   0  0  0  0  0  0  0  0  0  0  0  0
   50.0662   33.6766   53.6811 H   0  0  0  0  0  0  0  0  0  0  0  0
   53.1415   30.3398   54.0711 H   0  0  0  0  0  0  0  0  0  0  0  0
  1  2  2  0
  2  3  1  0
  3  4  1  0
  4  5  2  0
  5  6  1  0
  6  7  2  0
  7  8  1  0
  8  9  1  0
  9 10  2  0
  9 11  2  0
  9 12  1  0
 12 13  1  0
 13 14  1  0
 14 15  1  0
 15 16  1  0
 16 17  1  0
  8 18  2  0
  2 19  1  0
 19 20  1  0
 20 21  2  0
 21 22  1  0
 21 23  1  0
 23 24  1  0
 24 25  1  0
 25 26  1  0
 23 27  1  0
 18  4  1  0
 27 19  2  0
 17 12  1  0
 26 24  1  0
  3 28  1  0
  5 29  1  0
  6 30  1  0
  7 31  1  0
 13 32  1  0
 13 33  1  0
 14 34  1  0
 14 35  1  0
 15 36  1  0
 15 37  1  0
 16 38  1  0
 16 39  1  0
 17 40  1  0
 17 41  1  0
 18 42  1  0
 20 43  1  0
 24 44  1  0
 25 45  1  0
 25 46  1  0
 26 47  1  0
 26 48  1  0
 27 49  1  0
M  CHG  1  22  -1
M  END
>  <UniqueID>  (77) 
77

>  <SMILES>  (77) 
O=C(Nc1cccc(S(=O)(=O)N2CCCCC2)c1)c1cc([O-])n(C2CC2)c1

>  <Energy>  (77) 
352.7881563777097

>  <Genealogy>  (77) 
O=C(Nc1cccc(S(=O)(=O)N2CCCCC2)c1)c1cc([O-])n(C2CC2)c1 (protonated)
O=C(Nc1cccc(S(=O)(=O)N2CCCCC2)c1)c1cc([O-])n(C2CC2)c1 (3D coordinates assigned)
O=C(Nc1cccc(S(=O)(=O)N2CCCCC2)c1)c1cc([O-])n(C2CC2)c1 (nonaromatic ring conformer: 352.7881563777097 kcal/mol)

>  <smiles>  (77) 
O=C(Nc1cccc(S(=O)(=O)N2CCCCC2)c1)c1cc(O)n(C2CC2)c1

>  <score_type>  (77) 
oracle

>  <origin>  (77) 
adg

>  <m_score__min__energy>  (77) 
-12.630000000000001

>  <m_primary>  (77) 
energy

$$$$
77:0
     RDKit          3D

 40 42  0  0  0  0  0  0  0  0999 V2000
   55.2010   29.3360   44.8620 O   0  0  0  0  0  0  0  0  0  0  0  0
   56.3060   29.9110   44.6710 C   0  0  0  0  0  0  0  0  0  0  0  0
   57.5510   29.0760   44.5920 C   0  0  0  0  0  0  0  0  0  0  0  0
   57.8510   28.2500   46.1910 S   0  0  0  0  0  0  0  0  0  0  0  0
   57.0020   26.7360   45.7500 C   0  0  0  0  0  0  0  0  0  0  0  0
   55.8940   26.2980   46.3890 N   0  0  0  0  0  0  0  0  0  0  0  0
   55.6090   25.1850   45.6880 C   0  0  0  0  0  0  0  0  0  0  0  0
   54.6090   24.4550   45.9220 O   0  0  0  0  0  0  0  0  0  0  0  0
   56.4950   24.9590   44.7030 N   0  0  0  0  0  0  0  0  0  0  0  0
   56.4800   23.8860   43.7090 C   0  0  0  0  0  0  0  0  0  0  0  0
   56.7060   22.5450   44.3530 C   0  0  0  0  0  0  0  0  0  0  0  0
   57.4850   22.4320   45.5150 C   0  0  0  0  0  0  0  0  0  0  0  0
   57.6520   21.1790   46.1090 C   0  0  0  0  0  0  0  0  0  0  0  0
   57.0330   20.0580   45.5520 C   0  0  0  0  0  0  0  0  0  0  0  0
   56.2530   20.2090   44.4020 C   0  0  0  0  0  0  0  0  0  0  0  0
   56.1060   21.4360   43.8360 N   0  0  0  0  0  0  0  0  0  0  0  0
   57.3700   25.9470   44.7200 N   0  0  0  0  0  0  0  0  0  0  0  0
   56.3200   31.3360   44.5210 N   0  0  0  0  0  0  0  0  0  0  0  0
   57.4340   32.1140   43.9930 C   0  0  0  0  0  0  0  0  0  0  0  0
   58.0030   32.9850   45.0800 C   0  0  0  0  0  0  0  0  0  0  0  0
   58.7110   34.1530   44.7470 C   0  0  0  0  0  0  0  0  0  0  0  0
   59.2840   34.9400   45.7510 C   0  0  0  0  0  0  0  0  0  0  0  0
   59.1590   34.5670   47.0910 C   0  0  0  0  0  0  0  0  0  0  0  0
   58.4600   33.4060   47.4300 C   0  0  0  0  0  0  0  0  0  0  0  0
   57.8870   32.6120   46.4300 C   0  0  0  0  0  0  0  0  0  0  0  0
   57.4304   28.3157   43.8062 H   0  0  0  0  0  0  0  0  0  0  0  0
   58.4067   29.7252   44.3548 H   0  0  0  0  0  0  0  0  0  0  0  0
   55.5041   23.8805   43.2016 H   0  0  0  0  0  0  0  0  0  0  0  0
   57.2908   24.0674   42.9881 H   0  0  0  0  0  0  0  0  0  0  0  0
   57.9596   23.3220   45.9538 H   0  0  0  0  0  0  0  0  0  0  0  0
   58.2696   21.0755   47.0134 H   0  0  0  0  0  0  0  0  0  0  0  0
   57.1579   19.0672   46.0131 H   0  0  0  0  0  0  0  0  0  0  0  0
   55.7579   19.3344   43.9548 H   0  0  0  0  0  0  0  0  0  0  0  0
   58.2144   31.4320   43.6245 H   0  0  0  0  0  0  0  0  0  0  0  0
   57.0777   32.7473   43.1672 H   0  0  0  0  0  0  0  0  0  0  0  0
   58.8147   34.4490   43.6927 H   0  0  0  0  0  0  0  0  0  0  0  0
   59.8342   35.8545   45.4848 H   0  0  0  0  0  0  0  0  0  0  0  0
   59.6108   35.1872   47.8792 H   0  0  0  0  0  0  0  0  0  0  0  0
   58.3596   33.1150   48.4860 H   0  0  0  0  0  0  0  0  0  0  0  0
   57.3448   31.6942   46.7012 H   0  0  0  0  0  0  0  0  0  0  0  0
  1  2  2  0
  2  3  1  0
  3  4  1  0
  4  5  1  0
  5  6  2  0
  6  7  1  0
  7  8  2  0
  7  9  1  0
  9 10  1  0
 10 11  1  0
 11 12  2  0
 12 13  1  0
 13 14  2  0
 14 15  1  0
 15 16  2  0
  9 17  1  0
  2 18  1  0
 18 19  1  0
 19 20  1  0
 20 21  2  0
 21 22  1  0
 22 23  2  0
 23 24  1  0
 24 25  2  0
 17  5  1  0
 25 20  1  0
 16 11  1  0
  3 26  1  0
  3 27  1  0
 10 28  1  0
 10 29  1  0
 12 30  1  0
 13 31  1  0
 14 32  1  0
 15 33  1  0
 19 34  1  0
 19 35  1  0
 21 36  1  0
 22 37  1  0
 23 38  1  0
 24 39  1  0
 25 40  1  0
M  CHG  2  17  -1  18  -1
M  END
>  <UniqueID>  (78) 
78

>  <SMILES>  (78) 
O=C(CSc1nc(=O)n(Cc2ccccn2)[n-]1)[N-]Cc1ccccc1

>  <Energy>  (78) 
67.01539654806406

>  <Genealogy>  (78) 
O=C(CSc1nc(=O)n(Cc2ccccn2)[n-]1)[N-]Cc1ccccc1 (protonated)
O=C(CSc1nc(=O)n(Cc2ccccn2)[n-]1)[N-]Cc1ccccc1 (3D coordinates assigned)
O=C(CSc1nc(=O)n(Cc2ccccn2)[n-]1)[N-]Cc1ccccc1 (optimized conformer: 67.01539654806406 kcal/mol)

>  <smiles>  (78) 
O=C(CSc1nc(=O)n(Cc2ccccn2)[nH]1)NCc1ccccc1

>  <score_type>  (78) 
oracle

>  <origin>  (78) 
adg

>  <m_score__min__energy>  (78) 
-11.58

>  <m_primary>  (78) 
energy

$$$$
78:0
     RDKit          3D

 42 44  0  0  0  0  0  0  0  0999 V2000
   55.3710   23.8110   46.5550 C   0  0  0  0  0  0  0  0  0  0  0  0
   56.2820   24.7750   46.4440 C   0  0  0  0  0  0  0  0  0  0  0  0
   57.6080   24.5590   46.5600 N   0  0  0  0  0  0  0  0  0  0  0  0
   58.1940   25.7640   46.3820 C   0  0  0  0  0  0  0  0  0  0  0  0
   59.5160   25.9240   46.4610 C   0  0  0  0  0  0  0  0  0  0  0  0
   57.2410   26.7590   46.1520 C   0  0  0  0  0  0  0  0  0  0  0  0
   57.4470   28.1980   45.8740 C   0  0  0  0  0  0  0  0  0  0  0  0
   58.2560   28.8630   46.5750 O   0  0  0  0  0  0  0  0  0  0  0  0
   56.7100   28.8440   44.8240 N   0  0  0  0  0  0  0  0  0  0  0  0
   57.0820   30.1050   44.2400 C   0  0  0  0  0  0  0  0  0  0  0  0
   57.0120   30.3190   42.8530 C   0  0  0  0  0  0  0  0  0  0  0  0
   57.3500   31.5620   42.3140 C   0  0  0  0  0  0  0  0  0  0  0  0
   57.7560   32.6040   43.1510 C   0  0  0  0  0  0  0  0  0  0  0  0
   57.8280   32.4120   44.5400 C   0  0  0  0  0  0  0  0  0  0  0  0
   58.2340   33.5170   45.4370 C   0  0  0  0  0  0  0  0  0  0  0  0
   57.6010   34.6070   45.3890 O   0  0  0  0  0  0  0  0  0  0  0  0
   59.3250   33.3750   46.3680 N   0  0  0  0  0  0  0  0  0  0  0  0
   59.6110   32.0950   47.0240 C   0  0  0  0  0  0  0  0  0  0  0  0
   59.9990   32.3460   48.4840 C   0  0  0  0  0  0  0  0  0  0  0  0
   61.0460   33.2970   48.5690 O   0  0  0  0  0  0  0  0  0  0  0  0
   60.5920   34.5540   48.1010 C   0  0  0  0  0  0  0  0  0  0  0  0
   60.2470   34.4890   46.6100 C   0  0  0  0  0  0  0  0  0  0  0  0
   57.4670   31.1640   45.0780 C   0  0  0  0  0  0  0  0  0  0  0  0
   56.0260   26.1060   46.1950 C   0  0  0  0  0  0  0  0  0  0  0  0
   54.7720   26.6750   45.9900 O   0  0  0  0  0  0  0  0  0  0  0  0
   54.3023   24.0495   46.4505 H   0  0  0  0  0  0  0  0  0  0  0  0
   55.6868   22.7758   46.7513 H   0  0  0  0  0  0  0  0  0  0  0  0
   59.9595   26.9193   46.3106 H   0  0  0  0  0  0  0  0  0  0  0  0
   60.1626   25.0606   46.6765 H   0  0  0  0  0  0  0  0  0  0  0  0
   55.7940   28.4270   44.5430 H   0  0  0  0  0  0  0  0  0  0  0  0
   56.6895   29.5036   42.1888 H   0  0  0  0  0  0  0  0  0  0  0  0
   57.2964   31.7211   41.2269 H   0  0  0  0  0  0  0  0  0  0  0  0
   58.0208   33.5805   42.7195 H   0  0  0  0  0  0  0  0  0  0  0  0
   58.7165   31.4559   46.9869 H   0  0  0  0  0  0  0  0  0  0  0  0
   60.4411   31.5938   46.5046 H   0  0  0  0  0  0  0  0  0  0  0  0
   59.1225   32.7245   49.0303 H   0  0  0  0  0  0  0  0  0  0  0  0
   60.3451   31.3996   48.9250 H   0  0  0  0  0  0  0  0  0  0  0  0
   59.6946   34.8462   48.6661 H   0  0  0  0  0  0  0  0  0  0  0  0
   61.3936   35.2934   48.2447 H   0  0  0  0  0  0  0  0  0  0  0  0
   59.7710   35.4319   46.3027 H   0  0  0  0  0  0  0  0  0  0  0  0
   61.1675   34.3351   46.0278 H   0  0  0  0  0  0  0  0  0  0  0  0
   57.4864   31.0156   46.1678 H   0  0  0  0  0  0  0  0  0  0  0  0
  1  2  2  0
  2  3  1  0
  3  4  1  0
  4  5  2  0
  4  6  1  0
  6  7  1  0
  7  8  2  0
  7  9  1  0
  9 10  1  0
 10 11  2  0
 11 12  1  0
 12 13  2  0
 13 14  1  0
 14 15  1  0
 15 16  2  0
 15 17  1  0
 17 18  1  0
 18 19  1  0
 19 20  1  0
 20 21  1  0
 21 22  1  0
 14 23  2  0
  6 24  2  0
 24 25  1  0
 24  2  1  0
 23 10  1  0
 22 17  1  0
  1 26  1  0
  1 27  1  0
  5 28  1  0
  5 29  1  0
  9 30  1  0
 11 31  1  0
 12 32  1  0
 13 33  1  0
 18 34  1  0
 18 35  1  0
 19 36  1  0
 19 37  1  0
 21 38  1  0
 21 39  1  0
 22 40  1  0
 22 41  1  0
 23 42  1  0
M  CHG  2   3  -1  25  -1
M  END
>  <UniqueID>  (79) 
79

>  <SMILES>  (79) 
C=c1[n-]c(=C)c(C(=O)Nc2cccc(C(=O)N3CCOCC3)c2)c1[O-]

>  <Energy>  (79) 
83.20895437963112

>  <Genealogy>  (79) 
C=c1[n-]c(=C)c(C(=O)Nc2cccc(C(=O)N3CCOCC3)c2)c1[O-] (protonated)
C=c1[n-]c(=C)c(C(=O)Nc2cccc(C(=O)N3CCOCC3)c2)c1[O-] (3D coordinates assigned)
C=c1[n-]c(=C)c(C(=O)Nc2cccc(C(=O)N3CCOCC3)c2)c1[O-] (nonaromatic ring conformer: 83.20895437963112 kcal/mol)

>  <smiles>  (79) 
C=c1[nH]c(=C)c(C(=O)Nc2cccc(C(=O)N3CCOCC3)c2)c1O

>  <score_type>  (79) 
oracle

>  <origin>  (79) 
adg

>  <m_score__min__energy>  (79) 
-13.880000000000001

>  <m_primary>  (79) 
energy

$$$$
79:0
     RDKit          3D

 40 42  0  0  0  0  0  0  0  0999 V2000
   58.5360   26.4670   44.8540 C   0  0  0  0  0  0  0  0  0  0  0  0
   58.2140   27.7100   45.2000 C   0  0  0  0  0  0  0  0  0  0  0  0
   57.1360   28.3730   44.7220 N   0  0  0  0  0  0  0  0  0  0  0  0
   57.0380   29.6320   45.2280 C   0  0  0  0  0  0  0  0  0  0  0  0
   56.1180   30.4120   44.8640 O   0  0  0  0  0  0  0  0  0  0  0  0
   58.0450   29.9820   46.1400 C   0  0  0  0  0  0  0  0  0  0  0  0
   58.2320   31.1420   46.7870 C   0  0  0  0  0  0  0  0  0  0  0  0
   58.5100   32.4320   46.1250 C   0  0  0  0  0  0  0  0  0  0  0  0
   57.5950   32.9410   45.1870 C   0  0  0  0  0  0  0  0  0  0  0  0
   57.7960   34.1990   44.6150 C   0  0  0  0  0  0  0  0  0  0  0  0
   58.8980   34.9680   44.9880 C   0  0  0  0  0  0  0  0  0  0  0  0
   59.8030   34.4830   45.9340 C   0  0  0  0  0  0  0  0  0  0  0  0
   59.6180   33.2170   46.5130 C   0  0  0  0  0  0  0  0  0  0  0  0
   60.5800   32.7290   47.4650 N   0  0  0  0  0  0  0  0  0  0  0  0
   61.4190   31.5710   47.1340 C   0  0  0  0  0  0  0  0  0  0  0  0
   62.7190   31.5930   47.9530 C   0  0  0  0  0  0  0  0  0  0  0  0
   63.2650   32.9610   48.0820 N   0  0  0  0  0  0  0  0  0  0  0  0
   63.7620   33.4760   46.7930 C   0  0  0  0  0  0  0  0  0  0  0  0
   62.3310   33.9150   48.7360 C   0  0  0  0  0  0  0  0  0  0  0  0
   60.8540   33.4790   48.6920 C   0  0  0  0  0  0  0  0  0  0  0  0
   59.0890   28.6640   46.2740 S   0  0  0  0  0  0  0  0  0  0  0  0
   59.4292   25.9903   45.2840 H   0  0  0  0  0  0  0  0  0  0  0  0
   57.9091   25.9156   44.1378 H   0  0  0  0  0  0  0  0  0  0  0  0
   56.4590   27.9730   44.0310 H   0  0  0  0  0  0  0  0  0  0  0  0
   58.1743   31.1314   47.8854 H   0  0  0  0  0  0  0  0  0  0  0  0
   56.7156   32.3449   44.9019 H   0  0  0  0  0  0  0  0  0  0  0  0
   57.0845   34.5837   43.8695 H   0  0  0  0  0  0  0  0  0  0  0  0
   59.0545   35.9586   44.5360 H   0  0  0  0  0  0  0  0  0  0  0  0
   60.6671   35.0969   46.2279 H   0  0  0  0  0  0  0  0  0  0  0  0
   60.8655   30.6474   47.3592 H   0  0  0  0  0  0  0  0  0  0  0  0
   61.6730   31.6114   46.0645 H   0  0  0  0  0  0  0  0  0  0  0  0
   62.5132   31.1958   48.9579 H   0  0  0  0  0  0  0  0  0  0  0  0
   63.4636   30.9763   47.4283 H   0  0  0  0  0  0  0  0  0  0  0  0
   64.5152   34.2565   46.9759 H   0  0  0  0  0  0  0  0  0  0  0  0
   64.2171   32.6542   46.2207 H   0  0  0  0  0  0  0  0  0  0  0  0
   62.9245   33.9016   46.2207 H   0  0  0  0  0  0  0  0  0  0  0  0
   62.6283   34.0222   49.7896 H   0  0  0  0  0  0  0  0  0  0  0  0
   62.3997   34.8599   48.1770 H   0  0  0  0  0  0  0  0  0  0  0  0
   60.6380   32.8418   49.5622 H   0  0  0  0  0  0  0  0  0  0  0  0
   60.2165   34.3752   48.7125 H   0  0  0  0  0  0  0  0  0  0  0  0
  1  2  2  0
  2  3  1  0
  3  4  1  0
  4  5  2  0
  4  6  1  0
  6  7  2  3
  7  8  1  0
  8  9  2  0
  9 10  1  0
 10 11  2  0
 11 12  1  0
 12 13  2  0
 13 14  1  0
 14 15  1  0
 15 16  1  0
 16 17  1  0
 17 18  1  0
 17 19  1  0
 19 20  1  0
  6 21  1  0
 21  2  1  0
 13  8  1  0
 20 14  1  0
  1 22  1  0
  1 23  1  0
  3 24  1  0
  7 25  1  0
  9 26  1  0
 10 27  1  0
 11 28  1  0
 12 29  1  0
 15 30  1  0
 15 31  1  0
 16 32  1  0
 16 33  1  0
 18 34  1  0
 18 35  1  0
 18 36  1  0
 19 37  1  0
 19 38  1  0
 20 39  1  0
 20 40  1  0
M  END
>  <UniqueID>  (80) 
80

>  <SMILES>  (80) 
C=c1[nH]c(=O)c(=Cc2ccccc2N2CCN(C)CC2)s1

>  <Energy>  (80) 
91.45531911648236

>  <Genealogy>  (80) 
C=c1[nH]c(=O)c(=Cc2ccccc2N2CCN(C)CC2)s1 (3D coordinates assigned)
C=c1[nH]c(=O)c(=Cc2ccccc2N2CCN(C)CC2)s1 (nonaromatic ring conformer: 91.45531911648236 kcal/mol)

>  <smiles>  (80) 
C=c1[nH]c(=O)c(=Cc2ccccc2N2CCN(C)CC2)s1

>  <score_type>  (80) 
oracle

>  <origin>  (80) 
adg

>  <m_score__min__energy>  (80) 
-7.8600000000000003

>  <m_primary>  (80) 
energy

$$$$
80:0
     RDKit          3D

 49 51  0  0  0  0  0  0  0  0999 V2000
   60.3200   28.9430   45.1810 C   0  0  0  0  0  0  0  0  0  0  0  0
   58.9980   28.7860   45.3250 C   0  0  0  0  0  0  0  0  0  0  0  0
   58.0630   29.3410   44.2770 C   0  0  0  0  0  0  0  0  0  0  0  0
   57.0490   30.2320   44.9240 C   0  0  0  0  0  0  0  0  0  0  0  0
   55.8630   30.2470   44.4960 O   0  0  0  0  0  0  0  0  0  0  0  0
   57.4410   31.0700   46.0180 N   0  0  0  0  0  0  0  0  0  0  0  0
   58.0160   32.3810   45.9060 C   0  0  0  0  0  0  0  0  0  0  0  0
   57.5410   33.3080   44.9600 C   0  0  0  0  0  0  0  0  0  0  0  0
   58.1430   34.5640   44.8420 C   0  0  0  0  0  0  0  0  0  0  0  0
   59.2330   34.8970   45.6470 C   0  0  0  0  0  0  0  0  0  0  0  0
   59.7280   33.9770   46.5710 C   0  0  0  0  0  0  0  0  0  0  0  0
   59.1220   32.7160   46.7090 C   0  0  0  0  0  0  0  0  0  0  0  0
   59.6080   31.7910   47.6940 N   0  0  0  0  0  0  0  0  0  0  0  0
   58.8750   31.6470   48.9540 C   0  0  0  0  0  0  0  0  0  0  0  0
   59.1800   30.2830   49.5760 C   0  0  0  0  0  0  0  0  0  0  0  0
   60.5780   30.0820   49.6760 O   0  0  0  0  0  0  0  0  0  0  0  0
   61.1460   30.0140   48.3820 C   0  0  0  0  0  0  0  0  0  0  0  0
   61.0050   31.3570   47.6560 C   0  0  0  0  0  0  0  0  0  0  0  0
   58.4530   28.0020   46.4580 C   0  0  0  0  0  0  0  0  0  0  0  0
   59.0910   27.9520   47.5450 O   0  0  0  0  0  0  0  0  0  0  0  0
   57.2030   27.3760   46.3390 O   0  0  0  0  0  0  0  0  0  0  0  0
   56.9360   26.2140   45.6000 C   0  0  0  0  0  0  0  0  0  0  0  0
   57.6670   25.9890   44.4270 C   0  0  0  0  0  0  0  0  0  0  0  0
   57.4390   24.8450   43.6570 C   0  0  0  0  0  0  0  0  0  0  0  0
   56.4850   23.9030   44.0640 C   0  0  0  0  0  0  0  0  0  0  0  0
   56.2620   22.7170   43.2810 C   0  0  0  0  0  0  0  0  0  0  0  0
   56.0840   21.7630   42.6510 N   0  0  0  0  0  0  0  0  0  0  0  0
   55.7620   24.1120   45.2430 C   0  0  0  0  0  0  0  0  0  0  0  0
   55.9860   25.2590   46.0130 C   0  0  0  0  0  0  0  0  0  0  0  0
   61.0075   28.5416   45.9401 H   0  0  0  0  0  0  0  0  0  0  0  0
   60.7185   29.4734   44.3036 H   0  0  0  0  0  0  0  0  0  0  0  0
   58.6410   29.9194   43.5412 H   0  0  0  0  0  0  0  0  0  0  0  0
   57.5478   28.5101   43.7728 H   0  0  0  0  0  0  0  0  0  0  0  0
   56.6931   33.0434   44.3111 H   0  0  0  0  0  0  0  0  0  0  0  0
   57.7566   35.2915   44.1130 H   0  0  0  0  0  0  0  0  0  0  0  0
   59.7028   35.8871   45.5527 H   0  0  0  0  0  0  0  0  0  0  0  0
   60.5958   34.2390   47.1941 H   0  0  0  0  0  0  0  0  0  0  0  0
   59.1825   32.4425   49.6487 H   0  0  0  0  0  0  0  0  0  0  0  0
   57.7954   31.7243   48.7578 H   0  0  0  0  0  0  0  0  0  0  0  0
   58.7353   30.2365   50.5810 H   0  0  0  0  0  0  0  0  0  0  0  0
   58.7539   29.4976   48.9345 H   0  0  0  0  0  0  0  0  0  0  0  0
   62.2130   29.7610   48.4690 H   0  0  0  0  0  0  0  0  0  0  0  0
   60.6163   29.2426   47.8038 H   0  0  0  0  0  0  0  0  0  0  0  0
   61.6358   32.1094   48.1521 H   0  0  0  0  0  0  0  0  0  0  0  0
   61.3235   31.2418   46.6094 H   0  0  0  0  0  0  0  0  0  0  0  0
   58.4266   26.7183   44.1091 H   0  0  0  0  0  0  0  0  0  0  0  0
   58.0093   24.6840   42.7303 H   0  0  0  0  0  0  0  0  0  0  0  0
   55.0147   23.3723   45.5661 H   0  0  0  0  0  0  0  0  0  0  0  0
   55.4191   25.4153   46.9427 H   0  0  0  0  0  0  0  0  0  0  0  0
  1  2  2  0
  2  3  1  0
  3  4  1  0
  4  5  2  0
  4  6  1  0
  6  7  1  0
  7  8  2  0
  8  9  1  0
  9 10  2  0
 10 11  1  0
 11 12  2  0
 12 13  1  0
 13 14  1  0
 14 15  1  0
 15 16  1  0
 16 17  1  0
 17 18  1  0
  2 19  1  0
 19 20  2  0
 19 21  1  0
 21 22  1  0
 22 23  2  0
 23 24  1  0
 24 25  2  0
 25 26  1  0
 26 27  3  0
 25 28  1  0
 28 29  2  0
 12  7  1  0
 18 13  1  0
 29 22  1  0
  1 30  1  0
  1 31  1  0
  3 32  1  0
  3 33  1  0
  8 34  1  0
  9 35  1  0
 10 36  1  0
 11 37  1  0
 14 38  1  0
 14 39  1  0
 15 40  1  0
 15 41  1  0
 17 42  1  0
 17 43  1  0
 18 44  1  0
 18 45  1  0
 23 46  1  0
 24 47  1  0
 28 48  1  0
 29 49  1  0
M  CHG  1   6  -1
M  END
>  <UniqueID>  (81) 
81

>  <SMILES>  (81) 
C=C(CC(=O)[N-]c1ccccc1N1CCOCC1)C(=O)Oc1ccc(C#N)cc1

>  <Energy>  (81) 
60.45627277011629

>  <Genealogy>  (81) 
C=C(CC(=O)[N-]c1ccccc1N1CCOCC1)C(=O)Oc1ccc(C#N)cc1 (protonated)
C=C(CC(=O)[N-]c1ccccc1N1CCOCC1)C(=O)Oc1ccc(C#N)cc1 (3D coordinates assigned)
C=C(CC(=O)[N-]c1ccccc1N1CCOCC1)C(=O)Oc1ccc(C#N)cc1 (nonaromatic ring conformer: 60.45627277011629 kcal/mol)

>  <smiles>  (81) 
C=C(CC(=O)Nc1ccccc1N1CCOCC1)C(=O)Oc1ccc(C#N)cc1

>  <score_type>  (81) 
oracle

>  <origin>  (81) 
adg

>  <m_score__min__energy>  (81) 
-10.109999999999999

>  <m_primary>  (81) 
energy

$$$$
81:0
     RDKit          3D

 26 27  0  0  0  0  0  0  0  0999 V2000
   59.6210   34.9620   45.9270 C   0  0  0  0  0  0  0  0  0  0  0  0
   59.4730   33.8200   46.6040 C   0  0  0  0  0  0  0  0  0  0  0  0
   58.1360   33.1440   46.7250 C   0  0  0  0  0  0  0  0  0  0  0  0
   58.1120   31.8940   45.9450 N   0  0  0  0  0  0  0  0  0  0  0  0
   57.9420   31.8200   44.5950 C   0  0  0  0  0  0  0  0  0  0  0  0
   57.7480   32.8580   43.7770 C   0  0  0  0  0  0  0  0  0  0  0  0
   58.0230   30.2300   44.0620 S   0  0  0  0  0  0  0  0  0  0  0  0
   58.2770   29.5840   45.5950 C   0  0  0  0  0  0  0  0  0  0  0  0
   58.4430   28.2670   45.8100 C   0  0  0  0  0  0  0  0  0  0  0  0
   57.3670   27.2690   45.9650 C   0  0  0  0  0  0  0  0  0  0  0  0
   57.4850   26.0860   46.5930 N   0  0  0  0  0  0  0  0  0  0  0  0
   56.2260   25.5940   46.5800 C   0  0  0  0  0  0  0  0  0  0  0  0
   55.9300   24.4750   47.0740 O   0  0  0  0  0  0  0  0  0  0  0  0
   55.3100   26.4020   46.0040 N   0  0  0  0  0  0  0  0  0  0  0  0
   56.0470   27.4610   45.6320 C   0  0  0  0  0  0  0  0  0  0  0  0
   55.5230   28.5840   45.0040 O   0  0  0  0  0  0  0  0  0  0  0  0
   58.3170   30.6580   46.5000 C   0  0  0  0  0  0  0  0  0  0  0  0
   58.5660   30.5190   47.7270 O   0  0  0  0  0  0  0  0  0  0  0  0
   60.6118   35.4343   45.8551 H   0  0  0  0  0  0  0  0  0  0  0  0
   58.7520   35.4301   45.4414 H   0  0  0  0  0  0  0  0  0  0  0  0
   60.3508   33.3633   47.0845 H   0  0  0  0  0  0  0  0  0  0  0  0
   57.9425   32.9133   47.7830 H   0  0  0  0  0  0  0  0  0  0  0  0
   57.3612   33.8199   46.3339 H   0  0  0  0  0  0  0  0  0  0  0  0
   57.6211   32.6911   42.6972 H   0  0  0  0  0  0  0  0  0  0  0  0
   57.7152   33.8797   44.1832 H   0  0  0  0  0  0  0  0  0  0  0  0
   59.4775   27.8992   45.8766 H   0  0  0  0  0  0  0  0  0  0  0  0
  1  2  2  0
  2  3  1  0
  3  4  1  0
  4  5  1  0
  5  6  2  0
  5  7  1  0
  7  8  1  0
  8  9  2  3
  9 10  1  0
 10 11  1  0
 11 12  1  0
 12 13  2  0
 12 14  1  0
 14 15  1  0
 15 16  1  0
  8 17  1  0
 17 18  2  0
 17  4  1  0
 15 10  2  0
  1 19  1  0
  1 20  1  0
  2 21  1  0
  3 22  1  0
  3 23  1  0
  6 24  1  0
  6 25  1  0
  9 26  1  0
M  CHG  3  11  -1  14  -1  16  -1
M  END
>  <UniqueID>  (82) 
82

>  <SMILES>  (82) 
C=CCn1c(=C)sc(=Cc2[n-]c(=O)[n-]c2[O-])c1=O

>  <Energy>  (82) 
91.3269293772908

>  <Genealogy>  (82) 
C=CCn1c(=C)sc(=Cc2[n-]c(=O)[n-]c2[O-])c1=O (protonated)
C=CCn1c(=C)sc(=Cc2[n-]c(=O)[n-]c2[O-])c1=O (3D coordinates assigned)
C=CCn1c(=C)sc(=Cc2[n-]c(=O)[n-]c2[O-])c1=O (optimized conformer: 91.3269293772908 kcal/mol)

>  <smiles>  (82) 
C=CCn1c(=C)sc(=Cc2[nH]c(=O)[nH]c2O)c1=O

>  <score_type>  (82) 
oracle

>  <origin>  (82) 
adg

>  <m_score__min__energy>  (82) 
-14.68

>  <m_primary>  (82) 
energy

$$$$
82:0
     RDKit          3D

 39 41  0  0  0  0  0  0  0  0999 V2000
   59.9854   30.2158   44.0001 H   0  0  0  0  0  0  0  0  0  0  0  0
   59.9980   29.2690   44.5600 C   0  0  0  0  0  0  0  0  0  0  0  0
   60.9425   28.7209   44.6925 H   0  0  0  0  0  0  0  0  0  0  0  0
   58.8620   28.7830   45.0810 C   0  0  0  0  0  0  0  0  0  0  0  0
   58.9630   27.6070   45.7590 N   0  0  0  0  0  0  0  0  0  0  0  0
   57.8870   26.8880   46.1710 C   0  0  0  0  0  0  0  0  0  0  0  0
   58.0630   25.6200   46.9090 C   0  0  0  0  0  0  0  0  0  0  0  0
   58.2092   25.6568   47.9986 H   0  0  0  0  0  0  0  0  0  0  0  0
   58.0510   24.4270   46.2990 C   0  0  0  0  0  0  0  0  0  0  0  0
   58.8229   23.6911   46.5687 H   0  0  0  0  0  0  0  0  0  0  0  0
   57.0450   24.0550   45.2780 C   0  0  0  0  0  0  0  0  0  0  0  0
   57.4880   23.4310   44.1010 C   0  0  0  0  0  0  0  0  0  0  0  0
   58.5606   23.2323   43.9598 H   0  0  0  0  0  0  0  0  0  0  0  0
   56.5780   23.0600   43.1070 C   0  0  0  0  0  0  0  0  0  0  0  0
   56.9372   22.5817   42.1838 H   0  0  0  0  0  0  0  0  0  0  0  0
   55.2140   23.2960   43.2850 C   0  0  0  0  0  0  0  0  0  0  0  0
   54.5000   23.0127   42.4976 H   0  0  0  0  0  0  0  0  0  0  0  0
   54.7550   23.8910   44.4610 C   0  0  0  0  0  0  0  0  0  0  0  0
   53.6787   24.0700   44.6004 H   0  0  0  0  0  0  0  0  0  0  0  0
   55.6590   24.2610   45.4640 C   0  0  0  0  0  0  0  0  0  0  0  0
   55.1630   24.7970   46.6490 O   0  0  0  0  0  0  0  0  0  0  0  0
   56.6080   27.3360   45.8520 C   0  0  0  0  0  0  0  0  0  0  0  0
   55.7293   26.7308   46.1198 H   0  0  0  0  0  0  0  0  0  0  0  0
   56.4430   28.5540   45.1920 C   0  0  0  0  0  0  0  0  0  0  0  0
   55.1440   28.9780   44.9190 O   0  0  0  0  0  0  0  0  0  0  0  0
   57.5640   29.3510   44.8520 C   0  0  0  0  0  0  0  0  0  0  0  0
   57.3350   30.6020   44.3650 C   0  0  0  0  0  0  0  0  0  0  0  0
   56.8128   30.6709   43.3993 H   0  0  0  0  0  0  0  0  0  0  0  0
   57.7200   31.8770   45.0080 C   0  0  0  0  0  0  0  0  0  0  0  0
   57.7610   33.0730   44.2670 C   0  0  0  0  0  0  0  0  0  0  0  0
   57.4706   33.0711   43.2060 H   0  0  0  0  0  0  0  0  0  0  0  0
   58.1700   34.2640   44.8760 C   0  0  0  0  0  0  0  0  0  0  0  0
   58.1828   35.1999   44.2981 H   0  0  0  0  0  0  0  0  0  0  0  0
   58.5620   34.2670   46.2160 C   0  0  0  0  0  0  0  0  0  0  0  0
   58.8781   35.2058   46.6942 H   0  0  0  0  0  0  0  0  0  0  0  0
   58.5530   33.0780   46.9500 C   0  0  0  0  0  0  0  0  0  0  0  0
   58.8683   33.0815   48.0038 H   0  0  0  0  0  0  0  0  0  0  0  0
   58.1440   31.8830   46.3480 C   0  0  0  0  0  0  0  0  0  0  0  0
   58.1460   30.7370   47.0750 F   0  0  0  0  0  0  0  0  0  0  0  0
  1  2  1  0
  2  3  1  0
  2  4  2  0
  4  5  1  0
  5  6  2  0
  6  7  1  0
  7  8  1  0
  7  9  2  0
  9 10  1  0
  9 11  1  0
 11 12  2  0
 12 13  1  0
 12 14  1  0
 14 15  1  0
 14 16  2  0
 16 17  1  0
 16 18  1  0
 18 19  1  0
 18 20  2  0
 20 21  1  0
  6 22  1  0
 22 23  1  0
 22 24  2  0
 24 25  1  0
 24 26  1  0
 26 27  2  0
 27 28  1  0
 27 29  1  0
 29 30  2  0
 30 31  1  0
 30 32  1  0
 32 33  1  0
 32 34  2  0
 34 35  1  0
 34 36  1  0
 36 37  1  0
 36 38  2  0
 38 39  1  0
 26  4  1  0
 38 29  1  0
 20 11  1  0
M  CHG  2  21  -1  25  -1
M  END
>  <UniqueID>  (83) 
83

>  <SMILES>  (83) 
C=c1nc(/C=C/c2ccccc2[O-])cc([O-])/c1=C/c1ccccc1F

>  <Energy>  (83) 
69.20298088370808

>  <Genealogy>  (83) 
C=c1nc(C=Cc2ccccc2[O-])cc([O-])c1=Cc1ccccc1F (protonated)
C=c1nc(/C=C/c2ccccc2[O-])cc([O-])/c1=C/c1ccccc1F (cis-trans isomerization)
C=c1nc(/C=C/c2ccccc2[O-])cc([O-])/c1=C/c1ccccc1F (3D coordinates assigned)
C=c1nc(/C=C/c2ccccc2[O-])cc([O-])/c1=C/c1ccccc1F (optimized conformer: 69.20298088370808 kcal/mol)

>  <smiles>  (83) 
C=c1nc(C=Cc2ccccc2O)cc(O)c1=Cc1ccccc1F

>  <score_type>  (83) 
oracle

>  <origin>  (83) 
adg

>  <m_score__min__energy>  (83) 
-14.18

>  <m_primary>  (83) 
energy

$$$$
83:0
     RDKit          3D

 42 44  0  0  0  0  0  0  0  0999 V2000
   59.4180   29.7520   50.0860 C   0  0  0  0  0  0  0  0  0  0  0  0
   60.1440   30.1060   48.8230 C   0  0  0  0  0  0  0  0  0  0  0  0
   59.9170   29.4280   47.6110 C   0  0  0  0  0  0  0  0  0  0  0  0
   60.6910   29.8940   46.5560 C   0  0  0  0  0  0  0  0  0  0  0  0
   61.6580   31.1440   47.1260 S   0  0  0  0  0  0  0  0  0  0  0  0
   61.1140   31.1130   48.7180 C   0  0  0  0  0  0  0  0  0  0  0  0
   61.6260   31.9950   49.7840 C   0  0  0  0  0  0  0  0  0  0  0  0
   62.0230   31.5140   50.8800 O   0  0  0  0  0  0  0  0  0  0  0  0
   61.6730   33.4090   49.5650 N   0  0  0  0  0  0  0  0  0  0  0  0
   60.4890   34.2600   49.5040 C   0  0  0  0  0  0  0  0  0  0  0  0
   59.6810   33.9490   48.2720 C   0  0  0  0  0  0  0  0  0  0  0  0
   58.6570   32.9870   48.3120 C   0  0  0  0  0  0  0  0  0  0  0  0
   57.9060   32.7100   47.1660 C   0  0  0  0  0  0  0  0  0  0  0  0
   58.1810   33.3790   45.9610 C   0  0  0  0  0  0  0  0  0  0  0  0
   57.3610   33.1060   44.7310 C   0  0  0  0  0  0  0  0  0  0  0  0
   56.6660   31.8300   44.8800 N   0  0  0  0  0  0  0  0  0  0  0  0
   57.0150   30.6360   44.1700 C   0  0  0  0  0  0  0  0  0  0  0  0
   57.4170   30.7310   42.9800 O   0  0  0  0  0  0  0  0  0  0  0  0
   56.9330   29.3020   44.7910 C   0  0  0  0  0  0  0  0  0  0  0  0
   57.9870   28.4220   44.9700 C   0  0  0  0  0  0  0  0  0  0  0  0
   57.4460   27.2760   45.5120 C   0  0  0  0  0  0  0  0  0  0  0  0
   56.0910   27.5160   45.6180 C   0  0  0  0  0  0  0  0  0  0  0  0
   55.1480   26.6040   46.0880 O   0  0  0  0  0  0  0  0  0  0  0  0
   55.7640   28.7450   45.1770 N   0  0  0  0  0  0  0  0  0  0  0  0
   59.2000   34.3450   45.9240 C   0  0  0  0  0  0  0  0  0  0  0  0
   59.9510   34.6200   47.0690 C   0  0  0  0  0  0  0  0  0  0  0  0
   60.0258   30.0483   50.9536 H   0  0  0  0  0  0  0  0  0  0  0  0
   58.4541   30.2812   50.1155 H   0  0  0  0  0  0  0  0  0  0  0  0
   59.2414   28.6667   50.1155 H   0  0  0  0  0  0  0  0  0  0  0  0
   59.1938   28.6055   47.5086 H   0  0  0  0  0  0  0  0  0  0  0  0
   60.6738   29.5107   45.5251 H   0  0  0  0  0  0  0  0  0  0  0  0
   59.8705   34.0848   50.3967 H   0  0  0  0  0  0  0  0  0  0  0  0
   60.8078   35.3121   49.4651 H   0  0  0  0  0  0  0  0  0  0  0  0
   58.4458   32.4501   49.2486 H   0  0  0  0  0  0  0  0  0  0  0  0
   57.0970   31.9658   47.2075 H   0  0  0  0  0  0  0  0  0  0  0  0
   56.6237   33.9111   44.5962 H   0  0  0  0  0  0  0  0  0  0  0  0
   58.0221   33.0620   43.8530 H   0  0  0  0  0  0  0  0  0  0  0  0
   59.0449   28.6017   44.7280 H   0  0  0  0  0  0  0  0  0  0  0  0
   57.9828   26.3602   45.8003 H   0  0  0  0  0  0  0  0  0  0  0  0
   55.1140   26.3520   47.0700 H   0  0  0  0  0  0  0  0  0  0  0  0
   59.4074   34.8871   44.9896 H   0  0  0  0  0  0  0  0  0  0  0  0
   60.7582   35.3662   47.0279 H   0  0  0  0  0  0  0  0  0  0  0  0
  1  2  1  0
  2  3  1  0
  3  4  2  0
  4  5  1  0
  5  6  1  0
  6  7  1  0
  7  8  2  0
  7  9  1  0
  9 10  1  0
 10 11  1  0
 11 12  2  0
 12 13  1  0
 13 14  2  0
 14 15  1  0
 15 16  1  0
 16 17  1  0
 17 18  2  0
 17 19  1  0
 19 20  2  0
 20 21  1  0
 21 22  2  0
 22 23  1  0
 22 24  1  0
 14 25  1  0
 25 26  2  0
  6  2  2  0
 26 11  1  0
 24 19  1  0
  1 27  1  0
  1 28  1  0
  1 29  1  0
  3 30  1  0
  4 31  1  0
 10 32  1  0
 10 33  1  0
 12 34  1  0
 13 35  1  0
 15 36  1  0
 15 37  1  0
 20 38  1  0
 21 39  1  0
 23 40  1  0
 25 41  1  0
 26 42  1  0
M  CHG  3   9  -1  16  -1  24  -1
M  END
>  <UniqueID>  (84) 
84

>  <SMILES>  (84) 
Cc1ccsc1C(=O)[N-]Cc1ccc(C[N-]C(=O)c2ccc(O)[n-]2)cc1

>  <Energy>  (84) 
94.76893389905493

>  <Genealogy>  (84) 
Cc1ccsc1C(=O)[N-]Cc1ccc(C[N-]C(=O)c2ccc(O)[n-]2)cc1 (protonated)
Cc1ccsc1C(=O)[N-]Cc1ccc(C[N-]C(=O)c2ccc(O)[n-]2)cc1 (3D coordinates assigned)
Cc1ccsc1C(=O)[N-]Cc1ccc(C[N-]C(=O)c2ccc(O)[n-]2)cc1 (optimized conformer: 94.76893389905493 kcal/mol)

>  <smiles>  (84) 
Cc1ccsc1C(=O)NCc1ccc(CNC(=O)c2ccc(O)[nH]2)cc1

>  <score_type>  (84) 
oracle

>  <origin>  (84) 
adg

>  <m_score__min__energy>  (84) 
-13.279999999999999

>  <m_primary>  (84) 
energy

$$$$
84:0
     RDKit          3D

 47 49  0  0  0  0  0  0  0  0999 V2000
   57.4340   34.2070   45.9820 C   0  0  0  0  0  0  0  0  0  0  0  0
   58.1910   34.1080   44.6630 C   0  0  0  0  0  0  0  0  0  0  0  0
   58.7370   32.8020   44.4970 O   0  0  0  0  0  0  0  0  0  0  0  0
   58.1350   31.6440   45.0060 C   0  0  0  0  0  0  0  0  0  0  0  0
   56.8850   31.5810   45.1550 O   0  0  0  0  0  0  0  0  0  0  0  0
   58.9830   30.4440   45.3270 C   0  0  1  0  0  0  0  0  0  0  0  0
   60.0580   30.6730   46.4480 C   0  0  1  0  0  0  0  0  0  0  0  0
   60.0150   32.0420   47.1010 C   0  0  0  0  0  0  0  0  0  0  0  0
   59.2720   32.2300   48.2810 C   0  0  0  0  0  0  0  0  0  0  0  0
   59.2690   33.4710   48.9240 C   0  0  0  0  0  0  0  0  0  0  0  0
   60.0130   34.5330   48.4050 C   0  0  0  0  0  0  0  0  0  0  0  0
   60.7660   34.3540   47.2410 C   0  0  0  0  0  0  0  0  0  0  0  0
   60.7730   33.1160   46.5930 C   0  0  0  0  0  0  0  0  0  0  0  0
   59.8350   29.6270   47.4450 N   0  0  0  0  0  0  0  0  0  0  0  0
   58.7120   28.8840   47.0250 C   0  0  0  0  0  0  0  0  0  0  0  0
   58.2630   27.8970   47.6640 O   0  0  0  0  0  0  0  0  0  0  0  0
   58.1540   29.3510   45.8170 N   0  0  0  0  0  0  0  0  0  0  0  0
   56.9910   28.4800   44.8700 S   0  0  0  0  0  0  0  0  0  0  0  0
   57.2890   28.6520   43.4070 O   0  0  0  0  0  0  0  0  0  0  0  0
   55.6220   29.0320   45.1540 O   0  0  0  0  0  0  0  0  0  0  0  0
   57.0720   26.7700   45.2750 C   0  0  0  0  0  0  0  0  0  0  0  0
   56.0290   26.1810   46.0020 C   0  0  0  0  0  0  0  0  0  0  0  0
   56.0750   24.8210   46.3230 C   0  0  0  0  0  0  0  0  0  0  0  0
   57.1670   24.0390   45.9230 C   0  0  0  0  0  0  0  0  0  0  0  0
   57.2140   22.3240   46.3150 S   0  0  0  0  0  0  0  0  0  0  0  0
   57.3840   22.1320   48.0240 N   0  0  0  0  0  0  0  0  0  0  0  0
   58.3770   21.6760   45.6180 O   0  0  0  0  0  0  0  0  0  0  0  0
   55.9450   21.6590   45.8590 O   0  0  0  0  0  0  0  0  0  0  0  0
   58.2070   24.6270   45.1900 C   0  0  0  0  0  0  0  0  0  0  0  0
   58.1610   25.9860   44.8700 C   0  0  0  0  0  0  0  0  0  0  0  0
   58.1419   34.1144   46.8189 H   0  0  0  0  0  0  0  0  0  0  0  0
   56.9233   35.1796   46.0396 H   0  0  0  0  0  0  0  0  0  0  0  0
   56.6904   33.3985   46.0396 H   0  0  0  0  0  0  0  0  0  0  0  0
   57.5010   34.3200   43.8330 H   0  0  0  0  0  0  0  0  0  0  0  0
   59.0131   34.8389   44.6692 H   0  0  0  0  0  0  0  0  0  0  0  0
   59.4918   30.2244   44.3768 H   0  0  0  0  0  0  0  0  0  0  0  0
   61.0564   30.6258   45.9887 H   0  0  0  0  0  0  0  0  0  0  0  0
   58.6902   31.3956   48.6998 H   0  0  0  0  0  0  0  0  0  0  0  0
   58.6789   33.6117   49.8416 H   0  0  0  0  0  0  0  0  0  0  0  0
   60.0064   35.5093   48.9117 H   0  0  0  0  0  0  0  0  0  0  0  0
   61.3544   35.1896   46.8342 H   0  0  0  0  0  0  0  0  0  0  0  0
   61.3734   32.9790   45.6815 H   0  0  0  0  0  0  0  0  0  0  0  0
   55.1710   26.7908   46.3213 H   0  0  0  0  0  0  0  0  0  0  0  0
   55.2517   24.3635   46.8912 H   0  0  0  0  0  0  0  0  0  0  0  0
   57.7650   23.0290   48.3970 H   0  0  0  0  0  0  0  0  0  0  0  0
   59.0624   24.0162   44.8656 H   0  0  0  0  0  0  0  0  0  0  0  0
   58.9823   26.4425   44.2981 H   0  0  0  0  0  0  0  0  0  0  0  0
  1  2  1  0
  2  3  1  0
  3  4  1  0
  4  5  2  0
  4  6  1  0
  6  7  1  0
  7  8  1  0
  8  9  2  0
  9 10  1  0
 10 11  2  0
 11 12  1  0
 12 13  2  0
  7 14  1  0
 14 15  1  0
 15 16  2  0
 15 17  1  0
 17 18  1  0
 18 19  2  0
 18 20  2  0
 18 21  1  0
 21 22  2  0
 22 23  1  0
 23 24  2  0
 24 25  1  0
 25 26  1  0
 25 27  2  0
 25 28  2  0
 24 29  1  0
 29 30  2  0
 17  6  1  0
 30 21  1  0
 13  8  1  0
  1 31  1  0
  1 32  1  0
  1 33  1  0
  2 34  1  0
  2 35  1  0
  6 36  1  6
  7 37  1  6
  9 38  1  0
 10 39  1  0
 11 40  1  0
 12 41  1  0
 13 42  1  0
 22 43  1  0
 23 44  1  0
 26 45  1  0
 29 46  1  0
 30 47  1  0
M  CHG  2  14  -1  26  -1
M  END
>  <UniqueID>  (85) 
85

>  <SMILES>  (85) 
CCOC(=O)[C@H]1[C@@H](c2ccccc2)[N-]C(=O)N1S(=O)(=O)c1ccc(S([NH-])(=O)=O)cc1

>  <Energy>  (85) 
61.324835800614466

>  <Genealogy>  (85) 
CCOC(=O)C1C(c2ccccc2)[N-]C(=O)N1S(=O)(=O)c1ccc(S([NH-])(=O)=O)cc1 (protonated)
CCOC(=O)[C@H]1[C@@H](c2ccccc2)[N-]C(=O)N1S(=O)(=O)c1ccc(S([NH-])(=O)=O)cc1 (chirality)
CCOC(=O)[C@H]1[C@@H](c2ccccc2)[N-]C(=O)N1S(=O)(=O)c1ccc(S([NH-])(=O)=O)cc1 (3D coordinates assigned)
CCOC(=O)[C@H]1[C@@H](c2ccccc2)[N-]C(=O)N1S(=O)(=O)c1ccc(S([NH-])(=O)=O)cc1 (nonaromatic ring conformer: 61.324835800614466 kcal/mol)

>  <smiles>  (85) 
CCOC(=O)C1C(c2ccccc2)NC(=O)N1S(=O)(=O)c1ccc(S(N)(=O)=O)cc1

>  <score_type>  (85) 
oracle

>  <origin>  (85) 
adg

>  <m_score__min__energy>  (85) 
-11.630000000000001

>  <m_primary>  (85) 
energy

$$$$
85:0
     RDKit          3D

 59 62  0  0  0  0  0  0  0  0999 V2000
   56.3530   28.2640   45.5850 N   0  0  0  0  0  0  0  0  0  0  0  0
   56.7130   29.2410   44.8060 C   0  0  0  0  0  0  0  0  0  0  0  0
   55.9690   29.4850   43.6930 N   0  0  0  0  0  0  0  0  0  0  0  0
   56.3060   30.4470   42.7910 C   0  0  0  0  0  0  0  0  0  0  0  0
   57.4450   31.2290   42.9900 C   0  0  0  0  0  0  0  0  0  0  0  0
   58.2210   31.0260   44.1330 C   0  0  0  0  0  0  0  0  0  0  0  0
   57.8710   30.0290   45.0600 C   0  0  0  0  0  0  0  0  0  0  0  0
   58.7400   29.8200   46.2440 C   0  0  0  0  0  0  0  0  0  0  0  0
   59.9390   29.1110   46.1080 C   0  0  0  0  0  0  0  0  0  0  0  0
   60.7700   28.9260   47.2130 C   0  0  0  0  0  0  0  0  0  0  0  0
   60.4060   29.4450   48.4610 C   0  0  0  0  0  0  0  0  0  0  0  0
   59.2060   30.1620   48.6210 C   0  0  0  0  0  0  0  0  0  0  0  0
   58.8200   30.6650   49.9740 C   0  0  0  0  0  0  0  0  0  0  0  0
   58.0220   29.9710   50.6750 O   0  0  0  0  0  0  0  0  0  0  0  0
   59.2810   31.9510   50.4780 N   0  0  1  0  0  0  0  0  0  0  0  0
   59.6130   31.8260   51.9260 C   0  0  0  0  0  0  0  0  0  0  0  0
   60.6240   32.8950   52.3740 C   0  0  0  0  0  0  0  0  0  0  0  0
   61.9690   32.7290   51.6370 C   0  0  0  0  0  0  0  0  0  0  0  0
   62.7920   31.9110   52.3920 F   0  0  0  0  0  0  0  0  0  0  0  0
   62.5670   33.9790   51.5550 F   0  0  0  0  0  0  0  0  0  0  0  0
   61.7890   32.0990   50.2220 C   0  0  2  0  0  0  0  0  0  0  0  0
   62.9320   32.4710   49.2480 C   0  0  0  0  0  0  0  0  0  0  0  0
   62.6330   31.9910   47.8600 C   0  0  0  0  0  0  0  0  0  0  0  0
   63.4600   31.2590   47.2680 O   0  0  0  0  0  0  0  0  0  0  0  0
   61.4190   32.3770   47.2100 N   0  0  0  0  0  0  0  0  0  0  0  0
   61.1270   33.7340   46.7460 C   0  0  0  0  0  0  0  0  0  0  0  0
   59.6870   33.8440   46.3030 C   0  0  0  0  0  0  0  0  0  0  0  0
   58.6410   33.4900   47.1750 C   0  0  0  0  0  0  0  0  0  0  0  0
   57.3160   33.5010   46.7290 C   0  0  0  0  0  0  0  0  0  0  0  0
   57.0160   33.9070   45.4270 C   0  0  0  0  0  0  0  0  0  0  0  0
   58.0440   34.2880   44.5630 C   0  0  0  0  0  0  0  0  0  0  0  0
   59.3770   34.2460   44.9940 C   0  0  0  0  0  0  0  0  0  0  0  0
   60.4040   32.4780   49.6460 C   0  0  0  0  0  0  0  0  0  0  0  0
   58.3870   30.3600   47.4960 C   0  0  0  0  0  0  0  0  0  0  0  0
   55.8790   27.3950   45.2540 H   0  0  0  0  0  0  0  0  0  0  0  0
   55.6786   30.6088   41.9021 H   0  0  0  0  0  0  0  0  0  0  0  0
   57.7281   31.9966   42.2547 H   0  0  0  0  0  0  0  0  0  0  0  0
   59.1103   31.6491   44.3088 H   0  0  0  0  0  0  0  0  0  0  0  0
   60.2262   28.6994   45.1292 H   0  0  0  0  0  0  0  0  0  0  0  0
   61.7134   28.3711   47.1034 H   0  0  0  0  0  0  0  0  0  0  0  0
   61.0662   29.2904   49.3272 H   0  0  0  0  0  0  0  0  0  0  0  0
   58.5030   32.6460   50.3810 H   0  0  0  0  0  0  0  0  0  0  0  0
   58.6904   31.9397   52.5140 H   0  0  0  0  0  0  0  0  0  0  0  0
   60.0660   30.8370   52.0890 H   0  0  0  0  0  0  0  0  0  0  0  0
   60.2143   33.8919   52.1542 H   0  0  0  0  0  0  0  0  0  0  0  0
   60.8000   32.7795   53.4537 H   0  0  0  0  0  0  0  0  0  0  0  0
   61.8393   31.0063   50.3380 H   0  0  0  0  0  0  0  0  0  0  0  0
   63.0499   33.5646   49.2328 H   0  0  0  0  0  0  0  0  0  0  0  0
   63.8579   31.9881   49.5938 H   0  0  0  0  0  0  0  0  0  0  0  0
   61.3084   34.4439   47.5665 H   0  0  0  0  0  0  0  0  0  0  0  0
   61.7803   33.9660   45.8920 H   0  0  0  0  0  0  0  0  0  0  0  0
   58.8669   33.2032   48.2127 H   0  0  0  0  0  0  0  0  0  0  0  0
   56.5071   33.1888   47.4060 H   0  0  0  0  0  0  0  0  0  0  0  0
   55.9714   33.9265   45.0829 H   0  0  0  0  0  0  0  0  0  0  0  0
   57.8075   34.6218   43.5419 H   0  0  0  0  0  0  0  0  0  0  0  0
   60.1846   34.5295   44.3030 H   0  0  0  0  0  0  0  0  0  0  0  0
   60.3272   33.5744   49.6017 H   0  0  0  0  0  0  0  0  0  0  0  0
   60.3212   32.0289   48.6453 H   0  0  0  0  0  0  0  0  0  0  0  0
   57.4597   30.9434   47.5945 H   0  0  0  0  0  0  0  0  0  0  0  0
  1  2  2  3
  2  3  1  0
  3  4  1  0
  4  5  2  0
  5  6  1  0
  6  7  2  0
  7  8  1  0
  8  9  2  0
  9 10  1  0
 10 11  2  0
 11 12  1  0
 12 13  1  0
 13 14  2  0
 13 15  1  0
 15 16  1  0
 16 17  1  0
 17 18  1  0
 18 19  1  0
 18 20  1  0
 18 21  1  0
 21 22  1  0
 22 23  1  0
 23 24  2  0
 23 25  1  0
 25 26  1  0
 26 27  1  0
 27 28  2  0
 28 29  1  0
 29 30  2  0
 30 31  1  0
 31 32  2  0
 21 33  1  0
 12 34  2  0
  7  2  1  0
 34  8  1  0
 33 15  1  0
 32 27  1  0
  1 35  1  0
  4 36  1  0
  5 37  1  0
  6 38  1  0
  9 39  1  0
 10 40  1  0
 11 41  1  0
 15 42  1  1
 16 43  1  0
 16 44  1  0
 17 45  1  0
 17 46  1  0
 21 47  1  1
 22 48  1  0
 22 49  1  0
 26 50  1  0
 26 51  1  0
 28 52  1  0
 29 53  1  0
 30 54  1  0
 31 55  1  0
 32 56  1  0
 33 57  1  0
 33 58  1  0
 34 59  1  0
M  CHG  3   3  -1  15   1  25  -1
M  END
>  <UniqueID>  (86) 
86

>  <SMILES>  (86) 
N=c1[n-]cccc1-c1cccc(C(=O)[N@H+]2CCC(F)(F)[C@H](CC(=O)[N-]Cc3ccccc3)C2)c1

>  <Energy>  (86) 
82.58692887822085

>  <Genealogy>  (86) 
N=c1[n-]cccc1-c1cccc(C(=O)[NH+]2CCC(F)(F)C(CC(=O)[N-]Cc3ccccc3)C2)c1 (protonated)
N=c1[n-]cccc1-c1cccc(C(=O)[N@H+]2CCC(F)(F)[C@H](CC(=O)[N-]Cc3ccccc3)C2)c1 (chirality)
N=c1[n-]cccc1-c1cccc(C(=O)[N@H+]2CCC(F)(F)[C@H](CC(=O)[N-]Cc3ccccc3)C2)c1 (3D coordinates assigned)
N=c1[n-]cccc1-c1cccc(C(=O)[N@H+]2CCC(F)(F)[C@H](CC(=O)[N-]Cc3ccccc3)C2)c1 (nonaromatic ring conformer: 82.58692887822085 kcal/mol)

>  <smiles>  (86) 
N=c1[nH]cccc1-c1cccc(C(=O)N2CCC(F)(F)C(CC(=O)NCc3ccccc3)C2)c1

>  <score_type>  (86) 
oracle

>  <origin>  (86) 
adg

>  <m_score__min__energy>  (86) 
-12.380000000000001

>  <m_primary>  (86) 
energy

$$$$
86:0
     RDKit          3D

 54 57  0  0  0  0  0  0  0  0999 V2000
   64.2630   32.3050   49.0490 C   0  0  0  0  0  0  0  0  0  0  0  0
   63.0180   32.6150   48.2880 C   0  0  0  0  0  0  0  0  0  0  0  0
   62.7370   33.8290   47.7710 N   0  0  0  0  0  0  0  0  0  0  0  0
   61.5630   33.5880   47.1460 C   0  0  0  0  0  0  0  0  0  0  0  0
   60.7880   34.6240   46.3970 C   0  0  0  0  0  0  0  0  0  0  0  0
   59.4790   34.0900   46.0020 N   0  0  0  0  0  0  0  0  0  0  0  0
   59.2680   33.7580   44.5790 C   0  0  0  0  0  0  0  0  0  0  0  0
   57.8080   33.4200   44.2740 C   0  0  0  0  0  0  0  0  0  0  0  0
   57.2920   32.5290   45.3130 N   0  0  0  0  0  0  0  0  0  0  0  0
   57.3230   31.0970   45.1630 C   0  0  0  0  0  0  0  0  0  0  0  0
   56.2720   30.4770   44.8490 O   0  0  0  0  0  0  0  0  0  0  0  0
   58.5350   30.3330   45.4830 C   0  0  0  0  0  0  0  0  0  0  0  0
   59.1960   29.6330   44.4680 C   0  0  0  0  0  0  0  0  0  0  0  0
   60.2920   28.8340   44.7940 C   0  0  0  0  0  0  0  0  0  0  0  0
   60.6850   28.7140   46.0890 N   0  0  0  0  0  0  0  0  0  0  0  0
   60.0540   29.3740   47.1000 C   0  0  0  0  0  0  0  0  0  0  0  0
   60.4180   29.2140   48.3390 N   0  0  0  0  0  0  0  0  0  0  0  0
   60.0900   30.0710   49.4450 C   0  0  0  0  0  0  0  0  0  0  0  0
   61.0260   30.5490   50.1380 O   0  0  0  0  0  0  0  0  0  0  0  0
   58.6710   30.4940   49.7460 C   0  0  0  0  0  0  0  0  0  0  0  0
   58.6240   31.6680   50.6950 C   0  0  0  0  0  0  0  0  0  0  0  0
   57.6530   31.7290   51.7110 C   0  0  0  0  0  0  0  0  0  0  0  0
   57.5950   32.8310   52.5690 C   0  0  0  0  0  0  0  0  0  0  0  0
   58.5110   33.8790   52.4270 C   0  0  0  0  0  0  0  0  0  0  0  0
   59.4950   33.8170   51.4380 C   0  0  0  0  0  0  0  0  0  0  0  0
   59.5590   32.7130   50.5800 C   0  0  0  0  0  0  0  0  0  0  0  0
   58.9900   30.2330   46.8040 C   0  0  0  0  0  0  0  0  0  0  0  0
   57.1990   33.1070   46.6520 C   0  0  0  0  0  0  0  0  0  0  0  0
   58.5220   33.7130   47.0220 C   0  0  0  0  0  0  0  0  0  0  0  0
   58.7700   33.9340   48.2390 O   0  0  0  0  0  0  0  0  0  0  0  0
   61.1920   32.3360   47.2700 O   0  0  0  0  0  0  0  0  0  0  0  0
   62.0810   31.7050   47.9710 N   0  0  0  0  0  0  0  0  0  0  0  0
   64.0556   32.3566   50.1280 H   0  0  0  0  0  0  0  0  0  0  0  0
   64.6087   31.2934   48.7901 H   0  0  0  0  0  0  0  0  0  0  0  0
   65.0427   33.0364   48.7901 H   0  0  0  0  0  0  0  0  0  0  0  0
   60.6423   35.5044   47.0401 H   0  0  0  0  0  0  0  0  0  0  0  0
   61.3476   34.9077   45.4935 H   0  0  0  0  0  0  0  0  0  0  0  0
   59.5672   34.6209   43.9660 H   0  0  0  0  0  0  0  0  0  0  0  0
   59.8753   32.8710   44.3460 H   0  0  0  0  0  0  0  0  0  0  0  0
   57.2129   34.3449   44.2540 H   0  0  0  0  0  0  0  0  0  0  0  0
   57.7411   32.9229   43.2950 H   0  0  0  0  0  0  0  0  0  0  0  0
   58.8554   29.7117   43.4250 H   0  0  0  0  0  0  0  0  0  0  0  0
   60.8384   28.3008   44.0021 H   0  0  0  0  0  0  0  0  0  0  0  0
   58.1768   30.7771   48.8049 H   0  0  0  0  0  0  0  0  0  0  0  0
   58.1565   29.6475   50.2242 H   0  0  0  0  0  0  0  0  0  0  0  0
   56.9349   30.9044   51.8310 H   0  0  0  0  0  0  0  0  0  0  0  0
   56.8284   32.8743   53.3567 H   0  0  0  0  0  0  0  0  0  0  0  0
   58.4561   34.7517   53.0943 H   0  0  0  0  0  0  0  0  0  0  0  0
   60.2208   34.6369   51.3331 H   0  0  0  0  0  0  0  0  0  0  0  0
   60.3445   32.6621   49.8117 H   0  0  0  0  0  0  0  0  0  0  0  0
   58.5154   30.8241   47.6010 H   0  0  0  0  0  0  0  0  0  0  0  0
   56.4219   33.8854   46.6634 H   0  0  0  0  0  0  0  0  0  0  0  0
   56.9374   32.3212   47.3760 H   0  0  0  0  0  0  0  0  0  0  0  0
   62.0550   30.6920   48.2220 H   0  0  0  0  0  0  0  0  0  0  0  0
  1  2  1  0
  2  3  1  0
  3  4  2  0
  4  5  1  0
  5  6  1  0
  6  7  1  0
  7  8  1  0
  8  9  1  0
  9 10  1  0
 10 11  2  0
 10 12  1  0
 12 13  1  0
 13 14  2  0
 14 15  1  0
 15 16  1  0
 16 17  2  3
 17 18  1  0
 18 19  2  0
 18 20  1  0
 20 21  1  0
 21 22  2  0
 22 23  1  0
 23 24  2  0
 24 25  1  0
 25 26  2  0
 16 27  1  0
  9 28  1  0
 28 29  1  0
 29 30  2  0
  4 31  1  0
 31 32  1  0
 32  2  2  0
 29  6  1  0
 27 12  2  0
 26 21  1  0
  1 33  1  0
  1 34  1  0
  1 35  1  0
  5 36  1  0
  5 37  1  0
  7 38  1  0
  7 39  1  0
  8 40  1  0
  8 41  1  0
 13 42  1  0
 14 43  1  0
 20 44  1  0
 20 45  1  0
 22 46  1  0
 23 47  1  0
 24 48  1  0
 25 49  1  0
 26 50  1  0
 27 51  1  0
 28 52  1  0
 28 53  1  0
 32 54  1  0
M  CHG  2  15  -1  32   1
M  END
>  <UniqueID>  (87) 
87

>  <SMILES>  (87) 
Cc1nc(CN2CCN(C(=O)c3cc[n-]c(=NC(=O)Cc4ccccc4)c3)CC2=O)o[nH+]1

>  <Energy>  (87) 
99.0095297703254

>  <Genealogy>  (87) 
Cc1nc(CN2CCN(C(=O)c3cc[n-]c(=NC(=O)Cc4ccccc4)c3)CC2=O)o[nH+]1 (protonated)
Cc1nc(CN2CCN(C(=O)c3cc[n-]c(=NC(=O)Cc4ccccc4)c3)CC2=O)o[nH+]1 (3D coordinates assigned)
Cc1nc(CN2CCN(C(=O)c3cc[n-]c(=NC(=O)Cc4ccccc4)c3)CC2=O)o[nH+]1 (nonaromatic ring conformer: 99.0095297703254 kcal/mol)

>  <smiles>  (87) 
Cc1noc(CN2CCN(C(=O)c3cc[nH]c(=NC(=O)Cc4ccccc4)c3)CC2=O)n1

>  <score_type>  (87) 
oracle

>  <origin>  (87) 
adg

>  <m_score__min__energy>  (87) 
-10.460000000000001

>  <m_primary>  (87) 
energy

$$$$
87:0
     RDKit          3D

 42 43  0  0  0  0  0  0  0  0999 V2000
   59.9141   35.9251   47.7821 H   0  0  0  0  0  0  0  0  0  0  0  0
   59.5520   35.2140   47.0250 C   0  0  0  0  0  0  0  0  0  0  0  0
   59.6720   35.5090   45.7030 N   0  0  0  0  0  0  0  0  0  0  0  0
   59.2390   34.6540   44.7370 C   0  0  0  0  0  0  0  0  0  0  0  0
   59.3503   34.9233   43.6763 H   0  0  0  0  0  0  0  0  0  0  0  0
   58.6510   33.4300   45.0900 C   0  0  0  0  0  0  0  0  0  0  0  0
   58.1400   32.4860   44.0380 C   0  0  0  0  0  0  0  0  0  0  0  0
   58.7752   32.5607   43.1431 H   0  0  0  0  0  0  0  0  0  0  0  0
   57.1037   32.7557   43.7861 H   0  0  0  0  0  0  0  0  0  0  0  0
   58.1680   31.1120   44.5370 N   0  0  0  0  0  0  0  0  0  0  0  0
   59.0860   30.7190   44.8430 H   0  0  0  0  0  0  0  0  0  0  0  0
   56.9750   30.3310   44.7040 C   0  0  0  0  0  0  0  0  0  0  0  0
   55.8460   30.8490   44.4910 O   0  0  0  0  0  0  0  0  0  0  0  0
   57.0420   28.9470   45.2010 C   0  0  0  0  0  0  0  0  0  0  0  0
   55.9140   28.1890   45.2640 N   0  0  0  0  0  0  0  0  0  0  0  0
   56.1500   26.9720   45.7980 C   0  0  0  0  0  0  0  0  0  0  0  0
   55.2420   26.0580   45.9780 N   0  0  0  0  0  0  0  0  0  0  0  0
   55.4620   24.6420   46.0510 C   0  0  0  0  0  0  0  0  0  0  0  0
   55.7280   24.1280   47.1700 O   0  0  0  0  0  0  0  0  0  0  0  0
   55.3820   23.8180   44.8770 N   0  0  0  0  0  0  0  0  0  0  0  0
   56.2790   23.8640   43.7210 C   0  0  0  0  0  0  0  0  0  0  0  0
   55.9102   24.6406   43.0348 H   0  0  0  0  0  0  0  0  0  0  0  0
   57.6970   24.2640   44.1380 C   0  0  0  0  0  0  0  0  0  0  0  0
   57.7647   24.2831   45.2357 H   0  0  0  0  0  0  0  0  0  0  0  0
   58.4163   23.5337   43.7389 H   0  0  0  0  0  0  0  0  0  0  0  0
   57.9286   25.2625   43.7389 H   0  0  0  0  0  0  0  0  0  0  0  0
   56.2620   22.5380   42.9560 C   0  0  0  0  0  0  0  0  0  0  0  0
   56.2513   21.7022   43.6711 H   0  0  0  0  0  0  0  0  0  0  0  0
   55.3632   22.4910   42.3236 H   0  0  0  0  0  0  0  0  0  0  0  0
   57.1593   22.4680   42.3236 H   0  0  0  0  0  0  0  0  0  0  0  0
   57.7600   26.7690   46.2100 S   0  0  0  0  0  0  0  0  0  0  0  0
   58.2000   28.3100   45.6810 C   0  0  0  0  0  0  0  0  0  0  0  0
   59.5950   28.7970   45.6260 C   0  0  0  0  0  0  0  0  0  0  0  0
   60.1880   28.9000   44.5190 O   0  0  0  0  0  0  0  0  0  0  0  0
   60.3490   29.0890   46.8840 C   0  0  0  0  0  0  0  0  0  0  0  0
   59.7203   28.8455   47.7532 H   0  0  0  0  0  0  0  0  0  0  0  0
   61.2650   28.4806   46.9121 H   0  0  0  0  0  0  0  0  0  0  0  0
   60.6163   30.1557   46.9121 H   0  0  0  0  0  0  0  0  0  0  0  0
   58.5150   33.1160   46.4500 C   0  0  0  0  0  0  0  0  0  0  0  0
   58.0500   32.1656   46.7507 H   0  0  0  0  0  0  0  0  0  0  0  0
   58.9690   34.0080   47.4220 C   0  0  0  0  0  0  0  0  0  0  0  0
   58.8690   33.7642   48.4900 H   0  0  0  0  0  0  0  0  0  0  0  0
  1  2  1  0
  2  3  2  0
  3  4  1  0
  4  5  1  0
  4  6  2  0
  6  7  1  0
  7  8  1  0
  7  9  1  0
  7 10  1  0
 10 11  1  0
 10 12  1  0
 12 13  2  0
 12 14  1  0
 14 15  1  0
 15 16  1  0
 16 17  2  0
 17 18  1  0
 18 19  2  0
 18 20  1  0
 20 21  1  0
 21 22  1  0
 21 23  1  0
 23 24  1  0
 23 25  1  0
 23 26  1  0
 21 27  1  0
 27 28  1  0
 27 29  1  0
 27 30  1  0
 16 31  1  0
 31 32  1  0
 32 33  1  0
 33 34  2  0
 33 35  1  0
 35 36  1  0
 35 37  1  0
 35 38  1  0
  6 39  1  0
 39 40  1  0
 39 41  2  0
 41 42  1  0
 41  2  1  0
 32 14  2  0
M  CHG  2  15  -1  20  -1
M  END
>  <UniqueID>  (88) 
88

>  <SMILES>  (88) 
CC(=O)c1s/c(=N/C(=O)[N-]C(C)C)[n-]c1C(=O)NCc1cccnc1

>  <Energy>  (88) 
70.81130150285496

>  <Genealogy>  (88) 
CC(=O)c1sc(=NC(=O)[N-]C(C)C)[n-]c1C(=O)NCc1cccnc1 (protonated)
CC(=O)c1s/c(=N/C(=O)[N-]C(C)C)[n-]c1C(=O)NCc1cccnc1 (cis-trans isomerization)
CC(=O)c1s/c(=N/C(=O)[N-]C(C)C)[n-]c1C(=O)NCc1cccnc1 (3D coordinates assigned)
CC(=O)c1s/c(=N/C(=O)[N-]C(C)C)[n-]c1C(=O)NCc1cccnc1 (optimized conformer: 70.81130150285496 kcal/mol)

>  <smiles>  (88) 
CC(=O)c1sc(=NC(=O)NC(C)C)[nH]c1C(=O)NCc1cccnc1

>  <score_type>  (88) 
oracle

>  <origin>  (88) 
adg

>  <m_score__min__energy>  (88) 
-10.93

>  <m_primary>  (88) 
energy

$$$$
88:0
     RDKit          3D

 40 41  0  0  0  0  0  0  0  0999 V2000
   57.4030   32.0090   41.5850 C   0  0  0  0  0  0  0  0  0  0  0  0
   57.0220   31.1930   42.8150 C   0  0  0  0  0  0  0  0  0  0  0  0
   57.4170   31.8990   44.0300 N   0  0  0  0  0  0  0  0  0  0  0  0
   58.0360   33.0940   44.0820 C   0  0  0  0  0  0  0  0  0  0  0  0
   58.2840   33.3680   45.4100 C   0  0  0  0  0  0  0  0  0  0  0  0
   58.9090   34.4930   45.9550 O   0  0  0  0  0  0  0  0  0  0  0  0
   59.2670   34.5850   47.3300 C   0  0  0  0  0  0  0  0  0  0  0  0
   60.7050   34.1610   47.5090 C   0  0  0  0  0  0  0  0  0  0  0  0
   61.5450   34.1390   46.3820 C   0  0  0  0  0  0  0  0  0  0  0  0
   62.8840   33.7770   46.5000 C   0  0  0  0  0  0  0  0  0  0  0  0
   63.4130   33.4460   47.7440 C   0  0  0  0  0  0  0  0  0  0  0  0
   62.6050   33.4650   48.8880 C   0  0  0  0  0  0  0  0  0  0  0  0
   63.1990   33.1650   50.1610 N   0  0  0  0  0  0  0  0  0  0  0  0
   63.4070   31.7780   50.5710 C   0  0  0  0  0  0  0  0  0  0  0  0
   63.5320   34.2580   51.0750 C   0  0  0  0  0  0  0  0  0  0  0  0
   61.2290   33.7930   48.7790 C   0  0  0  0  0  0  0  0  0  0  0  0
   60.3570   33.8020   50.0130 C   0  0  0  0  0  0  0  0  0  0  0  0
   57.7960   32.2930   46.1190 C   0  0  0  0  0  0  0  0  0  0  0  0
   57.2760   31.4020   45.2510 N   0  0  0  0  0  0  0  0  0  0  0  0
   57.8487   32.9635   41.9018 H   0  0  0  0  0  0  0  0  0  0  0  0
   58.1314   31.4462   40.9828 H   0  0  0  0  0  0  0  0  0  0  0  0
   56.5038   32.2061   40.9828 H   0  0  0  0  0  0  0  0  0  0  0  0
   55.9334   31.0356   42.8238 H   0  0  0  0  0  0  0  0  0  0  0  0
   57.5411   30.2239   42.7779 H   0  0  0  0  0  0  0  0  0  0  0  0
   58.2953   33.7324   43.2246 H   0  0  0  0  0  0  0  0  0  0  0  0
   59.1466   35.6239   47.6708 H   0  0  0  0  0  0  0  0  0  0  0  0
   58.6155   33.9252   47.9218 H   0  0  0  0  0  0  0  0  0  0  0  0
   61.1398   34.4108   45.3961 H   0  0  0  0  0  0  0  0  0  0  0  0
   63.5260   33.7525   45.6071 H   0  0  0  0  0  0  0  0  0  0  0  0
   64.4737   33.1674   47.8295 H   0  0  0  0  0  0  0  0  0  0  0  0
   63.4160   31.7177   51.6693 H   0  0  0  0  0  0  0  0  0  0  0  0
   62.5926   31.1529   50.1762 H   0  0  0  0  0  0  0  0  0  0  0  0
   64.3690   31.4193   50.1762 H   0  0  0  0  0  0  0  0  0  0  0  0
   63.4266   33.9122   52.1139 H   0  0  0  0  0  0  0  0  0  0  0  0
   64.5690   34.5800   50.8991 H   0  0  0  0  0  0  0  0  0  0  0  0
   62.8507   35.1035   50.8991 H   0  0  0  0  0  0  0  0  0  0  0  0
   60.9923   33.7954   50.9110 H   0  0  0  0  0  0  0  0  0  0  0  0
   59.7312   34.7066   50.0132 H   0  0  0  0  0  0  0  0  0  0  0  0
   59.7127   32.9105   50.0132 H   0  0  0  0  0  0  0  0  0  0  0  0
   57.8256   32.1800   47.2128 H   0  0  0  0  0  0  0  0  0  0  0  0
  1  2  1  0
  2  3  1  0
  3  4  1  0
  4  5  2  0
  5  6  1  0
  6  7  1  0
  7  8  1  0
  8  9  2  0
  9 10  1  0
 10 11  2  0
 11 12  1  0
 12 13  1  0
 13 14  1  0
 13 15  1  0
 12 16  2  0
 16 17  1  0
  5 18  1  0
 18 19  2  0
 19  3  1  0
 16  8  1  0
  1 20  1  0
  1 21  1  0
  1 22  1  0
  2 23  1  0
  2 24  1  0
  4 25  1  0
  7 26  1  0
  7 27  1  0
  9 28  1  0
 10 29  1  0
 11 30  1  0
 14 31  1  0
 14 32  1  0
 14 33  1  0
 15 34  1  0
 15 35  1  0
 15 36  1  0
 17 37  1  0
 17 38  1  0
 17 39  1  0
 18 40  1  0
M  END
>  <UniqueID>  (89) 
89

>  <SMILES>  (89) 
CCn1cc(OCc2cccc(N(C)C)c2C)cn1

>  <Energy>  (89) 
70.57334522421841

>  <Genealogy>  (89) 
CCn1cc(OCc2cccc(N(C)C)c2C)cn1 (3D coordinates assigned)
CCn1cc(OCc2cccc(N(C)C)c2C)cn1 (optimized conformer: 70.57334522421841 kcal/mol)

>  <smiles>  (89) 
CCn1cc(OCc2cccc(N(C)C)c2C)cn1

>  <score_type>  (89) 
oracle

>  <origin>  (89) 
adg

>  <m_score__min__energy>  (89) 
-5.9699999999999998

>  <m_primary>  (89) 
energy

$$$$
89:0
     RDKit          3D

 53 56  0  0  1  0  0  0  0  0999 V2000
   64.1270   32.6970   46.8440 N   0  0  0  0  0  0  0  0  0  0  0  0
   62.6930   32.2070   47.6520 S   0  0  0  0  0  0  0  0  0  0  0  0
   63.0310   32.0310   49.1050 O   0  0  0  0  0  0  0  0  0  0  0  0
   62.3330   30.8390   47.1440 O   0  0  0  0  0  0  0  0  0  0  0  0
   61.3560   33.3110   47.4010 C   0  0  0  0  0  0  0  0  0  0  0  0
   61.0820   33.7860   46.1180 C   0  0  0  0  0  0  0  0  0  0  0  0
   60.0160   34.6520   45.9920 C   0  0  0  0  0  0  0  0  0  0  0  0
   59.2380   35.0470   47.0700 C   0  0  0  0  0  0  0  0  0  0  0  0
   59.5270   34.5600   48.3480 C   0  0  0  0  0  0  0  0  0  0  0  0
   60.5940   33.6910   48.4880 C   0  0  0  0  0  0  0  0  0  0  0  0
   60.9340   33.1630   49.7720 N   0  0  0  0  0  0  0  0  0  0  0  0
   60.2690   32.1110   50.1260 C   0  0  0  0  0  0  0  0  0  0  0  0
   60.5160   30.8910   49.6100 N   0  0  0  0  0  0  0  0  0  0  0  0
   59.7830   29.8420   50.0260 C   0  0  0  0  0  0  0  0  0  0  0  0
   60.0090   28.6660   49.5390 N   0  0  0  0  0  0  0  0  0  0  0  0
   59.9050   28.3780   48.1500 C   0  0  0  0  0  0  0  0  0  0  0  0
   60.4910   27.2110   47.7040 C   0  0  0  0  0  0  0  0  0  0  0  0
   60.3960   26.9260   46.3690 C   0  0  0  0  0  0  0  0  0  0  0  0
   59.7410   27.7710   45.4970 C   0  0  0  0  0  0  0  0  0  0  0  0
   59.1390   28.9600   45.9300 C   0  0  0  0  0  0  0  0  0  0  0  0
   58.4760   29.7980   45.0030 N   0  0  0  0  0  0  0  0  0  0  0  0
   57.7590   29.3480   43.8380 C   0  0  0  0  0  0  0  0  0  0  0  0
   56.2850   29.6980   44.0490 C   0  0  0  0  0  0  0  0  0  0  0  0
   56.1710   31.0470   44.5150 N   0  0  0  0  0  0  0  0  0  0  0  0
   57.3860   31.8160   44.3610 C   0  0  0  0  0  0  0  0  0  0  0  0
   58.5090   31.2450   45.2280 C   0  0  0  0  0  0  0  0  0  0  0  0
   59.2490   29.2210   47.2760 C   0  0  0  0  0  0  0  0  0  0  0  0
   58.8050   29.9450   50.9410 N   0  0  0  0  0  0  0  0  0  0  0  0
   58.5360   31.1570   51.4770 C   0  0  0  0  0  0  0  0  0  0  0  0
   59.2830   32.2430   51.0560 C   0  0  0  0  0  0  0  0  0  0  0  0
   58.9320   33.8200   51.7520 Cl  0  0  0  0  0  0  0  0  0  0  0  0
   64.8320   33.1190   47.5010 H   0  0  0  0  0  0  0  0  0  0  0  0
   64.5590   31.9430   46.2620 H   0  0  0  0  0  0  0  0  0  0  0  0
   61.6864   33.4846   45.2498 H   0  0  0  0  0  0  0  0  0  0  0  0
   59.7726   35.0461   44.9943 H   0  0  0  0  0  0  0  0  0  0  0  0
   58.3973   35.7404   46.9200 H   0  0  0  0  0  0  0  0  0  0  0  0
   58.9232   34.8593   49.2174 H   0  0  0  0  0  0  0  0  0  0  0  0
   61.2680   30.7630   48.8950 H   0  0  0  0  0  0  0  0  0  0  0  0
   61.0149   26.5351   48.3958 H   0  0  0  0  0  0  0  0  0  0  0  0
   60.8520   26.0026   45.9825 H   0  0  0  0  0  0  0  0  0  0  0  0
   59.6899   27.5037   44.4312 H   0  0  0  0  0  0  0  0  0  0  0  0
   58.1420   29.8559   42.9406 H   0  0  0  0  0  0  0  0  0  0  0  0
   57.8860   28.2646   43.6964 H   0  0  0  0  0  0  0  0  0  0  0  0
   55.7444   29.5932   43.0967 H   0  0  0  0  0  0  0  0  0  0  0  0
   55.8523   29.0167   44.7964 H   0  0  0  0  0  0  0  0  0  0  0  0
   55.4010   31.5950   44.1030 H   0  0  0  0  0  0  0  0  0  0  0  0
   57.6971   31.7899   43.3062 H   0  0  0  0  0  0  0  0  0  0  0  0
   57.1890   32.8504   44.6789 H   0  0  0  0  0  0  0  0  0  0  0  0
   59.4806   31.6601   44.9219 H   0  0  0  0  0  0  0  0  0  0  0  0
   58.3745   31.4972   46.2902 H   0  0  0  0  0  0  0  0  0  0  0  0
   58.7947   30.1409   47.6728 H   0  0  0  0  0  0  0  0  0  0  0  0
   58.2510   29.1110   51.2470 H   0  0  0  0  0  0  0  0  0  0  0  0
   57.7426   31.2767   52.2294 H   0  0  0  0  0  0  0  0  0  0  0  0
  1  2  1  0
  2  3  2  0
  2  4  2  0
  2  5  1  0
  5  6  2  0
  6  7  1  0
  7  8  2  0
  8  9  1  0
  9 10  2  0
 10 11  1  0
 11 12  2  0
 12 13  1  0
 13 14  1  0
 14 15  2  0
 15 16  1  0
 16 17  2  0
 17 18  1  0
 18 19  2  0
 19 20  1  0
 20 21  1  0
 21 22  1  0
 22 23  1  0
 23 24  1  0
 24 25  1  0
 25 26  1  0
 20 27  2  0
 14 28  1  0
 28 29  1  0
 29 30  2  0
 30 31  1  0
 10  5  1  0
 30 12  1  0
 27 16  1  0
 26 21  1  0
  1 32  1  0
  1 33  1  0
  6 34  1  0
  7 35  1  0
  8 36  1  0
  9 37  1  0
 13 38  1  0
 17 39  1  0
 18 40  1  0
 19 41  1  0
 22 42  1  0
 22 43  1  0
 23 44  1  0
 23 45  1  0
 24 46  1  0
 25 47  1  0
 25 48  1  0
 26 49  1  0
 26 50  1  0
 27 51  1  0
 28 52  1  0
 29 53  1  0
M  END
>  <smiles>  (90) 
NS(=O)(=O)c1ccccc1N=c1[nH]c(=Nc2cccc(N3CCNCC3)c2)[nH]cc1Cl

>  <score_type>  (90) 
oracle

>  <origin>  (90) 
adg

>  <m_score__min__energy>  (90) 
-10.41

>  <m_primary>  (90) 
energy

$$$$
90:0
     RDKit          3D

 48 50  0  0  0  0  0  0  0  0999 V2000
   56.6830   30.8080   42.9180 O   0  0  0  0  0  0  0  0  0  0  0  0
   57.3780   30.6430   43.9580 C   0  0  0  0  0  0  0  0  0  0  0  0
   58.0090   31.7750   44.5690 N   0  0  0  0  0  0  0  0  0  0  0  0
   57.3020   32.7520   45.3880 C   0  0  0  0  0  0  0  0  0  0  0  0
   58.2280   33.3310   46.4260 C   0  0  0  0  0  0  0  0  0  0  0  0
   58.3470   32.7250   47.6880 C   0  0  0  0  0  0  0  0  0  0  0  0
   59.2230   33.2520   48.6430 C   0  0  0  0  0  0  0  0  0  0  0  0
   59.9880   34.3820   48.3440 C   0  0  0  0  0  0  0  0  0  0  0  0
   59.8810   34.9860   47.0890 C   0  0  0  0  0  0  0  0  0  0  0  0
   59.0060   34.4650   46.1300 C   0  0  0  0  0  0  0  0  0  0  0  0
   58.9210   35.0620   44.9140 F   0  0  0  0  0  0  0  0  0  0  0  0
   57.5460   29.2780   44.5260 C   0  0  0  0  0  0  0  0  0  0  0  0
   58.8390   28.7310   44.6270 C   0  0  0  0  0  0  0  0  0  0  0  0
   59.0330   27.4560   45.1590 C   0  0  0  0  0  0  0  0  0  0  0  0
   57.9450   26.7040   45.5960 C   0  0  0  0  0  0  0  0  0  0  0  0
   56.6430   27.2230   45.5030 C   0  0  0  0  0  0  0  0  0  0  0  0
   55.4990   26.4730   45.9360 N   0  0  0  0  0  0  0  0  0  0  0  0
   55.4980   24.7890   46.3470 S   0  0  0  0  0  0  0  0  0  0  0  0
   54.0870   24.2710   46.3630 O   0  0  0  0  0  0  0  0  0  0  0  0
   56.1270   24.6000   47.6990 O   0  0  0  0  0  0  0  0  0  0  0  0
   56.4540   23.8920   45.1250 C   0  0  0  0  0  0  0  0  0  0  0  0
   57.3050   22.7870   45.7950 C   0  0  0  0  0  0  0  0  0  0  0  0
   57.6600   21.6250   44.8440 C   0  0  0  0  0  0  0  0  0  0  0  0
   57.7080   22.0790   43.3810 C   0  0  0  0  0  0  0  0  0  0  0  0
   56.3470   22.6340   42.9130 C   0  0  0  0  0  0  0  0  0  0  0  0
   55.5370   23.3080   44.0390 C   0  0  0  0  0  0  0  0  0  0  0  0
   56.4450   28.5060   44.9660 C   0  0  0  0  0  0  0  0  0  0  0  0
   55.1460   28.9940   44.8650 O   0  0  0  0  0  0  0  0  0  0  0  0
   56.9265   33.5613   44.7446 H   0  0  0  0  0  0  0  0  0  0  0  0
   56.4624   32.2539   45.8950 H   0  0  0  0  0  0  0  0  0  0  0  0
   57.7492   31.8329   47.9260 H   0  0  0  0  0  0  0  0  0  0  0  0
   59.3095   32.7759   49.6308 H   0  0  0  0  0  0  0  0  0  0  0  0
   60.6747   34.7962   49.0969 H   0  0  0  0  0  0  0  0  0  0  0  0
   60.4865   35.8738   46.8542 H   0  0  0  0  0  0  0  0  0  0  0  0
   59.7054   29.3149   44.2829 H   0  0  0  0  0  0  0  0  0  0  0  0
   60.0497   27.0427   45.2337 H   0  0  0  0  0  0  0  0  0  0  0  0
   58.1060   25.7000   46.0155 H   0  0  0  0  0  0  0  0  0  0  0  0
   57.1439   24.5980   44.6396 H   0  0  0  0  0  0  0  0  0  0  0  0
   58.2401   23.2389   46.1575 H   0  0  0  0  0  0  0  0  0  0  0  0
   56.7027   22.3646   46.6128 H   0  0  0  0  0  0  0  0  0  0  0  0
   58.6451   21.2240   45.1245 H   0  0  0  0  0  0  0  0  0  0  0  0
   56.8783   20.8568   44.9374 H   0  0  0  0  0  0  0  0  0  0  0  0
   58.4693   22.8660   43.2764 H   0  0  0  0  0  0  0  0  0  0  0  0
   57.9560   21.2068   42.7584 H   0  0  0  0  0  0  0  0  0  0  0  0
   56.5274   23.3764   42.1216 H   0  0  0  0  0  0  0  0  0  0  0  0
   55.7545   21.7788   42.5559 H   0  0  0  0  0  0  0  0  0  0  0  0
   54.9332   24.1199   43.6074 H   0  0  0  0  0  0  0  0  0  0  0  0
   54.8953   22.5454   44.5046 H   0  0  0  0  0  0  0  0  0  0  0  0
  1  2  2  0
  2  3  1  0
  3  4  1  0
  4  5  1  0
  5  6  2  0
  6  7  1  0
  7  8  2  0
  8  9  1  0
  9 10  2  0
 10 11  1  0
  2 12  1  0
 12 13  2  0
 13 14  1  0
 14 15  2  0
 15 16  1  0
 16 17  1  0
 17 18  1  0
 18 19  2  0
 18 20  2  0
 18 21  1  0
 21 22  1  0
 22 23  1  0
 23 24  1  0
 24 25  1  0
 25 26  1  0
 16 27  2  0
 27 28  1  0
 10  5  1  0
 27 12  1  0
 26 21  1  0
  4 29  1  0
  4 30  1  0
  6 31  1  0
  7 32  1  0
  8 33  1  0
  9 34  1  0
 13 35  1  0
 14 36  1  0
 15 37  1  0
 21 38  1  0
 22 39  1  0
 22 40  1  0
 23 41  1  0
 23 42  1  0
 24 43  1  0
 24 44  1  0
 25 45  1  0
 25 46  1  0
 26 47  1  0
 26 48  1  0
M  CHG  3   3  -1  17  -1  28  -1
M  END
>  <UniqueID>  (91) 
90

>  <SMILES>  (91) 
O=C([N-]Cc1ccccc1F)c1cccc([N-]S(=O)(=O)C2CCCCC2)c1[O-]

>  <Energy>  (91) 
51.290310783236

>  <Genealogy>  (91) 
O=C([N-]Cc1ccccc1F)c1cccc([N-]S(=O)(=O)C2CCCCC2)c1[O-] (protonated)
O=C([N-]Cc1ccccc1F)c1cccc([N-]S(=O)(=O)C2CCCCC2)c1[O-] (3D coordinates assigned)
O=C([N-]Cc1ccccc1F)c1cccc([N-]S(=O)(=O)C2CCCCC2)c1[O-] (nonaromatic ring conformer: 51.290310783236 kcal/mol)

>  <smiles>  (91) 
O=C(NCc1ccccc1F)c1cccc(NS(=O)(=O)C2CCCCC2)c1O

>  <score_type>  (91) 
oracle

>  <origin>  (91) 
adg

>  <m_score__min__energy>  (91) 
-16.75

>  <m_primary>  (91) 
energy

$$$$
91:0
     RDKit          3D

 34 35  0  0  0  0  0  0  0  0999 V2000
   56.2670   29.7190   42.7010 C   0  0  0  0  0  0  0  0  0  0  0  0
   55.8660   30.2480   44.0450 C   0  0  0  0  0  0  0  0  0  0  0  0
   55.1550   29.5330   44.7990 O   0  0  0  0  0  0  0  0  0  0  0  0
   56.2900   31.5350   44.5090 N   0  0  0  0  0  0  0  0  0  0  0  0
   57.7420   31.8230   45.4100 S   0  0  0  0  0  0  0  0  0  0  0  0
   57.4260   32.7060   46.5840 O   0  0  0  0  0  0  0  0  0  0  0  0
   58.7390   32.5250   44.5310 O   0  0  0  0  0  0  0  0  0  0  0  0
   58.3950   30.3010   46.0080 C   0  0  0  0  0  0  0  0  0  0  0  0
   58.5620   30.0850   47.3830 C   0  0  0  0  0  0  0  0  0  0  0  0
   59.0900   28.8770   47.8450 C   0  0  0  0  0  0  0  0  0  0  0  0
   59.4460   27.8640   46.9390 C   0  0  0  0  0  0  0  0  0  0  0  0
   60.0260   26.5660   47.4370 C   0  0  0  0  0  0  0  0  0  0  0  0
   60.1380   25.5900   46.3550 N   0  0  0  0  0  0  0  0  0  0  0  0
   59.1750   24.5880   45.9920 C   0  0  0  0  0  0  0  0  0  0  0  0
   59.6000   23.4810   45.5660 O   0  0  0  0  0  0  0  0  0  0  0  0
   57.7160   24.7950   46.0980 C   0  0  0  0  0  0  0  0  0  0  0  0
   56.7920   23.7900   46.3340 C   0  0  0  0  0  0  0  0  0  0  0  0
   55.5540   24.3910   46.3330 C   0  0  0  0  0  0  0  0  0  0  0  0
   55.7910   25.7240   46.0880 C   0  0  0  0  0  0  0  0  0  0  0  0
   54.8050   26.6980   46.0010 O   0  0  0  0  0  0  0  0  0  0  0  0
   57.1020   25.9840   45.9360 N   0  0  0  0  0  0  0  0  0  0  0  0
   59.2930   28.0930   45.5610 C   0  0  0  0  0  0  0  0  0  0  0  0
   58.7630   29.3020   45.1010 C   0  0  0  0  0  0  0  0  0  0  0  0
   56.9268   28.8486   42.8315 H   0  0  0  0  0  0  0  0  0  0  0  0
   55.3685   29.4176   42.1426 H   0  0  0  0  0  0  0  0  0  0  0  0
   56.8000   30.5027   42.1426 H   0  0  0  0  0  0  0  0  0  0  0  0
   58.2765   30.8688   48.1000 H   0  0  0  0  0  0  0  0  0  0  0  0
   59.2279   28.7180   48.9247 H   0  0  0  0  0  0  0  0  0  0  0  0
   61.0259   26.7560   47.8543 H   0  0  0  0  0  0  0  0  0  0  0  0
   59.3564   26.1573   48.2081 H   0  0  0  0  0  0  0  0  0  0  0  0
   57.0057   22.7225   46.4911 H   0  0  0  0  0  0  0  0  0  0  0  0
   54.5794   23.9072   46.4943 H   0  0  0  0  0  0  0  0  0  0  0  0
   59.5917   27.3171   44.8408 H   0  0  0  0  0  0  0  0  0  0  0  0
   58.6349   29.4683   44.0212 H   0  0  0  0  0  0  0  0  0  0  0  0
  1  2  1  0
  2  3  2  0
  2  4  1  0
  4  5  1  0
  5  6  2  0
  5  7  2  0
  5  8  1  0
  8  9  2  0
  9 10  1  0
 10 11  2  0
 11 12  1  0
 12 13  1  0
 13 14  1  0
 14 15  2  0
 14 16  1  0
 16 17  2  0
 17 18  1  0
 18 19  2  0
 19 20  1  0
 19 21  1  0
 11 22  1  0
 22 23  2  0
 23  8  1  0
 21 16  1  0
  1 24  1  0
  1 25  1  0
  1 26  1  0
  9 27  1  0
 10 28  1  0
 12 29  1  0
 12 30  1  0
 17 31  1  0
 18 32  1  0
 22 33  1  0
 23 34  1  0
M  CHG  4   4  -1  13  -1  20  -1  21  -1
M  END
>  <UniqueID>  (92) 
91

>  <SMILES>  (92) 
CC(=O)[N-]S(=O)(=O)c1ccc(C[N-]C(=O)c2ccc([O-])[n-]2)cc1

>  <Energy>  (92) 
59.450272708787914

>  <Genealogy>  (92) 
CC(=O)[N-]S(=O)(=O)c1ccc(C[N-]C(=O)c2ccc([O-])[n-]2)cc1 (protonated)
CC(=O)[N-]S(=O)(=O)c1ccc(C[N-]C(=O)c2ccc([O-])[n-]2)cc1 (3D coordinates assigned)
CC(=O)[N-]S(=O)(=O)c1ccc(C[N-]C(=O)c2ccc([O-])[n-]2)cc1 (optimized conformer: 59.450272708787914 kcal/mol)

>  <smiles>  (92) 
CC(=O)NS(=O)(=O)c1ccc(CNC(=O)c2ccc(O)[nH]2)cc1

>  <score_type>  (92) 
oracle

>  <origin>  (92) 
adg

>  <m_score__min__energy>  (92) 
-15.109999999999999

>  <m_primary>  (92) 
energy

$$$$
92:0
     RDKit          3D

 49 51  0  0  0  0  0  0  0  0999 V2000
   53.8600   26.3400   45.5210 H   0  0  0  0  0  0  0  0  0  0  0  0
   54.7820   26.3410   46.0120 N   0  0  0  0  0  0  0  0  0  0  0  0
   55.4320   24.7450   45.8730 S   0  0  0  0  0  0  0  0  0  0  0  0
   55.4360   24.0800   47.2220 O   0  0  0  0  0  0  0  0  0  0  0  0
   54.5660   23.9470   44.9400 O   0  0  0  0  0  0  0  0  0  0  0  0
   57.0040   24.8000   45.2430 O   0  0  0  0  0  0  0  0  0  0  0  0
   57.8630   25.3180   46.2310 C   0  0  0  0  0  0  0  0  0  0  0  0
   58.8557   24.8539   46.1352 H   0  0  0  0  0  0  0  0  0  0  0  0
   57.4533   25.0987   47.2280 H   0  0  0  0  0  0  0  0  0  0  0  0
   57.9870   26.8370   46.0480 C   0  0  1  0  0  0  0  0  0  0  0  0
   57.4379   27.2444   46.9097 H   0  0  0  0  0  0  0  0  0  0  0  0
   59.4330   27.3160   46.0270 C   0  0  0  0  0  0  0  0  0  0  0  0
   60.0770   26.5722   45.5351 H   0  0  0  0  0  0  0  0  0  0  0  0
   59.8288   27.4617   47.0429 H   0  0  0  0  0  0  0  0  0  0  0  0
   59.4210   28.6170   45.2340 C   0  0  0  0  0  0  0  0  0  0  0  0
   60.2916   28.6583   44.5629 H   0  0  0  0  0  0  0  0  0  0  0  0
   59.4710   29.4865   45.9059 H   0  0  0  0  0  0  0  0  0  0  0  0
   58.1200   28.6320   44.4130 C   0  0  2  0  0  0  0  0  0  0  0  0
   58.3389   28.7426   43.3407 H   0  0  0  0  0  0  0  0  0  0  0  0
   57.2630   29.7580   44.8040 N   0  0  0  0  0  0  0  0  0  0  0  0
   57.6390   30.9840   45.0390 C   0  0  0  0  0  0  0  0  0  0  0  0
   58.1570   31.2830   46.2570 N   0  0  0  0  0  0  0  0  0  0  0  0
   58.5620   32.5400   46.5900 C   0  0  0  0  0  0  0  0  0  0  0  0
   59.1030   32.8070   47.8960 N   0  0  0  0  0  0  0  0  0  0  0  0
   60.3090   33.1830   48.2190 C   0  0  0  0  0  0  0  0  0  0  0  0
   60.4790   33.8450   49.3950 N   0  0  0  0  0  0  0  0  0  0  0  0
   61.6960   34.2740   49.8210 C   0  0  0  0  0  0  0  0  0  0  0  0
   61.7849   34.8131   50.7757 H   0  0  0  0  0  0  0  0  0  0  0  0
   62.8320   34.0320   49.0500 C   0  0  0  0  0  0  0  0  0  0  0  0
   63.8153   34.3972   49.3814 H   0  0  0  0  0  0  0  0  0  0  0  0
   62.7110   33.3200   47.8500 C   0  0  0  0  0  0  0  0  0  0  0  0
   63.9170   33.0560   46.9990 C   0  0  0  0  0  0  0  0  0  0  0  0
   64.7869   32.8656   47.6448 H   0  0  0  0  0  0  0  0  0  0  0  0
   63.7324   32.1770   46.3640 H   0  0  0  0  0  0  0  0  0  0  0  0
   64.1165   33.9317   46.3640 H   0  0  0  0  0  0  0  0  0  0  0  0
   61.4420   32.8980   47.4260 C   0  0  0  0  0  0  0  0  0  0  0  0
   61.3302   32.3476   46.4802 H   0  0  0  0  0  0  0  0  0  0  0  0
   58.4980   33.5550   45.6140 C   0  0  0  0  0  0  0  0  0  0  0  0
   58.9500   34.9390   45.8650 C   0  0  0  0  0  0  0  0  0  0  0  0
   59.2920   35.6590   44.8890 O   0  0  0  0  0  0  0  0  0  0  0  0
   59.0610   35.4630   47.1900 N   0  0  0  0  0  0  0  0  0  0  0  0
   59.0010   34.8410   48.0260 H   0  0  0  0  0  0  0  0  0  0  0  0
   59.3220   36.4640   47.3350 H   0  0  0  0  0  0  0  0  0  0  0  0
   57.9570   33.2600   44.4010 N   0  0  0  0  0  0  0  0  0  0  0  0
   57.5250   32.0120   44.0870 C   0  0  0  0  0  0  0  0  0  0  0  0
   57.0901   31.8072   43.0976 H   0  0  0  0  0  0  0  0  0  0  0  0
   57.4060   27.3150   44.7240 C   0  0  0  0  0  0  0  0  0  0  0  0
   57.5989   26.5771   43.9313 H   0  0  0  0  0  0  0  0  0  0  0  0
   56.3155   27.4470   44.7820 H   0  0  0  0  0  0  0  0  0  0  0  0
  1  2  1  0
  2  3  1  0
  3  4  2  0
  3  5  2  0
  3  6  1  0
  6  7  1  0
  7  8  1  0
  7  9  1  0
  7 10  1  0
 10 11  1  1
 10 12  1  0
 12 13  1  0
 12 14  1  0
 12 15  1  0
 15 16  1  0
 15 17  1  0
 15 18  1  0
 18 19  1  6
 18 20  1  0
 20 21  2  0
 21 22  1  0
 22 23  1  0
 23 24  1  0
 24 25  2  3
 25 26  1  0
 26 27  1  0
 27 28  1  0
 27 29  2  0
 29 30  1  0
 29 31  1  0
 31 32  1  0
 32 33  1  0
 32 34  1  0
 32 35  1  0
 31 36  2  0
 36 37  1  0
 23 38  2  0
 38 39  1  0
 39 40  2  0
 39 41  1  0
 41 42  1  0
 41 43  1  0
 38 44  1  0
 44 45  2  0
 45 46  1  0
 18 47  1  0
 47 48  1  0
 47 49  1  0
 47 10  1  0
 45 21  1  0
 36 25  1  0
M  CHG  3   2  -1  22  -1  26  -1
M  END
>  <UniqueID>  (93) 
92

>  <SMILES>  (93) 
Cc1cc[n-]c(=Nc2[n-]/c(=N/[C@H]3CC[C@H](COS([NH-])(=O)=O)C3)cnc2C(N)=O)c1

>  <Energy>  (93) 
63.28599869285779

>  <Genealogy>  (93) 
Cc1cc[n-]c(=Nc2[n-]c(=NC3CCC(COS([NH-])(=O)=O)C3)cnc2C(N)=O)c1 (protonated)
Cc1cc[n-]c(=Nc2[n-]c(=N[C@H]3CC[C@H](COS([NH-])(=O)=O)C3)cnc2C(N)=O)c1 (chirality)
Cc1cc[n-]c(=Nc2[n-]/c(=N/[C@H]3CC[C@H](COS([NH-])(=O)=O)C3)cnc2C(N)=O)c1 (cis-trans isomerization)
Cc1cc[n-]c(=Nc2[n-]/c(=N/[C@H]3CC[C@H](COS([NH-])(=O)=O)C3)cnc2C(N)=O)c1 (3D coordinates assigned)
Cc1cc[n-]c(=Nc2[n-]/c(=N/[C@H]3CC[C@H](COS([NH-])(=O)=O)C3)cnc2C(N)=O)c1 (nonaromatic ring conformer: 63.28599869285779 kcal/mol)

>  <smiles>  (93) 
Cc1cc[nH]c(=Nc2[nH]c(=NC3CCC(COS(N)(=O)=O)C3)cnc2C(N)=O)c1

>  <score_type>  (93) 
oracle

>  <origin>  (93) 
adg

>  <m_score__min__energy>  (93) 
-13.16

>  <m_primary>  (93) 
energy

$$$$
