0:0
     RDKit          3D

 51 54  0  0  0  0  0  0  0  0999 V2000
   54.7670   27.0910   46.4450 H   0  0  0  0  0  0  0  0  0  0  0  0
   55.1430   26.2590   45.9190 N   0  0  0  0  0  0  0  0  0  0  0  0
   56.8500   26.4470   45.8000 S   0  0  0  0  0  0  0  0  0  0  0  0
   57.5010   25.9100   47.0490 O   0  0  0  0  0  0  0  0  0  0  0  0
   57.3450   25.6830   44.6040 O   0  0  0  0  0  0  0  0  0  0  0  0
   57.2330   28.1540   45.6390 C   0  0  0  0  0  0  0  0  0  0  0  0
   58.1470   28.7410   46.5270 C   0  0  0  0  0  0  0  0  0  0  0  0
   58.6324   28.1265   47.2995 H   0  0  0  0  0  0  0  0  0  0  0  0
   58.4450   30.1130   46.4330 C   0  0  0  0  0  0  0  0  0  0  0  0
   59.1761   30.5635   47.1205 H   0  0  0  0  0  0  0  0  0  0  0  0
   57.8100   30.9120   45.4610 C   0  0  0  0  0  0  0  0  0  0  0  0
   58.0960   32.3380   45.3680 N   0  0  0  0  0  0  0  0  0  0  0  0
   58.1440   33.0720   44.2400 C   0  0  0  0  0  0  0  0  0  0  0  0
   57.9409   32.6822   43.2316 H   0  0  0  0  0  0  0  0  0  0  0  0
   58.4820   34.3770   44.5210 C   0  0  0  0  0  0  0  0  0  0  0  0
   58.5953   35.1964   43.7959 H   0  0  0  0  0  0  0  0  0  0  0  0
   58.6510   34.4580   45.8870 C   0  0  0  0  0  0  0  0  0  0  0  0
   58.9304   35.3485   46.4691 H   0  0  0  0  0  0  0  0  0  0  0  0
   58.3960   33.1850   46.3760 C   0  0  0  0  0  0  0  0  0  0  0  0
   58.6710   32.7670   47.7650 C   0  0  0  0  0  0  0  0  0  0  0  0
   57.8597   32.3308   48.3663 H   0  0  0  0  0  0  0  0  0  0  0  0
   59.8830   32.9070   48.3070 C   0  0  0  0  0  0  0  0  0  0  0  0
   60.1940   34.0270   49.6410 S   0  0  0  0  0  0  0  0  0  0  0  0
   61.8770   33.3820   49.6720 C   0  0  0  0  0  0  0  0  0  0  0  0
   62.9220   34.2210   50.1730 S   0  0  0  0  0  0  0  0  0  0  0  0
   62.1680   32.2070   48.8730 N   0  0  1  0  0  0  0  0  0  0  0  0
   63.0550   32.3470   48.3090 H   0  0  0  0  0  0  0  0  0  0  0  0
   62.2460   31.0000   49.7480 C   0  0  0  0  0  0  0  0  0  0  0  0
   63.2172   30.5071   49.5940 H   0  0  0  0  0  0  0  0  0  0  0  0
   62.1358   31.3202   50.7946 H   0  0  0  0  0  0  0  0  0  0  0  0
   61.1180   30.0020   49.4210 C   0  0  0  0  0  0  0  0  0  0  0  0
   60.2989   30.5370   48.9182 H   0  0  0  0  0  0  0  0  0  0  0  0
   61.5240   29.2163   48.7669 H   0  0  0  0  0  0  0  0  0  0  0  0
   60.4730   29.2160   50.9470 S   0  0  0  0  0  0  0  0  0  0  0  0
   59.4640   30.6550   51.3840 C   0  0  0  0  0  0  0  0  0  0  0  0
   58.2090   30.8440   50.7840 C   0  0  0  0  0  0  0  0  0  0  0  0
   57.8348   30.1089   50.0563 H   0  0  0  0  0  0  0  0  0  0  0  0
   57.4310   31.9620   51.1060 C   0  0  0  0  0  0  0  0  0  0  0  0
   56.4480   32.1041   50.6332 H   0  0  0  0  0  0  0  0  0  0  0  0
   57.9060   32.8980   52.0300 C   0  0  0  0  0  0  0  0  0  0  0  0
   57.2961   33.7763   52.2881 H   0  0  0  0  0  0  0  0  0  0  0  0
   59.1640   32.7140   52.6280 C   0  0  0  0  0  0  0  0  0  0  0  0
   59.5369   33.4517   53.3538 H   0  0  0  0  0  0  0  0  0  0  0  0
   59.9500   31.5930   52.3050 C   0  0  0  0  0  0  0  0  0  0  0  0
   60.9367   31.4539   52.7709 H   0  0  0  0  0  0  0  0  0  0  0  0
   61.0590   32.1080   47.9710 C   0  0  0  0  0  0  0  0  0  0  0  0
   61.1640   31.4990   46.8760 O   0  0  0  0  0  0  0  0  0  0  0  0
   56.8980   30.3080   44.5710 C   0  0  0  0  0  0  0  0  0  0  0  0
   56.4080   30.9187   43.7983 H   0  0  0  0  0  0  0  0  0  0  0  0
   56.6090   28.9450   44.6580 C   0  0  0  0  0  0  0  0  0  0  0  0
   55.8926   28.4894   43.9586 H   0  0  0  0  0  0  0  0  0  0  0  0
  1  2  1  0
  2  3  1  0
  3  4  2  0
  3  5  2  0
  3  6  1  0
  6  7  2  0
  7  8  1  0
  7  9  1  0
  9 10  1  0
  9 11  2  0
 11 12  1  0
 12 13  1  0
 13 14  1  0
 13 15  2  0
 15 16  1  0
 15 17  1  0
 17 18  1  0
 17 19  2  0
 19 20  1  0
 20 21  1  0
 20 22  2  0
 22 23  1  0
 23 24  1  0
 24 25  2  0
 24 26  1  0
 26 27  1  6
 26 28  1  0
 28 29  1  0
 28 30  1  0
 28 31  1  0
 31 32  1  0
 31 33  1  0
 31 34  1  0
 34 35  1  0
 35 36  2  0
 36 37  1  0
 36 38  1  0
 38 39  1  0
 38 40  2  0
 40 41  1  0
 40 42  1  0
 42 43  1  0
 42 44  2  0
 44 45  1  0
 26 46  1  0
 46 47  2  0
 11 48  1  0
 48 49  1  0
 48 50  2  0
 50 51  1  0
 50  6  1  0
 19 12  1  0
 46 22  1  0
 44 35  1  0
M  CHG  2   2  -1  26   1
M  END
>  <UniqueID>  (1) 
1

>  <SMILES>  (1) 
[NH-]S(=O)(=O)c1ccc(-n2cccc2/C=C2/SC(=S)[N@@H+](CCSc3ccccc3)C2=O)cc1

>  <Energy>  (1) 
105.44240888661024

>  <Genealogy>  (1) 
[NH-]S(=O)(=O)c1ccc(-n2cccc2C=C2SC(=S)[NH+](CCSc3ccccc3)C2=O)cc1 (protonated)
[NH-]S(=O)(=O)c1ccc(-n2cccc2C=C2SC(=S)[N@@H+](CCSc3ccccc3)C2=O)cc1 (chirality)
[NH-]S(=O)(=O)c1ccc(-n2cccc2/C=C2/SC(=S)[N@@H+](CCSc3ccccc3)C2=O)cc1 (cis-trans isomerization)
[NH-]S(=O)(=O)c1ccc(-n2cccc2/C=C2/SC(=S)[N@@H+](CCSc3ccccc3)C2=O)cc1 (3D coordinates assigned)
[NH-]S(=O)(=O)c1ccc(-n2cccc2/C=C2/SC(=S)[N@@H+](CCSc3ccccc3)C2=O)cc1 (nonaromatic ring conformer: 105.44240888661024 kcal/mol)

>  <smiles>  (1) 
NS(=O)(=O)c1ccc(-n2cccc2C=C2SC(=S)N(CCSc3ccccc3)C2=O)cc1

>  <score_type>  (1) 
oracle

>  <origin>  (1) 
adg

>  <m_score__min__energy>  (1) 
-11.42

>  <m_primary>  (1) 
energy

$$$$
1:0
     RDKit          3D

 52 55  0  0  0  0  0  0  0  0999 V2000
   59.5730   29.4390   47.2990 C   0  0  0  0  0  0  0  0  0  0  0  0
   59.0620   29.7490   46.0970 C   0  0  0  0  0  0  0  0  0  0  0  0
   58.5240   28.8550   45.1620 C   0  0  0  0  0  0  0  0  0  0  0  0
   58.4430   27.5130   45.2800 C   0  0  0  0  0  0  0  0  0  0  0  0
   57.2390   26.7530   45.6810 C   0  0  0  0  0  0  0  0  0  0  0  0
   57.2140   25.4730   46.0920 N   0  0  0  0  0  0  0  0  0  0  0  0
   55.9010   25.2250   46.2800 C   0  0  0  0  0  0  0  0  0  0  0  0
   55.4710   24.1100   46.6730 O   0  0  0  0  0  0  0  0  0  0  0  0
   55.0860   26.2660   46.0130 N   0  0  0  0  0  0  0  0  0  0  0  0
   55.9470   27.2220   45.6320 C   0  0  0  0  0  0  0  0  0  0  0  0
   55.5600   28.4980   45.2450 O   0  0  0  0  0  0  0  0  0  0  0  0
   58.0800   29.6350   44.0980 C   0  0  0  0  0  0  0  0  0  0  0  0
   58.3520   30.9470   44.4250 C   0  0  0  0  0  0  0  0  0  0  0  0
   58.0010   32.1300   43.5750 C   0  0  0  0  0  0  0  0  0  0  0  0
   58.9470   31.0180   45.6340 N   0  0  0  0  0  0  0  0  0  0  0  0
   59.2980   32.2280   46.3230 C   0  0  0  0  0  0  0  0  0  0  0  0
   58.4470   33.3410   46.2870 C   0  0  0  0  0  0  0  0  0  0  0  0
   58.7940   34.5090   46.9700 C   0  0  0  0  0  0  0  0  0  0  0  0
   59.9970   34.5780   47.6800 C   0  0  0  0  0  0  0  0  0  0  0  0
   60.8710   33.4770   47.7010 C   0  0  0  0  0  0  0  0  0  0  0  0
   62.1480   33.5430   48.4440 C   0  0  0  0  0  0  0  0  0  0  0  0
   63.0630   34.3090   48.0420 O   0  0  0  0  0  0  0  0  0  0  0  0
   62.3570   32.7840   49.6410 N   0  0  0  0  0  0  0  0  0  0  0  0
   62.0430   33.2720   50.9810 C   0  0  0  0  0  0  0  0  0  0  0  0
   60.6440   33.8930   51.0100 C   0  0  0  0  0  0  0  0  0  0  0  0
   59.5780   32.8350   51.1670 C   0  0  0  0  0  0  0  0  0  0  0  0
   59.7240   31.5960   50.5220 C   0  0  0  0  0  0  0  0  0  0  0  0
   58.7630   30.5950   50.6880 C   0  0  0  0  0  0  0  0  0  0  0  0
   57.6500   30.8210   51.5010 C   0  0  0  0  0  0  0  0  0  0  0  0
   56.6890   29.8320   51.6530 O   0  0  0  0  0  0  0  0  0  0  0  0
   57.5040   32.0440   52.1610 C   0  0  0  0  0  0  0  0  0  0  0  0
   58.4660   33.0470   52.0070 C   0  0  0  0  0  0  0  0  0  0  0  0
   58.3140   34.2460   52.6950 O   0  0  0  0  0  0  0  0  0  0  0  0
   60.4990   32.2970   47.0390 C   0  0  0  0  0  0  0  0  0  0  0  0
   59.9687   30.2327   47.9497 H   0  0  0  0  0  0  0  0  0  0  0  0
   59.5961   28.3913   47.6332 H   0  0  0  0  0  0  0  0  0  0  0  0
   59.3516   26.9338   45.0587 H   0  0  0  0  0  0  0  0  0  0  0  0
   57.6039   29.2744   43.1743 H   0  0  0  0  0  0  0  0  0  0  0  0
   57.7478   32.9835   44.2211 H   0  0  0  0  0  0  0  0  0  0  0  0
   58.8598   32.3930   42.9400 H   0  0  0  0  0  0  0  0  0  0  0  0
   57.1377   31.8820   42.9400 H   0  0  0  0  0  0  0  0  0  0  0  0
   57.5052   33.2947   45.7205 H   0  0  0  0  0  0  0  0  0  0  0  0
   58.1190   35.3773   46.9494 H   0  0  0  0  0  0  0  0  0  0  0  0
   60.2603   35.4971   48.2240 H   0  0  0  0  0  0  0  0  0  0  0  0
   62.0813   32.4323   51.6905 H   0  0  0  0  0  0  0  0  0  0  0  0
   62.7793   34.0393   51.2623 H   0  0  0  0  0  0  0  0  0  0  0  0
   60.5805   34.5941   51.8553 H   0  0  0  0  0  0  0  0  0  0  0  0
   60.4764   34.4165   50.0572 H   0  0  0  0  0  0  0  0  0  0  0  0
   60.5999   31.4124   49.8824 H   0  0  0  0  0  0  0  0  0  0  0  0
   58.8833   29.6280   50.1778 H   0  0  0  0  0  0  0  0  0  0  0  0
   56.6289   32.2184   52.8042 H   0  0  0  0  0  0  0  0  0  0  0  0
   61.1578   31.4172   47.0831 H   0  0  0  0  0  0  0  0  0  0  0  0
  1  2  2  0
  2  3  1  0
  3  4  2  3
  4  5  1  0
  5  6  1  0
  6  7  1  0
  7  8  2  0
  7  9  1  0
  9 10  1  0
 10 11  1  0
  3 12  1  0
 12 13  2  0
 13 14  1  0
 13 15  1  0
 15 16  1  0
 16 17  2  0
 17 18  1  0
 18 19  2  0
 19 20  1  0
 20 21  1  0
 21 22  2  0
 21 23  1  0
 23 24  1  0
 24 25  1  0
 25 26  1  0
 26 27  2  0
 27 28  1  0
 28 29  2  0
 29 30  1  0
 29 31  1  0
 31 32  2  0
 32 33  1  0
 20 34  2  0
 15  2  1  0
 34 16  1  0
 10  5  2  0
 32 26  1  0
  1 35  1  0
  1 36  1  0
  4 37  1  0
 12 38  1  0
 14 39  1  0
 14 40  1  0
 14 41  1  0
 17 42  1  0
 18 43  1  0
 19 44  1  0
 24 45  1  0
 24 46  1  0
 25 47  1  0
 25 48  1  0
 27 49  1  0
 28 50  1  0
 31 51  1  0
 34 52  1  0
M  CHG  6   6  -1   9  -1  11  -1  23  -1  30  -1  33  -1
M  END
>  <UniqueID>  (2) 
2

>  <SMILES>  (2) 
C=c1c(=Cc2[n-]c(=O)[n-]c2[O-])cc(C)n1-c1cccc(C(=O)[N-]CCc2ccc([O-])cc2[O-])c1

>  <Energy>  (2) 
122.40738603068162

>  <Genealogy>  (2) 
C=c1c(=Cc2[n-]c(=O)[n-]c2[O-])cc(C)n1-c1cccc(C(=O)[N-]CCc2ccc([O-])cc2[O-])c1 (protonated)
C=c1c(=Cc2[n-]c(=O)[n-]c2[O-])cc(C)n1-c1cccc(C(=O)[N-]CCc2ccc([O-])cc2[O-])c1 (3D coordinates assigned)
C=c1c(=Cc2[n-]c(=O)[n-]c2[O-])cc(C)n1-c1cccc(C(=O)[N-]CCc2ccc([O-])cc2[O-])c1 (optimized conformer: 122.40738603068162 kcal/mol)

>  <smiles>  (2) 
C=c1c(=Cc2[nH]c(=O)[nH]c2O)cc(C)n1-c1cccc(C(=O)NCCc2ccc(O)cc2O)c1

>  <score_type>  (2) 
oracle

>  <origin>  (2) 
adg

>  <m_score__min__energy>  (2) 
-22.859999999999999

>  <m_primary>  (2) 
energy

$$$$
2:0
     RDKit          3D

 50 52  0  0  1  0  0  0  0  0999 V2000
   59.1650   31.1380   49.7750 N   0  0  0  0  0  0  0  0  0  0  0  0
   59.4330   30.2810   48.8590 C   0  0  0  0  0  0  0  0  0  0  0  0
   59.0420   30.4550   47.5480 C   0  0  0  0  0  0  0  0  0  0  0  0
   59.3430   29.5170   46.5760 C   0  0  0  0  0  0  0  0  0  0  0  0
   58.8820   29.7720   45.2030 C   0  0  0  0  0  0  0  0  0  0  0  0
   58.6930   31.1950   45.0370 N   0  0  0  0  0  0  0  0  0  0  0  0
   57.4330   31.8220   44.8730 C   0  0  0  0  0  0  0  0  0  0  0  0
   56.3390   31.2050   44.8540 O   0  0  0  0  0  0  0  0  0  0  0  0
   57.4020   33.3320   44.7110 C   0  0  0  0  0  0  0  0  0  0  0  0
   58.7210   33.7540   44.8410 N   0  0  0  0  0  0  0  0  0  0  0  0
   59.2880   33.9190   45.9810 C   0  0  0  0  0  0  0  0  0  0  0  0
   58.6760   34.4200   47.0680 N   0  0  0  0  0  0  0  0  0  0  0  0
   59.2710   34.5910   48.2440 C   0  0  0  0  0  0  0  0  0  0  0  0
   60.5890   34.2430   48.3800 C   0  0  0  0  0  0  0  0  0  0  0  0
   61.2260   33.7270   47.2700 C   0  0  0  0  0  0  0  0  0  0  0  0
   62.4590   33.3840   47.3300 N   0  0  0  0  0  0  0  0  0  0  0  0
   63.0740   32.7780   48.4600 C   0  0  0  0  0  0  0  0  0  0  0  0
   64.3940   33.1430   48.7030 C   0  0  0  0  0  0  0  0  0  0  0  0
   65.0860   32.6110   49.7700 C   0  0  0  0  0  0  0  0  0  0  0  0
   64.4590   31.7080   50.6030 C   0  0  0  0  0  0  0  0  0  0  0  0
   63.1390   31.3540   50.3470 C   0  0  0  0  0  0  0  0  0  0  0  0
   62.3970   30.2120   51.4230 S   0  0  0  0  0  0  0  0  0  0  0  0
   60.7380   30.5990   51.7200 N   0  0  0  0  0  0  0  0  0  0  0  0
   62.3820   28.8390   50.7640 O   0  0  0  0  0  0  0  0  0  0  0  0
   63.1410   30.0610   52.7190 O   0  0  0  0  0  0  0  0  0  0  0  0
   62.4340   31.8770   49.2830 C   0  0  0  0  0  0  0  0  0  0  0  0
   60.5950   33.5630   46.0810 N   0  0  0  0  0  0  0  0  0  0  0  0
   60.0450   28.4090   46.9800 C   0  0  0  0  0  0  0  0  0  0  0  0
   60.4240   28.2610   48.2990 C   0  0  0  0  0  0  0  0  0  0  0  0
   60.1200   29.1840   49.2200 N   0  0  0  0  0  0  0  0  0  0  0  0
   59.8920   31.7820   50.1300 H   0  0  0  0  0  0  0  0  0  0  0  0
   58.4792   31.3581   47.2691 H   0  0  0  0  0  0  0  0  0  0  0  0
   59.6350   29.4121   44.4864 H   0  0  0  0  0  0  0  0  0  0  0  0
   57.9349   29.2432   45.0203 H   0  0  0  0  0  0  0  0  0  0  0  0
   59.5680   31.7900   45.0420 H   0  0  0  0  0  0  0  0  0  0  0  0
   57.0090   33.6030   43.7200 H   0  0  0  0  0  0  0  0  0  0  0  0
   56.7495   33.8062   45.4589 H   0  0  0  0  0  0  0  0  0  0  0  0
   57.6870   34.6820   46.9730 H   0  0  0  0  0  0  0  0  0  0  0  0
   58.7130   35.0061   49.0962 H   0  0  0  0  0  0  0  0  0  0  0  0
   61.1184   34.3698   49.3359 H   0  0  0  0  0  0  0  0  0  0  0  0
   64.8909   33.8637   48.0368 H   0  0  0  0  0  0  0  0  0  0  0  0
   66.1298   32.9043   49.9556 H   0  0  0  0  0  0  0  0  0  0  0  0
   64.9963   31.2735   51.4588 H   0  0  0  0  0  0  0  0  0  0  0  0
   60.0960   29.8850   51.3150 H   0  0  0  0  0  0  0  0  0  0  0  0
   60.5090   31.5560   51.4400 H   0  0  0  0  0  0  0  0  0  0  0  0
   61.3905   31.5832   49.0968 H   0  0  0  0  0  0  0  0  0  0  0  0
   61.1160   33.1620   45.2470 H   0  0  0  0  0  0  0  0  0  0  0  0
   60.3078   27.6325   46.2466 H   0  0  0  0  0  0  0  0  0  0  0  0
   60.9878   27.3657   48.5999 H   0  0  0  0  0  0  0  0  0  0  0  0
   60.4200   29.0490   50.2180 H   0  0  0  0  0  0  0  0  0  0  0  0
  1  2  2  3
  2  3  1  0
  3  4  2  0
  4  5  1  0
  5  6  1  0
  6  7  1  0
  7  8  2  0
  7  9  1  0
  9 10  1  0
 10 11  2  0
 11 12  1  0
 12 13  1  0
 13 14  2  0
 14 15  1  0
 15 16  2  0
 16 17  1  0
 17 18  2  0
 18 19  1  0
 19 20  2  0
 20 21  1  0
 21 22  1  0
 22 23  1  0
 22 24  2  0
 22 25  2  0
 21 26  2  0
 15 27  1  0
  4 28  1  0
 28 29  2  0
 29 30  1  0
 30  2  1  0
 27 11  1  0
 26 17  1  0
  1 31  1  0
  3 32  1  0
  5 33  1  0
  5 34  1  0
  6 35  1  0
  9 36  1  0
  9 37  1  0
 12 38  1  0
 13 39  1  0
 14 40  1  0
 18 41  1  0
 19 42  1  0
 20 43  1  0
 23 44  1  0
 23 45  1  0
 26 46  1  0
 27 47  1  0
 28 48  1  0
 29 49  1  0
 30 50  1  0
M  END
>  <smiles>  (3) 
N=c1cc(CNC(=O)CN=c2[nH]ccc(=Nc3cccc(S(N)(=O)=O)c3)[nH]2)cc[nH]1

>  <score_type>  (3) 
oracle

>  <origin>  (3) 
adg

>  <m_score__min__energy>  (3) 
-9.2400000000000002

>  <m_primary>  (3) 
energy

$$$$
3:0
     RDKit          3D

 39 40  0  0  0  0  0  0  0  0999 V2000
   55.5170   29.0620   44.8980 O   0  0  0  0  0  0  0  0  0  0  0  0
   56.7170   28.7020   45.0380 C   0  0  0  0  0  0  0  0  0  0  0  0
   57.7550   29.1760   44.0720 C   0  0  0  0  0  0  0  0  0  0  0  0
   58.3300   30.4360   44.5270 N   0  0  0  0  0  0  0  0  0  0  0  0
   57.5470   31.5840   44.8740 C   0  0  0  0  0  0  0  0  0  0  0  0
   56.3060   31.5860   44.6520 O   0  0  0  0  0  0  0  0  0  0  0  0
   58.1910   32.7660   45.4940 C   0  0  0  0  0  0  0  0  0  0  0  0
   58.3370   32.8490   46.8930 C   0  0  0  0  0  0  0  0  0  0  0  0
   58.9480   33.9640   47.4770 C   0  0  0  0  0  0  0  0  0  0  0  0
   59.4190   35.0050   46.6750 C   0  0  0  0  0  0  0  0  0  0  0  0
   59.2810   34.9350   45.2860 C   0  0  0  0  0  0  0  0  0  0  0  0
   58.6720   33.8230   44.6980 C   0  0  0  0  0  0  0  0  0  0  0  0
   57.0970   27.8460   46.1210 N   0  0  0  0  0  0  0  0  0  0  0  0
   57.2090   26.3960   46.0010 C   0  0  2  0  0  0  0  0  0  0  0  0
   57.6100   26.0400   44.5610 C   0  0  0  0  0  0  0  0  0  0  0  0
   57.4840   24.5610   44.2940 C   0  0  0  0  0  0  0  0  0  0  0  0
   58.3260   23.6450   44.9480 C   0  0  0  0  0  0  0  0  0  0  0  0
   58.2270   22.2780   44.6730 C   0  0  0  0  0  0  0  0  0  0  0  0
   57.2950   21.8160   43.7410 C   0  0  0  0  0  0  0  0  0  0  0  0
   56.4590   22.7210   43.0790 C   0  0  0  0  0  0  0  0  0  0  0  0
   56.5550   24.0900   43.3510 C   0  0  0  0  0  0  0  0  0  0  0  0
   55.9000   25.7540   46.3690 C   0  0  0  0  0  0  0  0  0  0  0  0
   55.8850   24.6740   47.0150 O   0  0  0  0  0  0  0  0  0  0  0  0
   54.7010   26.3340   45.9730 O   0  0  0  0  0  0  0  0  0  0  0  0
   58.5509   28.4206   43.9946 H   0  0  0  0  0  0  0  0  0  0  0  0
   57.2859   29.3304   43.0891 H   0  0  0  0  0  0  0  0  0  0  0  0
   57.9682   32.0318   47.5303 H   0  0  0  0  0  0  0  0  0  0  0  0
   59.0574   34.0204   48.5701 H   0  0  0  0  0  0  0  0  0  0  0  0
   59.8989   35.8807   47.1364 H   0  0  0  0  0  0  0  0  0  0  0  0
   59.6521   35.7560   44.6549 H   0  0  0  0  0  0  0  0  0  0  0  0
   58.5676   33.7732   43.6041 H   0  0  0  0  0  0  0  0  0  0  0  0
   57.9813   26.0190   46.6876 H   0  0  0  0  0  0  0  0  0  0  0  0
   56.9558   26.5846   43.8642 H   0  0  0  0  0  0  0  0  0  0  0  0
   58.6630   26.3246   44.4190 H   0  0  0  0  0  0  0  0  0  0  0  0
   59.0653   24.0050   45.6786 H   0  0  0  0  0  0  0  0  0  0  0  0
   58.8845   21.5647   45.1917 H   0  0  0  0  0  0  0  0  0  0  0  0
   57.2184   20.7396   43.5275 H   0  0  0  0  0  0  0  0  0  0  0  0
   55.7259   22.3564   42.3444 H   0  0  0  0  0  0  0  0  0  0  0  0
   55.9006   24.8004   42.8245 H   0  0  0  0  0  0  0  0  0  0  0  0
  1  2  2  0
  2  3  1  0
  3  4  1  0
  4  5  1  0
  5  6  2  0
  5  7  1  0
  7  8  2  0
  8  9  1  0
  9 10  2  0
 10 11  1  0
 11 12  2  0
  2 13  1  0
 13 14  1  0
 14 15  1  0
 15 16  1  0
 16 17  2  0
 17 18  1  0
 18 19  2  0
 19 20  1  0
 20 21  2  0
 14 22  1  0
 22 23  2  0
 22 24  1  0
 12  7  1  0
 21 16  1  0
  3 25  1  0
  3 26  1  0
  8 27  1  0
  9 28  1  0
 10 29  1  0
 11 30  1  0
 12 31  1  0
 14 32  1  1
 15 33  1  0
 15 34  1  0
 17 35  1  0
 18 36  1  0
 19 37  1  0
 20 38  1  0
 21 39  1  0
M  CHG  3   4  -1  13  -1  24  -1
M  END
>  <UniqueID>  (4) 
3

>  <SMILES>  (4) 
O=C(C[N-]C(=O)c1ccccc1)[N-][C@H](Cc1ccccc1)C(=O)[O-]

>  <Energy>  (4) 
32.67757593808596

>  <Genealogy>  (4) 
O=C(C[N-]C(=O)c1ccccc1)[N-]C(Cc1ccccc1)C(=O)[O-] (protonated)
O=C(C[N-]C(=O)c1ccccc1)[N-][C@H](Cc1ccccc1)C(=O)[O-] (chirality)
O=C(C[N-]C(=O)c1ccccc1)[N-][C@H](Cc1ccccc1)C(=O)[O-] (3D coordinates assigned)
O=C(C[N-]C(=O)c1ccccc1)[N-][C@H](Cc1ccccc1)C(=O)[O-] (optimized conformer: 32.67757593808596 kcal/mol)

>  <smiles>  (4) 
O=C(CNC(=O)c1ccccc1)NC(Cc1ccccc1)C(=O)O

>  <score_type>  (4) 
oracle

>  <origin>  (4) 
adg

>  <m_score__min__energy>  (4) 
-14.52

>  <m_primary>  (4) 
energy

$$$$
4:0
     RDKit          3D

 44 46  0  0  0  0  0  0  0  0999 V2000
   56.2690   29.3800   42.5610 C   0  0  0  0  0  0  0  0  0  0  0  0
   56.5030   30.1840   43.7990 C   0  0  0  0  0  0  0  0  0  0  0  0
   55.9370   29.8450   44.8750 O   0  0  0  0  0  0  0  0  0  0  0  0
   57.2950   31.3810   43.7330 N   0  0  0  0  0  0  0  0  0  0  0  0
   57.7130   32.1340   44.8840 C   0  0  0  0  0  0  0  0  0  0  0  0
   57.3740   33.4910   44.9810 C   0  0  0  0  0  0  0  0  0  0  0  0
   57.7800   34.2430   46.0840 C   0  0  0  0  0  0  0  0  0  0  0  0
   58.5360   33.6520   47.1000 C   0  0  0  0  0  0  0  0  0  0  0  0
   58.9060   32.3040   47.0110 C   0  0  0  0  0  0  0  0  0  0  0  0
   59.6980   31.7410   48.0680 N   0  0  0  0  0  0  0  0  0  0  0  0
   60.6730   30.3130   47.9310 S   0  0  0  0  0  0  0  0  0  0  0  0
   61.1400   29.9040   49.2990 O   0  0  0  0  0  0  0  0  0  0  0  0
   61.8730   30.6160   47.0810 O   0  0  0  0  0  0  0  0  0  0  0  0
   59.7240   29.0010   47.2370 C   0  0  0  0  0  0  0  0  0  0  0  0
   59.7790   28.7250   45.8630 C   0  0  0  0  0  0  0  0  0  0  0  0
   59.0160   27.6860   45.3230 C   0  0  0  0  0  0  0  0  0  0  0  0
   58.1810   26.9100   46.1470 C   0  0  0  0  0  0  0  0  0  0  0  0
   57.4160   25.8230   45.5890 N   0  0  0  0  0  0  0  0  0  0  0  0
   57.9920   24.6690   44.9190 C   0  0  0  0  0  0  0  0  0  0  0  0
   56.8390   23.6680   44.7230 C   0  0  0  0  0  0  0  0  0  0  0  0
   55.5350   24.4120   45.0430 C   0  0  0  0  0  0  0  0  0  0  0  0
   56.0040   25.6910   45.6120 C   0  0  0  0  0  0  0  0  0  0  0  0
   55.2270   26.6010   46.0010 O   0  0  0  0  0  0  0  0  0  0  0  0
   58.1420   27.1850   47.5270 C   0  0  0  0  0  0  0  0  0  0  0  0
   58.9060   28.2240   48.0650 C   0  0  0  0  0  0  0  0  0  0  0  0
   58.4990   31.5490   45.8940 C   0  0  0  0  0  0  0  0  0  0  0  0
   55.9715   28.3579   42.8383 H   0  0  0  0  0  0  0  0  0  0  0  0
   55.4693   29.8461   41.9668 H   0  0  0  0  0  0  0  0  0  0  0  0
   57.1940   29.3442   41.9668 H   0  0  0  0  0  0  0  0  0  0  0  0
   57.4980   31.7760   42.7860 H   0  0  0  0  0  0  0  0  0  0  0  0
   56.7844   33.9656   44.1828 H   0  0  0  0  0  0  0  0  0  0  0  0
   57.5039   35.3055   46.1541 H   0  0  0  0  0  0  0  0  0  0  0  0
   58.8416   34.2476   47.9728 H   0  0  0  0  0  0  0  0  0  0  0  0
   60.4249   29.3283   45.2082 H   0  0  0  0  0  0  0  0  0  0  0  0
   59.0689   27.4734   44.2450 H   0  0  0  0  0  0  0  0  0  0  0  0
   58.4116   24.9630   43.9456 H   0  0  0  0  0  0  0  0  0  0  0  0
   58.8095   24.2290   45.5090 H   0  0  0  0  0  0  0  0  0  0  0  0
   56.8233   23.3096   43.6831 H   0  0  0  0  0  0  0  0  0  0  0  0
   56.9628   22.7950   45.3807 H   0  0  0  0  0  0  0  0  0  0  0  0
   54.9433   24.5799   44.1311 H   0  0  0  0  0  0  0  0  0  0  0  0
   54.8771   23.8533   45.7249 H   0  0  0  0  0  0  0  0  0  0  0  0
   57.5053   26.5774   48.1869 H   0  0  0  0  0  0  0  0  0  0  0  0
   58.8642   28.4321   49.1443 H   0  0  0  0  0  0  0  0  0  0  0  0
   58.7979   30.4937   45.8104 H   0  0  0  0  0  0  0  0  0  0  0  0
  1  2  1  0
  2  3  2  0
  2  4  1  0
  4  5  1  0
  5  6  2  0
  6  7  1  0
  7  8  2  0
  8  9  1  0
  9 10  1  0
 10 11  1  0
 11 12  2  0
 11 13  2  0
 11 14  1  0
 14 15  2  0
 15 16  1  0
 16 17  2  0
 17 18  1  0
 18 19  1  0
 19 20  1  0
 20 21  1  0
 21 22  1  0
 22 23  2  0
 17 24  1  0
 24 25  2  0
  9 26  2  0
 26  5  1  0
 25 14  1  0
 22 18  1  0
  1 27  1  0
  1 28  1  0
  1 29  1  0
  4 30  1  0
  6 31  1  0
  7 32  1  0
  8 33  1  0
 15 34  1  0
 16 35  1  0
 19 36  1  0
 19 37  1  0
 20 38  1  0
 20 39  1  0
 21 40  1  0
 21 41  1  0
 24 42  1  0
 25 43  1  0
 26 44  1  0
M  CHG  1  10  -1
M  END
>  <UniqueID>  (5) 
4

>  <SMILES>  (5) 
CC(=O)Nc1cccc([N-]S(=O)(=O)c2ccc(N3CCCC3=O)cc2)c1

>  <Energy>  (5) 
59.30813098819981

>  <Genealogy>  (5) 
CC(=O)Nc1cccc([N-]S(=O)(=O)c2ccc(N3CCCC3=O)cc2)c1 (protonated)
CC(=O)Nc1cccc([N-]S(=O)(=O)c2ccc(N3CCCC3=O)cc2)c1 (3D coordinates assigned)
CC(=O)Nc1cccc([N-]S(=O)(=O)c2ccc(N3CCCC3=O)cc2)c1 (nonaromatic ring conformer: 59.30813098819981 kcal/mol)

>  <smiles>  (5) 
CC(=O)Nc1cccc(NS(=O)(=O)c2ccc(N3CCCC3=O)cc2)c1

>  <score_type>  (5) 
oracle

>  <origin>  (5) 
adg

>  <m_score__min__energy>  (5) 
-9.9900000000000002

>  <m_primary>  (5) 
energy

$$$$
5:0
     RDKit          3D

 35 36  0  0  0  0  0  0  0  0999 V2000
   59.4960   27.0080   47.3850 N   0  0  0  0  0  0  0  0  0  0  0  0
   60.1260   27.5040   48.5660 C   0  0  0  0  0  0  0  0  0  0  0  0
   60.6840   26.7020   49.3610 O   0  0  0  0  0  0  0  0  0  0  0  0
   60.0840   28.9630   48.8860 C   0  0  0  0  0  0  0  0  0  0  0  0
   59.1180   29.6160   48.0090 N   0  0  0  0  0  0  0  0  0  0  0  0
   59.8770   30.0420   46.5060 S   0  0  0  0  0  0  0  0  0  0  0  0
   60.7220   28.8900   46.0310 O   0  0  0  0  0  0  0  0  0  0  0  0
   60.7770   31.2250   46.7230 O   0  0  0  0  0  0  0  0  0  0  0  0
   58.6580   30.4500   45.2860 C   0  0  0  0  0  0  0  0  0  0  0  0
   58.5100   31.7910   44.8990 C   0  0  0  0  0  0  0  0  0  0  0  0
   57.5320   32.1610   43.9730 C   0  0  0  0  0  0  0  0  0  0  0  0
   56.6900   31.1950   43.4230 C   0  0  0  0  0  0  0  0  0  0  0  0
   56.8290   29.8560   43.7890 C   0  0  0  0  0  0  0  0  0  0  0  0
   57.8120   29.4670   44.7160 C   0  0  0  0  0  0  0  0  0  0  0  0
   57.9370   28.0290   45.0480 C   0  0  0  0  0  0  0  0  0  0  0  0
   58.8850   27.3670   44.5500 O   0  0  0  0  0  0  0  0  0  0  0  0
   56.9600   27.3390   45.8440 N   0  0  0  0  0  0  0  0  0  0  0  0
   56.8140   26.0490   45.9620 C   0  0  0  0  0  0  0  0  0  0  0  0
   57.8950   25.2160   45.9920 N   0  0  0  0  0  0  0  0  0  0  0  0
   57.7630   23.8680   46.0970 C   0  0  0  0  0  0  0  0  0  0  0  0
   56.4940   23.2920   46.1700 C   0  0  0  0  0  0  0  0  0  0  0  0
   55.3690   24.1170   46.1320 C   0  0  0  0  0  0  0  0  0  0  0  0
   55.5230   25.5030   46.0250 C   0  0  0  0  0  0  0  0  0  0  0  0
   54.4000   26.3220   45.9830 O   0  0  0  0  0  0  0  0  0  0  0  0
   59.5110   25.9870   47.1680 H   0  0  0  0  0  0  0  0  0  0  0  0
   59.0110   27.6600   46.7280 H   0  0  0  0  0  0  0  0  0  0  0  0
   59.7822   29.1017   49.9347 H   0  0  0  0  0  0  0  0  0  0  0  0
   61.0800   29.4046   48.7346 H   0  0  0  0  0  0  0  0  0  0  0  0
   59.1707   32.5581   45.3292 H   0  0  0  0  0  0  0  0  0  0  0  0
   57.4259   33.2152   43.6773 H   0  0  0  0  0  0  0  0  0  0  0  0
   55.9152   31.4892   42.6997 H   0  0  0  0  0  0  0  0  0  0  0  0
   56.1641   29.0983   43.3487 H   0  0  0  0  0  0  0  0  0  0  0  0
   58.6581   23.2293   46.1245 H   0  0  0  0  0  0  0  0  0  0  0  0
   56.3818   22.2012   46.2564 H   0  0  0  0  0  0  0  0  0  0  0  0
   54.3620   23.6776   46.1862 H   0  0  0  0  0  0  0  0  0  0  0  0
  1  2  1  0
  2  3  2  0
  2  4  1  0
  4  5  1  0
  5  6  1  0
  6  7  2  0
  6  8  2  0
  6  9  1  0
  9 10  2  0
 10 11  1  0
 11 12  2  0
 12 13  1  0
 13 14  2  0
 14 15  1  0
 15 16  2  0
 15 17  1  0
 17 18  2  3
 18 19  1  0
 19 20  1  0
 20 21  2  0
 21 22  1  0
 22 23  2  0
 23 24  1  0
 14  9  1  0
 23 18  1  0
  1 25  1  0
  1 26  1  0
  4 27  1  0
  4 28  1  0
 10 29  1  0
 11 30  1  0
 12 31  1  0
 13 32  1  0
 20 33  1  0
 21 34  1  0
 22 35  1  0
M  CHG  3   5  -1  19  -1  24  -1
M  END
>  <UniqueID>  (6) 
5

>  <SMILES>  (6) 
NC(=O)C[N-]S(=O)(=O)c1ccccc1C(=O)N=c1[n-]cccc1[O-]

>  <Energy>  (6) 
42.79120756248191

>  <Genealogy>  (6) 
NC(=O)C[N-]S(=O)(=O)c1ccccc1C(=O)N=c1[n-]cccc1[O-] (protonated)
NC(=O)C[N-]S(=O)(=O)c1ccccc1C(=O)N=c1[n-]cccc1[O-] (3D coordinates assigned)
NC(=O)C[N-]S(=O)(=O)c1ccccc1C(=O)N=c1[n-]cccc1[O-] (optimized conformer: 42.79120756248191 kcal/mol)

>  <smiles>  (6) 
NC(=O)CNS(=O)(=O)c1ccccc1C(=O)N=c1[nH]cccc1O

>  <score_type>  (6) 
oracle

>  <origin>  (6) 
adg

>  <m_score__min__energy>  (6) 
-13.83

>  <m_primary>  (6) 
energy

$$$$
6:0
     RDKit          3D

 39 41  0  0  0  0  0  0  0  0999 V2000
   60.8913   26.2103   47.8671 H   0  0  0  0  0  0  0  0  0  0  0  0
   60.2740   26.5490   47.0220 C   0  0  0  0  0  0  0  0  0  0  0  0
   59.0520   25.9240   46.7540 C   0  0  0  0  0  0  0  0  0  0  0  0
   58.7111   25.0903   47.3854 H   0  0  0  0  0  0  0  0  0  0  0  0
   58.2630   26.3580   45.6840 C   0  0  0  0  0  0  0  0  0  0  0  0
   57.3040   25.8618   45.4741 H   0  0  0  0  0  0  0  0  0  0  0  0
   58.6900   27.4250   44.8760 C   0  0  0  0  0  0  0  0  0  0  0  0
   57.8760   27.8450   43.6840 C   0  0  0  0  0  0  0  0  0  0  0  0
   57.0952   27.0944   43.4916 H   0  0  0  0  0  0  0  0  0  0  0  0
   58.5328   27.9285   42.8055 H   0  0  0  0  0  0  0  0  0  0  0  0
   57.2360   29.1710   43.9520 C   0  0  0  0  0  0  0  0  0  0  0  0
   57.9070   30.3540   44.1840 C   0  0  0  0  0  0  0  0  0  0  0  0
   58.9868   30.5507   44.1107 H   0  0  0  0  0  0  0  0  0  0  0  0
   56.8970   31.2340   44.5310 C   0  0  0  0  0  0  0  0  0  0  0  0
   57.0400   32.4750   44.8980 N   0  0  0  0  0  0  0  0  0  0  0  0
   57.3850   32.9220   46.2480 C   0  0  0  0  0  0  0  0  0  0  0  0
   56.7503   32.3940   46.9749 H   0  0  0  0  0  0  0  0  0  0  0  0
   57.2209   34.0079   46.3102 H   0  0  0  0  0  0  0  0  0  0  0  0
   58.8400   32.6350   46.5600 C   0  0  0  0  0  0  0  0  0  0  0  0
   59.1950   31.3590   47.0380 C   0  0  0  0  0  0  0  0  0  0  0  0
   58.4225   30.5826   47.1406 H   0  0  0  0  0  0  0  0  0  0  0  0
   60.5150   31.0680   47.3830 C   0  0  0  0  0  0  0  0  0  0  0  0
   60.7758   30.0692   47.7630 H   0  0  0  0  0  0  0  0  0  0  0  0
   61.5030   32.0400   47.2470 C   0  0  0  0  0  0  0  0  0  0  0  0
   62.5413   31.8108   47.5287 H   0  0  0  0  0  0  0  0  0  0  0  0
   61.1780   33.3040   46.7540 C   0  0  0  0  0  0  0  0  0  0  0  0
   61.9644   34.0660   46.6490 H   0  0  0  0  0  0  0  0  0  0  0  0
   59.8560   33.6140   46.3900 C   0  0  0  0  0  0  0  0  0  0  0  0
   59.5480   34.9980   45.8800 C   0  0  0  0  0  0  0  0  0  0  0  0
   59.3968   35.6774   46.7318 H   0  0  0  0  0  0  0  0  0  0  0  0
   60.3879   35.3586   45.2680 H   0  0  0  0  0  0  0  0  0  0  0  0
   58.6345   34.9684   45.2680 H   0  0  0  0  0  0  0  0  0  0  0  0
   55.6990   30.6190   44.4980 N   0  0  0  0  0  0  0  0  0  0  0  0
   55.9180   29.3610   44.1500 N   0  0  0  0  0  0  0  0  0  0  0  0
   55.1700   28.6360   44.0740 H   0  0  0  0  0  0  0  0  0  0  0  0
   59.9270   28.0380   45.1420 C   0  0  0  0  0  0  0  0  0  0  0  0
   60.2794   28.8615   44.5035 H   0  0  0  0  0  0  0  0  0  0  0  0
   60.7110   27.6040   46.2160 C   0  0  0  0  0  0  0  0  0  0  0  0
   61.6731   28.0938   46.4267 H   0  0  0  0  0  0  0  0  0  0  0  0
  1  2  1  0
  2  3  2  0
  3  4  1  0
  3  5  1  0
  5  6  1  0
  5  7  2  0
  7  8  1  0
  8  9  1  0
  8 10  1  0
  8 11  1  0
 11 12  2  0
 12 13  1  0
 12 14  1  0
 14 15  2  0
 15 16  1  0
 16 17  1  0
 16 18  1  0
 16 19  1  0
 19 20  2  0
 20 21  1  0
 20 22  1  0
 22 23  1  0
 22 24  2  0
 24 25  1  0
 24 26  1  0
 26 27  1  0
 26 28  2  0
 28 29  1  0
 29 30  1  0
 29 31  1  0
 29 32  1  0
 14 33  1  0
 33 34  1  0
 34 35  1  0
  7 36  1  0
 36 37  1  0
 36 38  2  0
 38 39  1  0
 38  2  1  0
 34 11  1  0
 28 19  1  0
M  CHG  1  33  -1
M  END
>  <UniqueID>  (7) 
6

>  <SMILES>  (7) 
Cc1ccccc1C/N=c1\cc(Cc2ccccc2)[nH][n-]1

>  <Energy>  (7) 
69.6317271454996

>  <Genealogy>  (7) 
Cc1ccccc1CN=c1cc(Cc2ccccc2)[nH][n-]1 (protonated)
Cc1ccccc1C/N=c1\cc(Cc2ccccc2)[nH][n-]1 (cis-trans isomerization)
Cc1ccccc1C/N=c1\cc(Cc2ccccc2)[nH][n-]1 (3D coordinates assigned)
Cc1ccccc1C/N=c1\cc(Cc2ccccc2)[nH][n-]1 (optimized conformer: 69.6317271454996 kcal/mol)

>  <smiles>  (7) 
Cc1ccccc1CN=c1cc(Cc2ccccc2)[nH][nH]1

>  <score_type>  (7) 
oracle

>  <origin>  (7) 
adg

>  <m_score__min__energy>  (7) 
-10.050000000000001

>  <m_primary>  (7) 
energy

$$$$
7:0
     RDKit          3D

 47 48  0  0  0  0  0  0  0  0999 V2000
   64.4520   33.9130   51.2410 C   0  0  0  0  0  0  0  0  0  0  0  0
   64.4980   33.4350   49.8210 C   0  0  0  0  0  0  0  0  0  0  0  0
   65.5960   33.0080   49.3690 O   0  0  0  0  0  0  0  0  0  0  0  0
   63.2960   33.4500   48.9440 C   0  0  0  0  0  0  0  0  0  0  0  0
   63.4090   33.1020   47.5850 C   0  0  0  0  0  0  0  0  0  0  0  0
   62.2880   33.1140   46.7520 C   0  0  0  0  0  0  0  0  0  0  0  0
   61.0340   33.4870   47.2500 C   0  0  0  0  0  0  0  0  0  0  0  0
   59.8940   33.4720   46.3740 N   0  0  0  0  0  0  0  0  0  0  0  0
   59.3490   34.6420   45.7440 C   0  0  0  0  0  0  0  0  0  0  0  0
   59.9210   35.7600   45.8560 O   0  0  0  0  0  0  0  0  0  0  0  0
   58.1280   34.5290   44.8770 C   0  0  0  0  0  0  0  0  0  0  0  0
   58.0900   33.1980   44.1160 C   0  0  0  0  0  0  0  0  0  0  0  0
   57.6440   31.8220   45.1680 S   0  0  0  0  0  0  0  0  0  0  0  0
   57.3940   32.3450   46.5550 O   0  0  0  0  0  0  0  0  0  0  0  0
   56.3930   31.1620   44.6590 O   0  0  0  0  0  0  0  0  0  0  0  0
   58.9390   30.6730   45.2020 N   0  0  0  0  0  0  0  0  0  0  0  0
   58.8180   29.4010   45.8450 C   0  0  0  0  0  0  0  0  0  0  0  0
   58.2300   28.3000   45.1780 C   0  0  0  0  0  0  0  0  0  0  0  0
   57.7310   28.4150   43.7630 C   0  0  0  0  0  0  0  0  0  0  0  0
   58.0940   27.0780   45.8540 C   0  0  0  0  0  0  0  0  0  0  0  0
   58.5680   26.9340   47.1590 C   0  0  0  0  0  0  0  0  0  0  0  0
   59.1840   28.0050   47.8040 C   0  0  0  0  0  0  0  0  0  0  0  0
   59.3220   29.2420   47.1530 C   0  0  0  0  0  0  0  0  0  0  0  0
   59.9610   30.3990   47.8690 C   0  0  0  0  0  0  0  0  0  0  0  0
   60.9080   33.8140   48.6100 C   0  0  0  0  0  0  0  0  0  0  0  0
   62.0280   33.8020   49.4470 C   0  0  0  0  0  0  0  0  0  0  0  0
   64.5349   33.0520   51.9206 H   0  0  0  0  0  0  0  0  0  0  0  0
   65.2877   34.6049   51.4222 H   0  0  0  0  0  0  0  0  0  0  0  0
   63.4997   34.4328   51.4222 H   0  0  0  0  0  0  0  0  0  0  0  0
   64.3894   32.8179   47.1750 H   0  0  0  0  0  0  0  0  0  0  0  0
   62.3914   32.8277   45.6949 H   0  0  0  0  0  0  0  0  0  0  0  0
   59.5180   32.5410   46.0840 H   0  0  0  0  0  0  0  0  0  0  0  0
   57.2327   34.6016   45.5119 H   0  0  0  0  0  0  0  0  0  0  0  0
   58.1568   35.3439   44.1387 H   0  0  0  0  0  0  0  0  0  0  0  0
   57.3512   33.2761   43.3048 H   0  0  0  0  0  0  0  0  0  0  0  0
   59.1002   33.0069   43.7250 H   0  0  0  0  0  0  0  0  0  0  0  0
   56.6591   28.6620   43.7711 H   0  0  0  0  0  0  0  0  0  0  0  0
   58.2863   29.2087   43.2418 H   0  0  0  0  0  0  0  0  0  0  0  0
   57.8829   27.4583   43.2418 H   0  0  0  0  0  0  0  0  0  0  0  0
   57.6103   26.2272   45.3519 H   0  0  0  0  0  0  0  0  0  0  0  0
   58.4550   25.9719   47.6801 H   0  0  0  0  0  0  0  0  0  0  0  0
   59.5643   27.8809   48.8287 H   0  0  0  0  0  0  0  0  0  0  0  0
   59.8780   30.2488   48.9555 H   0  0  0  0  0  0  0  0  0  0  0  0
   61.0225   30.4632   47.5877 H   0  0  0  0  0  0  0  0  0  0  0  0
   59.4501   31.3316   47.5877 H   0  0  0  0  0  0  0  0  0  0  0  0
   59.9225   34.0811   49.0191 H   0  0  0  0  0  0  0  0  0  0  0  0
   61.9180   34.0699   50.5082 H   0  0  0  0  0  0  0  0  0  0  0  0
  1  2  1  0
  2  3  2  0
  2  4  1  0
  4  5  2  0
  5  6  1  0
  6  7  2  0
  7  8  1  0
  8  9  1  0
  9 10  2  0
  9 11  1  0
 11 12  1  0
 12 13  1  0
 13 14  2  0
 13 15  2  0
 13 16  1  0
 16 17  1  0
 17 18  2  0
 18 19  1  0
 18 20  1  0
 20 21  2  0
 21 22  1  0
 22 23  2  0
 23 24  1  0
  7 25  1  0
 25 26  2  0
 26  4  1  0
 23 17  1  0
  1 27  1  0
  1 28  1  0
  1 29  1  0
  5 30  1  0
  6 31  1  0
  8 32  1  0
 11 33  1  0
 11 34  1  0
 12 35  1  0
 12 36  1  0
 19 37  1  0
 19 38  1  0
 19 39  1  0
 20 40  1  0
 21 41  1  0
 22 42  1  0
 24 43  1  0
 24 44  1  0
 24 45  1  0
 25 46  1  0
 26 47  1  0
M  CHG  1  16  -1
M  END
>  <UniqueID>  (8) 
7

>  <SMILES>  (8) 
CC(=O)c1ccc(NC(=O)CCS(=O)(=O)[N-]c2c(C)cccc2C)cc1

>  <Energy>  (8) 
51.64738809029697

>  <Genealogy>  (8) 
CC(=O)c1ccc(NC(=O)CCS(=O)(=O)[N-]c2c(C)cccc2C)cc1 (protonated)
CC(=O)c1ccc(NC(=O)CCS(=O)(=O)[N-]c2c(C)cccc2C)cc1 (3D coordinates assigned)
CC(=O)c1ccc(NC(=O)CCS(=O)(=O)[N-]c2c(C)cccc2C)cc1 (optimized conformer: 51.64738809029697 kcal/mol)

>  <smiles>  (8) 
CC(=O)c1ccc(NC(=O)CCS(=O)(=O)Nc2c(C)cccc2C)cc1

>  <score_type>  (8) 
oracle

>  <origin>  (8) 
adg

>  <m_score__min__energy>  (8) 
-9.3000000000000007

>  <m_primary>  (8) 
energy

$$$$
8:0
     RDKit          3D

 30 32  0  0  0  0  0  0  0  0999 V2000
   52.9210   24.8130   45.2470 O   0  0  0  0  0  0  0  0  0  0  0  0
   53.7390   23.9100   44.9810 N   0  0  0  0  0  0  0  0  0  0  0  0
   55.1570   24.0800   45.1320 C   0  0  0  0  0  0  0  0  0  0  0  0
   55.7280   25.2390   45.7060 C   0  0  0  0  0  0  0  0  0  0  0  0
   54.9360   26.3630   45.9680 O   0  0  0  0  0  0  0  0  0  0  0  0
   57.0770   25.2920   45.9750 N   0  0  0  0  0  0  0  0  0  0  0  0
   57.6040   26.4850   46.6750 C   0  0  0  0  0  0  0  0  0  0  0  0
   57.5760   27.6800   45.7710 C   0  0  0  0  0  0  0  0  0  0  0  0
   58.6600   28.2190   45.1100 C   0  0  0  0  0  0  0  0  0  0  0  0
   58.1690   29.3050   44.4180 C   0  0  0  0  0  0  0  0  0  0  0  0
   56.8190   29.3640   44.7050 C   0  0  0  0  0  0  0  0  0  0  0  0
   56.4970   28.3840   45.5160 O   0  0  0  0  0  0  0  0  0  0  0  0
   57.9180   24.2790   45.5480 C   0  0  0  0  0  0  0  0  0  0  0  0
   59.3260   24.3490   45.7090 C   0  0  0  0  0  0  0  0  0  0  0  0
   60.1530   23.3150   45.2680 C   0  0  0  0  0  0  0  0  0  0  0  0
   59.6080   22.1930   44.6540 C   0  0  0  0  0  0  0  0  0  0  0  0
   58.2310   22.1000   44.4690 C   0  0  0  0  0  0  0  0  0  0  0  0
   57.3770   23.1340   44.9030 C   0  0  0  0  0  0  0  0  0  0  0  0
   55.9920   23.0440   44.7130 C   0  0  0  0  0  0  0  0  0  0  0  0
   55.4850   22.0230   44.1700 O   0  0  0  0  0  0  0  0  0  0  0  0
   54.0110   26.3170   46.3720 H   0  0  0  0  0  0  0  0  0  0  0  0
   56.9849   26.6873   47.5615 H   0  0  0  0  0  0  0  0  0  0  0  0
   58.6443   26.2905   46.9749 H   0  0  0  0  0  0  0  0  0  0  0  0
   59.6988   27.8577   45.1308 H   0  0  0  0  0  0  0  0  0  0  0  0
   58.7372   29.9870   43.7684 H   0  0  0  0  0  0  0  0  0  0  0  0
   56.1202   30.1178   44.3133 H   0  0  0  0  0  0  0  0  0  0  0  0
   59.7727   25.2322   46.1890 H   0  0  0  0  0  0  0  0  0  0  0  0
   61.2417   23.3881   45.4069 H   0  0  0  0  0  0  0  0  0  0  0  0
   60.2647   21.3786   44.3143 H   0  0  0  0  0  0  0  0  0  0  0  0
   57.8057   21.2114   43.9796 H   0  0  0  0  0  0  0  0  0  0  0  0
  1  2  2  0
  2  3  1  0
  3  4  2  0
  4  5  1  0
  4  6  1  0
  6  7  1  0
  7  8  1  0
  8  9  2  0
  9 10  1  0
 10 11  2  0
 11 12  1  0
  6 13  1  0
 13 14  2  0
 14 15  1  0
 15 16  2  0
 16 17  1  0
 17 18  2  0
 18 19  1  0
 19 20  2  0
 19  3  1  0
 12  8  1  0
 18 13  1  0
  5 21  1  0
  7 22  1  0
  7 23  1  0
  9 24  1  0
 10 25  1  0
 11 26  1  0
 14 27  1  0
 15 28  1  0
 16 29  1  0
 17 30  1  0
M  END
>  <UniqueID>  (9) 
8

>  <SMILES>  (9) 
O=Nc1c(O)n(Cc2ccco2)c2ccccc2c1=O

>  <Energy>  (9) 
76.0326511485303

>  <Genealogy>  (9) 
O=Nc1c(O)n(Cc2ccco2)c2ccccc2c1=O (3D coordinates assigned)
O=Nc1c(O)n(Cc2ccco2)c2ccccc2c1=O (optimized conformer: 76.0326511485303 kcal/mol)

>  <smiles>  (9) 
O=Nc1c(O)n(Cc2ccco2)c2ccccc2c1=O

>  <score_type>  (9) 
oracle

>  <origin>  (9) 
adg

>  <m_score__min__energy>  (9) 
-7.2199999999999998

>  <m_primary>  (9) 
energy

$$$$
9:0
     RDKit          3D

 40 41  0  0  0  0  0  0  0  0999 V2000
   57.3160   21.1540   43.0040 C   0  0  0  0  0  0  0  0  0  0  0  0
   56.8790   22.4230   43.7290 C   0  0  0  0  0  0  0  0  0  0  0  0
   57.7620   22.6960   44.9530 C   0  0  0  0  0  0  0  0  0  0  0  0
   57.4460   24.0320   45.5640 C   0  0  0  0  0  0  0  0  0  0  0  0
   56.1570   24.5750   45.4780 C   0  0  0  0  0  0  0  0  0  0  0  0
   55.9190   25.8220   46.0570 C   0  0  0  0  0  0  0  0  0  0  0  0
   54.7750   26.3420   45.9930 O   0  0  0  0  0  0  0  0  0  0  0  0
   56.9250   26.4770   46.6940 N   0  0  0  0  0  0  0  0  0  0  0  0
   58.1680   25.9350   46.7750 C   0  0  0  0  0  0  0  0  0  0  0  0
   59.4660   26.8080   47.6470 S   0  0  0  0  0  0  0  0  0  0  0  0
   60.4450   27.1660   46.1500 C   0  0  0  0  0  0  0  0  0  0  0  0
   60.1820   28.5610   45.6870 C   0  0  0  0  0  0  0  0  0  0  0  0
   60.9200   29.0740   44.8020 O   0  0  0  0  0  0  0  0  0  0  0  0
   59.1040   29.3070   46.2620 N   0  0  0  0  0  0  0  0  0  0  0  0
   58.7360   30.6560   45.9340 C   0  0  0  0  0  0  0  0  0  0  0  0
   59.6010   31.7270   46.2330 C   0  0  0  0  0  0  0  0  0  0  0  0
   59.2490   33.0350   45.8980 C   0  0  0  0  0  0  0  0  0  0  0  0
   58.0420   33.2910   45.2530 C   0  0  0  0  0  0  0  0  0  0  0  0
   57.1840   32.2390   44.9280 C   0  0  0  0  0  0  0  0  0  0  0  0
   57.5200   30.9120   45.2560 C   0  0  0  0  0  0  0  0  0  0  0  0
   56.6070   29.8100   44.8640 C   0  0  0  0  0  0  0  0  0  0  0  0
   56.9040   28.4520   45.2020 N   0  0  0  0  0  0  0  0  0  0  0  0
   55.5480   30.0620   44.2280 O   0  0  0  0  0  0  0  0  0  0  0  0
   58.4200   24.7220   46.2150 N   0  0  0  0  0  0  0  0  0  0  0  0
   57.5815   20.3829   43.7422 H   0  0  0  0  0  0  0  0  0  0  0  0
   56.4916   20.7896   42.3735 H   0  0  0  0  0  0  0  0  0  0  0  0
   58.1900   21.3744   42.3735 H   0  0  0  0  0  0  0  0  0  0  0  0
   56.9523   23.2748   43.0368 H   0  0  0  0  0  0  0  0  0  0  0  0
   55.8422   22.2886   44.0711 H   0  0  0  0  0  0  0  0  0  0  0  0
   57.5900   21.9091   45.7022 H   0  0  0  0  0  0  0  0  0  0  0  0
   58.8135   22.7007   44.6298 H   0  0  0  0  0  0  0  0  0  0  0  0
   55.3506   24.0302   44.9653 H   0  0  0  0  0  0  0  0  0  0  0  0
   61.5150   27.0544   46.3796 H   0  0  0  0  0  0  0  0  0  0  0  0
   60.1577   26.4623   45.3548 H   0  0  0  0  0  0  0  0  0  0  0  0
   60.5604   31.5308   46.7340 H   0  0  0  0  0  0  0  0  0  0  0  0
   59.9267   33.8658   46.1441 H   0  0  0  0  0  0  0  0  0  0  0  0
   57.7639   34.3245   44.9990 H   0  0  0  0  0  0  0  0  0  0  0  0
   56.2362   32.4490   44.4106 H   0  0  0  0  0  0  0  0  0  0  0  0
   57.8200   28.1860   45.6260 H   0  0  0  0  0  0  0  0  0  0  0  0
   56.2270   27.6940   44.9620 H   0  0  0  0  0  0  0  0  0  0  0  0
  1  2  1  0
  2  3  1  0
  3  4  1  0
  4  5  2  0
  5  6  1  0
  6  7  2  0
  6  8  1  0
  8  9  1  0
  9 10  1  0
 10 11  1  0
 11 12  1  0
 12 13  2  0
 12 14  1  0
 14 15  1  0
 15 16  2  0
 16 17  1  0
 17 18  2  0
 18 19  1  0
 19 20  2  0
 20 21  1  0
 21 22  1  0
 21 23  2  0
  9 24  2  0
 24  4  1  0
 20 15  1  0
  1 25  1  0
  1 26  1  0
  1 27  1  0
  2 28  1  0
  2 29  1  0
  3 30  1  0
  3 31  1  0
  5 32  1  0
 11 33  1  0
 11 34  1  0
 16 35  1  0
 17 36  1  0
 18 37  1  0
 19 38  1  0
 22 39  1  0
 22 40  1  0
M  CHG  2   8  -1  14  -1
M  END
>  <UniqueID>  (10) 
9

>  <SMILES>  (10) 
CCCc1cc(=O)[n-]c(SCC(=O)[N-]c2ccccc2C(N)=O)n1

>  <Energy>  (10) 
32.963637699795214

>  <Genealogy>  (10) 
CCCc1cc(=O)[n-]c(SCC(=O)[N-]c2ccccc2C(N)=O)n1 (protonated)
CCCc1cc(=O)[n-]c(SCC(=O)[N-]c2ccccc2C(N)=O)n1 (3D coordinates assigned)
CCCc1cc(=O)[n-]c(SCC(=O)[N-]c2ccccc2C(N)=O)n1 (optimized conformer: 32.963637699795214 kcal/mol)

>  <smiles>  (10) 
CCCc1cc(=O)[nH]c(SCC(=O)Nc2ccccc2C(N)=O)n1

>  <score_type>  (10) 
oracle

>  <origin>  (10) 
adg

>  <m_score__min__energy>  (10) 
-10.07

>  <m_primary>  (10) 
energy

$$$$
10:0
     RDKit          3D

 57 60  0  0  1  0  0  0  0  0999 V2000
   58.5340   30.8680   48.3340 O   0  0  0  0  0  0  0  0  0  0  0  0
   58.9360   30.0720   49.2190 C   0  0  0  0  0  0  0  0  0  0  0  0
   58.3620   30.2940   50.5950 C   0  0  0  0  0  0  0  0  0  0  0  0
   57.7780   31.6750   50.6870 C   0  0  0  0  0  0  0  0  0  0  0  0
   58.8630   32.6190   51.1550 C   0  0  0  0  0  0  0  0  0  0  0  0
   59.8460   32.8630   50.0780 C   0  0  0  0  0  0  0  0  0  0  0  0
   59.5970   33.9320   49.2700 N   0  0  0  0  0  0  0  0  0  0  0  0
   60.4040   34.2770   48.2510 C   0  0  0  0  0  0  0  0  0  0  0  0
   60.1340   35.2770   47.5260 O   0  0  0  0  0  0  0  0  0  0  0  0
   61.5340   33.4970   48.0340 C   0  0  0  0  0  0  0  0  0  0  0  0
   62.3680   33.8480   46.9910 C   0  0  0  0  0  0  0  0  0  0  0  0
   63.5030   33.0800   46.7600 C   0  0  0  0  0  0  0  0  0  0  0  0
   63.7580   31.9880   47.5860 C   0  0  0  0  0  0  0  0  0  0  0  0
   62.9040   31.6590   48.6270 C   0  0  0  0  0  0  0  0  0  0  0  0
   61.7800   32.4140   48.8600 C   0  0  0  0  0  0  0  0  0  0  0  0
   60.9370   32.1050   49.8740 N   0  0  0  0  0  0  0  0  0  0  0  0
   59.8590   29.0250   48.9910 N   0  0  0  0  0  0  0  0  0  0  0  0
   60.4650   28.7240   47.7130 C   0  0  0  0  0  0  0  0  0  0  0  0
   59.4260   28.1760   46.8210 C   0  0  0  0  0  0  0  0  0  0  0  0
   59.0570   26.8500   46.7810 C   0  0  0  0  0  0  0  0  0  0  0  0
   58.0920   26.3990   45.9280 C   0  0  0  0  0  0  0  0  0  0  0  0
   57.4820   27.2920   45.0960 C   0  0  0  0  0  0  0  0  0  0  0  0
   57.8000   28.6560   45.0770 C   0  0  0  0  0  0  0  0  0  0  0  0
   56.9690   29.7040   43.9740 S   0  0  0  0  0  0  0  0  0  0  0  0
   56.5080   29.0300   42.7190 O   0  0  0  0  0  0  0  0  0  0  0  0
   55.6790   30.1240   44.6840 O   0  0  0  0  0  0  0  0  0  0  0  0
   57.8710   31.1230   43.7380 N   0  0  0  0  0  0  0  0  0  0  0  0
   57.8850   32.1400   44.5080 C   0  0  0  0  0  0  0  0  0  0  0  0
   58.3790   33.3250   44.0580 C   0  0  0  0  0  0  0  0  0  0  0  0
   58.3810   34.4050   44.9090 C   0  0  0  0  0  0  0  0  0  0  0  0
   57.8840   34.2550   46.1910 C   0  0  0  0  0  0  0  0  0  0  0  0
   57.3830   33.0380   46.6340 C   0  0  0  0  0  0  0  0  0  0  0  0
   57.4040   32.0070   45.7570 N   0  0  0  0  0  0  0  0  0  0  0  0
   58.7780   29.0580   45.9530 C   0  0  0  0  0  0  0  0  0  0  0  0
   57.5738   29.5509   50.7859 H   0  0  0  0  0  0  0  0  0  0  0  0
   59.1614   30.1876   51.3431 H   0  0  0  0  0  0  0  0  0  0  0  0
   57.4112   31.9904   49.6991 H   0  0  0  0  0  0  0  0  0  0  0  0
   56.9362   31.6842   51.3950 H   0  0  0  0  0  0  0  0  0  0  0  0
   58.4065   33.5753   51.4503 H   0  0  0  0  0  0  0  0  0  0  0  0
   59.3827   32.1629   52.0105 H   0  0  0  0  0  0  0  0  0  0  0  0
   62.1389   34.7169   46.3565 H   0  0  0  0  0  0  0  0  0  0  0  0
   64.1892   33.3307   45.9376 H   0  0  0  0  0  0  0  0  0  0  0  0
   64.6541   31.3751   47.4089 H   0  0  0  0  0  0  0  0  0  0  0  0
   63.1264   30.7926   49.2672 H   0  0  0  0  0  0  0  0  0  0  0  0
   61.0990   31.3060   50.5000 H   0  0  0  0  0  0  0  0  0  0  0  0
   60.1020   28.4370   49.8430 H   0  0  0  0  0  0  0  0  0  0  0  0
   60.8836   29.6422   47.2752 H   0  0  0  0  0  0  0  0  0  0  0  0
   61.2755   27.9917   47.8428 H   0  0  0  0  0  0  0  0  0  0  0  0
   59.5531   26.1355   47.4543 H   0  0  0  0  0  0  0  0  0  0  0  0
   57.8112   25.3356   45.9115 H   0  0  0  0  0  0  0  0  0  0  0  0
   56.7055   26.9241   44.4092 H   0  0  0  0  0  0  0  0  0  0  0  0
   58.7691   33.4173   43.0336 H   0  0  0  0  0  0  0  0  0  0  0  0
   58.7732   35.3767   44.5742 H   0  0  0  0  0  0  0  0  0  0  0  0
   57.8856   35.1175   46.8737 H   0  0  0  0  0  0  0  0  0  0  0  0
   56.9865   32.9170   47.6529 H   0  0  0  0  0  0  0  0  0  0  0  0
   57.0200   31.0920   46.1110 H   0  0  0  0  0  0  0  0  0  0  0  0
   59.0634   30.1202   45.9720 H   0  0  0  0  0  0  0  0  0  0  0  0
  1  2  2  0
  2  3  1  0
  3  4  1  0
  4  5  1  0
  5  6  1  0
  6  7  2  0
  7  8  1  0
  8  9  2  0
  8 10  1  0
 10 11  2  0
 11 12  1  0
 12 13  2  0
 13 14  1  0
 14 15  2  0
 15 16  1  0
  2 17  1  0
 17 18  1  0
 18 19  1  0
 19 20  2  0
 20 21  1  0
 21 22  2  0
 22 23  1  0
 23 24  1  0
 24 25  2  0
 24 26  2  0
 24 27  1  0
 27 28  2  0
 28 29  1  0
 29 30  2  0
 30 31  1  0
 31 32  2  0
 32 33  1  0
 23 34  2  0
 16  6  1  0
 34 19  1  0
 15 10  1  0
 33 28  1  0
  3 35  1  0
  3 36  1  0
  4 37  1  0
  4 38  1  0
  5 39  1  0
  5 40  1  0
 11 41  1  0
 12 42  1  0
 13 43  1  0
 14 44  1  0
 16 45  1  0
 17 46  1  0
 18 47  1  0
 18 48  1  0
 20 49  1  0
 21 50  1  0
 22 51  1  0
 29 52  1  0
 30 53  1  0
 31 54  1  0
 32 55  1  0
 33 56  1  0
 34 57  1  0
M  END
>  <smiles>  (11) 
O=C(CCCc1nc(=O)c2ccccc2[nH]1)NCc1cccc(S(=O)(=O)N=c2cccc[nH]2)c1

>  <score_type>  (11) 
oracle

>  <origin>  (11) 
adg

>  <m_score__min__energy>  (11) 
-10.210000000000001

>  <m_primary>  (11) 
energy

$$$$
11:0
     RDKit          3D

 49 51  0  0  1  0  0  0  0  0999 V2000
   55.7540   23.7760   44.0800 C   0  0  0  0  0  0  0  0  0  0  0  0
   56.7910   24.6840   44.5760 N   0  0  0  0  0  0  0  0  0  0  0  0
   56.4920   25.6450   45.5730 C   0  0  0  0  0  0  0  0  0  0  0  0
   55.2830   25.6530   45.9890 O   0  0  0  0  0  0  0  0  0  0  0  0
   57.4810   26.5740   46.1040 C   0  0  0  0  0  0  0  0  0  0  0  0
   57.8010   26.6630   47.4410 C   0  0  0  0  0  0  0  0  0  0  0  0
   58.7390   27.5580   47.8730 C   0  0  0  0  0  0  0  0  0  0  0  0
   59.3840   28.3920   46.9550 C   0  0  0  0  0  0  0  0  0  0  0  0
   60.3430   29.2860   47.5080 N   0  0  0  0  0  0  0  0  0  0  0  0
   60.1400   30.5530   47.3920 C   0  0  0  0  0  0  0  0  0  0  0  0
   60.9620   31.4240   48.0350 N   0  0  0  0  0  0  0  0  0  0  0  0
   60.7820   32.7610   47.9400 C   0  0  0  0  0  0  0  0  0  0  0  0
   59.7430   33.2510   47.1740 C   0  0  0  0  0  0  0  0  0  0  0  0
   59.4770   34.9860   47.0250 Cl  0  0  0  0  0  0  0  0  0  0  0  0
   58.9360   32.3310   46.5380 C   0  0  0  0  0  0  0  0  0  0  0  0
   57.9630   32.7400   45.8200 N   0  0  0  0  0  0  0  0  0  0  0  0
   57.8290   32.5880   44.4040 C   0  0  0  0  0  0  0  0  0  0  0  0
   57.5890   31.1230   44.0470 C   0  0  2  0  0  0  0  0  0  0  0  0
   57.0220   30.9680   42.6760 C   0  0  0  0  0  0  0  0  0  0  0  0
   56.1390   29.7510   42.8180 C   0  0  0  0  0  0  0  0  0  0  0  0
   55.8840   29.6760   44.2950 C   0  0  0  0  0  0  0  0  0  0  0  0
   56.7270   30.5380   44.9400 O   0  0  0  0  0  0  0  0  0  0  0  0
   59.1200   31.0010   46.6390 N   0  0  0  0  0  0  0  0  0  0  0  0
   59.0860   28.3260   45.6160 C   0  0  0  0  0  0  0  0  0  0  0  0
   59.7480   29.1690   44.7400 O   0  0  0  0  0  0  0  0  0  0  0  0
   61.1450   28.9570   44.4900 C   0  0  0  0  0  0  0  0  0  0  0  0
   58.1330   27.4090   45.2220 C   0  0  0  0  0  0  0  0  0  0  0  0
   55.2302   23.3174   44.9317 H   0  0  0  0  0  0  0  0  0  0  0  0
   55.0349   24.3401   43.4679 H   0  0  0  0  0  0  0  0  0  0  0  0
   56.2182   22.9887   43.4679 H   0  0  0  0  0  0  0  0  0  0  0  0
   57.7540   24.6130   44.1830 H   0  0  0  0  0  0  0  0  0  0  0  0
   57.2972   26.0080   48.1670 H   0  0  0  0  0  0  0  0  0  0  0  0
   58.9865   27.6222   48.9429 H   0  0  0  0  0  0  0  0  0  0  0  0
   61.7600   31.1080   48.6260 H   0  0  0  0  0  0  0  0  0  0  0  0
   61.4566   33.4512   48.4677 H   0  0  0  0  0  0  0  0  0  0  0  0
   56.9781   33.1907   44.0536 H   0  0  0  0  0  0  0  0  0  0  0  0
   58.7566   32.9264   43.9191 H   0  0  0  0  0  0  0  0  0  0  0  0
   58.5705   30.6280   44.0867 H   0  0  0  0  0  0  0  0  0  0  0  0
   56.4352   31.8524   42.3871 H   0  0  0  0  0  0  0  0  0  0  0  0
   57.7897   30.8618   41.8954 H   0  0  0  0  0  0  0  0  0  0  0  0
   55.1985   29.8802   42.2624 H   0  0  0  0  0  0  0  0  0  0  0  0
   56.5998   28.8370   42.4150 H   0  0  0  0  0  0  0  0  0  0  0  0
   54.8409   29.9564   44.5032 H   0  0  0  0  0  0  0  0  0  0  0  0
   56.0616   28.6500   44.6496 H   0  0  0  0  0  0  0  0  0  0  0  0
   58.4990   30.3470   46.1520 H   0  0  0  0  0  0  0  0  0  0  0  0
   61.6806   28.8757   45.4474 H   0  0  0  0  0  0  0  0  0  0  0  0
   61.2779   28.0284   43.9155 H   0  0  0  0  0  0  0  0  0  0  0  0
   61.5474   29.8044   43.9155 H   0  0  0  0  0  0  0  0  0  0  0  0
   57.8817   27.3411   44.1533 H   0  0  0  0  0  0  0  0  0  0  0  0
  1  2  1  0
  2  3  1  0
  3  4  2  0
  3  5  1  0
  5  6  2  0
  6  7  1  0
  7  8  2  0
  8  9  1  0
  9 10  2  0
 10 11  1  0
 11 12  1  0
 12 13  2  0
 13 14  1  0
 13 15  1  0
 15 16  2  0
 16 17  1  0
 17 18  1  0
 18 19  1  0
 19 20  1  0
 20 21  1  0
 21 22  1  0
 15 23  1  0
  8 24  1  0
 24 25  1  0
 25 26  1  0
 24 27  2  0
 27  5  1  0
 23 10  1  0
 22 18  1  0
  1 28  1  0
  1 29  1  0
  1 30  1  0
  2 31  1  0
  6 32  1  0
  7 33  1  0
 11 34  1  0
 12 35  1  0
 17 36  1  0
 17 37  1  0
 18 38  1  6
 19 39  1  0
 19 40  1  0
 20 41  1  0
 20 42  1  0
 21 43  1  0
 21 44  1  0
 23 45  1  0
 26 46  1  0
 26 47  1  0
 26 48  1  0
 27 49  1  0
M  END
>  <smiles>  (12) 
CNC(=O)c1ccc(N=c2[nH]cc(Cl)c(=NCC3CCCO3)[nH]2)c(OC)c1

>  <score_type>  (12) 
oracle

>  <origin>  (12) 
adg

>  <m_score__min__energy>  (12) 
-7.7300000000000004

>  <m_primary>  (12) 
energy

$$$$
12:0
     RDKit          3D

 53 57  0  0  0  0  0  0  0  0999 V2000
   59.5294   30.6017   51.7910 H   0  0  0  0  0  0  0  0  0  0  0  0
   60.1450   31.0990   51.0270 C   0  0  0  0  0  0  0  0  0  0  0  0
   61.5330   31.1500   51.1760 C   0  0  0  0  0  0  0  0  0  0  0  0
   62.0043   30.6907   52.0574 H   0  0  0  0  0  0  0  0  0  0  0  0
   62.3330   31.7840   50.2080 C   0  0  0  0  0  0  0  0  0  0  0  0
   63.8090   31.8390   50.3650 C   0  0  0  0  0  0  0  0  0  0  0  0
   64.4870   30.8540   51.1080 C   0  0  0  0  0  0  0  0  0  0  0  0
   63.9192   30.0374   51.5780 H   0  0  0  0  0  0  0  0  0  0  0  0
   65.8770   30.9060   51.2530 C   0  0  0  0  0  0  0  0  0  0  0  0
   66.3979   30.1312   51.8346 H   0  0  0  0  0  0  0  0  0  0  0  0
   66.6050   31.9410   50.6600 C   0  0  0  0  0  0  0  0  0  0  0  0
   67.9520   31.9890   50.8030 F   0  0  0  0  0  0  0  0  0  0  0  0
   65.9440   32.9250   49.9210 C   0  0  0  0  0  0  0  0  0  0  0  0
   66.5178   33.7393   49.4545 H   0  0  0  0  0  0  0  0  0  0  0  0
   64.5540   32.8770   49.7730 C   0  0  0  0  0  0  0  0  0  0  0  0
   64.0394   33.6552   49.1903 H   0  0  0  0  0  0  0  0  0  0  0  0
   61.7130   32.3650   49.0870 C   0  0  0  0  0  0  0  0  0  0  0  0
   62.3264   32.8646   48.3227 H   0  0  0  0  0  0  0  0  0  0  0  0
   60.3200   32.3130   48.9350 C   0  0  0  0  0  0  0  0  0  0  0  0
   59.7020   32.9070   47.7770 N   0  0  0  0  0  0  0  0  0  0  0  0
   59.8260   34.2620   47.5920 C   0  0  0  0  0  0  0  0  0  0  0  0
   60.4690   34.9670   48.4180 O   0  0  0  0  0  0  0  0  0  0  0  0
   59.2410   34.8840   46.4880 C   0  0  0  0  0  0  0  0  0  0  0  0
   59.3459   35.9699   46.3475 H   0  0  0  0  0  0  0  0  0  0  0  0
   58.5260   34.1290   45.5670 C   0  0  0  0  0  0  0  0  0  0  0  0
   58.0617   34.6169   44.6973 H   0  0  0  0  0  0  0  0  0  0  0  0
   58.3970   32.7500   45.7460 C   0  0  0  0  0  0  0  0  0  0  0  0
   57.6750   31.9800   44.8220 C   0  0  0  0  0  0  0  0  0  0  0  0
   57.2111   32.4654   43.9507 H   0  0  0  0  0  0  0  0  0  0  0  0
   57.5410   30.6000   45.0010 C   0  0  0  0  0  0  0  0  0  0  0  0
   56.6130   29.6350   43.8570 S   0  0  0  0  0  0  0  0  0  0  0  0
   56.5080   30.3860   42.5600 O   0  0  0  0  0  0  0  0  0  0  0  0
   55.2300   29.3700   44.3840 O   0  0  0  0  0  0  0  0  0  0  0  0
   57.4100   28.1210   43.5760 N   0  0  0  0  0  0  0  0  0  0  0  0
   57.7670   27.2980   44.5150 C   0  0  0  0  0  0  0  0  0  0  0  0
   59.0700   27.0860   44.9180 C   0  0  0  0  0  0  0  0  0  0  0  0
   59.9842   27.5551   44.5254 H   0  0  0  0  0  0  0  0  0  0  0  0
   58.9620   26.1480   45.9290 C   0  0  0  0  0  0  0  0  0  0  0  0
   59.8004   25.7190   46.4973 H   0  0  0  0  0  0  0  0  0  0  0  0
   57.6580   25.8460   46.1030 N   0  0  0  0  0  0  0  0  0  0  0  0
   57.1280   24.8470   47.0210 C   0  0  0  0  0  0  0  0  0  0  0  0
   57.3009   25.1729   48.0573 H   0  0  0  0  0  0  0  0  0  0  0  0
   56.0480   24.7277   46.8495 H   0  0  0  0  0  0  0  0  0  0  0  0
   57.6348   23.8859   46.8495 H   0  0  0  0  0  0  0  0  0  0  0  0
   56.9270   26.5310   45.2390 N   0  0  0  0  0  0  0  0  0  0  0  0
   55.8900   26.4560   45.1530 H   0  0  0  0  0  0  0  0  0  0  0  0
   58.1420   29.9840   46.1030 C   0  0  0  0  0  0  0  0  0  0  0  0
   58.0458   28.8969   46.2403 H   0  0  0  0  0  0  0  0  0  0  0  0
   58.8630   30.7380   47.0300 C   0  0  0  0  0  0  0  0  0  0  0  0
   59.3294   30.2393   47.8924 H   0  0  0  0  0  0  0  0  0  0  0  0
   59.0000   32.1360   46.8720 C   0  0  0  0  0  0  0  0  0  0  0  0
   59.5360   31.6780   49.9100 C   0  0  0  0  0  0  0  0  0  0  0  0
   58.1540   31.6200   49.7710 O   0  0  0  0  0  0  0  0  0  0  0  0
  1  2  1  0
  2  3  2  0
  3  4  1  0
  3  5  1  0
  5  6  1  0
  6  7  2  0
  7  8  1  0
  7  9  1  0
  9 10  1  0
  9 11  2  0
 11 12  1  0
 11 13  1  0
 13 14  1  0
 13 15  2  0
 15 16  1  0
  5 17  2  0
 17 18  1  0
 17 19  1  0
 19 20  1  0
 20 21  1  0
 21 22  2  0
 21 23  1  0
 23 24  1  0
 23 25  2  0
 25 26  1  0
 25 27  1  0
 27 28  2  0
 28 29  1  0
 28 30  1  0
 30 31  1  0
 31 32  2  0
 31 33  2  0
 31 34  1  0
 34 35  2  0
 35 36  1  0
 36 37  1  0
 36 38  2  0
 38 39  1  0
 38 40  1  0
 40 41  1  0
 41 42  1  0
 41 43  1  0
 41 44  1  0
 40 45  1  0
 45 46  1  0
 30 47  2  0
 47 48  1  0
 47 49  1  0
 49 50  1  0
 49 51  2  0
 19 52  2  0
 52 53  1  0
 52  2  1  0
 15  6  1  0
 51 20  1  0
 51 27  1  0
 45 35  1  0
M  CHG  1  53  -1
M  END
>  <UniqueID>  (13) 
10

>  <SMILES>  (13) 
Cn1cc/c(=N/S(=O)(=O)c2ccc3c(ccc(=O)n3-c3cc(-c4ccc(F)cc4)ccc3[O-])c2)[nH]1

>  <Energy>  (13) 
113.58182222395119

>  <Genealogy>  (13) 
Cn1ccc(=NS(=O)(=O)c2ccc3c(ccc(=O)n3-c3cc(-c4ccc(F)cc4)ccc3[O-])c2)[nH]1 (protonated)
Cn1cc/c(=N/S(=O)(=O)c2ccc3c(ccc(=O)n3-c3cc(-c4ccc(F)cc4)ccc3[O-])c2)[nH]1 (cis-trans isomerization)
Cn1cc/c(=N/S(=O)(=O)c2ccc3c(ccc(=O)n3-c3cc(-c4ccc(F)cc4)ccc3[O-])c2)[nH]1 (3D coordinates assigned)
Cn1cc/c(=N/S(=O)(=O)c2ccc3c(ccc(=O)n3-c3cc(-c4ccc(F)cc4)ccc3[O-])c2)[nH]1 (optimized conformer: 113.58182222395119 kcal/mol)

>  <smiles>  (13) 
Cn1ccc(=NS(=O)(=O)c2ccc3c(ccc(=O)n3-c3cc(-c4ccc(F)cc4)ccc3O)c2)[nH]1

>  <score_type>  (13) 
oracle

>  <origin>  (13) 
adg

>  <m_score__min__energy>  (13) 
-11.130000000000001

>  <m_primary>  (13) 
energy

$$$$
13:0
     RDKit          3D

 39 41  0  0  0  0  0  0  0  0999 V2000
   56.2670   29.6620   42.9120 C   0  0  0  0  0  0  0  0  0  0  0  0
   57.0440   30.5360   44.2550 S   0  0  0  0  0  0  0  0  0  0  0  0
   58.4580   30.8920   43.8900 O   0  0  0  0  0  0  0  0  0  0  0  0
   56.2770   31.8010   44.5210 O   0  0  0  0  0  0  0  0  0  0  0  0
   57.0340   29.5590   45.6890 N   0  0  0  0  0  0  0  0  0  0  0  0
   57.2390   28.2760   45.7040 C   0  0  0  0  0  0  0  0  0  0  0  0
   56.1890   27.4090   45.6250 N   0  0  0  0  0  0  0  0  0  0  0  0
   56.3570   26.0620   45.6530 C   0  0  0  0  0  0  0  0  0  0  0  0
   57.6380   25.5230   45.7700 C   0  0  0  0  0  0  0  0  0  0  0  0
   58.7350   26.3800   45.8570 C   0  0  0  0  0  0  0  0  0  0  0  0
   58.5530   27.7710   45.8110 C   0  0  0  0  0  0  0  0  0  0  0  0
   59.7440   28.6830   45.9760 C   0  0  0  0  0  0  0  0  0  0  0  0
   59.4230   29.7450   46.9240 N   0  0  0  0  0  0  0  0  0  0  0  0
   60.2570   30.9070   47.0450 C   0  0  0  0  0  0  0  0  0  0  0  0
   61.5520   30.7700   47.5700 C   0  0  0  0  0  0  0  0  0  0  0  0
   62.3880   31.8780   47.6960 C   0  0  0  0  0  0  0  0  0  0  0  0
   61.9470   33.1410   47.3000 C   0  0  0  0  0  0  0  0  0  0  0  0
   60.6630   33.3000   46.7600 C   0  0  0  0  0  0  0  0  0  0  0  0
   60.2210   34.5570   46.3310 C   0  0  0  0  0  0  0  0  0  0  0  0
   58.9580   34.6900   45.7580 C   0  0  0  0  0  0  0  0  0  0  0  0
   58.1440   33.5650   45.6190 C   0  0  0  0  0  0  0  0  0  0  0  0
   58.5740   32.3470   46.0460 N   0  0  0  0  0  0  0  0  0  0  0  0
   59.8060   32.1800   46.6220 C   0  0  0  0  0  0  0  0  0  0  0  0
   55.5874   28.8975   43.3165 H   0  0  0  0  0  0  0  0  0  0  0  0
   55.6956   30.3711   42.2949 H   0  0  0  0  0  0  0  0  0  0  0  0
   57.0381   29.1776   42.2949 H   0  0  0  0  0  0  0  0  0  0  0  0
   55.4838   25.3966   45.5835 H   0  0  0  0  0  0  0  0  0  0  0  0
   57.7818   24.4327   45.7934 H   0  0  0  0  0  0  0  0  0  0  0  0
   59.7477   25.9637   45.9622 H   0  0  0  0  0  0  0  0  0  0  0  0
   60.5993   28.1029   46.3527 H   0  0  0  0  0  0  0  0  0  0  0  0
   59.9993   29.1282   45.0031 H   0  0  0  0  0  0  0  0  0  0  0  0
   58.4500   29.7800   47.3050 H   0  0  0  0  0  0  0  0  0  0  0  0
   61.9101   29.7787   47.8849 H   0  0  0  0  0  0  0  0  0  0  0  0
   63.4000   31.7562   48.1095 H   0  0  0  0  0  0  0  0  0  0  0  0
   62.6077   34.0133   47.4116 H   0  0  0  0  0  0  0  0  0  0  0  0
   60.8695   35.4380   46.4460 H   0  0  0  0  0  0  0  0  0  0  0  0
   58.6050   35.6747   45.4176 H   0  0  0  0  0  0  0  0  0  0  0  0
   57.1486   33.6637   45.1614 H   0  0  0  0  0  0  0  0  0  0  0  0
   57.9320   31.5370   45.9020 H   0  0  0  0  0  0  0  0  0  0  0  0
  1  2  1  0
  2  3  2  0
  2  4  2  0
  2  5  1  0
  5  6  2  3
  6  7  1  0
  7  8  1  0
  8  9  2  0
  9 10  1  0
 10 11  2  0
 11 12  1  0
 12 13  1  0
 13 14  1  0
 14 15  2  0
 15 16  1  0
 16 17  2  0
 17 18  1  0
 18 19  2  0
 19 20  1  0
 20 21  2  0
 21 22  1  0
 22 23  2  0
 11  6  1  0
 23 14  1  0
 23 18  1  0
  1 24  1  0
  1 25  1  0
  1 26  1  0
  8 27  1  0
  9 28  1  0
 10 29  1  0
 12 30  1  0
 12 31  1  0
 13 32  1  0
 15 33  1  0
 16 34  1  0
 17 35  1  0
 19 36  1  0
 20 37  1  0
 21 38  1  0
 22 39  1  0
M  CHG  2   7  -1  22   1
M  END
>  <UniqueID>  (14) 
11

>  <SMILES>  (14) 
CS(=O)(=O)N=c1[n-]cccc1CNc1cccc2ccc[nH+]c12

>  <Energy>  (14) 
45.02566595315429

>  <Genealogy>  (14) 
CS(=O)(=O)N=c1[n-]cccc1CNc1cccc2ccc[nH+]c12 (protonated)
CS(=O)(=O)N=c1[n-]cccc1CNc1cccc2ccc[nH+]c12 (3D coordinates assigned)
CS(=O)(=O)N=c1[n-]cccc1CNc1cccc2ccc[nH+]c12 (optimized conformer: 45.02566595315429 kcal/mol)

>  <smiles>  (14) 
CS(=O)(=O)N=c1[nH]cccc1CNc1cccc2cccnc12

>  <score_type>  (14) 
oracle

>  <origin>  (14) 
adg

>  <m_score__min__energy>  (14) 
-7.3700000000000001

>  <m_primary>  (14) 
energy

$$$$
14:0
     RDKit          3D

 51 54  0  0  0  0  0  0  0  0999 V2000
   58.8410   28.9990   50.3370 C   0  0  0  0  0  0  0  0  0  0  0  0
   58.9830   30.1810   49.7120 C   0  0  0  0  0  0  0  0  0  0  0  0
   59.2730   30.3830   48.3500 C   0  0  0  0  0  0  0  0  0  0  0  0
   59.3640   29.5210   47.3180 C   0  0  0  0  0  0  0  0  0  0  0  0
   58.3150   28.5800   46.8840 C   0  0  0  0  0  0  0  0  0  0  0  0
   57.3130   28.9540   45.9650 C   0  0  0  0  0  0  0  0  0  0  0  0
   57.2490   30.2400   45.4250 O   0  0  0  0  0  0  0  0  0  0  0  0
   56.3810   28.0420   45.5830 N   0  0  0  0  0  0  0  0  0  0  0  0
   56.4020   26.7700   46.0540 C   0  0  0  0  0  0  0  0  0  0  0  0
   55.5240   25.9480   45.6850 O   0  0  0  0  0  0  0  0  0  0  0  0
   57.3730   26.3820   46.9190 N   0  0  0  0  0  0  0  0  0  0  0  0
   58.3300   27.2510   47.3370 C   0  0  0  0  0  0  0  0  0  0  0  0
   59.2170   26.8550   48.1390 O   0  0  0  0  0  0  0  0  0  0  0  0
   59.4560   31.7450   48.1920 C   0  0  0  0  0  0  0  0  0  0  0  0
   59.2310   32.3270   49.4200 C   0  0  0  0  0  0  0  0  0  0  0  0
   59.3650   33.7970   49.6890 C   0  0  0  0  0  0  0  0  0  0  0  0
   58.9420   31.3860   50.3490 N   0  0  0  0  0  0  0  0  0  0  0  0
   58.7070   31.6570   51.7780 C   0  0  0  0  0  0  0  0  0  0  0  0
   57.3160   31.2380   52.1810 C   0  0  0  0  0  0  0  0  0  0  0  0
   57.0530   30.8150   53.4920 C   0  0  0  0  0  0  0  0  0  0  0  0
   55.7610   30.4370   53.8690 C   0  0  0  0  0  0  0  0  0  0  0  0
   54.7070   30.4710   52.9390 C   0  0  0  0  0  0  0  0  0  0  0  0
   53.3350   30.0740   53.3380 C   0  0  0  0  0  0  0  0  0  0  0  0
   53.1730   29.1170   54.1440 O   0  0  0  0  0  0  0  0  0  0  0  0
   52.2020   30.7800   52.8030 N   0  0  0  0  0  0  0  0  0  0  0  0
   51.4940   31.6990   53.3970 C   0  0  0  0  0  0  0  0  0  0  0  0
   51.3310   31.7030   54.7510 N   0  0  0  0  0  0  0  0  0  0  0  0
   50.5960   32.6530   55.3870 C   0  0  0  0  0  0  0  0  0  0  0  0
   49.9790   33.6670   54.6530 C   0  0  0  0  0  0  0  0  0  0  0  0
   50.1280   33.6910   53.2650 C   0  0  0  0  0  0  0  0  0  0  0  0
   50.8870   32.7050   52.6290 C   0  0  0  0  0  0  0  0  0  0  0  0
   51.0330   32.7300   51.2460 O   0  0  0  0  0  0  0  0  0  0  0  0
   54.9760   30.8900   51.6240 C   0  0  0  0  0  0  0  0  0  0  0  0
   56.2680   31.2680   51.2490 C   0  0  0  0  0  0  0  0  0  0  0  0
   58.6130   28.9695   51.4127 H   0  0  0  0  0  0  0  0  0  0  0  0
   58.9528   28.0615   49.7726 H   0  0  0  0  0  0  0  0  0  0  0  0
   60.3051   29.5193   46.7485 H   0  0  0  0  0  0  0  0  0  0  0  0
   58.0150   30.6590   44.9130 H   0  0  0  0  0  0  0  0  0  0  0  0
   59.7294   32.2648   47.2619 H   0  0  0  0  0  0  0  0  0  0  0  0
   59.3809   33.9711   50.7750 H   0  0  0  0  0  0  0  0  0  0  0  0
   60.3006   34.1673   49.2446 H   0  0  0  0  0  0  0  0  0  0  0  0
   58.5118   34.3304   49.2446 H   0  0  0  0  0  0  0  0  0  0  0  0
   59.4401   31.0964   52.3766 H   0  0  0  0  0  0  0  0  0  0  0  0
   58.8146   32.7375   51.9542 H   0  0  0  0  0  0  0  0  0  0  0  0
   57.8691   30.7804   54.2288 H   0  0  0  0  0  0  0  0  0  0  0  0
   55.5674   30.1104   54.9014 H   0  0  0  0  0  0  0  0  0  0  0  0
   50.4874   32.6226   56.4812 H   0  0  0  0  0  0  0  0  0  0  0  0
   49.3823   34.4383   55.1620 H   0  0  0  0  0  0  0  0  0  0  0  0
   49.6487   34.4847   52.6731 H   0  0  0  0  0  0  0  0  0  0  0  0
   54.1625   30.9205   50.8842 H   0  0  0  0  0  0  0  0  0  0  0  0
   56.4645   31.5912   50.2161 H   0  0  0  0  0  0  0  0  0  0  0  0
  1  2  2  0
  2  3  1  0
  3  4  2  3
  4  5  1  0
  5  6  2  0
  6  7  1  0
  6  8  1  0
  8  9  1  0
  9 10  2  0
  9 11  1  0
 11 12  1  0
 12 13  2  0
  3 14  1  0
 14 15  2  0
 15 16  1  0
 15 17  1  0
 17 18  1  0
 18 19  1  0
 19 20  2  0
 20 21  1  0
 21 22  2  0
 22 23  1  0
 23 24  2  0
 23 25  1  0
 25 26  2  3
 26 27  1  0
 27 28  1  0
 28 29  2  0
 29 30  1  0
 30 31  2  0
 31 32  1  0
 22 33  1  0
 33 34  2  0
 17  2  1  0
 34 19  1  0
 12  5  1  0
 31 26  1  0
  1 35  1  0
  1 36  1  0
  4 37  1  0
  7 38  1  0
 14 39  1  0
 16 40  1  0
 16 41  1  0
 16 42  1  0
 18 43  1  0
 18 44  1  0
 20 45  1  0
 21 46  1  0
 28 47  1  0
 29 48  1  0
 30 49  1  0
 33 50  1  0
 34 51  1  0
M  CHG  4   8  -1  11  -1  27  -1  32  -1
M  END
>  <UniqueID>  (15) 
12

>  <SMILES>  (15) 
C=c1c(=Cc2c(O)[n-]c(=O)[n-]c2=O)cc(C)n1Cc1ccc(C(=O)N=c2[n-]cccc2[O-])cc1

>  <Energy>  (15) 
103.6155522953293

>  <Genealogy>  (15) 
C=c1c(=Cc2c(O)[n-]c(=O)[n-]c2=O)cc(C)n1Cc1ccc(C(=O)N=c2[n-]cccc2[O-])cc1 (protonated)
C=c1c(=Cc2c(O)[n-]c(=O)[n-]c2=O)cc(C)n1Cc1ccc(C(=O)N=c2[n-]cccc2[O-])cc1 (3D coordinates assigned)
C=c1c(=Cc2c(O)[n-]c(=O)[n-]c2=O)cc(C)n1Cc1ccc(C(=O)N=c2[n-]cccc2[O-])cc1 (optimized conformer: 103.6155522953293 kcal/mol)

>  <smiles>  (15) 
C=c1c(=Cc2c(O)[nH]c(=O)[nH]c2=O)cc(C)n1Cc1ccc(C(=O)N=c2[nH]cccc2O)cc1

>  <score_type>  (15) 
oracle

>  <origin>  (15) 
adg

>  <m_score__min__energy>  (15) 
-17.620000000000001

>  <m_primary>  (15) 
energy

$$$$
15:0
     RDKit          3D

 56 58  0  0  0  0  0  0  0  0999 V2000
   60.1742   30.0440   48.4367 H   0  0  0  0  0  0  0  0  0  0  0  0
   59.7360   29.5430   47.5610 C   0  0  0  0  0  0  0  0  0  0  0  0
   59.9571   28.4833   47.3658 H   0  0  0  0  0  0  0  0  0  0  0  0
   58.9300   30.2260   46.7290 C   0  0  0  0  0  0  0  0  0  0  0  0
   58.3130   29.7060   45.5860 C   0  0  0  0  0  0  0  0  0  0  0  0
   58.3990   28.4490   45.1040 C   0  0  0  0  0  0  0  0  0  0  0  0
   59.1416   28.2407   44.3196 H   0  0  0  0  0  0  0  0  0  0  0  0
   57.5460   27.3360   45.5760 C   0  0  0  0  0  0  0  0  0  0  0  0
   56.1510   27.4580   45.6240 C   0  0  0  0  0  0  0  0  0  0  0  0
   55.5240   28.6400   45.2430 O   0  0  0  0  0  0  0  0  0  0  0  0
   55.3960   26.4070   46.0210 N   0  0  0  0  0  0  0  0  0  0  0  0
   55.9560   25.2220   46.3740 C   0  0  0  0  0  0  0  0  0  0  0  0
   55.2020   24.2740   46.7250 O   0  0  0  0  0  0  0  0  0  0  0  0
   57.3180   25.0610   46.3390 N   0  0  0  0  0  0  0  0  0  0  0  0
   57.9180   23.7600   46.6800 C   0  0  0  0  0  0  0  0  0  0  0  0
   57.9668   23.6541   47.7738 H   0  0  0  0  0  0  0  0  0  0  0  0
   57.3021   22.9509   46.2604 H   0  0  0  0  0  0  0  0  0  0  0  0
   58.9333   23.7032   46.2604 H   0  0  0  0  0  0  0  0  0  0  0  0
   58.1130   26.0960   45.9130 C   0  0  0  0  0  0  0  0  0  0  0  0
   59.3650   25.9440   45.8250 O   0  0  0  0  0  0  0  0  0  0  0  0
   57.5770   30.7400   45.0320 C   0  0  0  0  0  0  0  0  0  0  0  0
   56.9595   30.6928   44.1229 H   0  0  0  0  0  0  0  0  0  0  0  0
   57.7680   31.8390   45.8400 C   0  0  0  0  0  0  0  0  0  0  0  0
   57.1720   33.1900   45.5760 C   0  0  0  0  0  0  0  0  0  0  0  0
   56.9526   33.6872   46.5324 H   0  0  0  0  0  0  0  0  0  0  0  0
   57.8849   33.7993   45.0010 H   0  0  0  0  0  0  0  0  0  0  0  0
   56.2414   33.0742   45.0010 H   0  0  0  0  0  0  0  0  0  0  0  0
   58.6110   31.5450   46.8600 N   0  0  0  0  0  0  0  0  0  0  0  0
   59.0730   32.5060   47.8800 C   0  0  0  0  0  0  0  0  0  0  0  0
   58.5161   33.4473   47.7622 H   0  0  0  0  0  0  0  0  0  0  0  0
   58.8954   32.0668   48.8727 H   0  0  0  0  0  0  0  0  0  0  0  0
   60.5600   32.7920   47.7450 C   0  0  0  0  0  0  0  0  0  0  0  0
   61.0480   33.7310   46.8030 C   0  0  0  0  0  0  0  0  0  0  0  0
   59.9890   34.6250   45.7200 Cl  0  0  0  0  0  0  0  0  0  0  0  0
   62.3810   33.9740   46.7140 N   0  0  0  0  0  0  0  0  0  0  0  0
   63.2850   33.3510   47.5100 C   0  0  0  0  0  0  0  0  0  0  0  0
   64.3572   33.5710   47.4004 H   0  0  0  0  0  0  0  0  0  0  0  0
   62.8580   32.4340   48.4650 C   0  0  0  0  0  0  0  0  0  0  0  0
   63.5903   31.9335   49.1156 H   0  0  0  0  0  0  0  0  0  0  0  0
   61.4880   32.1490   48.5960 C   0  0  0  0  0  0  0  0  0  0  0  0
   61.0210   31.2340   49.5530 O   0  0  0  0  0  0  0  0  0  0  0  0
   61.3260   31.2820   50.9450 C   0  0  0  0  0  0  0  0  0  0  0  0
   61.8039   30.3392   51.2496 H   0  0  0  0  0  0  0  0  0  0  0  0
   62.0122   32.1184   51.1441 H   0  0  0  0  0  0  0  0  0  0  0  0
   60.0330   31.4790   51.7370 C   0  0  0  0  0  0  0  0  0  0  0  0
   59.5131   30.5134   51.8224 H   0  0  0  0  0  0  0  0  0  0  0  0
   60.2888   31.8691   52.7332 H   0  0  0  0  0  0  0  0  0  0  0  0
   59.1420   32.4500   51.0660 N   0  0  0  0  0  0  0  0  0  0  0  0
   57.7460   31.9780   51.0700 C   0  0  0  0  0  0  0  0  0  0  0  0
   57.4013   31.8615   52.1081 H   0  0  0  0  0  0  0  0  0  0  0  0
   57.1096   32.7109   50.5525 H   0  0  0  0  0  0  0  0  0  0  0  0
   57.6850   31.0093   50.5525 H   0  0  0  0  0  0  0  0  0  0  0  0
   59.2180   33.7550   51.7420 C   0  0  0  0  0  0  0  0  0  0  0  0
   59.2092   33.6046   52.8316 H   0  0  0  0  0  0  0  0  0  0  0  0
   60.1474   34.2657   51.4498 H   0  0  0  0  0  0  0  0  0  0  0  0
   58.3542   34.3702   51.4498 H   0  0  0  0  0  0  0  0  0  0  0  0
  1  2  1  0
  2  3  1  0
  2  4  2  0
  4  5  1  0
  5  6  2  0
  6  7  1  0
  6  8  1  0
  8  9  2  0
  9 10  1  0
  9 11  1  0
 11 12  1  0
 12 13  2  0
 12 14  1  0
 14 15  1  0
 15 16  1  0
 15 17  1  0
 15 18  1  0
 14 19  1  0
 19 20  2  0
  5 21  1  0
 21 22  1  0
 21 23  2  0
 23 24  1  0
 24 25  1  0
 24 26  1  0
 24 27  1  0
 23 28  1  0
 28 29  1  0
 29 30  1  0
 29 31  1  0
 29 32  1  0
 32 33  2  0
 33 34  1  0
 33 35  1  0
 35 36  2  0
 36 37  1  0
 36 38  1  0
 38 39  1  0
 38 40  2  0
 40 41  1  0
 41 42  1  0
 42 43  1  0
 42 44  1  0
 42 45  1  0
 45 46  1  0
 45 47  1  0
 45 48  1  0
 48 49  1  0
 49 50  1  0
 49 51  1  0
 49 52  1  0
 48 53  1  0
 53 54  1  0
 53 55  1  0
 53 56  1  0
 28  4  1  0
 40 32  1  0
 19  8  1  0
M  CHG  2  10  -1  11  -1
M  END
>  <UniqueID>  (16) 
13

>  <SMILES>  (16) 
C=c1/c(=C/c2c([O-])[n-]c(=O)n(C)c2=O)cc(C)n1Cc1c(OCCN(C)C)ccnc1Cl

>  <Energy>  (16) 
98.86837048166353

>  <Genealogy>  (16) 
C=c1c(=Cc2c([O-])[n-]c(=O)n(C)c2=O)cc(C)n1Cc1c(OCCN(C)C)ccnc1Cl (protonated)
C=c1/c(=C/c2c([O-])[n-]c(=O)n(C)c2=O)cc(C)n1Cc1c(OCCN(C)C)ccnc1Cl (cis-trans isomerization)
C=c1/c(=C/c2c([O-])[n-]c(=O)n(C)c2=O)cc(C)n1Cc1c(OCCN(C)C)ccnc1Cl (3D coordinates assigned)
C=c1/c(=C/c2c([O-])[n-]c(=O)n(C)c2=O)cc(C)n1Cc1c(OCCN(C)C)ccnc1Cl (optimized conformer: 98.86837048166353 kcal/mol)

>  <smiles>  (16) 
C=c1c(=Cc2c(O)[nH]c(=O)n(C)c2=O)cc(C)n1Cc1c(OCCN(C)C)ccnc1Cl

>  <score_type>  (16) 
oracle

>  <origin>  (16) 
adg

>  <m_score__min__energy>  (16) 
-14.039999999999999

>  <m_primary>  (16) 
energy

$$$$
16:0
     RDKit          3D

 52 55  0  0  0  0  0  0  0  0999 V2000
   57.5980   23.0980   44.2810 C   0  0  0  0  0  0  0  0  0  0  0  0
   56.2530   23.3030   44.8980 C   0  0  0  0  0  0  0  0  0  0  0  0
   55.1370   22.6960   44.4580 N   0  0  0  0  0  0  0  0  0  0  0  0
   54.1990   23.0930   45.3400 C   0  0  0  0  0  0  0  0  0  0  0  0
   52.9960   22.7280   45.2620 O   0  0  0  0  0  0  0  0  0  0  0  0
   54.6500   23.9030   46.3180 N   0  0  0  0  0  0  0  0  0  0  0  0
   55.9590   24.0390   46.0310 C   0  0  0  0  0  0  0  0  0  0  0  0
   56.9170   24.7980   46.9030 C   0  0  0  0  0  0  0  0  0  0  0  0
   57.2700   26.1170   46.2630 C   0  0  0  0  0  0  0  0  0  0  0  0
   58.6210   26.4520   46.0730 C   0  0  0  0  0  0  0  0  0  0  0  0
   58.9730   27.6280   45.4090 C   0  0  0  0  0  0  0  0  0  0  0  0
   57.9820   28.4790   44.9060 C   0  0  0  0  0  0  0  0  0  0  0  0
   58.3530   29.6170   44.1230 N   0  0  0  0  0  0  0  0  0  0  0  0
   57.3270   31.0150   44.0770 S   0  0  0  0  0  0  0  0  0  0  0  0
   56.0370   30.7000   44.7820 O   0  0  0  0  0  0  0  0  0  0  0  0
   57.0150   31.3870   42.6560 O   0  0  0  0  0  0  0  0  0  0  0  0
   58.1430   32.3500   44.8890 C   0  0  0  0  0  0  0  0  0  0  0  0
   58.2010   33.6210   44.2990 C   0  0  0  0  0  0  0  0  0  0  0  0
   58.7940   34.6850   44.9830 C   0  0  0  0  0  0  0  0  0  0  0  0
   59.3140   34.4940   46.2670 C   0  0  0  0  0  0  0  0  0  0  0  0
   59.2430   33.2320   46.8750 C   0  0  0  0  0  0  0  0  0  0  0  0
   59.7830   33.0210   48.2630 C   0  0  0  0  0  0  0  0  0  0  0  0
   61.2800   33.1440   48.2680 C   0  0  0  0  0  0  0  0  0  0  0  0
   61.9410   33.7040   49.3750 C   0  0  0  0  0  0  0  0  0  0  0  0
   63.3320   33.8470   49.3660 C   0  0  0  0  0  0  0  0  0  0  0  0
   64.0710   33.4410   48.2510 C   0  0  0  0  0  0  0  0  0  0  0  0
   63.4200   32.8960   47.1410 C   0  0  0  0  0  0  0  0  0  0  0  0
   62.0290   32.7520   47.1450 C   0  0  0  0  0  0  0  0  0  0  0  0
   58.6820   32.1580   46.1680 C   0  0  0  0  0  0  0  0  0  0  0  0
   56.6320   28.1710   45.1270 C   0  0  0  0  0  0  0  0  0  0  0  0
   56.2740   26.9970   45.7980 C   0  0  0  0  0  0  0  0  0  0  0  0
   54.9260   26.7160   45.9940 O   0  0  0  0  0  0  0  0  0  0  0  0
   58.3516   22.9831   45.0741 H   0  0  0  0  0  0  0  0  0  0  0  0
   57.5811   22.1921   43.6573 H   0  0  0  0  0  0  0  0  0  0  0  0
   57.8517   23.9678   43.6573 H   0  0  0  0  0  0  0  0  0  0  0  0
   56.4497   24.9824   47.8816 H   0  0  0  0  0  0  0  0  0  0  0  0
   57.8340   24.2041   47.0309 H   0  0  0  0  0  0  0  0  0  0  0  0
   59.4076   25.7821   46.4505 H   0  0  0  0  0  0  0  0  0  0  0  0
   60.0342   27.8874   45.2803 H   0  0  0  0  0  0  0  0  0  0  0  0
   58.9990   29.4780   43.3140 H   0  0  0  0  0  0  0  0  0  0  0  0
   57.7788   33.7804   43.2958 H   0  0  0  0  0  0  0  0  0  0  0  0
   58.8521   35.6764   44.5100 H   0  0  0  0  0  0  0  0  0  0  0  0
   59.7797   35.3352   46.8013 H   0  0  0  0  0  0  0  0  0  0  0  0
   59.3551   33.7777   48.9371 H   0  0  0  0  0  0  0  0  0  0  0  0
   59.5073   32.0119   48.6030 H   0  0  0  0  0  0  0  0  0  0  0  0
   61.3621   34.0308   50.2514 H   0  0  0  0  0  0  0  0  0  0  0  0
   63.8454   34.2795   50.2374 H   0  0  0  0  0  0  0  0  0  0  0  0
   65.1655   33.5506   48.2473 H   0  0  0  0  0  0  0  0  0  0  0  0
   64.0024   32.5799   46.2630 H   0  0  0  0  0  0  0  0  0  0  0  0
   61.5192   32.3304   46.2662 H   0  0  0  0  0  0  0  0  0  0  0  0
   58.6651   31.1561   46.6218 H   0  0  0  0  0  0  0  0  0  0  0  0
   55.8495   28.8570   44.7704 H   0  0  0  0  0  0  0  0  0  0  0  0
  1  2  1  0
  2  3  1  0
  3  4  1  0
  4  5  2  0
  4  6  1  0
  6  7  1  0
  7  8  1  0
  8  9  1  0
  9 10  2  0
 10 11  1  0
 11 12  2  0
 12 13  1  0
 13 14  1  0
 14 15  2  0
 14 16  2  0
 14 17  1  0
 17 18  2  0
 18 19  1  0
 19 20  2  0
 20 21  1  0
 21 22  1  0
 22 23  1  0
 23 24  2  0
 24 25  1  0
 25 26  2  0
 26 27  1  0
 27 28  2  0
 21 29  2  0
 12 30  1  0
 30 31  2  0
 31 32  1  0
  7  2  2  0
 31  9  1  0
 29 17  1  0
 28 23  1  0
  1 33  1  0
  1 34  1  0
  1 35  1  0
  8 36  1  0
  8 37  1  0
 10 38  1  0
 11 39  1  0
 13 40  1  0
 18 41  1  0
 19 42  1  0
 20 43  1  0
 22 44  1  0
 22 45  1  0
 24 46  1  0
 25 47  1  0
 26 48  1  0
 27 49  1  0
 28 50  1  0
 29 51  1  0
 30 52  1  0
M  CHG  3   3  -1   6  -1  32  -1
M  END
>  <UniqueID>  (17) 
14

>  <SMILES>  (17) 
Cc1[n-]c(=O)[n-]c1Cc1ccc(NS(=O)(=O)c2cccc(Cc3ccccc3)c2)cc1[O-]

>  <Energy>  (17) 
83.04911657948614

>  <Genealogy>  (17) 
Cc1[n-]c(=O)[n-]c1Cc1ccc(NS(=O)(=O)c2cccc(Cc3ccccc3)c2)cc1[O-] (protonated)
Cc1[n-]c(=O)[n-]c1Cc1ccc(NS(=O)(=O)c2cccc(Cc3ccccc3)c2)cc1[O-] (3D coordinates assigned)
Cc1[n-]c(=O)[n-]c1Cc1ccc(NS(=O)(=O)c2cccc(Cc3ccccc3)c2)cc1[O-] (optimized conformer: 83.04911657948614 kcal/mol)

>  <smiles>  (17) 
Cc1[nH]c(=O)[nH]c1Cc1ccc(NS(=O)(=O)c2cccc(Cc3ccccc3)c2)cc1O

>  <score_type>  (17) 
oracle

>  <origin>  (17) 
adg

>  <m_score__min__energy>  (17) 
-18.859999999999999

>  <m_primary>  (17) 
energy

$$$$
17:0
     RDKit          3D

 67 69  0  0  1  0  0  0  0  0999 V2000
   56.8420   20.2310   46.9450 C   0  0  0  0  0  0  0  0  0  0  0  0
   57.2810   21.4670   47.4880 O   0  0  0  0  0  0  0  0  0  0  0  0
   56.6400   22.0930   48.5600 C   0  0  0  0  0  0  0  0  0  0  0  0
   57.2730   23.0250   49.1140 O   0  0  0  0  0  0  0  0  0  0  0  0
   55.3560   21.6520   48.9420 N   0  0  0  0  0  0  0  0  0  0  0  0
   54.5740   22.1940   50.0190 C   0  0  2  0  0  0  0  0  0  0  0  0
   54.7420   21.4760   51.3290 C   0  0  0  0  0  0  0  0  0  0  0  0
   56.2020   21.1470   51.5640 C   0  0  0  0  0  0  0  0  0  0  0  0
   56.8340   22.1490   52.5160 C   0  0  0  0  0  0  0  0  0  0  0  0
   56.2110   19.7990   52.2800 C   0  0  0  0  0  0  0  0  0  0  0  0
   53.1490   22.2480   49.5770 C   0  0  0  0  0  0  0  0  0  0  0  0
   52.3340   22.9300   50.2470 O   0  0  0  0  0  0  0  0  0  0  0  0
   52.8110   21.5130   48.4130 N   0  0  0  0  0  0  0  0  0  0  0  0
   52.8180   22.1210   47.2800 C   0  0  0  0  0  0  0  0  0  0  0  0
   53.9180   22.2270   46.4610 C   0  0  0  0  0  0  0  0  0  0  0  0
   53.7930   22.9190   45.2580 C   0  0  0  0  0  0  0  0  0  0  0  0
   54.9080   23.0400   44.4040 O   0  0  0  0  0  0  0  0  0  0  0  0
   55.7630   24.0950   44.6950 C   0  0  0  0  0  0  0  0  0  0  0  0
   55.5290   24.7700   45.8770 C   0  0  0  0  0  0  0  0  0  0  0  0
   56.2980   25.8360   46.2940 C   0  0  0  0  0  0  0  0  0  0  0  0
   57.3460   26.2270   45.4720 C   0  0  0  0  0  0  0  0  0  0  0  0
   58.1230   27.3270   45.9230 N   0  0  0  0  0  0  0  0  0  0  0  0
   57.8570   28.6700   45.5180 C   0  0  0  0  0  0  0  0  0  0  0  0
   56.9050   28.8480   44.7420 O   0  0  0  0  0  0  0  0  0  0  0  0
   58.6550   29.7250   45.9930 N   0  0  0  0  0  0  0  0  0  0  0  0
   58.5140   31.0920   45.6830 C   0  0  0  0  0  0  0  0  0  0  0  0
   57.6690   31.4300   44.6210 C   0  0  0  0  0  0  0  0  0  0  0  0
   57.4750   32.7330   44.2530 C   0  0  0  0  0  0  0  0  0  0  0  0
   58.0990   33.7910   44.9060 C   0  0  0  0  0  0  0  0  0  0  0  0
   58.9260   33.4570   45.9460 C   0  0  0  0  0  0  0  0  0  0  0  0
   59.6250   34.5610   46.6840 C   0  0  0  0  0  0  0  0  0  0  0  0
   59.6260   35.7060   45.9260 F   0  0  0  0  0  0  0  0  0  0  0  0
   60.9030   34.2020   47.0130 F   0  0  0  0  0  0  0  0  0  0  0  0
   58.9080   34.8060   47.8440 F   0  0  0  0  0  0  0  0  0  0  0  0
   59.1230   32.1330   46.3190 C   0  0  0  0  0  0  0  0  0  0  0  0
   57.5660   25.5500   44.3070 C   0  0  0  0  0  0  0  0  0  0  0  0
   56.8020   24.4790   43.8760 C   0  0  0  0  0  0  0  0  0  0  0  0
   57.0080   23.8110   42.7380 F   0  0  0  0  0  0  0  0  0  0  0  0
   52.6110   23.4720   44.9120 N   0  0  0  0  0  0  0  0  0  0  0  0
   51.5270   23.3630   45.7270 C   0  0  0  0  0  0  0  0  0  0  0  0
   51.6360   22.6880   46.9080 N   0  0  0  0  0  0  0  0  0  0  0  0
   56.5958   19.5379   47.7630 H   0  0  0  0  0  0  0  0  0  0  0  0
   55.9486   20.3993   46.3256 H   0  0  0  0  0  0  0  0  0  0  0  0
   57.6413   19.7981   46.3256 H   0  0  0  0  0  0  0  0  0  0  0  0
   54.9200   20.8550   48.3990 H   0  0  0  0  0  0  0  0  0  0  0  0
   54.9436   23.2074   50.2345 H   0  0  0  0  0  0  0  0  0  0  0  0
   54.3789   22.1188   52.1444 H   0  0  0  0  0  0  0  0  0  0  0  0
   54.1641   20.5405   51.3013 H   0  0  0  0  0  0  0  0  0  0  0  0
   56.7513   21.1537   50.6110 H   0  0  0  0  0  0  0  0  0  0  0  0
   56.6399   21.8413   53.5541 H   0  0  0  0  0  0  0  0  0  0  0  0
   57.9194   22.1863   52.3415 H   0  0  0  0  0  0  0  0  0  0  0  0
   56.4001   23.1446   52.3415 H   0  0  0  0  0  0  0  0  0  0  0  0
   56.2099   19.9617   53.3679 H   0  0  0  0  0  0  0  0  0  0  0  0
   55.3167   19.2260   51.9940 H   0  0  0  0  0  0  0  0  0  0  0  0
   57.1129   19.2379   51.9940 H   0  0  0  0  0  0  0  0  0  0  0  0
   54.8779   21.7742   46.7501 H   0  0  0  0  0  0  0  0  0  0  0  0
   54.6932   24.4432   46.5132 H   0  0  0  0  0  0  0  0  0  0  0  0
   56.0892   26.3559   47.2406 H   0  0  0  0  0  0  0  0  0  0  0  0
   58.9130   27.0890   46.5800 H   0  0  0  0  0  0  0  0  0  0  0  0
   59.4410   29.4410   46.6530 H   0  0  0  0  0  0  0  0  0  0  0  0
   57.1498   30.6316   44.0705 H   0  0  0  0  0  0  0  0  0  0  0  0
   56.8018   32.9520   43.4110 H   0  0  0  0  0  0  0  0  0  0  0  0
   57.9376   34.8365   44.6045 H   0  0  0  0  0  0  0  0  0  0  0  0
   59.7970   31.9161   47.1608 H   0  0  0  0  0  0  0  0  0  0  0  0
   58.4024   25.8758   43.6712 H   0  0  0  0  0  0  0  0  0  0  0  0
   50.5681   23.8164   45.4356 H   0  0  0  0  0  0  0  0  0  0  0  0
   50.7800   22.6230   47.5120 H   0  0  0  0  0  0  0  0  0  0  0  0
  1  2  1  0
  2  3  1  0
  3  4  2  0
  3  5  1  0
  5  6  1  0
  6  7  1  0
  7  8  1  0
  8  9  1  0
  8 10  1  0
  6 11  1  0
 11 12  2  0
 11 13  1  0
 13 14  2  0
 14 15  1  0
 15 16  2  0
 16 17  1  0
 17 18  1  0
 18 19  2  0
 19 20  1  0
 20 21  2  0
 21 22  1  0
 22 23  1  0
 23 24  2  0
 23 25  1  0
 25 26  1  0
 26 27  2  0
 27 28  1  0
 28 29  2  0
 29 30  1  0
 30 31  1  0
 31 32  1  0
 31 33  1  0
 31 34  1  0
 30 35  2  0
 21 36  1  0
 36 37  2  0
 37 38  1  0
 16 39  1  0
 39 40  2  0
 40 41  1  0
 41 14  1  0
 37 18  1  0
 35 26  1  0
  1 42  1  0
  1 43  1  0
  1 44  1  0
  5 45  1  0
  6 46  1  1
  7 47  1  0
  7 48  1  0
  8 49  1  0
  9 50  1  0
  9 51  1  0
  9 52  1  0
 10 53  1  0
 10 54  1  0
 10 55  1  0
 15 56  1  0
 19 57  1  0
 20 58  1  0
 22 59  1  0
 25 60  1  0
 27 61  1  0
 28 62  1  0
 29 63  1  0
 35 64  1  0
 36 65  1  0
 40 66  1  0
 41 67  1  0
M  END
>  <smiles>  (18) 
COC(=O)NC(CC(C)C)C(=O)N=c1cc(Oc2ccc(NC(=O)Nc3cccc(C(F)(F)F)c3)cc2F)nc[nH]1

>  <score_type>  (18) 
oracle

>  <origin>  (18) 
adg

>  <m_score__min__energy>  (18) 
-9.5700000000000003

>  <m_primary>  (18) 
energy

$$$$
18:0
     RDKit          3D

 36 38  0  0  0  0  0  0  0  0999 V2000
   62.8950   33.5710   46.7520 H   0  0  0  0  0  0  0  0  0  0  0  0
   62.1940   34.2620   46.5140 O   0  0  0  0  0  0  0  0  0  0  0  0
   60.8460   33.9250   46.4050 C   0  0  0  0  0  0  0  0  0  0  0  0
   59.8710   34.9200   46.2420 C   0  0  0  0  0  0  0  0  0  0  0  0
   60.1681   35.9782   46.1984 H   0  0  0  0  0  0  0  0  0  0  0  0
   58.5230   34.5690   46.1350 C   0  0  0  0  0  0  0  0  0  0  0  0
   57.7600   35.3511   46.0081 H   0  0  0  0  0  0  0  0  0  0  0  0
   58.1430   33.2250   46.1890 C   0  0  0  0  0  0  0  0  0  0  0  0
   57.0809   32.9518   46.1033 H   0  0  0  0  0  0  0  0  0  0  0  0
   59.1110   32.2240   46.3520 C   0  0  0  0  0  0  0  0  0  0  0  0
   58.7190   30.8390   46.3990 N   0  0  0  0  0  0  0  0  0  0  0  0
   58.9080   30.0010   47.4420 C   0  0  0  0  0  0  0  0  0  0  0  0
   59.5570   30.3770   48.7400 C   0  0  0  0  0  0  0  0  0  0  0  0
   58.9388   30.0188   49.5764 H   0  0  0  0  0  0  0  0  0  0  0  0
   60.5545   29.9169   48.7980 H   0  0  0  0  0  0  0  0  0  0  0  0
   59.6540   31.4712   48.7980 H   0  0  0  0  0  0  0  0  0  0  0  0
   58.3950   28.7550   47.1560 C   0  0  0  0  0  0  0  0  0  0  0  0
   58.3818   27.8829   47.8263 H   0  0  0  0  0  0  0  0  0  0  0  0
   57.8990   28.8090   45.8640 C   0  0  0  0  0  0  0  0  0  0  0  0
   57.3750   27.7350   45.2410 C   0  0  0  0  0  0  0  0  0  0  0  0
   57.0368   27.8710   44.2031 H   0  0  0  0  0  0  0  0  0  0  0  0
   57.2160   26.3920   45.8320 C   0  0  0  0  0  0  0  0  0  0  0  0
   55.9480   25.9330   46.2160 C   0  0  0  0  0  0  0  0  0  0  0  0
   54.8190   26.7140   46.0000 O   0  0  0  0  0  0  0  0  0  0  0  0
   55.8160   24.7130   46.7980 N   0  0  0  0  0  0  0  0  0  0  0  0
   56.8970   23.9260   47.0310 C   0  0  0  0  0  0  0  0  0  0  0  0
   56.7480   22.7970   47.5670 O   0  0  0  0  0  0  0  0  0  0  0  0
   58.1390   24.3580   46.6930 N   0  0  0  0  0  0  0  0  0  0  0  0
   58.3250   25.5710   46.1110 C   0  0  0  0  0  0  0  0  0  0  0  0
   59.4940   25.9500   45.8310 O   0  0  0  0  0  0  0  0  0  0  0  0
   58.0820   30.1330   45.4280 C   0  0  0  0  0  0  0  0  0  0  0  0
   57.6070   30.6930   44.3040 C   0  0  0  0  0  0  0  0  0  0  0  0
   57.8254   31.7476   44.0802 H   0  0  0  0  0  0  0  0  0  0  0  0
   56.9995   30.0972   43.6069 H   0  0  0  0  0  0  0  0  0  0  0  0
   60.4640   32.5800   46.4580 C   0  0  0  0  0  0  0  0  0  0  0  0
   61.2277   31.7983   46.5833 H   0  0  0  0  0  0  0  0  0  0  0  0
  1  2  1  0
  2  3  1  0
  3  4  2  0
  4  5  1  0
  4  6  1  0
  6  7  1  0
  6  8  2  0
  8  9  1  0
  8 10  1  0
 10 11  1  0
 11 12  1  0
 12 13  1  0
 13 14  1  0
 13 15  1  0
 13 16  1  0
 12 17  2  0
 17 18  1  0
 17 19  1  0
 19 20  2  0
 20 21  1  0
 20 22  1  0
 22 23  2  0
 23 24  1  0
 23 25  1  0
 25 26  1  0
 26 27  2  0
 26 28  1  0
 28 29  1  0
 29 30  2  0
 19 31  1  0
 31 32  2  0
 32 33  1  0
 32 34  1  0
 10 35  2  0
 35 36  1  0
 35  3  1  0
 31 11  1  0
 29 22  1  0
M  CHG  3  24  -1  25  -1  28  -1
M  END
>  <UniqueID>  (19) 
15

>  <SMILES>  (19) 
C=c1/c(=C\c2c([O-])[n-]c(=O)[n-]c2=O)cc(C)n1-c1cccc(O)c1

>  <Energy>  (19) 
87.38560679276809

>  <Genealogy>  (19) 
C=c1c(=Cc2c([O-])[n-]c(=O)[n-]c2=O)cc(C)n1-c1cccc(O)c1 (protonated)
C=c1/c(=C\c2c([O-])[n-]c(=O)[n-]c2=O)cc(C)n1-c1cccc(O)c1 (cis-trans isomerization)
C=c1/c(=C\c2c([O-])[n-]c(=O)[n-]c2=O)cc(C)n1-c1cccc(O)c1 (3D coordinates assigned)
C=c1/c(=C\c2c([O-])[n-]c(=O)[n-]c2=O)cc(C)n1-c1cccc(O)c1 (optimized conformer: 87.38560679276809 kcal/mol)

>  <smiles>  (19) 
C=c1c(=Cc2c(O)[nH]c(=O)[nH]c2=O)cc(C)n1-c1cccc(O)c1

>  <score_type>  (19) 
oracle

>  <origin>  (19) 
adg

>  <m_score__min__energy>  (19) 
-15.130000000000001

>  <m_primary>  (19) 
energy

$$$$
19:0
     RDKit          3D

 72 77  0  0  0  0  0  0  0  0999 V2000
   59.9730   36.3100   45.8020 C   0  0  0  0  0  0  0  0  0  0  0  0
   59.9880   34.8290   46.0450 C   0  0  0  0  0  0  0  0  0  0  0  0
   61.0790   34.2300   46.6880 C   0  0  0  0  0  0  0  0  0  0  0  0
   61.1110   32.8460   46.8830 C   0  0  0  0  0  0  0  0  0  0  0  0
   60.0680   32.0310   46.4080 C   0  0  0  0  0  0  0  0  0  0  0  0
   60.0890   30.5170   46.5970 C   0  0  0  0  0  0  0  0  0  0  0  0
   58.9570   29.9500   47.3880 N   0  0  0  0  0  0  0  0  0  0  0  0
   57.7460   29.7690   46.5420 C   0  0  0  0  0  0  0  0  0  0  0  0
   57.7530   28.3220   46.2110 C   0  0  0  0  0  0  0  0  0  0  0  0
   58.6060   27.6530   47.0170 C   0  0  0  0  0  0  0  0  0  0  0  0
   58.0780   26.3880   47.1850 C   0  0  0  0  0  0  0  0  0  0  0  0
   58.5640   25.4260   48.0610 O   0  0  0  0  0  0  0  0  0  0  0  0
   56.9480   26.2500   46.4540 N   0  0  0  0  0  0  0  0  0  0  0  0
   56.0010   25.1360   46.5280 C   0  0  0  0  0  0  0  0  0  0  0  0
   56.3260   24.1110   45.4720 C   0  0  0  0  0  0  0  0  0  0  0  0
   55.5040   23.9740   44.3410 C   0  0  0  0  0  0  0  0  0  0  0  0
   55.8410   23.0660   43.3310 C   0  0  0  0  0  0  0  0  0  0  0  0
   57.0000   22.2920   43.4430 C   0  0  0  0  0  0  0  0  0  0  0  0
   57.8230   22.4260   44.5640 C   0  0  0  0  0  0  0  0  0  0  0  0
   57.4910   23.3340   45.5740 C   0  0  0  0  0  0  0  0  0  0  0  0
   56.7180   27.4630   45.9060 C   0  0  0  0  0  0  0  0  0  0  0  0
   55.5480   27.8190   45.2450 O   0  0  0  0  0  0  0  0  0  0  0  0
   59.1420   28.6070   48.0210 C   0  0  1  0  0  0  0  0  0  0  0  0
   60.5400   28.2430   48.6190 C   0  0  0  0  0  0  0  0  0  0  0  0
   60.8890   29.0310   49.8220 N   0  0  0  0  0  0  0  0  0  0  0  0
   61.4630   30.3680   49.5240 C   0  0  0  0  0  0  0  0  0  0  0  0
   60.6470   31.5310   50.1100 C   0  0  0  0  0  0  0  0  0  0  0  0
   60.3690   31.3070   51.5360 N   0  0  0  0  0  0  0  0  0  0  0  0
   60.1700   32.4240   52.4290 C   0  0  0  0  0  0  0  0  0  0  0  0
   61.0570   32.6530   53.4980 C   0  0  0  0  0  0  0  0  0  0  0  0
   60.8620   33.7330   54.3650 C   0  0  0  0  0  0  0  0  0  0  0  0
   59.7800   34.5940   54.1770 C   0  0  0  0  0  0  0  0  0  0  0  0
   58.8900   34.3790   53.1220 C   0  0  0  0  0  0  0  0  0  0  0  0
   59.0820   33.3020   52.2510 C   0  0  0  0  0  0  0  0  0  0  0  0
   60.1930   29.9330   52.0250 C   0  0  0  0  0  0  0  0  0  0  0  0
   59.8460   28.9930   50.8690 C   0  0  0  0  0  0  0  0  0  0  0  0
   58.9680   32.6430   45.7780 C   0  0  0  0  0  0  0  0  0  0  0  0
   58.9360   34.0260   45.5840 C   0  0  0  0  0  0  0  0  0  0  0  0
   59.9676   36.8397   46.7660 H   0  0  0  0  0  0  0  0  0  0  0  0
   60.8683   36.5970   45.2309 H   0  0  0  0  0  0  0  0  0  0  0  0
   59.0721   36.5788   45.2309 H   0  0  0  0  0  0  0  0  0  0  0  0
   61.9148   34.8518   47.0413 H   0  0  0  0  0  0  0  0  0  0  0  0
   61.9602   32.3901   47.4131 H   0  0  0  0  0  0  0  0  0  0  0  0
   60.0723   30.0513   45.6006 H   0  0  0  0  0  0  0  0  0  0  0  0
   60.9991   30.2985   47.1749 H   0  0  0  0  0  0  0  0  0  0  0  0
   56.8363   30.0385   47.0985 H   0  0  0  0  0  0  0  0  0  0  0  0
   57.7551   30.4084   45.6469 H   0  0  0  0  0  0  0  0  0  0  0  0
   56.0659   24.6684   47.5215 H   0  0  0  0  0  0  0  0  0  0  0  0
   54.9827   25.5165   46.3600 H   0  0  0  0  0  0  0  0  0  0  0  0
   54.5923   24.5826   44.2491 H   0  0  0  0  0  0  0  0  0  0  0  0
   55.1934   22.9611   42.4480 H   0  0  0  0  0  0  0  0  0  0  0  0
   57.2637   21.5779   42.6489 H   0  0  0  0  0  0  0  0  0  0  0  0
   58.7340   21.8159   44.6522 H   0  0  0  0  0  0  0  0  0  0  0  0
   58.1451   23.4401   46.4520 H   0  0  0  0  0  0  0  0  0  0  0  0
   58.5964   28.5771   48.9757 H   0  0  0  0  0  0  0  0  0  0  0  0
   60.5363   27.1768   48.8897 H   0  0  0  0  0  0  0  0  0  0  0  0
   61.2918   28.4747   47.8502 H   0  0  0  0  0  0  0  0  0  0  0  0
   62.4797   30.4111   49.9416 H   0  0  0  0  0  0  0  0  0  0  0  0
   61.4552   30.4866   48.4304 H   0  0  0  0  0  0  0  0  0  0  0  0
   61.2169   32.4649   49.9960 H   0  0  0  0  0  0  0  0  0  0  0  0
   59.6907   31.5979   49.5705 H   0  0  0  0  0  0  0  0  0  0  0  0
   61.9107   31.9768   53.6527 H   0  0  0  0  0  0  0  0  0  0  0  0
   61.5622   33.9039   55.1959 H   0  0  0  0  0  0  0  0  0  0  0  0
   59.6278   35.4427   54.8601 H   0  0  0  0  0  0  0  0  0  0  0  0
   58.0369   35.0579   52.9762 H   0  0  0  0  0  0  0  0  0  0  0  0
   58.3788   33.1389   51.4210 H   0  0  0  0  0  0  0  0  0  0  0  0
   61.1265   29.5950   52.4986 H   0  0  0  0  0  0  0  0  0  0  0  0
   59.3702   29.9179   52.7549 H   0  0  0  0  0  0  0  0  0  0  0  0
   59.7604   27.9661   51.2540 H   0  0  0  0  0  0  0  0  0  0  0  0
   58.8937   29.3199   50.4261 H   0  0  0  0  0  0  0  0  0  0  0  0
   58.1247   32.0257   45.4348 H   0  0  0  0  0  0  0  0  0  0  0  0
   58.0813   34.4868   45.0671 H   0  0  0  0  0  0  0  0  0  0  0  0
  1  2  1  0
  2  3  2  0
  3  4  1  0
  4  5  2  0
  5  6  1  0
  6  7  1  0
  7  8  1  0
  8  9  1  0
  9 10  1  0
 10 11  2  0
 11 12  1  0
 11 13  1  0
 13 14  1  0
 14 15  1  0
 15 16  2  0
 16 17  1  0
 17 18  2  0
 18 19  1  0
 19 20  2  0
 13 21  1  0
 21 22  1  0
 10 23  1  0
 23 24  1  0
 24 25  1  0
 25 26  1  0
 26 27  1  0
 27 28  1  0
 28 29  1  0
 29 30  2  0
 30 31  1  0
 31 32  2  0
 32 33  1  0
 33 34  2  0
 28 35  1  0
 35 36  1  0
  5 37  1  0
 37 38  2  0
 38  2  1  0
 23  7  1  0
 36 25  1  0
 21  9  2  0
 34 29  1  0
 20 15  1  0
  1 39  1  0
  1 40  1  0
  1 41  1  0
  3 42  1  0
  4 43  1  0
  6 44  1  0
  6 45  1  0
  8 46  1  0
  8 47  1  0
 14 48  1  0
 14 49  1  0
 16 50  1  0
 17 51  1  0
 18 52  1  0
 19 53  1  0
 20 54  1  0
 23 55  1  1
 24 56  1  0
 24 57  1  0
 26 58  1  0
 26 59  1  0
 27 60  1  0
 27 61  1  0
 30 62  1  0
 31 63  1  0
 32 64  1  0
 33 65  1  0
 34 66  1  0
 35 67  1  0
 35 68  1  0
 36 69  1  0
 36 70  1  0
 37 71  1  0
 38 72  1  0
M  CHG  2  12  -1  22  -1
M  END
>  <UniqueID>  (20) 
16

>  <SMILES>  (20) 
Cc1ccc(CN2Cc3c(c([O-])n(Cc4ccccc4)c3[O-])[C@H]2CN2CCN(c3ccccc3)CC2)cc1

>  <Energy>  (20) 
164.7562322900509

>  <Genealogy>  (20) 
Cc1ccc(CN2Cc3c(c([O-])n(Cc4ccccc4)c3[O-])C2CN2CCN(c3ccccc3)CC2)cc1 (protonated)
Cc1ccc(CN2Cc3c(c([O-])n(Cc4ccccc4)c3[O-])[C@H]2CN2CCN(c3ccccc3)CC2)cc1 (chirality)
Cc1ccc(CN2Cc3c(c([O-])n(Cc4ccccc4)c3[O-])[C@H]2CN2CCN(c3ccccc3)CC2)cc1 (3D coordinates assigned)
Cc1ccc(CN2Cc3c(c([O-])n(Cc4ccccc4)c3[O-])[C@H]2CN2CCN(c3ccccc3)CC2)cc1 (nonaromatic ring conformer: 164.7562322900509 kcal/mol)

>  <smiles>  (20) 
Cc1ccc(CN2Cc3c(c(O)n(Cc4ccccc4)c3O)C2CN2CCN(c3ccccc3)CC2)cc1

>  <score_type>  (20) 
oracle

>  <origin>  (20) 
adg

>  <m_score__min__energy>  (20) 
-13

>  <m_primary>  (20) 
energy

$$$$
20:0
     RDKit          3D

 52 55  0  0  0  0  0  0  0  0999 V2000
   62.0390   33.7890   48.9690 O   0  0  0  0  0  0  0  0  0  0  0  0
   62.1870   32.7420   49.6580 C   0  0  0  0  0  0  0  0  0  0  0  0
   63.4940   31.9950   49.5700 C   0  0  0  0  0  0  0  0  0  0  0  0
   64.6010   32.7450   50.2640 C   0  0  0  0  0  0  0  0  0  0  0  0
   64.2970   33.8120   51.1270 C   0  0  0  0  0  0  0  0  0  0  0  0
   65.3200   34.4900   51.7960 C   0  0  0  0  0  0  0  0  0  0  0  0
   66.6510   34.1040   51.6160 C   0  0  0  0  0  0  0  0  0  0  0  0
   67.6670   34.7790   52.2820 O   0  0  0  0  0  0  0  0  0  0  0  0
   66.9610   33.0370   50.7680 C   0  0  0  0  0  0  0  0  0  0  0  0
   65.9400   32.3560   50.0960 C   0  0  0  0  0  0  0  0  0  0  0  0
   61.1340   32.3240   50.5540 N   0  0  0  0  0  0  0  0  0  0  0  0
   59.7930   32.9140   50.4210 C   0  0  0  0  0  0  0  0  0  0  0  0
   58.7080   31.8910   50.7830 C   0  0  0  0  0  0  0  0  0  0  0  0
   59.0290   31.1730   52.0250 N   0  0  0  0  0  0  0  0  0  0  0  0
   58.1900   30.0840   52.4520 C   0  0  0  0  0  0  0  0  0  0  0  0
   58.7170   28.9750   52.7430 O   0  0  0  0  0  0  0  0  0  0  0  0
   56.7220   30.2390   52.5530 C   0  0  0  0  0  0  0  0  0  0  0  0
   55.9780   29.4370   53.4350 C   0  0  0  0  0  0  0  0  0  0  0  0
   54.5900   29.5750   53.5160 C   0  0  0  0  0  0  0  0  0  0  0  0
   53.9230   30.5160   52.7170 C   0  0  0  0  0  0  0  0  0  0  0  0
   52.4260   30.6370   52.7780 C   0  0  0  0  0  0  0  0  0  0  0  0
   51.8690   30.8260   51.4020 C   0  0  0  0  0  0  0  0  0  0  0  0
   51.9620   29.9160   50.4170 N   0  0  0  0  0  0  0  0  0  0  0  0
   51.3970   30.5360   49.3580 C   0  0  0  0  0  0  0  0  0  0  0  0
   51.2620   29.8330   47.8910 S   0  0  0  0  0  0  0  0  0  0  0  0
   50.9630   31.7910   49.6090 N   0  0  0  0  0  0  0  0  0  0  0  0
   51.2740   31.9600   50.9040 C   0  0  0  0  0  0  0  0  0  0  0  0
   51.0280   33.1290   51.6130 O   0  0  0  0  0  0  0  0  0  0  0  0
   54.6610   31.2970   51.8140 C   0  0  0  0  0  0  0  0  0  0  0  0
   56.0500   31.1580   51.7320 C   0  0  0  0  0  0  0  0  0  0  0  0
   60.2940   31.4370   52.7170 C   0  0  0  0  0  0  0  0  0  0  0  0
   61.4420   31.4580   51.7060 C   0  0  0  0  0  0  0  0  0  0  0  0
   63.3763   31.0097   50.0448 H   0  0  0  0  0  0  0  0  0  0  0  0
   63.7608   31.8861   48.5084 H   0  0  0  0  0  0  0  0  0  0  0  0
   63.2501   34.1146   51.2765 H   0  0  0  0  0  0  0  0  0  0  0  0
   65.0770   35.3286   52.4651 H   0  0  0  0  0  0  0  0  0  0  0  0
   68.0088   32.7323   50.6288 H   0  0  0  0  0  0  0  0  0  0  0  0
   66.1869   31.5130   49.4338 H   0  0  0  0  0  0  0  0  0  0  0  0
   59.7116   33.7795   51.0950 H   0  0  0  0  0  0  0  0  0  0  0  0
   59.6478   33.2265   49.3764 H   0  0  0  0  0  0  0  0  0  0  0  0
   57.7510   32.4175   50.9130 H   0  0  0  0  0  0  0  0  0  0  0  0
   58.6459   31.1548   49.9681 H   0  0  0  0  0  0  0  0  0  0  0  0
   56.4914   28.6961   54.0654 H   0  0  0  0  0  0  0  0  0  0  0  0
   54.0170   28.9425   54.2100 H   0  0  0  0  0  0  0  0  0  0  0  0
   52.0046   29.7214   53.2185 H   0  0  0  0  0  0  0  0  0  0  0  0
   52.1599   31.5067   53.3968 H   0  0  0  0  0  0  0  0  0  0  0  0
   54.1443   32.0218   51.1678 H   0  0  0  0  0  0  0  0  0  0  0  0
   56.6196   31.7728   51.0196 H   0  0  0  0  0  0  0  0  0  0  0  0
   60.2364   32.4111   53.2247 H   0  0  0  0  0  0  0  0  0  0  0  0
   60.4759   30.6440   53.4573 H   0  0  0  0  0  0  0  0  0  0  0  0
   62.3486   31.8338   52.2029 H   0  0  0  0  0  0  0  0  0  0  0  0
   61.5934   30.4333   51.3357 H   0  0  0  0  0  0  0  0  0  0  0  0
  1  2  2  0
  2  3  1  0
  3  4  1  0
  4  5  2  0
  5  6  1  0
  6  7  2  0
  7  8  1  0
  7  9  1  0
  9 10  2  0
  2 11  1  0
 11 12  1  0
 12 13  1  0
 13 14  1  0
 14 15  1  0
 15 16  2  0
 15 17  1  0
 17 18  2  0
 18 19  1  0
 19 20  2  0
 20 21  1  0
 21 22  1  0
 22 23  1  0
 23 24  1  0
 24 25  2  0
 24 26  1  0
 26 27  1  0
 27 28  1  0
 20 29  1  0
 29 30  2  0
 14 31  1  0
 31 32  1  0
 10  4  1  0
 32 11  1  0
 30 17  1  0
 27 22  2  0
  3 33  1  0
  3 34  1  0
  5 35  1  0
  6 36  1  0
  9 37  1  0
 10 38  1  0
 12 39  1  0
 12 40  1  0
 13 41  1  0
 13 42  1  0
 18 43  1  0
 19 44  1  0
 21 45  1  0
 21 46  1  0
 29 47  1  0
 30 48  1  0
 31 49  1  0
 31 50  1  0
 32 51  1  0
 32 52  1  0
M  CHG  4   8  -1  23  -1  26  -1  28  -1
M  END
>  <UniqueID>  (21) 
17

>  <SMILES>  (21) 
O=C(Cc1ccc([O-])cc1)N1CCN(C(=O)c2ccc(Cc3[n-]c(=S)[n-]c3[O-])cc2)CC1

>  <Energy>  (21) 
88.88188396606424

>  <Genealogy>  (21) 
O=C(Cc1ccc([O-])cc1)N1CCN(C(=O)c2ccc(Cc3[n-]c(=S)[n-]c3[O-])cc2)CC1 (protonated)
O=C(Cc1ccc([O-])cc1)N1CCN(C(=O)c2ccc(Cc3[n-]c(=S)[n-]c3[O-])cc2)CC1 (3D coordinates assigned)
O=C(Cc1ccc([O-])cc1)N1CCN(C(=O)c2ccc(Cc3[n-]c(=S)[n-]c3[O-])cc2)CC1 (nonaromatic ring conformer: 88.88188396606424 kcal/mol)

>  <smiles>  (21) 
O=C(Cc1ccc(O)cc1)N1CCN(C(=O)c2ccc(Cc3[nH]c(=S)[nH]c3O)cc2)CC1

>  <score_type>  (21) 
oracle

>  <origin>  (21) 
adg

>  <m_score__min__energy>  (21) 
-17.23

>  <m_primary>  (21) 
energy

$$$$
21:0
     RDKit          3D

 62 66  0  0  0  0  0  0  0  0999 V2000
   58.2488   32.2232   42.4132 H   0  0  0  0  0  0  0  0  0  0  0  0
   57.8720   31.4140   43.0560 C   0  0  0  0  0  0  0  0  0  0  0  0
   56.8500   30.5820   42.5990 C   0  0  0  0  0  0  0  0  0  0  0  0
   56.4378   30.7203   41.5886 H   0  0  0  0  0  0  0  0  0  0  0  0
   56.3510   29.5740   43.4250 C   0  0  0  0  0  0  0  0  0  0  0  0
   55.5479   28.9161   43.0615 H   0  0  0  0  0  0  0  0  0  0  0  0
   56.8670   29.3960   44.7130 C   0  0  0  0  0  0  0  0  0  0  0  0
   56.3000   28.4120   45.5340 O   0  0  0  0  0  0  0  0  0  0  0  0
   56.8530   27.1370   45.7290 C   0  0  0  0  0  0  0  0  0  0  0  0
   58.2440   26.9140   45.6790 C   0  0  0  0  0  0  0  0  0  0  0  0
   58.9260   27.7529   45.4762 H   0  0  0  0  0  0  0  0  0  0  0  0
   58.7610   25.6310   45.8860 C   0  0  0  0  0  0  0  0  0  0  0  0
   59.8469   25.4616   45.8393 H   0  0  0  0  0  0  0  0  0  0  0  0
   57.8990   24.5650   46.1520 C   0  0  0  0  0  0  0  0  0  0  0  0
   58.4030   23.3220   46.3530 F   0  0  0  0  0  0  0  0  0  0  0  0
   56.5180   24.7810   46.2150 C   0  0  0  0  0  0  0  0  0  0  0  0
   55.8398   23.9413   46.4268 H   0  0  0  0  0  0  0  0  0  0  0  0
   55.9990   26.0630   46.0090 C   0  0  0  0  0  0  0  0  0  0  0  0
   54.9131   26.2289   46.0672 H   0  0  0  0  0  0  0  0  0  0  0  0
   57.9470   30.1880   45.1580 C   0  0  0  0  0  0  0  0  0  0  0  0
   58.5070   29.9210   46.4550 N   0  0  0  0  0  0  0  0  0  0  0  0
   59.8810   29.7830   46.8400 C   0  0  0  0  0  0  0  0  0  0  0  0
   60.3270   28.6310   47.0860 O   0  0  0  0  0  0  0  0  0  0  0  0
   60.7830   30.8880   46.7640 N   0  0  0  0  0  0  0  0  0  0  0  0
   61.5170   31.4260   47.6980 C   0  0  0  0  0  0  0  0  0  0  0  0
   62.8550   31.5540   47.5140 N   0  0  0  0  0  0  0  0  0  0  0  0
   63.2850   32.0420   48.6850 C   0  0  0  0  0  0  0  0  0  0  0  0
   64.5930   32.3670   49.0340 C   0  0  0  0  0  0  0  0  0  0  0  0
   65.4229   32.2203   48.3271 H   0  0  0  0  0  0  0  0  0  0  0  0
   64.8180   32.8890   50.3200 C   0  0  0  0  0  0  0  0  0  0  0  0
   65.8392   33.1523   50.6327 H   0  0  0  0  0  0  0  0  0  0  0  0
   63.7400   33.0770   51.2120 C   0  0  0  0  0  0  0  0  0  0  0  0
   63.9258   33.4877   52.2154 H   0  0  0  0  0  0  0  0  0  0  0  0
   62.4290   32.7420   50.8250 C   0  0  0  0  0  0  0  0  0  0  0  0
   61.5805   32.8880   51.5096 H   0  0  0  0  0  0  0  0  0  0  0  0
   62.2390   32.2170   49.5410 C   0  0  0  0  0  0  0  0  0  0  0  0
   61.0860   31.8610   48.9310 N   0  0  0  0  0  0  0  0  0  0  0  0
   59.7440   32.2470   49.4150 C   0  0  0  0  0  0  0  0  0  0  0  0
   59.0723   31.3798   49.3328 H   0  0  0  0  0  0  0  0  0  0  0  0
   59.8379   32.5752   50.4607 H   0  0  0  0  0  0  0  0  0  0  0  0
   59.1540   33.4180   48.5930 C   0  0  0  0  0  0  0  0  0  0  0  0
   58.2478   33.7807   49.1002 H   0  0  0  0  0  0  0  0  0  0  0  0
   59.9279   34.1970   48.5279 H   0  0  0  0  0  0  0  0  0  0  0  0
   58.7960   33.0300   47.2040 N   0  0  0  0  0  0  0  0  0  0  0  0
   58.8970   31.9910   47.1320 H   0  0  0  0  0  0  0  0  0  0  0  0
   59.7570   33.6110   46.2210 C   0  0  0  0  0  0  0  0  0  0  0  0
   60.7181   33.7836   46.7275 H   0  0  0  0  0  0  0  0  0  0  0  0
   59.8588   32.8959   45.3914 H   0  0  0  0  0  0  0  0  0  0  0  0
   59.2660   34.9400   45.6320 C   0  0  0  0  0  0  0  0  0  0  0  0
   59.1026   35.6578   46.4493 H   0  0  0  0  0  0  0  0  0  0  0  0
   60.0281   35.3188   44.9351 H   0  0  0  0  0  0  0  0  0  0  0  0
   57.9490   34.7450   44.8620 C   0  0  0  0  0  0  0  0  0  0  0  0
   57.3531   35.6660   44.9429 H   0  0  0  0  0  0  0  0  0  0  0  0
   58.2030   34.5191   43.8158 H   0  0  0  0  0  0  0  0  0  0  0  0
   57.1190   33.5710   45.4060 C   0  0  0  0  0  0  0  0  0  0  0  0
   56.0510   33.7802   45.2463 H   0  0  0  0  0  0  0  0  0  0  0  0
   57.4143   32.6548   44.8737 H   0  0  0  0  0  0  0  0  0  0  0  0
   57.3730   33.3710   46.9050 C   0  0  0  0  0  0  0  0  0  0  0  0
   57.1145   34.3004   47.4336 H   0  0  0  0  0  0  0  0  0  0  0  0
   56.7502   32.5284   47.2398 H   0  0  0  0  0  0  0  0  0  0  0  0
   58.4190   31.2230   44.3280 C   0  0  0  0  0  0  0  0  0  0  0  0
   59.2228   31.8849   44.6827 H   0  0  0  0  0  0  0  0  0  0  0  0
  1  2  1  0
  2  3  2  0
  3  4  1  0
  3  5  1  0
  5  6  1  0
  5  7  2  0
  7  8  1  0
  8  9  1  0
  9 10  2  0
 10 11  1  0
 10 12  1  0
 12 13  1  0
 12 14  2  0
 14 15  1  0
 14 16  1  0
 16 17  1  0
 16 18  2  0
 18 19  1  0
  7 20  1  0
 20 21  1  0
 21 22  1  0
 22 23  2  0
 22 24  1  0
 24 25  2  0
 25 26  1  0
 26 27  1  0
 27 28  2  0
 28 29  1  0
 28 30  1  0
 30 31  1  0
 30 32  2  0
 32 33  1  0
 32 34  1  0
 34 35  1  0
 34 36  2  0
 36 37  1  0
 37 38  1  0
 38 39  1  0
 38 40  1  0
 38 41  1  0
 41 42  1  0
 41 43  1  0
 41 44  1  0
 44 45  1  0
 44 46  1  0
 46 47  1  0
 46 48  1  0
 46 49  1  0
 49 50  1  0
 49 51  1  0
 49 52  1  0
 52 53  1  0
 52 54  1  0
 52 55  1  0
 55 56  1  0
 55 57  1  0
 55 58  1  0
 58 59  1  0
 58 60  1  0
 20 61  2  0
 61 62  1  0
 61  2  1  0
 18  9  1  0
 37 25  1  0
 58 44  1  0
 36 27  1  0
M  CHG  3  21  -1  26  -1  44   1
M  END
>  <UniqueID>  (22) 
18

>  <SMILES>  (22) 
O=C(/N=c1/[n-]c2ccccc2n1CC[NH+]1CCCCC1)[N-]c1ccccc1Oc1ccc(F)cc1

>  <Energy>  (22) 
136.44400631048876

>  <Genealogy>  (22) 
O=C(N=c1[n-]c2ccccc2n1CC[NH+]1CCCCC1)[N-]c1ccccc1Oc1ccc(F)cc1 (protonated)
O=C(/N=c1/[n-]c2ccccc2n1CC[NH+]1CCCCC1)[N-]c1ccccc1Oc1ccc(F)cc1 (cis-trans isomerization)
O=C(/N=c1/[n-]c2ccccc2n1CC[NH+]1CCCCC1)[N-]c1ccccc1Oc1ccc(F)cc1 (3D coordinates assigned)
O=C(/N=c1/[n-]c2ccccc2n1CC[NH+]1CCCCC1)[N-]c1ccccc1Oc1ccc(F)cc1 (nonaromatic ring conformer: 136.44400631048876 kcal/mol)

>  <smiles>  (22) 
O=C(N=c1[nH]c2ccccc2n1CCN1CCCCC1)Nc1ccccc1Oc1ccc(F)cc1

>  <score_type>  (22) 
oracle

>  <origin>  (22) 
adg

>  <m_score__min__energy>  (22) 
-9.1300000000000008

>  <m_primary>  (22) 
energy

$$$$
22:0
     RDKit          3D

 39 41  0  0  0  0  0  0  0  0999 V2000
   59.2440   29.0830   47.9370 C   0  0  0  0  0  0  0  0  0  0  0  0
   58.7470   29.8600   46.9590 C   0  0  0  0  0  0  0  0  0  0  0  0
   58.3140   29.4170   45.7040 C   0  0  0  0  0  0  0  0  0  0  0  0
   58.3450   28.1580   45.2220 C   0  0  0  0  0  0  0  0  0  0  0  0
   57.4000   27.1000   45.6420 C   0  0  0  0  0  0  0  0  0  0  0  0
   56.0180   27.3440   45.6230 C   0  0  0  0  0  0  0  0  0  0  0  0
   55.5230   28.5870   45.2470 O   0  0  0  0  0  0  0  0  0  0  0  0
   55.1500   26.3630   45.9840 N   0  0  0  0  0  0  0  0  0  0  0  0
   55.5950   25.1340   46.3540 C   0  0  0  0  0  0  0  0  0  0  0  0
   54.7730   24.2440   46.6900 O   0  0  0  0  0  0  0  0  0  0  0  0
   56.9250   24.8650   46.3550 N   0  0  0  0  0  0  0  0  0  0  0  0
   57.8330   25.8100   46.0000 C   0  0  0  0  0  0  0  0  0  0  0  0
   59.0580   25.5120   45.9790 O   0  0  0  0  0  0  0  0  0  0  0  0
   57.8680   30.5390   45.0250 C   0  0  0  0  0  0  0  0  0  0  0  0
   58.0420   31.6120   45.8750 C   0  0  0  0  0  0  0  0  0  0  0  0
   57.6430   33.0190   45.5440 C   0  0  0  0  0  0  0  0  0  0  0  0
   58.5760   31.2080   47.0530 N   0  0  0  0  0  0  0  0  0  0  0  0
   58.8460   32.0820   48.2070 C   0  0  0  0  0  0  0  0  0  0  0  0
   60.2770   32.5550   48.1930 C   0  0  0  0  0  0  0  0  0  0  0  0
   60.6320   33.7580   48.8250 C   0  0  0  0  0  0  0  0  0  0  0  0
   61.9570   34.2020   48.8020 C   0  0  0  0  0  0  0  0  0  0  0  0
   62.9380   33.4510   48.1500 C   0  0  0  0  0  0  0  0  0  0  0  0
   62.5950   32.2480   47.5190 C   0  0  0  0  0  0  0  0  0  0  0  0
   63.5630   31.4900   46.8650 O   0  0  0  0  0  0  0  0  0  0  0  0
   61.2700   31.8020   47.5430 C   0  0  0  0  0  0  0  0  0  0  0  0
   59.5571   29.5324   48.8909 H   0  0  0  0  0  0  0  0  0  0  0  0
   59.3376   27.9978   47.7833 H   0  0  0  0  0  0  0  0  0  0  0  0
   59.1136   27.9042   44.4771 H   0  0  0  0  0  0  0  0  0  0  0  0
   57.4552   30.5688   44.0058 H   0  0  0  0  0  0  0  0  0  0  0  0
   57.4830   33.5833   46.4746 H   0  0  0  0  0  0  0  0  0  0  0  0
   58.4407   33.4980   44.9573 H   0  0  0  0  0  0  0  0  0  0  0  0
   56.7126   33.0079   44.9573 H   0  0  0  0  0  0  0  0  0  0  0  0
   58.1769   32.9540   48.1640 H   0  0  0  0  0  0  0  0  0  0  0  0
   58.6707   31.5120   49.1313 H   0  0  0  0  0  0  0  0  0  0  0  0
   59.8638   34.3533   49.3403 H   0  0  0  0  0  0  0  0  0  0  0  0
   62.2281   35.1453   49.2986 H   0  0  0  0  0  0  0  0  0  0  0  0
   63.9796   33.8041   48.1320 H   0  0  0  0  0  0  0  0  0  0  0  0
   64.5120   31.8270   46.7490 H   0  0  0  0  0  0  0  0  0  0  0  0
   61.0030   30.8556   47.0499 H   0  0  0  0  0  0  0  0  0  0  0  0
  1  2  2  0
  2  3  1  0
  3  4  2  3
  4  5  1  0
  5  6  2  0
  6  7  1  0
  6  8  1  0
  8  9  1  0
  9 10  2  0
  9 11  1  0
 11 12  1  0
 12 13  2  0
  3 14  1  0
 14 15  2  0
 15 16  1  0
 15 17  1  0
 17 18  1  0
 18 19  1  0
 19 20  2  0
 20 21  1  0
 21 22  2  0
 22 23  1  0
 23 24  1  0
 23 25  2  0
 17  2  1  0
 25 19  1  0
 12  5  1  0
  1 26  1  0
  1 27  1  0
  4 28  1  0
 14 29  1  0
 16 30  1  0
 16 31  1  0
 16 32  1  0
 18 33  1  0
 18 34  1  0
 20 35  1  0
 21 36  1  0
 22 37  1  0
 24 38  1  0
 25 39  1  0
M  CHG  3   7  -1   8  -1  11  -1
M  END
>  <UniqueID>  (23) 
19

>  <SMILES>  (23) 
C=c1c(=Cc2c([O-])[n-]c(=O)[n-]c2=O)cc(C)n1Cc1cccc(O)c1

>  <Energy>  (23) 
79.69185653651058

>  <Genealogy>  (23) 
C=c1c(=Cc2c([O-])[n-]c(=O)[n-]c2=O)cc(C)n1Cc1cccc(O)c1 (protonated)
C=c1c(=Cc2c([O-])[n-]c(=O)[n-]c2=O)cc(C)n1Cc1cccc(O)c1 (3D coordinates assigned)
C=c1c(=Cc2c([O-])[n-]c(=O)[n-]c2=O)cc(C)n1Cc1cccc(O)c1 (optimized conformer: 79.69185653651058 kcal/mol)

>  <smiles>  (23) 
C=c1c(=Cc2c(O)[nH]c(=O)[nH]c2=O)cc(C)n1Cc1cccc(O)c1

>  <score_type>  (23) 
oracle

>  <origin>  (23) 
adg

>  <m_score__min__energy>  (23) 
-15.41

>  <m_primary>  (23) 
energy

$$$$
23:0
     RDKit          3D

 49 52  0  0  0  0  0  0  0  0999 V2000
   54.8590   26.1660   45.9640 N   0  0  0  0  0  0  0  0  0  0  0  0
   56.4750   25.6200   46.2400 S   0  0  0  0  0  0  0  0  0  0  0  0
   56.4830   24.7180   47.4430 O   0  0  0  0  0  0  0  0  0  0  0  0
   56.9620   24.8430   45.0500 O   0  0  0  0  0  0  0  0  0  0  0  0
   57.5290   27.0130   46.5100 C   0  0  0  0  0  0  0  0  0  0  0  0
   58.7180   26.8420   47.2340 C   0  0  0  0  0  0  0  0  0  0  0  0
   59.5730   27.9220   47.4650 C   0  0  0  0  0  0  0  0  0  0  0  0
   59.2570   29.1990   46.9750 C   0  0  0  0  0  0  0  0  0  0  0  0
   60.1670   30.3470   47.2200 C   0  0  0  0  0  0  0  0  0  0  0  0
   61.3730   30.1660   47.9200 C   0  0  0  0  0  0  0  0  0  0  0  0
   62.2240   31.2490   48.1570 C   0  0  0  0  0  0  0  0  0  0  0  0
   61.8830   32.5230   47.6980 C   0  0  0  0  0  0  0  0  0  0  0  0
   60.6870   32.7240   46.9950 C   0  0  0  0  0  0  0  0  0  0  0  0
   60.3060   34.1050   46.5120 C   0  0  0  0  0  0  0  0  0  0  0  0
   58.9350   34.4760   46.9050 N   0  0  0  0  0  0  0  0  0  0  0  0
   57.9510   34.2530   45.8290 C   0  0  0  0  0  0  0  0  0  0  0  0
   58.6370   34.0460   44.4560 C   0  0  0  0  0  0  0  0  0  0  0  0
   57.9120   32.8950   43.8710 C   0  0  0  0  0  0  0  0  0  0  0  0
   58.0470   32.3920   42.5740 C   0  0  0  0  0  0  0  0  0  0  0  0
   57.2930   31.2670   42.2070 C   0  0  0  0  0  0  0  0  0  0  0  0
   56.4310   30.6590   43.1380 C   0  0  0  0  0  0  0  0  0  0  0  0
   56.3210   31.1750   44.4390 C   0  0  0  0  0  0  0  0  0  0  0  0
   57.0730   32.3020   44.7800 C   0  0  0  0  0  0  0  0  0  0  0  0
   57.1170   32.9770   46.0970 C   0  0  0  0  0  0  0  0  0  0  0  0
   59.8320   31.6340   46.7590 C   0  0  0  0  0  0  0  0  0  0  0  0
   58.0660   29.3720   46.2500 C   0  0  0  0  0  0  0  0  0  0  0  0
   57.2020   28.2960   46.0150 C   0  0  0  0  0  0  0  0  0  0  0  0
   56.0340   28.5410   45.2900 O   0  0  0  0  0  0  0  0  0  0  0  0
   54.7710   27.1040   46.4160 H   0  0  0  0  0  0  0  0  0  0  0  0
   58.9798   25.8473   47.6238 H   0  0  0  0  0  0  0  0  0  0  0  0
   60.5013   27.7707   48.0354 H   0  0  0  0  0  0  0  0  0  0  0  0
   61.6486   29.1651   48.2836 H   0  0  0  0  0  0  0  0  0  0  0  0
   63.1648   31.0975   48.7065 H   0  0  0  0  0  0  0  0  0  0  0  0
   62.5556   33.3722   47.8889 H   0  0  0  0  0  0  0  0  0  0  0  0
   61.0071   34.8359   46.9412 H   0  0  0  0  0  0  0  0  0  0  0  0
   60.3521   34.1019   45.4130 H   0  0  0  0  0  0  0  0  0  0  0  0
   58.9270   35.4900   47.1690 H   0  0  0  0  0  0  0  0  0  0  0  0
   57.3155   35.1507   45.8111 H   0  0  0  0  0  0  0  0  0  0  0  0
   58.5282   34.9401   43.8245 H   0  0  0  0  0  0  0  0  0  0  0  0
   59.7191   33.8686   44.5427 H   0  0  0  0  0  0  0  0  0  0  0  0
   58.7304   32.8683   41.8556 H   0  0  0  0  0  0  0  0  0  0  0  0
   57.3761   30.8593   41.1887 H   0  0  0  0  0  0  0  0  0  0  0  0
   55.8418   29.7772   42.8458 H   0  0  0  0  0  0  0  0  0  0  0  0
   55.6556   30.7011   45.1757 H   0  0  0  0  0  0  0  0  0  0  0  0
   56.1040   33.2354   46.4391 H   0  0  0  0  0  0  0  0  0  0  0  0
   57.5491   32.3437   46.8858 H   0  0  0  0  0  0  0  0  0  0  0  0
   58.8920   31.7881   46.2088 H   0  0  0  0  0  0  0  0  0  0  0  0
   57.8086   30.3682   45.8611 H   0  0  0  0  0  0  0  0  0  0  0  0
   55.1540   28.0820   45.4800 H   0  0  0  0  0  0  0  0  0  0  0  0
  1  2  1  0
  2  3  2  0
  2  4  2  0
  2  5  1  0
  5  6  2  0
  6  7  1  0
  7  8  2  0
  8  9  1  0
  9 10  2  0
 10 11  1  0
 11 12  2  0
 12 13  1  0
 13 14  1  0
 14 15  1  0
 15 16  1  0
 16 17  1  0
 17 18  1  0
 18 19  2  0
 19 20  1  0
 20 21  2  0
 21 22  1  0
 22 23  2  0
 23 24  1  0
 13 25  2  0
  8 26  1  0
 26 27  2  0
 27 28  1  0
 27  5  1  0
 25  9  1  0
 24 16  1  0
 23 18  1  0
  1 29  1  0
  6 30  1  0
  7 31  1  0
 10 32  1  0
 11 33  1  0
 12 34  1  0
 14 35  1  0
 14 36  1  0
 15 37  1  0
 16 38  1  0
 17 39  1  0
 17 40  1  0
 19 41  1  0
 20 42  1  0
 21 43  1  0
 22 44  1  0
 24 45  1  0
 24 46  1  0
 25 47  1  0
 26 48  1  0
 28 49  1  0
M  CHG  1   1  -1
M  END
>  <UniqueID>  (24) 
20

>  <SMILES>  (24) 
[NH-]S(=O)(=O)c1ccc(-c2cccc(CNC3Cc4ccccc4C3)c2)cc1O

>  <Energy>  (24) 
68.71383790025853

>  <Genealogy>  (24) 
[NH-]S(=O)(=O)c1ccc(-c2cccc(CNC3Cc4ccccc4C3)c2)cc1O (protonated)
[NH-]S(=O)(=O)c1ccc(-c2cccc(CNC3Cc4ccccc4C3)c2)cc1O (3D coordinates assigned)
[NH-]S(=O)(=O)c1ccc(-c2cccc(CNC3Cc4ccccc4C3)c2)cc1O (nonaromatic ring conformer: 68.71383790025853 kcal/mol)

>  <smiles>  (24) 
NS(=O)(=O)c1ccc(-c2cccc(CNC3Cc4ccccc4C3)c2)cc1O

>  <score_type>  (24) 
oracle

>  <origin>  (24) 
adg

>  <m_score__min__energy>  (24) 
-13.550000000000001

>  <m_primary>  (24) 
energy

$$$$
24:0
     RDKit          3D

 47 51  0  0  0  0  0  0  0  0999 V2000
   51.1788   32.3161   54.0830 H   0  0  0  0  0  0  0  0  0  0  0  0
   51.3220   32.0680   53.0210 C   0  0  0  0  0  0  0  0  0  0  0  0
   50.6390   32.6290   52.0030 N   0  0  0  0  0  0  0  0  0  0  0  0
   51.1210   32.0420   50.8900 C   0  0  0  0  0  0  0  0  0  0  0  0
   50.6690   32.3470   49.6130 O   0  0  0  0  0  0  0  0  0  0  0  0
   52.1000   31.1150   51.1730 C   0  0  0  0  0  0  0  0  0  0  0  0
   52.6585   30.4922   50.4587 H   0  0  0  0  0  0  0  0  0  0  0  0
   52.2280   31.1370   52.5450 C   0  0  0  0  0  0  0  0  0  0  0  0
   53.1350   30.3090   53.3500 C   0  0  0  0  0  0  0  0  0  0  0  0
   52.8420   30.0410   54.5470 O   0  0  0  0  0  0  0  0  0  0  0  0
   54.3050   29.7410   52.7480 N   0  0  0  0  0  0  0  0  0  0  0  0
   55.5100   30.2380   52.7160 C   0  0  0  0  0  0  0  0  0  0  0  0
   55.7800   31.5360   52.3480 C   0  0  0  0  0  0  0  0  0  0  0  0
   55.0635   32.3344   52.1047 H   0  0  0  0  0  0  0  0  0  0  0  0
   57.1630   31.6040   52.3550 C   0  0  0  0  0  0  0  0  0  0  0  0
   57.9940   32.7540   51.9580 C   0  0  0  0  0  0  0  0  0  0  0  0
   58.1120   33.7160   52.7650 O   0  0  0  0  0  0  0  0  0  0  0  0
   58.6490   32.8210   50.6790 N   0  0  0  0  0  0  0  0  0  0  0  0
   58.1540   32.1630   49.4640 C   0  0  0  0  0  0  0  0  0  0  0  0
   58.3442   31.0800   49.4963 H   0  0  0  0  0  0  0  0  0  0  0  0
   57.0674   32.2678   49.3283 H   0  0  0  0  0  0  0  0  0  0  0  0
   58.9400   32.8090   48.3860 C   0  0  0  0  0  0  0  0  0  0  0  0
   58.8760   32.5610   47.0130 C   0  0  0  0  0  0  0  0  0  0  0  0
   58.1769   31.8144   46.6081 H   0  0  0  0  0  0  0  0  0  0  0  0
   59.7250   33.2870   46.1610 C   0  0  0  0  0  0  0  0  0  0  0  0
   59.6933   33.1108   45.0757 H   0  0  0  0  0  0  0  0  0  0  0  0
   60.6160   34.2390   46.6910 C   0  0  0  0  0  0  0  0  0  0  0  0
   61.2782   34.8037   46.0182 H   0  0  0  0  0  0  0  0  0  0  0  0
   60.6630   34.4710   48.0760 C   0  0  0  0  0  0  0  0  0  0  0  0
   61.3545   35.2147   48.4988 H   0  0  0  0  0  0  0  0  0  0  0  0
   59.8120   33.7360   48.9030 C   0  0  0  0  0  0  0  0  0  0  0  0
   59.6800   33.8190   50.3770 C   0  0  0  0  0  0  0  0  0  0  0  0
   60.6293   33.5675   50.8726 H   0  0  0  0  0  0  0  0  0  0  0  0
   59.4198   34.8277   50.7302 H   0  0  0  0  0  0  0  0  0  0  0  0
   57.6790   30.4140   52.7240 N   0  0  0  0  0  0  0  0  0  0  0  0
   56.6750   29.5830   52.9600 N   0  0  0  0  0  0  0  0  0  0  0  0
   56.8870   28.3140   53.5940 C   0  0  0  0  0  0  0  0  0  0  0  0
   55.7880   27.5080   53.9310 C   0  0  0  0  0  0  0  0  0  0  0  0
   54.7661   27.8614   53.7289 H   0  0  0  0  0  0  0  0  0  0  0  0
   55.9890   26.2570   54.5230 C   0  0  0  0  0  0  0  0  0  0  0  0
   55.1250   25.6346   54.7988 H   0  0  0  0  0  0  0  0  0  0  0  0
   57.2880   25.7960   54.7650 C   0  0  0  0  0  0  0  0  0  0  0  0
   57.4443   24.8151   55.2377 H   0  0  0  0  0  0  0  0  0  0  0  0
   58.3870   26.5820   54.4060 C   0  0  0  0  0  0  0  0  0  0  0  0
   59.4080   26.2165   54.5903 H   0  0  0  0  0  0  0  0  0  0  0  0
   58.1890   27.8320   53.8130 C   0  0  0  0  0  0  0  0  0  0  0  0
   59.0557   28.4411   53.5165 H   0  0  0  0  0  0  0  0  0  0  0  0
  1  2  1  0
  2  3  1  0
  3  4  1  0
  4  5  1  0
  4  6  2  0
  6  7  1  0
  6  8  1  0
  8  9  1  0
  9 10  2  0
  9 11  1  0
 11 12  2  0
 12 13  1  0
 13 14  1  0
 13 15  2  0
 15 16  1  0
 16 17  2  0
 16 18  1  0
 18 19  1  0
 19 20  1  0
 19 21  1  0
 19 22  1  0
 22 23  2  0
 23 24  1  0
 23 25  1  0
 25 26  1  0
 25 27  2  0
 27 28  1  0
 27 29  1  0
 29 30  1  0
 29 31  2  0
 31 32  1  0
 32 33  1  0
 32 34  1  0
 15 35  1  0
 35 36  1  0
 36 37  1  0
 37 38  2  0
 38 39  1  0
 38 40  1  0
 40 41  1  0
 40 42  2  0
 42 43  1  0
 42 44  1  0
 44 45  1  0
 44 46  2  0
 46 47  1  0
  8  2  2  0
 36 12  1  0
 46 37  1  0
 32 18  1  0
 31 22  1  0
M  CHG  3   3  -1   5  -1  35  -1
M  END
>  <UniqueID>  (25) 
21

>  <SMILES>  (25) 
O=C(/N=c1/cc(C(=O)N2Cc3ccccc3C2)[n-]n1-c1ccccc1)c1c[n-]c([O-])c1

>  <Energy>  (25) 
137.76676933306578

>  <Genealogy>  (25) 
O=C(N=c1cc(C(=O)N2Cc3ccccc3C2)[n-]n1-c1ccccc1)c1c[n-]c([O-])c1 (protonated)
O=C(/N=c1/cc(C(=O)N2Cc3ccccc3C2)[n-]n1-c1ccccc1)c1c[n-]c([O-])c1 (cis-trans isomerization)
O=C(/N=c1/cc(C(=O)N2Cc3ccccc3C2)[n-]n1-c1ccccc1)c1c[n-]c([O-])c1 (3D coordinates assigned)
O=C(/N=c1/cc(C(=O)N2Cc3ccccc3C2)[n-]n1-c1ccccc1)c1c[n-]c([O-])c1 (nonaromatic ring conformer: 137.76676933306578 kcal/mol)

>  <smiles>  (25) 
O=C(N=c1cc(C(=O)N2Cc3ccccc3C2)[nH]n1-c1ccccc1)c1c[nH]c(O)c1

>  <score_type>  (25) 
oracle

>  <origin>  (25) 
adg

>  <m_score__min__energy>  (25) 
-16.460000000000001

>  <m_primary>  (25) 
energy

$$$$
25:0
     RDKit          3D

 57 60  0  0  0  0  0  0  0  0999 V2000
   60.8530   28.6200   44.6790 C   0  0  0  0  0  0  0  0  0  0  0  0
   59.6000   29.2970   44.6950 O   0  0  0  0  0  0  0  0  0  0  0  0
   59.3320   30.4910   45.3830 C   0  0  0  0  0  0  0  0  0  0  0  0
   60.2260   31.0060   46.3440 C   0  0  0  0  0  0  0  0  0  0  0  0
   59.9440   32.2040   47.0230 C   0  0  0  0  0  0  0  0  0  0  0  0
   60.8720   32.7270   48.0630 C   0  0  0  0  0  0  0  0  0  0  0  0
   60.9440   34.1060   48.3360 C   0  0  0  0  0  0  0  0  0  0  0  0
   61.8220   34.5860   49.3080 C   0  0  0  0  0  0  0  0  0  0  0  0
   62.6230   33.7020   50.0370 C   0  0  0  0  0  0  0  0  0  0  0  0
   62.5630   32.3230   49.7890 C   0  0  0  0  0  0  0  0  0  0  0  0
   63.3620   31.3730   50.5930 C   0  0  0  0  0  0  0  0  0  0  0  0
   64.6050   31.2700   50.3950 O   0  0  0  0  0  0  0  0  0  0  0  0
   62.7250   30.5340   51.5650 N   0  0  0  0  0  0  0  0  0  0  0  0
   62.2670   29.1800   51.2540 C   0  0  0  0  0  0  0  0  0  0  0  0
   60.9620   29.2450   50.5060 C   0  0  0  0  0  0  0  0  0  0  0  0
   60.7580   28.4610   49.3560 C   0  0  0  0  0  0  0  0  0  0  0  0
   59.5890   28.6080   48.6000 C   0  0  0  0  0  0  0  0  0  0  0  0
   58.6140   29.5320   48.9870 C   0  0  0  0  0  0  0  0  0  0  0  0
   58.8060   30.3100   50.1340 C   0  0  0  0  0  0  0  0  0  0  0  0
   59.9760   30.1670   50.8930 C   0  0  0  0  0  0  0  0  0  0  0  0
   61.6970   31.8470   48.7890 C   0  0  0  0  0  0  0  0  0  0  0  0
   58.7600   32.8940   46.7150 C   0  0  0  0  0  0  0  0  0  0  0  0
   57.8670   32.3900   45.7690 C   0  0  0  0  0  0  0  0  0  0  0  0
   58.1360   31.1840   45.1050 C   0  0  0  0  0  0  0  0  0  0  0  0
   57.1480   30.6540   44.0890 C   0  0  0  0  0  0  0  0  0  0  0  0
   56.2460   29.6240   44.6970 C   0  0  0  0  0  0  0  0  0  0  0  0
   55.1250   29.3800   44.1710 O   0  0  0  0  0  0  0  0  0  0  0  0
   56.7020   28.8690   45.8270 N   0  0  0  0  0  0  0  0  0  0  0  0
   57.0610   27.6150   45.8800 C   0  0  0  0  0  0  0  0  0  0  0  0
   58.3960   27.3500   45.9300 N   0  0  0  0  0  0  0  0  0  0  0  0
   58.8880   26.0860   46.0140 C   0  0  0  0  0  0  0  0  0  0  0  0
   58.0180   24.9990   46.0530 C   0  0  0  0  0  0  0  0  0  0  0  0
   56.6440   25.2250   46.0180 C   0  0  0  0  0  0  0  0  0  0  0  0
   56.1480   26.5310   45.9490 C   0  0  0  0  0  0  0  0  0  0  0  0
   54.7700   26.7150   45.9950 O   0  0  0  0  0  0  0  0  0  0  0  0
   61.1858   28.4402   45.7119 H   0  0  0  0  0  0  0  0  0  0  0  0
   60.7435   27.6583   44.1564 H   0  0  0  0  0  0  0  0  0  0  0  0
   61.5974   29.2387   44.1564 H   0  0  0  0  0  0  0  0  0  0  0  0
   61.1567   30.4630   46.5653 H   0  0  0  0  0  0  0  0  0  0  0  0
   60.3051   34.8083   47.7804 H   0  0  0  0  0  0  0  0  0  0  0  0
   61.8845   35.6669   49.5021 H   0  0  0  0  0  0  0  0  0  0  0  0
   63.3037   34.0901   50.8090 H   0  0  0  0  0  0  0  0  0  0  0  0
   63.0198   28.6731   50.6325 H   0  0  0  0  0  0  0  0  0  0  0  0
   62.1229   28.6202   52.1899 H   0  0  0  0  0  0  0  0  0  0  0  0
   61.5202   27.7294   49.0495 H   0  0  0  0  0  0  0  0  0  0  0  0
   59.4373   27.9950   47.6993 H   0  0  0  0  0  0  0  0  0  0  0  0
   57.6970   29.6473   48.3905 H   0  0  0  0  0  0  0  0  0  0  0  0
   58.0377   31.0350   50.4407 H   0  0  0  0  0  0  0  0  0  0  0  0
   60.1222   30.7793   51.7951 H   0  0  0  0  0  0  0  0  0  0  0  0
   61.6635   30.7695   48.5703 H   0  0  0  0  0  0  0  0  0  0  0  0
   58.5344   33.8420   47.2252 H   0  0  0  0  0  0  0  0  0  0  0  0
   56.9438   32.9432   45.5418 H   0  0  0  0  0  0  0  0  0  0  0  0
   56.5377   31.4883   43.7128 H   0  0  0  0  0  0  0  0  0  0  0  0
   57.7102   30.1841   43.2686 H   0  0  0  0  0  0  0  0  0  0  0  0
   59.9749   25.9211   46.0512 H   0  0  0  0  0  0  0  0  0  0  0  0
   58.4116   23.9735   46.1108 H   0  0  0  0  0  0  0  0  0  0  0  0
   55.9472   24.3742   46.0447 H   0  0  0  0  0  0  0  0  0  0  0  0
  1  2  1  0
  2  3  1  0
  3  4  2  0
  4  5  1  0
  5  6  1  0
  6  7  2  0
  7  8  1  0
  8  9  2  0
  9 10  1  0
 10 11  1  0
 11 12  2  0
 11 13  1  0
 13 14  1  0
 14 15  1  0
 15 16  2  0
 16 17  1  0
 17 18  2  0
 18 19  1  0
 19 20  2  0
 10 21  2  0
  5 22  2  0
 22 23  1  0
 23 24  2  0
 24 25  1  0
 25 26  1  0
 26 27  2  0
 26 28  1  0
 28 29  2  3
 29 30  1  0
 30 31  1  0
 31 32  2  0
 32 33  1  0
 33 34  2  0
 34 35  1  0
 24  3  1  0
 34 29  1  0
 21  6  1  0
 20 15  1  0
  1 36  1  0
  1 37  1  0
  1 38  1  0
  4 39  1  0
  7 40  1  0
  8 41  1  0
  9 42  1  0
 14 43  1  0
 14 44  1  0
 16 45  1  0
 17 46  1  0
 18 47  1  0
 19 48  1  0
 20 49  1  0
 21 50  1  0
 22 51  1  0
 23 52  1  0
 25 53  1  0
 25 54  1  0
 31 55  1  0
 32 56  1  0
 33 57  1  0
M  CHG  3  13  -1  30  -1  35  -1
M  END
>  <UniqueID>  (26) 
22

>  <SMILES>  (26) 
COc1cc(-c2cccc(C(=O)[N-]Cc3ccccc3)c2)ccc1CC(=O)N=c1[n-]cccc1[O-]

>  <Energy>  (26) 
77.11963369647674

>  <Genealogy>  (26) 
COc1cc(-c2cccc(C(=O)[N-]Cc3ccccc3)c2)ccc1CC(=O)N=c1[n-]cccc1[O-] (protonated)
COc1cc(-c2cccc(C(=O)[N-]Cc3ccccc3)c2)ccc1CC(=O)N=c1[n-]cccc1[O-] (3D coordinates assigned)
COc1cc(-c2cccc(C(=O)[N-]Cc3ccccc3)c2)ccc1CC(=O)N=c1[n-]cccc1[O-] (optimized conformer: 77.11963369647674 kcal/mol)

>  <smiles>  (26) 
COc1cc(-c2cccc(C(=O)NCc3ccccc3)c2)ccc1CC(=O)N=c1[nH]cccc1O

>  <score_type>  (26) 
oracle

>  <origin>  (26) 
adg

>  <m_score__min__energy>  (26) 
-15.109999999999999

>  <m_primary>  (26) 
energy

$$$$
26:0
     RDKit          3D

 50 53  0  0  0  0  0  0  0  0999 V2000
   53.6265   25.0115   45.9730 H   0  0  0  0  0  0  0  0  0  0  0  0
   54.6210   24.6580   45.6630 C   0  0  0  0  0  0  0  0  0  0  0  0
   55.7230   25.0220   46.3720 N   0  0  0  0  0  0  0  0  0  0  0  0
   56.9750   24.6080   46.0220 C   0  0  0  0  0  0  0  0  0  0  0  0
   58.0240   24.9690   46.7040 N   0  0  0  0  0  0  0  0  0  0  0  0
   58.9350   26.0410   46.3960 C   0  0  0  0  0  0  0  0  0  0  0  0
   60.1820   25.8560   46.4470 O   0  0  0  0  0  0  0  0  0  0  0  0
   58.4050   27.3690   46.0070 C   0  0  0  0  0  0  0  0  0  0  0  0
   57.7770   27.5500   44.7610 C   0  0  0  0  0  0  0  0  0  0  0  0
   57.6685   26.6967   44.0753 H   0  0  0  0  0  0  0  0  0  0  0  0
   57.2900   28.8060   44.3880 C   0  0  0  0  0  0  0  0  0  0  0  0
   56.7885   28.9326   43.4172 H   0  0  0  0  0  0  0  0  0  0  0  0
   57.4380   29.9070   45.2470 C   0  0  0  0  0  0  0  0  0  0  0  0
   56.9790   31.2170   44.8790 N   0  0  0  0  0  0  0  0  0  0  0  0
   57.7830   32.2710   44.3270 C   0  0  0  0  0  0  0  0  0  0  0  0
   57.6930   32.5130   43.0950 O   0  0  0  0  0  0  0  0  0  0  0  0
   58.6720   33.1070   45.1690 C   0  0  0  0  0  0  0  0  0  0  0  0
   58.5360   34.5050   45.1700 C   0  0  0  0  0  0  0  0  0  0  0  0
   57.7556   34.9787   44.5563 H   0  0  0  0  0  0  0  0  0  0  0  0
   59.3850   35.2970   45.9450 C   0  0  0  0  0  0  0  0  0  0  0  0
   59.2654   36.3905   45.9462 H   0  0  0  0  0  0  0  0  0  0  0  0
   60.3860   34.7050   46.7190 C   0  0  0  0  0  0  0  0  0  0  0  0
   61.0598   35.3354   47.3179 H   0  0  0  0  0  0  0  0  0  0  0  0
   60.5360   33.3090   46.7360 C   0  0  0  0  0  0  0  0  0  0  0  0
   61.5800   32.6860   47.5070 N   0  0  0  0  0  0  0  0  0  0  0  0
   62.9840   33.0430   47.2830 C   0  0  0  0  0  0  0  0  0  0  0  0
   63.4001   32.4107   46.4848 H   0  0  0  0  0  0  0  0  0  0  0  0
   63.0503   34.1001   46.9861 H   0  0  0  0  0  0  0  0  0  0  0  0
   63.7790   32.8250   48.5730 C   0  0  0  0  0  0  0  0  0  0  0  0
   64.8488   32.9781   48.3678 H   0  0  0  0  0  0  0  0  0  0  0  0
   63.4282   33.5425   49.3294 H   0  0  0  0  0  0  0  0  0  0  0  0
   63.5840   31.5120   49.0670 O   0  0  0  0  0  0  0  0  0  0  0  0
   62.2320   31.3390   49.4480 C   0  0  0  0  0  0  0  0  0  0  0  0
   62.1121   30.3482   49.9104 H   0  0  0  0  0  0  0  0  0  0  0  0
   61.9640   32.1314   50.1624 H   0  0  0  0  0  0  0  0  0  0  0  0
   61.3050   31.4410   48.2340 C   0  0  0  0  0  0  0  0  0  0  0  0
   61.4780   30.5826   47.5683 H   0  0  0  0  0  0  0  0  0  0  0  0
   60.2584   31.4396   48.5727 H   0  0  0  0  0  0  0  0  0  0  0  0
   59.6560   32.5180   45.9830 C   0  0  0  0  0  0  0  0  0  0  0  0
   59.7366   31.4220   46.0298 H   0  0  0  0  0  0  0  0  0  0  0  0
   58.0310   29.7240   46.4990 C   0  0  0  0  0  0  0  0  0  0  0  0
   58.1143   30.5734   47.1930 H   0  0  0  0  0  0  0  0  0  0  0  0
   58.5190   28.4700   46.8760 C   0  0  0  0  0  0  0  0  0  0  0  0
   58.9957   28.3426   47.8591 H   0  0  0  0  0  0  0  0  0  0  0  0
   57.1400   23.7850   44.9010 C   0  0  0  0  0  0  0  0  0  0  0  0
   58.1438   23.4459   44.6054 H   0  0  0  0  0  0  0  0  0  0  0  0
   56.0200   23.3980   44.1610 C   0  0  0  0  0  0  0  0  0  0  0  0
   56.1381   22.7497   43.2803 H   0  0  0  0  0  0  0  0  0  0  0  0
   54.7510   23.8360   44.5420 C   0  0  0  0  0  0  0  0  0  0  0  0
   53.6560   23.4660   43.8330 F   0  0  0  0  0  0  0  0  0  0  0  0
  1  2  1  0
  2  3  1  0
  3  4  1  0
  4  5  2  0
  5  6  1  0
  6  7  2  0
  6  8  1  0
  8  9  2  0
  9 10  1  0
  9 11  1  0
 11 12  1  0
 11 13  2  0
 13 14  1  0
 14 15  1  0
 15 16  2  0
 15 17  1  0
 17 18  2  0
 18 19  1  0
 18 20  1  0
 20 21  1  0
 20 22  2  0
 22 23  1  0
 22 24  1  0
 24 25  1  0
 25 26  1  0
 26 27  1  0
 26 28  1  0
 26 29  1  0
 29 30  1  0
 29 31  1  0
 29 32  1  0
 32 33  1  0
 33 34  1  0
 33 35  1  0
 33 36  1  0
 36 37  1  0
 36 38  1  0
 24 39  2  0
 39 40  1  0
 13 41  1  0
 41 42  1  0
 41 43  2  0
 43 44  1  0
  4 45  1  0
 45 46  1  0
 45 47  2  0
 47 48  1  0
 47 49  1  0
 49 50  1  0
 49  2  2  0
 43  8  1  0
 39 17  1  0
 36 25  1  0
M  CHG  2   3  -1  14  -1
M  END
>  <UniqueID>  (27) 
23

>  <SMILES>  (27) 
O=C(/N=c1/ccc(F)c[n-]1)c1ccc([N-]C(=O)c2cccc(N3CCOCC3)c2)cc1

>  <Energy>  (27) 
68.85898243705034

>  <Genealogy>  (27) 
O=C(N=c1ccc(F)c[n-]1)c1ccc([N-]C(=O)c2cccc(N3CCOCC3)c2)cc1 (protonated)
O=C(/N=c1/ccc(F)c[n-]1)c1ccc([N-]C(=O)c2cccc(N3CCOCC3)c2)cc1 (cis-trans isomerization)
O=C(/N=c1/ccc(F)c[n-]1)c1ccc([N-]C(=O)c2cccc(N3CCOCC3)c2)cc1 (3D coordinates assigned)
O=C(/N=c1/ccc(F)c[n-]1)c1ccc([N-]C(=O)c2cccc(N3CCOCC3)c2)cc1 (nonaromatic ring conformer: 68.85898243705034 kcal/mol)

>  <smiles>  (27) 
O=C(N=c1ccc(F)c[nH]1)c1ccc(NC(=O)c2cccc(N3CCOCC3)c2)cc1

>  <score_type>  (27) 
oracle

>  <origin>  (27) 
adg

>  <m_score__min__energy>  (27) 
-11.68

>  <m_primary>  (27) 
energy

$$$$
27:0
     RDKit          3D

 62 65  0  0  0  0  0  0  0  0999 V2000
   57.7630   30.4390   51.5140 C   0  0  0  0  0  0  0  0  0  0  0  0
   59.1260   31.0470   51.3480 C   0  0  0  0  0  0  0  0  0  0  0  0
   60.2270   30.4380   50.7680 C   0  0  0  0  0  0  0  0  0  0  0  0
   60.3220   29.0120   50.2960 C   0  0  0  0  0  0  0  0  0  0  0  0
   59.9220   28.9250   48.8960 N   0  0  0  0  0  0  0  0  0  0  0  0
   60.6830   29.2470   47.8310 C   0  0  0  0  0  0  0  0  0  0  0  0
   59.9680   28.9740   46.6860 C   0  0  0  0  0  0  0  0  0  0  0  0
   58.7640   28.4700   47.1460 C   0  0  0  0  0  0  0  0  0  0  0  0
   57.6040   28.0480   46.2940 C   0  0  0  0  0  0  0  0  0  0  0  0
   57.5190   26.5230   46.1660 C   0  0  0  0  0  0  0  0  0  0  0  0
   56.1170   26.0230   46.3450 C   0  0  0  0  0  0  0  0  0  0  0  0
   55.1400   26.7300   45.9830 O   0  0  0  0  0  0  0  0  0  0  0  0
   55.8900   24.7840   46.9310 O   0  0  0  0  0  0  0  0  0  0  0  0
   58.7540   28.4530   48.4930 N   0  0  0  0  0  0  0  0  0  0  0  0
   61.2710   31.3340   50.9880 C   0  0  0  0  0  0  0  0  0  0  0  0
   62.6920   31.1570   50.6430 C   0  0  0  0  0  0  0  0  0  0  0  0
   63.5250   30.9730   51.5680 O   0  0  0  0  0  0  0  0  0  0  0  0
   63.1560   31.1760   49.2880 N   0  0  0  0  0  0  0  0  0  0  0  0
   62.8490   32.1800   48.3100 C   0  0  0  0  0  0  0  0  0  0  0  0
   63.7890   32.5800   47.3440 C   0  0  0  0  0  0  0  0  0  0  0  0
   63.4530   33.5540   46.3990 C   0  0  0  0  0  0  0  0  0  0  0  0
   62.1800   34.1280   46.4070 C   0  0  0  0  0  0  0  0  0  0  0  0
   61.2320   33.7280   47.3560 C   0  0  0  0  0  0  0  0  0  0  0  0
   59.6260   34.4500   47.3390 S   0  0  0  0  0  0  0  0  0  0  0  0
   59.6300   35.6080   46.3800 O   0  0  0  0  0  0  0  0  0  0  0  0
   59.2710   34.9600   48.7090 O   0  0  0  0  0  0  0  0  0  0  0  0
   58.4600   33.2550   46.8280 N   0  0  0  0  0  0  0  0  0  0  0  0
   59.1540   32.1220   46.1920 C   0  0  0  0  0  0  0  0  0  0  0  0
   58.1680   31.2820   45.3610 C   0  0  0  0  0  0  0  0  0  0  0  0
   57.4750   32.0030   44.3470 O   0  0  0  0  0  0  0  0  0  0  0  0
   57.5490   33.4120   44.4970 C   0  0  0  0  0  0  0  0  0  0  0  0
   57.4190   33.8590   45.9630 C   0  0  0  0  0  0  0  0  0  0  0  0
   61.5670   32.7430   48.2970 C   0  0  0  0  0  0  0  0  0  0  0  0
   60.8130   32.4020   51.6680 N   0  0  0  0  0  0  0  0  0  0  0  0
   59.5180   32.2260   51.8770 N   0  0  0  0  0  0  0  0  0  0  0  0
   58.6920   33.1730   52.6180 C   0  0  0  0  0  0  0  0  0  0  0  0
   57.5349   30.3372   52.5853 H   0  0  0  0  0  0  0  0  0  0  0  0
   57.0120   31.0874   51.0392 H   0  0  0  0  0  0  0  0  0  0  0  0
   57.7437   29.4470   51.0392 H   0  0  0  0  0  0  0  0  0  0  0  0
   61.3592   28.6612   50.4015 H   0  0  0  0  0  0  0  0  0  0  0  0
   59.6536   28.3841   50.9034 H   0  0  0  0  0  0  0  0  0  0  0  0
   61.7025   29.6582   47.8699 H   0  0  0  0  0  0  0  0  0  0  0  0
   60.2826   29.1228   45.6425 H   0  0  0  0  0  0  0  0  0  0  0  0
   56.6740   28.4198   46.7487 H   0  0  0  0  0  0  0  0  0  0  0  0
   57.7469   28.4689   45.2878 H   0  0  0  0  0  0  0  0  0  0  0  0
   57.8762   26.2297   45.1678 H   0  0  0  0  0  0  0  0  0  0  0  0
   58.1420   26.0798   46.9569 H   0  0  0  0  0  0  0  0  0  0  0  0
   64.7907   32.1257   47.3317 H   0  0  0  0  0  0  0  0  0  0  0  0
   64.1926   33.8687   45.6480 H   0  0  0  0  0  0  0  0  0  0  0  0
   61.9212   34.8974   45.6647 H   0  0  0  0  0  0  0  0  0  0  0  0
   59.9462   32.5069   45.5330 H   0  0  0  0  0  0  0  0  0  0  0  0
   59.5887   31.4858   46.9771 H   0  0  0  0  0  0  0  0  0  0  0  0
   58.7323   30.4703   44.8786 H   0  0  0  0  0  0  0  0  0  0  0  0
   57.4015   30.9210   46.0626 H   0  0  0  0  0  0  0  0  0  0  0  0
   58.5184   33.7571   44.1082 H   0  0  0  0  0  0  0  0  0  0  0  0
   56.7084   33.8508   43.9394 H   0  0  0  0  0  0  0  0  0  0  0  0
   57.5122   34.9541   46.0088 H   0  0  0  0  0  0  0  0  0  0  0  0
   56.4382   33.5244   46.3319 H   0  0  0  0  0  0  0  0  0  0  0  0
   60.8172   32.4105   49.0299 H   0  0  0  0  0  0  0  0  0  0  0  0
   58.8307   33.0140   53.6976 H   0  0  0  0  0  0  0  0  0  0  0  0
   58.9881   34.1999   52.3576 H   0  0  0  0  0  0  0  0  0  0  0  0
   57.6344   33.0191   52.3576 H   0  0  0  0  0  0  0  0  0  0  0  0
  1  2  1  0
  2  3  2  0
  3  4  1  0
  4  5  1  0
  5  6  1  0
  6  7  2  0
  7  8  1  0
  8  9  1  0
  9 10  1  0
 10 11  1  0
 11 12  2  0
 11 13  1  0
  8 14  2  0
  3 15  1  0
 15 16  1  0
 16 17  2  0
 16 18  1  0
 18 19  1  0
 19 20  2  0
 20 21  1  0
 21 22  2  0
 22 23  1  0
 23 24  1  0
 24 25  2  0
 24 26  2  0
 24 27  1  0
 27 28  1  0
 28 29  1  0
 29 30  1  0
 30 31  1  0
 31 32  1  0
 23 33  2  0
 15 34  2  0
 34 35  1  0
 35 36  1  0
 35  2  1  0
 14  5  1  0
 33 19  1  0
 32 27  1  0
  1 37  1  0
  1 38  1  0
  1 39  1  0
  4 40  1  0
  4 41  1  0
  6 42  1  0
  7 43  1  0
  9 44  1  0
  9 45  1  0
 10 46  1  0
 10 47  1  0
 20 48  1  0
 21 49  1  0
 22 50  1  0
 28 51  1  0
 28 52  1  0
 29 53  1  0
 29 54  1  0
 31 55  1  0
 31 56  1  0
 32 57  1  0
 32 58  1  0
 33 59  1  0
 36 60  1  0
 36 61  1  0
 36 62  1  0
M  CHG  2  13  -1  18  -1
M  END
>  <UniqueID>  (28) 
24

>  <SMILES>  (28) 
Cc1c(Cn2ccc(CCC(=O)[O-])n2)c(C(=O)[N-]c2cccc(S(=O)(=O)N3CCOCC3)c2)nn1C

>  <Energy>  (28) 
136.0218762173964

>  <Genealogy>  (28) 
Cc1c(Cn2ccc(CCC(=O)[O-])n2)c(C(=O)[N-]c2cccc(S(=O)(=O)N3CCOCC3)c2)nn1C (protonated)
Cc1c(Cn2ccc(CCC(=O)[O-])n2)c(C(=O)[N-]c2cccc(S(=O)(=O)N3CCOCC3)c2)nn1C (3D coordinates assigned)
Cc1c(Cn2ccc(CCC(=O)[O-])n2)c(C(=O)[N-]c2cccc(S(=O)(=O)N3CCOCC3)c2)nn1C (nonaromatic ring conformer: 136.0218762173964 kcal/mol)

>  <smiles>  (28) 
Cc1c(Cn2ccc(CCC(=O)O)n2)c(C(=O)Nc2cccc(S(=O)(=O)N3CCOCC3)c2)nn1C

>  <score_type>  (28) 
oracle

>  <origin>  (28) 
adg

>  <m_score__min__energy>  (28) 
-15.449999999999999

>  <m_primary>  (28) 
energy

$$$$
28:0
     RDKit          3D

 49 52  0  0  0  0  0  0  0  0999 V2000
   57.5080   31.9750   41.4980 O   0  0  0  0  0  0  0  0  0  0  0  0
   57.6700   31.9290   42.7450 C   0  0  0  0  0  0  0  0  0  0  0  0
   58.1560   30.8540   43.3920 N   0  0  0  0  0  0  0  0  0  0  0  0
   58.1570   31.2210   44.6870 C   0  0  0  0  0  0  0  0  0  0  0  0
   58.6560   30.3720   45.7890 C   0  0  0  0  0  0  0  0  0  0  0  0
   59.8380   30.7060   46.4680 C   0  0  0  0  0  0  0  0  0  0  0  0
   60.3190   29.8870   47.4940 C   0  0  0  0  0  0  0  0  0  0  0  0
   59.6180   28.7350   47.8570 C   0  0  0  0  0  0  0  0  0  0  0  0
   60.0860   27.9410   48.8510 F   0  0  0  0  0  0  0  0  0  0  0  0
   58.4310   28.4040   47.1990 C   0  0  0  0  0  0  0  0  0  0  0  0
   57.9450   29.2200   46.1710 C   0  0  0  0  0  0  0  0  0  0  0  0
   56.8020   28.8660   45.5280 F   0  0  0  0  0  0  0  0  0  0  0  0
   57.6820   32.5260   44.7670 C   0  0  0  0  0  0  0  0  0  0  0  0
   57.5670   33.3940   45.9860 C   0  0  0  0  0  0  0  0  0  0  0  0
   58.5330   34.5950   45.8950 C   0  0  0  0  0  0  0  0  0  0  0  0
   59.7490   34.4620   46.7270 N   0  0  0  0  0  0  0  0  0  0  0  0
   59.4800   33.9220   48.0720 C   0  0  0  0  0  0  0  0  0  0  0  0
   60.7310   34.0600   48.9410 C   0  0  0  0  0  0  0  0  0  0  0  0
   61.8840   33.4630   48.2550 N   0  0  0  0  0  0  0  0  0  0  0  0
   62.9210   32.8220   49.0230 C   0  0  0  0  0  0  0  0  0  0  0  0
   62.6200   31.7070   49.8220 C   0  0  0  0  0  0  0  0  0  0  0  0
   63.6250   31.0780   50.5650 C   0  0  0  0  0  0  0  0  0  0  0  0
   64.9370   31.5560   50.5140 C   0  0  0  0  0  0  0  0  0  0  0  0
   65.2470   32.6620   49.7170 C   0  0  0  0  0  0  0  0  0  0  0  0
   64.2460   33.2920   48.9730 C   0  0  0  0  0  0  0  0  0  0  0  0
   62.1220   33.8360   46.8550 C   0  0  0  0  0  0  0  0  0  0  0  0
   60.8250   33.7090   46.0540 C   0  0  0  0  0  0  0  0  0  0  0  0
   57.3890   32.9280   43.5510 O   0  0  0  0  0  0  0  0  0  0  0  0
   58.4560   29.9420   42.9820 H   0  0  0  0  0  0  0  0  0  0  0  0
   60.3890   31.6170   46.1915 H   0  0  0  0  0  0  0  0  0  0  0  0
   61.2508   30.1504   48.0160 H   0  0  0  0  0  0  0  0  0  0  0  0
   57.8767   27.4994   47.4897 H   0  0  0  0  0  0  0  0  0  0  0  0
   56.5351   33.7662   46.0680 H   0  0  0  0  0  0  0  0  0  0  0  0
   57.8291   32.7962   46.8714 H   0  0  0  0  0  0  0  0  0  0  0  0
   58.8439   34.7084   44.8460 H   0  0  0  0  0  0  0  0  0  0  0  0
   57.9851   35.4698   46.2752 H   0  0  0  0  0  0  0  0  0  0  0  0
   58.6516   34.4809   48.5318 H   0  0  0  0  0  0  0  0  0  0  0  0
   59.2075   32.8594   47.9908 H   0  0  0  0  0  0  0  0  0  0  0  0
   60.9295   35.1256   49.1281 H   0  0  0  0  0  0  0  0  0  0  0  0
   60.5680   33.5390   49.8960 H   0  0  0  0  0  0  0  0  0  0  0  0
   61.5889   31.3262   49.8639 H   0  0  0  0  0  0  0  0  0  0  0  0
   63.3819   30.2061   51.1901 H   0  0  0  0  0  0  0  0  0  0  0  0
   65.7257   31.0623   51.1007 H   0  0  0  0  0  0  0  0  0  0  0  0
   66.2804   33.0368   49.6756 H   0  0  0  0  0  0  0  0  0  0  0  0
   64.4953   34.1600   48.3449 H   0  0  0  0  0  0  0  0  0  0  0  0
   62.4779   34.8759   46.8102 H   0  0  0  0  0  0  0  0  0  0  0  0
   62.8799   33.1644   46.4254 H   0  0  0  0  0  0  0  0  0  0  0  0
   60.9783   34.1149   45.0432 H   0  0  0  0  0  0  0  0  0  0  0  0
   60.5406   32.6485   45.9870 H   0  0  0  0  0  0  0  0  0  0  0  0
  1  2  2  0
  2  3  1  0
  3  4  1  0
  4  5  1  0
  5  6  2  0
  6  7  1  0
  7  8  2  0
  8  9  1  0
  8 10  1  0
 10 11  2  0
 11 12  1  0
  4 13  2  0
 13 14  1  0
 14 15  1  0
 15 16  1  0
 16 17  1  0
 17 18  1  0
 18 19  1  0
 19 20  1  0
 20 21  2  0
 21 22  1  0
 22 23  2  0
 23 24  1  0
 24 25  2  0
 19 26  1  0
 26 27  1  0
 13 28  1  0
 28  2  1  0
 11  5  1  0
 27 16  1  0
 25 20  1  0
  3 29  1  0
  6 30  1  0
  7 31  1  0
 10 32  1  0
 14 33  1  0
 14 34  1  0
 15 35  1  0
 15 36  1  0
 17 37  1  0
 17 38  1  0
 18 39  1  0
 18 40  1  0
 21 41  1  0
 22 42  1  0
 23 43  1  0
 24 44  1  0
 25 45  1  0
 26 46  1  0
 26 47  1  0
 27 48  1  0
 27 49  1  0
M  END
>  <UniqueID>  (29) 
25

>  <SMILES>  (29) 
O=c1[nH]c(-c2ccc(F)cc2F)c(CCN2CCN(c3ccccc3)CC2)o1

>  <Energy>  (29) 
94.00573739720086

>  <Genealogy>  (29) 
O=c1[nH]c(-c2ccc(F)cc2F)c(CCN2CCN(c3ccccc3)CC2)o1 (3D coordinates assigned)
O=c1[nH]c(-c2ccc(F)cc2F)c(CCN2CCN(c3ccccc3)CC2)o1 (nonaromatic ring conformer: 94.00573739720086 kcal/mol)

>  <smiles>  (29) 
O=c1[nH]c(-c2ccc(F)cc2F)c(CCN2CCN(c3ccccc3)CC2)o1

>  <score_type>  (29) 
oracle

>  <origin>  (29) 
adg

>  <m_score__min__energy>  (29) 
-7.9400000000000004

>  <m_primary>  (29) 
energy

$$$$
29:0
     RDKit          3D

 57 60  0  0  0  0  0  0  0  0999 V2000
   66.6380   34.2250   51.5840 C   0  0  0  0  0  0  0  0  0  0  0  0
   66.2340   33.7230   50.3140 O   0  0  0  0  0  0  0  0  0  0  0  0
   65.0760   32.9640   50.0890 C   0  0  0  0  0  0  0  0  0  0  0  0
   64.0160   33.4380   49.2920 C   0  0  0  0  0  0  0  0  0  0  0  0
   62.8710   32.6560   49.0900 C   0  0  0  0  0  0  0  0  0  0  0  0
   61.8520   33.1170   48.3180 N   0  0  0  0  0  0  0  0  0  0  0  0
   60.7260   32.3800   48.1100 C   0  0  0  0  0  0  0  0  0  0  0  0
   59.7090   32.9070   47.2450 N   0  0  0  0  0  0  0  0  0  0  0  0
   60.1150   33.5310   45.9820 C   0  0  0  0  0  0  0  0  0  0  0  0
   59.0120   33.4210   44.9020 C   0  0  0  0  0  0  0  0  0  0  0  0
   57.6850   33.0880   45.4470 N   0  0  0  0  0  0  0  0  0  0  0  0
   57.4510   33.7490   46.7320 C   0  0  0  0  0  0  0  0  0  0  0  0
   58.3620   33.1210   47.7850 C   0  0  0  0  0  0  0  0  0  0  0  0
   60.5910   31.1400   48.6910 N   0  0  0  0  0  0  0  0  0  0  0  0
   59.3500   30.3510   48.5240 C   0  0  0  0  0  0  0  0  0  0  0  0
   59.1990   29.8480   47.1070 C   0  0  0  0  0  0  0  0  0  0  0  0
   60.1760   29.0200   46.5250 C   0  0  0  0  0  0  0  0  0  0  0  0
   60.0100   28.5400   45.2240 C   0  0  0  0  0  0  0  0  0  0  0  0
   58.8640   28.8650   44.4970 C   0  0  0  0  0  0  0  0  0  0  0  0
   57.8700   29.6670   45.0720 C   0  0  0  0  0  0  0  0  0  0  0  0
   56.4280   30.0860   44.1540 S   0  0  0  0  0  0  0  0  0  0  0  0
   55.1640   28.9700   44.5300 N   0  0  0  0  0  0  0  0  0  0  0  0
   56.7290   30.0300   42.6820 O   0  0  0  0  0  0  0  0  0  0  0  0
   55.9870   31.4800   44.5030 O   0  0  0  0  0  0  0  0  0  0  0  0
   58.0420   30.1570   46.3750 C   0  0  0  0  0  0  0  0  0  0  0  0
   61.6100   30.6340   49.4610 C   0  0  0  0  0  0  0  0  0  0  0  0
   61.5000   29.4860   49.9790 O   0  0  0  0  0  0  0  0  0  0  0  0
   62.7750   31.3880   49.6830 C   0  0  0  0  0  0  0  0  0  0  0  0
   63.8320   30.9110   50.4770 C   0  0  0  0  0  0  0  0  0  0  0  0
   64.9830   31.6980   50.6840 C   0  0  0  0  0  0  0  0  0  0  0  0
   66.0560   31.2560   51.4760 O   0  0  0  0  0  0  0  0  0  0  0  0
   67.0930   30.3910   51.0230 C   0  0  0  0  0  0  0  0  0  0  0  0
   66.1622   33.6337   52.3802 H   0  0  0  0  0  0  0  0  0  0  0  0
   67.7316   34.1514   51.6764 H   0  0  0  0  0  0  0  0  0  0  0  0
   66.3322   35.2776   51.6764 H   0  0  0  0  0  0  0  0  0  0  0  0
   64.0876   34.4309   48.8240 H   0  0  0  0  0  0  0  0  0  0  0  0
   61.9300   34.0540   47.8590 H   0  0  0  0  0  0  0  0  0  0  0  0
   60.3296   34.5944   46.1638 H   0  0  0  0  0  0  0  0  0  0  0  0
   61.0068   33.0034   45.6128 H   0  0  0  0  0  0  0  0  0  0  0  0
   58.9408   34.3856   44.3780 H   0  0  0  0  0  0  0  0  0  0  0  0
   59.2999   32.5999   44.2290 H   0  0  0  0  0  0  0  0  0  0  0  0
   56.9620   33.4260   44.7700 H   0  0  0  0  0  0  0  0  0  0  0  0
   57.6761   34.8219   46.6416 H   0  0  0  0  0  0  0  0  0  0  0  0
   56.3989   33.6256   47.0283 H   0  0  0  0  0  0  0  0  0  0  0  0
   58.4241   33.7915   48.6548 H   0  0  0  0  0  0  0  0  0  0  0  0
   57.9416   32.1487   48.0815 H   0  0  0  0  0  0  0  0  0  0  0  0
   59.3795   29.4897   49.2076 H   0  0  0  0  0  0  0  0  0  0  0  0
   58.4937   31.0029   48.7515 H   0  0  0  0  0  0  0  0  0  0  0  0
   61.0754   28.7492   47.0975 H   0  0  0  0  0  0  0  0  0  0  0  0
   60.7848   27.9040   44.7711 H   0  0  0  0  0  0  0  0  0  0  0  0
   58.7410   28.4905   43.4701 H   0  0  0  0  0  0  0  0  0  0  0  0
   54.6510   29.3570   45.3530 H   0  0  0  0  0  0  0  0  0  0  0  0
   57.2633   30.7889   46.8271 H   0  0  0  0  0  0  0  0  0  0  0  0
   63.7606   29.9160   50.9404 H   0  0  0  0  0  0  0  0  0  0  0  0
   67.6132   29.9571   51.8896 H   0  0  0  0  0  0  0  0  0  0  0  0
   66.6580   29.5843   50.4148 H   0  0  0  0  0  0  0  0  0  0  0  0
   67.8086   30.9637   50.4148 H   0  0  0  0  0  0  0  0  0  0  0  0
  1  2  1  0
  2  3  1  0
  3  4  2  0
  4  5  1  0
  5  6  1  0
  6  7  2  0
  7  8  1  0
  8  9  1  0
  9 10  1  0
 10 11  1  0
 11 12  1  0
 12 13  1  0
  7 14  1  0
 14 15  1  0
 15 16  1  0
 16 17  2  0
 17 18  1  0
 18 19  2  0
 19 20  1  0
 20 21  1  0
 21 22  1  0
 21 23  2  0
 21 24  2  0
 20 25  2  0
 14 26  1  0
 26 27  2  0
 26 28  1  0
 28 29  1  0
 29 30  2  0
 30 31  1  0
 31 32  1  0
 30  3  1  0
 28  5  2  0
 13  8  1  0
 25 16  1  0
  1 33  1  0
  1 34  1  0
  1 35  1  0
  4 36  1  0
  6 37  1  0
  9 38  1  0
  9 39  1  0
 10 40  1  0
 10 41  1  0
 11 42  1  0
 12 43  1  0
 12 44  1  0
 13 45  1  0
 13 46  1  0
 15 47  1  0
 15 48  1  0
 17 49  1  0
 18 50  1  0
 19 51  1  0
 22 52  1  0
 25 53  1  0
 29 54  1  0
 32 55  1  0
 32 56  1  0
 32 57  1  0
M  CHG  2   6   1  22  -1
M  END
>  <UniqueID>  (30) 
26

>  <SMILES>  (30) 
COc1cc2[nH+]c(N3CCNCC3)n(Cc3cccc(S([NH-])(=O)=O)c3)c(=O)c2cc1OC

>  <Energy>  (30) 
75.19795394934044

>  <Genealogy>  (30) 
COc1cc2[nH+]c(N3CCNCC3)n(Cc3cccc(S([NH-])(=O)=O)c3)c(=O)c2cc1OC (protonated)
COc1cc2[nH+]c(N3CCNCC3)n(Cc3cccc(S([NH-])(=O)=O)c3)c(=O)c2cc1OC (3D coordinates assigned)
COc1cc2[nH+]c(N3CCNCC3)n(Cc3cccc(S([NH-])(=O)=O)c3)c(=O)c2cc1OC (nonaromatic ring conformer: 75.19795394934044 kcal/mol)

>  <smiles>  (30) 
COc1cc2nc(N3CCNCC3)n(Cc3cccc(S(N)(=O)=O)c3)c(=O)c2cc1OC

>  <score_type>  (30) 
oracle

>  <origin>  (30) 
adg

>  <m_score__min__energy>  (30) 
-9.8300000000000001

>  <m_primary>  (30) 
energy

$$$$
30:0
     RDKit          3D

 51 54  0  0  0  0  0  0  0  0999 V2000
   63.9160   34.3220   51.1290 C   0  0  0  0  0  0  0  0  0  0  0  0
   62.9170   33.9990   50.0590 C   0  0  0  0  0  0  0  0  0  0  0  0
   63.3420   33.7980   48.7360 C   0  0  0  0  0  0  0  0  0  0  0  0
   62.4190   33.4520   47.7430 C   0  0  0  0  0  0  0  0  0  0  0  0
   61.0660   33.2900   48.0670 C   0  0  0  0  0  0  0  0  0  0  0  0
   60.1160   32.9260   47.0460 N   0  0  0  0  0  0  0  0  0  0  0  0
   59.9450   31.6100   46.6860 C   0  0  0  0  0  0  0  0  0  0  0  0
   60.7330   30.5030   47.3450 C   0  0  0  0  0  0  0  0  0  0  0  0
   58.9940   31.2820   45.7090 C   0  0  0  0  0  0  0  0  0  0  0  0
   58.2530   32.2570   45.1060 N   0  0  0  0  0  0  0  0  0  0  0  0
   57.2940   31.8730   44.0560 C   0  0  0  0  0  0  0  0  0  0  0  0
   56.9420   30.4200   44.1850 C   0  0  0  0  0  0  0  0  0  0  0  0
   55.7870   30.1030   44.5890 O   0  0  0  0  0  0  0  0  0  0  0  0
   57.8980   29.4110   43.8110 N   0  0  0  0  0  0  0  0  0  0  0  0
   57.7140   27.9990   44.0280 C   0  0  0  0  0  0  0  0  0  0  0  0
   57.9640   27.0570   43.0100 C   0  0  0  0  0  0  0  0  0  0  0  0
   57.7700   25.6920   43.2460 C   0  0  0  0  0  0  0  0  0  0  0  0
   57.3070   25.2570   44.4920 C   0  0  0  0  0  0  0  0  0  0  0  0
   56.9970   26.1910   45.4900 C   0  0  0  0  0  0  0  0  0  0  0  0
   57.2090   27.5550   45.2640 C   0  0  0  0  0  0  0  0  0  0  0  0
   56.4710   25.7380   46.7070 O   0  0  0  0  0  0  0  0  0  0  0  0
   55.9960   24.3950   46.8500 C   0  0  0  0  0  0  0  0  0  0  0  0
   56.9170   23.4270   46.0950 C   0  0  0  0  0  0  0  0  0  0  0  0
   57.1400   23.8950   44.7590 O   0  0  0  0  0  0  0  0  0  0  0  0
   58.4490   33.5700   45.4430 C   0  0  0  0  0  0  0  0  0  0  0  0
   57.7930   34.4840   44.8710 O   0  0  0  0  0  0  0  0  0  0  0  0
   59.3860   33.9080   46.4300 C   0  0  0  0  0  0  0  0  0  0  0  0
   59.5460   35.1200   46.7500 O   0  0  0  0  0  0  0  0  0  0  0  0
   60.6420   33.4720   49.3920 C   0  0  0  0  0  0  0  0  0  0  0  0
   61.5640   33.8190   50.3850 C   0  0  0  0  0  0  0  0  0  0  0  0
   63.4560   34.1733   52.1171 H   0  0  0  0  0  0  0  0  0  0  0  0
   64.7888   33.6603   51.0275 H   0  0  0  0  0  0  0  0  0  0  0  0
   64.2362   35.3695   51.0275 H   0  0  0  0  0  0  0  0  0  0  0  0
   64.4054   33.9131   48.4790 H   0  0  0  0  0  0  0  0  0  0  0  0
   62.7565   33.3070   46.7061 H   0  0  0  0  0  0  0  0  0  0  0  0
   60.6619   30.6029   48.4381 H   0  0  0  0  0  0  0  0  0  0  0  0
   60.3238   29.5290   47.0384 H   0  0  0  0  0  0  0  0  0  0  0  0
   61.7872   30.5707   47.0384 H   0  0  0  0  0  0  0  0  0  0  0  0
   58.8438   30.2297   45.4260 H   0  0  0  0  0  0  0  0  0  0  0  0
   56.3815   32.4788   44.1576 H   0  0  0  0  0  0  0  0  0  0  0  0
   57.7508   32.0465   43.0705 H   0  0  0  0  0  0  0  0  0  0  0  0
   58.7240   29.7120   43.2470 H   0  0  0  0  0  0  0  0  0  0  0  0
   58.3137   27.3972   42.0241 H   0  0  0  0  0  0  0  0  0  0  0  0
   57.9815   24.9609   42.4518 H   0  0  0  0  0  0  0  0  0  0  0  0
   56.9800   28.2835   46.0557 H   0  0  0  0  0  0  0  0  0  0  0  0
   55.9811   24.1259   47.9165 H   0  0  0  0  0  0  0  0  0  0  0  0
   54.9807   24.3257   46.4324 H   0  0  0  0  0  0  0  0  0  0  0  0
   57.8805   23.3577   46.6211 H   0  0  0  0  0  0  0  0  0  0  0  0
   56.4394   22.4370   46.0530 H   0  0  0  0  0  0  0  0  0  0  0  0
   59.5809   33.3414   49.6508 H   0  0  0  0  0  0  0  0  0  0  0  0
   61.2277   33.9511   51.4240 H   0  0  0  0  0  0  0  0  0  0  0  0
  1  2  1  0
  2  3  2  0
  3  4  1  0
  4  5  2  0
  5  6  1  0
  6  7  1  0
  7  8  1  0
  7  9  2  0
  9 10  1  0
 10 11  1  0
 11 12  1  0
 12 13  2  0
 12 14  1  0
 14 15  1  0
 15 16  2  0
 16 17  1  0
 17 18  2  0
 18 19  1  0
 19 20  2  0
 19 21  1  0
 21 22  1  0
 22 23  1  0
 23 24  1  0
 10 25  1  0
 25 26  2  0
 25 27  1  0
 27 28  2  0
  5 29  1  0
 29 30  2  0
 30  2  1  0
 27  6  1  0
 20 15  1  0
 24 18  1  0
  1 31  1  0
  1 32  1  0
  1 33  1  0
  3 34  1  0
  4 35  1  0
  8 36  1  0
  8 37  1  0
  8 38  1  0
  9 39  1  0
 11 40  1  0
 11 41  1  0
 14 42  1  0
 16 43  1  0
 17 44  1  0
 20 45  1  0
 22 46  1  0
 22 47  1  0
 23 48  1  0
 23 49  1  0
 29 50  1  0
 30 51  1  0
M  END
>  <UniqueID>  (31) 
27

>  <SMILES>  (31) 
Cc1ccc(-n2c(C)cn(CC(=O)Nc3ccc4c(c3)OCCO4)c(=O)c2=O)cc1

>  <Energy>  (31) 
70.75672649904014

>  <Genealogy>  (31) 
Cc1ccc(-n2c(C)cn(CC(=O)Nc3ccc4c(c3)OCCO4)c(=O)c2=O)cc1 (3D coordinates assigned)
Cc1ccc(-n2c(C)cn(CC(=O)Nc3ccc4c(c3)OCCO4)c(=O)c2=O)cc1 (nonaromatic ring conformer: 70.75672649904014 kcal/mol)

>  <smiles>  (31) 
Cc1ccc(-n2c(C)cn(CC(=O)Nc3ccc4c(c3)OCCO4)c(=O)c2=O)cc1

>  <score_type>  (31) 
oracle

>  <origin>  (31) 
adg

>  <m_score__min__energy>  (31) 
-8.9000000000000004

>  <m_primary>  (31) 
energy

$$$$
31:0
     RDKit          3D

 57 61  0  0  1  0  0  0  0  0999 V2000
   53.6800   24.8590   45.6160 C   0  0  0  0  0  0  0  0  0  0  0  0
   54.6380   25.8620   45.8720 O   0  0  0  0  0  0  0  0  0  0  0  0
   55.9640   25.4580   46.0490 C   0  0  0  0  0  0  0  0  0  0  0  0
   56.2820   24.1840   46.5240 C   0  0  0  0  0  0  0  0  0  0  0  0
   57.5750   23.7610   46.7070 C   0  0  0  0  0  0  0  0  0  0  0  0
   58.5830   24.6580   46.4000 C   0  0  0  0  0  0  0  0  0  0  0  0
   58.2700   25.9110   45.9340 C   0  0  0  0  0  0  0  0  0  0  0  0
   59.3170   26.7580   45.6470 C   0  0  0  0  0  0  0  0  0  0  0  0
   59.0010   28.0320   45.1740 C   0  0  0  0  0  0  0  0  0  0  0  0
   57.7080   28.4500   44.9910 C   0  0  0  0  0  0  0  0  0  0  0  0
   57.4680   29.7670   44.5050 N   0  0  0  0  0  0  0  0  0  0  0  0
   56.2320   30.4550   44.1960 C   0  0  0  0  0  0  0  0  0  0  0  0
   57.0310   31.7170   43.9800 C   0  0  0  0  0  0  0  0  0  0  0  0
   56.8110   32.7740   44.8680 O   0  0  0  0  0  0  0  0  0  0  0  0
   57.7730   33.3400   45.6820 C   0  0  0  0  0  0  0  0  0  0  0  0
   57.8290   33.0190   47.0450 C   0  0  0  0  0  0  0  0  0  0  0  0
   58.8030   33.6070   47.8090 C   0  0  0  0  0  0  0  0  0  0  0  0
   58.9590   33.3960   49.0730 N   0  0  0  0  0  0  0  0  0  0  0  0
   59.7600   32.2850   49.4900 C   0  0  2  0  0  0  0  0  0  0  0  0
   59.5010   32.1450   51.0000 C   0  0  0  0  0  0  0  0  0  0  0  0
   61.2310   32.5790   49.3800 C   0  0  0  0  0  0  0  0  0  0  0  0
   62.0640   31.4780   49.4910 C   0  0  0  0  0  0  0  0  0  0  0  0
   63.4320   31.6460   49.4030 C   0  0  0  0  0  0  0  0  0  0  0  0
   63.9090   32.9090   49.2080 C   0  0  0  0  0  0  0  0  0  0  0  0
   65.2860   33.0770   49.1190 O   0  0  0  0  0  0  0  0  0  0  0  0
   63.0380   33.9850   49.1030 C   0  0  0  0  0  0  0  0  0  0  0  0
   61.6930   33.8290   49.1890 N   0  0  0  0  0  0  0  0  0  0  0  0
   59.6910   34.4810   47.2510 N   0  0  0  0  0  0  0  0  0  0  0  0
   59.6400   34.7900   45.9410 C   0  0  0  0  0  0  0  0  0  0  0  0
   58.6810   34.2160   45.1670 N   0  0  0  0  0  0  0  0  0  0  0  0
   58.2810   30.9230   44.1260 C   0  0  0  0  0  0  0  0  0  0  0  0
   56.7220   27.5860   45.2860 N   0  0  0  0  0  0  0  0  0  0  0  0
   56.9740   26.3530   45.7440 C   0  0  0  0  0  0  0  0  0  0  0  0
   53.3009   24.4621   46.5693 H   0  0  0  0  0  0  0  0  0  0  0  0
   52.8465   25.2867   45.0395 H   0  0  0  0  0  0  0  0  0  0  0  0
   54.1454   24.0460   45.0395 H   0  0  0  0  0  0  0  0  0  0  0  0
   55.4620   23.4903   46.7615 H   0  0  0  0  0  0  0  0  0  0  0  0
   57.8003   22.7517   47.0818 H   0  0  0  0  0  0  0  0  0  0  0  0
   59.6359   24.3669   46.5294 H   0  0  0  0  0  0  0  0  0  0  0  0
   60.3617   26.4426   45.7852 H   0  0  0  0  0  0  0  0  0  0  0  0
   59.8202   28.7274   44.9390 H   0  0  0  0  0  0  0  0  0  0  0  0
   55.7175   30.0835   43.2975 H   0  0  0  0  0  0  0  0  0  0  0  0
   55.3797   30.4333   44.8911 H   0  0  0  0  0  0  0  0  0  0  0  0
   56.8750   32.3415   43.0880 H   0  0  0  0  0  0  0  0  0  0  0  0
   57.1108   32.3143   47.4895 H   0  0  0  0  0  0  0  0  0  0  0  0
   59.5107   31.4077   48.8751 H   0  0  0  0  0  0  0  0  0  0  0  0
   60.3347   32.5957   51.5584 H   0  0  0  0  0  0  0  0  0  0  0  0
   58.5644   32.6597   51.2607 H   0  0  0  0  0  0  0  0  0  0  0  0
   59.4186   31.0795   51.2607 H   0  0  0  0  0  0  0  0  0  0  0  0
   61.6386   30.4759   49.6483 H   0  0  0  0  0  0  0  0  0  0  0  0
   64.1155   30.7883   49.4875 H   0  0  0  0  0  0  0  0  0  0  0  0
   65.7990   32.9750   48.2530 H   0  0  0  0  0  0  0  0  0  0  0  0
   63.4501   34.9927   48.9456 H   0  0  0  0  0  0  0  0  0  0  0  0
   60.4360   34.9390   47.8090 H   0  0  0  0  0  0  0  0  0  0  0  0
   60.3625   35.4953   45.5045 H   0  0  0  0  0  0  0  0  0  0  0  0
   58.8471   30.7926   43.1919 H   0  0  0  0  0  0  0  0  0  0  0  0
   59.1028   31.2728   44.7680 H   0  0  0  0  0  0  0  0  0  0  0  0
  1  2  1  0
  2  3  1  0
  3  4  2  0
  4  5  1  0
  5  6  2  0
  6  7  1  0
  7  8  2  0
  8  9  1  0
  9 10  2  0
 10 11  1  0
 11 12  1  0
 12 13  1  0
 13 14  1  0
 14 15  1  0
 15 16  2  0
 16 17  1  0
 17 18  2  0
 18 19  1  0
 19 20  1  0
 19 21  1  0
 21 22  2  0
 22 23  1  0
 23 24  2  0
 24 25  1  0
 24 26  1  0
 26 27  2  0
 17 28  1  0
 28 29  1  0
 29 30  2  0
 13 31  1  0
 10 32  1  0
 32 33  2  0
 33  3  1  0
 33  7  1  0
 31 11  1  0
 30 15  1  0
 27 21  1  0
  1 34  1  0
  1 35  1  0
  1 36  1  0
  4 37  1  0
  5 38  1  0
  6 39  1  0
  8 40  1  0
  9 41  1  0
 12 42  1  0
 12 43  1  0
 13 44  1  0
 16 45  1  0
 19 46  1  6
 20 47  1  0
 20 48  1  0
 20 49  1  0
 22 50  1  0
 23 51  1  0
 25 52  1  0
 26 53  1  0
 28 54  1  0
 29 55  1  0
 31 56  1  0
 31 57  1  0
M  END
>  <smiles>  (32) 
COc1cccc2ccc(N3CC(Oc4cc(=NC(C)c5ccc(O)cn5)[nH]cn4)C3)nc12

>  <score_type>  (32) 
oracle

>  <origin>  (32) 
adg

>  <m_score__min__energy>  (32) 
-8.7400000000000002

>  <m_primary>  (32) 
energy

$$$$
32:0
     RDKit          3D

 32 34  0  0  0  0  0  0  0  0999 V2000
   59.2700   30.7640   47.9110 C   0  0  0  0  0  0  0  0  0  0  0  0
   58.9360   31.9120   46.9970 C   0  0  0  0  0  0  0  0  0  0  0  0
   58.6810   33.1730   47.5680 C   0  0  0  0  0  0  0  0  0  0  0  0
   58.3360   34.2610   46.7670 C   0  0  0  0  0  0  0  0  0  0  0  0
   58.2350   34.1080   45.3870 C   0  0  0  0  0  0  0  0  0  0  0  0
   58.4990   32.8710   44.8000 C   0  0  0  0  0  0  0  0  0  0  0  0
   58.8830   31.7640   45.5830 C   0  0  0  0  0  0  0  0  0  0  0  0
   59.1540   30.4440   44.8780 C   0  0  0  0  0  0  0  0  0  0  0  0
   58.1040   29.3710   45.1400 C   0  0  0  0  0  0  0  0  0  0  0  0
   56.7380   29.5510   44.7240 C   0  0  0  0  0  0  0  0  0  0  0  0
   56.2840   30.7480   43.9370 C   0  0  0  0  0  0  0  0  0  0  0  0
   55.8010   28.5950   45.0060 N   0  0  0  0  0  0  0  0  0  0  0  0
   56.1680   27.4670   45.6510 C   0  0  0  0  0  0  0  0  0  0  0  0
   55.3690   26.4410   45.9710 N   0  0  0  0  0  0  0  0  0  0  0  0
   56.2520   25.5780   46.5390 C   0  0  0  0  0  0  0  0  0  0  0  0
   55.9030   24.4570   46.9900 O   0  0  0  0  0  0  0  0  0  0  0  0
   57.5400   26.0090   46.5800 N   0  0  0  0  0  0  0  0  0  0  0  0
   57.4490   27.2200   46.0060 C   0  0  0  0  0  0  0  0  0  0  0  0
   58.4650   28.1350   45.7530 C   0  0  0  0  0  0  0  0  0  0  0  0
   60.2690   27.6310   46.1790 Br  0  0  0  0  0  0  0  0  0  0  0  0
   59.1754   31.0891   48.9576 H   0  0  0  0  0  0  0  0  0  0  0  0
   58.5770   29.9310   47.7217 H   0  0  0  0  0  0  0  0  0  0  0  0
   60.3017   30.4328   47.7217 H   0  0  0  0  0  0  0  0  0  0  0  0
   58.7547   33.3016   48.6580 H   0  0  0  0  0  0  0  0  0  0  0  0
   58.1433   35.2418   47.2263 H   0  0  0  0  0  0  0  0  0  0  0  0
   57.9466   34.9638   44.7590 H   0  0  0  0  0  0  0  0  0  0  0  0
   58.4062   32.7576   43.7098 H   0  0  0  0  0  0  0  0  0  0  0  0
   59.1924   30.6325   43.7949 H   0  0  0  0  0  0  0  0  0  0  0  0
   60.1049   30.0610   45.2769 H   0  0  0  0  0  0  0  0  0  0  0  0
   55.9806   31.5479   44.6285 H   0  0  0  0  0  0  0  0  0  0  0  0
   57.1093   31.1047   43.3032 H   0  0  0  0  0  0  0  0  0  0  0  0
   55.4298   30.4676   43.3032 H   0  0  0  0  0  0  0  0  0  0  0  0
  1  2  1  0
  2  3  2  0
  3  4  1  0
  4  5  2  0
  5  6  1  0
  6  7  2  0
  7  8  1  0
  8  9  1  0
  9 10  2  0
 10 11  1  0
 10 12  1  0
 12 13  2  0
 13 14  1  0
 14 15  1  0
 15 16  2  0
 15 17  1  0
 17 18  1  0
 18 19  2  0
 19 20  1  0
  7  2  1  0
 19  9  1  0
 18 13  1  0
  1 21  1  0
  1 22  1  0
  1 23  1  0
  3 24  1  0
  4 25  1  0
  5 26  1  0
  6 27  1  0
  8 28  1  0
  8 29  1  0
 11 30  1  0
 11 31  1  0
 11 32  1  0
M  CHG  2  14  -1  17  -1
M  END
>  <UniqueID>  (33) 
28

>  <SMILES>  (33) 
Cc1ccccc1Cc1c(C)nc2[n-]c(=O)[n-]c2c1Br

>  <Energy>  (33) 
77.32970151742812

>  <Genealogy>  (33) 
Cc1ccccc1Cc1c(C)nc2[n-]c(=O)[n-]c2c1Br (protonated)
Cc1ccccc1Cc1c(C)nc2[n-]c(=O)[n-]c2c1Br (3D coordinates assigned)
Cc1ccccc1Cc1c(C)nc2[n-]c(=O)[n-]c2c1Br (optimized conformer: 77.32970151742812 kcal/mol)

>  <smiles>  (33) 
Cc1ccccc1Cc1c(C)nc2[nH]c(=O)[nH]c2c1Br

>  <score_type>  (33) 
oracle

>  <origin>  (33) 
adg

>  <m_score__min__energy>  (33) 
-11.66

>  <m_primary>  (33) 
energy

$$$$
33:0
     RDKit          3D

 63 65  0  0  0  0  0  0  0  0999 V2000
   51.7300   24.1090   44.5790 C   0  0  0  0  0  0  0  0  0  0  0  0
   52.7710   23.1390   44.5140 O   0  0  0  0  0  0  0  0  0  0  0  0
   54.1120   23.3900   44.8430 C   0  0  0  0  0  0  0  0  0  0  0  0
   55.1270   23.4620   43.8720 C   0  0  0  0  0  0  0  0  0  0  0  0
   56.4450   23.7300   44.2520 C   0  0  0  0  0  0  0  0  0  0  0  0
   56.7700   23.9360   45.6000 C   0  0  0  0  0  0  0  0  0  0  0  0
   58.1930   24.2080   46.0080 C   0  0  0  0  0  0  0  0  0  0  0  0
   58.3390   25.6100   46.5260 C   0  0  0  0  0  0  0  0  0  0  0  0
   57.6360   25.9890   47.5030 O   0  0  0  0  0  0  0  0  0  0  0  0
   59.2880   26.5060   45.9310 N   0  0  0  0  0  0  0  0  0  0  0  0
   59.5540   27.8200   46.5220 C   0  0  0  0  0  0  0  0  0  0  0  0
   59.7130   28.8910   45.4820 C   0  0  0  0  0  0  0  0  0  0  0  0
   60.5440   29.8280   45.6460 O   0  0  0  0  0  0  0  0  0  0  0  0
   58.8560   28.8850   44.3770 O   0  0  0  0  0  0  0  0  0  0  0  0
   57.8020   27.9390   44.2150 C   0  0  0  0  0  0  0  0  0  0  0  0
   56.6220   28.3720   45.0210 C   0  0  0  0  0  0  0  0  0  0  0  0
   55.9440   27.5070   45.6360 O   0  0  0  0  0  0  0  0  0  0  0  0
   56.2950   29.7690   45.0810 N   0  0  0  0  0  0  0  0  0  0  0  0
   56.9650   30.9010   44.5000 C   0  0  0  0  0  0  0  0  0  0  0  0
   57.0610   31.1180   43.1100 C   0  0  0  0  0  0  0  0  0  0  0  0
   57.7780   32.2120   42.6190 C   0  0  0  0  0  0  0  0  0  0  0  0
   58.4160   33.0920   43.4990 C   0  0  0  0  0  0  0  0  0  0  0  0
   58.3290   32.8890   44.8810 C   0  0  0  0  0  0  0  0  0  0  0  0
   59.1510   33.9780   46.0030 S   0  0  0  0  0  0  0  0  0  0  0  0
   59.6400   35.1990   45.2680 O   0  0  0  0  0  0  0  0  0  0  0  0
   58.1630   34.4280   47.0480 O   0  0  0  0  0  0  0  0  0  0  0  0
   60.5270   33.2090   46.7670 N   0  0  0  0  0  0  0  0  0  0  0  0
   60.3480   33.0590   48.2310 C   0  0  0  0  0  0  0  0  0  0  0  0
   61.1630   34.0870   49.0340 C   0  0  0  0  0  0  0  0  0  0  0  0
   62.6700   33.9980   48.7170 C   0  0  0  0  0  0  0  0  0  0  0  0
   62.9480   33.4850   47.2920 C   0  0  0  0  0  0  0  0  0  0  0  0
   61.7970   33.8360   46.3420 C   0  0  0  0  0  0  0  0  0  0  0  0
   57.5850   31.8080   45.3730 C   0  0  0  0  0  0  0  0  0  0  0  0
   55.7600   23.8460   46.5710 C   0  0  0  0  0  0  0  0  0  0  0  0
   54.4400   23.5820   46.1920 C   0  0  0  0  0  0  0  0  0  0  0  0
   51.4966   24.3264   45.6317 H   0  0  0  0  0  0  0  0  0  0  0  0
   52.0570   25.0319   44.0777 H   0  0  0  0  0  0  0  0  0  0  0  0
   50.8324   23.7177   44.0777 H   0  0  0  0  0  0  0  0  0  0  0  0
   54.8828   23.3070   42.8107 H   0  0  0  0  0  0  0  0  0  0  0  0
   57.2339   23.7797   43.4870 H   0  0  0  0  0  0  0  0  0  0  0  0
   58.4838   23.4994   46.7975 H   0  0  0  0  0  0  0  0  0  0  0  0
   58.8420   24.0872   45.1281 H   0  0  0  0  0  0  0  0  0  0  0  0
   59.8190   26.1830   45.0870 H   0  0  0  0  0  0  0  0  0  0  0  0
   58.7146   28.0882   47.1805 H   0  0  0  0  0  0  0  0  0  0  0  0
   60.4983   27.7521   47.0821 H   0  0  0  0  0  0  0  0  0  0  0  0
   57.5204   27.8809   43.1532 H   0  0  0  0  0  0  0  0  0  0  0  0
   58.1391   26.9495   44.5575 H   0  0  0  0  0  0  0  0  0  0  0  0
   56.5705   30.4247   42.4110 H   0  0  0  0  0  0  0  0  0  0  0  0
   57.8410   32.3821   41.5341 H   0  0  0  0  0  0  0  0  0  0  0  0
   58.9872   33.9452   43.1043 H   0  0  0  0  0  0  0  0  0  0  0  0
   59.2824   33.1890   48.4710 H   0  0  0  0  0  0  0  0  0  0  0  0
   60.7070   32.0574   48.5100 H   0  0  0  0  0  0  0  0  0  0  0  0
   60.8059   35.0972   48.7849 H   0  0  0  0  0  0  0  0  0  0  0  0
   61.0256   33.8713   50.1039 H   0  0  0  0  0  0  0  0  0  0  0  0
   63.1117   34.9999   48.8228 H   0  0  0  0  0  0  0  0  0  0  0  0
   63.1160   33.2805   49.4214 H   0  0  0  0  0  0  0  0  0  0  0  0
   63.8744   33.9461   46.9190 H   0  0  0  0  0  0  0  0  0  0  0  0
   63.0474   32.3901   47.3292 H   0  0  0  0  0  0  0  0  0  0  0  0
   61.6678   34.9283   46.3267 H   0  0  0  0  0  0  0  0  0  0  0  0
   62.0497   33.4551   45.3415 H   0  0  0  0  0  0  0  0  0  0  0  0
   57.4856   31.6685   46.4596 H   0  0  0  0  0  0  0  0  0  0  0  0
   56.0078   23.9836   47.6338 H   0  0  0  0  0  0  0  0  0  0  0  0
   53.6531   23.5246   46.9585 H   0  0  0  0  0  0  0  0  0  0  0  0
  1  2  1  0
  2  3  1  0
  3  4  2  0
  4  5  1  0
  5  6  2  0
  6  7  1  0
  7  8  1  0
  8  9  2  0
  8 10  1  0
 10 11  1  0
 11 12  1  0
 12 13  2  0
 12 14  1  0
 14 15  1  0
 15 16  1  0
 16 17  2  0
 16 18  1  0
 18 19  1  0
 19 20  2  0
 20 21  1  0
 21 22  2  0
 22 23  1  0
 23 24  1  0
 24 25  2  0
 24 26  2  0
 24 27  1  0
 27 28  1  0
 28 29  1  0
 29 30  1  0
 30 31  1  0
 31 32  1  0
 23 33  2  0
  6 34  1  0
 34 35  2  0
 35  3  1  0
 33 19  1  0
 32 27  1  0
  1 36  1  0
  1 37  1  0
  1 38  1  0
  4 39  1  0
  5 40  1  0
  7 41  1  0
  7 42  1  0
 10 43  1  0
 11 44  1  0
 11 45  1  0
 15 46  1  0
 15 47  1  0
 20 48  1  0
 21 49  1  0
 22 50  1  0
 28 51  1  0
 28 52  1  0
 29 53  1  0
 29 54  1  0
 30 55  1  0
 30 56  1  0
 31 57  1  0
 31 58  1  0
 32 59  1  0
 32 60  1  0
 33 61  1  0
 34 62  1  0
 35 63  1  0
M  CHG  1  18  -1
M  END
>  <UniqueID>  (34) 
29

>  <SMILES>  (34) 
COc1ccc(CC(=O)NCC(=O)OCC(=O)[N-]c2cccc(S(=O)(=O)N3CCCCC3)c2)cc1

>  <Energy>  (34) 
67.46674246997506

>  <Genealogy>  (34) 
COc1ccc(CC(=O)NCC(=O)OCC(=O)[N-]c2cccc(S(=O)(=O)N3CCCCC3)c2)cc1 (protonated)
COc1ccc(CC(=O)NCC(=O)OCC(=O)[N-]c2cccc(S(=O)(=O)N3CCCCC3)c2)cc1 (3D coordinates assigned)
COc1ccc(CC(=O)NCC(=O)OCC(=O)[N-]c2cccc(S(=O)(=O)N3CCCCC3)c2)cc1 (nonaromatic ring conformer: 67.46674246997506 kcal/mol)

>  <smiles>  (34) 
COc1ccc(CC(=O)NCC(=O)OCC(=O)Nc2cccc(S(=O)(=O)N3CCCCC3)c2)cc1

>  <score_type>  (34) 
oracle

>  <origin>  (34) 
adg

>  <m_score__min__energy>  (34) 
-11.109999999999999

>  <m_primary>  (34) 
energy

$$$$
34:0
     RDKit          3D

 44 47  0  0  1  0  0  0  0  0999 V2000
   56.0060   27.4650   45.5930 O   0  0  0  0  0  0  0  0  0  0  0  0
   56.6650   28.4410   45.1260 C   0  0  0  0  0  0  0  0  0  0  0  0
   58.1150   28.2300   44.8700 C   0  0  0  0  0  0  0  0  0  0  0  0
   58.8770   28.9790   45.9150 C   0  0  0  0  0  0  0  0  0  0  0  0
   58.5010   28.9870   47.2450 C   0  0  0  0  0  0  0  0  0  0  0  0
   59.2190   29.6850   48.1900 C   0  0  0  0  0  0  0  0  0  0  0  0
   60.3200   30.3730   47.7840 C   0  0  0  0  0  0  0  0  0  0  0  0
   60.7570   30.4120   46.4730 C   0  0  0  0  0  0  0  0  0  0  0  0
   60.0140   29.7030   45.5540 C   0  0  0  0  0  0  0  0  0  0  0  0
   56.0370   29.6900   44.8570 N   0  0  0  0  0  0  0  0  0  0  0  0
   56.5860   30.6440   44.2090 C   0  0  0  0  0  0  0  0  0  0  0  0
   56.8260   30.4980   42.8490 C   0  0  0  0  0  0  0  0  0  0  0  0
   57.4230   31.5730   42.2210 C   0  0  0  0  0  0  0  0  0  0  0  0
   57.7360   32.6830   42.9260 N   0  0  0  0  0  0  0  0  0  0  0  0
   57.5060   32.8270   44.2300 C   0  0  0  0  0  0  0  0  0  0  0  0
   57.8670   34.2420   45.2110 S   0  0  0  0  0  0  0  0  0  0  0  0
   58.1450   33.8950   46.9330 C   0  0  0  0  0  0  0  0  0  0  0  0
   59.5960   33.7930   47.2040 C   0  0  0  0  0  0  0  0  0  0  0  0
   60.0730   33.7510   48.4870 N   0  0  0  0  0  0  0  0  0  0  0  0
   61.4070   33.6380   48.4270 C   0  0  0  0  0  0  0  0  0  0  0  0
   62.3940   33.5540   49.3880 C   0  0  0  0  0  0  0  0  0  0  0  0
   63.7370   33.4400   49.0880 C   0  0  0  0  0  0  0  0  0  0  0  0
   64.0910   33.4110   47.7530 C   0  0  0  0  0  0  0  0  0  0  0  0
   63.1350   33.4920   46.7710 C   0  0  0  0  0  0  0  0  0  0  0  0
   61.8050   33.6040   47.1090 C   0  0  0  0  0  0  0  0  0  0  0  0
   60.6550   33.7020   46.3970 N   0  0  0  0  0  0  0  0  0  0  0  0
   56.9160   31.7650   44.8570 N   0  0  0  0  0  0  0  0  0  0  0  0
   58.3534   27.1578   44.9295 H   0  0  0  0  0  0  0  0  0  0  0  0
   58.3843   28.5899   43.8660 H   0  0  0  0  0  0  0  0  0  0  0  0
   57.6087   28.4235   47.5553 H   0  0  0  0  0  0  0  0  0  0  0  0
   58.9103   29.6863   49.2458 H   0  0  0  0  0  0  0  0  0  0  0  0
   60.8940   30.9287   48.5401 H   0  0  0  0  0  0  0  0  0  0  0  0
   61.6519   30.9798   46.1785 H   0  0  0  0  0  0  0  0  0  0  0  0
   60.3280   29.7080   44.4998 H   0  0  0  0  0  0  0  0  0  0  0  0
   56.5566   29.5809   42.3047 H   0  0  0  0  0  0  0  0  0  0  0  0
   57.6444   31.5260   41.1445 H   0  0  0  0  0  0  0  0  0  0  0  0
   58.1860   33.4480   42.4210 H   0  0  0  0  0  0  0  0  0  0  0  0
   57.7176   34.7059   47.5410 H   0  0  0  0  0  0  0  0  0  0  0  0
   57.6631   32.9402   47.1899 H   0  0  0  0  0  0  0  0  0  0  0  0
   62.0957   33.5791   50.4465 H   0  0  0  0  0  0  0  0  0  0  0  0
   64.4959   33.3748   49.8816 H   0  0  0  0  0  0  0  0  0  0  0  0
   65.1512   33.3220   47.4735 H   0  0  0  0  0  0  0  0  0  0  0  0
   63.4322   33.4674   45.7122 H   0  0  0  0  0  0  0  0  0  0  0  0
   60.6620   33.6930   45.3630 H   0  0  0  0  0  0  0  0  0  0  0  0
  1  2  2  0
  2  3  1  0
  3  4  1  0
  4  5  2  0
  5  6  1  0
  6  7  2  0
  7  8  1  0
  8  9  2  0
  2 10  1  0
 10 11  2  0
 11 12  1  0
 12 13  2  0
 13 14  1  0
 14 15  1  0
 15 16  1  0
 16 17  1  0
 17 18  1  0
 18 19  2  0
 19 20  1  0
 20 21  2  0
 21 22  1  0
 22 23  2  0
 23 24  1  0
 24 25  2  0
 25 26  1  0
 15 27  2  0
  9  4  1  0
 27 11  1  0
 26 18  1  0
 25 20  1  0
  3 28  1  0
  3 29  1  0
  5 30  1  0
  6 31  1  0
  7 32  1  0
  8 33  1  0
  9 34  1  0
 12 35  1  0
 13 36  1  0
 14 37  1  0
 17 38  1  0
 17 39  1  0
 21 40  1  0
 22 41  1  0
 23 42  1  0
 24 43  1  0
 26 44  1  0
M  END
>  <smiles>  (35) 
O=C(Cc1ccccc1)N=c1cc[nH]c(SCc2nc3ccccc3[nH]2)n1

>  <score_type>  (35) 
oracle

>  <origin>  (35) 
adg

>  <m_score__min__energy>  (35) 
-8.8699999999999992

>  <m_primary>  (35) 
energy

$$$$
35:0
     RDKit          3D

 57 60  0  0  0  0  0  0  0  0999 V2000
   53.3560   22.4360   46.2040 C   0  0  0  0  0  0  0  0  0  0  0  0
   54.4910   22.4020   47.1440 N   0  0  0  0  0  0  0  0  0  0  0  0
   54.2460   22.2530   48.4930 C   0  0  0  0  0  0  0  0  0  0  0  0
   52.9100   22.1570   49.0180 N   0  0  0  0  0  0  0  0  0  0  0  0
   55.3140   22.2010   49.3960 C   0  0  0  0  0  0  0  0  0  0  0  0
   56.6110   22.3060   48.9150 C   0  0  0  0  0  0  0  0  0  0  0  0
   57.5890   22.2590   49.7050 O   0  0  0  0  0  0  0  0  0  0  0  0
   56.8210   22.4670   47.5910 N   0  0  0  0  0  0  0  0  0  0  0  0
   55.7930   22.5310   46.7050 C   0  0  0  0  0  0  0  0  0  0  0  0
   56.2230   22.8200   44.9750 S   0  0  0  0  0  0  0  0  0  0  0  0
   55.1860   24.3150   44.8050 C   0  0  0  0  0  0  0  0  0  0  0  0
   55.6000   25.3620   45.7890 C   0  0  0  0  0  0  0  0  0  0  0  0
   54.8290   26.3270   46.0290 O   0  0  0  0  0  0  0  0  0  0  0  0
   56.9110   25.2970   46.3670 N   0  0  0  0  0  0  0  0  0  0  0  0
   57.7770   26.3890   46.7050 C   0  0  0  0  0  0  0  0  0  0  0  0
   57.5390   27.7060   46.2730 C   0  0  0  0  0  0  0  0  0  0  0  0
   58.4110   28.7350   46.6340 C   0  0  0  0  0  0  0  0  0  0  0  0
   59.5270   28.4730   47.4480 C   0  0  0  0  0  0  0  0  0  0  0  0
   60.4470   29.5610   47.8460 C   0  0  0  0  0  0  0  0  0  0  0  0
   60.8320   29.6310   49.0450 O   0  0  0  0  0  0  0  0  0  0  0  0
   60.8890   30.5350   46.8840 N   0  0  0  0  0  0  0  0  0  0  0  0
   61.6610   31.7000   47.2260 C   0  0  0  0  0  0  0  0  0  0  0  0
   62.9610   31.5610   47.7470 C   0  0  0  0  0  0  0  0  0  0  0  0
   63.7460   32.6870   48.0050 C   0  0  0  0  0  0  0  0  0  0  0  0
   63.2520   33.9610   47.7330 C   0  0  0  0  0  0  0  0  0  0  0  0
   61.9690   34.1180   47.2020 C   0  0  0  0  0  0  0  0  0  0  0  0
   61.1610   32.9970   46.9450 C   0  0  0  0  0  0  0  0  0  0  0  0
   59.7950   33.2020   46.4050 C   0  0  0  0  0  0  0  0  0  0  0  0
   59.5740   34.0900   45.3360 C   0  0  0  0  0  0  0  0  0  0  0  0
   58.2820   34.2910   44.8400 C   0  0  0  0  0  0  0  0  0  0  0  0
   57.2020   33.5970   45.3950 C   0  0  0  0  0  0  0  0  0  0  0  0
   57.4140   32.7020   46.4470 C   0  0  0  0  0  0  0  0  0  0  0  0
   58.7050   32.5030   46.9500 C   0  0  0  0  0  0  0  0  0  0  0  0
   59.7380   27.1660   47.9110 C   0  0  0  0  0  0  0  0  0  0  0  0
   58.8710   26.1350   47.5400 C   0  0  0  0  0  0  0  0  0  0  0  0
   52.4127   22.4643   46.7691 H   0  0  0  0  0  0  0  0  0  0  0  0
   53.4311   23.3323   45.5707 H   0  0  0  0  0  0  0  0  0  0  0  0
   53.3773   21.5368   45.5707 H   0  0  0  0  0  0  0  0  0  0  0  0
   52.0780   22.5530   48.5300 H   0  0  0  0  0  0  0  0  0  0  0  0
   52.7370   21.7080   49.9450 H   0  0  0  0  0  0  0  0  0  0  0  0
   55.1274   22.0785   50.4731 H   0  0  0  0  0  0  0  0  0  0  0  0
   55.2937   24.7149   43.7859 H   0  0  0  0  0  0  0  0  0  0  0  0
   54.1384   24.0420   44.9999 H   0  0  0  0  0  0  0  0  0  0  0  0
   56.6614   27.9266   45.6475 H   0  0  0  0  0  0  0  0  0  0  0  0
   58.2233   29.7590   46.2787 H   0  0  0  0  0  0  0  0  0  0  0  0
   60.5810   30.4340   45.8910 H   0  0  0  0  0  0  0  0  0  0  0  0
   63.3620   30.5575   47.9526 H   0  0  0  0  0  0  0  0  0  0  0  0
   64.7562   32.5677   48.4237 H   0  0  0  0  0  0  0  0  0  0  0  0
   63.8735   34.8455   47.9367 H   0  0  0  0  0  0  0  0  0  0  0  0
   61.5885   35.1267   46.9835 H   0  0  0  0  0  0  0  0  0  0  0  0
   60.4220   34.6289   44.8881 H   0  0  0  0  0  0  0  0  0  0  0  0
   58.1149   34.9959   44.0122 H   0  0  0  0  0  0  0  0  0  0  0  0
   56.1863   33.7556   45.0036 H   0  0  0  0  0  0  0  0  0  0  0  0
   56.5651   32.1530   46.8805 H   0  0  0  0  0  0  0  0  0  0  0  0
   58.8670   31.7954   47.7765 H   0  0  0  0  0  0  0  0  0  0  0  0
   60.5917   26.9512   48.5706 H   0  0  0  0  0  0  0  0  0  0  0  0
   59.0500   25.1139   47.9078 H   0  0  0  0  0  0  0  0  0  0  0  0
  1  2  1  0
  2  3  1  0
  3  4  1  0
  3  5  2  0
  5  6  1  0
  6  7  2  0
  6  8  1  0
  8  9  2  0
  9 10  1  0
 10 11  1  0
 11 12  1  0
 12 13  2  0
 12 14  1  0
 14 15  1  0
 15 16  2  0
 16 17  1  0
 17 18  2  0
 18 19  1  0
 19 20  2  0
 19 21  1  0
 21 22  1  0
 22 23  2  0
 23 24  1  0
 24 25  2  0
 25 26  1  0
 26 27  2  0
 27 28  1  0
 28 29  2  0
 29 30  1  0
 30 31  2  0
 31 32  1  0
 32 33  2  0
 18 34  1  0
 34 35  2  0
  9  2  1  0
 35 15  1  0
 27 22  1  0
 33 28  1  0
  1 36  1  0
  1 37  1  0
  1 38  1  0
  4 39  1  0
  4 40  1  0
  5 41  1  0
 11 42  1  0
 11 43  1  0
 16 44  1  0
 17 45  1  0
 21 46  1  0
 23 47  1  0
 24 48  1  0
 25 49  1  0
 26 50  1  0
 29 51  1  0
 30 52  1  0
 31 53  1  0
 32 54  1  0
 33 55  1  0
 34 56  1  0
 35 57  1  0
M  CHG  1  14  -1
M  END
>  <UniqueID>  (36) 
30

>  <SMILES>  (36) 
Cn1c(N)cc(=O)nc1SCC(=O)[N-]c1ccc(C(=O)Nc2ccccc2-c2ccccc2)cc1

>  <Energy>  (36) 
78.23539261101072

>  <Genealogy>  (36) 
Cn1c(N)cc(=O)nc1SCC(=O)[N-]c1ccc(C(=O)Nc2ccccc2-c2ccccc2)cc1 (protonated)
Cn1c(N)cc(=O)nc1SCC(=O)[N-]c1ccc(C(=O)Nc2ccccc2-c2ccccc2)cc1 (3D coordinates assigned)
Cn1c(N)cc(=O)nc1SCC(=O)[N-]c1ccc(C(=O)Nc2ccccc2-c2ccccc2)cc1 (optimized conformer: 78.23539261101072 kcal/mol)

>  <smiles>  (36) 
Cn1c(N)cc(=O)nc1SCC(=O)Nc1ccc(C(=O)Nc2ccccc2-c2ccccc2)cc1

>  <score_type>  (36) 
oracle

>  <origin>  (36) 
adg

>  <m_score__min__energy>  (36) 
-10.65

>  <m_primary>  (36) 
energy

$$$$
36:0
     RDKit          3D

 36 37  0  0  0  0  0  0  0  0999 V2000
   55.4780   28.9870   44.9250 N   0  0  0  0  0  0  0  0  0  0  0  0
   56.3960   29.8130   44.2110 C   0  0  0  0  0  0  0  0  0  0  0  0
   56.5170   29.6600   42.9660 O   0  0  0  0  0  0  0  0  0  0  0  0
   57.1950   30.8400   44.9210 C   0  0  0  0  0  0  0  0  0  0  0  0
   57.0200   32.2060   44.6320 C   0  0  0  0  0  0  0  0  0  0  0  0
   57.7750   33.1740   45.2990 C   0  0  0  0  0  0  0  0  0  0  0  0
   58.7150   32.7940   46.2630 C   0  0  0  0  0  0  0  0  0  0  0  0
   59.6760   34.0120   47.0980 S   0  0  0  0  0  0  0  0  0  0  0  0
   58.9530   35.3290   47.1260 O   0  0  0  0  0  0  0  0  0  0  0  0
   59.9200   33.5560   48.5090 O   0  0  0  0  0  0  0  0  0  0  0  0
   61.2000   34.2210   46.3000 N   0  0  0  0  0  0  0  0  0  0  0  0
   62.4370   33.6520   46.7450 C   0  0  0  0  0  0  0  0  0  0  0  0
   63.5040   34.0130   46.1810 O   0  0  0  0  0  0  0  0  0  0  0  0
   62.4800   32.6920   47.8140 N   0  0  0  0  0  0  0  0  0  0  0  0
   63.7290   32.0810   48.2630 C   0  0  0  0  0  0  0  0  0  0  0  0
   64.2570   32.8070   49.4700 C   0  0  0  0  0  0  0  0  0  0  0  0
   63.4160   33.6360   50.2320 C   0  0  0  0  0  0  0  0  0  0  0  0
   63.9220   34.3200   51.3420 C   0  0  0  0  0  0  0  0  0  0  0  0
   65.2680   34.1860   51.6950 C   0  0  0  0  0  0  0  0  0  0  0  0
   66.1110   33.3670   50.9390 C   0  0  0  0  0  0  0  0  0  0  0  0
   65.6090   32.6800   49.8280 C   0  0  0  0  0  0  0  0  0  0  0  0
   58.8910   31.4380   46.5620 C   0  0  0  0  0  0  0  0  0  0  0  0
   58.1390   30.4660   45.8950 C   0  0  0  0  0  0  0  0  0  0  0  0
   54.5420   29.3500   45.2130 H   0  0  0  0  0  0  0  0  0  0  0  0
   56.2833   32.5140   43.8754 H   0  0  0  0  0  0  0  0  0  0  0  0
   57.6298   34.2390   45.0653 H   0  0  0  0  0  0  0  0  0  0  0  0
   61.6030   32.4060   48.2990 H   0  0  0  0  0  0  0  0  0  0  0  0
   63.5455   31.0282   48.5235 H   0  0  0  0  0  0  0  0  0  0  0  0
   64.4709   32.1433   47.4532 H   0  0  0  0  0  0  0  0  0  0  0  0
   62.3573   33.7471   49.9547 H   0  0  0  0  0  0  0  0  0  0  0  0
   63.2596   34.9646   51.9384 H   0  0  0  0  0  0  0  0  0  0  0  0
   65.6637   34.7254   52.5682 H   0  0  0  0  0  0  0  0  0  0  0  0
   67.1700   33.2623   51.2175 H   0  0  0  0  0  0  0  0  0  0  0  0
   66.2756   32.0384   49.2331 H   0  0  0  0  0  0  0  0  0  0  0  0
   59.6238   31.1358   47.3247 H   0  0  0  0  0  0  0  0  0  0  0  0
   58.2864   29.4023   46.1332 H   0  0  0  0  0  0  0  0  0  0  0  0
  1  2  1  0
  2  3  2  0
  2  4  1  0
  4  5  2  0
  5  6  1  0
  6  7  2  0
  7  8  1  0
  8  9  2  0
  8 10  2  0
  8 11  1  0
 11 12  1  0
 12 13  2  0
 12 14  1  0
 14 15  1  0
 15 16  1  0
 16 17  2  0
 17 18  1  0
 18 19  2  0
 19 20  1  0
 20 21  2  0
  7 22  1  0
 22 23  2  0
 23  4  1  0
 21 16  1  0
  1 24  1  0
  5 25  1  0
  6 26  1  0
 14 27  1  0
 15 28  1  0
 15 29  1  0
 17 30  1  0
 18 31  1  0
 19 32  1  0
 20 33  1  0
 21 34  1  0
 22 35  1  0
 23 36  1  0
M  CHG  2   1  -1  11  -1
M  END
>  <UniqueID>  (37) 
31

>  <SMILES>  (37) 
[NH-]C(=O)c1ccc(S(=O)(=O)[N-]C(=O)NCc2ccccc2)cc1

>  <Energy>  (37) 
36.2982057845107

>  <Genealogy>  (37) 
[NH-]C(=O)c1ccc(S(=O)(=O)[N-]C(=O)NCc2ccccc2)cc1 (protonated)
[NH-]C(=O)c1ccc(S(=O)(=O)[N-]C(=O)NCc2ccccc2)cc1 (3D coordinates assigned)
[NH-]C(=O)c1ccc(S(=O)(=O)[N-]C(=O)NCc2ccccc2)cc1 (optimized conformer: 36.2982057845107 kcal/mol)

>  <smiles>  (37) 
NC(=O)c1ccc(S(=O)(=O)NC(=O)NCc2ccccc2)cc1

>  <score_type>  (37) 
oracle

>  <origin>  (37) 
adg

>  <m_score__min__energy>  (37) 
-11.15

>  <m_primary>  (37) 
energy

$$$$
37:0
     RDKit          3D

 48 50  0  0  0  0  0  0  0  0999 V2000
   63.0230   34.2300   49.7210 C   0  0  0  0  0  0  0  0  0  0  0  0
   62.0070   34.1230   48.6390 C   0  0  0  0  0  0  0  0  0  0  0  0
   62.3700   33.8320   47.3170 C   0  0  0  0  0  0  0  0  0  0  0  0
   61.3540   33.7520   46.3630 C   0  0  0  0  0  0  0  0  0  0  0  0
   60.0230   33.9530   46.7030 C   0  0  0  0  0  0  0  0  0  0  0  0
   58.8190   33.8380   45.4160 S   0  0  0  0  0  0  0  0  0  0  0  0
   59.3170   34.4070   44.1350 O   0  0  0  0  0  0  0  0  0  0  0  0
   57.5890   34.6150   45.8090 O   0  0  0  0  0  0  0  0  0  0  0  0
   58.4400   32.1410   45.1970 C   0  0  0  0  0  0  0  0  0  0  0  0
   58.4240   31.5510   43.9410 C   0  0  0  0  0  0  0  0  0  0  0  0
   58.1430   30.2230   43.8030 N   0  0  0  0  0  0  0  0  0  0  0  0
   57.8730   29.4250   44.8390 C   0  0  0  0  0  0  0  0  0  0  0  0
   57.5240   27.7080   44.7760 S   0  0  0  0  0  0  0  0  0  0  0  0
   58.5070   26.6650   45.8270 C   0  0  0  0  0  0  0  0  0  0  0  0
   59.4430   27.3440   46.7280 C   0  0  0  0  0  0  0  0  0  0  0  0
   60.6600   26.9710   46.6760 O   0  0  0  0  0  0  0  0  0  0  0  0
   59.1260   28.3650   47.6450 N   0  0  0  0  0  0  0  0  0  0  0  0
   60.1010   28.9730   48.4900 C   0  0  0  0  0  0  0  0  0  0  0  0
   60.7330   30.1000   47.9580 C   0  0  0  0  0  0  0  0  0  0  0  0
   61.6890   30.7890   48.6680 C   0  0  0  0  0  0  0  0  0  0  0  0
   62.0070   30.3170   49.9480 C   0  0  0  0  0  0  0  0  0  0  0  0
   63.0480   31.0930   50.6860 C   0  0  0  0  0  0  0  0  0  0  0  0
   61.3840   29.2150   50.4560 C   0  0  0  0  0  0  0  0  0  0  0  0
   61.7280   28.8050   51.6960 F   0  0  0  0  0  0  0  0  0  0  0  0
   60.4100   28.5040   49.7500 C   0  0  0  0  0  0  0  0  0  0  0  0
   57.8910   30.0170   46.0700 N   0  0  0  0  0  0  0  0  0  0  0  0
   58.1600   31.3140   46.2600 C   0  0  0  0  0  0  0  0  0  0  0  0
   58.1500   31.7560   47.4430 O   0  0  0  0  0  0  0  0  0  0  0  0
   59.6830   34.2390   48.0040 C   0  0  0  0  0  0  0  0  0  0  0  0
   60.6760   34.3230   48.9690 C   0  0  0  0  0  0  0  0  0  0  0  0
   62.5234   34.1774   50.6996 H   0  0  0  0  0  0  0  0  0  0  0  0
   63.7424   33.4026   49.6316 H   0  0  0  0  0  0  0  0  0  0  0  0
   63.5542   35.1891   49.6316 H   0  0  0  0  0  0  0  0  0  0  0  0
   63.4224   33.6717   47.0398 H   0  0  0  0  0  0  0  0  0  0  0  0
   61.6138   33.5246   45.3186 H   0  0  0  0  0  0  0  0  0  0  0  0
   58.6395   32.1587   43.0498 H   0  0  0  0  0  0  0  0  0  0  0  0
   58.1650   29.8750   42.8260 H   0  0  0  0  0  0  0  0  0  0  0  0
   57.8191   26.0699   46.4456 H   0  0  0  0  0  0  0  0  0  0  0  0
   59.1353   26.0727   45.1455 H   0  0  0  0  0  0  0  0  0  0  0  0
   58.1430   28.6760   47.7210 H   0  0  0  0  0  0  0  0  0  0  0  0
   60.4602   30.4438   46.9494 H   0  0  0  0  0  0  0  0  0  0  0  0
   62.1845   31.6762   48.2469 H   0  0  0  0  0  0  0  0  0  0  0  0
   62.8927   30.9772   51.7688 H   0  0  0  0  0  0  0  0  0  0  0  0
   64.0458   30.7166   50.4164 H   0  0  0  0  0  0  0  0  0  0  0  0
   62.9722   32.1567   50.4164 H   0  0  0  0  0  0  0  0  0  0  0  0
   59.9163   27.6181   50.1760 H   0  0  0  0  0  0  0  0  0  0  0  0
   58.6300   34.4002   48.2781 H   0  0  0  0  0  0  0  0  0  0  0  0
   60.4033   34.5514   50.0099 H   0  0  0  0  0  0  0  0  0  0  0  0
  1  2  1  0
  2  3  2  0
  3  4  1  0
  4  5  2  0
  5  6  1  0
  6  7  2  0
  6  8  2  0
  6  9  1  0
  9 10  2  0
 10 11  1  0
 11 12  1  0
 12 13  1  0
 13 14  1  0
 14 15  1  0
 15 16  2  0
 15 17  1  0
 17 18  1  0
 18 19  2  0
 19 20  1  0
 20 21  2  0
 21 22  1  0
 21 23  1  0
 23 24  1  0
 23 25  2  0
 12 26  2  0
 26 27  1  0
 27 28  2  0
  5 29  1  0
 29 30  2  0
 30  2  1  0
 27  9  1  0
 25 18  1  0
  1 31  1  0
  1 32  1  0
  1 33  1  0
  3 34  1  0
  4 35  1  0
 10 36  1  0
 11 37  1  0
 14 38  1  0
 14 39  1  0
 17 40  1  0
 19 41  1  0
 20 42  1  0
 22 43  1  0
 22 44  1  0
 22 45  1  0
 25 46  1  0
 29 47  1  0
 30 48  1  0
M  END
>  <smiles>  (38) 
Cc1ccc(S(=O)(=O)c2c[nH]c(SCC(=O)Nc3ccc(C)c(F)c3)nc2=O)cc1

>  <score_type>  (38) 
oracle

>  <origin>  (38) 
adg

>  <m_score__min__energy>  (38) 
-8.6899999999999995

>  <m_primary>  (38) 
energy

$$$$
38:0
     RDKit          3D

 46 48  0  0  0  0  0  0  0  0999 V2000
   63.6430   33.7710   46.3280 C   0  0  0  0  0  0  0  0  0  0  0  0
   63.0300   33.1570   47.5530 C   0  0  0  0  0  0  0  0  0  0  0  0
   63.7350   32.1940   48.2880 C   0  0  0  0  0  0  0  0  0  0  0  0
   63.1500   31.5960   49.4060 C   0  0  0  0  0  0  0  0  0  0  0  0
   61.8540   31.9470   49.7960 C   0  0  0  0  0  0  0  0  0  0  0  0
   61.2900   31.3340   50.9110 O   0  0  0  0  0  0  0  0  0  0  0  0
   61.1310   32.9070   49.0640 C   0  0  0  0  0  0  0  0  0  0  0  0
   59.7350   33.3020   49.4790 C   0  0  0  0  0  0  0  0  0  0  0  0
   59.1330   34.1980   48.4890 N   0  0  0  0  0  0  0  0  0  0  0  0
   58.8500   33.8340   47.1240 C   0  0  0  0  0  0  0  0  0  0  0  0
   58.8500   34.8290   46.1400 C   0  0  0  0  0  0  0  0  0  0  0  0
   58.5950   34.5080   44.8070 C   0  0  0  0  0  0  0  0  0  0  0  0
   58.3330   33.1870   44.4330 C   0  0  0  0  0  0  0  0  0  0  0  0
   58.0960   32.9160   43.0900 O   0  0  0  0  0  0  0  0  0  0  0  0
   58.3150   32.1640   45.4080 C   0  0  0  0  0  0  0  0  0  0  0  0
   58.0370   30.7440   45.0580 C   0  0  0  0  0  0  0  0  0  0  0  0
   58.8530   30.1030   44.3390 O   0  0  0  0  0  0  0  0  0  0  0  0
   56.8550   30.0880   45.5280 N   0  0  0  0  0  0  0  0  0  0  0  0
   56.3150   28.8850   44.9120 C   0  0  0  0  0  0  0  0  0  0  0  0
   56.9560   27.6760   45.5350 C   0  0  0  0  0  0  0  0  0  0  0  0
   58.3560   27.5620   45.5650 C   0  0  0  0  0  0  0  0  0  0  0  0
   58.9610   26.4260   46.1120 C   0  0  0  0  0  0  0  0  0  0  0  0
   58.1730   25.3920   46.6240 C   0  0  0  0  0  0  0  0  0  0  0  0
   56.7810   25.4880   46.5850 C   0  0  0  0  0  0  0  0  0  0  0  0
   56.1680   26.6220   46.0380 C   0  0  0  0  0  0  0  0  0  0  0  0
   54.7790   26.6920   45.9950 O   0  0  0  0  0  0  0  0  0  0  0  0
   58.5680   32.5060   46.7510 C   0  0  0  0  0  0  0  0  0  0  0  0
   61.7220   33.4940   47.9300 C   0  0  0  0  0  0  0  0  0  0  0  0
   64.3907   34.5199   46.6282 H   0  0  0  0  0  0  0  0  0  0  0  0
   64.1294   32.9869   45.7291 H   0  0  0  0  0  0  0  0  0  0  0  0
   62.8582   34.2561   45.7291 H   0  0  0  0  0  0  0  0  0  0  0  0
   64.7526   31.9084   47.9831 H   0  0  0  0  0  0  0  0  0  0  0  0
   63.7111   30.8456   49.9823 H   0  0  0  0  0  0  0  0  0  0  0  0
   59.1161   32.3972   49.5703 H   0  0  0  0  0  0  0  0  0  0  0  0
   59.7889   33.8274   50.4439 H   0  0  0  0  0  0  0  0  0  0  0  0
   58.9650   35.1870   48.7840 H   0  0  0  0  0  0  0  0  0  0  0  0
   59.0528   35.8732   46.4203 H   0  0  0  0  0  0  0  0  0  0  0  0
   58.6001   35.3005   44.0441 H   0  0  0  0  0  0  0  0  0  0  0  0
   55.2273   28.8472   45.0715 H   0  0  0  0  0  0  0  0  0  0  0  0
   56.5254   28.8980   43.8324 H   0  0  0  0  0  0  0  0  0  0  0  0
   58.9796   28.3706   45.1560 H   0  0  0  0  0  0  0  0  0  0  0  0
   60.0578   26.3465   46.1392 H   0  0  0  0  0  0  0  0  0  0  0  0
   58.6502   24.5012   47.0584 H   0  0  0  0  0  0  0  0  0  0  0  0
   56.1636   24.6703   46.9852 H   0  0  0  0  0  0  0  0  0  0  0  0
   58.5448   31.7216   47.5218 H   0  0  0  0  0  0  0  0  0  0  0  0
   61.1534   34.2232   47.3343 H   0  0  0  0  0  0  0  0  0  0  0  0
  1  2  1  0
  2  3  2  0
  3  4  1  0
  4  5  2  0
  5  6  1  0
  5  7  1  0
  7  8  1  0
  8  9  1  0
  9 10  1  0
 10 11  2  0
 11 12  1  0
 12 13  2  0
 13 14  1  0
 13 15  1  0
 15 16  1  0
 16 17  2  0
 16 18  1  0
 18 19  1  0
 19 20  1  0
 20 21  2  0
 21 22  1  0
 22 23  2  0
 23 24  1  0
 24 25  2  0
 25 26  1  0
 15 27  2  0
  7 28  2  0
 28  2  1  0
 27 10  1  0
 25 20  1  0
  1 29  1  0
  1 30  1  0
  1 31  1  0
  3 32  1  0
  4 33  1  0
  8 34  1  0
  8 35  1  0
  9 36  1  0
 11 37  1  0
 12 38  1  0
 19 39  1  0
 19 40  1  0
 21 41  1  0
 22 42  1  0
 23 43  1  0
 24 44  1  0
 27 45  1  0
 28 46  1  0
M  CHG  4   6  -1  14  -1  18  -1  26  -1
M  END
>  <UniqueID>  (39) 
32

>  <SMILES>  (39) 
Cc1ccc([O-])c(CNc2ccc([O-])c(C(=O)[N-]Cc3ccccc3[O-])c2)c1

>  <Energy>  (39) 
48.2686495041414

>  <Genealogy>  (39) 
Cc1ccc([O-])c(CNc2ccc([O-])c(C(=O)[N-]Cc3ccccc3[O-])c2)c1 (protonated)
Cc1ccc([O-])c(CNc2ccc([O-])c(C(=O)[N-]Cc3ccccc3[O-])c2)c1 (3D coordinates assigned)
Cc1ccc([O-])c(CNc2ccc([O-])c(C(=O)[N-]Cc3ccccc3[O-])c2)c1 (optimized conformer: 48.2686495041414 kcal/mol)

>  <smiles>  (39) 
Cc1ccc(O)c(CNc2ccc(O)c(C(=O)NCc3ccccc3O)c2)c1

>  <score_type>  (39) 
oracle

>  <origin>  (39) 
adg

>  <m_score__min__energy>  (39) 
-16.170000000000002

>  <m_primary>  (39) 
energy

$$$$
39:0
     RDKit          3D

 38 41  0  0  0  0  0  0  0  0999 V2000
   59.4340   30.7371   44.3823 H   0  0  0  0  0  0  0  0  0  0  0  0
   59.0140   29.7430   44.5950 C   0  0  0  0  0  0  0  0  0  0  0  0
   58.6857   29.0962   43.7680 H   0  0  0  0  0  0  0  0  0  0  0  0
   58.9020   29.3190   45.8640 C   0  0  0  0  0  0  0  0  0  0  0  0
   58.3900   28.0860   46.2850 C   0  0  0  0  0  0  0  0  0  0  0  0
   57.8450   27.1250   45.5150 C   0  0  0  0  0  0  0  0  0  0  0  0
   57.9222   27.2327   44.4230 H   0  0  0  0  0  0  0  0  0  0  0  0
   57.1510   25.9370   46.0460 C   0  0  0  0  0  0  0  0  0  0  0  0
   57.7960   24.8550   46.5160 N   0  0  0  0  0  0  0  0  0  0  0  0
   56.7980   24.0660   46.9700 C   0  0  0  0  0  0  0  0  0  0  0  0
   57.0070   22.9360   47.4820 O   0  0  0  0  0  0  0  0  0  0  0  0
   55.5610   24.5890   46.8420 N   0  0  0  0  0  0  0  0  0  0  0  0
   55.8010   25.7790   46.2670 C   0  0  0  0  0  0  0  0  0  0  0  0
   54.8100   26.7160   45.9980 O   0  0  0  0  0  0  0  0  0  0  0  0
   58.5060   28.0680   47.6680 C   0  0  0  0  0  0  0  0  0  0  0  0
   58.2031   27.2529   48.3418 H   0  0  0  0  0  0  0  0  0  0  0  0
   59.0750   29.2710   48.0340 C   0  0  0  0  0  0  0  0  0  0  0  0
   59.3740   29.6780   49.4450 C   0  0  0  0  0  0  0  0  0  0  0  0
   58.8691   28.9907   50.1397 H   0  0  0  0  0  0  0  0  0  0  0  0
   60.4600   29.6393   49.6155 H   0  0  0  0  0  0  0  0  0  0  0  0
   59.0124   30.7028   49.6155 H   0  0  0  0  0  0  0  0  0  0  0  0
   59.3230   30.0280   46.9420 N   0  0  0  0  0  0  0  0  0  0  0  0
   59.8960   31.3480   46.9470 C   0  0  0  0  0  0  0  0  0  0  0  0
   59.2870   32.3820   46.2240 C   0  0  0  0  0  0  0  0  0  0  0  0
   58.3636   32.1866   45.6590 H   0  0  0  0  0  0  0  0  0  0  0  0
   59.8490   33.6590   46.2190 C   0  0  0  0  0  0  0  0  0  0  0  0
   59.3662   34.4686   45.6521 H   0  0  0  0  0  0  0  0  0  0  0  0
   61.0230   33.9120   46.9320 C   0  0  0  0  0  0  0  0  0  0  0  0
   61.4594   34.9217   46.9233 H   0  0  0  0  0  0  0  0  0  0  0  0
   61.6520   32.8870   47.6610 C   0  0  0  0  0  0  0  0  0  0  0  0
   62.8990   33.1730   48.4120 C   0  0  0  0  0  0  0  0  0  0  0  0
   62.9380   33.7960   49.6060 N   0  0  0  0  0  0  0  0  0  0  0  0
   64.2220   33.8510   49.9270 N   0  0  0  0  0  0  0  0  0  0  0  0
   64.9490   33.2860   48.9750 N   0  0  0  0  0  0  0  0  0  0  0  0
   64.1470   32.8560   48.0190 N   0  0  0  0  0  0  0  0  0  0  0  0
   64.4620   32.3710   47.1530 H   0  0  0  0  0  0  0  0  0  0  0  0
   61.0790   31.6020   47.6580 C   0  0  0  0  0  0  0  0  0  0  0  0
   61.5630   30.7885   48.2184 H   0  0  0  0  0  0  0  0  0  0  0  0
  1  2  1  0
  2  3  1  0
  2  4  2  0
  4  5  1  0
  5  6  2  0
  6  7  1  0
  6  8  1  0
  8  9  1  0
  9 10  1  0
 10 11  2  0
 10 12  1  0
 12 13  1  0
 13 14  1  0
  5 15  1  0
 15 16  1  0
 15 17  2  0
 17 18  1  0
 18 19  1  0
 18 20  1  0
 18 21  1  0
 17 22  1  0
 22 23  1  0
 23 24  2  0
 24 25  1  0
 24 26  1  0
 26 27  1  0
 26 28  2  0
 28 29  1  0
 28 30  1  0
 30 31  1  0
 31 32  2  0
 32 33  1  0
 33 34  1  0
 34 35  2  0
 35 36  1  0
 30 37  2  0
 37 38  1  0
 22  4  1  0
 37 23  1  0
 13  8  2  0
 35 31  1  0
M  CHG  5   9  -1  12  -1  14  -1  33  -1  35   1
M  END
>  <UniqueID>  (40) 
33

>  <SMILES>  (40) 
C=c1/c(=C/c2[n-]c(=O)[n-]c2[O-])cc(C)n1-c1cccc(-c2n[n-]n[nH+]2)c1

>  <Energy>  (40) 
153.94342198429143

>  <Genealogy>  (40) 
C=c1c(=Cc2[n-]c(=O)[n-]c2[O-])cc(C)n1-c1cccc(-c2n[n-]n[nH+]2)c1 (protonated)
C=c1/c(=C/c2[n-]c(=O)[n-]c2[O-])cc(C)n1-c1cccc(-c2n[n-]n[nH+]2)c1 (cis-trans isomerization)
C=c1/c(=C/c2[n-]c(=O)[n-]c2[O-])cc(C)n1-c1cccc(-c2n[n-]n[nH+]2)c1 (3D coordinates assigned)
C=c1/c(=C/c2[n-]c(=O)[n-]c2[O-])cc(C)n1-c1cccc(-c2n[n-]n[nH+]2)c1 (optimized conformer: 153.94342198429143 kcal/mol)

>  <smiles>  (40) 
C=c1c(=Cc2[nH]c(=O)[nH]c2O)cc(C)n1-c1cccc(-c2nn[nH]n2)c1

>  <score_type>  (40) 
oracle

>  <origin>  (40) 
adg

>  <m_score__min__energy>  (40) 
-16.239999999999998

>  <m_primary>  (40) 
energy

$$$$
40:0
     RDKit          3D

 59 62  0  0  0  0  0  0  0  0999 V2000
   57.3770   23.8180   45.0750 C   0  0  0  0  0  0  0  0  0  0  0  0
   56.7970   23.9120   46.7510 S   0  0  0  0  0  0  0  0  0  0  0  0
   55.3260   24.2020   46.7480 O   0  0  0  0  0  0  0  0  0  0  0  0
   57.0350   22.6020   47.4490 O   0  0  0  0  0  0  0  0  0  0  0  0
   57.6260   25.1800   47.5860 N   0  0  0  0  0  0  0  0  0  0  0  0
   58.0780   26.3370   46.8860 C   0  0  0  0  0  0  0  0  0  0  0  0
   59.4400   26.6470   46.8580 C   0  0  0  0  0  0  0  0  0  0  0  0
   59.8910   27.7700   46.1640 C   0  0  0  0  0  0  0  0  0  0  0  0
   58.9830   28.5840   45.4870 C   0  0  0  0  0  0  0  0  0  0  0  0
   57.6090   28.2830   45.4980 C   0  0  0  0  0  0  0  0  0  0  0  0
   56.6710   29.1090   44.7090 C   0  0  0  0  0  0  0  0  0  0  0  0
   55.4300   29.0340   44.9190 O   0  0  0  0  0  0  0  0  0  0  0  0
   57.1600   29.9950   43.6930 N   0  0  0  0  0  0  0  0  0  0  0  0
   57.7070   31.2850   43.9910 C   0  0  0  0  0  0  0  0  0  0  0  0
   57.9850   32.1890   42.9640 C   0  0  0  0  0  0  0  0  0  0  0  0
   58.4610   33.4290   43.2540 N   0  0  0  0  0  0  0  0  0  0  0  0
   58.6680   33.8350   44.5350 C   0  0  0  0  0  0  0  0  0  0  0  0
   58.3860   32.9760   45.6010 C   0  0  0  0  0  0  0  0  0  0  0  0
   58.5510   33.4370   46.9180 O   0  0  0  0  0  0  0  0  0  0  0  0
   59.7890   33.4900   47.5750 C   0  0  0  0  0  0  0  0  0  0  0  0
   59.8220   33.5400   48.9710 C   0  0  0  0  0  0  0  0  0  0  0  0
   61.0440   33.4430   49.6480 C   0  0  0  0  0  0  0  0  0  0  0  0
   62.2400   33.3140   48.9300 C   0  0  0  0  0  0  0  0  0  0  0  0
   63.7640   33.0440   49.7750 S   0  0  0  0  0  0  0  0  0  0  0  0
   63.8010   33.9060   51.0050 O   0  0  0  0  0  0  0  0  0  0  0  0
   64.9030   33.4580   48.8880 O   0  0  0  0  0  0  0  0  0  0  0  0
   63.9690   31.3690   50.2390 N   0  0  0  0  0  0  0  0  0  0  0  0
   62.7020   30.7130   50.6150 C   0  0  0  0  0  0  0  0  0  0  0  0
   62.3260   30.8630   52.1090 C   0  0  0  0  0  0  0  0  0  0  0  0
   63.4760   31.0190   53.0140 N   0  0  0  0  0  0  0  0  0  0  0  0
   64.6880   30.4260   52.4550 C   0  0  0  0  0  0  0  0  0  0  0  0
   65.0950   31.1610   51.1720 C   0  0  0  0  0  0  0  0  0  0  0  0
   62.2120   33.3670   47.5300 C   0  0  0  0  0  0  0  0  0  0  0  0
   60.9920   33.4600   46.8550 C   0  0  0  0  0  0  0  0  0  0  0  0
   57.8930   31.6930   45.3150 C   0  0  0  0  0  0  0  0  0  0  0  0
   57.1610   27.1550   46.2190 C   0  0  0  0  0  0  0  0  0  0  0  0
   55.8410   26.8490   46.2780 F   0  0  0  0  0  0  0  0  0  0  0  0
   58.4628   23.6420   45.0721 H   0  0  0  0  0  0  0  0  0  0  0  0
   56.8700   22.9903   44.5574 H   0  0  0  0  0  0  0  0  0  0  0  0
   57.1574   24.7635   44.5574 H   0  0  0  0  0  0  0  0  0  0  0  0
   60.1594   26.0032   47.3852 H   0  0  0  0  0  0  0  0  0  0  0  0
   60.9636   28.0137   46.1507 H   0  0  0  0  0  0  0  0  0  0  0  0
   59.3440   29.4678   44.9405 H   0  0  0  0  0  0  0  0  0  0  0  0
   57.8183   31.8970   41.9167 H   0  0  0  0  0  0  0  0  0  0  0  0
   59.0591   34.8438   44.7333 H   0  0  0  0  0  0  0  0  0  0  0  0
   58.8870   33.6557   49.5388 H   0  0  0  0  0  0  0  0  0  0  0  0
   61.0649   33.4682   50.7475 H   0  0  0  0  0  0  0  0  0  0  0  0
   61.8943   31.1518   50.0107 H   0  0  0  0  0  0  0  0  0  0  0  0
   62.8375   29.6370   50.4308 H   0  0  0  0  0  0  0  0  0  0  0  0
   61.6829   31.7492   52.2144 H   0  0  0  0  0  0  0  0  0  0  0  0
   61.8222   29.9296   52.4005 H   0  0  0  0  0  0  0  0  0  0  0  0
   63.6450   32.0370   53.1760 H   0  0  0  0  0  0  0  0  0  0  0  0
   65.5021   30.5018   53.1908 H   0  0  0  0  0  0  0  0  0  0  0  0
   64.4936   29.3698   52.2169 H   0  0  0  0  0  0  0  0  0  0  0  0
   65.5070   32.1431   51.4473 H   0  0  0  0  0  0  0  0  0  0  0  0
   65.8356   30.5324   50.6559 H   0  0  0  0  0  0  0  0  0  0  0  0
   63.1528   33.3353   46.9609 H   0  0  0  0  0  0  0  0  0  0  0  0
   60.9752   33.5098   45.7563 H   0  0  0  0  0  0  0  0  0  0  0  0
   57.6515   31.0044   46.1381 H   0  0  0  0  0  0  0  0  0  0  0  0
  1  2  1  0
  2  3  2  0
  2  4  2  0
  2  5  1  0
  5  6  1  0
  6  7  2  0
  7  8  1  0
  8  9  2  0
  9 10  1  0
 10 11  1  0
 11 12  2  0
 11 13  1  0
 13 14  1  0
 14 15  2  0
 15 16  1  0
 16 17  2  0
 17 18  1  0
 18 19  1  0
 19 20  1  0
 20 21  2  0
 21 22  1  0
 22 23  2  0
 23 24  1  0
 24 25  2  0
 24 26  2  0
 24 27  1  0
 27 28  1  0
 28 29  1  0
 29 30  1  0
 30 31  1  0
 31 32  1  0
 23 33  1  0
 33 34  2  0
 18 35  2  0
 10 36  2  0
 36 37  1  0
 36  6  1  0
 35 14  1  0
 34 20  1  0
 32 27  1  0
  1 38  1  0
  1 39  1  0
  1 40  1  0
  7 41  1  0
  8 42  1  0
  9 43  1  0
 15 44  1  0
 17 45  1  0
 21 46  1  0
 22 47  1  0
 28 48  1  0
 28 49  1  0
 29 50  1  0
 29 51  1  0
 30 52  1  0
 31 53  1  0
 31 54  1  0
 32 55  1  0
 32 56  1  0
 33 57  1  0
 34 58  1  0
 35 59  1  0
M  CHG  2   5  -1  13  -1
M  END
>  <UniqueID>  (41) 
34

>  <SMILES>  (41) 
CS(=O)(=O)[N-]c1cccc(C(=O)[N-]c2cncc(Oc3ccc(S(=O)(=O)N4CCNCC4)cc3)c2)c1F

>  <Energy>  (41) 
88.98568977271896

>  <Genealogy>  (41) 
CS(=O)(=O)[N-]c1cccc(C(=O)[N-]c2cncc(Oc3ccc(S(=O)(=O)N4CCNCC4)cc3)c2)c1F (protonated)
CS(=O)(=O)[N-]c1cccc(C(=O)[N-]c2cncc(Oc3ccc(S(=O)(=O)N4CCNCC4)cc3)c2)c1F (3D coordinates assigned)
CS(=O)(=O)[N-]c1cccc(C(=O)[N-]c2cncc(Oc3ccc(S(=O)(=O)N4CCNCC4)cc3)c2)c1F (nonaromatic ring conformer: 88.98568977271896 kcal/mol)

>  <smiles>  (41) 
CS(=O)(=O)Nc1cccc(C(=O)Nc2cncc(Oc3ccc(S(=O)(=O)N4CCNCC4)cc3)c2)c1F

>  <score_type>  (41) 
oracle

>  <origin>  (41) 
adg

>  <m_score__min__energy>  (41) 
-14.08

>  <m_primary>  (41) 
energy

$$$$
41:0
     RDKit          3D

 43 45  0  0  0  0  0  0  0  0999 V2000
   63.3080   33.5850   46.4140 C   0  0  0  0  0  0  0  0  0  0  0  0
   63.2650   33.3340   47.8920 C   0  0  0  0  0  0  0  0  0  0  0  0
   64.4400   33.2360   48.5720 N   0  0  0  0  0  0  0  0  0  0  0  0
   64.4870   33.0410   49.9170 C   0  0  0  0  0  0  0  0  0  0  0  0
   66.0380   32.9320   50.7290 S   0  0  0  0  0  0  0  0  0  0  0  0
   66.1670   34.2200   51.9490 C   0  0  0  0  0  0  0  0  0  0  0  0
   66.1680   31.5880   51.3890 O   0  0  0  0  0  0  0  0  0  0  0  0
   67.1440   33.0920   49.7230 O   0  0  0  0  0  0  0  0  0  0  0  0
   63.2990   32.9470   50.6470 C   0  0  0  0  0  0  0  0  0  0  0  0
   62.0770   33.0350   49.9790 C   0  0  0  0  0  0  0  0  0  0  0  0
   62.0450   33.2010   48.5920 C   0  0  0  0  0  0  0  0  0  0  0  0
   60.8000   33.2660   47.9510 O   0  0  0  0  0  0  0  0  0  0  0  0
   59.9950   32.1560   47.6490 C   0  0  0  0  0  0  0  0  0  0  0  0
   60.0730   31.0370   48.4780 C   0  0  0  0  0  0  0  0  0  0  0  0
   59.2920   29.9160   48.2020 C   0  0  0  0  0  0  0  0  0  0  0  0
   58.4540   29.9070   47.1310 N   0  0  0  0  0  0  0  0  0  0  0  0
   58.3460   30.9890   46.2960 C   0  0  0  0  0  0  0  0  0  0  0  0
   57.5570   30.9920   45.2560 N   0  0  0  0  0  0  0  0  0  0  0  0
   56.5740   30.0190   44.8670 C   0  0  0  0  0  0  0  0  0  0  0  0
   55.4990   30.3770   44.3140 O   0  0  0  0  0  0  0  0  0  0  0  0
   56.8590   28.5800   45.0210 C   0  0  0  0  0  0  0  0  0  0  0  0
   58.0640   28.0210   44.5640 C   0  0  0  0  0  0  0  0  0  0  0  0
   58.2930   26.6540   44.7320 C   0  0  0  0  0  0  0  0  0  0  0  0
   57.3290   25.8560   45.3480 C   0  0  0  0  0  0  0  0  0  0  0  0
   56.1410   26.4420   45.7930 C   0  0  0  0  0  0  0  0  0  0  0  0
   55.2590   25.7400   46.3520 O   0  0  0  0  0  0  0  0  0  0  0  0
   55.9360   27.7760   45.6200 N   0  0  0  0  0  0  0  0  0  0  0  0
   59.1380   32.1230   46.5330 C   0  0  0  0  0  0  0  0  0  0  0  0
   59.0830   33.1700   45.6690 F   0  0  0  0  0  0  0  0  0  0  0  0
   63.4911   34.6537   46.2288 H   0  0  0  0  0  0  0  0  0  0  0  0
   64.1175   32.9910   45.9646 H   0  0  0  0  0  0  0  0  0  0  0  0
   62.3470   33.2943   45.9646 H   0  0  0  0  0  0  0  0  0  0  0  0
   66.1227   33.7777   52.9552 H   0  0  0  0  0  0  0  0  0  0  0  0
   67.1227   34.7499   51.8231 H   0  0  0  0  0  0  0  0  0  0  0  0
   65.3354   34.9289   51.8231 H   0  0  0  0  0  0  0  0  0  0  0  0
   63.3269   32.8050   51.7374 H   0  0  0  0  0  0  0  0  0  0  0  0
   61.1363   32.9735   50.5459 H   0  0  0  0  0  0  0  0  0  0  0  0
   60.7483   31.0392   49.3463 H   0  0  0  0  0  0  0  0  0  0  0  0
   59.3539   29.0328   48.8548 H   0  0  0  0  0  0  0  0  0  0  0  0
   57.9370   29.0210   46.9520 H   0  0  0  0  0  0  0  0  0  0  0  0
   58.8205   28.6547   44.0781 H   0  0  0  0  0  0  0  0  0  0  0  0
   59.2336   26.2064   44.3786 H   0  0  0  0  0  0  0  0  0  0  0  0
   57.5019   24.7780   45.4819 H   0  0  0  0  0  0  0  0  0  0  0  0
  1  2  1  0
  2  3  2  0
  3  4  1  0
  4  5  1  0
  5  6  1  0
  5  7  2  0
  5  8  2  0
  4  9  2  0
  9 10  1  0
 10 11  2  0
 11 12  1  0
 12 13  1  0
 13 14  1  0
 14 15  2  0
 15 16  1  0
 16 17  1  0
 17 18  2  3
 18 19  1  0
 19 20  2  0
 19 21  1  0
 21 22  2  0
 22 23  1  0
 23 24  2  0
 24 25  1  0
 25 26  2  0
 25 27  1  0
 17 28  1  0
 28 29  1  0
 11  2  1  0
 28 13  2  0
 27 21  1  0
  1 30  1  0
  1 31  1  0
  1 32  1  0
  6 33  1  0
  6 34  1  0
  6 35  1  0
  9 36  1  0
 10 37  1  0
 14 38  1  0
 15 39  1  0
 16 40  1  0
 22 41  1  0
 23 42  1  0
 24 43  1  0
M  CHG  1  27  -1
M  END
>  <UniqueID>  (42) 
35

>  <SMILES>  (42) 
Cc1nc(S(C)(=O)=O)ccc1Oc1cc[nH]c(=NC(=O)c2cccc(=O)[n-]2)c1F

>  <Energy>  (42) 
60.16625565221725

>  <Genealogy>  (42) 
Cc1nc(S(C)(=O)=O)ccc1Oc1cc[nH]c(=NC(=O)c2cccc(=O)[n-]2)c1F (protonated)
Cc1nc(S(C)(=O)=O)ccc1Oc1cc[nH]c(=NC(=O)c2cccc(=O)[n-]2)c1F (3D coordinates assigned)
Cc1nc(S(C)(=O)=O)ccc1Oc1cc[nH]c(=NC(=O)c2cccc(=O)[n-]2)c1F (optimized conformer: 60.16625565221725 kcal/mol)

>  <smiles>  (42) 
Cc1nc(S(C)(=O)=O)ccc1Oc1cc[nH]c(=NC(=O)c2cccc(=O)[nH]2)c1F

>  <score_type>  (42) 
oracle

>  <origin>  (42) 
adg

>  <m_score__min__energy>  (42) 
-11.210000000000001

>  <m_primary>  (42) 
energy

$$$$
42:0
     RDKit          3D

 56 60  0  0  0  0  0  0  0  0999 V2000
   59.6060   27.1100   46.6830 C   0  0  0  0  0  0  0  0  0  0  0  0
   58.9250   27.9730   45.9140 C   0  0  0  0  0  0  0  0  0  0  0  0
   58.0060   27.6650   44.8960 C   0  0  0  0  0  0  0  0  0  0  0  0
   57.4490   26.4940   44.5300 C   0  0  0  0  0  0  0  0  0  0  0  0
   56.8590   25.5010   45.4420 C   0  0  0  0  0  0  0  0  0  0  0  0
   57.4910   24.3960   45.8800 N   0  0  0  0  0  0  0  0  0  0  0  0
   56.6490   23.9050   46.8140 C   0  0  0  0  0  0  0  0  0  0  0  0
   56.8860   22.8460   47.4510 O   0  0  0  0  0  0  0  0  0  0  0  0
   55.5360   24.6440   47.0200 N   0  0  0  0  0  0  0  0  0  0  0  0
   55.6950   25.6570   46.1530 C   0  0  0  0  0  0  0  0  0  0  0  0
   54.7880   26.7020   46.0060 O   0  0  0  0  0  0  0  0  0  0  0  0
   57.7070   28.8650   44.2680 C   0  0  0  0  0  0  0  0  0  0  0  0
   58.3950   29.8530   44.9400 C   0  0  0  0  0  0  0  0  0  0  0  0
   58.3280   31.3140   44.6140 C   0  0  0  0  0  0  0  0  0  0  0  0
   59.1230   29.3170   45.9450 N   0  0  0  0  0  0  0  0  0  0  0  0
   60.0200   30.0490   46.7980 C   0  0  0  0  0  0  0  0  0  0  0  0
   61.3660   30.2000   46.4430 C   0  0  0  0  0  0  0  0  0  0  0  0
   62.2260   30.9500   47.2490 C   0  0  0  0  0  0  0  0  0  0  0  0
   61.7560   31.5570   48.4270 C   0  0  0  0  0  0  0  0  0  0  0  0
   62.6850   32.3720   49.2530 C   0  0  0  0  0  0  0  0  0  0  0  0
   63.3630   31.7860   50.1390 O   0  0  0  0  0  0  0  0  0  0  0  0
   62.8560   33.7990   49.0270 N   0  0  1  0  0  0  0  0  0  0  0  0
   63.3410   34.1300   47.6720 C   0  0  0  0  0  0  0  0  0  0  0  0
   62.3210   33.8430   46.5540 C   0  0  0  0  0  0  0  0  0  0  0  0
   60.9240   34.1290   46.9160 N   0  0  0  0  0  0  0  0  0  0  0  0
   59.9700   33.9450   45.7910 C   0  0  0  0  0  0  0  0  0  0  0  0
   58.4990   34.2060   46.0680 C   0  0  0  0  0  0  0  0  0  0  0  0
   59.3120   35.1920   45.2280 C   0  0  0  0  0  0  0  0  0  0  0  0
   60.5770   34.4360   48.2940 C   0  0  0  0  0  0  0  0  0  0  0  0
   59.3930   34.6950   48.6330 O   0  0  0  0  0  0  0  0  0  0  0  0
   61.6330   34.5530   49.3530 C   0  0  0  0  0  0  0  0  0  0  0  0
   60.3990   31.4070   48.7710 C   0  0  0  0  0  0  0  0  0  0  0  0
   59.5390   30.6630   47.9600 C   0  0  0  0  0  0  0  0  0  0  0  0
   60.2998   27.4855   47.4496 H   0  0  0  0  0  0  0  0  0  0  0  0
   59.4706   26.0269   46.5469 H   0  0  0  0  0  0  0  0  0  0  0  0
   57.4339   26.2597   43.4554 H   0  0  0  0  0  0  0  0  0  0  0  0
   57.0466   29.0023   43.3991 H   0  0  0  0  0  0  0  0  0  0  0  0
   58.3013   31.8969   45.5465 H   0  0  0  0  0  0  0  0  0  0  0  0
   59.2140   31.6000   44.0281 H   0  0  0  0  0  0  0  0  0  0  0  0
   57.4196   31.5177   44.0281 H   0  0  0  0  0  0  0  0  0  0  0  0
   61.7476   29.7265   45.5264 H   0  0  0  0  0  0  0  0  0  0  0  0
   63.2807   31.0668   46.9593 H   0  0  0  0  0  0  0  0  0  0  0  0
   63.6080   34.1400   49.6710 H   0  0  0  0  0  0  0  0  0  0  0  0
   63.5905   35.2010   47.6460 H   0  0  0  0  0  0  0  0  0  0  0  0
   64.2128   33.4872   47.4802 H   0  0  0  0  0  0  0  0  0  0  0  0
   62.5836   34.4604   45.6823 H   0  0  0  0  0  0  0  0  0  0  0  0
   62.3768   32.7638   46.3485 H   0  0  0  0  0  0  0  0  0  0  0  0
   60.5403   33.1066   45.3644 H   0  0  0  0  0  0  0  0  0  0  0  0
   57.7295   33.5806   45.5918 H   0  0  0  0  0  0  0  0  0  0  0  0
   57.8774   34.2802   46.9725 H   0  0  0  0  0  0  0  0  0  0  0  0
   59.1276   35.2769   44.1469 H   0  0  0  0  0  0  0  0  0  0  0  0
   59.5186   36.2713   45.2767 H   0  0  0  0  0  0  0  0  0  0  0  0
   61.8959   35.6146   49.4712 H   0  0  0  0  0  0  0  0  0  0  0  0
   61.2201   34.1286   50.2801 H   0  0  0  0  0  0  0  0  0  0  0  0
   60.0129   31.8797   49.6861 H   0  0  0  0  0  0  0  0  0  0  0  0
   58.4792   30.5592   48.2358 H   0  0  0  0  0  0  0  0  0  0  0  0
  1  2  2  0
  2  3  1  0
  3  4  2  3
  4  5  1  0
  5  6  1  0
  6  7  1  0
  7  8  2  0
  7  9  1  0
  9 10  1  0
 10 11  1  0
  3 12  1  0
 12 13  2  0
 13 14  1  0
 13 15  1  0
 15 16  1  0
 16 17  2  0
 17 18  1  0
 18 19  2  0
 19 20  1  0
 20 21  2  0
 20 22  1  0
 22 23  1  0
 23 24  1  0
 24 25  1  0
 25 26  1  0
 26 27  1  0
 27 28  1  0
 25 29  1  0
 29 30  2  0
 29 31  1  0
 19 32  1  0
 32 33  2  0
 15  2  1  0
 33 16  1  0
 10  5  2  0
 31 22  1  0
 28 26  1  0
  1 34  1  0
  1 35  1  0
  4 36  1  0
 12 37  1  0
 14 38  1  0
 14 39  1  0
 14 40  1  0
 17 41  1  0
 18 42  1  0
 22 43  1  1
 23 44  1  0
 23 45  1  0
 24 46  1  0
 24 47  1  0
 26 48  1  0
 27 49  1  0
 27 50  1  0
 28 51  1  0
 28 52  1  0
 31 53  1  0
 31 54  1  0
 32 55  1  0
 33 56  1  0
M  CHG  4   6  -1   9  -1  11  -1  22   1
M  END
>  <UniqueID>  (43) 
36

>  <SMILES>  (43) 
C=c1c(=Cc2[n-]c(=O)[n-]c2[O-])cc(C)n1-c1ccc(C(=O)[N@H+]2CCN(C3CC3)C(=O)C2)cc1

>  <Energy>  (43) 
420.11943882341075

>  <Genealogy>  (43) 
C=c1c(=Cc2[n-]c(=O)[n-]c2[O-])cc(C)n1-c1ccc(C(=O)[NH+]2CCN(C3CC3)C(=O)C2)cc1 (protonated)
C=c1c(=Cc2[n-]c(=O)[n-]c2[O-])cc(C)n1-c1ccc(C(=O)[N@H+]2CCN(C3CC3)C(=O)C2)cc1 (chirality)
C=c1c(=Cc2[n-]c(=O)[n-]c2[O-])cc(C)n1-c1ccc(C(=O)[N@H+]2CCN(C3CC3)C(=O)C2)cc1 (3D coordinates assigned)
C=c1c(=Cc2[n-]c(=O)[n-]c2[O-])cc(C)n1-c1ccc(C(=O)[N@H+]2CCN(C3CC3)C(=O)C2)cc1 (nonaromatic ring conformer: 420.11943882341075 kcal/mol)

>  <smiles>  (43) 
C=c1c(=Cc2[nH]c(=O)[nH]c2O)cc(C)n1-c1ccc(C(=O)N2CCN(C3CC3)C(=O)C2)cc1

>  <score_type>  (43) 
oracle

>  <origin>  (43) 
adg

>  <m_score__min__energy>  (43) 
-15.26

>  <m_primary>  (43) 
energy

$$$$
43:0
     RDKit          3D

 65 68  0  0  0  0  0  0  0  0999 V2000
   56.8526   34.9301   45.8697 H   0  0  0  0  0  0  0  0  0  0  0  0
   57.4960   34.0380   45.8570 C   0  0  0  0  0  0  0  0  0  0  0  0
   58.6040   33.9660   46.7030 C   0  0  0  0  0  0  0  0  0  0  0  0
   58.8215   34.7959   47.3914 H   0  0  0  0  0  0  0  0  0  0  0  0
   59.4400   32.8430   46.6800 C   0  0  0  0  0  0  0  0  0  0  0  0
   60.5980   32.8210   47.5220 N   0  0  0  0  0  0  0  0  0  0  0  0
   60.6780   33.2370   48.8940 C   0  0  0  0  0  0  0  0  0  0  0  0
   59.6170   33.5850   49.4740 O   0  0  0  0  0  0  0  0  0  0  0  0
   61.9870   33.3590   49.6350 C   0  0  0  0  0  0  0  0  0  0  0  0
   61.9429   32.7403   50.5434 H   0  0  0  0  0  0  0  0  0  0  0  0
   62.1425   34.4176   49.8905 H   0  0  0  0  0  0  0  0  0  0  0  0
   63.1380   32.9040   48.7910 C   0  0  0  0  0  0  0  0  0  0  0  0
   63.5830   31.7290   48.9160 O   0  0  0  0  0  0  0  0  0  0  0  0
   63.7100   33.7870   47.8750 O   0  0  0  0  0  0  0  0  0  0  0  0
   63.4080   33.7620   46.4840 C   0  0  0  0  0  0  0  0  0  0  0  0
   62.3203   33.6720   46.3465 H   0  0  0  0  0  0  0  0  0  0  0  0
   63.7611   34.6924   46.0154 H   0  0  0  0  0  0  0  0  0  0  0  0
   63.9092   32.9023   46.0154 H   0  0  0  0  0  0  0  0  0  0  0  0
   59.1070   31.7530   45.8620 C   0  0  0  0  0  0  0  0  0  0  0  0
   59.7161   30.8376   45.8958 H   0  0  0  0  0  0  0  0  0  0  0  0
   58.0000   31.8240   45.0000 C   0  0  0  0  0  0  0  0  0  0  0  0
   57.7320   30.7060   44.0280 C   0  0  0  0  0  0  0  0  0  0  0  0
   57.5883   31.1226   43.0201 H   0  0  0  0  0  0  0  0  0  0  0  0
   58.5870   30.0139   44.0195 H   0  0  0  0  0  0  0  0  0  0  0  0
   56.4960   29.9690   44.4450 C   0  0  0  0  0  0  0  0  0  0  0  0
   55.3910   30.5770   44.4740 O   0  0  0  0  0  0  0  0  0  0  0  0
   56.6040   28.5930   44.8570 N   0  0  0  0  0  0  0  0  0  0  0  0
   57.4840   28.1090   45.6810 C   0  0  0  0  0  0  0  0  0  0  0  0
   57.1800   27.4770   46.8390 N   0  0  0  0  0  0  0  0  0  0  0  0
   58.2600   27.1350   47.5390 N   0  0  0  0  0  0  0  0  0  0  0  0
   59.4180   27.5160   46.9550 C   0  0  0  0  0  0  0  0  0  0  0  0
   60.7670   27.2210   47.5350 C   0  0  0  0  0  0  0  0  0  0  0  0
   61.0245   26.1721   47.3266 H   0  0  0  0  0  0  0  0  0  0  0  0
   61.4981   27.9015   47.0742 H   0  0  0  0  0  0  0  0  0  0  0  0
   60.7860   27.4470   49.0480 C   0  0  0  0  0  0  0  0  0  0  0  0
   60.5176   26.5088   49.5557 H   0  0  0  0  0  0  0  0  0  0  0  0
   61.7960   27.7680   49.3428 H   0  0  0  0  0  0  0  0  0  0  0  0
   59.5930   28.7520   49.5290 S   0  0  0  0  0  0  0  0  0  0  0  0
   60.0810   28.8060   51.2900 C   0  0  0  0  0  0  0  0  0  0  0  0
   59.4516   28.1107   51.8648 H   0  0  0  0  0  0  0  0  0  0  0  0
   61.1372   28.5134   51.3833 H   0  0  0  0  0  0  0  0  0  0  0  0
   59.9000   30.2220   51.8340 C   0  0  0  0  0  0  0  0  0  0  0  0
   60.5022   30.3364   52.7474 H   0  0  0  0  0  0  0  0  0  0  0  0
   60.2271   30.9378   51.0655 H   0  0  0  0  0  0  0  0  0  0  0  0
   58.4650   30.4910   52.1570 C   0  0  0  0  0  0  0  0  0  0  0  0
   57.9630   31.7250   52.3890 N   0  0  0  0  0  0  0  0  0  0  0  0
   56.6540   31.7240   52.6410 N   0  0  0  0  0  0  0  0  0  0  0  0
   56.1050   30.4900   52.6030 C   0  0  0  0  0  0  0  0  0  0  0  0
   54.8420   30.2910   52.8440 N   0  0  0  0  0  0  0  0  0  0  0  0
   53.7290   31.0100   52.2900 C   0  0  0  0  0  0  0  0  0  0  0  0
   53.8390   32.2070   51.9200 O   0  0  0  0  0  0  0  0  0  0  0  0
   52.4190   30.3100   52.1230 C   0  0  0  0  0  0  0  0  0  0  0  0
   52.5925   29.2263   52.0491 H   0  0  0  0  0  0  0  0  0  0  0  0
   51.7808   30.5288   52.9918 H   0  0  0  0  0  0  0  0  0  0  0  0
   51.7340   30.7880   50.8790 C   0  0  0  0  0  0  0  0  0  0  0  0
   51.6920   30.0970   49.7250 N   0  0  0  0  0  0  0  0  0  0  0  0
   51.0270   30.9280   48.8920 C   0  0  0  0  0  0  0  0  0  0  0  0
   50.7740   30.6260   47.6970 O   0  0  0  0  0  0  0  0  0  0  0  0
   50.6530   32.1040   49.4410 N   0  0  0  0  0  0  0  0  0  0  0  0
   51.1160   32.0010   50.6960 C   0  0  0  0  0  0  0  0  0  0  0  0
   50.9800   32.9980   51.6560 O   0  0  0  0  0  0  0  0  0  0  0  0
   57.2620   29.3130   52.2440 S   0  0  0  0  0  0  0  0  0  0  0  0
   59.1410   28.2870   45.4790 S   0  0  0  0  0  0  0  0  0  0  0  0
   57.2030   32.9800   44.9950 C   0  0  0  0  0  0  0  0  0  0  0  0
   56.3454   33.0520   44.3099 H   0  0  0  0  0  0  0  0  0  0  0  0
  1  2  1  0
  2  3  2  0
  3  4  1  0
  3  5  1  0
  5  6  1  0
  6  7  1  0
  7  8  2  0
  7  9  1  0
  9 10  1  0
  9 11  1  0
  9 12  1  0
 12 13  2  0
 12 14  1  0
 14 15  1  0
 15 16  1  0
 15 17  1  0
 15 18  1  0
  5 19  2  0
 19 20  1  0
 19 21  1  0
 21 22  1  0
 22 23  1  0
 22 24  1  0
 22 25  1  0
 25 26  2  0
 25 27  1  0
 27 28  2  0
 28 29  1  0
 29 30  1  0
 30 31  2  0
 31 32  1  0
 32 33  1  0
 32 34  1  0
 32 35  1  0
 35 36  1  0
 35 37  1  0
 35 38  1  0
 38 39  1  0
 39 40  1  0
 39 41  1  0
 39 42  1  0
 42 43  1  0
 42 44  1  0
 42 45  1  0
 45 46  2  0
 46 47  1  0
 47 48  1  0
 48 49  2  3
 49 50  1  0
 50 51  2  0
 50 52  1  0
 52 53  1  0
 52 54  1  0
 52 55  1  0
 55 56  1  0
 56 57  1  0
 57 58  2  0
 57 59  1  0
 59 60  1  0
 60 61  1  0
 48 62  1  0
 31 63  1  0
 21 64  2  0
 64 65  1  0
 64  2  1  0
 63 28  1  0
 62 45  1  0
 60 55  2  0
M  CHG  6   6  -1  29  -1  47  -1  56  -1  59  -1  61  -1
M  END
>  <UniqueID>  (44) 
37

>  <SMILES>  (44) 
COC(=O)CC(=O)[N-]c1cccc(CC(=O)/N=c2\[n-]nc(CCSCCc3n[n-]c(=NC(=O)Cc4[n-]c(=O)[n-]c4[O-])s3)s2)c1

>  <Energy>  (44) 
158.6729827521055

>  <Genealogy>  (44) 
COC(=O)CC(=O)[N-]c1cccc(CC(=O)N=c2[n-]nc(CCSCCc3n[n-]c(=NC(=O)Cc4[n-]c(=O)[n-]c4[O-])s3)s2)c1 (protonated)
COC(=O)CC(=O)[N-]c1cccc(CC(=O)/N=c2\[n-]nc(CCSCCc3n[n-]c(=NC(=O)Cc4[n-]c(=O)[n-]c4[O-])s3)s2)c1 (cis-trans isomerization)
COC(=O)CC(=O)[N-]c1cccc(CC(=O)/N=c2\[n-]nc(CCSCCc3n[n-]c(=NC(=O)Cc4[n-]c(=O)[n-]c4[O-])s3)s2)c1 (3D coordinates assigned)
COC(=O)CC(=O)[N-]c1cccc(CC(=O)/N=c2\[n-]nc(CCSCCc3n[n-]c(=NC(=O)Cc4[n-]c(=O)[n-]c4[O-])s3)s2)c1 (optimized conformer: 158.6729827521055 kcal/mol)

>  <smiles>  (44) 
COC(=O)CC(=O)Nc1cccc(CC(=O)N=c2[nH]nc(CCSCCc3n[nH]c(=NC(=O)Cc4[nH]c(=O)[nH]c4O)s3)s2)c1

>  <score_type>  (44) 
oracle

>  <origin>  (44) 
adg

>  <m_score__min__energy>  (44) 
-24.780000000000001

>  <m_primary>  (44) 
energy

$$$$
44:0
     RDKit          3D

 65 69  0  0  0  0  0  0  0  0999 V2000
   56.9590   30.7220   43.9750 C   0  0  0  0  0  0  0  0  0  0  0  0
   57.0420   31.3990   45.2240 O   0  0  0  0  0  0  0  0  0  0  0  0
   57.9640   32.4170   45.5200 C   0  0  0  0  0  0  0  0  0  0  0  0
   58.0370   33.6000   44.7570 C   0  0  0  0  0  0  0  0  0  0  0  0
   58.9870   34.5800   45.0640 C   0  0  0  0  0  0  0  0  0  0  0  0
   59.8680   34.3920   46.1300 C   0  0  0  0  0  0  0  0  0  0  0  0
   59.8020   33.2280   46.8950 C   0  0  0  0  0  0  0  0  0  0  0  0
   58.8490   32.2380   46.6020 C   0  0  0  0  0  0  0  0  0  0  0  0
   58.7940   31.0420   47.3970 N   0  0  0  0  0  0  0  0  0  0  0  0
   58.4990   31.1450   48.8340 C   0  0  0  0  0  0  0  0  0  0  0  0
   58.5880   29.7770   49.5160 C   0  0  0  0  0  0  0  0  0  0  0  0
   59.7900   29.0740   49.0490 N   0  0  0  0  0  0  0  0  0  0  0  0
   60.7270   28.4820   49.9680 C   0  0  0  0  0  0  0  0  0  0  0  0
   61.2160   27.3490   49.7060 O   0  0  0  0  0  0  0  0  0  0  0  0
   61.2540   29.2440   51.1550 C   0  0  0  0  0  0  0  0  0  0  0  0
   62.3380   30.1560   50.7490 N   0  0  0  0  0  0  0  0  0  0  0  0
   62.1250   31.0010   49.6950 C   0  0  0  0  0  0  0  0  0  0  0  0
   63.1200   31.8710   49.2480 C   0  0  0  0  0  0  0  0  0  0  0  0
   62.7410   32.9510   47.8570 S   0  0  0  0  0  0  0  0  0  0  0  0
   62.4860   34.4150   48.9110 C   0  0  0  0  0  0  0  0  0  0  0  0
   61.6090   34.0480   50.0700 C   0  0  0  0  0  0  0  0  0  0  0  0
   60.2300   33.8580   49.8840 C   0  0  0  0  0  0  0  0  0  0  0  0
   59.4190   33.4840   50.9600 C   0  0  0  0  0  0  0  0  0  0  0  0
   59.9790   33.2860   52.2250 C   0  0  0  0  0  0  0  0  0  0  0  0
   61.3560   33.4560   52.4160 C   0  0  0  0  0  0  0  0  0  0  0  0
   62.0600   33.1970   54.0010 Cl  0  0  0  0  0  0  0  0  0  0  0  0
   62.1700   33.8310   51.3410 C   0  0  0  0  0  0  0  0  0  0  0  0
   64.3720   31.8760   49.8930 C   0  0  0  0  0  0  0  0  0  0  0  0
   65.4130   32.7360   49.4880 C   0  0  0  0  0  0  0  0  0  0  0  0
   66.6460   32.7150   50.1430 C   0  0  0  0  0  0  0  0  0  0  0  0
   66.8610   31.8400   51.2060 C   0  0  0  0  0  0  0  0  0  0  0  0
   65.8440   30.9800   51.6230 C   0  0  0  0  0  0  0  0  0  0  0  0
   64.5920   30.9880   50.9760 C   0  0  0  0  0  0  0  0  0  0  0  0
   63.5520   30.1290   51.3860 C   0  0  0  0  0  0  0  0  0  0  0  0
   63.7430   29.3300   52.3460 O   0  0  0  0  0  0  0  0  0  0  0  0
   60.0260   28.9220   47.6060 C   0  0  0  0  0  0  0  0  0  0  0  0
   59.0160   29.7280   46.7780 C   0  0  0  0  0  0  0  0  0  0  0  0
   56.8269   29.6441   44.1503 H   0  0  0  0  0  0  0  0  0  0  0  0
   56.1015   31.1086   43.4047 H   0  0  0  0  0  0  0  0  0  0  0  0
   57.8845   30.8900   43.4047 H   0  0  0  0  0  0  0  0  0  0  0  0
   57.3440   33.7533   43.9166 H   0  0  0  0  0  0  0  0  0  0  0  0
   59.0397   35.5005   44.4641 H   0  0  0  0  0  0  0  0  0  0  0  0
   60.6156   35.1633   46.3671 H   0  0  0  0  0  0  0  0  0  0  0  0
   60.5001   33.0840   47.7328 H   0  0  0  0  0  0  0  0  0  0  0  0
   59.2245   31.8270   49.3014 H   0  0  0  0  0  0  0  0  0  0  0  0
   57.4748   31.5281   48.9532 H   0  0  0  0  0  0  0  0  0  0  0  0
   58.6435   29.9137   50.6061 H   0  0  0  0  0  0  0  0  0  0  0  0
   57.6960   29.1839   49.2656 H   0  0  0  0  0  0  0  0  0  0  0  0
   60.4364   29.8303   51.5997 H   0  0  0  0  0  0  0  0  0  0  0  0
   61.6514   28.5264   51.8879 H   0  0  0  0  0  0  0  0  0  0  0  0
   61.1484   30.9946   49.1888 H   0  0  0  0  0  0  0  0  0  0  0  0
   63.4572   34.7720   49.2844 H   0  0  0  0  0  0  0  0  0  0  0  0
   62.0046   35.2109   48.3238 H   0  0  0  0  0  0  0  0  0  0  0  0
   59.7862   34.0039   48.8881 H   0  0  0  0  0  0  0  0  0  0  0  0
   58.3381   33.3454   50.8104 H   0  0  0  0  0  0  0  0  0  0  0  0
   59.3381   32.9966   53.0709 H   0  0  0  0  0  0  0  0  0  0  0  0
   63.2525   33.9564   51.4909 H   0  0  0  0  0  0  0  0  0  0  0  0
   65.2527   33.4293   48.6491 H   0  0  0  0  0  0  0  0  0  0  0  0
   67.4504   33.3916   49.8187 H   0  0  0  0  0  0  0  0  0  0  0  0
   67.8347   31.8271   51.7177 H   0  0  0  0  0  0  0  0  0  0  0  0
   66.0208   30.2913   52.4623 H   0  0  0  0  0  0  0  0  0  0  0  0
   61.0413   29.2746   47.3717 H   0  0  0  0  0  0  0  0  0  0  0  0
   59.9091   27.8588   47.3494 H   0  0  0  0  0  0  0  0  0  0  0  0
   59.4079   29.8666   45.7596 H   0  0  0  0  0  0  0  0  0  0  0  0
   58.0624   29.1811   46.7394 H   0  0  0  0  0  0  0  0  0  0  0  0
  1  2  1  0
  2  3  1  0
  3  4  2  0
  4  5  1  0
  5  6  2  0
  6  7  1  0
  7  8  2  0
  8  9  1  0
  9 10  1  0
 10 11  1  0
 11 12  1  0
 12 13  1  0
 13 14  2  0
 13 15  1  0
 15 16  1  0
 16 17  1  0
 17 18  2  0
 18 19  1  0
 19 20  1  0
 20 21  1  0
 21 22  2  0
 22 23  1  0
 23 24  2  0
 24 25  1  0
 25 26  1  0
 25 27  2  0
 18 28  1  0
 28 29  2  0
 29 30  1  0
 30 31  2  0
 31 32  1  0
 32 33  2  0
 33 34  1  0
 34 35  2  0
 12 36  1  0
 36 37  1  0
  8  3  1  0
 37  9  1  0
 34 16  1  0
 27 21  1  0
 33 28  1  0
  1 38  1  0
  1 39  1  0
  1 40  1  0
  4 41  1  0
  5 42  1  0
  6 43  1  0
  7 44  1  0
 10 45  1  0
 10 46  1  0
 11 47  1  0
 11 48  1  0
 15 49  1  0
 15 50  1  0
 17 51  1  0
 20 52  1  0
 20 53  1  0
 22 54  1  0
 23 55  1  0
 24 56  1  0
 27 57  1  0
 29 58  1  0
 30 59  1  0
 31 60  1  0
 32 61  1  0
 36 62  1  0
 36 63  1  0
 37 64  1  0
 37 65  1  0
M  END
>  <UniqueID>  (45) 
38

>  <SMILES>  (45) 
COc1ccccc1N1CCN(C(=O)Cn2cc(SCc3cccc(Cl)c3)c3ccccc3c2=O)CC1

>  <Energy>  (45) 
81.31275241297315

>  <Genealogy>  (45) 
COc1ccccc1N1CCN(C(=O)Cn2cc(SCc3cccc(Cl)c3)c3ccccc3c2=O)CC1 (3D coordinates assigned)
COc1ccccc1N1CCN(C(=O)Cn2cc(SCc3cccc(Cl)c3)c3ccccc3c2=O)CC1 (nonaromatic ring conformer: 81.31275241297315 kcal/mol)

>  <smiles>  (45) 
COc1ccccc1N1CCN(C(=O)Cn2cc(SCc3cccc(Cl)c3)c3ccccc3c2=O)CC1

>  <score_type>  (45) 
oracle

>  <origin>  (45) 
adg

>  <m_score__min__energy>  (45) 
-10

>  <m_primary>  (45) 
energy

$$$$
45:0
     RDKit          3D

 62 65  0  0  0  0  0  0  0  0999 V2000
   56.6360   32.1130   52.3360 C   0  0  0  0  0  0  0  0  0  0  0  0
   55.8640   30.8510   51.9830 C   0  0  0  0  0  0  0  0  0  0  0  0
   56.7600   29.7480   51.9100 O   0  0  0  0  0  0  0  0  0  0  0  0
   58.1160   29.8480   51.5630 C   0  0  0  0  0  0  0  0  0  0  0  0
   59.0690   29.8080   52.5860 C   0  0  0  0  0  0  0  0  0  0  0  0
   60.4330   29.9090   52.2890 C   0  0  0  0  0  0  0  0  0  0  0  0
   60.8650   30.0510   50.9660 C   0  0  0  0  0  0  0  0  0  0  0  0
   62.2460   30.1490   50.7240 O   0  0  0  0  0  0  0  0  0  0  0  0
   62.9910   31.3660   50.7120 C   0  0  0  0  0  0  0  0  0  0  0  0
   63.0660   31.9280   49.3240 C   0  0  0  0  0  0  0  0  0  0  0  0
   64.0720   31.7110   48.5060 O   0  0  0  0  0  0  0  0  0  0  0  0
   63.9050   32.3570   47.3900 N   0  0  0  0  0  0  0  0  0  0  0  0
   62.7430   33.0330   47.4640 C   0  0  0  0  0  0  0  0  0  0  0  0
   62.1870   33.8840   46.3690 C   0  0  0  0  0  0  0  0  0  0  0  0
   62.1610   32.7750   48.6930 C   0  0  0  0  0  0  0  0  0  0  0  0
   60.8860   33.3140   49.2050 C   0  0  0  0  0  0  0  0  0  0  0  0
   60.9130   34.1760   50.1240 O   0  0  0  0  0  0  0  0  0  0  0  0
   59.6140   32.8660   48.7150 N   0  0  0  0  0  0  0  0  0  0  0  0
   59.0980   33.0450   47.3890 C   0  0  0  0  0  0  0  0  0  0  0  0
   59.0530   34.3370   46.8540 C   0  0  0  0  0  0  0  0  0  0  0  0
   58.5340   34.5530   45.5760 C   0  0  0  0  0  0  0  0  0  0  0  0
   58.0630   33.4790   44.8190 C   0  0  0  0  0  0  0  0  0  0  0  0
   58.1410   32.1740   45.3240 C   0  0  0  0  0  0  0  0  0  0  0  0
   57.5720   30.8080   44.3630 S   0  0  0  0  0  0  0  0  0  0  0  0
   56.2100   30.4060   44.8570 O   0  0  0  0  0  0  0  0  0  0  0  0
   57.4270   31.2440   42.9320 O   0  0  0  0  0  0  0  0  0  0  0  0
   58.6430   29.4220   44.4430 N   0  0  0  0  0  0  0  0  0  0  0  0
   58.0580   28.2090   43.8320 C   0  0  0  0  0  0  0  0  0  0  0  0
   57.5240   27.2110   44.8730 C   0  0  0  0  0  0  0  0  0  0  0  0
   57.0690   27.8910   46.0190 O   0  0  0  0  0  0  0  0  0  0  0  0
   58.1650   28.4530   46.7170 C   0  0  0  0  0  0  0  0  0  0  0  0
   59.1680   29.1930   45.7990 C   0  0  0  0  0  0  0  0  0  0  0  0
   58.6660   31.9600   46.6060 C   0  0  0  0  0  0  0  0  0  0  0  0
   59.9060   30.0920   49.9320 C   0  0  0  0  0  0  0  0  0  0  0  0
   58.5450   29.9870   50.2280 C   0  0  0  0  0  0  0  0  0  0  0  0
   56.6965   32.2119   53.4299 H   0  0  0  0  0  0  0  0  0  0  0  0
   57.6511   32.0512   51.9167 H   0  0  0  0  0  0  0  0  0  0  0  0
   56.1188   32.9886   51.9167 H   0  0  0  0  0  0  0  0  0  0  0  0
   55.1066   30.6568   52.7567 H   0  0  0  0  0  0  0  0  0  0  0  0
   55.3699   30.9853   51.0094 H   0  0  0  0  0  0  0  0  0  0  0  0
   58.7443   29.6964   53.6310 H   0  0  0  0  0  0  0  0  0  0  0  0
   61.1720   29.8764   53.1032 H   0  0  0  0  0  0  0  0  0  0  0  0
   62.4996   32.0967   51.3713 H   0  0  0  0  0  0  0  0  0  0  0  0
   64.0120   31.1591   51.0653 H   0  0  0  0  0  0  0  0  0  0  0  0
   64.5710   32.3400   46.5850 H   0  0  0  0  0  0  0  0  0  0  0  0
   61.6348   34.7291   46.8059 H   0  0  0  0  0  0  0  0  0  0  0  0
   63.0103   34.2659   45.7475 H   0  0  0  0  0  0  0  0  0  0  0  0
   61.5065   33.2834   45.7475 H   0  0  0  0  0  0  0  0  0  0  0  0
   59.4283   35.1867   47.4431 H   0  0  0  0  0  0  0  0  0  0  0  0
   58.4962   35.5724   45.1645 H   0  0  0  0  0  0  0  0  0  0  0  0
   57.6296   33.6573   43.8238 H   0  0  0  0  0  0  0  0  0  0  0  0
   57.2271   28.5117   43.1778 H   0  0  0  0  0  0  0  0  0  0  0  0
   58.8582   27.7037   43.2713 H   0  0  0  0  0  0  0  0  0  0  0  0
   56.6908   26.6419   44.4349 H   0  0  0  0  0  0  0  0  0  0  0  0
   58.3373   26.5294   45.1628 H   0  0  0  0  0  0  0  0  0  0  0  0
   57.7767   29.1686   47.4567 H   0  0  0  0  0  0  0  0  0  0  0  0
   58.7099   27.6212   47.1873 H   0  0  0  0  0  0  0  0  0  0  0  0
   59.4059   30.1667   46.2522 H   0  0  0  0  0  0  0  0  0  0  0  0
   60.0600   28.5563   45.7042 H   0  0  0  0  0  0  0  0  0  0  0  0
   58.7405   30.9365   47.0021 H   0  0  0  0  0  0  0  0  0  0  0  0
   60.2317   30.2072   48.8877 H   0  0  0  0  0  0  0  0  0  0  0  0
   57.8045   30.0129   49.4150 H   0  0  0  0  0  0  0  0  0  0  0  0
  1  2  1  0
  2  3  1  0
  3  4  1  0
  4  5  2  0
  5  6  1  0
  6  7  2  0
  7  8  1  0
  8  9  1  0
  9 10  1  0
 10 11  1  0
 11 12  1  0
 12 13  2  0
 13 14  1  0
 13 15  1  0
 15 16  1  0
 16 17  2  0
 16 18  1  0
 18 19  1  0
 19 20  2  0
 20 21  1  0
 21 22  2  0
 22 23  1  0
 23 24  1  0
 24 25  2  0
 24 26  2  0
 24 27  1  0
 27 28  1  0
 28 29  1  0
 29 30  1  0
 30 31  1  0
 31 32  1  0
 23 33  2  0
  7 34  1  0
 34 35  2  0
 35  4  1  0
 15 10  2  0
 33 19  1  0
 32 27  1  0
  1 36  1  0
  1 37  1  0
  1 38  1  0
  2 39  1  0
  2 40  1  0
  5 41  1  0
  6 42  1  0
  9 43  1  0
  9 44  1  0
 12 45  1  0
 14 46  1  0
 14 47  1  0
 14 48  1  0
 20 49  1  0
 21 50  1  0
 22 51  1  0
 28 52  1  0
 28 53  1  0
 29 54  1  0
 29 55  1  0
 31 56  1  0
 31 57  1  0
 32 58  1  0
 32 59  1  0
 33 60  1  0
 34 61  1  0
 35 62  1  0
M  CHG  2  12   1  18  -1
M  END
>  <UniqueID>  (46) 
39

>  <SMILES>  (46) 
CCOc1ccc(OCc2o[nH+]c(C)c2C(=O)[N-]c2cccc(S(=O)(=O)N3CCOCC3)c2)cc1

>  <Energy>  (46) 
107.40493836430605

>  <Genealogy>  (46) 
CCOc1ccc(OCc2o[nH+]c(C)c2C(=O)[N-]c2cccc(S(=O)(=O)N3CCOCC3)c2)cc1 (protonated)
CCOc1ccc(OCc2o[nH+]c(C)c2C(=O)[N-]c2cccc(S(=O)(=O)N3CCOCC3)c2)cc1 (3D coordinates assigned)
CCOc1ccc(OCc2o[nH+]c(C)c2C(=O)[N-]c2cccc(S(=O)(=O)N3CCOCC3)c2)cc1 (nonaromatic ring conformer: 107.40493836430605 kcal/mol)

>  <smiles>  (46) 
CCOc1ccc(OCc2onc(C)c2C(=O)Nc2cccc(S(=O)(=O)N3CCOCC3)c2)cc1

>  <score_type>  (46) 
oracle

>  <origin>  (46) 
adg

>  <m_score__min__energy>  (46) 
-9.4499999999999993

>  <m_primary>  (46) 
energy

$$$$
46:0
     RDKit          3D

 56 60  0  0  0  0  0  0  0  0999 V2000
   62.7700   33.6870   47.1580 C   0  0  0  0  0  0  0  0  0  0  0  0
   62.0410   33.7280   48.4260 N   0  0  0  0  0  0  0  0  0  0  0  0
   60.6950   33.6680   48.6170 C   0  0  0  0  0  0  0  0  0  0  0  0
   59.6890   33.6770   47.5450 C   0  0  0  0  0  0  0  0  0  0  0  0
   58.9660   34.7000   47.4070 O   0  0  0  0  0  0  0  0  0  0  0  0
   59.5700   32.5720   46.6210 N   0  0  0  0  0  0  0  0  0  0  0  0
   60.3970   31.3700   46.7640 C   0  0  0  0  0  0  0  0  0  0  0  0
   59.4930   30.1470   46.8630 C   0  0  0  0  0  0  0  0  0  0  0  0
   58.4970   30.1020   45.7230 C   0  0  0  0  0  0  0  0  0  0  0  0
   58.0670   31.3070   45.1080 C   0  0  0  0  0  0  0  0  0  0  0  0
   57.0830   31.2610   44.1070 C   0  0  0  0  0  0  0  0  0  0  0  0
   56.5150   30.0460   43.7250 C   0  0  0  0  0  0  0  0  0  0  0  0
   56.9260   28.8620   44.3320 C   0  0  0  0  0  0  0  0  0  0  0  0
   57.9100   28.8750   45.3310 C   0  0  0  0  0  0  0  0  0  0  0  0
   58.3360   27.6310   45.9100 N   0  0  0  0  0  0  0  0  0  0  0  0
   59.7410   27.3830   46.1980 C   0  0  0  0  0  0  0  0  0  0  0  0
   59.9370   25.8820   46.0400 C   0  0  0  0  0  0  0  0  0  0  0  0
   58.5430   25.2670   46.1220 C   0  0  0  0  0  0  0  0  0  0  0  0
   57.5700   26.3980   45.7650 C   0  0  1  0  0  0  0  0  0  0  0  0
   56.3250   26.4090   46.6620 C   0  0  0  0  0  0  0  0  0  0  0  0
   55.1810   26.7240   45.9150 O   0  0  0  0  0  0  0  0  0  0  0  0
   58.6610   32.6510   45.4670 C   0  0  0  0  0  0  0  0  0  0  0  0
   60.3820   33.6680   49.9730 C   0  0  0  0  0  0  0  0  0  0  0  0
   61.5970   33.7370   50.6190 C   0  0  0  0  0  0  0  0  0  0  0  0
   61.8910   33.7940   51.9800 C   0  0  0  0  0  0  0  0  0  0  0  0
   63.2420   33.8790   52.3570 C   0  0  0  0  0  0  0  0  0  0  0  0
   64.2580   33.8990   51.3770 C   0  0  0  0  0  0  0  0  0  0  0  0
   63.9320   33.8380   50.0080 C   0  0  0  0  0  0  0  0  0  0  0  0
   62.5810   33.7630   49.6610 C   0  0  0  0  0  0  0  0  0  0  0  0
   63.8500   33.6263   47.3578 H   0  0  0  0  0  0  0  0  0  0  0  0
   62.4536   32.8052   46.5815 H   0  0  0  0  0  0  0  0  0  0  0  0
   62.5545   34.5987   46.5815 H   0  0  0  0  0  0  0  0  0  0  0  0
   61.0556   31.2705   45.8886 H   0  0  0  0  0  0  0  0  0  0  0  0
   61.0103   31.4501   47.6736 H   0  0  0  0  0  0  0  0  0  0  0  0
   60.1139   29.2396   46.8317 H   0  0  0  0  0  0  0  0  0  0  0  0
   58.9342   30.2053   47.8087 H   0  0  0  0  0  0  0  0  0  0  0  0
   56.7573   32.1919   43.6198 H   0  0  0  0  0  0  0  0  0  0  0  0
   55.7414   30.0229   42.9433 H   0  0  0  0  0  0  0  0  0  0  0  0
   56.4743   27.9072   44.0248 H   0  0  0  0  0  0  0  0  0  0  0  0
   60.3799   27.9296   45.4888 H   0  0  0  0  0  0  0  0  0  0  0  0
   60.0139   27.7232   47.2078 H   0  0  0  0  0  0  0  0  0  0  0  0
   60.3979   25.6567   45.0670 H   0  0  0  0  0  0  0  0  0  0  0  0
   60.6029   25.4778   46.8167 H   0  0  0  0  0  0  0  0  0  0  0  0
   58.4467   24.4376   45.4058 H   0  0  0  0  0  0  0  0  0  0  0  0
   58.3385   24.8552   47.1213 H   0  0  0  0  0  0  0  0  0  0  0  0
   57.1822   26.2697   44.7436 H   0  0  0  0  0  0  0  0  0  0  0  0
   56.1979   25.4152   47.1161 H   0  0  0  0  0  0  0  0  0  0  0  0
   56.4584   27.1707   47.4443 H   0  0  0  0  0  0  0  0  0  0  0  0
   54.7220   27.4520   46.4090 H   0  0  0  0  0  0  0  0  0  0  0  0
   59.2219   33.0321   44.6009 H   0  0  0  0  0  0  0  0  0  0  0  0
   57.8327   33.3223   45.7377 H   0  0  0  0  0  0  0  0  0  0  0  0
   59.3823   33.6228   50.4296 H   0  0  0  0  0  0  0  0  0  0  0  0
   61.0912   33.7731   52.7349 H   0  0  0  0  0  0  0  0  0  0  0  0
   63.5097   33.9303   53.4227 H   0  0  0  0  0  0  0  0  0  0  0  0
   65.3121   33.9627   51.6848 H   0  0  0  0  0  0  0  0  0  0  0  0
   64.7163   33.8491   49.2368 H   0  0  0  0  0  0  0  0  0  0  0  0
  1  2  1  0
  2  3  1  0
  3  4  1  0
  4  5  2  0
  4  6  1  0
  6  7  1  0
  7  8  1  0
  8  9  1  0
  9 10  2  0
 10 11  1  0
 11 12  2  0
 12 13  1  0
 13 14  2  0
 14 15  1  0
 15 16  1  0
 16 17  1  0
 17 18  1  0
 18 19  1  0
 19 20  1  0
 20 21  1  0
 10 22  1  0
  3 23  2  0
 23 24  1  0
 24 25  2  0
 25 26  1  0
 26 27  2  0
 27 28  1  0
 28 29  2  0
 29  2  1  0
 22  6  1  0
 29 24  1  0
 14  9  1  0
 19 15  1  0
  1 30  1  0
  1 31  1  0
  1 32  1  0
  7 33  1  0
  7 34  1  0
  8 35  1  0
  8 36  1  0
 11 37  1  0
 12 38  1  0
 13 39  1  0
 16 40  1  0
 16 41  1  0
 17 42  1  0
 17 43  1  0
 18 44  1  0
 18 45  1  0
 19 46  1  6
 20 47  1  0
 20 48  1  0
 21 49  1  0
 22 50  1  0
 22 51  1  0
 23 52  1  0
 25 53  1  0
 26 54  1  0
 27 55  1  0
 28 56  1  0
M  END
>  <UniqueID>  (47) 
40

>  <SMILES>  (47) 
Cn1c(C(=O)N2CCc3c(cccc3N3CCC[C@H]3CO)C2)cc2ccccc21

>  <Energy>  (47) 
107.8835095663084

>  <Genealogy>  (47) 
Cn1c(C(=O)N2CCc3c(cccc3N3CCC[C@H]3CO)C2)cc2ccccc21 (chirality)
Cn1c(C(=O)N2CCc3c(cccc3N3CCC[C@H]3CO)C2)cc2ccccc21 (3D coordinates assigned)
Cn1c(C(=O)N2CCc3c(cccc3N3CCC[C@H]3CO)C2)cc2ccccc21 (nonaromatic ring conformer: 107.8835095663084 kcal/mol)

>  <smiles>  (47) 
Cn1c(C(=O)N2CCc3c(cccc3N3CCCC3CO)C2)cc2ccccc21

>  <score_type>  (47) 
oracle

>  <origin>  (47) 
adg

>  <m_score__min__energy>  (47) 
-9.6600000000000001

>  <m_primary>  (47) 
energy

$$$$
47:0
     RDKit          3D

 33 34  0  0  0  0  0  0  0  0999 V2000
   60.6652   35.5172   45.6486 H   0  0  0  0  0  0  0  0  0  0  0  0
   59.6530   35.1750   45.9100 C   0  0  0  0  0  0  0  0  0  0  0  0
   59.2877   35.2764   46.9426 H   0  0  0  0  0  0  0  0  0  0  0  0
   58.8670   34.6360   44.9730 C   0  0  0  0  0  0  0  0  0  0  0  0
   59.2442   34.5402   43.9441 H   0  0  0  0  0  0  0  0  0  0  0  0
   57.4820   34.1590   45.2940 C   0  0  0  0  0  0  0  0  0  0  0  0
   56.9592   34.9234   45.8876 H   0  0  0  0  0  0  0  0  0  0  0  0
   56.9301   33.9797   44.3595 H   0  0  0  0  0  0  0  0  0  0  0  0
   57.5600   32.9180   46.0590 N   0  0  0  0  0  0  0  0  0  0  0  0
   58.2650   31.8610   45.7620 C   0  0  0  0  0  0  0  0  0  0  0  0
   57.9220   31.0040   44.6600 N   0  0  0  0  0  0  0  0  0  0  0  0
   58.6930   30.4940   44.1740 H   0  0  0  0  0  0  0  0  0  0  0  0
   56.6230   30.5080   44.4760 C   0  0  0  0  0  0  0  0  0  0  0  0
   55.5520   30.0990   44.3200 N   0  0  0  0  0  0  0  0  0  0  0  0
   59.4840   31.6060   46.4780 N   0  0  0  0  0  0  0  0  0  0  0  0
   60.1280   30.8730   46.1070 H   0  0  0  0  0  0  0  0  0  0  0  0
   59.8550   32.3020   47.6820 C   0  0  0  0  0  0  0  0  0  0  0  0
   58.9180   32.4320   48.7220 C   0  0  0  0  0  0  0  0  0  0  0  0
   57.9013   32.0328   48.5915 H   0  0  0  0  0  0  0  0  0  0  0  0
   59.2640   33.0620   49.9180 C   0  0  0  0  0  0  0  0  0  0  0  0
   58.5178   33.1624   50.7199 H   0  0  0  0  0  0  0  0  0  0  0  0
   60.5520   33.5650   50.1010 C   0  0  0  0  0  0  0  0  0  0  0  0
   60.8185   34.0577   51.0477 H   0  0  0  0  0  0  0  0  0  0  0  0
   61.5080   33.4450   49.0830 C   0  0  0  0  0  0  0  0  0  0  0  0
   62.8020   33.9550   49.2700 C   0  0  0  0  0  0  0  0  0  0  0  0
   63.0678   34.4388   50.2215 H   0  0  0  0  0  0  0  0  0  0  0  0
   63.7530   33.8510   48.2540 C   0  0  0  0  0  0  0  0  0  0  0  0
   64.7668   34.2490   48.4081 H   0  0  0  0  0  0  0  0  0  0  0  0
   63.4200   33.2430   47.0430 C   0  0  0  0  0  0  0  0  0  0  0  0
   64.1715   33.1688   46.2432 H   0  0  0  0  0  0  0  0  0  0  0  0
   62.1370   32.7280   46.8410 C   0  0  0  0  0  0  0  0  0  0  0  0
   61.8834   32.2545   45.8811 H   0  0  0  0  0  0  0  0  0  0  0  0
   61.1650   32.8110   47.8590 C   0  0  0  0  0  0  0  0  0  0  0  0
  1  2  1  0
  2  3  1  0
  2  4  2  0
  4  5  1  0
  4  6  1  0
  6  7  1  0
  6  8  1  0
  6  9  1  0
  9 10  2  0
 10 11  1  0
 11 12  1  0
 11 13  1  0
 13 14  3  0
 10 15  1  0
 15 16  1  0
 15 17  1  0
 17 18  2  0
 18 19  1  0
 18 20  1  0
 20 21  1  0
 20 22  2  0
 22 23  1  0
 22 24  1  0
 24 25  2  0
 25 26  1  0
 25 27  1  0
 27 28  1  0
 27 29  2  0
 29 30  1  0
 29 31  1  0
 31 32  1  0
 31 33  2  0
 33 17  1  0
 33 24  1  0
M  END
>  <UniqueID>  (48) 
41

>  <SMILES>  (48) 
C=CC/N=C(\NC#N)Nc1cccc2ccccc12

>  <Energy>  (48) 
41.24380368087985

>  <Genealogy>  (48) 
C=CC/N=C(\NC#N)Nc1cccc2ccccc12 (cis-trans isomerization)
C=CC/N=C(\NC#N)Nc1cccc2ccccc12 (3D coordinates assigned)
C=CC/N=C(\NC#N)Nc1cccc2ccccc12 (optimized conformer: 41.24380368087985 kcal/mol)

>  <smiles>  (48) 
C=CCN=C(NC#N)Nc1cccc2ccccc12

>  <score_type>  (48) 
oracle

>  <origin>  (48) 
adg

>  <m_score__min__energy>  (48) 
-6.8499999999999996

>  <m_primary>  (48) 
energy

$$$$
48:0
     RDKit          3D

 27 28  0  0  0  0  0  0  0  0999 V2000
   58.1420   21.9870   44.1390 C   0  0  0  0  0  0  0  0  0  0  0  0
   56.4250   22.2800   43.7300 S   0  0  0  0  0  0  0  0  0  0  0  0
   56.1920   21.8330   42.3140 O   0  0  0  0  0  0  0  0  0  0  0  0
   55.5720   21.4450   44.6430 O   0  0  0  0  0  0  0  0  0  0  0  0
   55.9320   23.9560   43.8790 N   0  0  0  0  0  0  0  0  0  0  0  0
   56.9340   24.7450   44.6060 C   0  0  0  0  0  0  0  0  0  0  0  0
   56.0290   24.9350   45.8080 C   0  0  0  0  0  0  0  0  0  0  0  0
   55.6590   26.3030   45.9840 O   0  0  0  0  0  0  0  0  0  0  0  0
   56.4800   27.3920   45.6580 C   0  0  0  0  0  0  0  0  0  0  0  0
   57.8800   27.3350   45.7580 C   0  0  0  0  0  0  0  0  0  0  0  0
   58.6210   28.4680   45.4150 C   0  0  0  0  0  0  0  0  0  0  0  0
   59.8780   28.4440   45.4960 O   0  0  0  0  0  0  0  0  0  0  0  0
   57.9860   29.5940   44.9930 N   0  0  0  0  0  0  0  0  0  0  0  0
   56.6300   29.6340   44.9010 C   0  0  0  0  0  0  0  0  0  0  0  0
   56.0520   30.6810   44.5090 O   0  0  0  0  0  0  0  0  0  0  0  0
   55.8930   28.5410   45.2320 N   0  0  0  0  0  0  0  0  0  0  0  0
   55.0090   24.1470   45.0030 C   0  0  0  0  0  0  0  0  0  0  0  0
   58.2602   21.9668   45.2324 H   0  0  0  0  0  0  0  0  0  0  0  0
   58.4596   21.0217   43.7180 H   0  0  0  0  0  0  0  0  0  0  0  0
   58.7618   22.7924   43.7180 H   0  0  0  0  0  0  0  0  0  0  0  0
   57.8515   24.1828   44.8342 H   0  0  0  0  0  0  0  0  0  0  0  0
   57.3626   25.6339   44.1200 H   0  0  0  0  0  0  0  0  0  0  0  0
   56.3148   24.6658   46.8355 H   0  0  0  0  0  0  0  0  0  0  0  0
   58.3819   26.4176   46.0992 H   0  0  0  0  0  0  0  0  0  0  0  0
   58.5480   30.4400   44.7370 H   0  0  0  0  0  0  0  0  0  0  0  0
   54.7048   23.2057   45.4841 H   0  0  0  0  0  0  0  0  0  0  0  0
   54.0239   24.5967   44.8098 H   0  0  0  0  0  0  0  0  0  0  0  0
  1  2  1  0
  2  3  2  0
  2  4  2  0
  2  5  1  0
  5  6  1  0
  6  7  1  0
  7  8  1  0
  8  9  1  0
  9 10  2  0
 10 11  1  0
 11 12  2  0
 11 13  1  0
 13 14  1  0
 14 15  2  0
 14 16  1  0
  7 17  1  0
 17  5  1  0
 16  9  1  0
  1 18  1  0
  1 19  1  0
  1 20  1  0
  6 21  1  0
  6 22  1  0
  7 23  1  0
 10 24  1  0
 13 25  1  0
 17 26  1  0
 17 27  1  0
M  CHG  1  16  -1
M  END
>  <UniqueID>  (49) 
42

>  <SMILES>  (49) 
CS(=O)(=O)N1CC(Oc2cc(=O)[nH]c(=O)[n-]2)C1

>  <Energy>  (49) 
92.02892003989133

>  <Genealogy>  (49) 
CS(=O)(=O)N1CC(Oc2cc(=O)[nH]c(=O)[n-]2)C1 (protonated)
CS(=O)(=O)N1CC(Oc2cc(=O)[nH]c(=O)[n-]2)C1 (3D coordinates assigned)
CS(=O)(=O)N1CC(Oc2cc(=O)[nH]c(=O)[n-]2)C1 (nonaromatic ring conformer: 92.02892003989133 kcal/mol)

>  <smiles>  (49) 
CS(=O)(=O)N1CC(Oc2cc(=O)[nH]c(=O)[nH]2)C1

>  <score_type>  (49) 
oracle

>  <origin>  (49) 
adg

>  <m_score__min__energy>  (49) 
-8.1300000000000008

>  <m_primary>  (49) 
energy

$$$$
49:0
     RDKit          3D

 64 67  0  0  1  0  0  0  0  0999 V2000
   57.7620   32.8610   44.4630 C   0  0  0  0  0  0  0  0  0  0  0  0
   58.4340   33.5430   45.6260 C   0  0  0  0  0  0  0  0  0  0  0  0
   58.8620   34.9570   45.2340 C   0  0  0  0  0  0  0  0  0  0  0  0
   57.4480   33.6520   46.7590 C   0  0  0  0  0  0  0  0  0  0  0  0
   59.5970   32.7710   46.1440 C   0  0  0  0  0  0  0  0  0  0  0  0
   60.7550   33.5030   46.3850 C   0  0  0  0  0  0  0  0  0  0  0  0
   61.8940   32.9030   46.8630 C   0  0  0  0  0  0  0  0  0  0  0  0
   63.1310   33.6440   47.1280 C   0  0  0  0  0  0  0  0  0  0  0  0
   63.7250   34.2850   46.2150 O   0  0  0  0  0  0  0  0  0  0  0  0
   63.6440   33.6120   48.4780 N   0  0  0  0  0  0  0  0  0  0  0  0
   62.9790   33.0900   49.4210 C   0  0  0  0  0  0  0  0  0  0  0  0
   61.7720   33.4370   50.0180 C   0  0  0  0  0  0  0  0  0  0  0  0
   61.2920   32.7030   51.0050 C   0  0  0  0  0  0  0  0  0  0  0  0
   59.9750   33.0020   51.7040 C   0  0  0  0  0  0  0  0  0  0  0  0
   58.8770   32.7890   50.8250 N   0  0  0  0  0  0  0  0  0  0  0  0
   59.2570   31.7390   49.8860 C   0  0  0  0  0  0  0  0  0  0  0  0
   58.8570   30.4560   50.5960 C   0  0  0  0  0  0  0  0  0  0  0  0
   57.9030   30.8700   51.6940 C   0  0  0  0  0  0  0  0  0  0  0  0
   57.6720   32.3460   51.4510 C   0  0  0  0  0  0  0  0  0  0  0  0
   61.9950   31.6100   51.4210 N   0  0  0  0  0  0  0  0  0  0  0  0
   63.4800   31.5840   50.3410 S   0  0  0  0  0  0  0  0  0  0  0  0
   61.8110   31.5590   47.0820 N   0  0  0  0  0  0  0  0  0  0  0  0
   60.6760   30.8780   46.8380 C   0  0  0  0  0  0  0  0  0  0  0  0
   60.6700   29.6270   47.0650 N   0  0  0  0  0  0  0  0  0  0  0  0
   59.6340   28.7200   46.7120 C   0  0  0  0  0  0  0  0  0  0  0  0
   59.1400   27.9250   47.7450 C   0  0  0  0  0  0  0  0  0  0  0  0
   58.1440   27.0160   47.5310 C   0  0  0  0  0  0  0  0  0  0  0  0
   57.6220   26.8900   46.2580 C   0  0  0  0  0  0  0  0  0  0  0  0
   56.3500   25.7170   46.0310 S   0  0  0  0  0  0  0  0  0  0  0  0
   56.6500   24.9240   44.5040 N   0  0  0  0  0  0  0  0  0  0  0  0
   54.9850   26.3430   45.9950 O   0  0  0  0  0  0  0  0  0  0  0  0
   56.4070   24.6520   47.0900 O   0  0  0  0  0  0  0  0  0  0  0  0
   58.1170   27.6790   45.2500 C   0  0  0  0  0  0  0  0  0  0  0  0
   59.1250   28.6070   45.4360 C   0  0  0  0  0  0  0  0  0  0  0  0
   59.5540   31.4440   46.3720 N   0  0  0  0  0  0  0  0  0  0  0  0
   57.0365   32.1247   44.8391 H   0  0  0  0  0  0  0  0  0  0  0  0
   57.2397   33.6105   43.8503 H   0  0  0  0  0  0  0  0  0  0  0  0
   58.5192   32.3498   43.8503 H   0  0  0  0  0  0  0  0  0  0  0  0
   59.0417   35.5508   46.1424 H   0  0  0  0  0  0  0  0  0  0  0  0
   59.7858   34.9087   44.6388 H   0  0  0  0  0  0  0  0  0  0  0  0
   58.0665   35.4291   44.6388 H   0  0  0  0  0  0  0  0  0  0  0  0
   57.9835   33.5928   47.7180 H   0  0  0  0  0  0  0  0  0  0  0  0
   56.9188   34.6141   46.6933 H   0  0  0  0  0  0  0  0  0  0  0  0
   56.7215   32.8287   46.6933 H   0  0  0  0  0  0  0  0  0  0  0  0
   60.7585   34.5853   46.1885 H   0  0  0  0  0  0  0  0  0  0  0  0
   61.2183   34.3210   49.6688 H   0  0  0  0  0  0  0  0  0  0  0  0
   59.8717   32.3407   52.5769 H   0  0  0  0  0  0  0  0  0  0  0  0
   59.9747   34.0557   52.0198 H   0  0  0  0  0  0  0  0  0  0  0  0
   58.7131   31.8472   48.9360 H   0  0  0  0  0  0  0  0  0  0  0  0
   60.3256   31.7664   49.6266 H   0  0  0  0  0  0  0  0  0  0  0  0
   58.3590   29.7700   49.8950 H   0  0  0  0  0  0  0  0  0  0  0  0
   59.7333   29.9280   51.0002 H   0  0  0  0  0  0  0  0  0  0  0  0
   56.9587   30.3105   51.6213 H   0  0  0  0  0  0  0  0  0  0  0  0
   58.3038   30.6668   52.6980 H   0  0  0  0  0  0  0  0  0  0  0  0
   56.8077   32.5021   50.7887 H   0  0  0  0  0  0  0  0  0  0  0  0
   57.4504   32.8966   52.3771 H   0  0  0  0  0  0  0  0  0  0  0  0
   61.8250   30.8940   52.1580 H   0  0  0  0  0  0  0  0  0  0  0  0
   62.6570   31.0700   47.4440 H   0  0  0  0  0  0  0  0  0  0  0  0
   59.5620   28.0324   48.7551 H   0  0  0  0  0  0  0  0  0  0  0  0
   57.7644   26.3958   48.3564 H   0  0  0  0  0  0  0  0  0  0  0  0
   56.6340   25.6170   43.7070 H   0  0  0  0  0  0  0  0  0  0  0  0
   55.8850   24.2550   44.2790 H   0  0  0  0  0  0  0  0  0  0  0  0
   57.6899   27.5674   44.2425 H   0  0  0  0  0  0  0  0  0  0  0  0
   59.5019   29.2242   44.6071 H   0  0  0  0  0  0  0  0  0  0  0  0
  1  2  1  0
  2  3  1  0
  2  4  1  0
  2  5  1  0
  5  6  1  0
  6  7  2  0
  7  8  1  0
  8  9  2  0
  8 10  1  0
 10 11  2  0
 11 12  1  0
 12 13  2  0
 13 14  1  0
 14 15  1  0
 15 16  1  0
 16 17  1  0
 17 18  1  0
 18 19  1  0
 13 20  1  0
 20 21  1  0
  7 22  1  0
 22 23  1  0
 23 24  2  0
 24 25  1  0
 25 26  2  0
 26 27  1  0
 27 28  2  0
 28 29  1  0
 29 30  1  0
 29 31  2  0
 29 32  2  0
 28 33  1  0
 33 34  2  0
 23 35  1  0
 35  5  2  0
 21 11  1  0
 34 25  1  0
 19 15  1  0
  1 36  1  0
  1 37  1  0
  1 38  1  0
  3 39  1  0
  3 40  1  0
  3 41  1  0
  4 42  1  0
  4 43  1  0
  4 44  1  0
  6 45  1  0
 12 46  1  0
 14 47  1  0
 14 48  1  0
 16 49  1  0
 16 50  1  0
 17 51  1  0
 17 52  1  0
 18 53  1  0
 18 54  1  0
 19 55  1  0
 19 56  1  0
 20 57  1  0
 22 58  1  0
 26 59  1  0
 27 60  1  0
 30 61  1  0
 30 62  1  0
 33 63  1  0
 34 64  1  0
M  END
>  <smiles>  (50) 
CC(C)(C)c1cc(C(=O)N=c2cc(CN3CCCC3)[nH]s2)[nH]c(=Nc2ccc(S(N)(=O)=O)cc2)n1

>  <score_type>  (50) 
oracle

>  <origin>  (50) 
adg

>  <m_score__min__energy>  (50) 
-11.109999999999999

>  <m_primary>  (50) 
energy

$$$$
50:0
     RDKit          3D

 45 47  0  0  0  0  0  0  0  0999 V2000
   55.1450   29.3090   44.6080 O   0  0  0  0  0  0  0  0  0  0  0  0
   56.3680   29.4430   44.8820 C   0  0  0  0  0  0  0  0  0  0  0  0
   57.1190   30.5960   44.2860 C   0  0  0  0  0  0  0  0  0  0  0  0
   56.9820   31.8190   45.0780 N   0  0  0  0  0  0  0  0  0  0  0  0
   57.7840   33.0070   44.9970 C   0  0  0  0  0  0  0  0  0  0  0  0
   57.5420   33.8310   44.0760 O   0  0  0  0  0  0  0  0  0  0  0  0
   58.8420   33.3290   45.9770 C   0  0  0  0  0  0  0  0  0  0  0  0
   58.9920   34.6520   46.4220 C   0  0  0  0  0  0  0  0  0  0  0  0
   59.9930   34.9800   47.3390 C   0  0  0  0  0  0  0  0  0  0  0  0
   60.8610   33.9930   47.8100 C   0  0  0  0  0  0  0  0  0  0  0  0
   60.7370   32.6710   47.3600 C   0  0  0  0  0  0  0  0  0  0  0  0
   61.8510   31.4270   47.9370 S   0  0  0  0  0  0  0  0  0  0  0  0
   62.7450   32.0200   48.9890 O   0  0  0  0  0  0  0  0  0  0  0  0
   62.7160   30.9760   46.7930 O   0  0  0  0  0  0  0  0  0  0  0  0
   61.0280   30.0380   48.6070 N   0  0  0  0  0  0  0  0  0  0  0  0
   59.9510   30.4230   49.5170 C   0  0  0  0  0  0  0  0  0  0  0  0
   58.9440   29.2820   49.5020 C   0  0  0  0  0  0  0  0  0  0  0  0
   59.2700   28.4680   48.2590 C   0  0  0  0  0  0  0  0  0  0  0  0
   60.3950   29.2230   47.5720 C   0  0  0  0  0  0  0  0  0  0  0  0
   59.7390   32.3480   46.4280 C   0  0  0  0  0  0  0  0  0  0  0  0
   56.9790   28.6120   45.8790 N   0  0  0  0  0  0  0  0  0  0  0  0
   57.1760   27.3210   45.8630 C   0  0  0  0  0  0  0  0  0  0  0  0
   58.4550   26.8820   45.7050 N   0  0  0  0  0  0  0  0  0  0  0  0
   58.7790   25.5630   45.6610 C   0  0  0  0  0  0  0  0  0  0  0  0
   57.7820   24.5970   45.7730 C   0  0  0  0  0  0  0  0  0  0  0  0
   56.4570   25.0000   45.9150 C   0  0  0  0  0  0  0  0  0  0  0  0
   56.1340   26.3600   45.9460 C   0  0  0  0  0  0  0  0  0  0  0  0
   54.7910   26.7130   46.0060 O   0  0  0  0  0  0  0  0  0  0  0  0
   58.1849   30.3308   44.2268 H   0  0  0  0  0  0  0  0  0  0  0  0
   56.6971   30.7924   43.2893 H   0  0  0  0  0  0  0  0  0  0  0  0
   58.3170   35.4350   46.0461 H   0  0  0  0  0  0  0  0  0  0  0  0
   60.0977   36.0170   47.6906 H   0  0  0  0  0  0  0  0  0  0  0  0
   61.6447   34.2535   48.5366 H   0  0  0  0  0  0  0  0  0  0  0  0
   60.3459   30.5680   50.5334 H   0  0  0  0  0  0  0  0  0  0  0  0
   59.4850   31.3690   49.2041 H   0  0  0  0  0  0  0  0  0  0  0  0
   59.0505   28.6635   50.4054 H   0  0  0  0  0  0  0  0  0  0  0  0
   57.9083   29.6522   49.4871 H   0  0  0  0  0  0  0  0  0  0  0  0
   59.5981   27.4553   48.5362 H   0  0  0  0  0  0  0  0  0  0  0  0
   58.3944   28.3496   47.6039 H   0  0  0  0  0  0  0  0  0  0  0  0
   61.1223   28.5176   47.1437 H   0  0  0  0  0  0  0  0  0  0  0  0
   60.0166   29.8444   46.7470 H   0  0  0  0  0  0  0  0  0  0  0  0
   59.6590   31.3188   46.0481 H   0  0  0  0  0  0  0  0  0  0  0  0
   59.8286   25.2583   45.5369 H   0  0  0  0  0  0  0  0  0  0  0  0
   58.0386   23.5276   45.7495 H   0  0  0  0  0  0  0  0  0  0  0  0
   55.6613   24.2457   46.0031 H   0  0  0  0  0  0  0  0  0  0  0  0
  1  2  2  0
  2  3  1  0
  3  4  1  0
  4  5  1  0
  5  6  2  0
  5  7  1  0
  7  8  2  0
  8  9  1  0
  9 10  2  0
 10 11  1  0
 11 12  1  0
 12 13  2  0
 12 14  2  0
 12 15  1  0
 15 16  1  0
 16 17  1  0
 17 18  1  0
 18 19  1  0
 11 20  2  0
  2 21  1  0
 21 22  2  3
 22 23  1  0
 23 24  1  0
 24 25  2  0
 25 26  1  0
 26 27  2  0
 27 28  1  0
 20  7  1  0
 27 22  1  0
 19 15  1  0
  3 29  1  0
  3 30  1  0
  8 31  1  0
  9 32  1  0
 10 33  1  0
 16 34  1  0
 16 35  1  0
 17 36  1  0
 17 37  1  0
 18 38  1  0
 18 39  1  0
 19 40  1  0
 19 41  1  0
 20 42  1  0
 24 43  1  0
 25 44  1  0
 26 45  1  0
M  CHG  3   4  -1  23  -1  28  -1
M  END
>  <UniqueID>  (51) 
43

>  <SMILES>  (51) 
O=C(C[N-]C(=O)c1cccc(S(=O)(=O)N2CCCC2)c1)N=c1[n-]cccc1[O-]

>  <Energy>  (51) 
58.07100817671488

>  <Genealogy>  (51) 
O=C(C[N-]C(=O)c1cccc(S(=O)(=O)N2CCCC2)c1)N=c1[n-]cccc1[O-] (protonated)
O=C(C[N-]C(=O)c1cccc(S(=O)(=O)N2CCCC2)c1)N=c1[n-]cccc1[O-] (3D coordinates assigned)
O=C(C[N-]C(=O)c1cccc(S(=O)(=O)N2CCCC2)c1)N=c1[n-]cccc1[O-] (nonaromatic ring conformer: 58.07100817671488 kcal/mol)

>  <smiles>  (51) 
O=C(CNC(=O)c1cccc(S(=O)(=O)N2CCCC2)c1)N=c1[nH]cccc1O

>  <score_type>  (51) 
oracle

>  <origin>  (51) 
adg

>  <m_score__min__energy>  (51) 
-15.82

>  <m_primary>  (51) 
energy

$$$$
51:0
     RDKit          3D

 43 44  0  0  0  0  0  0  0  0999 V2000
   51.7440   21.0100   44.9200 H   0  0  0  0  0  0  0  0  0  0  0  0
   52.3980   21.2440   45.6990 N   0  0  0  0  0  0  0  0  0  0  0  0
   52.6440   22.9550   45.6580 S   0  0  0  0  0  0  0  0  0  0  0  0
   52.3060   23.4670   44.2870 O   0  0  0  0  0  0  0  0  0  0  0  0
   51.7350   23.5910   46.6700 O   0  0  0  0  0  0  0  0  0  0  0  0
   54.3260   23.3470   46.0330 C   0  0  0  0  0  0  0  0  0  0  0  0
   55.2210   22.3240   46.3790 C   0  0  0  0  0  0  0  0  0  0  0  0
   54.8770   21.2793   46.3968 H   0  0  0  0  0  0  0  0  0  0  0  0
   56.5460   22.6240   46.7010 C   0  0  0  0  0  0  0  0  0  0  0  0
   57.2380   21.8180   46.9866 H   0  0  0  0  0  0  0  0  0  0  0  0
   56.9930   23.9440   46.6610 C   0  0  0  0  0  0  0  0  0  0  0  0
   58.0315   24.1786   46.9375 H   0  0  0  0  0  0  0  0  0  0  0  0
   56.1230   24.9770   46.2690 C   0  0  0  0  0  0  0  0  0  0  0  0
   56.5550   26.3480   46.2440 N   0  0  0  0  0  0  0  0  0  0  0  0
   57.2740   26.9360   45.3280 C   0  0  0  0  0  0  0  0  0  0  0  0
   57.6215   26.3295   44.4786 H   0  0  0  0  0  0  0  0  0  0  0  0
   57.6530   28.3690   45.3580 C   0  0  0  0  0  0  0  0  0  0  0  0
   58.9900   28.7560   45.5440 C   0  0  0  0  0  0  0  0  0  0  0  0
   59.7664   27.9889   45.6812 H   0  0  0  0  0  0  0  0  0  0  0  0
   59.3410   30.1070   45.5560 C   0  0  0  0  0  0  0  0  0  0  0  0
   60.3895   30.3958   45.7213 H   0  0  0  0  0  0  0  0  0  0  0  0
   58.3680   31.1020   45.3590 C   0  0  0  0  0  0  0  0  0  0  0  0
   58.7310   32.5020   45.3870 N   0  0  0  0  0  0  0  0  0  0  0  0
   58.0820   33.4670   44.4830 C   0  0  0  0  0  0  0  0  0  0  0  0
   57.6628   32.9278   43.6207 H   0  0  0  0  0  0  0  0  0  0  0  0
   58.8333   34.1978   44.1491 H   0  0  0  0  0  0  0  0  0  0  0  0
   56.9600   34.2120   45.2010 C   0  0  0  0  0  0  0  0  0  0  0  0
   57.0969   34.1211   46.2887 H   0  0  0  0  0  0  0  0  0  0  0  0
   56.9840   35.2741   44.9159 H   0  0  0  0  0  0  0  0  0  0  0  0
   55.9904   33.7777   44.9159 H   0  0  0  0  0  0  0  0  0  0  0  0
   59.7700   32.9800   46.3100 C   0  0  0  0  0  0  0  0  0  0  0  0
   59.4547   32.7748   47.3437 H   0  0  0  0  0  0  0  0  0  0  0  0
   60.7094   32.4552   46.0816 H   0  0  0  0  0  0  0  0  0  0  0  0
   60.0000   34.4810   46.1470 C   0  0  0  0  0  0  0  0  0  0  0  0
   60.0720   34.9508   47.1390 H   0  0  0  0  0  0  0  0  0  0  0  0
   60.9346   34.6506   45.5923 H   0  0  0  0  0  0  0  0  0  0  0  0
   59.1591   34.9227   45.5923 H   0  0  0  0  0  0  0  0  0  0  0  0
   57.0360   30.7090   45.1340 C   0  0  0  0  0  0  0  0  0  0  0  0
   56.2651   31.4741   44.9601 H   0  0  0  0  0  0  0  0  0  0  0  0
   56.6810   29.3550   45.1290 C   0  0  0  0  0  0  0  0  0  0  0  0
   55.3540   29.0010   44.9080 O   0  0  0  0  0  0  0  0  0  0  0  0
   54.7830   24.6760   45.9760 C   0  0  0  0  0  0  0  0  0  0  0  0
   53.9140   25.7010   45.6160 O   0  0  0  0  0  0  0  0  0  0  0  0
  1  2  1  0
  2  3  1  0
  3  4  2  0
  3  5  2  0
  3  6  1  0
  6  7  2  0
  7  8  1  0
  7  9  1  0
  9 10  1  0
  9 11  2  0
 11 12  1  0
 11 13  1  0
 13 14  1  0
 14 15  2  0
 15 16  1  0
 15 17  1  0
 17 18  2  0
 18 19  1  0
 18 20  1  0
 20 21  1  0
 20 22  2  0
 22 23  1  0
 23 24  1  0
 24 25  1  0
 24 26  1  0
 24 27  1  0
 27 28  1  0
 27 29  1  0
 27 30  1  0
 23 31  1  0
 31 32  1  0
 31 33  1  0
 31 34  1  0
 34 35  1  0
 34 36  1  0
 34 37  1  0
 22 38  1  0
 38 39  1  0
 38 40  2  0
 40 41  1  0
 13 42  2  0
 42 43  1  0
 42  6  1  0
 40 17  1  0
M  CHG  3   2  -1  41  -1  43  -1
M  END
>  <UniqueID>  (52) 
44

>  <SMILES>  (52) 
CCN(CC)c1ccc(/C=N\c2cccc(S([NH-])(=O)=O)c2[O-])c([O-])c1

>  <Energy>  (52) 
53.251527900795004

>  <Genealogy>  (52) 
CCN(CC)c1ccc(C=Nc2cccc(S([NH-])(=O)=O)c2[O-])c([O-])c1 (protonated)
CCN(CC)c1ccc(/C=N\c2cccc(S([NH-])(=O)=O)c2[O-])c([O-])c1 (cis-trans isomerization)
CCN(CC)c1ccc(/C=N\c2cccc(S([NH-])(=O)=O)c2[O-])c([O-])c1 (3D coordinates assigned)
CCN(CC)c1ccc(/C=N\c2cccc(S([NH-])(=O)=O)c2[O-])c([O-])c1 (optimized conformer: 53.251527900795004 kcal/mol)

>  <smiles>  (52) 
CCN(CC)c1ccc(C=Nc2cccc(S(N)(=O)=O)c2O)c(O)c1

>  <score_type>  (52) 
oracle

>  <origin>  (52) 
adg

>  <m_score__min__energy>  (52) 
-15.76

>  <m_primary>  (52) 
energy

$$$$
52:0
     RDKit          3D

 35 36  0  0  0  0  0  0  0  0999 V2000
   60.7520   27.3560   49.4580 C   0  0  0  0  0  0  0  0  0  0  0  0
   59.9610   26.6850   48.4800 O   0  0  0  0  0  0  0  0  0  0  0  0
   59.4710   27.2820   47.3090 C   0  0  0  0  0  0  0  0  0  0  0  0
   60.0380   28.4530   46.7710 C   0  0  0  0  0  0  0  0  0  0  0  0
   59.5170   29.0200   45.6050 C   0  0  0  0  0  0  0  0  0  0  0  0
   58.4220   28.4360   44.9540 C   0  0  0  0  0  0  0  0  0  0  0  0
   57.8990   29.0580   43.7670 N   0  0  0  0  0  0  0  0  0  0  0  0
   56.8550   30.4450   43.7850 S   0  0  0  0  0  0  0  0  0  0  0  0
   56.5380   30.8440   42.3720 O   0  0  0  0  0  0  0  0  0  0  0  0
   55.5780   30.0880   44.4940 O   0  0  0  0  0  0  0  0  0  0  0  0
   57.6510   31.7960   44.5890 C   0  0  0  0  0  0  0  0  0  0  0  0
   58.1310   32.8770   43.8410 C   0  0  0  0  0  0  0  0  0  0  0  0
   58.7420   33.9570   44.4820 C   0  0  0  0  0  0  0  0  0  0  0  0
   58.8760   33.9650   45.8750 C   0  0  0  0  0  0  0  0  0  0  0  0
   59.6400   35.3410   46.6560 Cl  0  0  0  0  0  0  0  0  0  0  0  0
   58.4010   32.8870   46.6390 C   0  0  0  0  0  0  0  0  0  0  0  0
   58.5430   32.9320   48.0340 O   0  0  0  0  0  0  0  0  0  0  0  0
   59.0000   31.8440   48.8320 C   0  0  0  0  0  0  0  0  0  0  0  0
   57.7950   31.7960   45.9830 C   0  0  0  0  0  0  0  0  0  0  0  0
   57.8640   27.2580   45.4830 C   0  0  0  0  0  0  0  0  0  0  0  0
   58.3820   26.6890   46.6520 C   0  0  0  0  0  0  0  0  0  0  0  0
   57.6490   25.2250   47.2900 Cl  0  0  0  0  0  0  0  0  0  0  0  0
   60.4129   27.0683   50.4641 H   0  0  0  0  0  0  0  0  0  0  0  0
   61.8077   27.0738   49.3323 H   0  0  0  0  0  0  0  0  0  0  0  0
   60.6457   28.4436   49.3323 H   0  0  0  0  0  0  0  0  0  0  0  0
   60.8965   28.9245   47.2717 H   0  0  0  0  0  0  0  0  0  0  0  0
   59.9709   29.9338   45.1940 H   0  0  0  0  0  0  0  0  0  0  0  0
   58.2400   28.7350   42.8340 H   0  0  0  0  0  0  0  0  0  0  0  0
   58.0268   32.8761   42.7459 H   0  0  0  0  0  0  0  0  0  0  0  0
   59.1191   34.8040   43.8901 H   0  0  0  0  0  0  0  0  0  0  0  0
   58.8926   32.0996   49.8965 H   0  0  0  0  0  0  0  0  0  0  0  0
   58.4021   30.9483   48.6078 H   0  0  0  0  0  0  0  0  0  0  0  0
   60.0582   31.6440   48.6078 H   0  0  0  0  0  0  0  0  0  0  0  0
   57.4327   30.9388   46.5695 H   0  0  0  0  0  0  0  0  0  0  0  0
   57.0139   26.7804   44.9739 H   0  0  0  0  0  0  0  0  0  0  0  0
  1  2  1  0
  2  3  1  0
  3  4  2  0
  4  5  1  0
  5  6  2  0
  6  7  1  0
  7  8  1  0
  8  9  2  0
  8 10  2  0
  8 11  1  0
 11 12  2  0
 12 13  1  0
 13 14  2  0
 14 15  1  0
 14 16  1  0
 16 17  1  0
 17 18  1  0
 16 19  2  0
  6 20  1  0
 20 21  2  0
 21 22  1  0
 21  3  1  0
 19 11  1  0
  1 23  1  0
  1 24  1  0
  1 25  1  0
  4 26  1  0
  5 27  1  0
  7 28  1  0
 12 29  1  0
 13 30  1  0
 18 31  1  0
 18 32  1  0
 18 33  1  0
 19 34  1  0
 20 35  1  0
M  END
>  <UniqueID>  (53) 
45

>  <SMILES>  (53) 
COc1ccc(NS(=O)(=O)c2ccc(Cl)c(OC)c2)cc1Cl

>  <Energy>  (53) 
36.80745239578751

>  <Genealogy>  (53) 
COc1ccc(NS(=O)(=O)c2ccc(Cl)c(OC)c2)cc1Cl (3D coordinates assigned)
COc1ccc(NS(=O)(=O)c2ccc(Cl)c(OC)c2)cc1Cl (optimized conformer: 36.80745239578751 kcal/mol)

>  <smiles>  (53) 
COc1ccc(NS(=O)(=O)c2ccc(Cl)c(OC)c2)cc1Cl

>  <score_type>  (53) 
oracle

>  <origin>  (53) 
adg

>  <m_score__min__energy>  (53) 
-7.5700000000000003

>  <m_primary>  (53) 
energy

$$$$
53:0
     RDKit          3D

 53 56  0  0  0  0  0  0  0  0999 V2000
   56.2800   19.6660   46.9560 C   0  0  0  0  0  0  0  0  0  0  0  0
   56.8090   20.6390   46.0070 N   0  0  0  0  0  0  0  0  0  0  0  0
   56.8350   21.9750   46.1790 C   0  0  0  0  0  0  0  0  0  0  0  0
   57.4520   22.5360   45.0770 C   0  0  0  0  0  0  0  0  0  0  0  0
   57.6720   23.9760   44.8540 C   0  0  0  0  0  0  0  0  0  0  0  0
   56.6730   24.8350   44.6360 C   0  0  0  0  0  0  0  0  0  0  0  0
   56.3330   25.8840   45.6070 C   0  0  0  0  0  0  0  0  0  0  0  0
   55.3000   25.7490   46.3140 O   0  0  0  0  0  0  0  0  0  0  0  0
   57.1940   27.0080   45.8300 N   0  0  0  0  0  0  0  0  0  0  0  0
   58.2690   27.3280   46.7910 C   0  0  0  0  0  0  0  0  0  0  0  0
   58.7830   28.5350   46.0740 C   0  0  0  0  0  0  0  0  0  0  0  0
   57.6760   28.2070   45.1040 C   0  0  1  0  0  0  0  0  0  0  0  0
   58.2120   27.8230   43.7110 C   0  0  0  0  0  0  0  0  0  0  0  0
   56.6170   29.2920   45.0540 C   0  0  0  0  0  0  0  0  0  0  0  0
   55.4070   28.9810   44.8720 O   0  0  0  0  0  0  0  0  0  0  0  0
   56.9830   30.6670   45.2040 N   0  0  0  0  0  0  0  0  0  0  0  0
   58.1070   31.2730   44.5020 C   0  0  0  0  0  0  0  0  0  0  0  0
   58.5150   32.5440   45.2070 C   0  0  0  0  0  0  0  0  0  0  0  0
   58.5380   33.7430   44.4740 C   0  0  0  0  0  0  0  0  0  0  0  0
   58.9280   34.9420   45.0710 C   0  0  0  0  0  0  0  0  0  0  0  0
   59.2940   34.9710   46.4150 C   0  0  0  0  0  0  0  0  0  0  0  0
   59.2810   33.7940   47.1760 C   0  0  0  0  0  0  0  0  0  0  0  0
   59.6540   33.8330   48.5290 C   0  0  0  0  0  0  0  0  0  0  0  0
   59.6540   32.6650   49.2920 C   0  0  0  0  0  0  0  0  0  0  0  0
   59.2820   31.4510   48.7150 C   0  0  0  0  0  0  0  0  0  0  0  0
   58.9020   31.3960   47.3720 C   0  0  0  0  0  0  0  0  0  0  0  0
   58.8950   32.5630   46.5770 C   0  0  0  0  0  0  0  0  0  0  0  0
   57.7970   21.4660   44.2610 C   0  0  0  0  0  0  0  0  0  0  0  0
   57.3980   20.3300   44.8630 N   0  0  0  0  0  0  0  0  0  0  0  0
   56.4693   20.0142   47.9821 H   0  0  0  0  0  0  0  0  0  0  0  0
   55.1968   19.5540   46.8008 H   0  0  0  0  0  0  0  0  0  0  0  0
   56.7749   18.6960   46.8008 H   0  0  0  0  0  0  0  0  0  0  0  0
   56.4352   22.5232   47.0448 H   0  0  0  0  0  0  0  0  0  0  0  0
   58.7029   24.3596   44.8677 H   0  0  0  0  0  0  0  0  0  0  0  0
   56.0902   24.7552   43.7065 H   0  0  0  0  0  0  0  0  0  0  0  0
   57.8834   27.5641   47.7938 H   0  0  0  0  0  0  0  0  0  0  0  0
   58.9959   26.5312   47.0073 H   0  0  0  0  0  0  0  0  0  0  0  0
   58.6763   29.4885   46.6120 H   0  0  0  0  0  0  0  0  0  0  0  0
   59.8343   28.6764   45.7828 H   0  0  0  0  0  0  0  0  0  0  0  0
   59.1015   27.1857   43.8233 H   0  0  0  0  0  0  0  0  0  0  0  0
   57.4355   27.2745   43.1577 H   0  0  0  0  0  0  0  0  0  0  0  0
   58.4816   28.7347   43.1577 H   0  0  0  0  0  0  0  0  0  0  0  0
   58.9541   30.5714   44.4917 H   0  0  0  0  0  0  0  0  0  0  0  0
   57.8110   31.5060   43.4685 H   0  0  0  0  0  0  0  0  0  0  0  0
   58.2442   33.7359   43.4140 H   0  0  0  0  0  0  0  0  0  0  0  0
   58.9466   35.8684   44.4782 H   0  0  0  0  0  0  0  0  0  0  0  0
   59.5943   35.9212   46.8807 H   0  0  0  0  0  0  0  0  0  0  0  0
   59.9473   34.7881   48.9892 H   0  0  0  0  0  0  0  0  0  0  0  0
   59.9481   32.7017   50.3513 H   0  0  0  0  0  0  0  0  0  0  0  0
   59.2879   30.5326   49.3203 H   0  0  0  0  0  0  0  0  0  0  0  0
   58.6052   30.4338   46.9292 H   0  0  0  0  0  0  0  0  0  0  0  0
   58.3085   21.5351   43.2896 H   0  0  0  0  0  0  0  0  0  0  0  0
   57.5330   19.3600   44.4990 H   0  0  0  0  0  0  0  0  0  0  0  0
  1  2  1  0
  2  3  1  0
  3  4  2  0
  4  5  1  0
  5  6  2  3
  6  7  1  0
  7  8  2  0
  7  9  1  0
  9 10  1  0
 10 11  1  0
 11 12  1  0
 12 13  1  6
 12 14  1  0
 14 15  2  0
 14 16  1  0
 16 17  1  0
 17 18  1  0
 18 19  2  0
 19 20  1  0
 20 21  2  0
 21 22  1  0
 22 23  2  0
 23 24  1  0
 24 25  2  0
 25 26  1  0
 26 27  2  0
  4 28  1  0
 28 29  2  0
 29  2  1  0
 12  9  1  0
 27 18  1  0
 27 22  1  0
  1 30  1  0
  1 31  1  0
  1 32  1  0
  3 33  1  0
  5 34  1  0
  6 35  1  0
 10 36  1  0
 10 37  1  0
 11 38  1  0
 11 39  1  0
 13 40  1  0
 13 41  1  0
 13 42  1  0
 17 43  1  0
 17 44  1  0
 19 45  1  0
 20 46  1  0
 21 47  1  0
 23 48  1  0
 24 49  1  0
 25 50  1  0
 26 51  1  0
 28 52  1  0
 29 53  1  0
M  CHG  2  16  -1  29   1
M  END
>  <UniqueID>  (54) 
46

>  <SMILES>  (54) 
Cn1cc(C=CC(=O)N2CC[C@]2(C)C(=O)[N-]Cc2cccc3ccccc23)c[nH+]1

>  <Energy>  (54) 
132.4849119778699

>  <Genealogy>  (54) 
Cn1cc(C=CC(=O)N2CCC2(C)C(=O)[N-]Cc2cccc3ccccc23)c[nH+]1 (protonated)
Cn1cc(C=CC(=O)N2CC[C@]2(C)C(=O)[N-]Cc2cccc3ccccc23)c[nH+]1 (chirality)
Cn1cc(C=CC(=O)N2CC[C@]2(C)C(=O)[N-]Cc2cccc3ccccc23)c[nH+]1 (3D coordinates assigned)
Cn1cc(C=CC(=O)N2CC[C@]2(C)C(=O)[N-]Cc2cccc3ccccc23)c[nH+]1 (nonaromatic ring conformer: 132.4849119778699 kcal/mol)

>  <smiles>  (54) 
Cn1cc(C=CC(=O)N2CCC2(C)C(=O)NCc2cccc3ccccc23)cn1

>  <score_type>  (54) 
oracle

>  <origin>  (54) 
adg

>  <m_score__min__energy>  (54) 
-11.09

>  <m_primary>  (54) 
energy

$$$$
54:0
     RDKit          3D

 45 47  0  0  0  0  0  0  0  0999 V2000
   56.9947   28.9310   42.6533 H   0  0  0  0  0  0  0  0  0  0  0  0
   57.1960   29.1030   43.7210 C   0  0  0  0  0  0  0  0  0  0  0  0
   56.2310   29.8880   44.5090 C   0  0  0  0  0  0  0  0  0  0  0  0
   55.1530   29.3450   44.8730 O   0  0  0  0  0  0  0  0  0  0  0  0
   56.5070   31.2490   44.8660 N   0  0  0  0  0  0  0  0  0  0  0  0
   57.5190   32.0660   44.2090 C   0  0  0  0  0  0  0  0  0  0  0  0
   57.0310   32.9153   43.7085 H   0  0  0  0  0  0  0  0  0  0  0  0
   58.0526   31.4496   43.4705 H   0  0  0  0  0  0  0  0  0  0  0  0
   58.5060   32.5850   45.2180 C   0  0  0  0  0  0  0  0  0  0  0  0
   59.1640   31.7060   46.0940 C   0  0  0  0  0  0  0  0  0  0  0  0
   58.9741   30.6245   46.0290 H   0  0  0  0  0  0  0  0  0  0  0  0
   60.0590   32.1990   47.0480 C   0  0  0  0  0  0  0  0  0  0  0  0
   60.5753   31.5047   47.7273 H   0  0  0  0  0  0  0  0  0  0  0  0
   60.2990   33.5750   47.1400 C   0  0  0  0  0  0  0  0  0  0  0  0
   61.4450   34.2080   48.3660 S   0  0  0  0  0  0  0  0  0  0  0  0
   62.9070   33.5170   47.5320 C   0  0  0  0  0  0  0  0  0  0  0  0
   63.6314   33.1746   48.2857 H   0  0  0  0  0  0  0  0  0  0  0  0
   62.6029   32.6673   46.9031 H   0  0  0  0  0  0  0  0  0  0  0  0
   63.3705   34.2913   46.9031 H   0  0  0  0  0  0  0  0  0  0  0  0
   59.6460   34.4560   46.2700 C   0  0  0  0  0  0  0  0  0  0  0  0
   59.8381   35.5370   46.3370 H   0  0  0  0  0  0  0  0  0  0  0  0
   58.7500   33.9640   45.3160 C   0  0  0  0  0  0  0  0  0  0  0  0
   58.2339   34.6607   44.6391 H   0  0  0  0  0  0  0  0  0  0  0  0
   58.3110   28.5910   44.2600 C   0  0  0  0  0  0  0  0  0  0  0  0
   59.2825   28.9056   43.8511 H   0  0  0  0  0  0  0  0  0  0  0  0
   58.2980   27.6260   45.3750 C   0  0  0  0  0  0  0  0  0  0  0  0
   56.9970   26.6110   45.7160 S   0  0  0  0  0  0  0  0  0  0  0  0
   57.7660   25.9140   47.0360 C   0  0  0  0  0  0  0  0  0  0  0  0
   57.2250   24.9920   47.7740 N   0  0  0  0  0  0  0  0  0  0  0  0
   57.0480   23.6100   47.4190 C   0  0  0  0  0  0  0  0  0  0  0  0
   57.1110   22.7140   48.3050 O   0  0  0  0  0  0  0  0  0  0  0  0
   56.7900   23.2400   46.0030 C   0  0  0  0  0  0  0  0  0  0  0  0
   55.5760   23.6090   45.3890 C   0  0  0  0  0  0  0  0  0  0  0  0
   54.8246   24.1720   45.9621 H   0  0  0  0  0  0  0  0  0  0  0  0
   55.3180   23.2660   44.0580 C   0  0  0  0  0  0  0  0  0  0  0  0
   54.3670   23.5600   43.5899 H   0  0  0  0  0  0  0  0  0  0  0  0
   56.2640   22.5520   43.3230 C   0  0  0  0  0  0  0  0  0  0  0  0
   56.0100   22.2190   42.0330 F   0  0  0  0  0  0  0  0  0  0  0  0
   57.4720   22.1800   43.9150 C   0  0  0  0  0  0  0  0  0  0  0  0
   58.2170   21.6183   43.3323 H   0  0  0  0  0  0  0  0  0  0  0  0
   57.7400   22.5180   45.2460 C   0  0  0  0  0  0  0  0  0  0  0  0
   58.9260   22.1340   45.7840 F   0  0  0  0  0  0  0  0  0  0  0  0
   59.0010   26.4280   47.2360 N   0  0  0  0  0  0  0  0  0  0  0  0
   59.3030   27.3810   46.3140 C   0  0  0  0  0  0  0  0  0  0  0  0
   60.2635   27.9170   46.3080 H   0  0  0  0  0  0  0  0  0  0  0  0
  1  2  1  0
  2  3  1  0
  3  4  2  0
  3  5  1  0
  5  6  1  0
  6  7  1  0
  6  8  1  0
  6  9  1  0
  9 10  2  0
 10 11  1  0
 10 12  1  0
 12 13  1  0
 12 14  2  0
 14 15  1  0
 15 16  1  0
 16 17  1  0
 16 18  1  0
 16 19  1  0
 14 20  1  0
 20 21  1  0
 20 22  2  0
 22 23  1  0
  2 24  2  0
 24 25  1  0
 24 26  1  0
 26 27  1  0
 27 28  1  0
 28 29  2  3
 29 30  1  0
 30 31  2  0
 30 32  1  0
 32 33  2  0
 33 34  1  0
 33 35  1  0
 35 36  1  0
 35 37  2  0
 37 38  1  0
 37 39  1  0
 39 40  1  0
 39 41  2  0
 41 42  1  0
 28 43  1  0
 43 44  1  0
 44 45  1  0
 22  9  1  0
 44 26  2  0
 41 32  1  0
M  CHG  2   5  -1  43  -1
M  END
>  <UniqueID>  (55) 
47

>  <SMILES>  (55) 
CSc1ccc(C[N-]C(=O)/C=C/c2c[n-]c(=NC(=O)c3ccc(F)cc3F)s2)cc1

>  <Energy>  (55) 
74.08904979609989

>  <Genealogy>  (55) 
CSc1ccc(C[N-]C(=O)C=Cc2c[n-]c(=NC(=O)c3ccc(F)cc3F)s2)cc1 (protonated)
CSc1ccc(C[N-]C(=O)/C=C/c2c[n-]c(=NC(=O)c3ccc(F)cc3F)s2)cc1 (cis-trans isomerization)
CSc1ccc(C[N-]C(=O)/C=C/c2c[n-]c(=NC(=O)c3ccc(F)cc3F)s2)cc1 (3D coordinates assigned)
CSc1ccc(C[N-]C(=O)/C=C/c2c[n-]c(=NC(=O)c3ccc(F)cc3F)s2)cc1 (optimized conformer: 74.08904979609989 kcal/mol)

>  <smiles>  (55) 
CSc1ccc(CNC(=O)C=Cc2c[nH]c(=NC(=O)c3ccc(F)cc3F)s2)cc1

>  <score_type>  (55) 
oracle

>  <origin>  (55) 
adg

>  <m_score__min__energy>  (55) 
-12.1

>  <m_primary>  (55) 
energy

$$$$
55:0
     RDKit          3D

 30 31  0  0  0  0  0  0  0  0999 V2000
   55.2130   28.6410   45.6510 H   0  0  0  0  0  0  0  0  0  0  0  0
   56.0130   29.1160   45.1770 N   0  0  0  0  0  0  0  0  0  0  0  0
   57.2380   28.4260   44.9370 C   0  0  0  0  0  0  0  0  0  0  0  0
   57.7390   28.4410   43.7800 O   0  0  0  0  0  0  0  0  0  0  0  0
   57.9090   27.6850   46.0230 C   0  0  0  0  0  0  0  0  0  0  0  0
   58.9420   28.2240   46.6000 N   0  0  0  0  0  0  0  0  0  0  0  0
   58.9290   29.5110   47.0920 O   0  0  0  0  0  0  0  0  0  0  0  0
   59.7910   30.5020   46.5530 C   0  0  0  0  0  0  0  0  0  0  0  0
   60.5175   30.8088   47.3199 H   0  0  0  0  0  0  0  0  0  0  0  0
   60.3197   30.0856   45.6829 H   0  0  0  0  0  0  0  0  0  0  0  0
   58.9920   31.6980   46.1180 C   0  0  0  0  0  0  0  0  0  0  0  0
   58.2440   31.6590   44.9290 C   0  0  0  0  0  0  0  0  0  0  0  0
   58.2667   30.7596   44.2961 H   0  0  0  0  0  0  0  0  0  0  0  0
   57.4710   32.7600   44.5480 C   0  0  0  0  0  0  0  0  0  0  0  0
   56.8949   32.7287   43.6114 H   0  0  0  0  0  0  0  0  0  0  0  0
   57.4290   33.9000   45.3550 C   0  0  0  0  0  0  0  0  0  0  0  0
   56.8225   34.7662   45.0519 H   0  0  0  0  0  0  0  0  0  0  0  0
   58.1580   33.9400   46.5480 C   0  0  0  0  0  0  0  0  0  0  0  0
   58.1220   34.8361   47.1849 H   0  0  0  0  0  0  0  0  0  0  0  0
   58.9330   32.8400   46.9310 C   0  0  0  0  0  0  0  0  0  0  0  0
   59.4987   32.8706   47.8739 H   0  0  0  0  0  0  0  0  0  0  0  0
   57.3910   26.3690   46.4610 C   0  0  0  0  0  0  0  0  0  0  0  0
   56.0830   25.9190   46.4130 C   0  0  0  0  0  0  0  0  0  0  0  0
   54.9990   26.6580   45.9490 O   0  0  0  0  0  0  0  0  0  0  0  0
   55.1430   27.4820   45.3780 H   0  0  0  0  0  0  0  0  0  0  0  0
   55.9680   24.6680   46.9020 N   0  0  0  0  0  0  0  0  0  0  0  0
   57.2210   24.3330   47.2660 C   0  0  0  0  0  0  0  0  0  0  0  0
   57.5470   23.1050   47.8250 O   0  0  0  0  0  0  0  0  0  0  0  0
   58.1260   25.3450   47.0210 C   0  0  0  0  0  0  0  0  0  0  0  0
   59.2062   25.3370   47.2285 H   0  0  0  0  0  0  0  0  0  0  0  0
  1  2  1  0
  2  3  1  0
  3  4  2  0
  3  5  1  0
  5  6  2  0
  6  7  1  0
  7  8  1  0
  8  9  1  0
  8 10  1  0
  8 11  1  0
 11 12  2  0
 12 13  1  0
 12 14  1  0
 14 15  1  0
 14 16  2  0
 16 17  1  0
 16 18  1  0
 18 19  1  0
 18 20  2  0
 20 21  1  0
  5 22  1  0
 22 23  2  0
 23 24  1  0
 24 25  1  0
 23 26  1  0
 26 27  1  0
 27 28  1  0
 27 29  2  0
 29 30  1  0
 20 11  1  0
 29 22  1  0
M  CHG  3   2  -1  26  -1  28  -1
M  END
>  <UniqueID>  (56) 
48

>  <SMILES>  (56) 
[NH-]C(=O)/C(=N/OCc1ccccc1)c1cc([O-])[n-]c1O

>  <Energy>  (56) 
56.22557635940366

>  <Genealogy>  (56) 
[NH-]C(=O)C(=NOCc1ccccc1)c1cc([O-])[n-]c1O (protonated)
[NH-]C(=O)/C(=N/OCc1ccccc1)c1cc([O-])[n-]c1O (cis-trans isomerization)
[NH-]C(=O)/C(=N/OCc1ccccc1)c1cc([O-])[n-]c1O (3D coordinates assigned)
[NH-]C(=O)/C(=N/OCc1ccccc1)c1cc([O-])[n-]c1O (optimized conformer: 56.22557635940366 kcal/mol)

>  <smiles>  (56) 
NC(=O)C(=NOCc1ccccc1)c1cc(O)[nH]c1O

>  <score_type>  (56) 
oracle

>  <origin>  (56) 
adg

>  <m_score__min__energy>  (56) 
-13.9

>  <m_primary>  (56) 
energy

$$$$
56:0
     RDKit          3D

 42 44  0  0  0  0  0  0  0  0999 V2000
   55.7750   27.5460   45.9920 H   0  0  0  0  0  0  0  0  0  0  0  0
   55.1460   26.7130   46.0160 N   0  0  0  0  0  0  0  0  0  0  0  0
   55.5930   25.5170   45.8020 C   0  0  0  0  0  0  0  0  0  0  0  0
   54.7710   24.4450   45.9760 N   0  0  0  0  0  0  0  0  0  0  0  0
   55.1950   23.1720   45.7620 C   0  0  0  0  0  0  0  0  0  0  0  0
   54.5031   22.3298   45.9101 H   0  0  0  0  0  0  0  0  0  0  0  0
   56.5060   22.9330   45.3550 C   0  0  0  0  0  0  0  0  0  0  0  0
   56.8544   21.9040   45.1826 H   0  0  0  0  0  0  0  0  0  0  0  0
   57.3730   24.0100   45.1680 C   0  0  0  0  0  0  0  0  0  0  0  0
   58.4102   23.8312   44.8483 H   0  0  0  0  0  0  0  0  0  0  0  0
   56.9220   25.3250   45.3880 C   0  0  0  0  0  0  0  0  0  0  0  0
   57.7490   26.4480   45.2100 O   0  0  0  0  0  0  0  0  0  0  0  0
   57.9510   27.1380   43.9760 C   0  0  0  0  0  0  0  0  0  0  0  0
   58.9697   26.9368   43.6130 H   0  0  0  0  0  0  0  0  0  0  0  0
   57.2075   26.7823   43.2476 H   0  0  0  0  0  0  0  0  0  0  0  0
   57.7760   28.6230   44.1580 C   0  0  0  0  0  0  0  0  0  0  0  0
   56.8060   29.3240   43.4240 C   0  0  0  0  0  0  0  0  0  0  0  0
   56.1647   28.7856   42.7106 H   0  0  0  0  0  0  0  0  0  0  0  0
   56.6510   30.7020   43.5950 C   0  0  0  0  0  0  0  0  0  0  0  0
   55.8766   31.2404   43.0289 H   0  0  0  0  0  0  0  0  0  0  0  0
   57.4810   31.4040   44.4880 C   0  0  0  0  0  0  0  0  0  0  0  0
   57.3530   32.7860   44.7020 O   0  0  0  0  0  0  0  0  0  0  0  0
   58.3980   33.6520   45.0550 C   0  0  0  0  0  0  0  0  0  0  0  0
   59.0020   34.3140   44.1660 O   0  0  0  0  0  0  0  0  0  0  0  0
   58.8170   33.7420   46.4300 N   0  0  0  0  0  0  0  0  0  0  0  0
   58.0120   33.0980   47.4740 C   0  0  0  0  0  0  0  0  0  0  0  0
   57.1771   33.7597   47.7481 H   0  0  0  0  0  0  0  0  0  0  0  0
   57.6257   32.1427   47.0891 H   0  0  0  0  0  0  0  0  0  0  0  0
   58.8680   32.8250   48.7140 C   0  0  0  0  0  0  0  0  0  0  0  0
   58.2166   32.4896   49.5345 H   0  0  0  0  0  0  0  0  0  0  0  0
   59.6062   32.0478   48.4670 H   0  0  0  0  0  0  0  0  0  0  0  0
   59.5580   33.9910   49.1180 O   0  0  0  0  0  0  0  0  0  0  0  0
   60.4980   34.3490   48.1250 C   0  0  0  0  0  0  0  0  0  0  0  0
   61.1069   35.1890   48.4907 H   0  0  0  0  0  0  0  0  0  0  0  0
   61.1357   33.4783   47.9125 H   0  0  0  0  0  0  0  0  0  0  0  0
   59.7900   34.7670   46.8320 C   0  0  0  0  0  0  0  0  0  0  0  0
   59.2661   35.7201   46.9968 H   0  0  0  0  0  0  0  0  0  0  0  0
   60.5390   34.8821   46.0347 H   0  0  0  0  0  0  0  0  0  0  0  0
   58.4420   30.7020   45.2230 C   0  0  0  0  0  0  0  0  0  0  0  0
   59.0800   31.2390   45.9403 H   0  0  0  0  0  0  0  0  0  0  0  0
   58.5980   29.3230   45.0530 C   0  0  0  0  0  0  0  0  0  0  0  0
   59.3690   28.7847   45.6238 H   0  0  0  0  0  0  0  0  0  0  0  0
  1  2  1  0
  2  3  2  0
  3  4  1  0
  4  5  1  0
  5  6  1  0
  5  7  2  0
  7  8  1  0
  7  9  1  0
  9 10  1  0
  9 11  2  0
 11 12  1  0
 12 13  1  0
 13 14  1  0
 13 15  1  0
 13 16  1  0
 16 17  2  0
 17 18  1  0
 17 19  1  0
 19 20  1  0
 19 21  2  0
 21 22  1  0
 22 23  1  0
 23 24  2  0
 23 25  1  0
 25 26  1  0
 26 27  1  0
 26 28  1  0
 26 29  1  0
 29 30  1  0
 29 31  1  0
 29 32  1  0
 32 33  1  0
 33 34  1  0
 33 35  1  0
 33 36  1  0
 36 37  1  0
 36 38  1  0
 21 39  1  0
 39 40  1  0
 39 41  2  0
 41 42  1  0
 11  3  1  0
 41 16  1  0
 36 25  1  0
M  CHG  1   4  -1
M  END
>  <UniqueID>  (57) 
49

>  <SMILES>  (57) 
[H]/N=c1\[n-]cccc1OCc1ccc(OC(=O)N2CCOCC2)cc1

>  <Energy>  (57) 
49.49100188074654

>  <Genealogy>  (57) 
N=c1[n-]cccc1OCc1ccc(OC(=O)N2CCOCC2)cc1 (protonated)
[H]/N=c1\[n-]cccc1OCc1ccc(OC(=O)N2CCOCC2)cc1 (cis-trans isomerization)
[H]/N=c1\[n-]cccc1OCc1ccc(OC(=O)N2CCOCC2)cc1 (3D coordinates assigned)
[H]/N=c1\[n-]cccc1OCc1ccc(OC(=O)N2CCOCC2)cc1 (nonaromatic ring conformer: 49.49100188074654 kcal/mol)

>  <smiles>  (57) 
N=c1[nH]cccc1OCc1ccc(OC(=O)N2CCOCC2)cc1

>  <score_type>  (57) 
oracle

>  <origin>  (57) 
adg

>  <m_score__min__energy>  (57) 
-10.18

>  <m_primary>  (57) 
energy

$$$$
57:0
     RDKit          3D

 25 26  0  0  0  0  0  0  0  0999 V2000
   58.9410   33.8832   48.0023 H   0  0  0  0  0  0  0  0  0  0  0  0
   58.7140   33.4300   47.0260 C   0  0  0  0  0  0  0  0  0  0  0  0
   58.1820   32.1790   46.9640 N   0  0  0  0  0  0  0  0  0  0  0  0
   57.8850   31.5770   45.7760 C   0  0  0  0  0  0  0  0  0  0  0  0
   57.3770   30.3790   45.7310 N   0  0  0  0  0  0  0  0  0  0  0  0
   56.3470   29.9090   44.8490 C   0  0  0  0  0  0  0  0  0  0  0  0
   55.8930   30.6450   43.9310 O   0  0  0  0  0  0  0  0  0  0  0  0
   55.8820   28.5630   44.9930 N   0  0  0  0  0  0  0  0  0  0  0  0
   56.5920   27.4720   45.6000 C   0  0  0  0  0  0  0  0  0  0  0  0
   57.9970   27.4610   45.6940 C   0  0  0  0  0  0  0  0  0  0  0  0
   58.5783   28.3131   45.3117 H   0  0  0  0  0  0  0  0  0  0  0  0
   58.6570   26.3700   46.2720 C   0  0  0  0  0  0  0  0  0  0  0  0
   60.4080   26.3650   46.3870 Cl  0  0  0  0  0  0  0  0  0  0  0  0
   57.9230   25.2790   46.7460 C   0  0  0  0  0  0  0  0  0  0  0  0
   58.4419   24.4258   47.2073 H   0  0  0  0  0  0  0  0  0  0  0  0
   56.5310   25.2720   46.6340 C   0  0  0  0  0  0  0  0  0  0  0  0
   55.9557   24.4087   46.9997 H   0  0  0  0  0  0  0  0  0  0  0  0
   55.8660   26.3600   46.0580 C   0  0  0  0  0  0  0  0  0  0  0  0
   54.4800   26.3360   45.9470 O   0  0  0  0  0  0  0  0  0  0  0  0
   58.1320   32.2610   44.5790 C   0  0  0  0  0  0  0  0  0  0  0  0
   57.8973   31.7896   43.6132 H   0  0  0  0  0  0  0  0  0  0  0  0
   58.6780   33.5450   44.6200 C   0  0  0  0  0  0  0  0  0  0  0  0
   58.8767   34.0888   43.6847 H   0  0  0  0  0  0  0  0  0  0  0  0
   58.9720   34.1390   45.8500 C   0  0  0  0  0  0  0  0  0  0  0  0
   59.6580   35.7510   45.9180 Cl  0  0  0  0  0  0  0  0  0  0  0  0
  1  2  1  0
  2  3  1  0
  3  4  1  0
  4  5  2  0
  5  6  1  0
  6  7  2  0
  6  8  1  0
  8  9  1  0
  9 10  2  0
 10 11  1  0
 10 12  1  0
 12 13  1  0
 12 14  2  0
 14 15  1  0
 14 16  1  0
 16 17  1  0
 16 18  2  0
 18 19  1  0
  4 20  1  0
 20 21  1  0
 20 22  2  0
 22 23  1  0
 22 24  1  0
 24 25  1  0
 24  2  2  0
 18  9  1  0
M  CHG  3   3  -1   8  -1  19  -1
M  END
>  <UniqueID>  (58) 
50

>  <SMILES>  (58) 
O=C(/N=c1/ccc(Cl)c[n-]1)[N-]c1cc(Cl)ccc1[O-]

>  <Energy>  (58) 
32.85626968451993

>  <Genealogy>  (58) 
O=C(N=c1ccc(Cl)c[n-]1)[N-]c1cc(Cl)ccc1[O-] (protonated)
O=C(/N=c1/ccc(Cl)c[n-]1)[N-]c1cc(Cl)ccc1[O-] (cis-trans isomerization)
O=C(/N=c1/ccc(Cl)c[n-]1)[N-]c1cc(Cl)ccc1[O-] (3D coordinates assigned)
O=C(/N=c1/ccc(Cl)c[n-]1)[N-]c1cc(Cl)ccc1[O-] (optimized conformer: 32.85626968451993 kcal/mol)

>  <smiles>  (58) 
O=C(N=c1ccc(Cl)c[nH]1)Nc1cc(Cl)ccc1O

>  <score_type>  (58) 
oracle

>  <origin>  (58) 
adg

>  <m_score__min__energy>  (58) 
-13.67

>  <m_primary>  (58) 
energy

$$$$
58:0
     RDKit          3D

 39 41  0  0  0  0  0  0  0  0999 V2000
   63.8730   31.9910   46.7580 N   0  0  0  0  0  0  0  0  0  0  0  0
   63.5110   32.4620   48.3810 S   0  0  0  0  0  0  0  0  0  0  0  0
   63.6330   31.2710   49.2890 O   0  0  0  0  0  0  0  0  0  0  0  0
   64.4920   33.5090   48.8260 O   0  0  0  0  0  0  0  0  0  0  0  0
   61.8700   33.0970   48.4610 C   0  0  0  0  0  0  0  0  0  0  0  0
   61.4990   33.9840   49.4800 C   0  0  0  0  0  0  0  0  0  0  0  0
   60.2010   34.5000   49.5210 C   0  0  0  0  0  0  0  0  0  0  0  0
   59.2670   34.1310   48.5500 C   0  0  0  0  0  0  0  0  0  0  0  0
   59.6250   33.2300   47.5300 C   0  0  0  0  0  0  0  0  0  0  0  0
   58.7240   32.8510   46.5250 O   0  0  0  0  0  0  0  0  0  0  0  0
   58.5990   31.5620   45.9890 C   0  0  0  0  0  0  0  0  0  0  0  0
   58.2260   31.4230   44.6470 C   0  0  0  0  0  0  0  0  0  0  0  0
   58.1010   30.1560   44.0730 C   0  0  0  0  0  0  0  0  0  0  0  0
   58.3670   29.0040   44.8320 C   0  0  0  0  0  0  0  0  0  0  0  0
   58.1950   27.6360   44.2250 C   0  0  0  0  0  0  0  0  0  0  0  0
   57.4700   26.7190   45.1830 C   0  0  0  0  0  0  0  0  0  0  0  0
   56.1660   27.0110   45.6230 C   0  0  0  0  0  0  0  0  0  0  0  0
   55.5210   28.1730   45.2170 O   0  0  0  0  0  0  0  0  0  0  0  0
   55.5210   26.1550   46.4560 N   0  0  0  0  0  0  0  0  0  0  0  0
   56.1110   25.0070   46.8770 C   0  0  0  0  0  0  0  0  0  0  0  0
   55.4940   24.2290   47.6490 O   0  0  0  0  0  0  0  0  0  0  0  0
   57.3660   24.6980   46.4640 N   0  0  0  0  0  0  0  0  0  0  0  0
   58.0550   25.5190   45.6310 C   0  0  0  0  0  0  0  0  0  0  0  0
   59.2170   25.1930   45.2690 O   0  0  0  0  0  0  0  0  0  0  0  0
   58.7570   29.1410   46.1730 C   0  0  0  0  0  0  0  0  0  0  0  0
   58.8820   30.4110   46.7460 C   0  0  0  0  0  0  0  0  0  0  0  0
   60.9340   32.7330   47.4830 C   0  0  0  0  0  0  0  0  0  0  0  0
   64.4040   31.0920   46.8120 H   0  0  0  0  0  0  0  0  0  0  0  0
   64.5300   32.7050   46.3720 H   0  0  0  0  0  0  0  0  0  0  0  0
   62.2303   34.2746   50.2486 H   0  0  0  0  0  0  0  0  0  0  0  0
   59.9138   35.1989   50.3204 H   0  0  0  0  0  0  0  0  0  0  0  0
   58.2488   34.5459   48.5828 H   0  0  0  0  0  0  0  0  0  0  0  0
   58.0298   32.3189   44.0397 H   0  0  0  0  0  0  0  0  0  0  0  0
   57.7928   30.0595   43.0215 H   0  0  0  0  0  0  0  0  0  0  0  0
   57.6123   27.7228   43.2961 H   0  0  0  0  0  0  0  0  0  0  0  0
   59.1882   27.2141   44.0116 H   0  0  0  0  0  0  0  0  0  0  0  0
   58.9654   28.2453   46.7766 H   0  0  0  0  0  0  0  0  0  0  0  0
   59.2031   30.5099   47.7934 H   0  0  0  0  0  0  0  0  0  0  0  0
   61.2298   32.0514   46.6719 H   0  0  0  0  0  0  0  0  0  0  0  0
  1  2  1  0
  2  3  2  0
  2  4  2  0
  2  5  1  0
  5  6  2  0
  6  7  1  0
  7  8  2  0
  8  9  1  0
  9 10  1  0
 10 11  1  0
 11 12  2  0
 12 13  1  0
 13 14  2  0
 14 15  1  0
 15 16  1  0
 16 17  2  0
 17 18  1  0
 17 19  1  0
 19 20  1  0
 20 21  2  0
 20 22  1  0
 22 23  1  0
 23 24  2  0
 14 25  1  0
 25 26  2  0
  9 27  2  0
 27  5  1  0
 26 11  1  0
 23 16  1  0
  1 28  1  0
  1 29  1  0
  6 30  1  0
  7 31  1  0
  8 32  1  0
 12 33  1  0
 13 34  1  0
 15 35  1  0
 15 36  1  0
 25 37  1  0
 26 38  1  0
 27 39  1  0
M  CHG  3  18  -1  19  -1  22  -1
M  END
>  <UniqueID>  (59) 
51

>  <SMILES>  (59) 
NS(=O)(=O)c1cccc(Oc2ccc(Cc3c([O-])[n-]c(=O)[n-]c3=O)cc2)c1

>  <Energy>  (59) 
48.63092921118832

>  <Genealogy>  (59) 
NS(=O)(=O)c1cccc(Oc2ccc(Cc3c([O-])[n-]c(=O)[n-]c3=O)cc2)c1 (protonated)
NS(=O)(=O)c1cccc(Oc2ccc(Cc3c([O-])[n-]c(=O)[n-]c3=O)cc2)c1 (3D coordinates assigned)
NS(=O)(=O)c1cccc(Oc2ccc(Cc3c([O-])[n-]c(=O)[n-]c3=O)cc2)c1 (optimized conformer: 48.63092921118832 kcal/mol)

>  <smiles>  (59) 
NS(=O)(=O)c1cccc(Oc2ccc(Cc3c(O)[nH]c(=O)[nH]c3=O)cc2)c1

>  <score_type>  (59) 
oracle

>  <origin>  (59) 
adg

>  <m_score__min__energy>  (59) 
-15.32

>  <m_primary>  (59) 
energy

$$$$
59:0
     RDKit          3D

 54 57  0  0  0  0  0  0  0  0999 V2000
   63.3750   31.6730   50.8440 O   0  0  0  0  0  0  0  0  0  0  0  0
   63.4010   31.8670   49.5990 C   0  0  0  0  0  0  0  0  0  0  0  0
   64.5210   32.6710   49.0020 C   0  0  0  0  0  0  0  0  0  0  0  0
   64.0060   33.8050   48.2360 N   0  0  0  0  0  0  0  0  0  0  0  0
   63.0550   33.7250   47.1640 C   0  0  0  0  0  0  0  0  0  0  0  0
   63.4750   33.5690   45.9870 O   0  0  0  0  0  0  0  0  0  0  0  0
   61.6090   33.8770   47.3960 C   0  0  0  0  0  0  0  0  0  0  0  0
   61.1290   34.3850   48.6120 C   0  0  0  0  0  0  0  0  0  0  0  0
   59.7560   34.5550   48.8080 C   0  0  0  0  0  0  0  0  0  0  0  0
   58.8560   34.2200   47.7930 C   0  0  0  0  0  0  0  0  0  0  0  0
   59.3240   33.7080   46.5770 C   0  0  0  0  0  0  0  0  0  0  0  0
   58.1900   33.2990   45.2870 S   0  0  0  0  0  0  0  0  0  0  0  0
   58.8640   33.4960   43.9570 O   0  0  0  0  0  0  0  0  0  0  0  0
   57.0100   34.2270   45.3500 O   0  0  0  0  0  0  0  0  0  0  0  0
   57.6370   31.6480   45.4190 N   0  0  0  0  0  0  0  0  0  0  0  0
   57.3530   31.1010   44.0850 C   0  0  0  0  0  0  0  0  0  0  0  0
   56.6410   29.7530   44.2270 C   0  0  0  0  0  0  0  0  0  0  0  0
   57.3360   28.8550   45.2190 C   0  0  0  0  0  0  0  0  0  0  0  0
   57.0060   27.4920   45.2650 C   0  0  0  0  0  0  0  0  0  0  0  0
   57.6010   26.6530   46.2110 C   0  0  0  0  0  0  0  0  0  0  0  0
   58.5240   27.1690   47.1220 C   0  0  0  0  0  0  0  0  0  0  0  0
   58.8530   28.5270   47.0940 C   0  0  0  0  0  0  0  0  0  0  0  0
   58.2480   29.3820   46.1590 C   0  0  0  0  0  0  0  0  0  0  0  0
   58.6600   30.8330   46.0990 C   0  0  0  0  0  0  0  0  0  0  0  0
   60.7010   33.5270   46.3850 C   0  0  0  0  0  0  0  0  0  0  0  0
   62.3740   31.3220   48.7610 N   0  0  0  0  0  0  0  0  0  0  0  0
   61.4180   30.3430   49.2740 C   0  0  0  0  0  0  0  0  0  0  0  0
   60.2700   31.0310   49.9430 C   0  0  0  0  0  0  0  0  0  0  0  0
   58.9650   31.0770   49.4720 C   0  0  0  0  0  0  0  0  0  0  0  0
   58.1260   31.8760   50.2560 C   0  0  0  0  0  0  0  0  0  0  0  0
   58.7700   32.4730   51.3340 C   0  0  0  0  0  0  0  0  0  0  0  0
   60.3870   32.0080   51.3060 S   0  0  0  0  0  0  0  0  0  0  0  0
   65.1643   33.0468   49.8113 H   0  0  0  0  0  0  0  0  0  0  0  0
   65.0930   32.0219   48.3226 H   0  0  0  0  0  0  0  0  0  0  0  0
   61.8348   34.6501   49.4130 H   0  0  0  0  0  0  0  0  0  0  0  0
   59.3830   34.9533   49.7631 H   0  0  0  0  0  0  0  0  0  0  0  0
   57.7762   34.3590   47.9500 H   0  0  0  0  0  0  0  0  0  0  0  0
   56.7082   31.7998   43.5319 H   0  0  0  0  0  0  0  0  0  0  0  0
   58.2968   30.9612   43.5375 H   0  0  0  0  0  0  0  0  0  0  0  0
   55.6099   29.9290   44.5673 H   0  0  0  0  0  0  0  0  0  0  0  0
   56.6538   29.2544   43.2466 H   0  0  0  0  0  0  0  0  0  0  0  0
   56.2751   27.0817   44.5527 H   0  0  0  0  0  0  0  0  0  0  0  0
   57.3416   25.5844   46.2377 H   0  0  0  0  0  0  0  0  0  0  0  0
   58.9933   26.5056   47.8634 H   0  0  0  0  0  0  0  0  0  0  0  0
   59.5886   28.9275   47.8071 H   0  0  0  0  0  0  0  0  0  0  0  0
   58.7972   31.2101   47.1232 H   0  0  0  0  0  0  0  0  0  0  0  0
   59.5991   30.9061   45.5308 H   0  0  0  0  0  0  0  0  0  0  0  0
   61.0713   33.1087   45.4374 H   0  0  0  0  0  0  0  0  0  0  0  0
   62.3470   31.5990   47.7550 H   0  0  0  0  0  0  0  0  0  0  0  0
   61.0389   29.7355   48.4390 H   0  0  0  0  0  0  0  0  0  0  0  0
   61.9259   29.7022   50.0098 H   0  0  0  0  0  0  0  0  0  0  0  0
   58.6253   30.5400   48.5741 H   0  0  0  0  0  0  0  0  0  0  0  0
   57.0569   32.0186   50.0399 H   0  0  0  0  0  0  0  0  0  0  0  0
   58.3027   33.1355   52.0775 H   0  0  0  0  0  0  0  0  0  0  0  0
  1  2  2  0
  2  3  1  0
  3  4  1  0
  4  5  1  0
  5  6  2  0
  5  7  1  0
  7  8  2  0
  8  9  1  0
  9 10  2  0
 10 11  1  0
 11 12  1  0
 12 13  2  0
 12 14  2  0
 12 15  1  0
 15 16  1  0
 16 17  1  0
 17 18  1  0
 18 19  2  0
 19 20  1  0
 20 21  2  0
 21 22  1  0
 22 23  2  0
 23 24  1  0
 11 25  2  0
  2 26  1  0
 26 27  1  0
 27 28  1  0
 28 29  2  0
 29 30  1  0
 30 31  2  0
 31 32  1  0
 25  7  1  0
 32 28  1  0
 24 15  1  0
 23 18  1  0
  3 33  1  0
  3 34  1  0
  8 35  1  0
  9 36  1  0
 10 37  1  0
 16 38  1  0
 16 39  1  0
 17 40  1  0
 17 41  1  0
 19 42  1  0
 20 43  1  0
 21 44  1  0
 22 45  1  0
 24 46  1  0
 24 47  1  0
 25 48  1  0
 26 49  1  0
 27 50  1  0
 27 51  1  0
 29 52  1  0
 30 53  1  0
 31 54  1  0
M  CHG  1   4  -1
M  END
>  <UniqueID>  (60) 
52

>  <SMILES>  (60) 
O=C(C[N-]C(=O)c1cccc(S(=O)(=O)N2CCc3ccccc3C2)c1)NCc1cccs1

>  <Energy>  (60) 
81.49575828537397

>  <Genealogy>  (60) 
O=C(C[N-]C(=O)c1cccc(S(=O)(=O)N2CCc3ccccc3C2)c1)NCc1cccs1 (protonated)
O=C(C[N-]C(=O)c1cccc(S(=O)(=O)N2CCc3ccccc3C2)c1)NCc1cccs1 (3D coordinates assigned)
O=C(C[N-]C(=O)c1cccc(S(=O)(=O)N2CCc3ccccc3C2)c1)NCc1cccs1 (nonaromatic ring conformer: 81.49575828537397 kcal/mol)

>  <smiles>  (60) 
O=C(CNC(=O)c1cccc(S(=O)(=O)N2CCc3ccccc3C2)c1)NCc1cccs1

>  <score_type>  (60) 
oracle

>  <origin>  (60) 
adg

>  <m_score__min__energy>  (60) 
-12.869999999999999

>  <m_primary>  (60) 
energy

$$$$
60:0
     RDKit          3D

 42 44  0  0  0  0  0  0  0  0999 V2000
   54.4550   29.8350   45.2590 H   0  0  0  0  0  0  0  0  0  0  0  0
   55.1610   29.3520   44.6590 N   0  0  0  0  0  0  0  0  0  0  0  0
   56.2740   28.9020   45.1460 C   0  0  0  0  0  0  0  0  0  0  0  0
   56.3180   27.6340   45.6360 N   0  0  0  0  0  0  0  0  0  0  0  0
   57.4420   27.1110   46.1850 C   0  0  0  0  0  0  0  0  0  0  0  0
   57.4370   26.0801   46.5687 H   0  0  0  0  0  0  0  0  0  0  0  0
   58.6010   27.8750   46.2640 C   0  0  0  0  0  0  0  0  0  0  0  0
   59.5064   27.4559   46.7272 H   0  0  0  0  0  0  0  0  0  0  0  0
   58.6140   29.1790   45.7530 C   0  0  0  0  0  0  0  0  0  0  0  0
   59.8690   29.9470   45.8920 C   0  0  0  0  0  0  0  0  0  0  0  0
   60.5243   30.0643   45.0163 H   0  0  0  0  0  0  0  0  0  0  0  0
   60.2300   30.5040   47.0550 C   0  0  0  0  0  0  0  0  0  0  0  0
   59.7301   30.1694   47.9760 H   0  0  0  0  0  0  0  0  0  0  0  0
   61.2770   31.5550   47.1560 C   0  0  0  0  0  0  0  0  0  0  0  0
   62.5880   31.2170   47.5470 C   0  0  0  0  0  0  0  0  0  0  0  0
   62.8180   30.1834   47.8449 H   0  0  0  0  0  0  0  0  0  0  0  0
   63.5980   32.1810   47.5600 C   0  0  0  0  0  0  0  0  0  0  0  0
   64.6141   31.9061   47.8792 H   0  0  0  0  0  0  0  0  0  0  0  0
   63.3230   33.4900   47.1700 C   0  0  0  0  0  0  0  0  0  0  0  0
   64.1227   34.2453   47.1768 H   0  0  0  0  0  0  0  0  0  0  0  0
   62.0340   33.8430   46.7710 C   0  0  0  0  0  0  0  0  0  0  0  0
   61.8243   34.8765   46.4581 H   0  0  0  0  0  0  0  0  0  0  0  0
   61.0010   32.8910   46.7650 C   0  0  0  0  0  0  0  0  0  0  0  0
   59.6400   33.3300   46.3890 C   0  0  0  0  0  0  0  0  0  0  0  0
   59.4160   33.9530   45.1510 C   0  0  0  0  0  0  0  0  0  0  0  0
   60.2558   34.1160   44.4595 H   0  0  0  0  0  0  0  0  0  0  0  0
   58.1290   34.3670   44.7940 C   0  0  0  0  0  0  0  0  0  0  0  0
   57.9595   34.8643   43.8276 H   0  0  0  0  0  0  0  0  0  0  0  0
   57.0580   34.1490   45.6650 C   0  0  0  0  0  0  0  0  0  0  0  0
   56.0464   34.4783   45.3853 H   0  0  0  0  0  0  0  0  0  0  0  0
   57.2710   33.5130   46.8910 C   0  0  0  0  0  0  0  0  0  0  0  0
   56.4256   33.3363   47.5722 H   0  0  0  0  0  0  0  0  0  0  0  0
   58.5570   33.1010   47.2530 C   0  0  0  0  0  0  0  0  0  0  0  0
   58.7208   32.5964   48.2166 H   0  0  0  0  0  0  0  0  0  0  0  0
   57.4310   29.7190   45.1810 C   0  0  0  0  0  0  0  0  0  0  0  0
   57.3610   31.1630   44.7180 C   0  0  0  0  0  0  0  0  0  0  0  0
   56.4188   31.6083   45.0702 H   0  0  0  0  0  0  0  0  0  0  0  0
   58.2230   31.7060   45.1329 H   0  0  0  0  0  0  0  0  0  0  0  0
   57.4170   31.2530   43.1960 C   0  0  0  0  0  0  0  0  0  0  0  0
   57.9770   32.1531   42.9023 H   0  0  0  0  0  0  0  0  0  0  0  0
   57.9198   30.3609   42.7942 H   0  0  0  0  0  0  0  0  0  0  0  0
   56.3946   31.3099   42.7942 H   0  0  0  0  0  0  0  0  0  0  0  0
  1  2  1  0
  2  3  2  0
  3  4  1  0
  4  5  1  0
  5  6  1  0
  5  7  2  0
  7  8  1  0
  7  9  1  0
  9 10  1  0
 10 11  1  0
 10 12  2  0
 12 13  1  0
 12 14  1  0
 14 15  2  0
 15 16  1  0
 15 17  1  0
 17 18  1  0
 17 19  2  0
 19 20  1  0
 19 21  1  0
 21 22  1  0
 21 23  2  0
 23 24  1  0
 24 25  2  0
 25 26  1  0
 25 27  1  0
 27 28  1  0
 27 29  2  0
 29 30  1  0
 29 31  1  0
 31 32  1  0
 31 33  2  0
 33 34  1  0
  9 35  2  0
 35 36  1  0
 36 37  1  0
 36 38  1  0
 36 39  1  0
 39 40  1  0
 39 41  1  0
 39 42  1  0
 35  3  1  0
 23 14  1  0
 33 24  1  0
M  CHG  1   4  -1
M  END
>  <UniqueID>  (61) 
53

>  <SMILES>  (61) 
[H]/N=c1\[n-]ccc(/C=C/c2ccccc2-c2ccccc2)c1CC

>  <Energy>  (61) 
61.16135634098268

>  <Genealogy>  (61) 
CCc1c(C=Cc2ccccc2-c2ccccc2)cc[n-]c1=N (protonated)
[H]/N=c1\[n-]ccc(/C=C/c2ccccc2-c2ccccc2)c1CC (cis-trans isomerization)
[H]/N=c1\[n-]ccc(/C=C/c2ccccc2-c2ccccc2)c1CC (3D coordinates assigned)
[H]/N=c1\[n-]ccc(/C=C/c2ccccc2-c2ccccc2)c1CC (optimized conformer: 61.16135634098268 kcal/mol)

>  <smiles>  (61) 
CCc1c(C=Cc2ccccc2-c2ccccc2)cc[nH]c1=N

>  <score_type>  (61) 
oracle

>  <origin>  (61) 
adg

>  <m_score__min__energy>  (61) 
-11.289999999999999

>  <m_primary>  (61) 
energy

$$$$
61:0
     RDKit          3D

 67 71  0  0  0  0  0  0  0  0999 V2000
   63.0070   29.0039   52.2824 H   0  0  0  0  0  0  0  0  0  0  0  0
   62.1120   29.6410   52.2270 C   0  0  0  0  0  0  0  0  0  0  0  0
   62.2360   31.0740   52.5290 C   0  0  0  0  0  0  0  0  0  0  0  0
   61.7960   31.5090   53.6290 O   0  0  0  0  0  0  0  0  0  0  0  0
   62.8330   31.9400   51.6060 O   0  0  0  0  0  0  0  0  0  0  0  0
   64.2380   31.9960   51.3610 C   0  0  0  0  0  0  0  0  0  0  0  0
   64.6423   32.9241   51.7914 H   0  0  0  0  0  0  0  0  0  0  0  0
   64.7119   31.1193   51.8266 H   0  0  0  0  0  0  0  0  0  0  0  0
   64.5300   31.9710   49.8590 C   0  0  0  0  0  0  0  0  0  0  0  0
   65.4034   32.6083   49.6565 H   0  0  0  0  0  0  0  0  0  0  0  0
   64.7221   30.9278   49.5679 H   0  0  0  0  0  0  0  0  0  0  0  0
   63.3650   32.4720   49.0490 C   0  0  0  0  0  0  0  0  0  0  0  0
   62.7840   33.7200   49.3300 C   0  0  0  0  0  0  0  0  0  0  0  0
   63.1763   34.3341   50.1540 H   0  0  0  0  0  0  0  0  0  0  0  0
   61.7090   34.1840   48.5660 C   0  0  0  0  0  0  0  0  0  0  0  0
   61.2684   35.1685   48.7820 H   0  0  0  0  0  0  0  0  0  0  0  0
   61.1910   33.4020   47.5280 C   0  0  0  0  0  0  0  0  0  0  0  0
   59.8580   34.0180   46.5540 S   0  0  0  0  0  0  0  0  0  0  0  0
   59.3930   35.3380   47.1080 O   0  0  0  0  0  0  0  0  0  0  0  0
   60.3610   34.2480   45.1560 O   0  0  0  0  0  0  0  0  0  0  0  0
   58.5400   32.8620   46.5120 N   0  0  0  0  0  0  0  0  0  0  0  0
   58.5400   32.3920   47.4490 H   0  0  0  0  0  0  0  0  0  0  0  0
   58.7620   31.8190   45.4810 C   0  0  0  0  0  0  0  0  0  0  0  0
   59.8398   31.7557   45.2706 H   0  0  0  0  0  0  0  0  0  0  0  0
   58.3689   30.8710   45.8769 H   0  0  0  0  0  0  0  0  0  0  0  0
   58.0190   32.1180   44.1640 C   0  0  0  0  0  0  0  0  0  0  0  0
   58.5768   31.6757   43.3254 H   0  0  0  0  0  0  0  0  0  0  0  0
   57.0095   31.6845   44.2192 H   0  0  0  0  0  0  0  0  0  0  0  0
   57.9070   33.5100   43.9640 O   0  0  0  0  0  0  0  0  0  0  0  0
   57.0250   34.0740   44.9190 C   0  0  0  0  0  0  0  0  0  0  0  0
   57.1823   35.1625   44.9377 H   0  0  0  0  0  0  0  0  0  0  0  0
   56.0031   33.8047   44.6137 H   0  0  0  0  0  0  0  0  0  0  0  0
   57.2310   33.5250   46.3510 C   0  0  0  0  0  0  0  0  0  0  0  0
   57.1675   34.3609   47.0632 H   0  0  0  0  0  0  0  0  0  0  0  0
   56.4480   32.7762   46.5410 H   0  0  0  0  0  0  0  0  0  0  0  0
   61.7600   32.1520   47.2510 C   0  0  0  0  0  0  0  0  0  0  0  0
   61.3571   31.5347   46.4345 H   0  0  0  0  0  0  0  0  0  0  0  0
   62.8390   31.6870   48.0100 C   0  0  0  0  0  0  0  0  0  0  0  0
   63.2775   30.7020   47.7921 H   0  0  0  0  0  0  0  0  0  0  0  0
   60.9430   29.0900   51.8870 C   0  0  0  0  0  0  0  0  0  0  0  0
   60.3266   28.6325   52.6749 H   0  0  0  0  0  0  0  0  0  0  0  0
   60.4440   29.0700   50.4950 C   0  0  0  0  0  0  0  0  0  0  0  0
   60.7680   27.9880   49.7410 N   0  0  0  0  0  0  0  0  0  0  0  0
   60.3850   27.8750   48.4490 C   0  0  0  0  0  0  0  0  0  0  0  0
   60.7430   26.7420   47.7080 C   0  0  0  0  0  0  0  0  0  0  0  0
   61.3312   25.9403   48.1784 H   0  0  0  0  0  0  0  0  0  0  0  0
   60.3530   26.6300   46.3710 C   0  0  0  0  0  0  0  0  0  0  0  0
   60.6357   25.7400   45.7897 H   0  0  0  0  0  0  0  0  0  0  0  0
   59.6040   27.6470   45.7700 C   0  0  0  0  0  0  0  0  0  0  0  0
   59.3016   27.5566   44.7162 H   0  0  0  0  0  0  0  0  0  0  0  0
   59.2390   28.7780   46.5060 C   0  0  0  0  0  0  0  0  0  0  0  0
   58.6460   29.5739   46.0318 H   0  0  0  0  0  0  0  0  0  0  0  0
   59.6290   28.9000   47.8530 C   0  0  0  0  0  0  0  0  0  0  0  0
   59.2710   30.0050   48.6440 C   0  0  0  0  0  0  0  0  0  0  0  0
   58.5610   30.9250   48.1450 O   0  0  0  0  0  0  0  0  0  0  0  0
   59.6690   30.0750   49.9570 N   0  0  0  0  0  0  0  0  0  0  0  0
   59.1810   31.1610   50.7740 C   0  0  0  0  0  0  0  0  0  0  0  0
   59.7430   32.4420   50.6560 C   0  0  0  0  0  0  0  0  0  0  0  0
   60.5380   32.6270   49.9186 H   0  0  0  0  0  0  0  0  0  0  0  0
   59.2940   33.4830   51.4740 C   0  0  0  0  0  0  0  0  0  0  0  0
   59.7425   34.4834   51.3845 H   0  0  0  0  0  0  0  0  0  0  0  0
   58.2770   33.2560   52.4050 C   0  0  0  0  0  0  0  0  0  0  0  0
   57.9228   34.0785   53.0438 H   0  0  0  0  0  0  0  0  0  0  0  0
   57.7090   31.9830   52.5250 C   0  0  0  0  0  0  0  0  0  0  0  0
   56.9054   31.8058   53.2549 H   0  0  0  0  0  0  0  0  0  0  0  0
   58.1630   30.9360   51.7170 C   0  0  0  0  0  0  0  0  0  0  0  0
   57.7223   29.9334   51.8195 H   0  0  0  0  0  0  0  0  0  0  0  0
  1  2  1  0
  2  3  1  0
  3  4  2  0
  3  5  1  0
  5  6  1  0
  6  7  1  0
  6  8  1  0
  6  9  1  0
  9 10  1  0
  9 11  1  0
  9 12  1  0
 12 13  2  0
 13 14  1  0
 13 15  1  0
 15 16  1  0
 15 17  2  0
 17 18  1  0
 18 19  2  0
 18 20  2  0
 18 21  1  0
 21 22  1  0
 21 23  1  0
 23 24  1  0
 23 25  1  0
 23 26  1  0
 26 27  1  0
 26 28  1  0
 26 29  1  0
 29 30  1  0
 30 31  1  0
 30 32  1  0
 30 33  1  0
 33 34  1  0
 33 35  1  0
 17 36  1  0
 36 37  1  0
 36 38  2  0
 38 39  1  0
  2 40  2  0
 40 41  1  0
 40 42  1  0
 42 43  2  0
 43 44  1  0
 44 45  2  0
 45 46  1  0
 45 47  1  0
 47 48  1  0
 47 49  2  0
 49 50  1  0
 49 51  1  0
 51 52  1  0
 51 53  2  0
 53 54  1  0
 54 55  2  0
 54 56  1  0
 56 57  1  0
 57 58  2  0
 58 59  1  0
 58 60  1  0
 60 61  1  0
 60 62  2  0
 62 63  1  0
 62 64  1  0
 64 65  1  0
 64 66  2  0
 66 67  1  0
 38 12  1  0
 56 42  1  0
 66 57  1  0
 33 21  1  0
 53 44  1  0
M  CHG  1  21   1
M  END
>  <UniqueID>  (62) 
54

>  <SMILES>  (62) 
O=C(/C=C/c1nc2ccccc2c(=O)n1-c1ccccc1)OCCc1ccc(S(=O)(=O)[NH+]2CCOCC2)cc1

>  <Energy>  (62) 
94.22910799782429

>  <Genealogy>  (62) 
O=C(C=Cc1nc2ccccc2c(=O)n1-c1ccccc1)OCCc1ccc(S(=O)(=O)[NH+]2CCOCC2)cc1 (protonated)
O=C(/C=C/c1nc2ccccc2c(=O)n1-c1ccccc1)OCCc1ccc(S(=O)(=O)[NH+]2CCOCC2)cc1 (cis-trans isomerization)
O=C(/C=C/c1nc2ccccc2c(=O)n1-c1ccccc1)OCCc1ccc(S(=O)(=O)[NH+]2CCOCC2)cc1 (3D coordinates assigned)
O=C(/C=C/c1nc2ccccc2c(=O)n1-c1ccccc1)OCCc1ccc(S(=O)(=O)[NH+]2CCOCC2)cc1 (nonaromatic ring conformer: 94.22910799782429 kcal/mol)

>  <smiles>  (62) 
O=C(C=Cc1nc2ccccc2c(=O)n1-c1ccccc1)OCCc1ccc(S(=O)(=O)N2CCOCC2)cc1

>  <score_type>  (62) 
oracle

>  <origin>  (62) 
adg

>  <m_score__min__energy>  (62) 
-9.6899999999999995

>  <m_primary>  (62) 
energy

$$$$
62:0
     RDKit          3D

 43 45  0  0  0  0  0  0  0  0999 V2000
   58.5200   25.7280   45.5290 O   0  0  0  0  0  0  0  0  0  0  0  0
   57.7270   25.4940   46.4830 C   0  0  0  0  0  0  0  0  0  0  0  0
   58.0220   26.0030   47.7880 N   0  0  0  0  0  0  0  0  0  0  0  0
   59.3620   26.3770   48.2270 C   0  0  0  0  0  0  0  0  0  0  0  0
   59.6490   27.8070   47.8620 C   0  0  0  0  0  0  0  0  0  0  0  0
   60.0600   28.1520   46.5670 C   0  0  0  0  0  0  0  0  0  0  0  0
   60.3480   29.4810   46.2560 C   0  0  0  0  0  0  0  0  0  0  0  0
   60.2380   30.4630   47.2510 C   0  0  0  0  0  0  0  0  0  0  0  0
   60.5180   31.8820   46.9610 C   0  0  0  0  0  0  0  0  0  0  0  0
   61.7160   32.2720   46.9200 O   0  0  0  0  0  0  0  0  0  0  0  0
   59.4590   32.8230   46.7030 N   0  0  0  0  0  0  0  0  0  0  0  0
   59.5540   34.1920   47.2210 C   0  0  0  0  0  0  0  0  0  0  0  0
   59.6060   35.2020   46.0630 C   0  0  0  0  0  0  0  0  0  0  0  0
   58.6660   34.8420   44.8900 C   0  0  0  0  0  0  0  0  0  0  0  0
   57.6660   33.7340   45.2420 C   0  0  0  0  0  0  0  0  0  0  0  0
   58.4040   32.4820   45.7330 C   0  0  0  0  0  0  0  0  0  0  0  0
   59.8240   30.1080   48.4980 N   0  0  0  0  0  0  0  0  0  0  0  0
   59.5370   28.8200   48.8240 C   0  0  0  0  0  0  0  0  0  0  0  0
   56.4910   24.7020   46.2470 C   0  0  0  0  0  0  0  0  0  0  0  0
   56.5170   23.2900   46.2830 C   0  0  0  0  0  0  0  0  0  0  0  0
   57.7000   22.5980   46.5220 O   0  0  0  0  0  0  0  0  0  0  0  0
   55.3460   22.5610   46.0630 C   0  0  0  0  0  0  0  0  0  0  0  0
   54.1540   23.2360   45.8030 C   0  0  0  0  0  0  0  0  0  0  0  0
   53.0930   22.5910   45.5990 O   0  0  0  0  0  0  0  0  0  0  0  0
   54.1370   24.5920   45.7730 N   0  0  0  0  0  0  0  0  0  0  0  0
   55.2550   25.3360   45.9860 C   0  0  0  0  0  0  0  0  0  0  0  0
   55.1490   26.7220   45.9620 O   0  0  0  0  0  0  0  0  0  0  0  0
   59.4325   26.2596   49.3184 H   0  0  0  0  0  0  0  0  0  0  0  0
   60.0966   25.7260   47.7305 H   0  0  0  0  0  0  0  0  0  0  0  0
   60.1555   27.3740   45.7953 H   0  0  0  0  0  0  0  0  0  0  0  0
   60.6592   29.7567   45.2376 H   0  0  0  0  0  0  0  0  0  0  0  0
   58.6750   34.4041   47.8475 H   0  0  0  0  0  0  0  0  0  0  0  0
   60.4744   34.2847   47.8163 H   0  0  0  0  0  0  0  0  0  0  0  0
   59.3177   36.1906   46.4497 H   0  0  0  0  0  0  0  0  0  0  0  0
   60.6333   35.1919   45.6700 H   0  0  0  0  0  0  0  0  0  0  0  0
   58.1041   35.7427   44.6019 H   0  0  0  0  0  0  0  0  0  0  0  0
   59.2941   34.4693   44.0674 H   0  0  0  0  0  0  0  0  0  0  0  0
   56.9930   34.0921   46.0350 H   0  0  0  0  0  0  0  0  0  0  0  0
   57.0879   33.4769   44.3422 H   0  0  0  0  0  0  0  0  0  0  0  0
   57.6812   31.8065   46.2138 H   0  0  0  0  0  0  0  0  0  0  0  0
   58.8760   31.9972   44.8658 H   0  0  0  0  0  0  0  0  0  0  0  0
   59.2157   28.5719   49.8464 H   0  0  0  0  0  0  0  0  0  0  0  0
   55.3641   21.4616   46.0947 H   0  0  0  0  0  0  0  0  0  0  0  0
  1  2  2  0
  2  3  1  0
  3  4  1  0
  4  5  1  0
  5  6  2  0
  6  7  1  0
  7  8  2  0
  8  9  1  0
  9 10  2  0
  9 11  1  0
 11 12  1  0
 12 13  1  0
 13 14  1  0
 14 15  1  0
 15 16  1  0
  8 17  1  0
 17 18  2  0
  2 19  1  0
 19 20  1  0
 20 21  1  0
 20 22  2  0
 22 23  1  0
 23 24  2  0
 23 25  1  0
 25 26  1  0
 26 27  1  0
 18  5  1  0
 26 19  2  0
 16 11  1  0
  4 28  1  0
  4 29  1  0
  6 30  1  0
  7 31  1  0
 12 32  1  0
 12 33  1  0
 13 34  1  0
 13 35  1  0
 14 36  1  0
 14 37  1  0
 15 38  1  0
 15 39  1  0
 16 40  1  0
 16 41  1  0
 18 42  1  0
 22 43  1  0
M  CHG  4   3  -1  21  -1  25  -1  27  -1
M  END
>  <UniqueID>  (63) 
55

>  <SMILES>  (63) 
O=C([N-]Cc1ccc(C(=O)N2CCCCC2)nc1)c1c([O-])cc(=O)[n-]c1[O-]

>  <Energy>  (63) 
54.16979845453419

>  <Genealogy>  (63) 
O=C([N-]Cc1ccc(C(=O)N2CCCCC2)nc1)c1c([O-])cc(=O)[n-]c1[O-] (protonated)
O=C([N-]Cc1ccc(C(=O)N2CCCCC2)nc1)c1c([O-])cc(=O)[n-]c1[O-] (3D coordinates assigned)
O=C([N-]Cc1ccc(C(=O)N2CCCCC2)nc1)c1c([O-])cc(=O)[n-]c1[O-] (nonaromatic ring conformer: 54.16979845453419 kcal/mol)

>  <smiles>  (63) 
O=C(NCc1ccc(C(=O)N2CCCCC2)nc1)c1c(O)cc(=O)[nH]c1O

>  <score_type>  (63) 
oracle

>  <origin>  (63) 
adg

>  <m_score__min__energy>  (63) 
-17.059999999999999

>  <m_primary>  (63) 
energy

$$$$
63:0
     RDKit          3D

 42 45  0  0  0  0  0  0  0  0999 V2000
   61.7460   33.6390   51.3200 O   0  0  0  0  0  0  0  0  0  0  0  0
   60.6890   33.7940   50.6490 C   0  0  0  0  0  0  0  0  0  0  0  0
   59.4310   34.0140   51.3110 N   0  0  0  0  0  0  0  0  0  0  0  0
   58.5470   33.1070   51.6010 C   0  0  0  0  0  0  0  0  0  0  0  0
   58.3750   31.9380   50.9010 C   0  0  0  0  0  0  0  0  0  0  0  0
   57.3360   31.3210   51.5670 C   0  0  0  0  0  0  0  0  0  0  0  0
   56.9590   32.0920   52.5630 O   0  0  0  0  0  0  0  0  0  0  0  0
   57.6670   33.1830   52.6180 N   0  0  0  0  0  0  0  0  0  0  0  0
   60.7450   33.7640   49.1690 C   0  0  0  0  0  0  0  0  0  0  0  0
   61.9610   33.5350   48.5000 C   0  0  0  0  0  0  0  0  0  0  0  0
   62.0110   33.5290   47.1020 C   0  0  0  0  0  0  0  0  0  0  0  0
   60.8510   33.7530   46.3570 C   0  0  0  0  0  0  0  0  0  0  0  0
   59.6350   33.9770   47.0090 C   0  0  0  0  0  0  0  0  0  0  0  0
   58.1490   34.3110   46.0630 S   0  0  0  0  0  0  0  0  0  0  0  0
   58.0730   32.6290   45.4620 C   0  0  0  0  0  0  0  0  0  0  0  0
   57.5850   32.2280   44.2260 C   0  0  0  0  0  0  0  0  0  0  0  0
   57.5670   30.8810   44.0360 N   0  0  0  0  0  0  0  0  0  0  0  0
   58.0210   30.2180   45.1220 C   0  0  0  0  0  0  0  0  0  0  0  0
   58.0760   28.9200   45.1670 N   0  0  0  0  0  0  0  0  0  0  0  0
   56.9450   28.0470   45.2970 C   0  0  0  0  0  0  0  0  0  0  0  0
   55.7910   28.5390   45.1860 O   0  0  0  0  0  0  0  0  0  0  0  0
   57.1040   26.6130   45.6570 C   0  0  0  0  0  0  0  0  0  0  0  0
   58.3880   26.0380   45.6960 C   0  0  0  0  0  0  0  0  0  0  0  0
   58.5600   24.7000   46.0640 C   0  0  0  0  0  0  0  0  0  0  0  0
   59.8370   24.1510   46.0930 O   0  0  0  0  0  0  0  0  0  0  0  0
   57.4530   23.9210   46.4130 C   0  0  0  0  0  0  0  0  0  0  0  0
   57.6360   22.5980   46.8110 O   0  0  0  0  0  0  0  0  0  0  0  0
   56.1690   24.4780   46.3680 C   0  0  0  0  0  0  0  0  0  0  0  0
   55.9890   25.8150   45.9950 C   0  0  0  0  0  0  0  0  0  0  0  0
   54.6990   26.3340   45.9520 O   0  0  0  0  0  0  0  0  0  0  0  0
   58.4990   31.2710   46.3540 S   0  0  0  0  0  0  0  0  0  0  0  0
   59.5800   33.9740   48.4080 C   0  0  0  0  0  0  0  0  0  0  0  0
   58.9311   31.5801   50.0220 H   0  0  0  0  0  0  0  0  0  0  0  0
   56.8964   30.3465   51.3079 H   0  0  0  0  0  0  0  0  0  0  0  0
   62.8789   33.3594   49.0801 H   0  0  0  0  0  0  0  0  0  0  0  0
   62.9665   33.3474   46.5881 H   0  0  0  0  0  0  0  0  0  0  0  0
   60.8943   33.7531   45.2579 H   0  0  0  0  0  0  0  0  0  0  0  0
   57.2409   32.9411   43.4624 H   0  0  0  0  0  0  0  0  0  0  0  0
   59.2655   26.6476   45.4342 H   0  0  0  0  0  0  0  0  0  0  0  0
   58.5400   22.1440   46.7410 H   0  0  0  0  0  0  0  0  0  0  0  0
   55.2962   23.8608   46.6275 H   0  0  0  0  0  0  0  0  0  0  0  0
   58.6183   34.1371   48.9165 H   0  0  0  0  0  0  0  0  0  0  0  0
  1  2  2  0
  2  3  1  0
  3  4  2  3
  4  5  1  0
  5  6  2  0
  6  7  1  0
  7  8  1  0
  2  9  1  0
  9 10  2  0
 10 11  1  0
 11 12  2  0
 12 13  1  0
 13 14  1  0
 14 15  1  0
 15 16  2  0
 16 17  1  0
 17 18  1  0
 18 19  2  3
 19 20  1  0
 20 21  2  0
 20 22  1  0
 22 23  2  0
 23 24  1  0
 24 25  1  0
 24 26  2  0
 26 27  1  0
 26 28  1  0
 28 29  2  0
 29 30  1  0
 18 31  1  0
 13 32  2  0
  8  4  1  0
 32  9  1  0
 31 15  1  0
 29 22  1  0
  5 33  1  0
  6 34  1  0
 10 35  1  0
 11 36  1  0
 12 37  1  0
 16 38  1  0
 23 39  1  0
 27 40  1  0
 28 41  1  0
 32 42  1  0
M  CHG  4   8  -1  17  -1  25  -1  30  -1
M  END
>  <UniqueID>  (64) 
56

>  <SMILES>  (64) 
O=C(N=c1cco[n-]1)c1cccc(Sc2c[n-]c(=NC(=O)c3cc([O-])c(O)cc3[O-])s2)c1

>  <Energy>  (64) 
112.74550720561764

>  <Genealogy>  (64) 
O=C(N=c1cco[n-]1)c1cccc(Sc2c[n-]c(=NC(=O)c3cc([O-])c(O)cc3[O-])s2)c1 (protonated)
O=C(N=c1cco[n-]1)c1cccc(Sc2c[n-]c(=NC(=O)c3cc([O-])c(O)cc3[O-])s2)c1 (3D coordinates assigned)
O=C(N=c1cco[n-]1)c1cccc(Sc2c[n-]c(=NC(=O)c3cc([O-])c(O)cc3[O-])s2)c1 (optimized conformer: 112.74550720561764 kcal/mol)

>  <smiles>  (64) 
O=C(N=c1cco[nH]1)c1cccc(Sc2c[nH]c(=NC(=O)c3cc(O)c(O)cc3O)s2)c1

>  <score_type>  (64) 
oracle

>  <origin>  (64) 
adg

>  <m_score__min__energy>  (64) 
-17.34

>  <m_primary>  (64) 
energy

$$$$
64:0
     RDKit          3D

 81 86  0  0  0  0  0  0  0  0999 V2000
   57.9940   32.9800   47.6110 C   0  0  0  0  0  0  0  0  0  0  0  0
   59.4580   33.1200   47.8850 C   0  0  0  0  0  0  0  0  0  0  0  0
   60.4200   32.7330   47.0150 N   0  0  0  0  0  0  0  0  0  0  0  0
   61.5900   32.9820   47.6250 C   0  0  0  0  0  0  0  0  0  0  0  0
   62.8680   32.7060   47.1410 C   0  0  0  0  0  0  0  0  0  0  0  0
   63.9650   33.0140   47.9660 C   0  0  0  0  0  0  0  0  0  0  0  0
   63.7630   33.5750   49.2450 C   0  0  0  0  0  0  0  0  0  0  0  0
   62.4630   33.8230   49.7140 C   0  0  0  0  0  0  0  0  0  0  0  0
   61.3930   33.5220   48.8700 C   0  0  0  0  0  0  0  0  0  0  0  0
   60.0270   33.6160   49.0600 C   0  0  0  0  0  0  0  0  0  0  0  0
   59.3090   34.0940   50.2920 C   0  0  0  0  0  0  0  0  0  0  0  0
   59.7010   33.3030   51.5490 C   0  0  0  0  0  0  0  0  0  0  0  0
   59.0200   32.0000   51.6300 N   0  0  0  0  0  0  0  0  0  0  0  0
   59.8270   30.7730   51.7260 C   0  0  0  0  0  0  0  0  0  0  0  0
   59.9480   30.0790   50.3950 C   0  0  0  0  0  0  0  0  0  0  0  0
   61.1030   30.2180   49.6180 C   0  0  0  0  0  0  0  0  0  0  0  0
   61.1470   29.7130   48.3150 C   0  0  0  0  0  0  0  0  0  0  0  0
   60.0360   29.0430   47.7490 C   0  0  0  0  0  0  0  0  0  0  0  0
   60.0280   28.6570   46.3350 N   0  0  0  0  0  0  0  0  0  0  0  0
   59.9800   29.6580   45.2440 C   0  0  0  0  0  0  0  0  0  0  0  0
   58.5640   29.9100   44.8000 C   0  0  0  0  0  0  0  0  0  0  0  0
   57.4990   29.1540   45.3160 C   0  0  0  0  0  0  0  0  0  0  0  0
   56.1950   29.3600   44.8520 C   0  0  0  0  0  0  0  0  0  0  0  0
   55.9430   30.3250   43.8750 C   0  0  0  0  0  0  0  0  0  0  0  0
   56.9940   31.0920   43.3640 C   0  0  0  0  0  0  0  0  0  0  0  0
   58.2980   30.8890   43.8270 C   0  0  0  0  0  0  0  0  0  0  0  0
   60.2900   27.2540   45.9380 C   0  0  0  0  0  0  0  0  0  0  0  0
   59.0740   26.3610   46.0340 C   0  0  0  0  0  0  0  0  0  0  0  0
   58.3520   26.0770   44.8610 C   0  0  0  0  0  0  0  0  0  0  0  0
   57.1700   25.3310   44.9170 C   0  0  0  0  0  0  0  0  0  0  0  0
   56.6860   24.8780   46.1460 C   0  0  0  0  0  0  0  0  0  0  0  0
   57.3860   25.1680   47.3190 C   0  0  0  0  0  0  0  0  0  0  0  0
   58.5790   25.8940   47.2650 C   0  0  0  0  0  0  0  0  0  0  0  0
   58.9160   28.8300   48.5860 C   0  0  0  0  0  0  0  0  0  0  0  0
   58.8700   29.3520   49.8810 C   0  0  0  0  0  0  0  0  0  0  0  0
   57.6010   31.9340   51.8720 C   0  0  0  0  0  0  0  0  0  0  0  0
   57.0010   32.9270   52.3650 O   0  0  0  0  0  0  0  0  0  0  0  0
   56.8840   30.7230   51.5990 N   0  0  0  0  0  0  0  0  0  0  0  0
   55.6170   30.3230   52.1410 C   0  0  0  0  0  0  0  0  0  0  0  0
   55.5080   29.3860   53.1880 C   0  0  0  0  0  0  0  0  0  0  0  0
   54.2510   29.0480   53.7000 C   0  0  0  0  0  0  0  0  0  0  0  0
   53.0980   29.6420   53.1800 C   0  0  0  0  0  0  0  0  0  0  0  0
   53.2000   30.5870   52.1540 C   0  0  0  0  0  0  0  0  0  0  0  0
   51.7530   31.3370   51.5040 Cl  0  0  0  0  0  0  0  0  0  0  0  0
   54.4560   30.9320   51.6450 C   0  0  0  0  0  0  0  0  0  0  0  0
   57.4461   32.9276   48.5634 H   0  0  0  0  0  0  0  0  0  0  0  0
   57.6442   33.8488   47.0341 H   0  0  0  0  0  0  0  0  0  0  0  0
   57.8152   32.0607   47.0341 H   0  0  0  0  0  0  0  0  0  0  0  0
   60.2800   32.2970   46.0770 H   0  0  0  0  0  0  0  0  0  0  0  0
   63.0139   32.2614   46.1455 H   0  0  0  0  0  0  0  0  0  0  0  0
   64.9874   32.8162   47.6117 H   0  0  0  0  0  0  0  0  0  0  0  0
   64.6288   33.8194   49.8780 H   0  0  0  0  0  0  0  0  0  0  0  0
   62.2930   34.2420   50.7167 H   0  0  0  0  0  0  0  0  0  0  0  0
   59.5531   35.1545   50.4528 H   0  0  0  0  0  0  0  0  0  0  0  0
   58.2314   33.9458   50.1279 H   0  0  0  0  0  0  0  0  0  0  0  0
   60.7877   33.1329   51.5342 H   0  0  0  0  0  0  0  0  0  0  0  0
   59.3963   33.8946   52.4249 H   0  0  0  0  0  0  0  0  0  0  0  0
   60.8335   31.0357   52.0836 H   0  0  0  0  0  0  0  0  0  0  0  0
   59.3260   30.0875   52.4253 H   0  0  0  0  0  0  0  0  0  0  0  0
   61.9834   30.7286   50.0354 H   0  0  0  0  0  0  0  0  0  0  0  0
   62.0625   29.8388   47.7183 H   0  0  0  0  0  0  0  0  0  0  0  0
   60.4170   30.6015   45.6029 H   0  0  0  0  0  0  0  0  0  0  0  0
   60.5500   29.2683   44.3877 H   0  0  0  0  0  0  0  0  0  0  0  0
   57.6909   28.3956   46.0893 H   0  0  0  0  0  0  0  0  0  0  0  0
   55.3668   28.7604   45.2578 H   0  0  0  0  0  0  0  0  0  0  0  0
   54.9181   30.4816   43.5076 H   0  0  0  0  0  0  0  0  0  0  0  0
   56.7954   31.8555   42.5974 H   0  0  0  0  0  0  0  0  0  0  0  0
   59.1210   31.4995   43.4271 H   0  0  0  0  0  0  0  0  0  0  0  0
   60.6449   27.2476   44.8968 H   0  0  0  0  0  0  0  0  0  0  0  0
   61.0393   26.8552   46.6377 H   0  0  0  0  0  0  0  0  0  0  0  0
   58.7198   26.4445   43.8916 H   0  0  0  0  0  0  0  0  0  0  0  0
   56.6212   25.1010   43.9919 H   0  0  0  0  0  0  0  0  0  0  0  0
   55.7550   24.2938   46.1901 H   0  0  0  0  0  0  0  0  0  0  0  0
   56.9971   24.8239   48.2887 H   0  0  0  0  0  0  0  0  0  0  0  0
   59.1346   26.1016   48.1914 H   0  0  0  0  0  0  0  0  0  0  0  0
   58.0653   28.2424   48.2103 H   0  0  0  0  0  0  0  0  0  0  0  0
   57.9770   29.1895   50.5023 H   0  0  0  0  0  0  0  0  0  0  0  0
   56.4134   28.9195   53.6035 H   0  0  0  0  0  0  0  0  0  0  0  0
   54.1699   28.3127   54.5141 H   0  0  0  0  0  0  0  0  0  0  0  0
   52.1101   29.3663   53.5776 H   0  0  0  0  0  0  0  0  0  0  0  0
   54.5335   31.6873   50.8491 H   0  0  0  0  0  0  0  0  0  0  0  0
  1  2  1  0
  2  3  1  0
  3  4  1  0
  4  5  2  0
  5  6  1  0
  6  7  2  0
  7  8  1  0
  8  9  2  0
  9 10  1  0
 10 11  1  0
 11 12  1  0
 12 13  1  0
 13 14  1  0
 14 15  1  0
 15 16  2  0
 16 17  1  0
 17 18  2  0
 18 19  1  0
 19 20  1  0
 20 21  1  0
 21 22  2  0
 22 23  1  0
 23 24  2  0
 24 25  1  0
 25 26  2  0
 19 27  1  0
 27 28  1  0
 28 29  2  0
 29 30  1  0
 30 31  2  0
 31 32  1  0
 32 33  2  0
 18 34  1  0
 34 35  2  0
 13 36  1  0
 36 37  2  0
 36 38  1  0
 38 39  1  0
 39 40  2  0
 40 41  1  0
 41 42  2  0
 42 43  1  0
 43 44  1  0
 43 45  2  0
 10  2  2  0
 35 15  1  0
 45 39  1  0
  9  4  1  0
 26 21  1  0
 33 28  1  0
  1 46  1  0
  1 47  1  0
  1 48  1  0
  3 49  1  0
  5 50  1  0
  6 51  1  0
  7 52  1  0
  8 53  1  0
 11 54  1  0
 11 55  1  0
 12 56  1  0
 12 57  1  0
 14 58  1  0
 14 59  1  0
 16 60  1  0
 17 61  1  0
 20 62  1  0
 20 63  1  0
 22 64  1  0
 23 65  1  0
 24 66  1  0
 25 67  1  0
 26 68  1  0
 27 69  1  0
 27 70  1  0
 29 71  1  0
 30 72  1  0
 31 73  1  0
 32 74  1  0
 33 75  1  0
 34 76  1  0
 35 77  1  0
 40 78  1  0
 41 79  1  0
 42 80  1  0
 45 81  1  0
M  CHG  1  38  -1
M  END
>  <UniqueID>  (65) 
57

>  <SMILES>  (65) 
Cc1[nH]c2ccccc2c1CCN(Cc1ccc(N(Cc2ccccc2)Cc2ccccc2)cc1)C(=O)[N-]c1cccc(Cl)c1

>  <Energy>  (65) 
115.99098364995999

>  <Genealogy>  (65) 
Cc1[nH]c2ccccc2c1CCN(Cc1ccc(N(Cc2ccccc2)Cc2ccccc2)cc1)C(=O)[N-]c1cccc(Cl)c1 (protonated)
Cc1[nH]c2ccccc2c1CCN(Cc1ccc(N(Cc2ccccc2)Cc2ccccc2)cc1)C(=O)[N-]c1cccc(Cl)c1 (3D coordinates assigned)
Cc1[nH]c2ccccc2c1CCN(Cc1ccc(N(Cc2ccccc2)Cc2ccccc2)cc1)C(=O)[N-]c1cccc(Cl)c1 (optimized conformer: 115.99098364995999 kcal/mol)

>  <smiles>  (65) 
Cc1[nH]c2ccccc2c1CCN(Cc1ccc(N(Cc2ccccc2)Cc2ccccc2)cc1)C(=O)Nc1cccc(Cl)c1

>  <score_type>  (65) 
oracle

>  <origin>  (65) 
adg

>  <m_score__min__energy>  (65) 
-12.98

>  <m_primary>  (65) 
energy

$$$$
65:0
     RDKit          3D

 58 61  0  0  0  0  0  0  0  0999 V2000
   60.7770   33.0000   51.8070 C   0  0  0  0  0  0  0  0  0  0  0  0
   59.2120   33.4870   51.1120 S   0  0  0  0  0  0  0  0  0  0  0  0
   58.4520   32.2880   50.6190 O   0  0  0  0  0  0  0  0  0  0  0  0
   58.4010   34.1580   52.1850 O   0  0  0  0  0  0  0  0  0  0  0  0
   59.4640   34.6130   49.8140 N   0  0  0  0  0  0  0  0  0  0  0  0
   60.2870   34.3660   48.6570 C   0  0  0  0  0  0  0  0  0  0  0  0
   61.6420   33.9930   48.7700 C   0  0  0  0  0  0  0  0  0  0  0  0
   62.4150   33.7430   47.6240 C   0  0  0  0  0  0  0  0  0  0  0  0
   63.8380   33.2700   47.7490 C   0  0  0  0  0  0  0  0  0  0  0  0
   63.8550   31.8930   48.2400 N   0  0  0  0  0  0  0  0  0  0  0  0
   62.8080   31.2160   48.6090 C   0  0  0  0  0  0  0  0  0  0  0  0
   62.7540   30.7110   49.8660 N   0  0  0  0  0  0  0  0  0  0  0  0
   61.6880   29.9830   50.2950 C   0  0  0  0  0  0  0  0  0  0  0  0
   61.6910   29.4340   51.6260 N   0  0  0  0  0  0  0  0  0  0  0  0
   62.9850   29.1800   52.2730 C   0  0  0  0  0  0  0  0  0  0  0  0
   62.7930   28.5230   53.6390 C   0  0  0  0  0  0  0  0  0  0  0  0
   61.7310   27.5990   53.5670 O   0  0  0  0  0  0  0  0  0  0  0  0
   60.4990   28.2940   53.5160 C   0  0  0  0  0  0  0  0  0  0  0  0
   60.4460   29.3760   52.4110 C   0  0  0  0  0  0  0  0  0  0  0  0
   60.6260   29.7390   49.4110 C   0  0  0  0  0  0  0  0  0  0  0  0
   60.6660   30.2980   48.1200 C   0  0  0  0  0  0  0  0  0  0  0  0
   59.5510   30.1350   47.1360 C   0  0  0  0  0  0  0  0  0  0  0  0
   59.0180   28.8720   46.8030 C   0  0  0  0  0  0  0  0  0  0  0  0
   57.9720   28.7570   45.8820 C   0  0  0  0  0  0  0  0  0  0  0  0
   57.4190   29.8980   45.2790 C   0  0  0  0  0  0  0  0  0  0  0  0
   56.3140   29.7720   44.3000 C   0  0  0  0  0  0  0  0  0  0  0  0
   55.1440   29.0230   44.6210 N   0  0  0  0  0  0  0  0  0  0  0  0
   56.3970   30.3280   43.1710 O   0  0  0  0  0  0  0  0  0  0  0  0
   57.9280   31.1590   45.6260 C   0  0  0  0  0  0  0  0  0  0  0  0
   58.9760   31.2750   46.5420 C   0  0  0  0  0  0  0  0  0  0  0  0
   61.7680   31.0090   47.7560 N   0  0  0  0  0  0  0  0  0  0  0  0
   61.8250   33.8570   46.3560 C   0  0  0  0  0  0  0  0  0  0  0  0
   60.4900   34.2390   46.2350 C   0  0  0  0  0  0  0  0  0  0  0  0
   59.7230   34.4940   47.3740 C   0  0  0  0  0  0  0  0  0  0  0  0
   58.4230   34.8540   47.2240 F   0  0  0  0  0  0  0  0  0  0  0  0
   60.7127   33.0200   52.9049 H   0  0  0  0  0  0  0  0  0  0  0  0
   61.0258   31.9820   51.4727 H   0  0  0  0  0  0  0  0  0  0  0  0
   61.5595   33.6971   51.4727 H   0  0  0  0  0  0  0  0  0  0  0  0
   58.9570   35.5230   49.8940 H   0  0  0  0  0  0  0  0  0  0  0  0
   62.0987   33.8967   49.7661 H   0  0  0  0  0  0  0  0  0  0  0  0
   64.3263   33.3137   46.7643 H   0  0  0  0  0  0  0  0  0  0  0  0
   64.3776   33.9170   48.4562 H   0  0  0  0  0  0  0  0  0  0  0  0
   63.5824   28.5134   51.6337 H   0  0  0  0  0  0  0  0  0  0  0  0
   63.5011   30.1410   52.4151 H   0  0  0  0  0  0  0  0  0  0  0  0
   63.7163   27.9996   53.9279 H   0  0  0  0  0  0  0  0  0  0  0  0
   62.5605   29.2935   54.3888 H   0  0  0  0  0  0  0  0  0  0  0  0
   59.6960   27.5659   53.3291 H   0  0  0  0  0  0  0  0  0  0  0  0
   60.3784   28.8099   54.4800 H   0  0  0  0  0  0  0  0  0  0  0  0
   59.6104   29.1485   51.7328 H   0  0  0  0  0  0  0  0  0  0  0  0
   60.3111   30.3515   52.9011 H   0  0  0  0  0  0  0  0  0  0  0  0
   59.7729   29.1186   49.7231 H   0  0  0  0  0  0  0  0  0  0  0  0
   59.4300   27.9670   47.2733 H   0  0  0  0  0  0  0  0  0  0  0  0
   57.5783   27.7620   45.6272 H   0  0  0  0  0  0  0  0  0  0  0  0
   54.4730   29.3590   45.3470 H   0  0  0  0  0  0  0  0  0  0  0  0
   57.4977   32.0641   45.1725 H   0  0  0  0  0  0  0  0  0  0  0  0
   59.3583   32.2727   46.8036 H   0  0  0  0  0  0  0  0  0  0  0  0
   62.4181   33.6442   45.4544 H   0  0  0  0  0  0  0  0  0  0  0  0
   60.0382   34.3402   45.2372 H   0  0  0  0  0  0  0  0  0  0  0  0
  1  2  1  0
  2  3  2  0
  2  4  2  0
  2  5  1  0
  5  6  1  0
  6  7  2  0
  7  8  1  0
  8  9  1  0
  9 10  1  0
 10 11  2  3
 11 12  1  0
 12 13  2  0
 13 14  1  0
 14 15  1  0
 15 16  1  0
 16 17  1  0
 17 18  1  0
 18 19  1  0
 13 20  1  0
 20 21  2  0
 21 22  1  0
 22 23  2  0
 23 24  1  0
 24 25  2  0
 25 26  1  0
 26 27  1  0
 26 28  2  0
 25 29  1  0
 29 30  2  0
 21 31  1  0
  8 32  2  0
 32 33  1  0
 33 34  2  0
 34 35  1  0
 34  6  1  0
 31 11  1  0
 19 14  1  0
 30 22  1  0
  1 36  1  0
  1 37  1  0
  1 38  1  0
  5 39  1  0
  7 40  1  0
  9 41  1  0
  9 42  1  0
 15 43  1  0
 15 44  1  0
 16 45  1  0
 16 46  1  0
 18 47  1  0
 18 48  1  0
 19 49  1  0
 19 50  1  0
 20 51  1  0
 23 52  1  0
 24 53  1  0
 27 54  1  0
 29 55  1  0
 30 56  1  0
 32 57  1  0
 33 58  1  0
M  CHG  2  27  -1  31  -1
M  END
>  <UniqueID>  (66) 
58

>  <SMILES>  (66) 
CS(=O)(=O)Nc1cc(CN=c2nc(N3CCOCC3)cc(-c3ccc(C([NH-])=O)cc3)[n-]2)ccc1F

>  <Energy>  (66) 
72.59778822605527

>  <Genealogy>  (66) 
CS(=O)(=O)Nc1cc(CN=c2nc(N3CCOCC3)cc(-c3ccc(C([NH-])=O)cc3)[n-]2)ccc1F (protonated)
CS(=O)(=O)Nc1cc(CN=c2nc(N3CCOCC3)cc(-c3ccc(C([NH-])=O)cc3)[n-]2)ccc1F (3D coordinates assigned)
CS(=O)(=O)Nc1cc(CN=c2nc(N3CCOCC3)cc(-c3ccc(C([NH-])=O)cc3)[n-]2)ccc1F (nonaromatic ring conformer: 72.59778822605527 kcal/mol)

>  <smiles>  (66) 
CS(=O)(=O)Nc1cc(CN=c2nc(N3CCOCC3)cc(-c3ccc(C(N)=O)cc3)[nH]2)ccc1F

>  <score_type>  (66) 
oracle

>  <origin>  (66) 
adg

>  <m_score__min__energy>  (66) 
-12.69

>  <m_primary>  (66) 
energy

$$$$
66:0
     RDKit          3D

 53 55  0  0  0  0  0  0  0  0999 V2000
   62.6550   32.0780   49.1010 C   0  0  0  0  0  0  0  0  0  0  0  0
   62.5760   32.0020   47.3240 S   0  0  0  0  0  0  0  0  0  0  0  0
   63.7720   31.2460   46.8180 O   0  0  0  0  0  0  0  0  0  0  0  0
   62.6090   33.3960   46.7660 O   0  0  0  0  0  0  0  0  0  0  0  0
   61.0920   31.1660   46.7730 C   0  0  0  0  0  0  0  0  0  0  0  0
   60.7550   29.9370   47.6160 C   0  0  0  0  0  0  0  0  0  0  0  0
   59.4630   29.3830   47.2320 N   0  0  0  0  0  0  0  0  0  0  0  0
   59.1490   29.0310   45.8810 C   0  0  0  0  0  0  0  0  0  0  0  0
   60.0450   28.5700   45.1250 O   0  0  0  0  0  0  0  0  0  0  0  0
   57.7850   29.2390   45.3620 C   0  0  0  0  0  0  0  0  0  0  0  0
   57.2610   30.3740   44.7650 C   0  0  0  0  0  0  0  0  0  0  0  0
   58.0070   31.6310   44.4140 C   0  0  0  0  0  0  0  0  0  0  0  0
   57.1040   33.1370   44.9270 S   0  0  0  0  0  0  0  0  0  0  0  0
   58.2180   33.5440   46.2760 C   0  0  0  0  0  0  0  0  0  0  0  0
   58.1720   32.8150   47.4720 C   0  0  0  0  0  0  0  0  0  0  0  0
   59.0240   33.1480   48.5300 C   0  0  0  0  0  0  0  0  0  0  0  0
   59.9230   34.2100   48.3960 C   0  0  0  0  0  0  0  0  0  0  0  0
   59.9690   34.9420   47.2050 C   0  0  0  0  0  0  0  0  0  0  0  0
   59.1130   34.6130   46.1490 C   0  0  0  0  0  0  0  0  0  0  0  0
   55.9540   30.1730   44.5000 N   0  0  0  0  0  0  0  0  0  0  0  0
   55.6530   28.9810   44.9300 O   0  0  0  0  0  0  0  0  0  0  0  0
   56.7000   28.3840   45.4480 C   0  0  0  0  0  0  0  0  0  0  0  0
   56.6800   27.0150   45.9810 C   0  0  0  0  0  0  0  0  0  0  0  0
   57.7470   26.5070   46.4130 O   0  0  0  0  0  0  0  0  0  0  0  0
   55.4760   26.2400   46.0030 N   0  0  0  0  0  0  0  0  0  0  0  0
   55.4180   24.8260   46.3550 C   0  0  0  0  0  0  0  0  0  0  0  0
   56.1000   24.0050   45.2930 C   0  0  0  0  0  0  0  0  0  0  0  0
   55.4490   23.7200   44.0810 C   0  0  0  0  0  0  0  0  0  0  0  0
   56.0550   22.8910   43.1330 C   0  0  0  0  0  0  0  0  0  0  0  0
   57.3190   22.3490   43.3830 C   0  0  0  0  0  0  0  0  0  0  0  0
   57.9740   22.6300   44.5840 C   0  0  0  0  0  0  0  0  0  0  0  0
   57.3670   23.4510   45.5380 C   0  0  0  0  0  0  0  0  0  0  0  0
   61.9253   31.3760   49.5308 H   0  0  0  0  0  0  0  0  0  0  0  0
   63.6669   31.8052   49.4350 H   0  0  0  0  0  0  0  0  0  0  0  0
   62.4216   33.0997   49.4350 H   0  0  0  0  0  0  0  0  0  0  0  0
   60.2501   31.8717   46.8289 H   0  0  0  0  0  0  0  0  0  0  0  0
   61.2695   30.8219   45.7434 H   0  0  0  0  0  0  0  0  0  0  0  0
   61.5330   29.1737   47.4674 H   0  0  0  0  0  0  0  0  0  0  0  0
   60.7091   30.2371   48.6733 H   0  0  0  0  0  0  0  0  0  0  0  0
   58.9846   31.6152   44.9181 H   0  0  0  0  0  0  0  0  0  0  0  0
   58.1208   31.6617   43.3203 H   0  0  0  0  0  0  0  0  0  0  0  0
   57.4646   31.9794   47.5788 H   0  0  0  0  0  0  0  0  0  0  0  0
   58.9866   32.5741   49.4677 H   0  0  0  0  0  0  0  0  0  0  0  0
   60.5945   34.4701   49.2275 H   0  0  0  0  0  0  0  0  0  0  0  0
   60.6782   35.7762   47.0989 H   0  0  0  0  0  0  0  0  0  0  0  0
   59.1431   35.1956   45.2164 H   0  0  0  0  0  0  0  0  0  0  0  0
   55.9245   24.6690   47.3187 H   0  0  0  0  0  0  0  0  0  0  0  0
   54.3657   24.5151   46.4329 H   0  0  0  0  0  0  0  0  0  0  0  0
   54.4578   24.1513   43.8773 H   0  0  0  0  0  0  0  0  0  0  0  0
   55.5369   22.6648   42.1894 H   0  0  0  0  0  0  0  0  0  0  0  0
   57.7977   21.7012   42.6338 H   0  0  0  0  0  0  0  0  0  0  0  0
   58.9693   22.2044   44.7793 H   0  0  0  0  0  0  0  0  0  0  0  0
   57.8840   23.6643   46.4852 H   0  0  0  0  0  0  0  0  0  0  0  0
  1  2  1  0
  2  3  2  0
  2  4  2  0
  2  5  1  0
  5  6  1  0
  6  7  1  0
  7  8  1  0
  8  9  2  0
  8 10  1  0
 10 11  1  0
 11 12  1  0
 12 13  1  0
 13 14  1  0
 14 15  2  0
 15 16  1  0
 16 17  2  0
 17 18  1  0
 18 19  2  0
 11 20  2  0
 20 21  1  0
 21 22  1  0
 22 23  1  0
 23 24  2  0
 23 25  1  0
 25 26  1  0
 26 27  1  0
 27 28  2  0
 28 29  1  0
 29 30  2  0
 30 31  1  0
 31 32  2  0
 22 10  2  0
 32 27  1  0
 19 14  1  0
  1 33  1  0
  1 34  1  0
  1 35  1  0
  5 36  1  0
  5 37  1  0
  6 38  1  0
  6 39  1  0
 12 40  1  0
 12 41  1  0
 15 42  1  0
 16 43  1  0
 17 44  1  0
 18 45  1  0
 19 46  1  0
 26 47  1  0
 26 48  1  0
 28 49  1  0
 29 50  1  0
 30 51  1  0
 31 52  1  0
 32 53  1  0
M  CHG  2   7  -1  25  -1
M  END
>  <UniqueID>  (67) 
59

>  <SMILES>  (67) 
CS(=O)(=O)CC[N-]C(=O)c1c(CSc2ccccc2)noc1C(=O)[N-]Cc1ccccc1

>  <Energy>  (67) 
68.13489124554148

>  <Genealogy>  (67) 
CS(=O)(=O)CC[N-]C(=O)c1c(CSc2ccccc2)noc1C(=O)[N-]Cc1ccccc1 (protonated)
CS(=O)(=O)CC[N-]C(=O)c1c(CSc2ccccc2)noc1C(=O)[N-]Cc1ccccc1 (3D coordinates assigned)
CS(=O)(=O)CC[N-]C(=O)c1c(CSc2ccccc2)noc1C(=O)[N-]Cc1ccccc1 (optimized conformer: 68.13489124554148 kcal/mol)

>  <smiles>  (67) 
CS(=O)(=O)CCNC(=O)c1c(CSc2ccccc2)noc1C(=O)NCc1ccccc1

>  <score_type>  (67) 
oracle

>  <origin>  (67) 
adg

>  <m_score__min__energy>  (67) 
-12.73

>  <m_primary>  (67) 
energy

$$$$
67:0
     RDKit          3D

 64 67  0  0  0  0  0  0  0  0999 V2000
   59.5040   34.7350   47.3450 C   0  0  0  0  0  0  0  0  0  0  0  0
   59.0100   33.9030   46.4170 C   0  0  0  0  0  0  0  0  0  0  0  0
   59.2150   32.4140   46.5510 C   0  0  0  0  0  0  0  0  0  0  0  0
   58.8550   31.6920   45.2470 C   0  0  0  0  0  0  0  0  0  0  0  0
   57.4210   32.0250   44.7680 C   0  0  0  0  0  0  0  0  0  0  0  0
   57.1720   31.5300   43.3270 C   0  0  0  0  0  0  0  0  0  0  0  0
   56.9060   30.1240   43.2940 O   0  0  0  0  0  0  0  0  0  0  0  0
   57.4230   29.1560   44.1720 C   0  0  0  0  0  0  0  0  0  0  0  0
   58.7670   28.7360   44.1430 C   0  0  0  0  0  0  0  0  0  0  0  0
   59.2360   27.8030   45.0700 C   0  0  0  0  0  0  0  0  0  0  0  0
   58.3750   27.2670   46.0400 C   0  0  0  0  0  0  0  0  0  0  0  0
   58.8910   26.3340   47.0640 C   0  0  0  0  0  0  0  0  0  0  0  0
   58.4830   25.1420   47.0980 O   0  0  0  0  0  0  0  0  0  0  0  0
   59.8650   26.7630   48.0220 N   0  0  0  0  0  0  0  0  0  0  0  0
   59.7170   27.9680   48.8430 C   0  0  0  0  0  0  0  0  0  0  0  0
   60.5360   27.8560   50.1380 C   0  0  0  0  0  0  0  0  0  0  0  0
   60.4500   29.1550   50.9570 C   0  0  0  0  0  0  0  0  0  0  0  0
   60.8130   30.3600   50.1740 N   0  0  0  0  0  0  0  0  0  0  0  0
   62.2640   30.4770   49.9030 C   0  0  0  0  0  0  0  0  0  0  0  0
   62.5540   31.7080   49.0870 C   0  0  0  0  0  0  0  0  0  0  0  0
   63.0730   31.5970   47.7850 C   0  0  0  0  0  0  0  0  0  0  0  0
   63.3560   32.7470   47.0400 C   0  0  0  0  0  0  0  0  0  0  0  0
   63.1260   34.0120   47.5890 C   0  0  0  0  0  0  0  0  0  0  0  0
   62.6150   34.1290   48.8840 C   0  0  0  0  0  0  0  0  0  0  0  0
   62.3320   32.9830   49.6330 C   0  0  0  0  0  0  0  0  0  0  0  0
   59.9980   30.4720   48.9450 C   0  0  0  0  0  0  0  0  0  0  0  0
   60.1110   29.2250   48.0560 C   0  0  0  0  0  0  0  0  0  0  0  0
   57.0240   27.6530   46.0400 C   0  0  0  0  0  0  0  0  0  0  0  0
   56.5530   28.5880   45.1130 C   0  0  0  0  0  0  0  0  0  0  0  0
   55.2160   28.9670   45.1410 O   0  0  0  0  0  0  0  0  0  0  0  0
   57.0680   33.5400   44.9030 C   0  0  0  0  0  0  0  0  0  0  0  0
   58.2720   34.4370   45.2150 C   0  0  0  0  0  0  0  0  0  0  0  0
   59.3540   35.8203   47.2464 H   0  0  0  0  0  0  0  0  0  0  0  0
   60.0593   34.3324   48.2050 H   0  0  0  0  0  0  0  0  0  0  0  0
   60.2697   32.2161   46.7928 H   0  0  0  0  0  0  0  0  0  0  0  0
   58.5602   32.0400   47.3519 H   0  0  0  0  0  0  0  0  0  0  0  0
   59.5681   31.9951   44.4663 H   0  0  0  0  0  0  0  0  0  0  0  0
   58.9036   30.6096   45.4370 H   0  0  0  0  0  0  0  0  0  0  0  0
   56.7446   31.4796   45.4426 H   0  0  0  0  0  0  0  0  0  0  0  0
   56.3080   32.0672   42.9088 H   0  0  0  0  0  0  0  0  0  0  0  0
   58.0780   31.7239   42.7341 H   0  0  0  0  0  0  0  0  0  0  0  0
   59.4514   29.1455   43.3854 H   0  0  0  0  0  0  0  0  0  0  0  0
   60.2888   27.4856   45.0397 H   0  0  0  0  0  0  0  0  0  0  0  0
   58.6556   28.0585   49.1172 H   0  0  0  0  0  0  0  0  0  0  0  0
   60.1440   27.0237   50.7410 H   0  0  0  0  0  0  0  0  0  0  0  0
   61.5886   27.6769   49.8733 H   0  0  0  0  0  0  0  0  0  0  0  0
   59.4187   29.2717   51.3215 H   0  0  0  0  0  0  0  0  0  0  0  0
   61.1712   29.0707   51.7833 H   0  0  0  0  0  0  0  0  0  0  0  0
   62.8060   30.5407   50.8581 H   0  0  0  0  0  0  0  0  0  0  0  0
   62.5912   29.5920   49.3375 H   0  0  0  0  0  0  0  0  0  0  0  0
   63.2571   30.6032   47.3509 H   0  0  0  0  0  0  0  0  0  0  0  0
   63.7600   32.6557   46.0210 H   0  0  0  0  0  0  0  0  0  0  0  0
   63.3474   34.9152   47.0014 H   0  0  0  0  0  0  0  0  0  0  0  0
   62.4350   35.1248   49.3152 H   0  0  0  0  0  0  0  0  0  0  0  0
   61.9339   33.0801   50.6538 H   0  0  0  0  0  0  0  0  0  0  0  0
   58.9445   30.6089   49.2303 H   0  0  0  0  0  0  0  0  0  0  0  0
   60.3729   31.3311   48.3694 H   0  0  0  0  0  0  0  0  0  0  0  0
   59.4411   29.3353   47.1905 H   0  0  0  0  0  0  0  0  0  0  0  0
   61.1526   29.1217   47.7178 H   0  0  0  0  0  0  0  0  0  0  0  0
   56.3316   27.2164   46.7748 H   0  0  0  0  0  0  0  0  0  0  0  0
   56.6224   33.8768   43.9554 H   0  0  0  0  0  0  0  0  0  0  0  0
   56.3758   33.6303   45.7531 H   0  0  0  0  0  0  0  0  0  0  0  0
   58.9493   34.4534   44.3484 H   0  0  0  0  0  0  0  0  0  0  0  0
   57.9190   35.4565   45.4293 H   0  0  0  0  0  0  0  0  0  0  0  0
  1  2  2  0
  2  3  1  0
  3  4  1  0
  4  5  1  0
  5  6  1  0
  6  7  1  0
  7  8  1  0
  8  9  2  0
  9 10  1  0
 10 11  2  0
 11 12  1  0
 12 13  2  0
 12 14  1  0
 14 15  1  0
 15 16  1  0
 16 17  1  0
 17 18  1  0
 18 19  1  0
 19 20  1  0
 20 21  2  0
 21 22  1  0
 22 23  2  0
 23 24  1  0
 24 25  2  0
 18 26  1  0
 26 27  1  0
 11 28  1  0
 28 29  2  0
 29 30  1  0
  5 31  1  0
 31 32  1  0
 32  2  1  0
 29  8  1  0
 27 15  1  0
 25 20  1  0
  1 33  1  0
  1 34  1  0
  3 35  1  0
  3 36  1  0
  4 37  1  0
  4 38  1  0
  5 39  1  0
  6 40  1  0
  6 41  1  0
  9 42  1  0
 10 43  1  0
 15 44  1  0
 16 45  1  0
 16 46  1  0
 17 47  1  0
 17 48  1  0
 19 49  1  0
 19 50  1  0
 21 51  1  0
 22 52  1  0
 23 53  1  0
 24 54  1  0
 25 55  1  0
 26 56  1  0
 26 57  1  0
 27 58  1  0
 27 59  1  0
 28 60  1  0
 31 61  1  0
 31 62  1  0
 32 63  1  0
 32 64  1  0
M  CHG  2  14  -1  30  -1
M  END
>  <UniqueID>  (68) 
60

>  <SMILES>  (68) 
C=C1CCC(COc2ccc(C(=O)[N-]C3CCN(Cc4ccccc4)CC3)cc2[O-])CC1

>  <Energy>  (68) 
76.06323788790955

>  <Genealogy>  (68) 
C=C1CCC(COc2ccc(C(=O)[N-]C3CCN(Cc4ccccc4)CC3)cc2[O-])CC1 (protonated)
C=C1CCC(COc2ccc(C(=O)[N-]C3CCN(Cc4ccccc4)CC3)cc2[O-])CC1 (3D coordinates assigned)
C=C1CCC(COc2ccc(C(=O)[N-]C3CCN(Cc4ccccc4)CC3)cc2[O-])CC1 (nonaromatic ring conformer: 76.06323788790955 kcal/mol)

>  <smiles>  (68) 
C=C1CCC(COc2ccc(C(=O)NC3CCN(Cc4ccccc4)CC3)cc2O)CC1

>  <score_type>  (68) 
oracle

>  <origin>  (68) 
adg

>  <m_score__min__energy>  (68) 
-14.77

>  <m_primary>  (68) 
energy

$$$$
68:0
     RDKit          3D

 62 63  0  0  0  0  0  0  0  0999 V2000
   54.8460   26.3470   45.9520 N   0  0  0  0  0  0  0  0  0  0  0  0
   55.8060   25.3050   45.8000 C   0  0  0  0  0  0  0  0  0  0  0  0
   55.4560   24.1980   45.3100 O   0  0  0  0  0  0  0  0  0  0  0  0
   57.2290   25.5260   46.2330 C   0  0  2  0  0  0  0  0  0  0  0  0
   57.5300   24.8120   47.5600 C   0  0  0  0  0  0  0  0  0  0  0  0
   57.3650   23.3240   47.4390 C   0  0  0  0  0  0  0  0  0  0  0  0
   56.9970   22.4550   48.4490 C   0  0  0  0  0  0  0  0  0  0  0  0
   57.0090   21.1830   48.0060 N   0  0  0  0  0  0  0  0  0  0  0  0
   57.3950   21.2610   46.7160 C   0  0  0  0  0  0  0  0  0  0  0  0
   57.5400   20.1530   45.8900 O   0  0  0  0  0  0  0  0  0  0  0  0
   57.6320   22.5610   46.3240 C   0  0  0  0  0  0  0  0  0  0  0  0
   57.4740   26.9560   46.3920 N   0  0  0  0  0  0  0  0  0  0  0  0
   58.6450   27.4930   47.0190 C   0  0  0  0  0  0  0  0  0  0  0  0
   59.7260   26.8450   47.0130 O   0  0  0  0  0  0  0  0  0  0  0  0
   58.5860   28.8380   47.6800 C   0  0  1  0  0  0  0  0  0  0  0  0
   59.9570   29.2350   48.2690 C   0  0  0  0  0  0  0  0  0  0  0  0
   59.8620   30.2090   49.4650 C   0  0  0  0  0  0  0  0  0  0  0  0
   58.9410   31.4140   49.2120 C   0  0  0  0  0  0  0  0  0  0  0  0
   59.6970   32.5820   48.7590 N   0  0  0  0  0  0  0  0  0  0  0  0
   60.2970   32.7250   47.6110 C   0  0  0  0  0  0  0  0  0  0  0  0
   60.0410   31.7750   46.5770 N   0  0  0  0  0  0  0  0  0  0  0  0
   61.2100   33.8010   47.3610 N   0  0  0  0  0  0  0  0  0  0  0  0
   58.1690   29.8210   46.6840 N   0  0  0  0  0  0  0  0  0  0  0  0
   58.4560   29.7150   45.2840 C   0  0  0  0  0  0  0  0  0  0  0  0
   59.6190   29.9420   44.8540 O   0  0  0  0  0  0  0  0  0  0  0  0
   57.3610   29.3430   44.3190 C   0  0  1  0  0  0  0  0  0  0  0  0
   56.2100   28.7850   45.0350 N   0  0  0  0  0  0  0  0  0  0  0  0
   56.9400   30.5660   43.4860 C   0  0  0  0  0  0  0  0  0  0  0  0
   57.4160   31.8500   44.1140 C   0  0  0  0  0  0  0  0  0  0  0  0
   56.7540   32.3830   45.2330 C   0  0  0  0  0  0  0  0  0  0  0  0
   57.1800   33.5910   45.7950 C   0  0  0  0  0  0  0  0  0  0  0  0
   58.2640   34.2770   45.2390 C   0  0  0  0  0  0  0  0  0  0  0  0
   58.9210   33.7590   44.1200 C   0  0  0  0  0  0  0  0  0  0  0  0
   58.4980   32.5520   43.5550 C   0  0  0  0  0  0  0  0  0  0  0  0
   55.1470   27.3330   46.1130 H   0  0  0  0  0  0  0  0  0  0  0  0
   57.8887   25.1091   45.4578 H   0  0  0  0  0  0  0  0  0  0  0  0
   58.5658   25.0330   47.8570 H   0  0  0  0  0  0  0  0  0  0  0  0
   56.8177   25.1761   48.3150 H   0  0  0  0  0  0  0  0  0  0  0  0
   56.7314   22.7598   49.4720 H   0  0  0  0  0  0  0  0  0  0  0  0
   58.4260   19.9570   45.4390 H   0  0  0  0  0  0  0  0  0  0  0  0
   57.9625   22.9126   45.3355 H   0  0  0  0  0  0  0  0  0  0  0  0
   57.8665   28.8004   48.5112 H   0  0  0  0  0  0  0  0  0  0  0  0
   60.4680   28.3209   48.6056 H   0  0  0  0  0  0  0  0  0  0  0  0
   60.5093   29.7565   47.4734 H   0  0  0  0  0  0  0  0  0  0  0  0
   59.4774   29.6549   50.3339 H   0  0  0  0  0  0  0  0  0  0  0  0
   60.8729   30.6082   49.6343 H   0  0  0  0  0  0  0  0  0  0  0  0
   58.2038   31.1446   48.4413 H   0  0  0  0  0  0  0  0  0  0  0  0
   58.4426   31.6717   50.1582 H   0  0  0  0  0  0  0  0  0  0  0  0
   59.3790   30.9830   46.7370 H   0  0  0  0  0  0  0  0  0  0  0  0
   60.5030   31.8670   45.6460 H   0  0  0  0  0  0  0  0  0  0  0  0
   61.6790   33.8780   46.4320 H   0  0  0  0  0  0  0  0  0  0  0  0
   61.4700   34.5040   48.0870 H   0  0  0  0  0  0  0  0  0  0  0  0
   57.7473   28.5732   43.6348 H   0  0  0  0  0  0  0  0  0  0  0  0
   56.3570   28.8820   46.0660 H   0  0  0  0  0  0  0  0  0  0  0  0
   56.1450   27.7630   44.8220 H   0  0  0  0  0  0  0  0  0  0  0  0
   57.3726   30.4787   42.4784 H   0  0  0  0  0  0  0  0  0  0  0  0
   55.8413   30.5906   43.4387 H   0  0  0  0  0  0  0  0  0  0  0  0
   55.8973   31.8481   45.6688 H   0  0  0  0  0  0  0  0  0  0  0  0
   56.6621   34.0013   46.6745 H   0  0  0  0  0  0  0  0  0  0  0  0
   58.6000   35.2256   45.6831 H   0  0  0  0  0  0  0  0  0  0  0  0
   59.7722   34.3015   43.6829 H   0  0  0  0  0  0  0  0  0  0  0  0
   59.0136   32.1504   42.6702 H   0  0  0  0  0  0  0  0  0  0  0  0
  1  2  1  0
  2  3  2  0
  2  4  1  0
  4  5  1  0
  5  6  1  0
  6  7  2  0
  7  8  1  0
  8  9  1  0
  9 10  1  0
  9 11  2  0
  4 12  1  0
 12 13  1  0
 13 14  2  0
 13 15  1  0
 15 16  1  0
 16 17  1  0
 17 18  1  0
 18 19  1  0
 19 20  2  3
 20 21  1  0
 20 22  1  0
 15 23  1  0
 23 24  1  0
 24 25  2  0
 24 26  1  0
 26 27  1  0
 26 28  1  0
 28 29  1  0
 29 30  2  0
 30 31  1  0
 31 32  2  0
 32 33  1  0
 33 34  2  0
 11  6  1  0
 34 29  1  0
  1 35  1  0
  4 36  1  6
  5 37  1  0
  5 38  1  0
  7 39  1  0
 10 40  1  0
 11 41  1  0
 15 42  1  1
 16 43  1  0
 16 44  1  0
 17 45  1  0
 17 46  1  0
 18 47  1  0
 18 48  1  0
 21 49  1  0
 21 50  1  0
 22 51  1  0
 22 52  1  0
 26 53  1  6
 27 54  1  0
 27 55  1  0
 28 56  1  0
 28 57  1  0
 30 58  1  0
 31 59  1  0
 32 60  1  0
 33 61  1  0
 34 62  1  0
M  CHG  4   1  -1   8  -1  12  -1  23  -1
M  END
>  <UniqueID>  (69) 
61

>  <SMILES>  (69) 
[NH-]C(=O)[C@H](Cc1c[n-]c(O)c1)[N-]C(=O)[C@@H](CCCN=C(N)N)[N-]C(=O)C(N)Cc1ccccc1

>  <Energy>  (69) 
68.9742919534753

>  <Genealogy>  (69) 
[NH-]C(=O)C(Cc1c[n-]c(O)c1)[N-]C(=O)C(CCCN=C(N)N)[N-]C(=O)C(N)Cc1ccccc1 (protonated)
[NH-]C(=O)[C@H](Cc1c[n-]c(O)c1)[N-]C(=O)[C@@H](CCCN=C(N)N)[N-]C(=O)C(N)Cc1ccccc1 (chirality)
[NH-]C(=O)[C@H](Cc1c[n-]c(O)c1)[N-]C(=O)[C@@H](CCCN=C(N)N)[N-]C(=O)C(N)Cc1ccccc1 (3D coordinates assigned)
[NH-]C(=O)[C@H](Cc1c[n-]c(O)c1)[N-]C(=O)[C@@H](CCCN=C(N)N)[N-]C(=O)C(N)Cc1ccccc1 (optimized conformer: 68.9742919534753 kcal/mol)

>  <smiles>  (69) 
NC(=O)C(Cc1c[nH]c(O)c1)NC(=O)C(CCCN=C(N)N)NC(=O)C(N)Cc1ccccc1

>  <score_type>  (69) 
oracle

>  <origin>  (69) 
adg

>  <m_score__min__energy>  (69) 
-17.440000000000001

>  <m_primary>  (69) 
energy

$$$$
69:0
     RDKit          3D

 57 60  0  0  1  0  0  0  0  0999 V2000
   58.9530   26.5850   46.1520 O   0  0  0  0  0  0  0  0  0  0  0  0
   57.8120   26.9230   45.8190 C   0  0  0  0  0  0  0  0  0  0  0  0
   57.4040   28.2590   46.1830 N   0  0  0  0  0  0  0  0  0  0  0  0
   57.2690   29.1980   45.3070 C   0  0  0  0  0  0  0  0  0  0  0  0
   57.5150   30.4510   45.7270 N   0  0  0  0  0  0  0  0  0  0  0  0
   57.4010   31.5200   44.8830 C   0  0  0  0  0  0  0  0  0  0  0  0
   57.6660   32.8250   45.3490 N   0  0  0  0  0  0  0  0  0  0  0  0
   57.7090   34.0070   44.5160 C   0  0  0  0  0  0  0  0  0  0  0  0
   59.1430   34.5250   44.6210 C   0  0  0  0  0  0  0  0  0  0  0  0
   59.3310   34.9620   46.0680 C   0  0  0  0  0  0  0  0  0  0  0  0
   59.2360   33.7430   46.9920 C   0  0  1  0  0  0  0  0  0  0  0  0
   59.2890   34.2180   48.3390 N   0  0  0  0  0  0  0  0  0  0  0  0
   59.0450   33.3110   49.2750 O   0  0  0  0  0  0  0  0  0  0  0  0
   60.1030   32.5510   49.6980 C   0  0  0  0  0  0  0  0  0  0  0  0
   61.3420   32.6810   48.9240 C   0  0  0  0  0  0  0  0  0  0  0  0
   62.2700   33.6830   49.2390 C   0  0  0  0  0  0  0  0  0  0  0  0
   63.4400   33.8380   48.5260 C   0  0  0  0  0  0  0  0  0  0  0  0
   63.7660   33.0230   47.4690 C   0  0  0  0  0  0  0  0  0  0  0  0
   62.8600   32.0270   47.1450 C   0  0  0  0  0  0  0  0  0  0  0  0
   61.6910   31.8740   47.8600 C   0  0  0  0  0  0  0  0  0  0  0  0
   60.6210   30.5780   47.3740 Cl  0  0  0  0  0  0  0  0  0  0  0  0
   57.9210   33.0260   46.7730 C   0  0  0  0  0  0  0  0  0  0  0  0
   57.0220   31.2160   43.5940 C   0  0  0  0  0  0  0  0  0  0  0  0
   56.7700   29.9200   43.1680 C   0  0  0  0  0  0  0  0  0  0  0  0
   56.9000   28.9040   44.0480 N   0  0  0  0  0  0  0  0  0  0  0  0
   56.9390   26.0700   45.1240 N   0  0  0  0  0  0  0  0  0  0  0  0
   57.1890   24.7620   44.7070 C   0  0  0  0  0  0  0  0  0  0  0  0
   56.4990   24.0710   43.7420 C   0  0  0  0  0  0  0  0  0  0  0  0
   56.8030   22.7630   43.3780 C   0  0  0  0  0  0  0  0  0  0  0  0
   57.8300   22.0960   43.9850 C   0  0  0  0  0  0  0  0  0  0  0  0
   58.5370   22.7730   44.9600 C   0  0  0  0  0  0  0  0  0  0  0  0
   59.5450   22.1440   45.5690 F   0  0  0  0  0  0  0  0  0  0  0  0
   58.2330   24.0610   45.3140 C   0  0  0  0  0  0  0  0  0  0  0  0
   57.4671   33.7523   43.4736 H   0  0  0  0  0  0  0  0  0  0  0  0
   56.9766   34.7617   44.8384 H   0  0  0  0  0  0  0  0  0  0  0  0
   59.8564   33.7269   44.3677 H   0  0  0  0  0  0  0  0  0  0  0  0
   59.3210   35.3573   43.9241 H   0  0  0  0  0  0  0  0  0  0  0  0
   60.3190   35.4317   46.1827 H   0  0  0  0  0  0  0  0  0  0  0  0
   58.5455   35.6841   46.3355 H   0  0  0  0  0  0  0  0  0  0  0  0
   60.0590   33.0436   46.7836 H   0  0  0  0  0  0  0  0  0  0  0  0
   58.8850   35.1510   48.4810 H   0  0  0  0  0  0  0  0  0  0  0  0
   60.3252   32.8335   50.7376 H   0  0  0  0  0  0  0  0  0  0  0  0
   59.7846   31.5057   49.5720 H   0  0  0  0  0  0  0  0  0  0  0  0
   62.0594   34.3637   50.0771 H   0  0  0  0  0  0  0  0  0  0  0  0
   64.1353   34.6406   48.8129 H   0  0  0  0  0  0  0  0  0  0  0  0
   64.7022   33.1553   46.9068 H   0  0  0  0  0  0  0  0  0  0  0  0
   63.0758   31.3490   46.3061 H   0  0  0  0  0  0  0  0  0  0  0  0
   57.9570   32.0473   47.2738 H   0  0  0  0  0  0  0  0  0  0  0  0
   57.1115   33.6426   47.1907 H   0  0  0  0  0  0  0  0  0  0  0  0
   56.9144   32.0374   42.8703 H   0  0  0  0  0  0  0  0  0  0  0  0
   56.4687   29.7229   42.1286 H   0  0  0  0  0  0  0  0  0  0  0  0
   56.7170   27.9180   43.7620 H   0  0  0  0  0  0  0  0  0  0  0  0
   55.9820   26.4880   44.8990 H   0  0  0  0  0  0  0  0  0  0  0  0
   55.6654   24.5759   43.2319 H   0  0  0  0  0  0  0  0  0  0  0  0
   56.2128   22.2623   42.5964 H   0  0  0  0  0  0  0  0  0  0  0  0
   58.0834   21.0619   43.7084 H   0  0  0  0  0  0  0  0  0  0  0  0
   58.8267   24.5558   46.0967 H   0  0  0  0  0  0  0  0  0  0  0  0
  1  2  2  0
  2  3  1  0
  3  4  2  0
  4  5  1  0
  5  6  2  0
  6  7  1  0
  7  8  1  0
  8  9  1  0
  9 10  1  0
 10 11  1  0
 11 12  1  0
 12 13  1  0
 13 14  1  0
 14 15  1  0
 15 16  2  0
 16 17  1  0
 17 18  2  0
 18 19  1  0
 19 20  2  0
 20 21  1  0
 11 22  1  0
  6 23  1  0
 23 24  2  0
 24 25  1  0
  2 26  1  0
 26 27  1  0
 27 28  2  0
 28 29  1  0
 29 30  2  0
 30 31  1  0
 31 32  1  0
 31 33  2  0
 25  4  1  0
 33 27  1  0
 22  7  1  0
 20 15  1  0
  8 34  1  0
  8 35  1  0
  9 36  1  0
  9 37  1  0
 10 38  1  0
 10 39  1  0
 11 40  1  6
 12 41  1  0
 14 42  1  0
 14 43  1  0
 16 44  1  0
 17 45  1  0
 18 46  1  0
 19 47  1  0
 22 48  1  0
 22 49  1  0
 23 50  1  0
 24 51  1  0
 25 52  1  0
 26 53  1  0
 28 54  1  0
 29 55  1  0
 30 56  1  0
 33 57  1  0
M  END
>  <smiles>  (70) 
O=C(N=c1nc(N2CCCC(NOCc3ccccc3Cl)C2)cc[nH]1)Nc1cccc(F)c1

>  <score_type>  (70) 
oracle

>  <origin>  (70) 
adg

>  <m_score__min__energy>  (70) 
-10.529999999999999

>  <m_primary>  (70) 
energy

$$$$
70:0
     RDKit          3D

 56 59  0  0  0  0  0  0  0  0999 V2000
   60.9450   34.2140   46.0240 C   0  0  0  0  0  0  0  0  0  0  0  0
   60.0140   35.3690   46.3800 C   0  0  0  0  0  0  0  0  0  0  0  0
   58.9550   34.9710   47.4240 C   0  0  0  0  0  0  0  0  0  0  0  0
   58.8470   33.4960   47.5690 N   0  0  0  0  0  0  0  0  0  0  0  0
   59.4160   32.9210   48.6880 C   0  0  0  0  0  0  0  0  0  0  0  0
   60.0170   33.6480   49.5320 O   0  0  0  0  0  0  0  0  0  0  0  0
   59.3520   31.5710   48.9060 N   0  0  0  0  0  0  0  0  0  0  0  0
   60.0470   30.9810   50.0730 C   0  0  0  0  0  0  0  0  0  0  0  0
   61.4040   30.3830   49.6700 C   0  0  0  0  0  0  0  0  0  0  0  0
   62.3090   31.4180   49.0530 C   0  0  0  0  0  0  0  0  0  0  0  0
   62.5490   31.4170   47.6690 C   0  0  0  0  0  0  0  0  0  0  0  0
   63.3400   32.4140   47.0900 C   0  0  0  0  0  0  0  0  0  0  0  0
   63.8900   33.4220   47.8860 C   0  0  0  0  0  0  0  0  0  0  0  0
   63.6460   33.4380   49.2620 C   0  0  0  0  0  0  0  0  0  0  0  0
   62.8600   32.4410   49.8460 C   0  0  0  0  0  0  0  0  0  0  0  0
   58.7130   30.7600   48.0120 C   0  0  0  0  0  0  0  0  0  0  0  0
   58.6470   29.5150   48.2210 O   0  0  0  0  0  0  0  0  0  0  0  0
   58.1480   31.2940   46.8500 C   0  0  0  0  0  0  0  0  0  0  0  0
   57.5460   30.4710   45.9380 N   0  0  0  0  0  0  0  0  0  0  0  0
   57.0170   30.9620   44.7840 C   0  0  0  0  0  0  0  0  0  0  0  0
   56.4670   30.1890   43.8900 N   0  0  0  0  0  0  0  0  0  0  0  0
   57.0150   28.9500   43.3350 C   0  0  0  0  0  0  0  0  0  0  0  0
   57.9610   28.2970   44.3110 C   0  0  0  0  0  0  0  0  0  0  0  0
   59.3060   28.7000   44.3880 C   0  0  0  0  0  0  0  0  0  0  0  0
   60.1700   28.0950   45.3040 C   0  0  0  0  0  0  0  0  0  0  0  0
   59.7000   27.0930   46.1580 C   0  0  0  0  0  0  0  0  0  0  0  0
   60.7800   26.3510   47.3240 Cl  0  0  0  0  0  0  0  0  0  0  0  0
   58.3620   26.6910   46.0910 C   0  0  0  0  0  0  0  0  0  0  0  0
   57.4950   27.2900   45.1730 C   0  0  0  0  0  0  0  0  0  0  0  0
   57.0700   32.2900   44.5450 N   0  0  0  0  0  0  0  0  0  0  0  0
   57.6450   33.1610   45.4080 C   0  0  0  0  0  0  0  0  0  0  0  0
   57.6480   34.3740   45.0830 O   0  0  0  0  0  0  0  0  0  0  0  0
   58.2260   32.6890   46.6230 C   0  0  0  0  0  0  0  0  0  0  0  0
   61.3206   33.7480   46.9469 H   0  0  0  0  0  0  0  0  0  0  0  0
   60.3936   33.4670   45.4342 H   0  0  0  0  0  0  0  0  0  0  0  0
   61.7921   34.5943   45.4342 H   0  0  0  0  0  0  0  0  0  0  0  0
   60.6161   36.1955   46.7854 H   0  0  0  0  0  0  0  0  0  0  0  0
   59.4845   35.6669   45.4630 H   0  0  0  0  0  0  0  0  0  0  0  0
   59.2333   35.4045   48.3959 H   0  0  0  0  0  0  0  0  0  0  0  0
   57.9809   35.3524   47.0841 H   0  0  0  0  0  0  0  0  0  0  0  0
   60.2105   31.7651   50.8269 H   0  0  0  0  0  0  0  0  0  0  0  0
   59.4192   30.1749   50.4804 H   0  0  0  0  0  0  0  0  0  0  0  0
   61.8921   29.9713   50.5657 H   0  0  0  0  0  0  0  0  0  0  0  0
   61.2233   29.5966   48.9224 H   0  0  0  0  0  0  0  0  0  0  0  0
   62.1128   30.6285   47.0381 H   0  0  0  0  0  0  0  0  0  0  0  0
   63.5295   32.4048   46.0065 H   0  0  0  0  0  0  0  0  0  0  0  0
   64.5153   34.2033   47.4294 H   0  0  0  0  0  0  0  0  0  0  0  0
   64.0733   34.2366   49.8863 H   0  0  0  0  0  0  0  0  0  0  0  0
   62.6715   32.4562   50.9296 H   0  0  0  0  0  0  0  0  0  0  0  0
   57.4910   29.4490   46.1380 H   0  0  0  0  0  0  0  0  0  0  0  0
   56.1892   28.2574   43.1152 H   0  0  0  0  0  0  0  0  0  0  0  0
   57.5687   29.1908   42.4155 H   0  0  0  0  0  0  0  0  0  0  0  0
   59.6791   29.4943   43.7247 H   0  0  0  0  0  0  0  0  0  0  0  0
   61.2234   28.4080   45.3534 H   0  0  0  0  0  0  0  0  0  0  0  0
   57.9915   25.9020   46.7620 H   0  0  0  0  0  0  0  0  0  0  0  0
   56.4431   26.9717   45.1251 H   0  0  0  0  0  0  0  0  0  0  0  0
  1  2  1  0
  2  3  1  0
  3  4  1  0
  4  5  1  0
  5  6  2  0
  5  7  1  0
  7  8  1  0
  8  9  1  0
  9 10  1  0
 10 11  2  0
 11 12  1  0
 12 13  2  0
 13 14  1  0
 14 15  2  0
  7 16  1  0
 16 17  2  0
 16 18  1  0
 18 19  1  0
 19 20  1  0
 20 21  2  3
 21 22  1  0
 22 23  1  0
 23 24  2  0
 24 25  1  0
 25 26  2  0
 26 27  1  0
 26 28  1  0
 28 29  2  0
 20 30  1  0
 30 31  1  0
 31 32  2  0
 31 33  1  0
 33  4  1  0
 15 10  1  0
 33 18  2  0
 29 23  1  0
  1 34  1  0
  1 35  1  0
  1 36  1  0
  2 37  1  0
  2 38  1  0
  3 39  1  0
  3 40  1  0
  8 41  1  0
  8 42  1  0
  9 43  1  0
  9 44  1  0
 11 45  1  0
 12 46  1  0
 13 47  1  0
 14 48  1  0
 15 49  1  0
 19 50  1  0
 22 51  1  0
 22 52  1  0
 24 53  1  0
 25 54  1  0
 28 55  1  0
 29 56  1  0
M  CHG  1  30  -1
M  END
>  <UniqueID>  (71) 
62

>  <SMILES>  (71) 
CCCn1c(=O)n(CCc2ccccc2)c(=O)c2[nH]c(=NCc3ccc(Cl)cc3)[n-]c(=O)c21

>  <Energy>  (71) 
72.2123811150674

>  <Genealogy>  (71) 
CCCn1c(=O)n(CCc2ccccc2)c(=O)c2[nH]c(=NCc3ccc(Cl)cc3)[n-]c(=O)c21 (protonated)
CCCn1c(=O)n(CCc2ccccc2)c(=O)c2[nH]c(=NCc3ccc(Cl)cc3)[n-]c(=O)c21 (3D coordinates assigned)
CCCn1c(=O)n(CCc2ccccc2)c(=O)c2[nH]c(=NCc3ccc(Cl)cc3)[n-]c(=O)c21 (optimized conformer: 72.2123811150674 kcal/mol)

>  <smiles>  (71) 
CCCn1c(=O)n(CCc2ccccc2)c(=O)c2[nH]c(=NCc3ccc(Cl)cc3)[nH]c(=O)c21

>  <score_type>  (71) 
oracle

>  <origin>  (71) 
adg

>  <m_score__min__energy>  (71) 
-11.07

>  <m_primary>  (71) 
energy

$$$$
71:0
     RDKit          3D

 32 33  0  0  0  0  0  0  0  0999 V2000
   54.6300   25.9400   46.4110 H   0  0  0  0  0  0  0  0  0  0  0  0
   55.1420   26.7130   46.0020 O   0  0  0  0  0  0  0  0  0  0  0  0
   56.5350   26.7510   46.0110 C   0  0  0  0  0  0  0  0  0  0  0  0
   57.2480   25.7100   46.6150 C   0  0  0  0  0  0  0  0  0  0  0  0
   56.7086   24.8704   47.0777 H   0  0  0  0  0  0  0  0  0  0  0  0
   58.6440   25.7360   46.6310 C   0  0  0  0  0  0  0  0  0  0  0  0
   59.2018   24.9166   47.1079 H   0  0  0  0  0  0  0  0  0  0  0  0
   59.3360   26.8000   46.0430 C   0  0  0  0  0  0  0  0  0  0  0  0
   60.4358   26.8137   46.0574 H   0  0  0  0  0  0  0  0  0  0  0  0
   58.6290   27.8530   45.4330 C   0  0  0  0  0  0  0  0  0  0  0  0
   59.3330   28.9890   44.8040 C   0  0  0  0  0  0  0  0  0  0  0  0
   60.0046   28.8048   43.9525 H   0  0  0  0  0  0  0  0  0  0  0  0
   59.1720   30.2020   45.2400 N   0  0  0  0  0  0  0  0  0  0  0  0
   57.9600   30.7180   45.6690 O   0  0  0  0  0  0  0  0  0  0  0  0
   57.0610   31.3960   44.8360 C   0  0  0  0  0  0  0  0  0  0  0  0
   56.0100   30.8370   44.4230 O   0  0  0  0  0  0  0  0  0  0  0  0
   57.3600   32.8040   44.4300 C   0  0  0  0  0  0  0  0  0  0  0  0
   57.8843   32.8015   43.4630 H   0  0  0  0  0  0  0  0  0  0  0  0
   56.4172   33.3635   44.3396 H   0  0  0  0  0  0  0  0  0  0  0  0
   58.2280   33.4600   45.4660 C   0  0  0  0  0  0  0  0  0  0  0  0
   58.0160   33.2100   46.8320 C   0  0  0  0  0  0  0  0  0  0  0  0
   57.2289   32.5077   47.1439 H   0  0  0  0  0  0  0  0  0  0  0  0
   58.8000   33.8490   47.7970 C   0  0  0  0  0  0  0  0  0  0  0  0
   58.6346   33.6427   48.8648 H   0  0  0  0  0  0  0  0  0  0  0  0
   59.7940   34.7500   47.4050 C   0  0  0  0  0  0  0  0  0  0  0  0
   60.4123   35.2509   48.1645 H   0  0  0  0  0  0  0  0  0  0  0  0
   60.0030   35.0150   46.0490 C   0  0  0  0  0  0  0  0  0  0  0  0
   60.7846   35.7257   45.7425 H   0  0  0  0  0  0  0  0  0  0  0  0
   59.2200   34.3780   45.0810 C   0  0  0  0  0  0  0  0  0  0  0  0
   59.3811   34.5962   44.0150 H   0  0  0  0  0  0  0  0  0  0  0  0
   57.2250   27.8200   45.4210 C   0  0  0  0  0  0  0  0  0  0  0  0
   56.6631   28.6376   44.9459 H   0  0  0  0  0  0  0  0  0  0  0  0
  1  2  1  0
  2  3  1  0
  3  4  2  0
  4  5  1  0
  4  6  1  0
  6  7  1  0
  6  8  2  0
  8  9  1  0
  8 10  1  0
 10 11  1  0
 11 12  1  0
 11 13  2  0
 13 14  1  0
 14 15  1  0
 15 16  2  0
 15 17  1  0
 17 18  1  0
 17 19  1  0
 17 20  1  0
 20 21  2  0
 21 22  1  0
 21 23  1  0
 23 24  1  0
 23 25  2  0
 25 26  1  0
 25 27  1  0
 27 28  1  0
 27 29  2  0
 29 30  1  0
 10 31  2  0
 31 32  1  0
 31  3  1  0
 29 20  1  0
M  END
>  <UniqueID>  (72) 
63

>  <SMILES>  (72) 
O=C(Cc1ccccc1)O/N=C/c1cccc(O)c1

>  <Energy>  (72) 
35.26094283716947

>  <Genealogy>  (72) 
O=C(Cc1ccccc1)O/N=C/c1cccc(O)c1 (cis-trans isomerization)
O=C(Cc1ccccc1)O/N=C/c1cccc(O)c1 (3D coordinates assigned)
O=C(Cc1ccccc1)O/N=C/c1cccc(O)c1 (optimized conformer: 35.26094283716947 kcal/mol)

>  <smiles>  (72) 
O=C(Cc1ccccc1)ON=Cc1cccc(O)c1

>  <score_type>  (72) 
oracle

>  <origin>  (72) 
adg

>  <m_score__min__energy>  (72) 
-8.4000000000000004

>  <m_primary>  (72) 
energy

$$$$
72:0
     RDKit          3D

 39 41  0  0  0  0  0  0  0  0999 V2000
   60.5010   28.1290   45.6990 C   0  0  0  0  0  0  0  0  0  0  0  0
   59.3870   28.8390   45.5120 C   0  0  0  0  0  0  0  0  0  0  0  0
   59.3490   30.1680   45.7530 N   0  0  0  0  0  0  0  0  0  0  0  0
   58.1130   30.5900   45.5370 N   0  0  0  0  0  0  0  0  0  0  0  0
   57.6720   31.9630   45.7670 C   0  0  0  0  0  0  0  0  0  0  0  0
   58.6320   32.6590   46.6910 C   0  0  0  0  0  0  0  0  0  0  0  0
   58.3380   32.7830   48.0570 C   0  0  0  0  0  0  0  0  0  0  0  0
   59.2490   33.3950   48.9190 C   0  0  0  0  0  0  0  0  0  0  0  0
   60.4660   33.8780   48.4290 C   0  0  0  0  0  0  0  0  0  0  0  0
   60.7800   33.7470   47.0620 C   0  0  0  0  0  0  0  0  0  0  0  0
   61.9910   34.2070   46.5220 O   0  0  0  0  0  0  0  0  0  0  0  0
   63.2610   33.6140   46.7720 C   0  0  0  0  0  0  0  0  0  0  0  0
   59.8600   33.1330   46.2040 C   0  0  0  0  0  0  0  0  0  0  0  0
   57.3460   29.5450   45.1770 C   0  0  0  0  0  0  0  0  0  0  0  0
   56.1130   29.6260   44.9240 O   0  0  0  0  0  0  0  0  0  0  0  0
   58.1110   28.3940   45.1250 C   0  0  0  0  0  0  0  0  0  0  0  0
   57.6500   27.1790   44.7700 C   0  0  0  0  0  0  0  0  0  0  0  0
   57.3840   26.0690   45.7030 C   0  0  0  0  0  0  0  0  0  0  0  0
   56.1110   25.8750   46.2790 C   0  0  0  0  0  0  0  0  0  0  0  0
   55.0320   26.7080   45.9810 O   0  0  0  0  0  0  0  0  0  0  0  0
   55.9220   24.8520   47.1520 N   0  0  0  0  0  0  0  0  0  0  0  0
   56.9380   24.0180   47.4950 C   0  0  0  0  0  0  0  0  0  0  0  0
   56.7320   23.0780   48.3050 O   0  0  0  0  0  0  0  0  0  0  0  0
   58.1750   24.2020   46.9690 N   0  0  0  0  0  0  0  0  0  0  0  0
   58.4220   25.2070   46.0900 C   0  0  0  0  0  0  0  0  0  0  0  0
   59.5840   25.3500   45.6250 O   0  0  0  0  0  0  0  0  0  0  0  0
   60.5050   27.0480   45.4952 H   0  0  0  0  0  0  0  0  0  0  0  0
   61.4155   28.6246   46.0570 H   0  0  0  0  0  0  0  0  0  0  0  0
   57.6345   32.4999   44.8077 H   0  0  0  0  0  0  0  0  0  0  0  0
   56.6719   31.9510   46.2248 H   0  0  0  0  0  0  0  0  0  0  0  0
   57.3861   32.3965   48.4501 H   0  0  0  0  0  0  0  0  0  0  0  0
   59.0087   33.4977   49.9875 H   0  0  0  0  0  0  0  0  0  0  0  0
   61.1798   34.3613   49.1123 H   0  0  0  0  0  0  0  0  0  0  0  0
   63.4231   33.5383   47.8574 H   0  0  0  0  0  0  0  0  0  0  0  0
   63.2906   32.6090   46.3259 H   0  0  0  0  0  0  0  0  0  0  0  0
   64.0506   34.2366   46.3259 H   0  0  0  0  0  0  0  0  0  0  0  0
   60.1021   33.0208   45.1368 H   0  0  0  0  0  0  0  0  0  0  0  0
   57.4572   27.0015   43.7017 H   0  0  0  0  0  0  0  0  0  0  0  0
   55.1400   27.6010   45.5180 H   0  0  0  0  0  0  0  0  0  0  0  0
  1  2  2  0
  2  3  1  0
  3  4  1  0
  4  5  1  0
  5  6  1  0
  6  7  2  0
  7  8  1  0
  8  9  2  0
  9 10  1  0
 10 11  1  0
 11 12  1  0
 10 13  2  0
  4 14  1  0
 14 15  2  0
 14 16  1  0
 16 17  2  3
 17 18  1  0
 18 19  2  0
 19 20  1  0
 19 21  1  0
 21 22  1  0
 22 23  2  0
 22 24  1  0
 24 25  1  0
 25 26  2  0
 16  2  1  0
 25 18  1  0
 13  6  1  0
  1 27  1  0
  1 28  1  0
  5 29  1  0
  5 30  1  0
  7 31  1  0
  8 32  1  0
  9 33  1  0
 12 34  1  0
 12 35  1  0
 12 36  1  0
 13 37  1  0
 17 38  1  0
 20 39  1  0
M  CHG  3   3  -1  21  -1  24  -1
M  END
>  <UniqueID>  (73) 
64

>  <SMILES>  (73) 
C=c1[n-]n(Cc2cccc(OC)c2)c(=O)c1=Cc1c(O)[n-]c(=O)[n-]c1=O

>  <Energy>  (73) 
87.3062251872092

>  <Genealogy>  (73) 
C=c1[n-]n(Cc2cccc(OC)c2)c(=O)c1=Cc1c(O)[n-]c(=O)[n-]c1=O (protonated)
C=c1[n-]n(Cc2cccc(OC)c2)c(=O)c1=Cc1c(O)[n-]c(=O)[n-]c1=O (3D coordinates assigned)
C=c1[n-]n(Cc2cccc(OC)c2)c(=O)c1=Cc1c(O)[n-]c(=O)[n-]c1=O (optimized conformer: 87.3062251872092 kcal/mol)

>  <smiles>  (73) 
C=c1[nH]n(Cc2cccc(OC)c2)c(=O)c1=Cc1c(O)[nH]c(=O)[nH]c1=O

>  <score_type>  (73) 
oracle

>  <origin>  (73) 
adg

>  <m_score__min__energy>  (73) 
-13.91

>  <m_primary>  (73) 
energy

$$$$
73:0
     RDKit          3D

 28 29  0  0  0  0  0  0  0  0999 V2000
   55.1470   28.6450   45.6390 H   0  0  0  0  0  0  0  0  0  0  0  0
   55.1430   29.3410   44.8600 N   0  0  0  0  0  0  0  0  0  0  0  0
   56.7700   29.4730   44.2930 S   0  0  0  0  0  0  0  0  0  0  0  0
   56.7800   29.4740   42.7900 O   0  0  0  0  0  0  0  0  0  0  0  0
   57.5690   28.2980   44.7810 O   0  0  0  0  0  0  0  0  0  0  0  0
   57.4780   30.9680   44.8950 C   0  0  0  0  0  0  0  0  0  0  0  0
   57.5410   32.1000   44.0730 C   0  0  0  0  0  0  0  0  0  0  0  0
   57.1544   32.0519   43.0443 H   0  0  0  0  0  0  0  0  0  0  0  0
   58.0930   33.2910   44.5540 C   0  0  0  0  0  0  0  0  0  0  0  0
   58.1427   34.1752   43.9015 H   0  0  0  0  0  0  0  0  0  0  0  0
   58.5850   33.3620   45.8700 C   0  0  0  0  0  0  0  0  0  0  0  0
   59.1580   34.5650   46.3960 N   0  0  0  0  0  0  0  0  0  0  0  0
   60.3930   34.8410   46.2630 N   0  0  0  0  0  0  0  0  0  0  0  0
   61.4120   34.1460   46.9920 C   0  0  0  0  0  0  0  0  0  0  0  0
   62.6250   33.7650   46.3870 C   0  0  0  0  0  0  0  0  0  0  0  0
   62.8080   34.0010   45.3283 H   0  0  0  0  0  0  0  0  0  0  0  0
   63.5980   33.0870   47.1290 C   0  0  0  0  0  0  0  0  0  0  0  0
   64.5442   32.7909   46.6526 H   0  0  0  0  0  0  0  0  0  0  0  0
   63.3700   32.7850   48.4750 C   0  0  0  0  0  0  0  0  0  0  0  0
   64.3370   32.1120   49.2100 O   0  0  0  0  0  0  0  0  0  0  0  0
   62.1670   33.1620   49.0810 C   0  0  0  0  0  0  0  0  0  0  0  0
   61.9873   32.9253   50.1401 H   0  0  0  0  0  0  0  0  0  0  0  0
   61.1920   33.8400   48.3410 C   0  0  0  0  0  0  0  0  0  0  0  0
   60.2473   34.1344   48.8215 H   0  0  0  0  0  0  0  0  0  0  0  0
   58.5140   32.2300   46.6910 C   0  0  0  0  0  0  0  0  0  0  0  0
   58.8955   32.2776   47.7216 H   0  0  0  0  0  0  0  0  0  0  0  0
   57.9610   31.0390   46.2090 C   0  0  0  0  0  0  0  0  0  0  0  0
   57.9050   30.1560   46.8626 H   0  0  0  0  0  0  0  0  0  0  0  0
  1  2  1  0
  2  3  1  0
  3  4  2  0
  3  5  2  0
  3  6  1  0
  6  7  2  0
  7  8  1  0
  7  9  1  0
  9 10  1  0
  9 11  2  0
 11 12  1  0
 12 13  2  0
 13 14  1  0
 14 15  2  0
 15 16  1  0
 15 17  1  0
 17 18  1  0
 17 19  2  0
 19 20  1  0
 19 21  1  0
 21 22  1  0
 21 23  2  0
 23 24  1  0
 11 25  1  0
 25 26  1  0
 25 27  2  0
 27 28  1  0
 27  6  1  0
 23 14  1  0
M  CHG  2   2  -1  20  -1
M  END
>  <UniqueID>  (74) 
65

>  <SMILES>  (74) 
[NH-]S(=O)(=O)c1ccc(/N=N/c2ccc([O-])cc2)cc1

>  <Energy>  (74) 
28.900075628303817

>  <Genealogy>  (74) 
[NH-]S(=O)(=O)c1ccc(N=Nc2ccc([O-])cc2)cc1 (protonated)
[NH-]S(=O)(=O)c1ccc(/N=N/c2ccc([O-])cc2)cc1 (cis-trans isomerization)
[NH-]S(=O)(=O)c1ccc(/N=N/c2ccc([O-])cc2)cc1 (3D coordinates assigned)
[NH-]S(=O)(=O)c1ccc(/N=N/c2ccc([O-])cc2)cc1 (optimized conformer: 28.900075628303817 kcal/mol)

>  <smiles>  (74) 
NS(=O)(=O)c1ccc(N=Nc2ccc(O)cc2)cc1

>  <score_type>  (74) 
oracle

>  <origin>  (74) 
adg

>  <m_score__min__energy>  (74) 
-10.779999999999999

>  <m_primary>  (74) 
energy

$$$$
74:0
     RDKit          3D

 68 71  0  0  1  0  0  0  0  0999 V2000
   60.3760   26.7680   47.2820 C   0  0  0  0  0  0  0  0  0  0  0  0
   59.2100   27.3350   46.7180 O   0  0  0  0  0  0  0  0  0  0  0  0
   58.6260   26.7380   45.6360 C   0  0  0  0  0  0  0  0  0  0  0  0
   58.7520   27.3110   44.3950 C   0  0  0  0  0  0  0  0  0  0  0  0
   59.4750   28.5080   44.1430 N   0  0  0  0  0  0  0  0  0  0  0  0
   59.1900   29.6410   44.6850 C   0  0  0  0  0  0  0  0  0  0  0  0
   58.4300   30.4830   43.9660 N   0  0  0  0  0  0  0  0  0  0  0  0
   58.1000   31.6810   44.4840 C   0  0  0  0  0  0  0  0  0  0  0  0
   58.5610   31.9970   45.7410 C   0  0  0  0  0  0  0  0  0  0  0  0
   58.1310   33.5590   46.3900 Cl  0  0  0  0  0  0  0  0  0  0  0  0
   59.3360   31.1330   46.4720 C   0  0  0  0  0  0  0  0  0  0  0  0
   59.7740   31.3680   47.6310 N   0  0  0  0  0  0  0  0  0  0  0  0
   60.9080   32.1770   47.8740 C   0  0  0  0  0  0  0  0  0  0  0  0
   62.0410   32.0370   47.0550 C   0  0  0  0  0  0  0  0  0  0  0  0
   63.1540   32.8310   47.2370 C   0  0  0  0  0  0  0  0  0  0  0  0
   63.1180   33.7680   48.2530 C   0  0  0  0  0  0  0  0  0  0  0  0
   62.0350   33.9380   49.0770 C   0  0  0  0  0  0  0  0  0  0  0  0
   60.9110   33.1290   48.8840 C   0  0  0  0  0  0  0  0  0  0  0  0
   59.7690   33.3310   49.7730 C   0  0  0  0  0  0  0  0  0  0  0  0
   59.5710   34.4890   50.2170 O   0  0  0  0  0  0  0  0  0  0  0  0
   58.9330   32.2350   50.1070 N   0  0  0  0  0  0  0  0  0  0  0  0
   57.7800   32.3330   50.9750 C   0  0  0  0  0  0  0  0  0  0  0  0
   57.3620   30.9320   51.3870 C   0  0  0  0  0  0  0  0  0  0  0  0
   58.3940   29.9770   51.2290 N   0  0  0  0  0  0  0  0  0  0  0  0
   58.8190   29.2600   52.3750 C   0  0  0  0  0  0  0  0  0  0  0  0
   58.5260   29.3440   49.9700 C   0  0  0  0  0  0  0  0  0  0  0  0
   59.6530   29.9270   45.9190 N   0  0  0  0  0  0  0  0  0  0  0  0
   58.1490   26.6840   43.3210 C   0  0  0  0  0  0  0  0  0  0  0  0
   57.4300   25.5060   43.4660 C   0  0  0  0  0  0  0  0  0  0  0  0
   57.3030   24.9290   44.7030 C   0  0  0  0  0  0  0  0  0  0  0  0
   57.9090   25.5540   45.8020 C   0  0  0  0  0  0  0  0  0  0  0  0
   57.7390   24.9270   47.0130 O   0  0  0  0  0  0  0  0  0  0  0  0
   56.4710   24.3630   47.3010 C   0  0  0  0  0  0  0  0  0  0  0  0
   55.9100   23.5290   46.1730 C   0  0  0  0  0  0  0  0  0  0  0  0
   56.5930   23.6970   44.9190 N   0  0  0  0  0  0  0  0  0  0  0  0
   56.6350   22.7280   43.8890 C   0  0  0  0  0  0  0  0  0  0  0  0
   57.7890   21.7740   43.7450 C   0  0  0  0  0  0  0  0  0  0  0  0
   55.7330   22.5730   43.0200 O   0  0  0  0  0  0  0  0  0  0  0  0
   60.3063   26.8019   48.3793 H   0  0  0  0  0  0  0  0  0  0  0  0
   60.4716   25.7228   46.9528 H   0  0  0  0  0  0  0  0  0  0  0  0
   61.2572   27.3382   46.9528 H   0  0  0  0  0  0  0  0  0  0  0  0
   58.1020   30.2060   43.0150 H   0  0  0  0  0  0  0  0  0  0  0  0
   57.4778   32.3889   43.9168 H   0  0  0  0  0  0  0  0  0  0  0  0
   62.0404   31.2816   46.2554 H   0  0  0  0  0  0  0  0  0  0  0  0
   64.0407   32.7224   46.5952 H   0  0  0  0  0  0  0  0  0  0  0  0
   63.9997   34.4073   48.4077 H   0  0  0  0  0  0  0  0  0  0  0  0
   62.0503   34.6959   49.8741 H   0  0  0  0  0  0  0  0  0  0  0  0
   59.1580   31.2920   49.7040 H   0  0  0  0  0  0  0  0  0  0  0  0
   58.0379   32.9204   51.8685 H   0  0  0  0  0  0  0  0  0  0  0  0
   56.9537   32.8312   50.4468 H   0  0  0  0  0  0  0  0  0  0  0  0
   57.0629   30.9527   52.4454 H   0  0  0  0  0  0  0  0  0  0  0  0
   56.5322   30.6305   50.7309 H   0  0  0  0  0  0  0  0  0  0  0  0
   58.5013   29.7960   53.2815 H   0  0  0  0  0  0  0  0  0  0  0  0
   58.3702   28.2558   52.3665 H   0  0  0  0  0  0  0  0  0  0  0  0
   59.9154   29.1717   52.3665 H   0  0  0  0  0  0  0  0  0  0  0  0
   58.7485   28.2769   50.1176 H   0  0  0  0  0  0  0  0  0  0  0  0
   57.5868   29.4482   49.4069 H   0  0  0  0  0  0  0  0  0  0  0  0
   59.3453   29.8149   49.4069 H   0  0  0  0  0  0  0  0  0  0  0  0
   60.2480   29.2250   46.4400 H   0  0  0  0  0  0  0  0  0  0  0  0
   58.2418   27.1324   42.3208 H   0  0  0  0  0  0  0  0  0  0  0  0
   56.9622   25.0354   42.5887 H   0  0  0  0  0  0  0  0  0  0  0  0
   56.5687   23.7238   48.1909 H   0  0  0  0  0  0  0  0  0  0  0  0
   55.7747   25.1993   47.4612 H   0  0  0  0  0  0  0  0  0  0  0  0
   55.9751   22.4696   46.4620 H   0  0  0  0  0  0  0  0  0  0  0  0
   54.8745   23.8654   46.0162 H   0  0  0  0  0  0  0  0  0  0  0  0
   58.1468   21.4782   44.7422 H   0  0  0  0  0  0  0  0  0  0  0  0
   57.4598   20.8808   43.1937 H   0  0  0  0  0  0  0  0  0  0  0  0
   58.6043   22.2653   43.1937 H   0  0  0  0  0  0  0  0  0  0  0  0
  1  2  1  0
  2  3  1  0
  3  4  2  0
  4  5  1  0
  5  6  2  0
  6  7  1  0
  7  8  1  0
  8  9  2  0
  9 10  1  0
  9 11  1  0
 11 12  2  0
 12 13  1  0
 13 14  2  0
 14 15  1  0
 15 16  2  0
 16 17  1  0
 17 18  2  0
 18 19  1  0
 19 20  2  0
 19 21  1  0
 21 22  1  0
 22 23  1  0
 23 24  1  0
 24 25  1  0
 24 26  1  0
 11 27  1  0
  4 28  1  0
 28 29  2  0
 29 30  1  0
 30 31  2  0
 31 32  1  0
 32 33  1  0
 33 34  1  0
 34 35  1  0
 35 36  1  0
 36 37  1  0
 36 38  2  0
 31  3  1  0
 27  6  1  0
 35 30  1  0
 18 13  1  0
  1 39  1  0
  1 40  1  0
  1 41  1  0
  7 42  1  0
  8 43  1  0
 14 44  1  0
 15 45  1  0
 16 46  1  0
 17 47  1  0
 21 48  1  0
 22 49  1  0
 22 50  1  0
 23 51  1  0
 23 52  1  0
 25 53  1  0
 25 54  1  0
 25 55  1  0
 26 56  1  0
 26 57  1  0
 26 58  1  0
 27 59  1  0
 28 60  1  0
 29 61  1  0
 33 62  1  0
 33 63  1  0
 34 64  1  0
 34 65  1  0
 37 66  1  0
 37 67  1  0
 37 68  1  0
M  END
>  <smiles>  (75) 
COc1c(N=c2[nH]cc(Cl)c(=Nc3ccccc3C(=O)NCCN(C)C)[nH]2)ccc2c1OCCN2C(C)=O

>  <score_type>  (75) 
oracle

>  <origin>  (75) 
adg

>  <m_score__min__energy>  (75) 
-8.9399999999999995

>  <m_primary>  (75) 
energy

$$$$
75:0
     RDKit          3D

 70 74  0  0  0  0  0  0  0  0999 V2000
   55.2350   29.3420   44.8530 N   0  0  0  0  0  0  0  0  0  0  0  0
   56.5150   29.8320   44.4490 C   0  0  0  0  0  0  0  0  0  0  0  0
   56.6090   30.4550   43.3570 O   0  0  0  0  0  0  0  0  0  0  0  0
   57.7040   29.6260   45.3170 C   0  0  0  0  0  0  0  0  0  0  0  0
   58.5530   30.7200   45.5730 C   0  0  0  0  0  0  0  0  0  0  0  0
   59.6920   30.5790   46.3810 C   0  0  0  0  0  0  0  0  0  0  0  0
   60.5870   31.7670   46.6340 C   0  0  0  0  0  0  0  0  0  0  0  0
   59.7970   33.0160   46.7100 N   0  0  0  0  0  0  0  0  0  0  0  0
   58.7110   32.9700   47.7270 C   0  0  0  0  0  0  0  0  0  0  0  0
   59.1840   32.6860   49.1420 C   0  0  0  0  0  0  0  0  0  0  0  0
   59.6010   33.7330   49.9770 C   0  0  0  0  0  0  0  0  0  0  0  0
   60.0000   33.4760   51.2900 C   0  0  0  0  0  0  0  0  0  0  0  0
   60.0130   32.1650   51.7840 C   0  0  0  0  0  0  0  0  0  0  0  0
   60.3770   31.8880   53.2180 C   0  0  0  0  0  0  0  0  0  0  0  0
   59.3260   31.0910   53.8700 N   0  0  0  0  0  0  0  0  0  0  0  0
   58.0710   31.8480   53.9750 C   0  0  0  0  0  0  0  0  0  0  0  0
   56.9420   31.0450   53.3920 C   0  0  0  0  0  0  0  0  0  0  0  0
   56.1370   31.5850   52.3760 C   0  0  0  0  0  0  0  0  0  0  0  0
   55.0720   30.8450   51.8520 C   0  0  0  0  0  0  0  0  0  0  0  0
   54.7990   29.5660   52.3440 C   0  0  0  0  0  0  0  0  0  0  0  0
   55.5860   29.0280   53.3660 C   0  0  0  0  0  0  0  0  0  0  0  0
   56.6500   29.7660   53.8940 C   0  0  0  0  0  0  0  0  0  0  0  0
   59.6380   31.1110   50.9380 C   0  0  0  0  0  0  0  0  0  0  0  0
   59.2410   31.3700   49.6240 C   0  0  0  0  0  0  0  0  0  0  0  0
   60.6690   34.2040   46.8270 C   0  0  0  0  0  0  0  0  0  0  0  0
   62.0290   33.8220   47.3260 C   0  0  0  0  0  0  0  0  0  0  0  0
   62.3300   33.3380   48.5810 C   0  0  0  0  0  0  0  0  0  0  0  0
   63.6880   33.0810   48.5140 C   0  0  0  0  0  0  0  0  0  0  0  0
   64.5590   32.5470   49.5840 C   0  0  0  0  0  0  0  0  0  0  0  0
   64.1250   31.5150   50.4390 C   0  0  0  0  0  0  0  0  0  0  0  0
   64.9700   31.0270   51.4400 C   0  0  0  0  0  0  0  0  0  0  0  0
   66.2500   31.5580   51.5990 C   0  0  0  0  0  0  0  0  0  0  0  0
   66.6910   32.5810   50.7580 C   0  0  0  0  0  0  0  0  0  0  0  0
   65.8510   33.0760   49.7560 C   0  0  0  0  0  0  0  0  0  0  0  0
   64.1080   33.3860   47.3070 O   0  0  0  0  0  0  0  0  0  0  0  0
   63.1370   33.8290   46.5630 N   0  0  0  0  0  0  0  0  0  0  0  0
   60.0020   29.3240   46.9200 C   0  0  0  0  0  0  0  0  0  0  0  0
   59.1660   28.2340   46.6880 C   0  0  0  0  0  0  0  0  0  0  0  0
   58.0170   28.3700   45.9010 C   0  0  0  0  0  0  0  0  0  0  0  0
   56.9930   26.9490   45.7260 Cl  0  0  0  0  0  0  0  0  0  0  0  0
   55.1430   28.6600   45.6400 H   0  0  0  0  0  0  0  0  0  0  0  0
   58.3198   31.7007   45.1327 H   0  0  0  0  0  0  0  0  0  0  0  0
   61.1208   31.6200   47.5845 H   0  0  0  0  0  0  0  0  0  0  0  0
   61.3012   31.8527   45.8018 H   0  0  0  0  0  0  0  0  0  0  0  0
   58.1974   33.9428   47.7253 H   0  0  0  0  0  0  0  0  0  0  0  0
   58.0529   32.1353   47.4440 H   0  0  0  0  0  0  0  0  0  0  0  0
   59.6138   34.7643   49.5945 H   0  0  0  0  0  0  0  0  0  0  0  0
   60.3062   34.3082   51.9409 H   0  0  0  0  0  0  0  0  0  0  0  0
   61.3257   31.3321   53.2501 H   0  0  0  0  0  0  0  0  0  0  0  0
   60.4809   32.8448   53.7506 H   0  0  0  0  0  0  0  0  0  0  0  0
   59.6520   30.8800   54.8430 H   0  0  0  0  0  0  0  0  0  0  0  0
   57.8598   32.0600   55.0335 H   0  0  0  0  0  0  0  0  0  0  0  0
   58.1691   32.7928   53.4203 H   0  0  0  0  0  0  0  0  0  0  0  0
   56.3448   32.5941   51.9906 H   0  0  0  0  0  0  0  0  0  0  0  0
   54.4487   31.2704   51.0517 H   0  0  0  0  0  0  0  0  0  0  0  0
   53.9648   28.9827   51.9270 H   0  0  0  0  0  0  0  0  0  0  0  0
   55.3682   28.0226   53.7556 H   0  0  0  0  0  0  0  0  0  0  0  0
   57.2606   29.3433   54.7055 H   0  0  0  0  0  0  0  0  0  0  0  0
   59.6566   30.0762   51.3108 H   0  0  0  0  0  0  0  0  0  0  0  0
   58.9707   30.5346   48.9614 H   0  0  0  0  0  0  0  0  0  0  0  0
   60.7677   34.6770   45.8388 H   0  0  0  0  0  0  0  0  0  0  0  0
   60.2152   34.9037   47.5443 H   0  0  0  0  0  0  0  0  0  0  0  0
   61.6512   33.1909   49.4340 H   0  0  0  0  0  0  0  0  0  0  0  0
   63.1170   31.0914   50.3185 H   0  0  0  0  0  0  0  0  0  0  0  0
   64.6243   30.2215   52.1046 H   0  0  0  0  0  0  0  0  0  0  0  0
   66.9120   31.1705   52.3874 H   0  0  0  0  0  0  0  0  0  0  0  0
   67.7009   32.9984   50.8838 H   0  0  0  0  0  0  0  0  0  0  0  0
   66.2027   33.8843   49.0980 H   0  0  0  0  0  0  0  0  0  0  0  0
   60.9094   29.1985   47.5290 H   0  0  0  0  0  0  0  0  0  0  0  0
   59.4117   27.2563   47.1281 H   0  0  0  0  0  0  0  0  0  0  0  0
  1  2  1  0
  2  3  2  0
  2  4  1  0
  4  5  2  0
  5  6  1  0
  6  7  1  0
  7  8  1  0
  8  9  1  0
  9 10  1  0
 10 11  2  0
 11 12  1  0
 12 13  2  0
 13 14  1  0
 14 15  1  0
 15 16  1  0
 16 17  1  0
 17 18  2  0
 18 19  1  0
 19 20  2  0
 20 21  1  0
 21 22  2  0
 13 23  1  0
 23 24  2  0
  8 25  1  0
 25 26  1  0
 26 27  1  0
 27 28  2  0
 28 29  1  0
 29 30  2  0
 30 31  1  0
 31 32  2  0
 32 33  1  0
 33 34  2  0
 28 35  1  0
 35 36  1  0
  6 37  2  0
 37 38  1  0
 38 39  2  0
 39 40  1  0
 39  4  1  0
 24 10  1  0
 36 26  2  0
 22 17  1  0
 34 29  1  0
  1 41  1  0
  5 42  1  0
  7 43  1  0
  7 44  1  0
  9 45  1  0
  9 46  1  0
 11 47  1  0
 12 48  1  0
 14 49  1  0
 14 50  1  0
 15 51  1  0
 16 52  1  0
 16 53  1  0
 18 54  1  0
 19 55  1  0
 20 56  1  0
 21 57  1  0
 22 58  1  0
 23 59  1  0
 24 60  1  0
 25 61  1  0
 25 62  1  0
 27 63  1  0
 30 64  1  0
 31 65  1  0
 32 66  1  0
 33 67  1  0
 34 68  1  0
 37 69  1  0
 38 70  1  0
M  CHG  1   1  -1
M  END
>  <UniqueID>  (76) 
66

>  <SMILES>  (76) 
[NH-]C(=O)c1cc(CN(Cc2ccc(CNCc3ccccc3)cc2)Cc2cc(-c3ccccc3)on2)ccc1Cl

>  <Energy>  (76) 
113.34018250690357

>  <Genealogy>  (76) 
[NH-]C(=O)c1cc(CN(Cc2ccc(CNCc3ccccc3)cc2)Cc2cc(-c3ccccc3)on2)ccc1Cl (protonated)
[NH-]C(=O)c1cc(CN(Cc2ccc(CNCc3ccccc3)cc2)Cc2cc(-c3ccccc3)on2)ccc1Cl (3D coordinates assigned)
[NH-]C(=O)c1cc(CN(Cc2ccc(CNCc3ccccc3)cc2)Cc2cc(-c3ccccc3)on2)ccc1Cl (optimized conformer: 113.34018250690357 kcal/mol)

>  <smiles>  (76) 
NC(=O)c1cc(CN(Cc2ccc(CNCc3ccccc3)cc2)Cc2cc(-c3ccccc3)on2)ccc1Cl

>  <score_type>  (76) 
oracle

>  <origin>  (76) 
adg

>  <m_score__min__energy>  (76) 
-13.720000000000001

>  <m_primary>  (76) 
energy

$$$$
76:0
     RDKit          3D

 35 36  0  0  0  0  0  0  0  0999 V2000
   55.9010   29.3640   42.4680 N   0  0  0  0  0  0  0  0  0  0  0  0
   56.3480   30.0880   43.6170 C   0  0  0  0  0  0  0  0  0  0  0  0
   55.5740   30.1920   44.6560 N   0  0  0  0  0  0  0  0  0  0  0  0
   57.6780   30.6370   43.6250 N   0  0  0  0  0  0  0  0  0  0  0  0
   58.0820   31.7420   44.4510 C   0  0  0  0  0  0  0  0  0  0  0  0
   58.4430   32.9650   43.8610 C   0  0  0  0  0  0  0  0  0  0  0  0
   58.8630   34.0370   44.6500 C   0  0  0  0  0  0  0  0  0  0  0  0
   58.9390   33.9020   46.0440 C   0  0  0  0  0  0  0  0  0  0  0  0
   59.3190   35.0770   46.9020 C   0  0  0  0  0  0  0  0  0  0  0  0
   59.6660   34.5540   48.6200 S   0  0  0  0  0  0  0  0  0  0  0  0
   61.3700   34.0760   48.3070 C   0  0  0  0  0  0  0  0  0  0  0  0
   61.8140   33.8880   46.9920 C   0  0  0  0  0  0  0  0  0  0  0  0
   63.1330   33.4950   46.7480 C   0  0  0  0  0  0  0  0  0  0  0  0
   64.0140   33.2980   47.8160 C   0  0  0  0  0  0  0  0  0  0  0  0
   63.5760   33.4980   49.1300 C   0  0  0  0  0  0  0  0  0  0  0  0
   62.2560   33.8900   49.3750 C   0  0  0  0  0  0  0  0  0  0  0  0
   58.6000   32.6760   46.6360 C   0  0  0  0  0  0  0  0  0  0  0  0
   58.1720   31.5980   45.8520 C   0  0  0  0  0  0  0  0  0  0  0  0
   57.8190   30.4090   46.4920 O   0  0  0  0  0  0  0  0  0  0  0  0
   56.5200   29.2630   41.6330 H   0  0  0  0  0  0  0  0  0  0  0  0
   54.9500   28.9330   42.4400 H   0  0  0  0  0  0  0  0  0  0  0  0
   54.5540   30.3960   44.5630 H   0  0  0  0  0  0  0  0  0  0  0  0
   55.9620   30.0990   45.6220 H   0  0  0  0  0  0  0  0  0  0  0  0
   58.3690   30.2530   42.9440 H   0  0  0  0  0  0  0  0  0  0  0  0
   58.3942   33.0786   42.7680 H   0  0  0  0  0  0  0  0  0  0  0  0
   59.1355   34.9918   44.1766 H   0  0  0  0  0  0  0  0  0  0  0  0
   60.2182   35.5520   46.4826 H   0  0  0  0  0  0  0  0  0  0  0  0
   58.4778   35.7856   46.9160 H   0  0  0  0  0  0  0  0  0  0  0  0
   61.1242   34.0498   46.1506 H   0  0  0  0  0  0  0  0  0  0  0  0
   63.4783   33.3406   45.7151 H   0  0  0  0  0  0  0  0  0  0  0  0
   65.0510   32.9859   47.6233 H   0  0  0  0  0  0  0  0  0  0  0  0
   64.2698   33.3469   49.9701 H   0  0  0  0  0  0  0  0  0  0  0  0
   61.9136   34.0523   50.4077 H   0  0  0  0  0  0  0  0  0  0  0  0
   58.6713   32.5606   47.7276 H   0  0  0  0  0  0  0  0  0  0  0  0
   58.3580   30.0160   47.2530 H   0  0  0  0  0  0  0  0  0  0  0  0
  1  2  1  0
  2  3  2  0
  2  4  1  0
  4  5  1  0
  5  6  2  0
  6  7  1  0
  7  8  2  0
  8  9  1  0
  9 10  1  0
 10 11  1  0
 11 12  2  0
 12 13  1  0
 13 14  2  0
 14 15  1  0
 15 16  2  0
  8 17  1  0
 17 18  2  0
 18 19  1  0
 18  5  1  0
 16 11  1  0
  1 20  1  0
  1 21  1  0
  3 22  1  0
  3 23  1  0
  4 24  1  0
  6 25  1  0
  7 26  1  0
  9 27  1  0
  9 28  1  0
 12 29  1  0
 13 30  1  0
 14 31  1  0
 15 32  1  0
 16 33  1  0
 17 34  1  0
 19 35  1  0
M  CHG  1   3   1
M  END
>  <UniqueID>  (77) 
67

>  <SMILES>  (77) 
NC(=[NH2+])Nc1ccc(CSc2ccccc2)cc1O

>  <Energy>  (77) 
33.40357717957616

>  <Genealogy>  (77) 
NC(=[NH2+])Nc1ccc(CSc2ccccc2)cc1O (protonated)
NC(=[NH2+])Nc1ccc(CSc2ccccc2)cc1O (3D coordinates assigned)
NC(=[NH2+])Nc1ccc(CSc2ccccc2)cc1O (optimized conformer: 33.40357717957616 kcal/mol)

>  <smiles>  (77) 
N=C(N)Nc1ccc(CSc2ccccc2)cc1O

>  <score_type>  (77) 
oracle

>  <origin>  (77) 
adg

>  <m_score__min__energy>  (77) 
-5.8600000000000003

>  <m_primary>  (77) 
energy

$$$$
77:0
     RDKit          3D

 77 81  0  0  0  0  0  0  0  0999 V2000
   59.6970   34.5920   48.7310 C   0  0  0  0  0  0  0  0  0  0  0  0
   59.9130   34.3480   50.1190 O   0  0  0  0  0  0  0  0  0  0  0  0
   59.2680   33.3420   50.8550 C   0  0  0  0  0  0  0  0  0  0  0  0
   58.7850   33.6540   52.1300 C   0  0  0  0  0  0  0  0  0  0  0  0
   58.1280   32.6870   52.8960 C   0  0  0  0  0  0  0  0  0  0  0  0
   57.9630   31.3930   52.3980 C   0  0  0  0  0  0  0  0  0  0  0  0
   58.4620   31.0530   51.1290 C   0  0  0  0  0  0  0  0  0  0  0  0
   58.3020   29.7390   50.5670 N   0  0  0  0  0  0  0  0  0  0  0  0
   58.8210   29.2650   49.3190 C   0  0  0  0  0  0  0  0  0  0  0  0
   58.4400   29.7740   48.2300 O   0  0  0  0  0  0  0  0  0  0  0  0
   59.7460   28.1680   49.3200 N   0  0  0  0  0  0  0  0  0  0  0  0
   60.4240   27.7060   48.1130 C   0  0  0  0  0  0  0  0  0  0  0  0
   59.4500   27.1290   47.1180 C   0  0  0  0  0  0  0  0  0  0  0  0
   58.6740   26.0130   47.4740 C   0  0  0  0  0  0  0  0  0  0  0  0
   57.6710   25.5490   46.6190 C   0  0  0  0  0  0  0  0  0  0  0  0
   57.4260   26.1970   45.4060 C   0  0  0  0  0  0  0  0  0  0  0  0
   58.1860   27.3170   45.0360 C   0  0  0  0  0  0  0  0  0  0  0  0
   57.8890   28.0390   43.7480 C   0  0  0  0  0  0  0  0  0  0  0  0
   57.6270   29.4540   44.0000 N   0  0  0  0  0  0  0  0  0  0  0  0
   56.4490   29.9390   44.6530 C   0  0  0  0  0  0  0  0  0  0  0  0
   55.6190   29.1290   45.1370 O   0  0  0  0  0  0  0  0  0  0  0  0
   56.2510   31.3420   44.8590 N   0  0  0  0  0  0  0  0  0  0  0  0
   57.2730   32.2990   45.1720 C   0  0  0  0  0  0  0  0  0  0  0  0
   57.0420   33.6420   44.8730 C   0  0  0  0  0  0  0  0  0  0  0  0
   58.0080   34.6020   45.1710 C   0  0  0  0  0  0  0  0  0  0  0  0
   59.2220   34.2280   45.7430 C   0  0  0  0  0  0  0  0  0  0  0  0
   59.5190   32.8640   46.0070 C   0  0  0  0  0  0  0  0  0  0  0  0
   60.8140   32.4590   46.5500 N   0  0  0  0  0  0  0  0  0  0  0  0
   60.8820   31.2230   47.3610 C   0  0  0  0  0  0  0  0  0  0  0  0
   62.2830   30.8670   47.8630 C   0  0  0  0  0  0  0  0  0  0  0  0
   63.0640   32.0540   48.2460 N   0  0  0  0  0  0  0  0  0  0  0  0
   62.4880   32.8270   49.3710 C   0  0  0  0  0  0  0  0  0  0  0  0
   63.5700   33.3810   50.2640 C   0  0  0  0  0  0  0  0  0  0  0  0
   63.2520   34.2810   51.2930 C   0  0  0  0  0  0  0  0  0  0  0  0
   64.2670   34.7590   52.1250 C   0  0  0  0  0  0  0  0  0  0  0  0
   65.5540   34.3630   51.9320 N   0  0  0  0  0  0  0  0  0  0  0  0
   65.8900   33.4930   50.9430 C   0  0  0  0  0  0  0  0  0  0  0  0
   64.9050   32.9820   50.0930 C   0  0  0  0  0  0  0  0  0  0  0  0
   63.2790   32.8850   47.0550 C   0  0  0  0  0  0  0  0  0  0  0  0
   61.9680   33.3810   46.4150 C   0  0  0  0  0  0  0  0  0  0  0  0
   58.5140   31.9090   45.7080 C   0  0  0  0  0  0  0  0  0  0  0  0
   59.1900   27.7850   45.8990 C   0  0  0  0  0  0  0  0  0  0  0  0
   59.0930   32.0370   50.3560 C   0  0  0  0  0  0  0  0  0  0  0  0
   58.9722   35.4107   48.6111 H   0  0  0  0  0  0  0  0  0  0  0  0
   60.6486   34.8721   48.2555 H   0  0  0  0  0  0  0  0  0  0  0  0
   59.3036   33.6814   48.2555 H   0  0  0  0  0  0  0  0  0  0  0  0
   58.9233   34.6682   52.5330 H   0  0  0  0  0  0  0  0  0  0  0  0
   57.7404   32.9457   53.8924 H   0  0  0  0  0  0  0  0  0  0  0  0
   57.4402   30.6365   53.0016 H   0  0  0  0  0  0  0  0  0  0  0  0
   60.0070   27.7400   50.2380 H   0  0  0  0  0  0  0  0  0  0  0  0
   60.9470   28.5555   47.6496 H   0  0  0  0  0  0  0  0  0  0  0  0
   61.1347   26.9162   48.3976 H   0  0  0  0  0  0  0  0  0  0  0  0
   58.8571   25.5020   48.4307 H   0  0  0  0  0  0  0  0  0  0  0  0
   57.0724   24.6706   46.9020 H   0  0  0  0  0  0  0  0  0  0  0  0
   56.6339   25.8277   44.7380 H   0  0  0  0  0  0  0  0  0  0  0  0
   58.7532   27.9459   43.0739 H   0  0  0  0  0  0  0  0  0  0  0  0
   56.9968   27.5898   43.2874 H   0  0  0  0  0  0  0  0  0  0  0  0
   56.0955   33.9441   44.4010 H   0  0  0  0  0  0  0  0  0  0  0  0
   57.8103   35.6619   44.9530 H   0  0  0  0  0  0  0  0  0  0  0  0
   59.9627   35.0014   45.9943 H   0  0  0  0  0  0  0  0  0  0  0  0
   60.2262   31.3496   48.2350 H   0  0  0  0  0  0  0  0  0  0  0  0
   60.5684   30.4000   46.7020 H   0  0  0  0  0  0  0  0  0  0  0  0
   62.1869   30.2101   48.7401 H   0  0  0  0  0  0  0  0  0  0  0  0
   62.8157   30.3682   47.0399 H   0  0  0  0  0  0  0  0  0  0  0  0
   61.8949   33.6606   48.9668 H   0  0  0  0  0  0  0  0  0  0  0  0
   61.8553   32.1536   49.9678 H   0  0  0  0  0  0  0  0  0  0  0  0
   62.2122   34.6071   51.4430 H   0  0  0  0  0  0  0  0  0  0  0  0
   64.0248   35.4580   52.9391 H   0  0  0  0  0  0  0  0  0  0  0  0
   66.9393   33.1905   50.8113 H   0  0  0  0  0  0  0  0  0  0  0  0
   65.1738   32.2728   49.2963 H   0  0  0  0  0  0  0  0  0  0  0  0
   63.8800   33.7600   47.3433 H   0  0  0  0  0  0  0  0  0  0  0  0
   63.7905   32.2596   46.3085 H   0  0  0  0  0  0  0  0  0  0  0  0
   61.6979   34.3366   46.8882 H   0  0  0  0  0  0  0  0  0  0  0  0
   62.1669   33.4671   45.3366 H   0  0  0  0  0  0  0  0  0  0  0  0
   58.7085   30.8433   45.8988 H   0  0  0  0  0  0  0  0  0  0  0  0
   59.7785   28.6716   45.6206 H   0  0  0  0  0  0  0  0  0  0  0  0
   59.4557   31.7871   49.3480 H   0  0  0  0  0  0  0  0  0  0  0  0
  1  2  1  0
  2  3  1  0
  3  4  2  0
  4  5  1  0
  5  6  2  0
  6  7  1  0
  7  8  1  0
  8  9  1  0
  9 10  2  0
  9 11  1  0
 11 12  1  0
 12 13  1  0
 13 14  2  0
 14 15  1  0
 15 16  2  0
 16 17  1  0
 17 18  1  0
 18 19  1  0
 19 20  1  0
 20 21  2  0
 20 22  1  0
 22 23  1  0
 23 24  2  0
 24 25  1  0
 25 26  2  0
 26 27  1  0
 27 28  1  0
 28 29  1  0
 29 30  1  0
 30 31  1  0
 31 32  1  0
 32 33  1  0
 33 34  2  0
 34 35  1  0
 35 36  2  0
 36 37  1  0
 37 38  2  0
 31 39  1  0
 39 40  1  0
 27 41  2  0
 17 42  2  0
  7 43  2  0
 43  3  1  0
 42 13  1  0
 41 23  1  0
 40 28  1  0
 38 33  1  0
  1 44  1  0
  1 45  1  0
  1 46  1  0
  4 47  1  0
  5 48  1  0
  6 49  1  0
 11 50  1  0
 12 51  1  0
 12 52  1  0
 14 53  1  0
 15 54  1  0
 16 55  1  0
 18 56  1  0
 18 57  1  0
 24 58  1  0
 25 59  1  0
 26 60  1  0
 29 61  1  0
 29 62  1  0
 30 63  1  0
 30 64  1  0
 32 65  1  0
 32 66  1  0
 34 67  1  0
 35 68  1  0
 37 69  1  0
 38 70  1  0
 39 71  1  0
 39 72  1  0
 40 73  1  0
 40 74  1  0
 41 75  1  0
 42 76  1  0
 43 77  1  0
M  CHG  3   8  -1  19  -1  22  -1
M  END
>  <UniqueID>  (78) 
68

>  <SMILES>  (78) 
COc1cccc([N-]C(=O)NCc2cccc(C[N-]C(=O)[N-]c3cccc(N4CCN(Cc5ccncc5)CC4)c3)c2)c1

>  <Energy>  (78) 
97.21472816377776

>  <Genealogy>  (78) 
COc1cccc([N-]C(=O)NCc2cccc(C[N-]C(=O)[N-]c3cccc(N4CCN(Cc5ccncc5)CC4)c3)c2)c1 (protonated)
COc1cccc([N-]C(=O)NCc2cccc(C[N-]C(=O)[N-]c3cccc(N4CCN(Cc5ccncc5)CC4)c3)c2)c1 (3D coordinates assigned)
COc1cccc([N-]C(=O)NCc2cccc(C[N-]C(=O)[N-]c3cccc(N4CCN(Cc5ccncc5)CC4)c3)c2)c1 (nonaromatic ring conformer: 97.21472816377776 kcal/mol)

>  <smiles>  (78) 
COc1cccc(NC(=O)NCc2cccc(CNC(=O)Nc3cccc(N4CCN(Cc5ccncc5)CC4)c3)c2)c1

>  <score_type>  (78) 
oracle

>  <origin>  (78) 
adg

>  <m_score__min__energy>  (78) 
-14.039999999999999

>  <m_primary>  (78) 
energy

$$$$
78:0
     RDKit          3D

 41 43  0  0  0  0  0  0  0  0999 V2000
   58.9880   33.4580   50.7360 O   0  0  0  0  0  0  0  0  0  0  0  0
   58.5090   32.3490   51.0920 C   0  0  0  0  0  0  0  0  0  0  0  0
   58.9610   31.1390   50.4720 N   0  0  0  0  0  0  0  0  0  0  0  0
   58.6080   30.7380   49.1170 C   0  0  0  0  0  0  0  0  0  0  0  0
   59.8040   30.9090   48.1800 C   0  0  0  0  0  0  0  0  0  0  0  0
   59.7020   32.2060   47.4240 C   0  0  0  0  0  0  0  0  0  0  0  0
   58.4850   32.5900   46.8360 C   0  0  0  0  0  0  0  0  0  0  0  0
   58.4000   33.7780   46.1040 C   0  0  0  0  0  0  0  0  0  0  0  0
   59.5300   34.5870   45.9460 C   0  0  0  0  0  0  0  0  0  0  0  0
   59.4470   35.7380   45.2350 F   0  0  0  0  0  0  0  0  0  0  0  0
   60.7480   34.2040   46.5170 C   0  0  0  0  0  0  0  0  0  0  0  0
   60.8370   33.0160   47.2490 C   0  0  0  0  0  0  0  0  0  0  0  0
   57.4790   32.3210   52.0870 N   0  0  0  0  0  0  0  0  0  0  0  0
   56.7850   31.1530   52.5490 C   0  0  0  0  0  0  0  0  0  0  0  0
   57.4710   30.2330   53.3510 C   0  0  0  0  0  0  0  0  0  0  0  0
   56.8290   29.0790   53.8110 C   0  0  0  0  0  0  0  0  0  0  0  0
   55.4960   28.8360   53.4710 C   0  0  0  0  0  0  0  0  0  0  0  0
   54.7960   29.7410   52.6640 C   0  0  0  0  0  0  0  0  0  0  0  0
   53.4630   29.4600   52.3290 O   0  0  0  0  0  0  0  0  0  0  0  0
   52.6210   30.3000   51.5850 C   0  0  0  0  0  0  0  0  0  0  0  0
   52.2320   29.9880   50.2720 C   0  0  0  0  0  0  0  0  0  0  0  0
   51.4050   30.8820   49.5900 C   0  0  0  0  0  0  0  0  0  0  0  0
   51.0330   30.6300   48.4140 O   0  0  0  0  0  0  0  0  0  0  0  0
   51.0040   32.0300   50.1960 N   0  0  0  0  0  0  0  0  0  0  0  0
   51.4010   32.3270   51.4600 C   0  0  0  0  0  0  0  0  0  0  0  0
   51.0250   33.3980   52.0010 O   0  0  0  0  0  0  0  0  0  0  0  0
   52.2070   31.4690   52.1400 N   0  0  0  0  0  0  0  0  0  0  0  0
   55.4570   30.8820   52.1740 C   0  0  0  0  0  0  0  0  0  0  0  0
   58.2989   29.6823   49.1207 H   0  0  0  0  0  0  0  0  0  0  0  0
   57.7833   31.3730   48.7612 H   0  0  0  0  0  0  0  0  0  0  0  0
   60.7308   30.9076   48.7725 H   0  0  0  0  0  0  0  0  0  0  0  0
   59.8123   30.0778   47.4596 H   0  0  0  0  0  0  0  0  0  0  0  0
   57.5956   31.9533   46.9521 H   0  0  0  0  0  0  0  0  0  0  0  0
   57.4430   34.0770   45.6516 H   0  0  0  0  0  0  0  0  0  0  0  0
   61.6375   34.8385   46.3900 H   0  0  0  0  0  0  0  0  0  0  0  0
   61.7988   32.7144   47.6894 H   0  0  0  0  0  0  0  0  0  0  0  0
   58.5210   30.4190   53.6208 H   0  0  0  0  0  0  0  0  0  0  0  0
   57.3745   28.3615   54.4416 H   0  0  0  0  0  0  0  0  0  0  0  0
   54.9939   27.9292   53.8391 H   0  0  0  0  0  0  0  0  0  0  0  0
   52.5719   29.0588   49.7913 H   0  0  0  0  0  0  0  0  0  0  0  0
   54.9313   31.5671   51.4926 H   0  0  0  0  0  0  0  0  0  0  0  0
  1  2  2  0
  2  3  1  0
  3  4  1  0
  4  5  1  0
  5  6  1  0
  6  7  2  0
  7  8  1  0
  8  9  2  0
  9 10  1  0
  9 11  1  0
 11 12  2  0
  2 13  1  0
 13 14  1  0
 14 15  2  0
 15 16  1  0
 16 17  2  0
 17 18  1  0
 18 19  1  0
 19 20  1  0
 20 21  2  0
 21 22  1  0
 22 23  2  0
 22 24  1  0
 24 25  1  0
 25 26  2  0
 25 27  1  0
 18 28  2  0
 12  6  1  0
 28 14  1  0
 27 20  1  0
  4 29  1  0
  4 30  1  0
  5 31  1  0
  5 32  1  0
  7 33  1  0
  8 34  1  0
 11 35  1  0
 12 36  1  0
 15 37  1  0
 16 38  1  0
 17 39  1  0
 21 40  1  0
 28 41  1  0
M  CHG  4   3  -1  13  -1  24  -1  27  -1
M  END
>  <UniqueID>  (79) 
69

>  <SMILES>  (79) 
O=C([N-]CCc1ccc(F)cc1)[N-]c1cccc(Oc2cc(=O)[n-]c(=O)[n-]2)c1

>  <Energy>  (79) 
49.2062791920445

>  <Genealogy>  (79) 
O=C([N-]CCc1ccc(F)cc1)[N-]c1cccc(Oc2cc(=O)[n-]c(=O)[n-]2)c1 (protonated)
O=C([N-]CCc1ccc(F)cc1)[N-]c1cccc(Oc2cc(=O)[n-]c(=O)[n-]2)c1 (3D coordinates assigned)
O=C([N-]CCc1ccc(F)cc1)[N-]c1cccc(Oc2cc(=O)[n-]c(=O)[n-]2)c1 (optimized conformer: 49.2062791920445 kcal/mol)

>  <smiles>  (79) 
O=C(NCCc1ccc(F)cc1)Nc1cccc(Oc2cc(=O)[nH]c(=O)[nH]2)c1

>  <score_type>  (79) 
oracle

>  <origin>  (79) 
adg

>  <m_score__min__energy>  (79) 
-14.92

>  <m_primary>  (79) 
energy

$$$$
79:0
     RDKit          3D

 59 62  0  0  1  0  0  0  0  0999 V2000
   59.7260   35.0400   46.0020 C   0  0  0  0  0  0  0  0  0  0  0  0
   60.0010   34.2550   47.1160 O   0  0  0  0  0  0  0  0  0  0  0  0
   61.2410   33.7630   47.4510 C   0  0  0  0  0  0  0  0  0  0  0  0
   62.2500   33.9060   46.5080 C   0  0  0  0  0  0  0  0  0  0  0  0
   63.5340   33.4480   46.7610 C   0  0  0  0  0  0  0  0  0  0  0  0
   63.7540   32.8540   47.9770 C   0  0  0  0  0  0  0  0  0  0  0  0
   62.7500   32.7130   48.9100 C   0  0  0  0  0  0  0  0  0  0  0  0
   61.4430   33.1730   48.6630 C   0  0  0  0  0  0  0  0  0  0  0  0
   60.4590   32.9100   49.7130 C   0  0  0  0  0  0  0  0  0  0  0  0
   60.0140   31.5620   49.8770 N   0  0  0  0  0  0  0  0  0  0  0  0
   60.2110   30.4390   49.0770 C   0  0  0  0  0  0  0  0  0  0  0  0
   60.8540   30.4250   48.0040 O   0  0  0  0  0  0  0  0  0  0  0  0
   59.6360   29.0900   49.4670 C   0  0  2  0  0  0  0  0  0  0  0  0
   60.4950   28.6130   50.6180 C   0  0  0  0  0  0  0  0  0  0  0  0
   59.7230   28.2460   48.3190 N   0  0  0  0  0  0  0  0  0  0  0  0
   58.8730   28.3120   47.3690 C   0  0  0  0  0  0  0  0  0  0  0  0
   58.0150   27.2440   47.1890 C   0  0  0  0  0  0  0  0  0  0  0  0
   57.0820   27.2990   46.1630 C   0  0  0  0  0  0  0  0  0  0  0  0
   56.1400   26.2170   45.8970 C   0  0  0  0  0  0  0  0  0  0  0  0
   56.5600   24.9230   45.5650 C   0  0  0  0  0  0  0  0  0  0  0  0
   55.4220   24.1640   45.3820 C   0  0  0  0  0  0  0  0  0  0  0  0
   54.3570   25.0220   45.6120 C   0  0  0  0  0  0  0  0  0  0  0  0
   54.8460   26.1970   45.9060 O   0  0  0  0  0  0  0  0  0  0  0  0
   57.0700   28.4110   45.3920 N   0  0  0  0  0  0  0  0  0  0  0  0
   57.9140   29.4520   45.5760 C   0  0  0  0  0  0  0  0  0  0  0  0
   57.8280   30.5860   44.7090 N   0  0  0  0  0  0  0  0  0  0  0  0
   57.7110   30.5980   43.3800 N   0  0  0  0  0  0  0  0  0  0  0  0
   57.6580   31.8580   42.9160 C   0  0  0  0  0  0  0  0  0  0  0  0
   57.5310   32.3530   41.5210 C   0  0  0  0  0  0  0  0  0  0  0  0
   57.7460   32.7040   44.0010 C   0  0  0  0  0  0  0  0  0  0  0  0
   57.8510   31.8860   45.1070 C   0  0  0  0  0  0  0  0  0  0  0  0
   57.9720   32.3180   46.5370 C   0  0  0  0  0  0  0  0  0  0  0  0
   58.8300   29.4150   46.5720 N   0  0  0  0  0  0  0  0  0  0  0  0
   59.3787   36.0313   46.3287 H   0  0  0  0  0  0  0  0  0  0  0  0
   60.6385   35.1518   45.3980 H   0  0  0  0  0  0  0  0  0  0  0  0
   58.9432   34.5580   45.3980 H   0  0  0  0  0  0  0  0  0  0  0  0
   62.0273   34.3900   45.5456 H   0  0  0  0  0  0  0  0  0  0  0  0
   64.3396   33.5563   46.0198 H   0  0  0  0  0  0  0  0  0  0  0  0
   64.7606   32.4794   48.2144 H   0  0  0  0  0  0  0  0  0  0  0  0
   62.9755   32.2290   49.8717 H   0  0  0  0  0  0  0  0  0  0  0  0
   60.9025   33.2291   50.6677 H   0  0  0  0  0  0  0  0  0  0  0  0
   59.5619   33.4656   49.4021 H   0  0  0  0  0  0  0  0  0  0  0  0
   59.4280   31.3830   50.7670 H   0  0  0  0  0  0  0  0  0  0  0  0
   58.5821   29.1082   49.7815 H   0  0  0  0  0  0  0  0  0  0  0  0
   60.0135   28.8804   51.5702 H   0  0  0  0  0  0  0  0  0  0  0  0
   60.6119   27.5208   50.5602 H   0  0  0  0  0  0  0  0  0  0  0  0
   61.4839   29.0912   50.5602 H   0  0  0  0  0  0  0  0  0  0  0  0
   58.0705   26.3649   47.8479 H   0  0  0  0  0  0  0  0  0  0  0  0
   57.5997   24.5771   45.4684 H   0  0  0  0  0  0  0  0  0  0  0  0
   55.3704   23.0994   45.1101 H   0  0  0  0  0  0  0  0  0  0  0  0
   53.2902   24.7597   45.5567 H   0  0  0  0  0  0  0  0  0  0  0  0
   57.2576   33.4184   41.5334 H   0  0  0  0  0  0  0  0  0  0  0  0
   58.4906   32.2268   40.9983 H   0  0  0  0  0  0  0  0  0  0  0  0
   56.7507   31.7803   40.9983 H   0  0  0  0  0  0  0  0  0  0  0  0
   57.7348   33.8039   43.9876 H   0  0  0  0  0  0  0  0  0  0  0  0
   57.7347   31.4708   47.1973 H   0  0  0  0  0  0  0  0  0  0  0  0
   58.9999   32.6579   46.7316 H   0  0  0  0  0  0  0  0  0  0  0  0
   57.2702   33.1424   46.7316 H   0  0  0  0  0  0  0  0  0  0  0  0
   59.4930   30.2090   46.7320 H   0  0  0  0  0  0  0  0  0  0  0  0
  1  2  1  0
  2  3  1  0
  3  4  2  0
  4  5  1  0
  5  6  2  0
  6  7  1  0
  7  8  2  0
  8  9  1  0
  9 10  1  0
 10 11  1  0
 11 12  2  0
 11 13  1  0
 13 14  1  0
 13 15  1  0
 15 16  2  0
 16 17  1  0
 17 18  2  0
 18 19  1  0
 19 20  2  0
 20 21  1  0
 21 22  2  0
 22 23  1  0
 18 24  1  0
 24 25  2  0
 25 26  1  0
 26 27  1  0
 27 28  2  0
 28 29  1  0
 28 30  1  0
 30 31  2  0
 31 32  1  0
 25 33  1  0
  8  3  1  0
 33 16  1  0
 23 19  1  0
 31 26  1  0
  1 34  1  0
  1 35  1  0
  1 36  1  0
  4 37  1  0
  5 38  1  0
  6 39  1  0
  7 40  1  0
  9 41  1  0
  9 42  1  0
 10 43  1  0
 13 44  1  1
 14 45  1  0
 14 46  1  0
 14 47  1  0
 17 48  1  0
 20 49  1  0
 21 50  1  0
 22 51  1  0
 29 52  1  0
 29 53  1  0
 29 54  1  0
 30 55  1  0
 32 56  1  0
 32 57  1  0
 32 58  1  0
 33 59  1  0
M  END
>  <smiles>  (80) 
COc1ccccc1CNC(=O)C(C)N=c1cc(-c2ccco2)nc(-n2nc(C)cc2C)[nH]1

>  <score_type>  (80) 
oracle

>  <origin>  (80) 
adg

>  <m_score__min__energy>  (80) 
-9.1199999999999992

>  <m_primary>  (80) 
energy

$$$$
80:0
     RDKit          3D

 51 54  0  0  0  0  0  0  0  0999 V2000
   54.7680   28.5580   44.5010 H   0  0  0  0  0  0  0  0  0  0  0  0
   55.4650   29.1830   44.8780 O   0  0  0  0  0  0  0  0  0  0  0  0
   56.7770   28.7920   45.1580 C   0  0  0  0  0  0  0  0  0  0  0  0
   56.9830   27.4970   45.6480 C   0  0  0  0  0  0  0  0  0  0  0  0
   56.1188   26.8388   45.8211 H   0  0  0  0  0  0  0  0  0  0  0  0
   58.2790   27.0260   45.9220 C   0  0  0  0  0  0  0  0  0  0  0  0
   58.4910   25.6540   46.4290 C   0  0  0  0  0  0  0  0  0  0  0  0
   59.5710   25.0450   46.1970 O   0  0  0  0  0  0  0  0  0  0  0  0
   57.5050   25.0180   47.1740 O   0  0  0  0  0  0  0  0  0  0  0  0
   59.3740   27.8760   45.6980 C   0  0  0  0  0  0  0  0  0  0  0  0
   60.3940   27.5178   45.9012 H   0  0  0  0  0  0  0  0  0  0  0  0
   59.1770   29.1730   45.2190 C   0  0  0  0  0  0  0  0  0  0  0  0
   60.0451   29.8256   45.0440 H   0  0  0  0  0  0  0  0  0  0  0  0
   57.8830   29.6540   44.9580 C   0  0  0  0  0  0  0  0  0  0  0  0
   57.7190   31.0430   44.4000 C   0  0  0  0  0  0  0  0  0  0  0  0
   58.6457   31.3482   43.8919 H   0  0  0  0  0  0  0  0  0  0  0  0
   56.8896   31.0579   43.6776 H   0  0  0  0  0  0  0  0  0  0  0  0
   57.4420   31.9430   45.4700 O   0  0  0  0  0  0  0  0  0  0  0  0
   58.1770   33.1060   45.7450 C   0  0  0  0  0  0  0  0  0  0  0  0
   58.5280   34.0240   44.7360 C   0  0  0  0  0  0  0  0  0  0  0  0
   58.2456   33.8245   43.6918 H   0  0  0  0  0  0  0  0  0  0  0  0
   59.2340   35.1880   45.0560 C   0  0  0  0  0  0  0  0  0  0  0  0
   59.5189   35.8931   44.2612 H   0  0  0  0  0  0  0  0  0  0  0  0
   59.5780   35.4570   46.3820 C   0  0  0  0  0  0  0  0  0  0  0  0
   60.1226   36.3796   46.6316 H   0  0  0  0  0  0  0  0  0  0  0  0
   59.2320   34.5570   47.3920 C   0  0  0  0  0  0  0  0  0  0  0  0
   59.4829   34.7842   48.4386 H   0  0  0  0  0  0  0  0  0  0  0  0
   58.5660   33.3650   47.0760 C   0  0  0  0  0  0  0  0  0  0  0  0
   58.2500   32.4050   48.1510 C   0  0  0  0  0  0  0  0  0  0  0  0
   57.1963   32.2838   48.4427 H   0  0  0  0  0  0  0  0  0  0  0  0
   59.1720   31.6700   48.7950 C   0  0  0  0  0  0  0  0  0  0  0  0
   58.9988   31.4617   49.8611 H   0  0  0  0  0  0  0  0  0  0  0  0
   60.4050   31.1170   48.1830 C   0  0  0  0  0  0  0  0  0  0  0  0
   60.4350   29.8880   47.9010 O   0  0  0  0  0  0  0  0  0  0  0  0
   61.6060   31.9430   47.9100 C   0  0  0  0  0  0  0  0  0  0  0  0
   61.6260   32.7090   46.7340 C   0  0  0  0  0  0  0  0  0  0  0  0
   60.8122   32.6010   46.0018 H   0  0  0  0  0  0  0  0  0  0  0  0
   62.6640   33.6050   46.4820 C   0  0  0  0  0  0  0  0  0  0  0  0
   62.6562   34.2076   45.5618 H   0  0  0  0  0  0  0  0  0  0  0  0
   63.7100   33.7400   47.3900 C   0  0  0  0  0  0  0  0  0  0  0  0
   64.5125   34.4670   47.1963 H   0  0  0  0  0  0  0  0  0  0  0  0
   63.7460   32.9550   48.5490 C   0  0  0  0  0  0  0  0  0  0  0  0
   64.8170   33.0810   49.4470 C   0  0  0  0  0  0  0  0  0  0  0  0
   65.6157   33.8108   49.2486 H   0  0  0  0  0  0  0  0  0  0  0  0
   64.8720   32.2840   50.5900 C   0  0  0  0  0  0  0  0  0  0  0  0
   65.7076   32.3956   51.2966 H   0  0  0  0  0  0  0  0  0  0  0  0
   63.8710   31.3460   50.8400 C   0  0  0  0  0  0  0  0  0  0  0  0
   63.9272   30.7105   51.7361 H   0  0  0  0  0  0  0  0  0  0  0  0
   62.7970   31.2100   49.9570 C   0  0  0  0  0  0  0  0  0  0  0  0
   62.0183   30.4594   50.1575 H   0  0  0  0  0  0  0  0  0  0  0  0
   62.7020   32.0270   48.8100 C   0  0  0  0  0  0  0  0  0  0  0  0
  1  2  1  0
  2  3  1  0
  3  4  2  0
  4  5  1  0
  4  6  1  0
  6  7  1  0
  7  8  2  0
  7  9  1  0
  6 10  2  0
 10 11  1  0
 10 12  1  0
 12 13  1  0
 12 14  2  0
 14 15  1  0
 15 16  1  0
 15 17  1  0
 15 18  1  0
 18 19  1  0
 19 20  2  0
 20 21  1  0
 20 22  1  0
 22 23  1  0
 22 24  2  0
 24 25  1  0
 24 26  1  0
 26 27  1  0
 26 28  2  0
 28 29  1  0
 29 30  1  0
 29 31  2  0
 31 32  1  0
 31 33  1  0
 33 34  2  0
 33 35  1  0
 35 36  2  0
 36 37  1  0
 36 38  1  0
 38 39  1  0
 38 40  2  0
 40 41  1  0
 40 42  1  0
 42 43  2  0
 43 44  1  0
 43 45  1  0
 45 46  1  0
 45 47  2  0
 47 48  1  0
 47 49  1  0
 49 50  1  0
 49 51  2  0
 14  3  1  0
 28 19  1  0
 51 35  1  0
 51 42  1  0
M  CHG  1   9  -1
M  END
>  <UniqueID>  (81) 
70

>  <SMILES>  (81) 
O=C([O-])c1ccc(COc2ccccc2/C=C\C(=O)c2cccc3ccccc23)c(O)c1

>  <Energy>  (81) 
73.42397297160609

>  <Genealogy>  (81) 
O=C([O-])c1ccc(COc2ccccc2C=CC(=O)c2cccc3ccccc23)c(O)c1 (protonated)
O=C([O-])c1ccc(COc2ccccc2/C=C\C(=O)c2cccc3ccccc23)c(O)c1 (cis-trans isomerization)
O=C([O-])c1ccc(COc2ccccc2/C=C\C(=O)c2cccc3ccccc23)c(O)c1 (3D coordinates assigned)
O=C([O-])c1ccc(COc2ccccc2/C=C\C(=O)c2cccc3ccccc23)c(O)c1 (optimized conformer: 73.42397297160609 kcal/mol)

>  <smiles>  (81) 
O=C(O)c1ccc(COc2ccccc2C=CC(=O)c2cccc3ccccc23)c(O)c1

>  <score_type>  (81) 
oracle

>  <origin>  (81) 
adg

>  <m_score__min__energy>  (81) 
-13.18

>  <m_primary>  (81) 
energy

$$$$
81:0
     RDKit          3D

 77 81  0  0  0  0  0  0  0  0999 V2000
   55.6260   30.1180   53.4280 C   0  0  0  0  0  0  0  0  0  0  0  0
   57.0330   30.3960   53.9500 C   0  0  0  0  0  0  0  0  0  0  0  0
   57.4890   31.8120   53.5870 C   0  0  0  0  0  0  0  0  0  0  0  0
   58.5880   31.7660   52.5540 C   0  0  0  0  0  0  0  0  0  0  0  0
   59.8880   32.1200   52.9270 C   0  0  0  0  0  0  0  0  0  0  0  0
   60.9280   32.0610   52.0080 C   0  0  0  0  0  0  0  0  0  0  0  0
   60.7040   31.6350   50.6890 C   0  0  0  0  0  0  0  0  0  0  0  0
   61.8930   31.5910   49.7510 C   0  0  0  0  0  0  0  0  0  0  0  0
   62.5840   32.8990   49.7240 N   0  0  0  0  0  0  0  0  0  0  0  0
   63.3960   33.0980   48.4980 C   0  0  0  0  0  0  0  0  0  0  0  0
   62.6360   33.8410   47.3790 C   0  0  0  0  0  0  0  0  0  0  0  0
   61.1880   33.6170   47.5170 N   0  0  0  0  0  0  0  0  0  0  0  0
   60.4590   34.1280   46.3380 C   0  0  0  0  0  0  0  0  0  0  0  0
   59.4200   33.1310   45.8960 C   0  0  0  0  0  0  0  0  0  0  0  0
   58.2200   33.5790   45.3220 C   0  0  0  0  0  0  0  0  0  0  0  0
   57.2660   32.6650   44.8680 C   0  0  0  0  0  0  0  0  0  0  0  0
   57.5060   31.2850   44.9740 C   0  0  0  0  0  0  0  0  0  0  0  0
   56.5860   30.3250   44.5240 C   0  0  0  0  0  0  0  0  0  0  0  0
   55.4900   30.6710   44.0030 O   0  0  0  0  0  0  0  0  0  0  0  0
   56.8910   28.9700   44.6500 C   0  0  0  0  0  0  0  0  0  0  0  0
   58.1150   28.5890   45.2290 C   0  0  0  0  0  0  0  0  0  0  0  0
   58.4980   27.1620   45.3820 C   0  0  0  0  0  0  0  0  0  0  0  0
   57.6560   26.1610   44.8690 C   0  0  0  0  0  0  0  0  0  0  0  0
   57.9940   24.8110   44.9960 C   0  0  0  0  0  0  0  0  0  0  0  0
   59.1920   24.4360   45.6310 C   0  0  0  0  0  0  0  0  0  0  0  0
   59.5760   23.0960   45.7830 O   0  0  0  0  0  0  0  0  0  0  0  0
   59.5800   22.1360   44.7310 C   0  0  0  0  0  0  0  0  0  0  0  0
   60.0390   25.4310   46.1290 C   0  0  0  0  0  0  0  0  0  0  0  0
   59.7020   26.7810   46.0060 C   0  0  0  0  0  0  0  0  0  0  0  0
   58.9670   29.5280   45.6390 O   0  0  0  0  0  0  0  0  0  0  0  0
   58.7180   30.8310   45.5400 C   0  0  0  0  0  0  0  0  0  0  0  0
   59.6660   31.7520   45.9960 C   0  0  0  0  0  0  0  0  0  0  0  0
   60.6840   34.2250   48.7700 C   0  0  0  0  0  0  0  0  0  0  0  0
   61.6600   34.0250   49.9500 C   0  0  0  0  0  0  0  0  0  0  0  0
   59.3900   31.2530   50.2890 C   0  0  0  0  0  0  0  0  0  0  0  0
   59.1000   30.8110   48.8630 C   0  0  0  0  0  0  0  0  0  0  0  0
   59.3440   29.3120   48.6870 C   0  0  0  0  0  0  0  0  0  0  0  0
   58.3330   31.3220   51.2410 C   0  0  0  0  0  0  0  0  0  0  0  0
   57.0200   30.9580   50.9190 O   0  0  0  0  0  0  0  0  0  0  0  0
   54.9400   29.9825   54.2771 H   0  0  0  0  0  0  0  0  0  0  0  0
   55.2879   30.9667   52.8153 H   0  0  0  0  0  0  0  0  0  0  0  0
   55.6361   29.2045   52.8153 H   0  0  0  0  0  0  0  0  0  0  0  0
   57.0375   30.2872   55.0446 H   0  0  0  0  0  0  0  0  0  0  0  0
   57.7248   29.6777   53.4858 H   0  0  0  0  0  0  0  0  0  0  0  0
   56.6349   32.3744   53.1818 H   0  0  0  0  0  0  0  0  0  0  0  0
   57.8729   32.3047   54.4925 H   0  0  0  0  0  0  0  0  0  0  0  0
   60.0891   32.4482   53.9574 H   0  0  0  0  0  0  0  0  0  0  0  0
   61.9423   32.3524   52.3183 H   0  0  0  0  0  0  0  0  0  0  0  0
   62.5960   30.8178   50.0945 H   0  0  0  0  0  0  0  0  0  0  0  0
   61.5362   31.3576   48.7370 H   0  0  0  0  0  0  0  0  0  0  0  0
   64.2895   33.6829   48.7616 H   0  0  0  0  0  0  0  0  0  0  0  0
   63.6539   32.1010   48.1115 H   0  0  0  0  0  0  0  0  0  0  0  0
   62.8460   34.9184   47.4499 H   0  0  0  0  0  0  0  0  0  0  0  0
   62.9683   33.4587   46.4026 H   0  0  0  0  0  0  0  0  0  0  0  0
   59.9653   35.0757   46.5988 H   0  0  0  0  0  0  0  0  0  0  0  0
   61.1731   34.2898   45.5171 H   0  0  0  0  0  0  0  0  0  0  0  0
   58.0293   34.6583   45.2289 H   0  0  0  0  0  0  0  0  0  0  0  0
   56.3254   33.0265   44.4268 H   0  0  0  0  0  0  0  0  0  0  0  0
   56.1810   28.2063   44.2999 H   0  0  0  0  0  0  0  0  0  0  0  0
   56.7212   26.4428   44.3623 H   0  0  0  0  0  0  0  0  0  0  0  0
   57.3203   24.0381   44.5976 H   0  0  0  0  0  0  0  0  0  0  0  0
   59.5842   21.1228   45.1592 H   0  0  0  0  0  0  0  0  0  0  0  0
   58.6813   22.2681   44.1106 H   0  0  0  0  0  0  0  0  0  0  0  0
   60.4776   22.2756   44.1106 H   0  0  0  0  0  0  0  0  0  0  0  0
   60.9803   25.1477   46.6227 H   0  0  0  0  0  0  0  0  0  0  0  0
   60.3814   27.5517   46.3990 H   0  0  0  0  0  0  0  0  0  0  0  0
   60.6091   31.3947   46.4352 H   0  0  0  0  0  0  0  0  0  0  0  0
   60.5409   35.3035   48.6077 H   0  0  0  0  0  0  0  0  0  0  0  0
   59.7365   33.7295   49.0282 H   0  0  0  0  0  0  0  0  0  0  0  0
   62.2484   34.9449   50.0828 H   0  0  0  0  0  0  0  0  0  0  0  0
   61.0640   33.7979   50.8462 H   0  0  0  0  0  0  0  0  0  0  0  0
   58.0493   31.0336   48.6253 H   0  0  0  0  0  0  0  0  0  0  0  0
   59.7752   31.3551   48.1861 H   0  0  0  0  0  0  0  0  0  0  0  0
   59.4217   28.8347   49.6750 H   0  0  0  0  0  0  0  0  0  0  0  0
   58.5065   28.8671   48.1297 H   0  0  0  0  0  0  0  0  0  0  0  0
   60.2794   29.1557   48.1297 H   0  0  0  0  0  0  0  0  0  0  0  0
   56.2640   31.6110   50.7630 H   0  0  0  0  0  0  0  0  0  0  0  0
  1  2  1  0
  2  3  1  0
  3  4  1  0
  4  5  2  0
  5  6  1  0
  6  7  2  0
  7  8  1  0
  8  9  1  0
  9 10  1  0
 10 11  1  0
 11 12  1  0
 12 13  1  0
 13 14  1  0
 14 15  2  0
 15 16  1  0
 16 17  2  0
 17 18  1  0
 18 19  2  0
 18 20  1  0
 20 21  2  0
 21 22  1  0
 22 23  2  0
 23 24  1  0
 24 25  2  0
 25 26  1  0
 26 27  1  0
 25 28  1  0
 28 29  2  0
 21 30  1  0
 30 31  1  0
 31 32  2  0
 12 33  1  0
 33 34  1  0
  7 35  1  0
 35 36  1  0
 36 37  1  0
 35 38  2  0
 38 39  1  0
 38  4  1  0
 34  9  1  0
 32 14  1  0
 31 17  1  0
 29 22  1  0
  1 40  1  0
  1 41  1  0
  1 42  1  0
  2 43  1  0
  2 44  1  0
  3 45  1  0
  3 46  1  0
  5 47  1  0
  6 48  1  0
  8 49  1  0
  8 50  1  0
 10 51  1  0
 10 52  1  0
 11 53  1  0
 11 54  1  0
 13 55  1  0
 13 56  1  0
 15 57  1  0
 16 58  1  0
 20 59  1  0
 23 60  1  0
 24 61  1  0
 27 62  1  0
 27 63  1  0
 27 64  1  0
 28 65  1  0
 29 66  1  0
 32 67  1  0
 33 68  1  0
 33 69  1  0
 34 70  1  0
 34 71  1  0
 36 72  1  0
 36 73  1  0
 37 74  1  0
 37 75  1  0
 37 76  1  0
 39 77  1  0
M  END
>  <UniqueID>  (82) 
71

>  <SMILES>  (82) 
CCCc1ccc(CN2CCN(Cc3ccc4c(=O)cc(-c5ccc(OC)cc5)oc4c3)CC2)c(CC)c1O

>  <Energy>  (82) 
96.93462854322601

>  <Genealogy>  (82) 
CCCc1ccc(CN2CCN(Cc3ccc4c(=O)cc(-c5ccc(OC)cc5)oc4c3)CC2)c(CC)c1O (3D coordinates assigned)
CCCc1ccc(CN2CCN(Cc3ccc4c(=O)cc(-c5ccc(OC)cc5)oc4c3)CC2)c(CC)c1O (nonaromatic ring conformer: 96.93462854322601 kcal/mol)

>  <smiles>  (82) 
CCCc1ccc(CN2CCN(Cc3ccc4c(=O)cc(-c5ccc(OC)cc5)oc4c3)CC2)c(CC)c1O

>  <score_type>  (82) 
oracle

>  <origin>  (82) 
adg

>  <m_score__min__energy>  (82) 
-9.3200000000000003

>  <m_primary>  (82) 
energy

$$$$
82:0
     RDKit          3D

 62 66  0  0  0  0  0  0  0  0999 V2000
   58.0770   25.6320   47.5100 C   0  0  0  0  0  0  0  0  0  0  0  0
   58.0310   26.3500   46.3760 C   0  0  0  0  0  0  0  0  0  0  0  0
   57.4930   25.9340   45.1520 C   0  0  0  0  0  0  0  0  0  0  0  0
   56.9200   24.7470   44.8710 C   0  0  0  0  0  0  0  0  0  0  0  0
   55.4720   24.4710   45.0270 C   0  0  0  0  0  0  0  0  0  0  0  0
   54.6270   25.4520   45.5700 C   0  0  0  0  0  0  0  0  0  0  0  0
   55.1410   26.6700   46.0000 O   0  0  0  0  0  0  0  0  0  0  0  0
   53.2950   25.2140   45.6860 N   0  0  0  0  0  0  0  0  0  0  0  0
   52.7540   24.0410   45.2720 C   0  0  0  0  0  0  0  0  0  0  0  0
   51.5190   23.8400   45.3980 O   0  0  0  0  0  0  0  0  0  0  0  0
   53.5440   23.0870   44.7150 N   0  0  0  0  0  0  0  0  0  0  0  0
   54.8810   23.2780   44.5730 C   0  0  0  0  0  0  0  0  0  0  0  0
   55.5730   22.3870   44.0120 O   0  0  0  0  0  0  0  0  0  0  0  0
   57.7070   26.9740   44.2580 C   0  0  0  0  0  0  0  0  0  0  0  0
   58.3350   27.9800   44.9640 C   0  0  0  0  0  0  0  0  0  0  0  0
   58.7540   29.2940   44.3760 C   0  0  0  0  0  0  0  0  0  0  0  0
   58.5400   27.6010   46.2470 N   0  0  0  0  0  0  0  0  0  0  0  0
   59.1600   28.4020   47.2710 C   0  0  0  0  0  0  0  0  0  0  0  0
   58.7100   29.7060   47.5170 C   0  0  0  0  0  0  0  0  0  0  0  0
   59.2950   30.4740   48.5280 C   0  0  0  0  0  0  0  0  0  0  0  0
   60.3410   29.9520   49.3110 C   0  0  0  0  0  0  0  0  0  0  0  0
   60.9700   30.7910   50.3670 C   0  0  0  0  0  0  0  0  0  0  0  0
   60.6860   30.5680   51.5760 O   0  0  0  0  0  0  0  0  0  0  0  0
   61.8780   31.8650   50.0510 N   0  0  0  0  0  0  0  0  0  0  0  0
   63.0630   31.5980   49.2290 C   0  0  0  0  0  0  0  0  0  0  0  0
   63.4800   32.8360   48.4120 C   0  0  0  0  0  0  0  0  0  0  0  0
   62.5970   34.0850   48.6490 C   0  0  0  0  0  0  0  0  0  0  0  0
   61.3350   34.0680   47.7850 C   0  0  0  0  0  0  0  0  0  0  0  0
   61.3540   33.8940   46.3840 C   0  0  0  0  0  0  0  0  0  0  0  0
   60.1630   33.9060   45.6480 C   0  0  0  0  0  0  0  0  0  0  0  0
   58.9390   34.0830   46.2950 C   0  0  0  0  0  0  0  0  0  0  0  0
   58.9020   34.2450   47.6800 C   0  0  0  0  0  0  0  0  0  0  0  0
   60.0890   34.2370   48.4210 C   0  0  0  0  0  0  0  0  0  0  0  0
   62.3650   34.3100   50.1620 C   0  0  0  0  0  0  0  0  0  0  0  0
   61.9180   33.0430   50.9260 C   0  0  0  0  0  0  0  0  0  0  0  0
   60.7950   28.6470   49.0480 C   0  0  0  0  0  0  0  0  0  0  0  0
   60.2030   27.8770   48.0430 C   0  0  0  0  0  0  0  0  0  0  0  0
   58.5262   26.0638   48.4165 H   0  0  0  0  0  0  0  0  0  0  0  0
   57.6655   24.6121   47.5323 H   0  0  0  0  0  0  0  0  0  0  0  0
   57.5650   23.9350   44.5042 H   0  0  0  0  0  0  0  0  0  0  0  0
   57.4299   26.9928   43.1936 H   0  0  0  0  0  0  0  0  0  0  0  0
   58.9800   30.0029   45.1862 H   0  0  0  0  0  0  0  0  0  0  0  0
   59.6504   29.1487   43.7552 H   0  0  0  0  0  0  0  0  0  0  0  0
   57.9390   29.6945   43.7552 H   0  0  0  0  0  0  0  0  0  0  0  0
   57.8933   30.1270   46.9122 H   0  0  0  0  0  0  0  0  0  0  0  0
   58.9340   31.4964   48.7132 H   0  0  0  0  0  0  0  0  0  0  0  0
   63.8954   31.3081   49.8870 H   0  0  0  0  0  0  0  0  0  0  0  0
   62.8172   30.7893   48.5251 H   0  0  0  0  0  0  0  0  0  0  0  0
   64.5161   33.0914   48.6789 H   0  0  0  0  0  0  0  0  0  0  0  0
   63.3646   32.5662   47.3519 H   0  0  0  0  0  0  0  0  0  0  0  0
   63.1352   34.9798   48.3032 H   0  0  0  0  0  0  0  0  0  0  0  0
   62.3133   33.7477   45.8660 H   0  0  0  0  0  0  0  0  0  0  0  0
   60.1920   33.7755   44.5562 H   0  0  0  0  0  0  0  0  0  0  0  0
   58.0052   34.0947   45.7138 H   0  0  0  0  0  0  0  0  0  0  0  0
   57.9372   34.3794   48.1910 H   0  0  0  0  0  0  0  0  0  0  0  0
   60.0489   34.3641   49.5129 H   0  0  0  0  0  0  0  0  0  0  0  0
   63.3054   34.6679   50.6064 H   0  0  0  0  0  0  0  0  0  0  0  0
   61.5478   35.0407   50.2529 H   0  0  0  0  0  0  0  0  0  0  0  0
   62.6259   32.8534   51.7463 H   0  0  0  0  0  0  0  0  0  0  0  0
   60.9029   33.2168   51.3124 H   0  0  0  0  0  0  0  0  0  0  0  0
   61.6234   28.2287   49.6386 H   0  0  0  0  0  0  0  0  0  0  0  0
   60.5587   26.8527   47.8576 H   0  0  0  0  0  0  0  0  0  0  0  0
  1  2  2  0
  2  3  1  0
  3  4  2  3
  4  5  1  0
  5  6  2  0
  6  7  1  0
  6  8  1  0
  8  9  1  0
  9 10  2  0
  9 11  1  0
 11 12  1  0
 12 13  2  0
  3 14  1  0
 14 15  2  0
 15 16  1  0
 15 17  1  0
 17 18  1  0
 18 19  2  0
 19 20  1  0
 20 21  2  0
 21 22  1  0
 22 23  2  0
 22 24  1  0
 24 25  1  0
 25 26  1  0
 26 27  1  0
 27 28  1  0
 28 29  2  0
 29 30  1  0
 30 31  2  0
 31 32  1  0
 32 33  2  0
 27 34  1  0
 34 35  1  0
 21 36  1  0
 36 37  2  0
 17  2  1  0
 37 18  1  0
 12  5  1  0
 35 24  1  0
 33 28  1  0
  1 38  1  0
  1 39  1  0
  4 40  1  0
 14 41  1  0
 16 42  1  0
 16 43  1  0
 16 44  1  0
 19 45  1  0
 20 46  1  0
 25 47  1  0
 25 48  1  0
 26 49  1  0
 26 50  1  0
 27 51  1  0
 29 52  1  0
 30 53  1  0
 31 54  1  0
 32 55  1  0
 33 56  1  0
 34 57  1  0
 34 58  1  0
 35 59  1  0
 35 60  1  0
 36 61  1  0
 37 62  1  0
M  CHG  3   7  -1   8  -1  11  -1
M  END
>  <UniqueID>  (83) 
72

>  <SMILES>  (83) 
C=c1c(=Cc2c([O-])[n-]c(=O)[n-]c2=O)cc(C)n1-c1ccc(C(=O)N2CCC(c3ccccc3)CC2)cc1

>  <Energy>  (83) 
125.23544113660304

>  <Genealogy>  (83) 
C=c1c(=Cc2c([O-])[n-]c(=O)[n-]c2=O)cc(C)n1-c1ccc(C(=O)N2CCC(c3ccccc3)CC2)cc1 (protonated)
C=c1c(=Cc2c([O-])[n-]c(=O)[n-]c2=O)cc(C)n1-c1ccc(C(=O)N2CCC(c3ccccc3)CC2)cc1 (3D coordinates assigned)
C=c1c(=Cc2c([O-])[n-]c(=O)[n-]c2=O)cc(C)n1-c1ccc(C(=O)N2CCC(c3ccccc3)CC2)cc1 (nonaromatic ring conformer: 125.23544113660304 kcal/mol)

>  <smiles>  (83) 
C=c1c(=Cc2c(O)[nH]c(=O)[nH]c2=O)cc(C)n1-c1ccc(C(=O)N2CCC(c3ccccc3)CC2)cc1

>  <score_type>  (83) 
oracle

>  <origin>  (83) 
adg

>  <m_score__min__energy>  (83) 
-17.41

>  <m_primary>  (83) 
energy

$$$$
83:0
     RDKit          3D

 28 29  0  0  0  0  0  0  0  0999 V2000
   59.0140   33.2480   46.1020 C   0  0  0  0  0  0  0  0  0  0  0  0
   57.6680   33.0310   44.9570 S   0  0  0  0  0  0  0  0  0  0  0  0
   58.2060   33.1070   43.5560 O   0  0  0  0  0  0  0  0  0  0  0  0
   56.6590   34.1280   45.1520 O   0  0  0  0  0  0  0  0  0  0  0  0
   56.9160   31.4820   45.1830 N   0  0  0  0  0  0  0  0  0  0  0  0
   57.4970   30.5030   44.2680 C   0  0  0  0  0  0  0  0  0  0  0  0
   58.1480   29.4100   45.0660 C   0  0  0  0  0  0  0  0  0  0  0  0
   59.5060   29.4960   45.4040 C   0  0  0  0  0  0  0  0  0  0  0  0
   60.1160   28.4710   46.1290 C   0  0  0  0  0  0  0  0  0  0  0  0
   59.3810   27.3450   46.5070 C   0  0  0  0  0  0  0  0  0  0  0  0
   58.0270   27.2230   46.1510 C   0  0  0  0  0  0  0  0  0  0  0  0
   57.2700   26.0160   46.5580 C   0  0  0  0  0  0  0  0  0  0  0  0
   57.8540   24.9020   47.0410 N   0  0  0  0  0  0  0  0  0  0  0  0
   56.8180   24.0670   47.2640 C   0  0  0  0  0  0  0  0  0  0  0  0
   56.9690   22.9070   47.7290 O   0  0  0  0  0  0  0  0  0  0  0  0
   55.6080   24.5710   46.9470 N   0  0  0  0  0  0  0  0  0  0  0  0
   55.9060   25.8010   46.4980 C   0  0  0  0  0  0  0  0  0  0  0  0
   54.9520   26.6850   46.0130 O   0  0  0  0  0  0  0  0  0  0  0  0
   57.4160   28.2680   45.4330 C   0  0  0  0  0  0  0  0  0  0  0  0
   58.6327   33.1865   47.1320 H   0  0  0  0  0  0  0  0  0  0  0  0
   59.7634   32.4591   45.9407 H   0  0  0  0  0  0  0  0  0  0  0  0
   59.4775   34.2325   45.9407 H   0  0  0  0  0  0  0  0  0  0  0  0
   56.7055   30.0754   43.6350 H   0  0  0  0  0  0  0  0  0  0  0  0
   58.2470   30.9924   43.6293 H   0  0  0  0  0  0  0  0  0  0  0  0
   60.0927   30.3743   45.0968 H   0  0  0  0  0  0  0  0  0  0  0  0
   61.1783   28.5502   46.4034 H   0  0  0  0  0  0  0  0  0  0  0  0
   59.8661   26.5470   47.0883 H   0  0  0  0  0  0  0  0  0  0  0  0
   56.3543   28.1900   45.1562 H   0  0  0  0  0  0  0  0  0  0  0  0
  1  2  1  0
  2  3  2  0
  2  4  2  0
  2  5  1  0
  5  6  1  0
  6  7  1  0
  7  8  2  0
  8  9  1  0
  9 10  2  0
 10 11  1  0
 11 12  1  0
 12 13  1  0
 13 14  1  0
 14 15  2  0
 14 16  1  0
 16 17  1  0
 17 18  1  0
 11 19  2  0
 19  7  1  0
 17 12  2  0
  1 20  1  0
  1 21  1  0
  1 22  1  0
  6 23  1  0
  6 24  1  0
  8 25  1  0
  9 26  1  0
 10 27  1  0
 19 28  1  0
M  CHG  4   5  -1  13  -1  16  -1  18  -1
M  END
>  <UniqueID>  (84) 
73

>  <SMILES>  (84) 
CS(=O)(=O)[N-]Cc1cccc(-c2[n-]c(=O)[n-]c2[O-])c1

>  <Energy>  (84) 
54.2091026941153

>  <Genealogy>  (84) 
CS(=O)(=O)[N-]Cc1cccc(-c2[n-]c(=O)[n-]c2[O-])c1 (protonated)
CS(=O)(=O)[N-]Cc1cccc(-c2[n-]c(=O)[n-]c2[O-])c1 (3D coordinates assigned)
CS(=O)(=O)[N-]Cc1cccc(-c2[n-]c(=O)[n-]c2[O-])c1 (optimized conformer: 54.2091026941153 kcal/mol)

>  <smiles>  (84) 
CS(=O)(=O)NCc1cccc(-c2[nH]c(=O)[nH]c2O)c1

>  <score_type>  (84) 
oracle

>  <origin>  (84) 
adg

>  <m_score__min__energy>  (84) 
-16.640000000000001

>  <m_primary>  (84) 
energy

$$$$
84:0
     RDKit          3D

 44 46  0  0  0  0  0  0  0  0999 V2000
   55.2080   29.7520   44.9250 N   0  0  0  0  0  0  0  0  0  0  0  0
   56.5970   29.8980   45.2100 C   0  0  0  0  0  0  0  0  0  0  0  0
   57.0800   31.0540   45.3410 O   0  0  0  0  0  0  0  0  0  0  0  0
   57.4650   28.6990   45.3490 C   0  0  0  0  0  0  0  0  0  0  0  0
   58.8720   28.8170   45.3030 C   0  0  0  0  0  0  0  0  0  0  0  0
   59.4780   30.1030   45.0730 N   0  0  0  0  0  0  0  0  0  0  0  0
   60.0570   30.9160   46.1540 C   0  0  0  0  0  0  0  0  0  0  0  0
   59.7060   30.3300   47.5360 C   0  0  0  0  0  0  0  0  0  0  0  0
   60.4010   31.1020   48.6770 C   0  0  0  0  0  0  0  0  0  0  0  0
   60.7080   32.5710   48.3290 C   0  0  0  0  0  0  0  0  0  0  0  0
   59.6550   33.1590   47.3860 C   0  0  0  0  0  0  0  0  0  0  0  0
   59.5710   32.3850   46.0530 C   0  0  0  0  0  0  0  0  0  0  0  0
   59.6540   27.6980   45.3990 N   0  0  0  0  0  0  0  0  0  0  0  0
   61.0080   27.8430   45.1500 O   0  0  0  0  0  0  0  0  0  0  0  0
   59.0900   26.4700   45.6480 C   0  0  0  0  0  0  0  0  0  0  0  0
   59.8750   25.3200   45.8880 C   0  0  0  0  0  0  0  0  0  0  0  0
   59.2740   24.0820   46.1180 C   0  0  0  0  0  0  0  0  0  0  0  0
   57.8820   23.9560   46.1160 C   0  0  0  0  0  0  0  0  0  0  0  0
   57.2430   22.6240   46.3990 C   0  0  0  0  0  0  0  0  0  0  0  0
   57.3110   22.3390   47.7690 O   0  0  0  0  0  0  0  0  0  0  0  0
   57.0900   25.0950   45.9260 C   0  0  0  0  0  0  0  0  0  0  0  0
   57.6800   26.3540   45.6980 C   0  0  0  0  0  0  0  0  0  0  0  0
   56.9030   27.4670   45.5340 N   0  0  0  0  0  0  0  0  0  0  0  0
   55.5300   27.3540   45.6180 O   0  0  0  0  0  0  0  0  0  0  0  0
   54.5540   29.3480   45.6330 H   0  0  0  0  0  0  0  0  0  0  0  0
   59.3960   30.5060   44.1120 H   0  0  0  0  0  0  0  0  0  0  0  0
   61.1510   30.8988   46.0409 H   0  0  0  0  0  0  0  0  0  0  0  0
   58.6169   30.3850   47.6802 H   0  0  0  0  0  0  0  0  0  0  0  0
   60.0556   29.2874   47.5650 H   0  0  0  0  0  0  0  0  0  0  0  0
   59.7449   31.0834   49.5597 H   0  0  0  0  0  0  0  0  0  0  0  0
   61.3651   30.6057   48.8623 H   0  0  0  0  0  0  0  0  0  0  0  0
   60.7256   33.1614   49.2569 H   0  0  0  0  0  0  0  0  0  0  0  0
   61.6831   32.6076   47.8213 H   0  0  0  0  0  0  0  0  0  0  0  0
   58.6737   33.1193   47.8815 H   0  0  0  0  0  0  0  0  0  0  0  0
   59.9458   34.1950   47.1579 H   0  0  0  0  0  0  0  0  0  0  0  0
   58.5231   32.3820   45.7185 H   0  0  0  0  0  0  0  0  0  0  0  0
   60.2368   32.8959   45.3419 H   0  0  0  0  0  0  0  0  0  0  0  0
   61.4070   27.8970   44.2250 H   0  0  0  0  0  0  0  0  0  0  0  0
   60.9720   25.4016   45.8936 H   0  0  0  0  0  0  0  0  0  0  0  0
   59.9012   23.1974   46.3025 H   0  0  0  0  0  0  0  0  0  0  0  0
   56.1891   22.6520   46.0850 H   0  0  0  0  0  0  0  0  0  0  0  0
   57.7789   21.8418   45.8414 H   0  0  0  0  0  0  0  0  0  0  0  0
   56.6290   21.6400   47.9470 H   0  0  0  0  0  0  0  0  0  0  0  0
   55.9940   25.0058   45.9551 H   0  0  0  0  0  0  0  0  0  0  0  0
  1  2  1  0
  2  3  2  0
  2  4  1  0
  4  5  2  0
  5  6  1  0
  6  7  1  0
  7  8  1  0
  8  9  1  0
  9 10  1  0
 10 11  1  0
 11 12  1  0
  5 13  1  0
 13 14  1  0
 13 15  2  0
 15 16  1  0
 16 17  2  0
 17 18  1  0
 18 19  1  0
 19 20  1  0
 18 21  2  0
 21 22  1  0
 22 23  2  0
 23 24  1  0
 23  4  1  0
 12  7  1  0
 22 15  1  0
  1 25  1  0
  6 26  1  0
  7 27  1  0
  8 28  1  0
  8 29  1  0
  9 30  1  0
  9 31  1  0
 10 32  1  0
 10 33  1  0
 11 34  1  0
 11 35  1  0
 12 36  1  0
 12 37  1  0
 14 38  1  0
 16 39  1  0
 17 40  1  0
 19 41  1  0
 19 42  1  0
 20 43  1  0
 21 44  1  0
M  CHG  4   1  -1  13   1  23   1  24  -1
M  END
>  <UniqueID>  (85) 
74

>  <SMILES>  (85) 
[NH-]C(=O)c1c(NC2CCCCC2)[n+](O)c2ccc(CO)cc2[n+]1[O-]

>  <Energy>  (85) 
66.53369654530454

>  <Genealogy>  (85) 
[NH-]C(=O)c1c(NC2CCCCC2)[n+](O)c2ccc(CO)cc2[n+]1[O-] (protonated)
[NH-]C(=O)c1c(NC2CCCCC2)[n+](O)c2ccc(CO)cc2[n+]1[O-] (3D coordinates assigned)
[NH-]C(=O)c1c(NC2CCCCC2)[n+](O)c2ccc(CO)cc2[n+]1[O-] (nonaromatic ring conformer: 66.53369654530454 kcal/mol)

>  <smiles>  (85) 
NC(=O)c1c(NC2CCCCC2)[n+]([O-])c2ccc(CO)cc2[n+]1[O-]

>  <score_type>  (85) 
oracle

>  <origin>  (85) 
adg

>  <m_score__min__energy>  (85) 
-8.7699999999999996

>  <m_primary>  (85) 
energy

$$$$
85:0
     RDKit          3D

 48 49  0  0  0  0  0  0  0  0999 V2000
   66.3830   32.6810   50.1660 C   0  0  0  0  0  0  0  0  0  0  0  0
   65.4830   33.1190   49.1520 O   0  0  0  0  0  0  0  0  0  0  0  0
   64.1160   33.3570   49.3550 C   0  0  0  0  0  0  0  0  0  0  0  0
   63.7050   33.8560   50.5920 C   0  0  0  0  0  0  0  0  0  0  0  0
   62.3560   34.1070   50.8470 C   0  0  0  0  0  0  0  0  0  0  0  0
   61.3830   33.8590   49.8600 C   0  0  0  0  0  0  0  0  0  0  0  0
   60.0240   34.1330   50.0810 O   0  0  0  0  0  0  0  0  0  0  0  0
   59.2370   33.5510   51.1150 C   0  0  0  0  0  0  0  0  0  0  0  0
   61.7870   33.3410   48.6090 C   0  0  0  0  0  0  0  0  0  0  0  0
   60.7930   33.0340   47.5500 C   0  0  0  0  0  0  0  0  0  0  0  0
   60.2050   31.7600   47.4790 C   0  0  0  0  0  0  0  0  0  0  0  0
   59.2540   31.4720   46.4960 C   0  0  0  0  0  0  0  0  0  0  0  0
   58.8660   32.4590   45.5750 C   0  0  0  0  0  0  0  0  0  0  0  0
   57.8410   32.1530   44.5140 C   0  0  0  0  0  0  0  0  0  0  0  0
   56.6890   31.4620   45.0930 N   0  0  0  0  0  0  0  0  0  0  0  0
   56.5490   29.8360   44.4860 S   0  0  0  0  0  0  0  0  0  0  0  0
   56.9450   29.7530   43.0370 O   0  0  0  0  0  0  0  0  0  0  0  0
   55.1250   29.3770   44.6310 O   0  0  0  0  0  0  0  0  0  0  0  0
   57.6080   28.7620   45.4460 C   0  0  0  0  0  0  0  0  0  0  0  0
   57.7500   27.3850   44.7980 C   0  0  0  0  0  0  0  0  0  0  0  0
   57.5780   26.3340   45.7930 N   0  0  0  0  0  0  0  0  0  0  0  0
   56.3070   25.9990   46.3540 C   0  0  0  0  0  0  0  0  0  0  0  0
   55.1440   26.7140   45.9450 N   0  0  0  0  0  0  0  0  0  0  0  0
   56.2070   25.0750   47.2050 O   0  0  0  0  0  0  0  0  0  0  0  0
   59.4570   33.7300   45.6410 C   0  0  0  0  0  0  0  0  0  0  0  0
   60.4080   34.0170   46.6250 C   0  0  0  0  0  0  0  0  0  0  0  0
   63.1510   33.1080   48.3620 C   0  0  0  0  0  0  0  0  0  0  0  0
   65.9510   32.8913   51.1555 H   0  0  0  0  0  0  0  0  0  0  0  0
   66.5534   31.5992   50.0627 H   0  0  0  0  0  0  0  0  0  0  0  0
   67.3395   33.2144   50.0627 H   0  0  0  0  0  0  0  0  0  0  0  0
   64.4525   34.0536   51.3744 H   0  0  0  0  0  0  0  0  0  0  0  0
   62.0504   34.5018   51.8272 H   0  0  0  0  0  0  0  0  0  0  0  0
   59.6399   33.8489   52.0942 H   0  0  0  0  0  0  0  0  0  0  0  0
   58.1975   33.8993   51.0248 H   0  0  0  0  0  0  0  0  0  0  0  0
   59.2656   32.4551   51.0248 H   0  0  0  0  0  0  0  0  0  0  0  0
   60.4951   30.9836   48.2022 H   0  0  0  0  0  0  0  0  0  0  0  0
   58.8075   30.4681   46.4434 H   0  0  0  0  0  0  0  0  0  0  0  0
   57.5044   33.0942   44.0548 H   0  0  0  0  0  0  0  0  0  0  0  0
   58.3001   31.5016   43.7557 H   0  0  0  0  0  0  0  0  0  0  0  0
   58.6037   29.2225   45.5274 H   0  0  0  0  0  0  0  0  0  0  0  0
   57.1537   28.6294   46.4390 H   0  0  0  0  0  0  0  0  0  0  0  0
   56.9849   27.2721   44.0158 H   0  0  0  0  0  0  0  0  0  0  0  0
   58.7551   27.2995   44.3594 H   0  0  0  0  0  0  0  0  0  0  0  0
   55.2160   27.4710   45.2290 H   0  0  0  0  0  0  0  0  0  0  0  0
   54.2110   26.4820   46.3510 H   0  0  0  0  0  0  0  0  0  0  0  0
   59.1705   34.5048   44.9146 H   0  0  0  0  0  0  0  0  0  0  0  0
   60.8574   35.0198   46.6745 H   0  0  0  0  0  0  0  0  0  0  0  0
   63.4678   32.7263   47.3802 H   0  0  0  0  0  0  0  0  0  0  0  0
  1  2  1  0
  2  3  1  0
  3  4  2  0
  4  5  1  0
  5  6  2  0
  6  7  1  0
  7  8  1  0
  6  9  1  0
  9 10  1  0
 10 11  2  0
 11 12  1  0
 12 13  2  0
 13 14  1  0
 14 15  1  0
 15 16  1  0
 16 17  2  0
 16 18  2  0
 16 19  1  0
 19 20  1  0
 20 21  1  0
 21 22  1  0
 22 23  1  0
 22 24  2  0
 13 25  1  0
 25 26  2  0
  9 27  2  0
 27  3  1  0
 26 10  1  0
  1 28  1  0
  1 29  1  0
  1 30  1  0
  4 31  1  0
  5 32  1  0
  8 33  1  0
  8 34  1  0
  8 35  1  0
 11 36  1  0
 12 37  1  0
 14 38  1  0
 14 39  1  0
 19 40  1  0
 19 41  1  0
 20 42  1  0
 20 43  1  0
 23 44  1  0
 23 45  1  0
 25 46  1  0
 26 47  1  0
 27 48  1  0
M  CHG  2  15  -1  21  -1
M  END
>  <UniqueID>  (86) 
75

>  <SMILES>  (86) 
COc1ccc(OC)c(-c2ccc(C[N-]S(=O)(=O)CC[N-]C(N)=O)cc2)c1

>  <Energy>  (86) 
38.193611825575246

>  <Genealogy>  (86) 
COc1ccc(OC)c(-c2ccc(C[N-]S(=O)(=O)CC[N-]C(N)=O)cc2)c1 (protonated)
COc1ccc(OC)c(-c2ccc(C[N-]S(=O)(=O)CC[N-]C(N)=O)cc2)c1 (3D coordinates assigned)
COc1ccc(OC)c(-c2ccc(C[N-]S(=O)(=O)CC[N-]C(N)=O)cc2)c1 (optimized conformer: 38.193611825575246 kcal/mol)

>  <smiles>  (86) 
COc1ccc(OC)c(-c2ccc(CNS(=O)(=O)CCNC(N)=O)cc2)c1

>  <score_type>  (86) 
oracle

>  <origin>  (86) 
adg

>  <m_score__min__energy>  (86) 
-11.91

>  <m_primary>  (86) 
energy

$$$$
86:0
     RDKit          3D

 75 79  0  0  0  0  0  0  0  0999 V2000
   66.0750   34.9610   52.3710 C   0  0  0  0  0  0  0  0  0  0  0  0
   67.3290   34.7060   51.5330 C   0  0  0  0  0  0  0  0  0  0  0  0
   67.8740   33.2770   51.7210 C   0  0  0  0  0  0  0  0  0  0  0  0
   67.4360   32.2870   50.6240 C   0  0  0  0  0  0  0  0  0  0  0  0
   66.0690   31.7020   50.8660 C   0  0  0  0  0  0  0  0  0  0  0  0
   65.8850   30.5600   51.5740 N   0  0  0  0  0  0  0  0  0  0  0  0
   64.5520   30.4120   51.6260 C   0  0  0  0  0  0  0  0  0  0  0  0
   63.8340   29.4110   52.2600 C   0  0  0  0  0  0  0  0  0  0  0  0
   62.4310   29.4750   52.2090 C   0  0  0  0  0  0  0  0  0  0  0  0
   61.7550   30.5390   51.5290 C   0  0  0  0  0  0  0  0  0  0  0  0
   60.2920   30.6100   51.5040 N   0  0  0  0  0  0  0  0  0  0  0  0
   59.5250   29.6200   52.2950 C   0  0  0  0  0  0  0  0  0  0  0  0
   58.0100   29.6680   52.0940 C   0  0  0  0  0  0  0  0  0  0  0  0
   57.5200   31.1030   52.0460 C   0  0  0  0  0  0  0  0  0  0  0  0
   58.1150   31.7650   50.8190 C   0  0  0  0  0  0  0  0  0  0  0  0
   59.6500   31.7810   50.8550 C   0  0  0  0  0  0  0  0  0  0  0  0
   62.5520   31.5400   50.8980 C   0  0  0  0  0  0  0  0  0  0  0  0
   63.9450   31.4340   50.9630 C   0  0  0  0  0  0  0  0  0  0  0  0
   64.8900   32.2600   50.4620 N   0  0  0  0  0  0  0  0  0  0  0  0
   64.6910   33.4690   49.6520 C   0  0  0  0  0  0  0  0  0  0  0  0
   63.4470   33.3600   48.8130 C   0  0  0  0  0  0  0  0  0  0  0  0
   62.2860   34.0670   49.1670 C   0  0  0  0  0  0  0  0  0  0  0  0
   61.1360   33.9750   48.3800 C   0  0  0  0  0  0  0  0  0  0  0  0
   61.1250   33.1640   47.2350 C   0  0  0  0  0  0  0  0  0  0  0  0
   59.9150   33.0880   46.3870 C   0  0  0  0  0  0  0  0  0  0  0  0
   59.5750   34.2110   45.6180 C   0  0  0  0  0  0  0  0  0  0  0  0
   58.3970   34.2290   44.8750 C   0  0  0  0  0  0  0  0  0  0  0  0
   57.5460   33.1260   44.8830 C   0  0  0  0  0  0  0  0  0  0  0  0
   57.8690   31.9760   45.6240 C   0  0  0  0  0  0  0  0  0  0  0  0
   57.0210   30.8160   45.5990 N   0  0  0  0  0  0  0  0  0  0  0  0
   56.5300   29.9360   44.1880 S   0  0  0  0  0  0  0  0  0  0  0  0
   57.6530   28.5890   43.8860 C   0  0  0  0  0  0  0  0  0  0  0  0
   56.4750   30.8520   42.9970 O   0  0  0  0  0  0  0  0  0  0  0  0
   55.1590   29.3700   44.4270 O   0  0  0  0  0  0  0  0  0  0  0  0
   59.0640   31.9500   46.3870 C   0  0  0  0  0  0  0  0  0  0  0  0
   59.4420   30.7220   47.1310 C   0  0  0  0  0  0  0  0  0  0  0  0
   60.4250   30.0260   46.7610 O   0  0  0  0  0  0  0  0  0  0  0  0
   58.7130   30.3220   48.2450 O   0  0  0  0  0  0  0  0  0  0  0  0
   62.2800   32.4490   46.8860 C   0  0  0  0  0  0  0  0  0  0  0  0
   63.4280   32.5330   47.6780 C   0  0  0  0  0  0  0  0  0  0  0  0
   66.3312   34.9089   53.4395 H   0  0  0  0  0  0  0  0  0  0  0  0
   65.6750   35.9589   52.1381 H   0  0  0  0  0  0  0  0  0  0  0  0
   65.3170   34.1986   52.1381 H   0  0  0  0  0  0  0  0  0  0  0  0
   67.0818   34.8541   50.4714 H   0  0  0  0  0  0  0  0  0  0  0  0
   68.1061   35.4102   51.8651 H   0  0  0  0  0  0  0  0  0  0  0  0
   68.9730   33.3242   51.7249 H   0  0  0  0  0  0  0  0  0  0  0  0
   67.4614   32.9024   52.6694 H   0  0  0  0  0  0  0  0  0  0  0  0
   67.4245   32.8160   49.6596 H   0  0  0  0  0  0  0  0  0  0  0  0
   68.1543   31.4539   50.6289 H   0  0  0  0  0  0  0  0  0  0  0  0
   66.6120   29.9420   51.9980 H   0  0  0  0  0  0  0  0  0  0  0  0
   64.3459   28.5921   52.7866 H   0  0  0  0  0  0  0  0  0  0  0  0
   61.8387   28.6903   52.7024 H   0  0  0  0  0  0  0  0  0  0  0  0
   59.8748   28.6151   52.0159 H   0  0  0  0  0  0  0  0  0  0  0  0
   59.7033   29.8659   53.3522 H   0  0  0  0  0  0  0  0  0  0  0  0
   57.7553   29.1678   51.1480 H   0  0  0  0  0  0  0  0  0  0  0  0
   57.5251   29.1571   52.9389 H   0  0  0  0  0  0  0  0  0  0  0  0
   56.4219   31.1198   51.9828 H   0  0  0  0  0  0  0  0  0  0  0  0
   57.8277   31.6405   52.9551 H   0  0  0  0  0  0  0  0  0  0  0  0
   57.7874   31.2138   49.9252 H   0  0  0  0  0  0  0  0  0  0  0  0
   57.7670   32.8083   50.7961 H   0  0  0  0  0  0  0  0  0  0  0  0
   60.0117   31.8325   49.8174 H   0  0  0  0  0  0  0  0  0  0  0  0
   59.9260   32.6517   51.4680 H   0  0  0  0  0  0  0  0  0  0  0  0
   62.0790   32.3808   50.3694 H   0  0  0  0  0  0  0  0  0  0  0  0
   64.5987   34.3379   50.3202 H   0  0  0  0  0  0  0  0  0  0  0  0
   65.5553   33.5868   48.9818 H   0  0  0  0  0  0  0  0  0  0  0  0
   62.2826   34.6966   50.0690 H   0  0  0  0  0  0  0  0  0  0  0  0
   60.2349   34.5408   48.6590 H   0  0  0  0  0  0  0  0  0  0  0  0
   60.2439   35.0841   45.6017 H   0  0  0  0  0  0  0  0  0  0  0  0
   58.1377   35.1171   44.2799 H   0  0  0  0  0  0  0  0  0  0  0  0
   56.6116   33.1553   44.3034 H   0  0  0  0  0  0  0  0  0  0  0  0
   57.9971   28.1763   44.8458 H   0  0  0  0  0  0  0  0  0  0  0  0
   57.1382   27.8039   43.3128 H   0  0  0  0  0  0  0  0  0  0  0  0
   58.5179   28.9542   43.3128 H   0  0  0  0  0  0  0  0  0  0  0  0
   62.2821   31.8190   45.9843 H   0  0  0  0  0  0  0  0  0  0  0  0
   64.3210   31.9487   47.4113 H   0  0  0  0  0  0  0  0  0  0  0  0
  1  2  1  0
  2  3  1  0
  3  4  1  0
  4  5  1  0
  5  6  2  0
  6  7  1  0
  7  8  2  0
  8  9  1  0
  9 10  2  0
 10 11  1  0
 11 12  1  0
 12 13  1  0
 13 14  1  0
 14 15  1  0
 15 16  1  0
 10 17  1  0
 17 18  2  0
 18 19  1  0
 19 20  1  0
 20 21  1  0
 21 22  2  0
 22 23  1  0
 23 24  2  0
 24 25  1  0
 25 26  2  0
 26 27  1  0
 27 28  2  0
 28 29  1  0
 29 30  1  0
 30 31  1  0
 31 32  1  0
 31 33  2  0
 31 34  2  0
 29 35  2  0
 35 36  1  0
 36 37  2  0
 36 38  1  0
 24 39  1  0
 39 40  2  0
 19  5  1  0
 40 21  1  0
 18  7  1  0
 35 25  1  0
 16 11  1  0
  1 41  1  0
  1 42  1  0
  1 43  1  0
  2 44  1  0
  2 45  1  0
  3 46  1  0
  3 47  1  0
  4 48  1  0
  4 49  1  0
  6 50  1  0
  8 51  1  0
  9 52  1  0
 12 53  1  0
 12 54  1  0
 13 55  1  0
 13 56  1  0
 14 57  1  0
 14 58  1  0
 15 59  1  0
 15 60  1  0
 16 61  1  0
 16 62  1  0
 17 63  1  0
 20 64  1  0
 20 65  1  0
 22 66  1  0
 23 67  1  0
 26 68  1  0
 27 69  1  0
 28 70  1  0
 32 71  1  0
 32 72  1  0
 32 73  1  0
 39 74  1  0
 40 75  1  0
M  CHG  3   6   1  30  -1  38  -1
M  END
>  <UniqueID>  (87) 
76

>  <SMILES>  (87) 
CCCCc1[nH+]c2ccc(N3CCCCC3)cc2n1Cc1ccc(-c2cccc([N-]S(C)(=O)=O)c2C(=O)[O-])cc1

>  <Energy>  (87) 
128.40407714321537

>  <Genealogy>  (87) 
CCCCc1[nH+]c2ccc(N3CCCCC3)cc2n1Cc1ccc(-c2cccc([N-]S(C)(=O)=O)c2C(=O)[O-])cc1 (protonated)
CCCCc1[nH+]c2ccc(N3CCCCC3)cc2n1Cc1ccc(-c2cccc([N-]S(C)(=O)=O)c2C(=O)[O-])cc1 (3D coordinates assigned)
CCCCc1[nH+]c2ccc(N3CCCCC3)cc2n1Cc1ccc(-c2cccc([N-]S(C)(=O)=O)c2C(=O)[O-])cc1 (nonaromatic ring conformer: 128.40407714321537 kcal/mol)

>  <smiles>  (87) 
CCCCc1nc2ccc(N3CCCCC3)cc2n1Cc1ccc(-c2cccc(NS(C)(=O)=O)c2C(=O)O)cc1

>  <score_type>  (87) 
oracle

>  <origin>  (87) 
adg

>  <m_score__min__energy>  (87) 
-13.59

>  <m_primary>  (87) 
energy

$$$$
87:0
     RDKit          3D

 68 72  0  0  0  0  0  0  0  0999 V2000
   61.9580   31.3060   50.9830 C   0  0  0  0  0  0  0  0  0  0  0  0
   60.4970   31.6330   51.1610 C   0  0  0  0  0  0  0  0  0  0  0  0
   60.1380   32.6480   52.0660 C   0  0  0  0  0  0  0  0  0  0  0  0
   58.8000   33.0020   52.2450 C   0  0  0  0  0  0  0  0  0  0  0  0
   57.8030   32.3530   51.5190 C   0  0  0  0  0  0  0  0  0  0  0  0
   58.1400   31.3460   50.6140 C   0  0  0  0  0  0  0  0  0  0  0  0
   59.4810   30.9660   50.4250 C   0  0  0  0  0  0  0  0  0  0  0  0
   59.7730   29.8480   49.4430 C   0  0  0  0  0  0  0  0  0  0  0  0
   59.0840   30.0920   48.1630 N   0  0  0  0  0  0  0  0  0  0  0  0
   59.1150   31.3550   47.6440 C   0  0  0  0  0  0  0  0  0  0  0  0
   58.5070   31.6580   46.4210 C   0  0  0  0  0  0  0  0  0  0  0  0
   58.6010   33.0490   45.9240 C   0  0  0  0  0  0  0  0  0  0  0  0
   57.7390   33.6460   45.0310 C   0  0  0  0  0  0  0  0  0  0  0  0
   58.1130   34.9350   44.8980 N   0  0  0  0  0  0  0  0  0  0  0  0
   59.1730   35.1160   45.6740 N   0  0  0  0  0  0  0  0  0  0  0  0
   59.4910   33.9920   46.2980 N   0  0  0  0  0  0  0  0  0  0  0  0
   60.6250   33.8650   47.1700 C   0  0  0  0  0  0  0  0  0  0  0  0
   60.5650   34.3850   48.4720 C   0  0  0  0  0  0  0  0  0  0  0  0
   61.6600   34.2640   49.3320 C   0  0  0  0  0  0  0  0  0  0  0  0
   62.8290   33.6410   48.8930 C   0  0  0  0  0  0  0  0  0  0  0  0
   62.9140   33.1430   47.5860 C   0  0  0  0  0  0  0  0  0  0  0  0
   64.1260   32.5460   47.1220 N   0  0  0  0  0  0  0  0  0  0  0  0
   61.8090   33.2510   46.7290 C   0  0  0  0  0  0  0  0  0  0  0  0
   57.8730   30.6250   45.6930 C   0  0  0  0  0  0  0  0  0  0  0  0
   57.2800   30.8750   44.3220 C   0  0  0  0  0  0  0  0  0  0  0  0
   57.8120   29.3330   46.2600 C   0  0  0  0  0  0  0  0  0  0  0  0
   57.0930   28.2410   45.5700 C   0  0  0  0  0  0  0  0  0  0  0  0
   55.8880   28.4000   45.2470 O   0  0  0  0  0  0  0  0  0  0  0  0
   57.7330   26.9880   45.2970 N   0  0  0  0  0  0  0  0  0  0  0  0
   57.4740   25.7630   46.0460 C   0  0  0  0  0  0  0  0  0  0  0  0
   58.4710   24.6820   45.6240 C   0  0  0  0  0  0  0  0  0  0  0  0
   57.8460   23.7040   44.6670 C   0  0  0  0  0  0  0  0  0  0  0  0
   56.7490   24.0890   43.8770 C   0  0  0  0  0  0  0  0  0  0  0  0
   56.1620   23.1770   42.9940 C   0  0  0  0  0  0  0  0  0  0  0  0
   56.6660   21.8780   42.8920 C   0  0  0  0  0  0  0  0  0  0  0  0
   57.7560   21.4870   43.6740 C   0  0  0  0  0  0  0  0  0  0  0  0
   58.3410   22.3940   44.5640 C   0  0  0  0  0  0  0  0  0  0  0  0
   58.4440   29.0830   47.4910 C   0  0  0  0  0  0  0  0  0  0  0  0
   58.4150   27.9160   47.9730 O   0  0  0  0  0  0  0  0  0  0  0  0
   62.4328   31.1997   51.9696 H   0  0  0  0  0  0  0  0  0  0  0  0
   62.0574   30.3634   50.4248 H   0  0  0  0  0  0  0  0  0  0  0  0
   62.4497   32.1163   50.4248 H   0  0  0  0  0  0  0  0  0  0  0  0
   60.9200   33.1682   52.6387 H   0  0  0  0  0  0  0  0  0  0  0  0
   58.5320   33.7940   52.9598 H   0  0  0  0  0  0  0  0  0  0  0  0
   56.7491   32.6350   51.6597 H   0  0  0  0  0  0  0  0  0  0  0  0
   57.3470   30.8430   50.0411 H   0  0  0  0  0  0  0  0  0  0  0  0
   60.8574   29.7956   49.2661 H   0  0  0  0  0  0  0  0  0  0  0  0
   59.4115   28.8993   49.8664 H   0  0  0  0  0  0  0  0  0  0  0  0
   59.6298   32.1522   48.2003 H   0  0  0  0  0  0  0  0  0  0  0  0
   56.8965   33.1589   44.5182 H   0  0  0  0  0  0  0  0  0  0  0  0
   59.6512   34.8906   48.8176 H   0  0  0  0  0  0  0  0  0  0  0  0
   61.6003   34.6604   50.3564 H   0  0  0  0  0  0  0  0  0  0  0  0
   63.6862   33.5406   49.5750 H   0  0  0  0  0  0  0  0  0  0  0  0
   64.8990   33.1390   46.7470 H   0  0  0  0  0  0  0  0  0  0  0  0
   64.2740   31.5140   47.1830 H   0  0  0  0  0  0  0  0  0  0  0  0
   61.8699   32.8526   45.7055 H   0  0  0  0  0  0  0  0  0  0  0  0
   56.2714   31.3002   44.4308 H   0  0  0  0  0  0  0  0  0  0  0  0
   57.9179   31.5808   43.7697 H   0  0  0  0  0  0  0  0  0  0  0  0
   57.2201   29.9256   43.7697 H   0  0  0  0  0  0  0  0  0  0  0  0
   57.5838   25.9620   47.1223 H   0  0  0  0  0  0  0  0  0  0  0  0
   56.4508   25.4172   45.8376 H   0  0  0  0  0  0  0  0  0  0  0  0
   59.3325   25.1605   45.1353 H   0  0  0  0  0  0  0  0  0  0  0  0
   58.7882   24.1330   46.5229 H   0  0  0  0  0  0  0  0  0  0  0  0
   56.3507   25.1115   43.9535 H   0  0  0  0  0  0  0  0  0  0  0  0
   55.3026   23.4828   42.3792 H   0  0  0  0  0  0  0  0  0  0  0  0
   56.2044   21.1625   42.1956 H   0  0  0  0  0  0  0  0  0  0  0  0
   58.1544   20.4652   43.5897 H   0  0  0  0  0  0  0  0  0  0  0  0
   59.1923   22.0797   45.1857 H   0  0  0  0  0  0  0  0  0  0  0  0
  1  2  1  0
  2  3  2  0
  3  4  1  0
  4  5  2  0
  5  6  1  0
  6  7  2  0
  7  8  1  0
  8  9  1  0
  9 10  1  0
 10 11  2  0
 11 12  1  0
 12 13  2  0
 13 14  1  0
 14 15  2  0
 15 16  1  0
 16 17  1  0
 17 18  2  0
 18 19  1  0
 19 20  2  0
 20 21  1  0
 21 22  1  0
 21 23  2  0
 11 24  1  0
 24 25  1  0
 24 26  2  0
 26 27  1  0
 27 28  2  0
 27 29  1  0
 29 30  1  0
 30 31  1  0
 31 32  1  0
 32 33  2  0
 33 34  1  0
 34 35  2  0
 35 36  1  0
 36 37  2  0
 26 38  1  0
 38 39  2  0
  7  2  1  0
 38  9  1  0
 16 12  1  0
 23 17  1  0
 37 32  1  0
  1 40  1  0
  1 41  1  0
  1 42  1  0
  3 43  1  0
  4 44  1  0
  5 45  1  0
  6 46  1  0
  8 47  1  0
  8 48  1  0
 10 49  1  0
 13 50  1  0
 18 51  1  0
 19 52  1  0
 20 53  1  0
 22 54  1  0
 22 55  1  0
 23 56  1  0
 25 57  1  0
 25 58  1  0
 25 59  1  0
 30 60  1  0
 30 61  1  0
 31 62  1  0
 31 63  1  0
 33 64  1  0
 34 65  1  0
 35 66  1  0
 36 67  1  0
 37 68  1  0
M  CHG  1  29  -1
M  END
>  <UniqueID>  (88) 
77

>  <SMILES>  (88) 
Cc1ccccc1Cn1cc(-c2cnnn2-c2cccc(N)c2)c(C)c(C(=O)[N-]CCc2ccccc2)c1=O

>  <Energy>  (88) 
124.04707203105717

>  <Genealogy>  (88) 
Cc1ccccc1Cn1cc(-c2cnnn2-c2cccc(N)c2)c(C)c(C(=O)[N-]CCc2ccccc2)c1=O (protonated)
Cc1ccccc1Cn1cc(-c2cnnn2-c2cccc(N)c2)c(C)c(C(=O)[N-]CCc2ccccc2)c1=O (3D coordinates assigned)
Cc1ccccc1Cn1cc(-c2cnnn2-c2cccc(N)c2)c(C)c(C(=O)[N-]CCc2ccccc2)c1=O (optimized conformer: 124.04707203105717 kcal/mol)

>  <smiles>  (88) 
Cc1ccccc1Cn1cc(-c2cnnn2-c2cccc(N)c2)c(C)c(C(=O)NCCc2ccccc2)c1=O

>  <score_type>  (88) 
oracle

>  <origin>  (88) 
adg

>  <m_score__min__energy>  (88) 
-12.56

>  <m_primary>  (88) 
energy

$$$$
88:0
     RDKit          3D

 55 57  0  0  0  0  0  0  0  0999 V2000
   67.4670   32.1180   51.4940 C   0  0  0  0  0  0  0  0  0  0  0  0
   66.5260   32.0030   50.4320 O   0  0  0  0  0  0  0  0  0  0  0  0
   65.3560   32.7710   50.3270 C   0  0  0  0  0  0  0  0  0  0  0  0
   64.7290   33.3490   51.4480 C   0  0  0  0  0  0  0  0  0  0  0  0
   63.5580   34.0980   51.2950 C   0  0  0  0  0  0  0  0  0  0  0  0
   63.0080   34.2790   50.0220 C   0  0  0  0  0  0  0  0  0  0  0  0
   63.6170   33.7020   48.8910 C   0  0  0  0  0  0  0  0  0  0  0  0
   63.0120   33.9050   47.5120 C   0  0  0  0  0  0  0  0  0  0  0  0
   61.7130   33.2140   47.2990 N   0  0  2  0  0  0  0  0  0  0  0  0
   60.5700   33.9900   47.8390 C   0  0  0  0  0  0  0  0  0  0  0  0
   59.3640   33.9720   46.9250 C   0  0  0  0  0  0  0  0  0  0  0  0
   58.1670   33.3430   47.3200 C   0  0  0  0  0  0  0  0  0  0  0  0
   57.0290   33.4310   46.5130 C   0  0  0  0  0  0  0  0  0  0  0  0
   57.0860   34.0910   45.2830 C   0  0  0  0  0  0  0  0  0  0  0  0
   58.2880   34.6540   44.8520 C   0  0  0  0  0  0  0  0  0  0  0  0
   59.4230   34.5970   45.6670 C   0  0  0  0  0  0  0  0  0  0  0  0
   61.7410   31.5650   47.9110 S   0  0  0  0  0  0  0  0  0  0  0  0
   61.7310   31.5680   49.4170 O   0  0  0  0  0  0  0  0  0  0  0  0
   62.9700   30.8410   47.4350 O   0  0  0  0  0  0  0  0  0  0  0  0
   60.3440   30.6800   47.2970 C   0  0  0  0  0  0  0  0  0  0  0  0
   59.9190   30.8200   45.9680 C   0  0  0  0  0  0  0  0  0  0  0  0
   58.8370   30.0690   45.4920 C   0  0  0  0  0  0  0  0  0  0  0  0
   58.1650   29.1740   46.3470 C   0  0  0  0  0  0  0  0  0  0  0  0
   57.0550   28.3790   45.9140 N   0  0  0  0  0  0  0  0  0  0  0  0
   56.8930   26.6600   46.1120 S   0  0  0  0  0  0  0  0  0  0  0  0
   57.6440   25.8070   44.7390 C   0  0  0  0  0  0  0  0  0  0  0  0
   57.5940   26.2650   47.3810 O   0  0  0  0  0  0  0  0  0  0  0  0
   55.4390   26.2890   46.2300 O   0  0  0  0  0  0  0  0  0  0  0  0
   58.5940   29.0430   47.6750 C   0  0  0  0  0  0  0  0  0  0  0  0
   59.6680   29.7970   48.1490 C   0  0  0  0  0  0  0  0  0  0  0  0
   64.7990   32.9610   49.0560 C   0  0  0  0  0  0  0  0  0  0  0  0
   66.9414   32.0538   52.4582 H   0  0  0  0  0  0  0  0  0  0  0  0
   68.2023   31.3030   51.4222 H   0  0  0  0  0  0  0  0  0  0  0  0
   67.9844   33.0861   51.4222 H   0  0  0  0  0  0  0  0  0  0  0  0
   65.1628   33.2105   52.4493 H   0  0  0  0  0  0  0  0  0  0  0  0
   63.0704   34.5440   52.1744 H   0  0  0  0  0  0  0  0  0  0  0  0
   62.0923   34.8769   49.9032 H   0  0  0  0  0  0  0  0  0  0  0  0
   62.8560   34.9834   47.3610 H   0  0  0  0  0  0  0  0  0  0  0  0
   63.7200   33.4670   46.7930 H   0  0  0  0  0  0  0  0  0  0  0  0
   61.5990   33.1440   46.2590 H   0  0  0  0  0  0  0  0  0  0  0  0
   60.2814   33.5609   48.8099 H   0  0  0  0  0  0  0  0  0  0  0  0
   60.8964   35.0360   47.9356 H   0  0  0  0  0  0  0  0  0  0  0  0
   58.1278   32.7816   48.2651 H   0  0  0  0  0  0  0  0  0  0  0  0
   56.0841   32.9784   46.8480 H   0  0  0  0  0  0  0  0  0  0  0  0
   56.1856   34.1667   44.6557 H   0  0  0  0  0  0  0  0  0  0  0  0
   58.3428   35.1439   43.8686 H   0  0  0  0  0  0  0  0  0  0  0  0
   60.3672   35.0436   45.3219 H   0  0  0  0  0  0  0  0  0  0  0  0
   60.4369   31.5216   45.2975 H   0  0  0  0  0  0  0  0  0  0  0  0
   58.5110   30.1785   44.4471 H   0  0  0  0  0  0  0  0  0  0  0  0
   58.3264   25.0319   45.1178 H   0  0  0  0  0  0  0  0  0  0  0  0
   56.8604   25.3378   44.1259 H   0  0  0  0  0  0  0  0  0  0  0  0
   58.2086   26.5248   44.1259 H   0  0  0  0  0  0  0  0  0  0  0  0
   58.0803   28.3408   48.3481 H   0  0  0  0  0  0  0  0  0  0  0  0
   59.9857   29.6976   49.1974 H   0  0  0  0  0  0  0  0  0  0  0  0
   65.2935   32.5244   48.1757 H   0  0  0  0  0  0  0  0  0  0  0  0
  1  2  1  0
  2  3  1  0
  3  4  2  0
  4  5  1  0
  5  6  2  0
  6  7  1  0
  7  8  1  0
  8  9  1  0
  9 10  1  0
 10 11  1  0
 11 12  2  0
 12 13  1  0
 13 14  2  0
 14 15  1  0
 15 16  2  0
  9 17  1  0
 17 18  2  0
 17 19  2  0
 17 20  1  0
 20 21  2  0
 21 22  1  0
 22 23  2  0
 23 24  1  0
 24 25  1  0
 25 26  1  0
 25 27  2  0
 25 28  2  0
 23 29  1  0
 29 30  2  0
  7 31  2  0
 31  3  1  0
 16 11  1  0
 30 20  1  0
  1 32  1  0
  1 33  1  0
  1 34  1  0
  4 35  1  0
  5 36  1  0
  6 37  1  0
  8 38  1  0
  8 39  1  0
  9 40  1  6
 10 41  1  0
 10 42  1  0
 12 43  1  0
 13 44  1  0
 14 45  1  0
 15 46  1  0
 16 47  1  0
 21 48  1  0
 22 49  1  0
 26 50  1  0
 26 51  1  0
 26 52  1  0
 29 53  1  0
 30 54  1  0
 31 55  1  0
M  CHG  2   9   1  24  -1
M  END
>  <UniqueID>  (89) 
78

>  <SMILES>  (89) 
COc1cccc(C[N@H+](Cc2ccccc2)S(=O)(=O)c2ccc([N-]S(C)(=O)=O)cc2)c1

>  <Energy>  (89) 
56.06259919140896

>  <Genealogy>  (89) 
COc1cccc(C[NH+](Cc2ccccc2)S(=O)(=O)c2ccc([N-]S(C)(=O)=O)cc2)c1 (protonated)
COc1cccc(C[N@H+](Cc2ccccc2)S(=O)(=O)c2ccc([N-]S(C)(=O)=O)cc2)c1 (chirality)
COc1cccc(C[N@H+](Cc2ccccc2)S(=O)(=O)c2ccc([N-]S(C)(=O)=O)cc2)c1 (3D coordinates assigned)
COc1cccc(C[N@H+](Cc2ccccc2)S(=O)(=O)c2ccc([N-]S(C)(=O)=O)cc2)c1 (optimized conformer: 56.06259919140896 kcal/mol)

>  <smiles>  (89) 
COc1cccc(CN(Cc2ccccc2)S(=O)(=O)c2ccc(NS(C)(=O)=O)cc2)c1

>  <score_type>  (89) 
oracle

>  <origin>  (89) 
adg

>  <m_score__min__energy>  (89) 
-9.6600000000000001

>  <m_primary>  (89) 
energy

$$$$
89:0
     RDKit          3D

 53 56  0  0  0  0  0  0  0  0999 V2000
   58.6894   29.8886   49.6982 H   0  0  0  0  0  0  0  0  0  0  0  0
   59.1840   29.4880   48.8010 C   0  0  0  0  0  0  0  0  0  0  0  0
   59.2280   28.1460   48.5960 N   0  0  0  0  0  0  0  0  0  0  0  0
   59.8240   27.5980   47.5000 C   0  0  0  0  0  0  0  0  0  0  0  0
   59.8600   26.3080   47.3240 N   0  0  0  0  0  0  0  0  0  0  0  0
   59.0550   25.5450   46.4120 C   0  0  0  0  0  0  0  0  0  0  0  0
   59.6270   24.7460   45.6260 O   0  0  0  0  0  0  0  0  0  0  0  0
   57.5860   25.6670   46.3480 C   0  0  0  0  0  0  0  0  0  0  0  0
   56.7560   24.6560   46.6620 N   0  0  0  0  0  0  0  0  0  0  0  0
   55.5080   25.0600   46.4680 N   0  0  0  0  0  0  0  0  0  0  0  0
   55.5310   26.3280   46.0200 C   0  0  0  0  0  0  0  0  0  0  0  0
   54.6452   26.9286   45.7658 H   0  0  0  0  0  0  0  0  0  0  0  0
   56.8390   26.7580   45.9290 C   0  0  0  0  0  0  0  0  0  0  0  0
   57.2980   28.0370   45.2870 C   0  0  0  0  0  0  0  0  0  0  0  0
   57.9215   28.5938   46.0020 H   0  0  0  0  0  0  0  0  0  0  0  0
   57.8736   27.7865   44.3837 H   0  0  0  0  0  0  0  0  0  0  0  0
   56.1060   28.9100   44.8770 C   0  0  0  0  0  0  0  0  0  0  0  0
   55.6056   28.4520   44.0111 H   0  0  0  0  0  0  0  0  0  0  0  0
   55.4136   28.9807   45.7288 H   0  0  0  0  0  0  0  0  0  0  0  0
   56.5480   30.2720   44.5150 N   0  0  0  0  0  0  0  0  0  0  0  0
   56.5600   30.5010   43.0660 C   0  0  0  0  0  0  0  0  0  0  0  0
   56.8543   29.5817   42.5385 H   0  0  0  0  0  0  0  0  0  0  0  0
   55.5631   30.7887   42.7006 H   0  0  0  0  0  0  0  0  0  0  0  0
   57.5770   31.6010   42.8110 C   0  0  0  0  0  0  0  0  0  0  0  0
   58.1670   31.3784   41.9097 H   0  0  0  0  0  0  0  0  0  0  0  0
   57.0935   32.5747   42.6434 H   0  0  0  0  0  0  0  0  0  0  0  0
   58.4700   31.6170   44.0410 C   0  0  0  0  0  0  0  0  0  0  0  0
   59.5118   31.3989   43.7634 H   0  0  0  0  0  0  0  0  0  0  0  0
   58.4708   32.6003   44.5340 H   0  0  0  0  0  0  0  0  0  0  0  0
   57.9220   30.5280   44.9500 C   0  0  0  0  0  0  0  0  0  0  0  0
   58.5268   29.6141   44.8546 H   0  0  0  0  0  0  0  0  0  0  0  0
   57.9526   30.8391   46.0046 H   0  0  0  0  0  0  0  0  0  0  0  0
   60.4280   28.4350   46.5580 C   0  0  0  0  0  0  0  0  0  0  0  0
   60.9262   28.0068   45.6757 H   0  0  0  0  0  0  0  0  0  0  0  0
   60.3950   29.8180   46.7440 C   0  0  0  0  0  0  0  0  0  0  0  0
   60.8636   30.4812   46.0019 H   0  0  0  0  0  0  0  0  0  0  0  0
   59.7670   30.3670   47.8730 C   0  0  0  0  0  0  0  0  0  0  0  0
   59.7230   31.8370   48.0840 C   0  0  0  0  0  0  0  0  0  0  0  0
   59.8350   32.3750   49.3770 C   0  0  0  0  0  0  0  0  0  0  0  0
   59.9550   31.7035   50.2400 H   0  0  0  0  0  0  0  0  0  0  0  0
   59.7950   33.7550   49.5730 C   0  0  0  0  0  0  0  0  0  0  0  0
   59.8837   34.1662   50.5894 H   0  0  0  0  0  0  0  0  0  0  0  0
   59.6430   34.6170   48.4860 C   0  0  0  0  0  0  0  0  0  0  0  0
   59.6128   35.7040   48.6516 H   0  0  0  0  0  0  0  0  0  0  0  0
   59.5280   34.1060   47.1790 C   0  0  0  0  0  0  0  0  0  0  0  0
   59.3600   35.0110   46.0080 C   0  0  0  0  0  0  0  0  0  0  0  0
   59.9930   36.1010   45.9630 O   0  0  0  0  0  0  0  0  0  0  0  0
   58.4540   34.6660   44.8640 C   0  0  0  0  0  0  0  0  0  0  0  0
   57.4931   34.3001   45.2548 H   0  0  0  0  0  0  0  0  0  0  0  0
   58.2825   35.5618   44.2490 H   0  0  0  0  0  0  0  0  0  0  0  0
   58.9218   33.8831   44.2490 H   0  0  0  0  0  0  0  0  0  0  0  0
   59.5700   32.7110   46.9910 C   0  0  0  0  0  0  0  0  0  0  0  0
   59.4820   32.2982   45.9752 H   0  0  0  0  0  0  0  0  0  0  0  0
  1  2  1  0
  2  3  1  0
  3  4  1  0
  4  5  2  0
  5  6  1  0
  6  7  2  0
  6  8  1  0
  8  9  2  0
  9 10  1  0
 10 11  1  0
 11 12  1  0
 11 13  2  0
 13 14  1  0
 14 15  1  0
 14 16  1  0
 14 17  1  0
 17 18  1  0
 17 19  1  0
 17 20  1  0
 20 21  1  0
 21 22  1  0
 21 23  1  0
 21 24  1  0
 24 25  1  0
 24 26  1  0
 24 27  1  0
 27 28  1  0
 27 29  1  0
 27 30  1  0
 30 31  1  0
 30 32  1  0
  4 33  1  0
 33 34  1  0
 33 35  2  0
 35 36  1  0
 35 37  1  0
 37 38  1  0
 38 39  2  0
 39 40  1  0
 39 41  1  0
 41 42  1  0
 41 43  2  0
 43 44  1  0
 43 45  1  0
 45 46  1  0
 46 47  2  0
 46 48  1  0
 48 49  1  0
 48 50  1  0
 48 51  1  0
 45 52  2  0
 52 53  1  0
 37  2  2  0
 52 38  1  0
 13  8  1  0
 30 20  1  0
M  CHG  2   3  -1  10  -1
M  END
>  <UniqueID>  (90) 
79

>  <SMILES>  (90) 
CC(=O)c1cccc(-c2cc/c(=N/C(=O)c3n[n-]cc3CCN3CCCC3)[n-]c2)c1

>  <Energy>  (90) 
98.61733869538239

>  <Genealogy>  (90) 
CC(=O)c1cccc(-c2ccc(=NC(=O)c3n[n-]cc3CCN3CCCC3)[n-]c2)c1 (protonated)
CC(=O)c1cccc(-c2cc/c(=N/C(=O)c3n[n-]cc3CCN3CCCC3)[n-]c2)c1 (cis-trans isomerization)
CC(=O)c1cccc(-c2cc/c(=N/C(=O)c3n[n-]cc3CCN3CCCC3)[n-]c2)c1 (3D coordinates assigned)
CC(=O)c1cccc(-c2cc/c(=N/C(=O)c3n[n-]cc3CCN3CCCC3)[n-]c2)c1 (nonaromatic ring conformer: 98.61733869538239 kcal/mol)

>  <smiles>  (90) 
CC(=O)c1cccc(-c2ccc(=NC(=O)c3n[nH]cc3CCN3CCCC3)[nH]c2)c1

>  <score_type>  (90) 
oracle

>  <origin>  (90) 
adg

>  <m_score__min__energy>  (90) 
-12.18

>  <m_primary>  (90) 
energy

$$$$
90:0
     RDKit          3D

 39 41  0  0  0  0  0  0  0  0999 V2000
   55.2130   30.4230   44.5100 O   0  0  0  0  0  0  0  0  0  0  0  0
   56.1820   29.6470   44.7300 C   0  0  0  0  0  0  0  0  0  0  0  0
   57.5810   30.1370   44.4710 C   0  0  0  0  0  0  0  0  0  0  0  0
   57.7740   31.5060   45.0650 C   0  0  0  0  0  0  0  0  0  0  0  0
   57.5630   32.6570   44.2850 C   0  0  0  0  0  0  0  0  0  0  0  0
   57.7190   33.9300   44.8480 C   0  0  0  0  0  0  0  0  0  0  0  0
   58.0720   34.0610   46.1940 C   0  0  0  0  0  0  0  0  0  0  0  0
   58.2730   32.9210   46.9800 C   0  0  0  0  0  0  0  0  0  0  0  0
   58.1240   31.6480   46.4200 C   0  0  0  0  0  0  0  0  0  0  0  0
   55.9110   28.3370   45.2420 N   0  0  0  0  0  0  0  0  0  0  0  0
   56.8980   27.4530   45.8420 C   0  0  0  0  0  0  0  0  0  0  0  0
   56.3920   26.0430   45.8050 C   0  0  0  0  0  0  0  0  0  0  0  0
   55.1850   25.8310   46.0960 O   0  0  0  0  0  0  0  0  0  0  0  0
   57.2790   24.9460   45.5030 N   0  0  0  0  0  0  0  0  0  0  0  0
   58.5570   24.7080   46.1840 C   0  0  0  0  0  0  0  0  0  0  0  0
   59.1120   23.3800   45.6200 C   0  0  0  0  0  0  0  0  0  0  0  0
   58.0820   22.9660   44.6330 C   0  0  0  0  0  0  0  0  0  0  0  0
   58.0900   21.8320   43.8190 C   0  0  0  0  0  0  0  0  0  0  0  0
   57.0130   21.6250   42.9460 C   0  0  0  0  0  0  0  0  0  0  0  0
   55.9540   22.5490   42.8980 C   0  0  0  0  0  0  0  0  0  0  0  0
   55.9700   23.6880   43.7210 C   0  0  0  0  0  0  0  0  0  0  0  0
   57.0520   23.8730   44.5920 C   0  0  0  0  0  0  0  0  0  0  0  0
   58.2997   29.4395   44.9260 H   0  0  0  0  0  0  0  0  0  0  0  0
   57.7451   30.1923   43.3847 H   0  0  0  0  0  0  0  0  0  0  0  0
   57.2742   32.5571   43.2283 H   0  0  0  0  0  0  0  0  0  0  0  0
   57.5636   34.8270   44.2306 H   0  0  0  0  0  0  0  0  0  0  0  0
   58.1919   35.0612   46.6358 H   0  0  0  0  0  0  0  0  0  0  0  0
   58.5486   33.0261   48.0397 H   0  0  0  0  0  0  0  0  0  0  0  0
   58.2812   30.7543   47.0417 H   0  0  0  0  0  0  0  0  0  0  0  0
   57.8405   27.5194   45.2788 H   0  0  0  0  0  0  0  0  0  0  0  0
   57.0733   27.7529   46.8857 H   0  0  0  0  0  0  0  0  0  0  0  0
   59.2570   25.5310   45.9775 H   0  0  0  0  0  0  0  0  0  0  0  0
   58.4234   24.6530   47.2745 H   0  0  0  0  0  0  0  0  0  0  0  0
   60.0849   23.5364   45.1311 H   0  0  0  0  0  0  0  0  0  0  0  0
   59.2879   22.6236   46.3990 H   0  0  0  0  0  0  0  0  0  0  0  0
   58.9239   21.1159   43.8617 H   0  0  0  0  0  0  0  0  0  0  0  0
   56.9962   20.7373   42.2966 H   0  0  0  0  0  0  0  0  0  0  0  0
   55.1097   22.3795   42.2135 H   0  0  0  0  0  0  0  0  0  0  0  0
   55.1496   24.4197   43.6822 H   0  0  0  0  0  0  0  0  0  0  0  0
  1  2  2  0
  2  3  1  0
  3  4  1  0
  4  5  2  0
  5  6  1  0
  6  7  2  0
  7  8  1  0
  8  9  2  0
  2 10  1  0
 10 11  1  0
 11 12  1  0
 12 13  2  0
 12 14  1  0
 14 15  1  0
 15 16  1  0
 16 17  1  0
 17 18  2  0
 18 19  1  0
 19 20  2  0
 20 21  1  0
 21 22  2  0
  9  4  1  0
 22 14  1  0
 22 17  1  0
  3 23  1  0
  3 24  1  0
  5 25  1  0
  6 26  1  0
  7 27  1  0
  8 28  1  0
  9 29  1  0
 11 30  1  0
 11 31  1  0
 15 32  1  0
 15 33  1  0
 16 34  1  0
 16 35  1  0
 18 36  1  0
 19 37  1  0
 20 38  1  0
 21 39  1  0
M  CHG  1  10  -1
M  END
>  <UniqueID>  (91) 
80

>  <SMILES>  (91) 
O=C(Cc1ccccc1)[N-]CC(=O)N1CCc2ccccc21

>  <Energy>  (91) 
52.933656543576916

>  <Genealogy>  (91) 
O=C(Cc1ccccc1)[N-]CC(=O)N1CCc2ccccc21 (protonated)
O=C(Cc1ccccc1)[N-]CC(=O)N1CCc2ccccc21 (3D coordinates assigned)
O=C(Cc1ccccc1)[N-]CC(=O)N1CCc2ccccc21 (nonaromatic ring conformer: 52.933656543576916 kcal/mol)

>  <smiles>  (91) 
O=C(Cc1ccccc1)NCC(=O)N1CCc2ccccc21

>  <score_type>  (91) 
oracle

>  <origin>  (91) 
adg

>  <m_score__min__energy>  (91) 
-10.84

>  <m_primary>  (91) 
energy

$$$$
91:0
     RDKit          3D

 40 42  0  0  0  0  0  0  0  0999 V2000
   62.4750   34.3140   49.3590 C   0  0  0  0  0  0  0  0  0  0  0  0
   61.3310   33.8640   48.5080 C   0  0  0  0  0  0  0  0  0  0  0  0
   60.2080   34.5960   48.3160 N   0  0  0  0  0  0  0  0  0  0  0  0
   59.4340   33.8680   47.4920 C   0  0  0  0  0  0  0  0  0  0  0  0
   58.1830   34.2150   46.9890 C   0  0  0  0  0  0  0  0  0  0  0  0
   57.5460   33.3120   46.1200 C   0  0  0  0  0  0  0  0  0  0  0  0
   58.1660   32.0830   45.7630 C   0  0  0  0  0  0  0  0  0  0  0  0
   57.4880   31.1390   44.8450 C   0  0  0  0  0  0  0  0  0  0  0  0
   56.2690   31.3000   44.5670 O   0  0  0  0  0  0  0  0  0  0  0  0
   58.2030   30.0140   44.3150 N   0  0  0  0  0  0  0  0  0  0  0  0
   58.3440   28.7240   44.9290 C   0  0  0  0  0  0  0  0  0  0  0  0
   59.6260   28.2850   45.2820 C   0  0  0  0  0  0  0  0  0  0  0  0
   59.8090   27.0260   45.8600 C   0  0  0  0  0  0  0  0  0  0  0  0
   58.7120   26.1900   46.0790 C   0  0  0  0  0  0  0  0  0  0  0  0
   57.4250   26.6070   45.7140 C   0  0  0  0  0  0  0  0  0  0  0  0
   56.0490   25.5340   45.9510 S   0  0  0  0  0  0  0  0  0  0  0  0
   55.9670   24.4090   44.6410 N   0  0  0  0  0  0  0  0  0  0  0  0
   54.7800   26.3380   46.0020 O   0  0  0  0  0  0  0  0  0  0  0  0
   56.2020   24.7910   47.2480 O   0  0  0  0  0  0  0  0  0  0  0  0
   57.2440   27.8680   45.1280 C   0  0  0  0  0  0  0  0  0  0  0  0
   59.4390   31.7680   46.2960 C   0  0  0  0  0  0  0  0  0  0  0  0
   60.0390   32.6840   47.1600 C   0  0  0  0  0  0  0  0  0  0  0  0
   61.2540   32.6530   47.8180 C   0  0  0  0  0  0  0  0  0  0  0  0
   62.3110   31.5980   47.7130 C   0  0  0  0  0  0  0  0  0  0  0  0
   62.2062   34.2083   50.4204 H   0  0  0  0  0  0  0  0  0  0  0  0
   63.3590   33.6966   49.1413 H   0  0  0  0  0  0  0  0  0  0  0  0
   62.7014   35.3682   49.1413 H   0  0  0  0  0  0  0  0  0  0  0  0
   59.9930   35.5370   48.7120 H   0  0  0  0  0  0  0  0  0  0  0  0
   57.7069   35.1679   47.2635 H   0  0  0  0  0  0  0  0  0  0  0  0
   56.5553   33.5593   45.7109 H   0  0  0  0  0  0  0  0  0  0  0  0
   60.4948   28.9355   45.1031 H   0  0  0  0  0  0  0  0  0  0  0  0
   60.8185   26.6930   46.1429 H   0  0  0  0  0  0  0  0  0  0  0  0
   58.8586   25.2017   46.5392 H   0  0  0  0  0  0  0  0  0  0  0  0
   55.9000   24.9690   43.7630 H   0  0  0  0  0  0  0  0  0  0  0  0
   56.8840   23.9090   44.6110 H   0  0  0  0  0  0  0  0  0  0  0  0
   56.2376   28.1900   44.8223 H   0  0  0  0  0  0  0  0  0  0  0  0
   59.9421   30.8251   46.0355 H   0  0  0  0  0  0  0  0  0  0  0  0
   62.6214   31.2882   48.7218 H   0  0  0  0  0  0  0  0  0  0  0  0
   61.9097   30.7296   47.1700 H   0  0  0  0  0  0  0  0  0  0  0  0
   63.1786   32.0010   47.1700 H   0  0  0  0  0  0  0  0  0  0  0  0
  1  2  1  0
  2  3  1  0
  3  4  1  0
  4  5  2  0
  5  6  1  0
  6  7  2  0
  7  8  1  0
  8  9  2  0
  8 10  1  0
 10 11  1  0
 11 12  2  0
 12 13  1  0
 13 14  2  0
 14 15  1  0
 15 16  1  0
 16 17  1  0
 16 18  2  0
 16 19  2  0
 15 20  2  0
  7 21  1  0
 21 22  2  0
 22 23  1  0
 23 24  1  0
 23  2  2  0
 22  4  1  0
 20 11  1  0
  1 25  1  0
  1 26  1  0
  1 27  1  0
  3 28  1  0
  5 29  1  0
  6 30  1  0
 12 31  1  0
 13 32  1  0
 14 33  1  0
 17 34  1  0
 17 35  1  0
 20 36  1  0
 21 37  1  0
 24 38  1  0
 24 39  1  0
 24 40  1  0
M  CHG  1  10  -1
M  END
>  <UniqueID>  (92) 
81

>  <SMILES>  (92) 
Cc1[nH]c2ccc(C(=O)[N-]c3cccc(S(N)(=O)=O)c3)cc2c1C

>  <Energy>  (92) 
76.11062032347247

>  <Genealogy>  (92) 
Cc1[nH]c2ccc(C(=O)[N-]c3cccc(S(N)(=O)=O)c3)cc2c1C (protonated)
Cc1[nH]c2ccc(C(=O)[N-]c3cccc(S(N)(=O)=O)c3)cc2c1C (3D coordinates assigned)
Cc1[nH]c2ccc(C(=O)[N-]c3cccc(S(N)(=O)=O)c3)cc2c1C (optimized conformer: 76.11062032347247 kcal/mol)

>  <smiles>  (92) 
Cc1[nH]c2ccc(C(=O)Nc3cccc(S(N)(=O)=O)c3)cc2c1C

>  <score_type>  (92) 
oracle

>  <origin>  (92) 
adg

>  <m_score__min__energy>  (92) 
-10.43

>  <m_primary>  (92) 
energy

$$$$
