0:0
     RDKit          3D

 36 38  0  0  0  0  0  0  0  0999 V2000
   55.7810   30.6220   52.3780 C   0  0  0  0  0  0  0  0  0  0  0  0
   56.8760   30.1800   51.5820 O   0  0  0  0  0  0  0  0  0  0  0  0
   57.9110   31.0100   51.1300 C   0  0  0  0  0  0  0  0  0  0  0  0
   58.0080   32.3020   51.6590 C   0  0  0  0  0  0  0  0  0  0  0  0
   59.0220   33.1690   51.2380 C   0  0  0  0  0  0  0  0  0  0  0  0
   59.9430   32.7590   50.2590 C   0  0  0  0  0  0  0  0  0  0  0  0
   61.0240   33.6020   49.8360 N   0  0  0  0  0  0  0  0  0  0  0  0
   61.8200   33.3990   48.8270 C   0  0  0  0  0  0  0  0  0  0  0  0
   63.3840   32.8010   48.8430 S   0  0  0  0  0  0  0  0  0  0  0  0
   63.6510   32.9550   47.2130 N   0  0  0  0  0  0  0  0  0  0  0  0
   62.5710   33.4720   46.6330 N   0  0  0  0  0  0  0  0  0  0  0  0
   61.5470   33.7310   47.5010 C   0  0  0  0  0  0  0  0  0  0  0  0
   60.0260   34.4240   46.9610 S   0  0  0  0  0  0  0  0  0  0  0  0
   60.2940   35.5500   46.0020 O   0  0  0  0  0  0  0  0  0  0  0  0
   59.2770   34.9660   48.1470 O   0  0  0  0  0  0  0  0  0  0  0  0
   59.0750   33.1890   46.1410 C   0  0  0  0  0  0  0  0  0  0  0  0
   59.2850   31.8280   46.4120 C   0  0  0  0  0  0  0  0  0  0  0  0
   58.5480   30.8550   45.7320 C   0  0  0  0  0  0  0  0  0  0  0  0
   57.6000   31.2350   44.7770 C   0  0  0  0  0  0  0  0  0  0  0  0
   57.3920   32.5900   44.4990 C   0  0  0  0  0  0  0  0  0  0  0  0
   58.1280   33.5640   45.1770 C   0  0  0  0  0  0  0  0  0  0  0  0
   59.8680   31.4560   49.7530 C   0  0  0  0  0  0  0  0  0  0  0  0
   58.8550   30.5880   50.1730 C   0  0  0  0  0  0  0  0  0  0  0  0
   56.0366   30.5188   53.4429 H   0  0  0  0  0  0  0  0  0  0  0  0
   55.5665   31.6771   52.1530 H   0  0  0  0  0  0  0  0  0  0  0  0
   54.8941   30.0114   52.1530 H   0  0  0  0  0  0  0  0  0  0  0  0
   57.2806   32.6387   52.4124 H   0  0  0  0  0  0  0  0  0  0  0  0
   59.0987   34.1756   51.6750 H   0  0  0  0  0  0  0  0  0  0  0  0
   64.5250   32.7010   46.7020 H   0  0  0  0  0  0  0  0  0  0  0  0
   60.0316   31.5266   47.1615 H   0  0  0  0  0  0  0  0  0  0  0  0
   58.7137   29.7892   45.9481 H   0  0  0  0  0  0  0  0  0  0  0  0
   57.0179   30.4685   44.2444 H   0  0  0  0  0  0  0  0  0  0  0  0
   56.6481   32.8886   43.7457 H   0  0  0  0  0  0  0  0  0  0  0  0
   57.9644   34.6287   44.9542 H   0  0  0  0  0  0  0  0  0  0  0  0
   60.6118   31.1120   49.0192 H   0  0  0  0  0  0  0  0  0  0  0  0
   58.7951   29.5724   49.7548 H   0  0  0  0  0  0  0  0  0  0  0  0
  1  2  1  0
  2  3  1  0
  3  4  2  0
  4  5  1  0
  5  6  2  0
  6  7  1  0
  7  8  2  3
  8  9  1  0
  9 10  1  0
 10 11  1  0
 11 12  2  0
 12 13  1  0
 13 14  2  0
 13 15  2  0
 13 16  1  0
 16 17  2  0
 17 18  1  0
 18 19  2  0
 19 20  1  0
 20 21  2  0
  6 22  1  0
 22 23  2  0
 23  3  1  0
 12  8  1  0
 21 16  1  0
  1 24  1  0
  1 25  1  0
  1 26  1  0
  4 27  1  0
  5 28  1  0
 10 29  1  0
 17 30  1  0
 18 31  1  0
 19 32  1  0
 20 33  1  0
 21 34  1  0
 22 35  1  0
 23 36  1  0
M  END
>  <UniqueID>  (1) 
1

>  <SMILES>  (1) 
COc1ccc(N=c2s[nH]nc2S(=O)(=O)c2ccccc2)cc1

>  <Energy>  (1) 
85.25783653660659

>  <Genealogy>  (1) 
COc1ccc(N=c2s[nH]nc2S(=O)(=O)c2ccccc2)cc1 (3D coordinates assigned)
COc1ccc(N=c2s[nH]nc2S(=O)(=O)c2ccccc2)cc1 (optimized conformer: 85.25783653660659 kcal/mol)

>  <smiles>  (1) 
COc1ccc(N=c2s[nH]nc2S(=O)(=O)c2ccccc2)cc1

>  <score_type>  (1) 
oracle

>  <origin>  (1) 
adg

>  <m_score__min__energy>  (1) 
-8.0099999999999998

>  <m_primary>  (1) 
energy

$$$$
1:0
     RDKit          3D

 42 44  0  0  0  0  0  0  0  0999 V2000
   64.8100   31.9910   50.0010 C   0  0  0  0  0  0  0  0  0  0  0  0
   64.4480   33.4440   49.7170 C   0  0  0  0  0  0  0  0  0  0  0  0
   63.1990   33.5290   48.8830 C   0  0  0  0  0  0  0  0  0  0  0  0
   63.2450   33.3010   47.5010 C   0  0  0  0  0  0  0  0  0  0  0  0
   62.0850   33.4120   46.7330 C   0  0  0  0  0  0  0  0  0  0  0  0
   60.8770   33.7750   47.3510 C   0  0  0  0  0  0  0  0  0  0  0  0
   59.6550   33.8870   46.6000 N   0  0  0  0  0  0  0  0  0  0  0  0
   59.5840   34.4550   45.2620 C   0  0  0  0  0  0  0  0  0  0  0  0
   58.0950   34.4450   44.8720 C   0  0  0  0  0  0  0  0  0  0  0  0
   57.3890   33.4920   45.8600 C   0  0  1  0  0  0  0  0  0  0  0  0
   56.9580   32.2150   45.2520 N   0  0  0  0  0  0  0  0  0  0  0  0
   57.7140   31.8150   44.0520 C   0  0  0  0  0  0  0  0  0  0  0  0
   57.9970   30.3440   44.1090 C   0  0  0  0  0  0  0  0  0  0  0  0
   59.1170   29.8520   44.7850 C   0  0  0  0  0  0  0  0  0  0  0  0
   59.3630   28.4800   44.7830 C   0  0  0  0  0  0  0  0  0  0  0  0
   58.4920   27.6340   44.0990 C   0  0  0  0  0  0  0  0  0  0  0  0
   57.4240   28.1600   43.4440 N   0  0  0  0  0  0  0  0  0  0  0  0
   57.1870   29.4730   43.4460 N   0  0  0  0  0  0  0  0  0  0  0  0
   58.4060   33.2920   46.9200 C   0  0  0  0  0  0  0  0  0  0  0  0
   58.2020   32.6080   47.9590 O   0  0  0  0  0  0  0  0  0  0  0  0
   60.8580   33.9880   48.6960 N   0  0  0  0  0  0  0  0  0  0  0  0
   61.9730   33.8840   49.4640 C   0  0  0  0  0  0  0  0  0  0  0  0
   64.8504   31.8290   51.0883 H   0  0  0  0  0  0  0  0  0  0  0  0
   64.0489   31.3306   49.5599 H   0  0  0  0  0  0  0  0  0  0  0  0
   65.7920   31.7648   49.5599 H   0  0  0  0  0  0  0  0  0  0  0  0
   64.2818   33.9674   50.6701 H   0  0  0  0  0  0  0  0  0  0  0  0
   65.2750   33.9121   49.1630 H   0  0  0  0  0  0  0  0  0  0  0  0
   64.1977   33.0339   47.0204 H   0  0  0  0  0  0  0  0  0  0  0  0
   62.1165   33.2165   45.6510 H   0  0  0  0  0  0  0  0  0  0  0  0
   59.9713   35.4846   45.2634 H   0  0  0  0  0  0  0  0  0  0  0  0
   60.1901   33.8781   44.5480 H   0  0  0  0  0  0  0  0  0  0  0  0
   57.6739   35.4578   44.9544 H   0  0  0  0  0  0  0  0  0  0  0  0
   57.9585   34.1123   43.8324 H   0  0  0  0  0  0  0  0  0  0  0  0
   56.4444   33.9147   46.2329 H   0  0  0  0  0  0  0  0  0  0  0  0
   55.9470   32.3080   44.9900 H   0  0  0  0  0  0  0  0  0  0  0  0
   57.1214   32.0401   43.1530 H   0  0  0  0  0  0  0  0  0  0  0  0
   58.6627   32.3704   44.0134 H   0  0  0  0  0  0  0  0  0  0  0  0
   59.7957   30.5388   45.3119 H   0  0  0  0  0  0  0  0  0  0  0  0
   60.2342   28.0699   45.3149 H   0  0  0  0  0  0  0  0  0  0  0  0
   58.6679   26.5482   44.0894 H   0  0  0  0  0  0  0  0  0  0  0  0
   56.7750   27.5260   42.9270 H   0  0  0  0  0  0  0  0  0  0  0  0
   61.9144   34.0788   50.5450 H   0  0  0  0  0  0  0  0  0  0  0  0
  1  2  1  0
  2  3  1  0
  3  4  2  0
  4  5  1  0
  5  6  2  0
  6  7  1  0
  7  8  1  0
  8  9  1  0
  9 10  1  0
 10 11  1  0
 11 12  1  0
 12 13  1  0
 13 14  2  0
 14 15  1  0
 15 16  2  0
 16 17  1  0
 17 18  2  0
 10 19  1  0
 19 20  2  0
  6 21  1  0
 21 22  2  0
 22  3  1  0
 19  7  1  0
 18 13  1  0
  1 23  1  0
  1 24  1  0
  1 25  1  0
  2 26  1  0
  2 27  1  0
  4 28  1  0
  5 29  1  0
  8 30  1  0
  8 31  1  0
  9 32  1  0
  9 33  1  0
 10 34  1  1
 11 35  1  0
 12 36  1  0
 12 37  1  0
 14 38  1  0
 15 39  1  0
 16 40  1  0
 17 41  1  0
 22 42  1  0
M  CHG  1  17   1
M  END
>  <UniqueID>  (2) 
2

>  <SMILES>  (2) 
CCc1ccc(N2CC[C@@H](NCc3ccc[nH+]n3)C2=O)nc1

>  <Energy>  (2) 
53.24680255721544

>  <Genealogy>  (2) 
CCc1ccc(N2CCC(NCc3ccc[nH+]n3)C2=O)nc1 (protonated)
CCc1ccc(N2CC[C@@H](NCc3ccc[nH+]n3)C2=O)nc1 (chirality)
CCc1ccc(N2CC[C@@H](NCc3ccc[nH+]n3)C2=O)nc1 (3D coordinates assigned)
CCc1ccc(N2CC[C@@H](NCc3ccc[nH+]n3)C2=O)nc1 (nonaromatic ring conformer: 53.24680255721544 kcal/mol)

>  <smiles>  (2) 
CCc1ccc(N2CCC(NCc3cccnn3)C2=O)nc1

>  <score_type>  (2) 
oracle

>  <origin>  (2) 
adg

>  <m_score__min__energy>  (2) 
-7.04

>  <m_primary>  (2) 
energy

$$$$
2:0
     RDKit          3D

 32 33  0  0  0  0  0  0  0  0999 V2000
   57.9720   27.9640   43.7670 C   0  0  0  0  0  0  0  0  0  0  0  0
   57.0190   29.0130   43.2030 C   0  0  0  0  0  0  0  0  0  0  0  0
   56.5730   29.9680   44.2780 C   0  0  0  0  0  0  0  0  0  0  0  0
   55.4860   29.7240   44.8690 O   0  0  0  0  0  0  0  0  0  0  0  0
   57.3440   31.1900   44.6420 C   0  0  0  0  0  0  0  0  0  0  0  0
   57.7860   31.3760   45.9640 C   0  0  0  0  0  0  0  0  0  0  0  0
   58.5130   32.5130   46.3150 C   0  0  0  0  0  0  0  0  0  0  0  0
   58.7970   33.4740   45.3410 C   0  0  0  0  0  0  0  0  0  0  0  0
   59.6180   34.6850   45.6740 C   0  0  0  0  0  0  0  0  0  0  0  0
   59.6730   34.9580   47.4810 S   0  0  0  0  0  0  0  0  0  0  0  0
   61.2890   34.2070   47.7080 C   0  0  0  0  0  0  0  0  0  0  0  0
   61.7830   33.9740   48.9940 C   0  0  0  0  0  0  0  0  0  0  0  0
   63.0440   33.3920   49.1480 C   0  0  0  0  0  0  0  0  0  0  0  0
   63.7770   33.0540   48.0540 N   0  0  0  0  0  0  0  0  0  0  0  0
   63.3130   33.2650   46.7920 C   0  0  0  0  0  0  0  0  0  0  0  0
   62.0560   33.8420   46.5950 C   0  0  0  0  0  0  0  0  0  0  0  0
   58.3660   33.2860   44.0650 N   0  0  0  0  0  0  0  0  0  0  0  0
   57.6550   32.1870   43.6960 C   0  0  0  0  0  0  0  0  0  0  0  0
   57.9432   27.9957   44.8662 H   0  0  0  0  0  0  0  0  0  0  0  0
   57.6652   26.9660   43.4208 H   0  0  0  0  0  0  0  0  0  0  0  0
   58.9948   28.1739   43.4208 H   0  0  0  0  0  0  0  0  0  0  0  0
   57.5327   29.5772   42.4107 H   0  0  0  0  0  0  0  0  0  0  0  0
   56.1333   28.5014   42.7983 H   0  0  0  0  0  0  0  0  0  0  0  0
   57.5563   30.6182   46.7276 H   0  0  0  0  0  0  0  0  0  0  0  0
   58.8599   32.6522   47.3495 H   0  0  0  0  0  0  0  0  0  0  0  0
   60.6423   34.5398   45.3002 H   0  0  0  0  0  0  0  0  0  0  0  0
   59.1572   35.5638   45.1993 H   0  0  0  0  0  0  0  0  0  0  0  0
   61.1852   34.2460   49.8764 H   0  0  0  0  0  0  0  0  0  0  0  0
   63.4442   33.2071   50.1558 H   0  0  0  0  0  0  0  0  0  0  0  0
   63.9286   32.9808   45.9259 H   0  0  0  0  0  0  0  0  0  0  0  0
   61.6733   34.0076   45.5771 H   0  0  0  0  0  0  0  0  0  0  0  0
   57.3210   32.0758   42.6538 H   0  0  0  0  0  0  0  0  0  0  0  0
  1  2  1  0
  2  3  1  0
  3  4  2  0
  3  5  1  0
  5  6  2  0
  6  7  1  0
  7  8  2  0
  8  9  1  0
  9 10  1  0
 10 11  1  0
 11 12  2  0
 12 13  1  0
 13 14  2  0
 14 15  1  0
 15 16  2  0
  8 17  1  0
 17 18  2  0
 18  5  1  0
 16 11  1  0
  1 19  1  0
  1 20  1  0
  1 21  1  0
  2 22  1  0
  2 23  1  0
  6 24  1  0
  7 25  1  0
  9 26  1  0
  9 27  1  0
 12 28  1  0
 13 29  1  0
 15 30  1  0
 16 31  1  0
 18 32  1  0
M  END
>  <UniqueID>  (3) 
3

>  <SMILES>  (3) 
CCC(=O)c1ccc(CSc2ccncc2)nc1

>  <Energy>  (3) 
26.92450066730212

>  <Genealogy>  (3) 
CCC(=O)c1ccc(CSc2ccncc2)nc1 (3D coordinates assigned)
CCC(=O)c1ccc(CSc2ccncc2)nc1 (optimized conformer: 26.92450066730212 kcal/mol)

>  <smiles>  (3) 
CCC(=O)c1ccc(CSc2ccncc2)nc1

>  <score_type>  (3) 
oracle

>  <origin>  (3) 
adg

>  <m_score__min__energy>  (3) 
-7.1299999999999999

>  <m_primary>  (3) 
energy

$$$$
3:0
     RDKit          3D

 43 44  0  0  0  0  0  0  0  0999 V2000
   59.2470   34.9720   45.2480 C   0  0  0  0  0  0  0  0  0  0  0  0
   60.3020   34.7520   46.3280 C   0  0  0  0  0  0  0  0  0  0  0  0
   60.4600   33.2820   46.6600 C   0  0  0  0  0  0  0  0  0  0  0  0
   59.3220   32.4590   46.5490 C   0  0  0  0  0  0  0  0  0  0  0  0
   59.3850   31.0940   46.8530 C   0  0  0  0  0  0  0  0  0  0  0  0
   58.1510   30.2430   46.7750 C   0  0  0  0  0  0  0  0  0  0  0  0
   57.4280   30.5540   45.5510 N   0  0  0  0  0  0  0  0  0  0  0  0
   56.6970   29.5720   44.8110 C   0  0  0  0  0  0  0  0  0  0  0  0
   55.4380   29.5420   44.8620 O   0  0  0  0  0  0  0  0  0  0  0  0
   57.4320   28.6120   43.9320 C   0  0  0  0  0  0  0  0  0  0  0  0
   58.4160   27.8200   44.7470 C   0  0  0  0  0  0  0  0  0  0  0  0
   59.7490   28.2470   44.8600 C   0  0  0  0  0  0  0  0  0  0  0  0
   60.6540   27.5280   45.6480 C   0  0  0  0  0  0  0  0  0  0  0  0
   60.2320   26.3860   46.3350 C   0  0  0  0  0  0  0  0  0  0  0  0
   58.9030   25.9630   46.2380 C   0  0  0  0  0  0  0  0  0  0  0  0
   57.9960   26.6780   45.4500 C   0  0  0  0  0  0  0  0  0  0  0  0
   60.5920   30.5430   47.2960 C   0  0  0  0  0  0  0  0  0  0  0  0
   61.7320   31.3370   47.3940 C   0  0  0  0  0  0  0  0  0  0  0  0
   61.6950   32.7040   47.0670 C   0  0  0  0  0  0  0  0  0  0  0  0
   62.9980   33.4770   47.1440 C   0  0  0  0  0  0  0  0  0  0  0  0
   64.1450   32.5950   46.9190 N   0  0  0  0  0  0  0  0  0  0  0  0
   58.2748   35.1747   45.7210 H   0  0  0  0  0  0  0  0  0  0  0  0
   59.5361   35.8292   44.6222 H   0  0  0  0  0  0  0  0  0  0  0  0
   59.1694   34.0707   44.6222 H   0  0  0  0  0  0  0  0  0  0  0  0
   61.2660   35.1432   45.9707 H   0  0  0  0  0  0  0  0  0  0  0  0
   59.9785   35.2782   47.2382 H   0  0  0  0  0  0  0  0  0  0  0  0
   58.3684   32.8961   46.2181 H   0  0  0  0  0  0  0  0  0  0  0  0
   58.4369   29.1808   46.7729 H   0  0  0  0  0  0  0  0  0  0  0  0
   57.5081   30.4462   47.6441 H   0  0  0  0  0  0  0  0  0  0  0  0
   56.7131   27.9256   43.4608 H   0  0  0  0  0  0  0  0  0  0  0  0
   57.9739   29.1738   43.1569 H   0  0  0  0  0  0  0  0  0  0  0  0
   60.0826   29.1497   44.3272 H   0  0  0  0  0  0  0  0  0  0  0  0
   61.6992   27.8617   45.7272 H   0  0  0  0  0  0  0  0  0  0  0  0
   60.9456   25.8202   46.9519 H   0  0  0  0  0  0  0  0  0  0  0  0
   58.5706   25.0667   46.7822 H   0  0  0  0  0  0  0  0  0  0  0  0
   56.9498   26.3454   45.3801 H   0  0  0  0  0  0  0  0  0  0  0  0
   60.6409   29.4783   47.5681 H   0  0  0  0  0  0  0  0  0  0  0  0
   62.6769   30.8873   47.7328 H   0  0  0  0  0  0  0  0  0  0  0  0
   62.9945   34.2654   46.3770 H   0  0  0  0  0  0  0  0  0  0  0  0
   63.0858   33.9171   48.1483 H   0  0  0  0  0  0  0  0  0  0  0  0
   63.8450   31.7340   46.4060 H   0  0  0  0  0  0  0  0  0  0  0  0
   64.8830   33.0880   46.3670 H   0  0  0  0  0  0  0  0  0  0  0  0
   64.5450   32.3090   47.8410 H   0  0  0  0  0  0  0  0  0  0  0  0
  1  2  1  0
  2  3  1  0
  3  4  2  0
  4  5  1  0
  5  6  1  0
  6  7  1  0
  7  8  1  0
  8  9  2  0
  8 10  1  0
 10 11  1  0
 11 12  2  0
 12 13  1  0
 13 14  2  0
 14 15  1  0
 15 16  2  0
  5 17  2  0
 17 18  1  0
 18 19  2  0
 19 20  1  0
 20 21  1  0
 19  3  1  0
 16 11  1  0
  1 22  1  0
  1 23  1  0
  1 24  1  0
  2 25  1  0
  2 26  1  0
  4 27  1  0
  6 28  1  0
  6 29  1  0
 10 30  1  0
 10 31  1  0
 12 32  1  0
 13 33  1  0
 14 34  1  0
 15 35  1  0
 16 36  1  0
 17 37  1  0
 18 38  1  0
 20 39  1  0
 20 40  1  0
 21 41  1  0
 21 42  1  0
 21 43  1  0
M  CHG  2   7  -1  21   1
M  END
>  <UniqueID>  (4) 
4

>  <SMILES>  (4) 
CCc1cc(C[N-]C(=O)Cc2ccccc2)ccc1C[NH3+]

>  <Energy>  (4) 
36.855446789939364

>  <Genealogy>  (4) 
CCc1cc(C[N-]C(=O)Cc2ccccc2)ccc1C[NH3+] (protonated)
CCc1cc(C[N-]C(=O)Cc2ccccc2)ccc1C[NH3+] (3D coordinates assigned)
CCc1cc(C[N-]C(=O)Cc2ccccc2)ccc1C[NH3+] (optimized conformer: 36.855446789939364 kcal/mol)

>  <smiles>  (4) 
CCc1cc(CNC(=O)Cc2ccccc2)ccc1CN

>  <score_type>  (4) 
oracle

>  <origin>  (4) 
adg

>  <m_score__min__energy>  (4) 
-7.5199999999999996

>  <m_primary>  (4) 
energy

$$$$
4:0
     RDKit          3D

 40 41  0  0  0  0  0  0  0  0999 V2000
   59.1310   29.2020   44.4830 C   0  0  0  0  0  0  0  0  0  0  0  0
   57.8490   29.1530   45.1950 N   0  0  0  0  0  0  0  0  0  0  0  0
   57.8020   28.5780   46.5460 C   0  0  0  0  0  0  0  0  0  0  0  0
   57.6030   27.0950   46.4670 C   0  0  0  0  0  0  0  0  0  0  0  0
   58.0180   26.3700   47.4110 O   0  0  0  0  0  0  0  0  0  0  0  0
   56.8790   26.5190   45.3680 N   0  0  0  0  0  0  0  0  0  0  0  0
   56.7640   25.1050   45.1370 C   0  0  0  0  0  0  0  0  0  0  0  0
   56.2690   24.2780   46.1580 C   0  0  0  0  0  0  0  0  0  0  0  0
   56.1330   22.9030   45.9520 C   0  0  0  0  0  0  0  0  0  0  0  0
   56.4740   22.3420   44.7180 C   0  0  0  0  0  0  0  0  0  0  0  0
   56.2980   20.6150   44.4590 Cl  0  0  0  0  0  0  0  0  0  0  0  0
   56.9460   23.1600   43.6870 C   0  0  0  0  0  0  0  0  0  0  0  0
   57.0860   24.5360   43.8910 C   0  0  0  0  0  0  0  0  0  0  0  0
   56.6480   29.6850   44.5900 C   0  0  0  0  0  0  0  0  0  0  0  0
   55.5300   29.1730   44.8710 O   0  0  0  0  0  0  0  0  0  0  0  0
   56.6980   30.8530   43.6760 C   0  0  0  0  0  0  0  0  0  0  0  0
   57.6830   31.7640   43.6460 C   0  0  0  0  0  0  0  0  0  0  0  0
   58.1090   32.6000   44.7910 C   0  0  0  0  0  0  0  0  0  0  0  0
   58.7540   33.8210   44.5440 C   0  0  0  0  0  0  0  0  0  0  0  0
   59.1280   34.6500   45.6080 C   0  0  0  0  0  0  0  0  0  0  0  0
   58.8420   34.2740   46.9230 C   0  0  0  0  0  0  0  0  0  0  0  0
   58.1710   33.0740   47.1770 C   0  0  0  0  0  0  0  0  0  0  0  0
   57.8740   32.7200   48.4520 F   0  0  0  0  0  0  0  0  0  0  0  0
   57.7960   32.2430   46.1150 C   0  0  0  0  0  0  0  0  0  0  0  0
   59.9543   29.2335   45.2119 H   0  0  0  0  0  0  0  0  0  0  0  0
   59.2342   28.3071   43.8517 H   0  0  0  0  0  0  0  0  0  0  0  0
   59.1656   30.1021   43.8517 H   0  0  0  0  0  0  0  0  0  0  0  0
   58.7480   28.7911   47.0654 H   0  0  0  0  0  0  0  0  0  0  0  0
   56.9628   29.0252   47.0990 H   0  0  0  0  0  0  0  0  0  0  0  0
   56.3330   27.1610   44.7500 H   0  0  0  0  0  0  0  0  0  0  0  0
   55.9864   24.7158   47.1267 H   0  0  0  0  0  0  0  0  0  0  0  0
   55.7570   22.2609   46.7621 H   0  0  0  0  0  0  0  0  0  0  0  0
   57.2077   22.7200   42.7134 H   0  0  0  0  0  0  0  0  0  0  0  0
   57.4494   25.1766   43.0739 H   0  0  0  0  0  0  0  0  0  0  0  0
   55.8647   30.9818   42.9696 H   0  0  0  0  0  0  0  0  0  0  0  0
   58.2168   31.9005   42.6939 H   0  0  0  0  0  0  0  0  0  0  0  0
   58.9668   34.1283   43.5095 H   0  0  0  0  0  0  0  0  0  0  0  0
   59.6478   35.5988   45.4087 H   0  0  0  0  0  0  0  0  0  0  0  0
   59.1448   34.9222   47.7585 H   0  0  0  0  0  0  0  0  0  0  0  0
   57.2544   31.3070   46.3166 H   0  0  0  0  0  0  0  0  0  0  0  0
  1  2  1  0
  2  3  1  0
  3  4  1  0
  4  5  2  0
  4  6  1  0
  6  7  1  0
  7  8  2  0
  8  9  1  0
  9 10  2  0
 10 11  1  0
 10 12  1  0
 12 13  2  0
  2 14  1  0
 14 15  2  0
 14 16  1  0
 16 17  2  3
 17 18  1  0
 18 19  2  0
 19 20  1  0
 20 21  2  0
 21 22  1  0
 22 23  1  0
 22 24  2  0
 13  7  1  0
 24 18  1  0
  1 25  1  0
  1 26  1  0
  1 27  1  0
  3 28  1  0
  3 29  1  0
  6 30  1  0
  8 31  1  0
  9 32  1  0
 12 33  1  0
 13 34  1  0
 16 35  1  0
 17 36  1  0
 19 37  1  0
 20 38  1  0
 21 39  1  0
 24 40  1  0
M  END
>  <UniqueID>  (5) 
5

>  <SMILES>  (5) 
CN(CC(=O)Nc1ccc(Cl)cc1)C(=O)C=Cc1cccc(F)c1

>  <Energy>  (5) 
49.11080057095215

>  <Genealogy>  (5) 
CN(CC(=O)Nc1ccc(Cl)cc1)C(=O)C=Cc1cccc(F)c1 (3D coordinates assigned)
CN(CC(=O)Nc1ccc(Cl)cc1)C(=O)C=Cc1cccc(F)c1 (optimized conformer: 49.11080057095215 kcal/mol)

>  <smiles>  (5) 
CN(CC(=O)Nc1ccc(Cl)cc1)C(=O)C=Cc1cccc(F)c1

>  <score_type>  (5) 
oracle

>  <origin>  (5) 
adg

>  <m_score__min__energy>  (5) 
-7.9900000000000002

>  <m_primary>  (5) 
energy

$$$$
5:0
     RDKit          3D

 32 33  0  0  1  0  0  0  0  0999 V2000
   57.3400   29.0080   44.0090 C   0  0  0  0  0  0  0  0  0  0  0  0
   56.4530   30.1190   43.5470 C   0  0  0  0  0  0  0  0  0  0  0  0
   56.2630   31.1770   44.4970 N   0  0  0  0  0  0  0  0  0  0  0  0
   57.1830   31.9300   44.9710 C   0  0  0  0  0  0  0  0  0  0  0  0
   57.0870   33.2700   45.0390 N   0  0  0  0  0  0  0  0  0  0  0  0
   58.2180   33.6890   45.5800 N   0  0  0  0  0  0  0  0  0  0  0  0
   58.9820   32.6060   45.8320 C   0  0  0  0  0  0  0  0  0  0  0  0
   60.3180   32.6710   46.4360 C   0  0  0  0  0  0  0  0  0  0  0  0
   61.0870   33.8150   46.3670 C   0  0  0  0  0  0  0  0  0  0  0  0
   62.3400   33.8390   46.9470 C   0  0  0  0  0  0  0  0  0  0  0  0
   62.8540   32.7440   47.5990 C   0  0  0  0  0  0  0  0  0  0  0  0
   64.1480   32.8040   48.1850 N   0  0  0  0  0  0  0  0  0  0  0  0
   64.3640   32.9150   49.5880 C   0  0  0  0  0  0  0  0  0  0  0  0
   65.7770   32.9690   50.0750 C   0  0  0  0  0  0  0  0  0  0  0  0
   63.4290   32.9700   50.4270 O   0  0  0  0  0  0  0  0  0  0  0  0
   62.0860   31.5990   47.6680 C   0  0  0  0  0  0  0  0  0  0  0  0
   60.8350   31.5840   47.0860 C   0  0  0  0  0  0  0  0  0  0  0  0
   58.3340   31.5190   45.4520 O   0  0  0  0  0  0  0  0  0  0  0  0
   57.3576   28.9860   45.1086 H   0  0  0  0  0  0  0  0  0  0  0  0
   56.9557   28.0499   43.6292 H   0  0  0  0  0  0  0  0  0  0  0  0
   58.3595   29.1706   43.6292 H   0  0  0  0  0  0  0  0  0  0  0  0
   56.8941   30.5522   42.6372 H   0  0  0  0  0  0  0  0  0  0  0  0
   55.4615   29.6725   43.3811 H   0  0  0  0  0  0  0  0  0  0  0  0
   56.2860   33.8700   44.7290 H   0  0  0  0  0  0  0  0  0  0  0  0
   60.7022   34.7067   45.8505 H   0  0  0  0  0  0  0  0  0  0  0  0
   62.9418   34.7577   46.8855 H   0  0  0  0  0  0  0  0  0  0  0  0
   64.9600   32.7620   47.5390 H   0  0  0  0  0  0  0  0  0  0  0  0
   65.7860   32.9693   51.1750 H   0  0  0  0  0  0  0  0  0  0  0  0
   66.3265   32.0912   49.7041 H   0  0  0  0  0  0  0  0  0  0  0  0
   66.2579   33.8862   49.7041 H   0  0  0  0  0  0  0  0  0  0  0  0
   62.4684   30.7054   48.1830 H   0  0  0  0  0  0  0  0  0  0  0  0
   60.2323   30.6658   47.1468 H   0  0  0  0  0  0  0  0  0  0  0  0
  1  2  1  0
  2  3  1  0
  3  4  2  0
  4  5  1  0
  5  6  1  0
  6  7  2  0
  7  8  1  0
  8  9  2  0
  9 10  1  0
 10 11  2  0
 11 12  1  0
 12 13  1  0
 13 14  1  0
 13 15  2  0
 11 16  1  0
 16 17  2  0
  7 18  1  0
 18  4  1  0
 17  8  1  0
  1 19  1  0
  1 20  1  0
  1 21  1  0
  2 22  1  0
  2 23  1  0
  5 24  1  0
  9 25  1  0
 10 26  1  0
 12 27  1  0
 14 28  1  0
 14 29  1  0
 14 30  1  0
 16 31  1  0
 17 32  1  0
M  END
>  <smiles>  (6) 
CCN=c1[nH]nc(-c2ccc(NC(C)=O)cc2)o1

>  <score_type>  (6) 
oracle

>  <origin>  (6) 
adg

>  <m_score__min__energy>  (6) 
-6.1299999999999999

>  <m_primary>  (6) 
energy

$$$$
6:0
     RDKit          3D

 37 38  0  0  0  0  0  0  0  0999 V2000
   62.1810   33.8000   48.3950 C   0  0  0  0  0  0  0  0  0  0  0  0
   61.0100   34.0880   49.1020 C   0  0  0  0  0  0  0  0  0  0  0  0
   59.7990   34.2430   48.4190 C   0  0  0  0  0  0  0  0  0  0  0  0
   59.7580   34.1080   47.0250 C   0  0  0  0  0  0  0  0  0  0  0  0
   58.2070   34.3090   46.1480 S   0  0  0  0  0  0  0  0  0  0  0  0
   58.9150   33.8320   44.5360 C   0  0  0  0  0  0  0  0  0  0  0  0
   58.1880   32.6050   43.9920 C   0  0  0  0  0  0  0  0  0  0  0  0
   56.9820   32.2390   44.8720 C   0  0  0  0  0  0  0  0  0  0  0  0
   56.9870   30.8020   45.2300 N   0  0  0  0  0  0  0  0  0  0  0  0
   56.0220   30.0330   44.3980 C   0  0  0  0  0  0  0  0  0  0  0  0
   56.6920   29.3560   43.1950 C   0  0  0  0  0  0  0  0  0  0  0  0
   57.7680   28.3540   43.6500 C   0  0  0  0  0  0  0  0  0  0  0  0
   58.3780   28.7230   45.0130 C   0  0  0  0  0  0  0  0  0  0  0  0
   58.3660   30.2420   45.2260 C   0  0  0  0  0  0  0  0  0  0  0  0
   60.9330   33.8230   46.3180 C   0  0  0  0  0  0  0  0  0  0  0  0
   62.1430   33.6680   47.0030 C   0  0  0  0  0  0  0  0  0  0  0  0
   63.1324   33.6772   48.9333 H   0  0  0  0  0  0  0  0  0  0  0  0
   61.0408   34.1929   50.1966 H   0  0  0  0  0  0  0  0  0  0  0  0
   58.8786   34.4710   48.9766 H   0  0  0  0  0  0  0  0  0  0  0  0
   58.8034   34.6660   43.8275 H   0  0  0  0  0  0  0  0  0  0  0  0
   59.9811   33.5938   44.6649 H   0  0  0  0  0  0  0  0  0  0  0  0
   57.8363   32.8191   42.9720 H   0  0  0  0  0  0  0  0  0  0  0  0
   58.8885   31.7569   43.9902 H   0  0  0  0  0  0  0  0  0  0  0  0
   57.0181   32.8372   45.7944 H   0  0  0  0  0  0  0  0  0  0  0  0
   56.0639   32.4498   44.3040 H   0  0  0  0  0  0  0  0  0  0  0  0
   55.5556   29.2581   45.0242 H   0  0  0  0  0  0  0  0  0  0  0  0
   55.2763   30.7423   44.0096 H   0  0  0  0  0  0  0  0  0  0  0  0
   55.9275   28.8217   42.6119 H   0  0  0  0  0  0  0  0  0  0  0  0
   57.1744   30.1317   42.5821 H   0  0  0  0  0  0  0  0  0  0  0  0
   57.3111   27.3563   43.7265 H   0  0  0  0  0  0  0  0  0  0  0  0
   58.5777   28.3721   42.9056 H   0  0  0  0  0  0  0  0  0  0  0  0
   57.7927   28.2430   45.8111 H   0  0  0  0  0  0  0  0  0  0  0  0
   59.4207   28.3734   45.0371 H   0  0  0  0  0  0  0  0  0  0  0  0
   58.8419   30.4673   46.1918 H   0  0  0  0  0  0  0  0  0  0  0  0
   58.9134   30.7028   44.3906 H   0  0  0  0  0  0  0  0  0  0  0  0
   60.9044   33.7209   45.2231 H   0  0  0  0  0  0  0  0  0  0  0  0
   63.0647   33.4423   46.4467 H   0  0  0  0  0  0  0  0  0  0  0  0
  1  2  2  0
  2  3  1  0
  3  4  2  0
  4  5  1  0
  5  6  1  0
  6  7  1  0
  7  8  1  0
  8  9  1  0
  9 10  1  0
 10 11  1  0
 11 12  1  0
 12 13  1  0
 13 14  1  0
  4 15  1  0
 15 16  2  0
 16  1  1  0
 14  9  1  0
  1 17  1  0
  2 18  1  0
  3 19  1  0
  6 20  1  0
  6 21  1  0
  7 22  1  0
  7 23  1  0
  8 24  1  0
  8 25  1  0
 10 26  1  0
 10 27  1  0
 11 28  1  0
 11 29  1  0
 12 30  1  0
 12 31  1  0
 13 32  1  0
 13 33  1  0
 14 34  1  0
 14 35  1  0
 15 36  1  0
 16 37  1  0
M  END
>  <UniqueID>  (7) 
6

>  <SMILES>  (7) 
c1ccc(SCCCN2CCCCC2)cc1

>  <Energy>  (7) 
35.768463293665036

>  <Genealogy>  (7) 
c1ccc(SCCCN2CCCCC2)cc1 (3D coordinates assigned)
c1ccc(SCCCN2CCCCC2)cc1 (nonaromatic ring conformer: 35.768463293665036 kcal/mol)

>  <smiles>  (7) 
c1ccc(SCCCN2CCCCC2)cc1

>  <score_type>  (7) 
oracle

>  <origin>  (7) 
adg

>  <m_score__min__energy>  (7) 
-6.8700000000000001

>  <m_primary>  (7) 
energy

$$$$
7:0
     RDKit          3D

 52 54  0  0  0  0  0  0  0  0999 V2000
   62.6551   34.5611   45.9513 H   0  0  0  0  0  0  0  0  0  0  0  0
   62.6890   33.7910   46.7360 C   0  0  0  0  0  0  0  0  0  0  0  0
   63.7580   33.7560   47.6300 C   0  0  0  0  0  0  0  0  0  0  0  0
   64.5671   34.4968   47.5482 H   0  0  0  0  0  0  0  0  0  0  0  0
   63.8030   32.7810   48.6300 C   0  0  0  0  0  0  0  0  0  0  0  0
   65.1560   32.7520   49.7490 Cl  0  0  0  0  0  0  0  0  0  0  0  0
   62.7750   31.8340   48.7360 C   0  0  0  0  0  0  0  0  0  0  0  0
   62.8470   30.9010   49.7220 F   0  0  0  0  0  0  0  0  0  0  0  0
   61.6870   31.8580   47.8340 C   0  0  0  0  0  0  0  0  0  0  0  0
   60.5790   30.8700   47.9170 C   0  0  0  0  0  0  0  0  0  0  0  0
   59.4970   31.1900   48.4810 O   0  0  0  0  0  0  0  0  0  0  0  0
   60.7100   29.5760   47.3110 N   0  0  0  0  0  0  0  0  0  0  0  0
   59.6460   28.6750   46.9740 C   0  0  0  0  0  0  0  0  0  0  0  0
   58.6510   29.1120   46.0910 C   0  0  0  0  0  0  0  0  0  0  0  0
   58.6921   30.1338   45.6858 H   0  0  0  0  0  0  0  0  0  0  0  0
   57.6060   28.2610   45.7200 C   0  0  0  0  0  0  0  0  0  0  0  0
   56.8227   28.6218   45.0372 H   0  0  0  0  0  0  0  0  0  0  0  0
   57.5510   26.9490   46.2140 C   0  0  0  0  0  0  0  0  0  0  0  0
   56.4460   26.0530   45.8190 C   0  0  0  0  0  0  0  0  0  0  0  0
   55.1550   26.2340   46.1660 N   0  0  0  0  0  0  0  0  0  0  0  0
   54.4750   25.2340   45.6260 N   0  0  0  0  0  0  0  0  0  0  0  0
   55.3840   24.4870   44.9720 C   0  0  0  0  0  0  0  0  0  0  0  0
   55.1080   23.4050   44.3070 N   0  0  0  0  0  0  0  0  0  0  0  0
   55.6690   23.0760   42.9970 C   0  0  0  0  0  0  0  0  0  0  0  0
   56.1748   23.9649   42.5919 H   0  0  0  0  0  0  0  0  0  0  0  0
   54.8456   22.7588   42.3402 H   0  0  0  0  0  0  0  0  0  0  0  0
   56.6820   21.9240   43.0880 C   0  0  0  0  0  0  0  0  0  0  0  0
   57.0806   21.7335   42.0806 H   0  0  0  0  0  0  0  0  0  0  0  0
   56.1432   21.0585   43.5012 H   0  0  0  0  0  0  0  0  0  0  0  0
   57.8670   22.2040   44.0330 C   0  0  0  0  0  0  0  0  0  0  0  0
   57.9260   23.2907   44.1932 H   0  0  0  0  0  0  0  0  0  0  0  0
   58.7574   21.7854   43.5411 H   0  0  0  0  0  0  0  0  0  0  0  0
   57.7770   21.5220   45.4120 C   0  0  0  0  0  0  0  0  0  0  0  0
   58.7687   21.1134   45.6560 H   0  0  0  0  0  0  0  0  0  0  0  0
   56.9969   20.7515   45.3236 H   0  0  0  0  0  0  0  0  0  0  0  0
   57.3430   22.4430   46.5660 C   0  0  0  0  0  0  0  0  0  0  0  0
   57.1443   23.4457   46.1596 H   0  0  0  0  0  0  0  0  0  0  0  0
   58.1587   22.4556   47.3039 H   0  0  0  0  0  0  0  0  0  0  0  0
   56.0790   21.9450   47.2830 C   0  0  0  0  0  0  0  0  0  0  0  0
   56.3398   21.0819   47.9131 H   0  0  0  0  0  0  0  0  0  0  0  0
   55.3363   21.6588   46.5237 H   0  0  0  0  0  0  0  0  0  0  0  0
   55.4780   23.0400   48.1610 C   0  0  0  0  0  0  0  0  0  0  0  0
   55.6206   22.7801   49.2203 H   0  0  0  0  0  0  0  0  0  0  0  0
   55.9775   23.9965   47.9476 H   0  0  0  0  0  0  0  0  0  0  0  0
   54.4028   23.1322   47.9476 H   0  0  0  0  0  0  0  0  0  0  0  0
   56.5920   24.9760   45.0820 O   0  0  0  0  0  0  0  0  0  0  0  0
   58.5620   26.5000   47.0800 C   0  0  0  0  0  0  0  0  0  0  0  0
   58.5323   25.4711   47.4679 H   0  0  0  0  0  0  0  0  0  0  0  0
   59.6060   27.3530   47.4520 C   0  0  0  0  0  0  0  0  0  0  0  0
   60.3992   26.9884   48.1213 H   0  0  0  0  0  0  0  0  0  0  0  0
   61.6610   32.8510   46.8340 C   0  0  0  0  0  0  0  0  0  0  0  0
   60.8221   32.8859   46.1233 H   0  0  0  0  0  0  0  0  0  0  0  0
  1  2  1  0
  2  3  2  0
  3  4  1  0
  3  5  1  0
  5  6  1  0
  5  7  2  0
  7  8  1  0
  7  9  1  0
  9 10  1  0
 10 11  2  0
 10 12  1  0
 12 13  1  0
 13 14  2  0
 14 15  1  0
 14 16  1  0
 16 17  1  0
 16 18  2  0
 18 19  1  0
 19 20  2  0
 20 21  1  0
 21 22  1  0
 22 23  2  0
 23 24  1  0
 24 25  1  0
 24 26  1  0
 24 27  1  0
 27 28  1  0
 27 29  1  0
 27 30  1  0
 30 31  1  0
 30 32  1  0
 30 33  1  0
 33 34  1  0
 33 35  1  0
 33 36  1  0
 36 37  1  0
 36 38  1  0
 36 39  1  0
 39 40  1  0
 39 41  1  0
 39 42  1  0
 42 43  1  0
 42 44  1  0
 42 45  1  0
 22 46  1  0
 18 47  1  0
 47 48  1  0
 47 49  2  0
 49 50  1  0
  9 51  2  0
 51 52  1  0
 51  2  1  0
 49 13  1  0
 46 19  1  0
M  CHG  2  12  -1  21  -1
M  END
>  <UniqueID>  (8) 
7

>  <SMILES>  (8) 
CCCCCCC/N=c1\[n-]nc(-c2ccc([N-]C(=O)c3cccc(Cl)c3F)cc2)o1

>  <Energy>  (8) 
85.37486404031566

>  <Genealogy>  (8) 
CCCCCCCN=c1[n-]nc(-c2ccc([N-]C(=O)c3cccc(Cl)c3F)cc2)o1 (protonated)
CCCCCCC/N=c1\[n-]nc(-c2ccc([N-]C(=O)c3cccc(Cl)c3F)cc2)o1 (cis-trans isomerization)
CCCCCCC/N=c1\[n-]nc(-c2ccc([N-]C(=O)c3cccc(Cl)c3F)cc2)o1 (3D coordinates assigned)
CCCCCCC/N=c1\[n-]nc(-c2ccc([N-]C(=O)c3cccc(Cl)c3F)cc2)o1 (optimized conformer: 85.37486404031566 kcal/mol)

>  <smiles>  (8) 
CCCCCCCN=c1[nH]nc(-c2ccc(NC(=O)c3cccc(Cl)c3F)cc2)o1

>  <score_type>  (8) 
oracle

>  <origin>  (8) 
adg

>  <m_score__min__energy>  (8) 
-11.18

>  <m_primary>  (8) 
energy

$$$$
8:0
     RDKit          3D

 27 28  0  0  0  0  0  0  0  0999 V2000
   55.4310   28.9630   44.8710 O   0  0  0  0  0  0  0  0  0  0  0  0
   56.5740   29.4710   44.7200 C   0  0  0  0  0  0  0  0  0  0  0  0
   56.7170   30.8760   44.4750 N   0  0  0  0  0  0  0  0  0  0  0  0
   57.5160   31.7970   45.2350 C   0  0  0  0  0  0  0  0  0  0  0  0
   57.4000   33.1900   45.0810 C   0  0  0  0  0  0  0  0  0  0  0  0
   58.1800   34.0510   45.8590 C   0  0  0  0  0  0  0  0  0  0  0  0
   59.0710   33.5320   46.8040 C   0  0  0  0  0  0  0  0  0  0  0  0
   60.0470   34.6130   47.7790 Cl  0  0  0  0  0  0  0  0  0  0  0  0
   59.1720   32.1480   46.9770 C   0  0  0  0  0  0  0  0  0  0  0  0
   58.3910   31.2850   46.2010 C   0  0  0  0  0  0  0  0  0  0  0  0
   57.7400   28.6380   44.7020 N   0  0  0  0  0  0  0  0  0  0  0  0
   57.7250   27.2460   45.0580 C   0  0  0  0  0  0  0  0  0  0  0  0
   57.7610   26.2720   44.0450 C   0  0  0  0  0  0  0  0  0  0  0  0
   57.7760   26.6450   42.7400 F   0  0  0  0  0  0  0  0  0  0  0  0
   57.7610   24.9130   44.3730 C   0  0  0  0  0  0  0  0  0  0  0  0
   57.7810   23.9790   43.3890 F   0  0  0  0  0  0  0  0  0  0  0  0
   57.7410   24.5140   45.7130 C   0  0  0  0  0  0  0  0  0  0  0  0
   57.7440   23.1960   46.0280 F   0  0  0  0  0  0  0  0  0  0  0  0
   57.7320   25.4750   46.7280 C   0  0  0  0  0  0  0  0  0  0  0  0
   57.7370   25.0870   48.0280 F   0  0  0  0  0  0  0  0  0  0  0  0
   57.7310   26.8370   46.4070 C   0  0  0  0  0  0  0  0  0  0  0  0
   57.7840   27.7530   47.4070 F   0  0  0  0  0  0  0  0  0  0  0  0
   56.6935   33.6035   44.3463 H   0  0  0  0  0  0  0  0  0  0  0  0
   58.0927   35.1396   45.7275 H   0  0  0  0  0  0  0  0  0  0  0  0
   59.8667   31.7373   47.7245 H   0  0  0  0  0  0  0  0  0  0  0  0
   58.4646   30.1977   46.3505 H   0  0  0  0  0  0  0  0  0  0  0  0
   58.6170   29.0400   44.2990 H   0  0  0  0  0  0  0  0  0  0  0  0
  1  2  2  0
  2  3  1  0
  3  4  1  0
  4  5  2  0
  5  6  1  0
  6  7  2  0
  7  8  1  0
  7  9  1  0
  9 10  2  0
  2 11  1  0
 11 12  1  0
 12 13  2  0
 13 14  1  0
 13 15  1  0
 15 16  1  0
 15 17  2  0
 17 18  1  0
 17 19  1  0
 19 20  1  0
 19 21  2  0
 21 22  1  0
 10  4  1  0
 21 12  1  0
  5 23  1  0
  6 24  1  0
  9 25  1  0
 10 26  1  0
 11 27  1  0
M  CHG  1   3  -1
M  END
>  <UniqueID>  (9) 
8

>  <SMILES>  (9) 
O=C([N-]c1ccc(Cl)cc1)Nc1c(F)c(F)c(F)c(F)c1F

>  <Energy>  (9) 
36.33353610493908

>  <Genealogy>  (9) 
O=C([N-]c1ccc(Cl)cc1)Nc1c(F)c(F)c(F)c(F)c1F (protonated)
O=C([N-]c1ccc(Cl)cc1)Nc1c(F)c(F)c(F)c(F)c1F (3D coordinates assigned)
O=C([N-]c1ccc(Cl)cc1)Nc1c(F)c(F)c(F)c(F)c1F (optimized conformer: 36.33353610493908 kcal/mol)

>  <smiles>  (9) 
O=C(Nc1ccc(Cl)cc1)Nc1c(F)c(F)c(F)c(F)c1F

>  <score_type>  (9) 
oracle

>  <origin>  (9) 
adg

>  <m_score__min__energy>  (9) 
-8.1099999999999994

>  <m_primary>  (9) 
energy

$$$$
9:0
     RDKit          3D

 48 50  0  0  0  0  0  0  0  0999 V2000
   58.4970   22.7280   44.5550 C   0  0  0  0  0  0  0  0  0  0  0  0
   57.0170   22.8750   44.4100 C   0  0  0  0  0  0  0  0  0  0  0  0
   56.3140   22.3530   43.3850 N   0  0  0  0  0  0  0  0  0  0  0  0
   55.0810   22.7460   43.5270 O   0  0  0  0  0  0  0  0  0  0  0  0
   54.9450   23.5110   44.5860 C   0  0  0  0  0  0  0  0  0  0  0  0
   53.6580   24.1380   45.0110 C   0  0  0  0  0  0  0  0  0  0  0  0
   56.1730   23.6280   45.2070 C   0  0  0  0  0  0  0  0  0  0  0  0
   56.5250   24.4740   46.3970 C   0  0  0  0  0  0  0  0  0  0  0  0
   56.5160   25.9250   46.0240 C   0  0  0  0  0  0  0  0  0  0  0  0
   55.4170   26.5440   45.9960 O   0  0  0  0  0  0  0  0  0  0  0  0
   57.7340   26.5760   45.6320 N   0  0  0  0  0  0  0  0  0  0  0  0
   57.8350   27.9780   45.3270 C   0  0  0  0  0  0  0  0  0  0  0  0
   56.9100   28.6130   44.4810 C   0  0  0  0  0  0  0  0  0  0  0  0
   57.0210   29.9800   44.2130 C   0  0  0  0  0  0  0  0  0  0  0  0
   58.0560   30.7370   44.7860 C   0  0  0  0  0  0  0  0  0  0  0  0
   58.1870   32.1850   44.4980 C   0  0  0  0  0  0  0  0  0  0  0  0
   58.2710   32.5650   43.2970 O   0  0  0  0  0  0  0  0  0  0  0  0
   58.2180   33.1660   45.5570 N   0  0  0  0  0  0  0  0  0  0  0  0
   56.9780   33.8600   45.9160 C   0  0  0  0  0  0  0  0  0  0  0  0
   59.3510   33.2490   46.4430 C   0  0  0  0  0  0  0  0  0  0  0  0
   60.5820   33.7410   45.9740 C   0  0  0  0  0  0  0  0  0  0  0  0
   61.6780   33.8350   46.8360 C   0  0  0  0  0  0  0  0  0  0  0  0
   61.5560   33.4410   48.1700 C   0  0  0  0  0  0  0  0  0  0  0  0
   60.3360   32.9550   48.6470 C   0  0  0  0  0  0  0  0  0  0  0  0
   59.2340   32.8600   47.7900 C   0  0  0  0  0  0  0  0  0  0  0  0
   58.0470   32.4250   48.2810 F   0  0  0  0  0  0  0  0  0  0  0  0
   58.9540   30.1090   45.6640 C   0  0  0  0  0  0  0  0  0  0  0  0
   58.8420   28.7430   45.9340 C   0  0  0  0  0  0  0  0  0  0  0  0
   58.7600   22.7019   45.6228 H   0  0  0  0  0  0  0  0  0  0  0  0
   58.8215   21.7932   44.0745 H   0  0  0  0  0  0  0  0  0  0  0  0
   58.9990   23.5807   44.0745 H   0  0  0  0  0  0  0  0  0  0  0  0
   53.6073   24.1627   46.1096 H   0  0  0  0  0  0  0  0  0  0  0  0
   53.6027   25.1640   44.6183 H   0  0  0  0  0  0  0  0  0  0  0  0
   52.8160   23.5492   44.6183 H   0  0  0  0  0  0  0  0  0  0  0  0
   55.7895   24.3002   47.1962 H   0  0  0  0  0  0  0  0  0  0  0  0
   57.5318   24.2003   46.7456 H   0  0  0  0  0  0  0  0  0  0  0  0
   58.5750   25.9800   45.4640 H   0  0  0  0  0  0  0  0  0  0  0  0
   56.0943   28.0310   44.0273 H   0  0  0  0  0  0  0  0  0  0  0  0
   56.2922   30.4668   43.5482 H   0  0  0  0  0  0  0  0  0  0  0  0
   56.8895   33.9096   47.0113 H   0  0  0  0  0  0  0  0  0  0  0  0
   56.9956   34.8794   45.5031 H   0  0  0  0  0  0  0  0  0  0  0  0
   56.1183   33.3119   45.5031 H   0  0  0  0  0  0  0  0  0  0  0  0
   60.6827   34.0532   44.9241 H   0  0  0  0  0  0  0  0  0  0  0  0
   62.6385   34.2201   46.4629 H   0  0  0  0  0  0  0  0  0  0  0  0
   62.4209   33.5133   48.8458 H   0  0  0  0  0  0  0  0  0  0  0  0
   60.2416   32.6464   49.6986 H   0  0  0  0  0  0  0  0  0  0  0  0
   59.7512   30.6968   46.1425 H   0  0  0  0  0  0  0  0  0  0  0  0
   59.5486   28.2638   46.6276 H   0  0  0  0  0  0  0  0  0  0  0  0
  1  2  1  0
  2  3  2  0
  3  4  1  0
  4  5  1  0
  5  6  1  0
  5  7  2  0
  7  8  1  0
  8  9  1  0
  9 10  2  0
  9 11  1  0
 11 12  1  0
 12 13  2  0
 13 14  1  0
 14 15  2  0
 15 16  1  0
 16 17  2  0
 16 18  1  0
 18 19  1  0
 18 20  1  0
 20 21  2  0
 21 22  1  0
 22 23  2  0
 23 24  1  0
 24 25  2  0
 25 26  1  0
 15 27  1  0
 27 28  2  0
  7  2  1  0
 28 12  1  0
 25 20  1  0
  1 29  1  0
  1 30  1  0
  1 31  1  0
  6 32  1  0
  6 33  1  0
  6 34  1  0
  8 35  1  0
  8 36  1  0
 11 37  1  0
 13 38  1  0
 14 39  1  0
 19 40  1  0
 19 41  1  0
 19 42  1  0
 21 43  1  0
 22 44  1  0
 23 45  1  0
 24 46  1  0
 27 47  1  0
 28 48  1  0
M  END
>  <UniqueID>  (10) 
9

>  <SMILES>  (10) 
Cc1noc(C)c1CC(=O)Nc1ccc(C(=O)N(C)c2ccccc2F)cc1

>  <Energy>  (10) 
88.06990026166078

>  <Genealogy>  (10) 
Cc1noc(C)c1CC(=O)Nc1ccc(C(=O)N(C)c2ccccc2F)cc1 (3D coordinates assigned)
Cc1noc(C)c1CC(=O)Nc1ccc(C(=O)N(C)c2ccccc2F)cc1 (optimized conformer: 88.06990026166078 kcal/mol)

>  <smiles>  (10) 
Cc1noc(C)c1CC(=O)Nc1ccc(C(=O)N(C)c2ccccc2F)cc1

>  <score_type>  (10) 
oracle

>  <origin>  (10) 
adg

>  <m_score__min__energy>  (10) 
-8.7300000000000004

>  <m_primary>  (10) 
energy

$$$$
10:0
     RDKit          3D

 44 44  0  0  0  0  0  0  0  0999 V2000
   59.5877   35.8934   46.8022 H   0  0  0  0  0  0  0  0  0  0  0  0
   59.8750   34.8530   46.5900 C   0  0  0  0  0  0  0  0  0  0  0  0
   60.6180   34.2050   47.4970 C   0  0  0  0  0  0  0  0  0  0  0  0
   60.3896   34.3719   48.5600 H   0  0  0  0  0  0  0  0  0  0  0  0
   61.4600   31.9620   47.1270 C   0  0  0  0  0  0  0  0  0  0  0  0
   58.9870   28.6070   44.1780 C   0  0  0  0  0  0  0  0  0  0  0  0
   59.4448   28.4990   43.1836 H   0  0  0  0  0  0  0  0  0  0  0  0
   60.3420   31.2810   47.8780 C   0  0  0  0  0  0  0  0  0  0  0  0
   60.6877   31.0577   48.8981 H   0  0  0  0  0  0  0  0  0  0  0  0
   59.4794   31.9636   47.8821 H   0  0  0  0  0  0  0  0  0  0  0  0
   59.9010   29.9880   47.2210 C   0  0  0  0  0  0  0  0  0  0  0  0
   60.3590   29.5830   46.0190 C   0  0  0  0  0  0  0  0  0  0  0  0
   61.2130   30.1243   45.5858 H   0  0  0  0  0  0  0  0  0  0  0  0
   61.7250   33.2800   47.1670 C   0  0  0  0  0  0  0  0  0  0  0  0
   62.1075   31.3324   46.4990 H   0  0  0  0  0  0  0  0  0  0  0  0
   58.3420   33.4470   45.2140 C   0  0  0  0  0  0  0  0  0  0  0  0
   60.0369   27.4337   45.5606 H   0  0  0  0  0  0  0  0  0  0  0  0
   57.5420   28.9050   44.2290 C   0  0  0  0  0  0  0  0  0  0  0  0
   56.6430   28.6050   45.2360 C   0  0  0  0  0  0  0  0  0  0  0  0
   56.8686   28.0129   46.1352 H   0  0  0  0  0  0  0  0  0  0  0  0
   55.4780   29.1380   44.9500 O   0  0  0  0  0  0  0  0  0  0  0  0
   55.5740   29.7900   43.8140 C   0  0  0  0  0  0  0  0  0  0  0  0
   54.7522   30.3343   43.3259 H   0  0  0  0  0  0  0  0  0  0  0  0
   56.8590   29.6900   43.3250 C   0  0  0  0  0  0  0  0  0  0  0  0
   57.2567   30.1426   42.4047 H   0  0  0  0  0  0  0  0  0  0  0  0
   58.8340   29.1570   47.8830 C   0  0  0  0  0  0  0  0  0  0  0  0
   58.9339   29.2348   48.9757 H   0  0  0  0  0  0  0  0  0  0  0  0
   57.8424   29.5232   47.5785 H   0  0  0  0  0  0  0  0  0  0  0  0
   58.9462   28.1060   47.5785 H   0  0  0  0  0  0  0  0  0  0  0  0
   63.0620   33.8440   46.7620 C   0  0  0  0  0  0  0  0  0  0  0  0
   63.6443   34.0896   47.6623 H   0  0  0  0  0  0  0  0  0  0  0  0
   63.6081   33.0996   46.1640 H   0  0  0  0  0  0  0  0  0  0  0  0
   62.9099   34.7546   46.1640 H   0  0  0  0  0  0  0  0  0  0  0  0
   59.4180   34.2470   45.3160 C   0  0  0  0  0  0  0  0  0  0  0  0
   59.9916   34.4642   44.4029 H   0  0  0  0  0  0  0  0  0  0  0  0
   59.7880   28.4570   45.2430 C   0  0  0  0  0  0  0  0  0  0  0  0
   58.1010   32.7280   43.9130 C   0  0  0  0  0  0  0  0  0  0  0  0
   57.7576   31.7034   44.1185 H   0  0  0  0  0  0  0  0  0  0  0  0
   57.3331   33.2631   43.3351 H   0  0  0  0  0  0  0  0  0  0  0  0
   59.0363   32.6923   43.3351 H   0  0  0  0  0  0  0  0  0  0  0  0
   57.3850   33.2440   46.3600 C   0  0  0  0  0  0  0  0  0  0  0  0
   57.9237   33.3583   47.3122 H   0  0  0  0  0  0  0  0  0  0  0  0
   56.5799   33.9914   46.3022 H   0  0  0  0  0  0  0  0  0  0  0  0
   56.9527   32.2342   46.3022 H   0  0  0  0  0  0  0  0  0  0  0  0
  1  2  1  0
  2  3  2  3
  3  4  1  0
  3  5  1  0
  5  6  2  3
  6  7  1  0
  6  8  1  0
  8  9  1  0
  8 10  1  0
  8 11  1  0
 11 12  2  0
 12 13  1  0
 12 14  1  0
 14 15  1  0
 14 16  2  3
 16 17  1  0
 16 18  1  0
 18 19  2  0
 19 20  1  0
 19 21  1  0
 21 22  1  0
 22 23  1  0
 22 24  2  0
 24 25  1  0
 11 26  1  0
 26 27  1  0
 26 28  1  0
 26 29  1  0
  5 30  1  0
 30 31  1  0
 30 32  1  0
 30 33  1  0
  2 34  1  0
 34 35  1  0
 34 36  2  3
 36 37  1  0
 37 38  1  0
 37 39  1  0
 37 40  1  0
 36 41  1  0
 41 42  1  0
 41 43  1  0
 41 44  1  0
 24 18  1  0
M  END
>  <UniqueID>  (11) 
10

>  <SMILES>  (11) 
CC(C)=CC=CC(C)=CC/C(C)=C\C=Cc1ccoc1

>  <Energy>  (11) 
71.64327483646854

>  <Genealogy>  (11) 
CC(C)=CC=CC(C)=CC/C(C)=C\C=Cc1ccoc1 (cis-trans isomerization)
CC(C)=CC=CC(C)=CC/C(C)=C\C=Cc1ccoc1 (3D coordinates assigned)
CC(C)=CC=CC(C)=CC/C(C)=C\C=Cc1ccoc1 (optimized conformer: 71.64327483646854 kcal/mol)

>  <smiles>  (11) 
CC(C)=CC=CC(C)=CCC(C)=CC=Cc1ccoc1

>  <score_type>  (11) 
oracle

>  <origin>  (11) 
adg

>  <m_score__min__energy>  (11) 
-7.29

>  <m_primary>  (11) 
energy

$$$$
11:0
     RDKit          3D

 29 31  0  0  0  0  0  0  0  0999 V2000
   58.9401   35.7248   45.0570 H   0  0  0  0  0  0  0  0  0  0  0  0
   58.9210   34.6510   45.2950 C   0  0  0  0  0  0  0  0  0  0  0  0
   59.9770   34.0780   46.0400 C   0  0  0  0  0  0  0  0  0  0  0  0
   60.8119   34.7090   46.3789 H   0  0  0  0  0  0  0  0  0  0  0  0
   59.9670   32.7050   46.3510 C   0  0  0  0  0  0  0  0  0  0  0  0
   60.7827   32.2462   46.9291 H   0  0  0  0  0  0  0  0  0  0  0  0
   58.8880   31.9480   45.9010 C   0  0  0  0  0  0  0  0  0  0  0  0
   58.6020   30.6100   46.0460 C   0  0  0  0  0  0  0  0  0  0  0  0
   59.1977   29.8450   46.5656 H   0  0  0  0  0  0  0  0  0  0  0  0
   57.3860   30.4440   45.3850 C   0  0  0  0  0  0  0  0  0  0  0  0
   56.6610   29.1680   45.2430 C   0  0  0  0  0  0  0  0  0  0  0  0
   55.5100   29.1700   44.7320 O   0  0  0  0  0  0  0  0  0  0  0  0
   57.1920   27.9320   45.7390 N   0  0  0  0  0  0  0  0  0  0  0  0
   56.6380   26.7620   45.6190 C   0  0  0  0  0  0  0  0  0  0  0  0
   55.4790   26.4010   46.2140 N   0  0  0  0  0  0  0  0  0  0  0  0
   55.1440   25.1360   45.9740 N   0  0  0  0  0  0  0  0  0  0  0  0
   56.0330   24.4880   45.1860 C   0  0  0  0  0  0  0  0  0  0  0  0
   55.9160   23.0430   44.8230 C   0  0  0  0  0  0  0  0  0  0  0  0
   54.8795   22.7123   44.9854 H   0  0  0  0  0  0  0  0  0  0  0  0
   56.6043   22.4620   45.4544 H   0  0  0  0  0  0  0  0  0  0  0  0
   56.2880   22.8250   43.3610 C   0  0  0  0  0  0  0  0  0  0  0  0
   57.2357   22.2696   43.3027 H   0  0  0  0  0  0  0  0  0  0  0  0
   55.4943   22.2491   42.8626 H   0  0  0  0  0  0  0  0  0  0  0  0
   56.4025   23.7989   42.8626 H   0  0  0  0  0  0  0  0  0  0  0  0
   57.3270   25.4880   44.7670 S   0  0  0  0  0  0  0  0  0  0  0  0
   56.9730   31.5910   44.8740 O   0  0  0  0  0  0  0  0  0  0  0  0
   57.8640   32.5020   45.1810 C   0  0  0  0  0  0  0  0  0  0  0  0
   57.8460   33.8570   44.8560 C   0  0  0  0  0  0  0  0  0  0  0  0
   57.0187   34.2912   44.2755 H   0  0  0  0  0  0  0  0  0  0  0  0
  1  2  1  0
  2  3  2  0
  3  4  1  0
  3  5  1  0
  5  6  1  0
  5  7  2  0
  7  8  1  0
  8  9  1  0
  8 10  2  0
 10 11  1  0
 11 12  2  0
 11 13  1  0
 13 14  2  0
 14 15  1  0
 15 16  1  0
 16 17  2  0
 17 18  1  0
 18 19  1  0
 18 20  1  0
 18 21  1  0
 21 22  1  0
 21 23  1  0
 21 24  1  0
 17 25  1  0
 10 26  1  0
 26 27  1  0
 27 28  2  0
 28 29  1  0
 28  2  1  0
 27  7  1  0
 25 14  1  0
M  CHG  1  15  -1
M  END
>  <UniqueID>  (12) 
11

>  <SMILES>  (12) 
CCc1n[n-]/c(=N\C(=O)c2cc3ccccc3o2)s1

>  <Energy>  (12) 
99.97273298101925

>  <Genealogy>  (12) 
CCc1n[n-]c(=NC(=O)c2cc3ccccc3o2)s1 (protonated)
CCc1n[n-]/c(=N\C(=O)c2cc3ccccc3o2)s1 (cis-trans isomerization)
CCc1n[n-]/c(=N\C(=O)c2cc3ccccc3o2)s1 (3D coordinates assigned)
CCc1n[n-]/c(=N\C(=O)c2cc3ccccc3o2)s1 (optimized conformer: 99.97273298101925 kcal/mol)

>  <smiles>  (12) 
CCc1n[nH]c(=NC(=O)c2cc3ccccc3o2)s1

>  <score_type>  (12) 
oracle

>  <origin>  (12) 
adg

>  <m_score__min__energy>  (12) 
-9.7899999999999991

>  <m_primary>  (12) 
energy

$$$$
12:0
     RDKit          3D

 30 31  0  0  0  0  0  0  0  0999 V2000
   55.4337   28.4504   44.7971 H   0  0  0  0  0  0  0  0  0  0  0  0
   55.9850   29.3340   44.4430 C   0  0  0  0  0  0  0  0  0  0  0  0
   56.5850   30.2450   45.2450 N   0  0  0  0  0  0  0  0  0  0  0  0
   57.1340   31.1490   44.4510 N   0  0  0  0  0  0  0  0  0  0  0  0
   57.8440   32.2450   44.8280 C   0  0  0  0  0  0  0  0  0  0  0  0
   58.0340   32.4880   46.0960 N   0  0  0  0  0  0  0  0  0  0  0  0
   59.2990   32.4370   46.8320 C   0  0  0  0  0  0  0  0  0  0  0  0
   59.0941   32.5827   47.9029 H   0  0  0  0  0  0  0  0  0  0  0  0
   59.9532   33.2312   46.4431 H   0  0  0  0  0  0  0  0  0  0  0  0
   60.0210   31.0820   46.6400 C   0  0  0  0  0  0  0  0  0  0  0  0
   60.5473   30.8419   47.5756 H   0  0  0  0  0  0  0  0  0  0  0  0
   60.6916   31.2144   45.7782 H   0  0  0  0  0  0  0  0  0  0  0  0
   59.1400   29.9350   46.3020 N   0  0  0  0  0  0  0  0  0  0  0  0
   58.2220   30.3470   46.0090 H   0  0  0  0  0  0  0  0  0  0  0  0
   59.6350   29.1520   45.1550 C   0  0  0  0  0  0  0  0  0  0  0  0
   60.1892   28.2753   45.5214 H   0  0  0  0  0  0  0  0  0  0  0  0
   58.7834   28.8183   44.5439 H   0  0  0  0  0  0  0  0  0  0  0  0
   60.3017   29.7782   44.5439 H   0  0  0  0  0  0  0  0  0  0  0  0
   58.8630   29.0620   47.4560 C   0  0  0  0  0  0  0  0  0  0  0  0
   59.0397   29.6190   48.3879 H   0  0  0  0  0  0  0  0  0  0  0  0
   57.8151   28.7292   47.4208 H   0  0  0  0  0  0  0  0  0  0  0  0
   59.5273   28.1859   47.4208 H   0  0  0  0  0  0  0  0  0  0  0  0
   58.3430   33.0760   43.7950 C   0  0  0  0  0  0  0  0  0  0  0  0
   58.9226   33.9779   44.0411 H   0  0  0  0  0  0  0  0  0  0  0  0
   58.0990   32.7490   42.4890 N   0  0  0  0  0  0  0  0  0  0  0  0
   57.3860   31.6400   42.1450 C   0  0  0  0  0  0  0  0  0  0  0  0
   57.1997   31.3895   41.0902 H   0  0  0  0  0  0  0  0  0  0  0  0
   56.9020   30.8360   43.1690 C   0  0  0  0  0  0  0  0  0  0  0  0
   56.1660   29.6760   43.1070 C   0  0  0  0  0  0  0  0  0  0  0  0
   55.8061   29.1450   42.2134 H   0  0  0  0  0  0  0  0  0  0  0  0
  1  2  1  0
  2  3  1  0
  3  4  1  0
  4  5  1  0
  5  6  2  0
  6  7  1  0
  7  8  1  0
  7  9  1  0
  7 10  1  0
 10 11  1  0
 10 12  1  0
 10 13  1  0
 13 14  1  0
 13 15  1  0
 15 16  1  0
 15 17  1  0
 15 18  1  0
 13 19  1  0
 19 20  1  0
 19 21  1  0
 19 22  1  0
  5 23  1  0
 23 24  1  0
 23 25  2  0
 25 26  1  0
 26 27  1  0
 26 28  2  0
 28 29  1  0
 29 30  1  0
 29  2  2  0
 28  4  1  0
M  CHG  2   3  -1  13   1
M  END
>  <UniqueID>  (13) 
12

>  <SMILES>  (13) 
C[NH+](C)CC/N=c1\cncc2cc[n-]n12

>  <Energy>  (13) 
71.80934602055001

>  <Genealogy>  (13) 
C[NH+](C)CCN=c1cncc2cc[n-]n12 (protonated)
C[NH+](C)CC/N=c1\cncc2cc[n-]n12 (cis-trans isomerization)
C[NH+](C)CC/N=c1\cncc2cc[n-]n12 (3D coordinates assigned)
C[NH+](C)CC/N=c1\cncc2cc[n-]n12 (optimized conformer: 71.80934602055001 kcal/mol)

>  <smiles>  (13) 
CN(C)CCN=c1cncc2cc[nH]n12

>  <score_type>  (13) 
oracle

>  <origin>  (13) 
adg

>  <m_score__min__energy>  (13) 
-4.0800000000000001

>  <m_primary>  (13) 
energy

$$$$
13:0
     RDKit          3D

 42 45  0  0  0  0  0  0  0  0999 V2000
   59.0001   34.9629   46.2819 H   0  0  0  0  0  0  0  0  0  0  0  0
   59.4040   33.9450   46.3850 C   0  0  0  0  0  0  0  0  0  0  0  0
   60.6660   33.7820   47.1370 C   0  0  0  0  0  0  0  0  0  0  0  0
   60.6660   33.6370   48.5350 C   0  0  0  0  0  0  0  0  0  0  0  0
   59.7173   33.6795   49.0901 H   0  0  0  0  0  0  0  0  0  0  0  0
   61.8670   33.4390   49.2230 C   0  0  0  0  0  0  0  0  0  0  0  0
   61.8628   33.3412   50.3186 H   0  0  0  0  0  0  0  0  0  0  0  0
   63.0750   33.3650   48.5190 C   0  0  0  0  0  0  0  0  0  0  0  0
   64.6140   33.1080   49.4020 S   0  0  0  0  0  0  0  0  0  0  0  0
   63.9910   33.8430   50.9460 C   0  0  0  0  0  0  0  0  0  0  0  0
   64.4344   33.3199   51.8061 H   0  0  0  0  0  0  0  0  0  0  0  0
   64.2662   34.9074   50.9825 H   0  0  0  0  0  0  0  0  0  0  0  0
   62.8959   33.7459   50.9825 H   0  0  0  0  0  0  0  0  0  0  0  0
   63.0760   33.4720   47.1240 C   0  0  0  0  0  0  0  0  0  0  0  0
   64.0225   33.3995   46.5683 H   0  0  0  0  0  0  0  0  0  0  0  0
   61.8750   33.6710   46.4350 C   0  0  0  0  0  0  0  0  0  0  0  0
   61.8789   33.7408   45.3372 H   0  0  0  0  0  0  0  0  0  0  0  0
   58.7090   32.9340   45.8140 C   0  0  0  0  0  0  0  0  0  0  0  0
   57.3470   33.1150   45.4440 C   0  0  0  0  0  0  0  0  0  0  0  0
   56.7600   34.2160   45.6280 O   0  0  0  0  0  0  0  0  0  0  0  0
   56.6560   32.0920   44.8740 N   0  0  0  0  0  0  0  0  0  0  0  0
   57.2790   30.9110   44.6720 C   0  0  0  0  0  0  0  0  0  0  0  0
   56.6030   29.5280   44.0060 S   0  0  0  0  0  0  0  0  0  0  0  0
   58.0360   28.6340   44.1690 C   0  0  0  0  0  0  0  0  0  0  0  0
   58.1420   27.3470   43.8000 C   0  0  0  0  0  0  0  0  0  0  0  0
   58.5982   27.1336   42.8220 H   0  0  0  0  0  0  0  0  0  0  0  0
   57.6920   26.1980   44.6090 C   0  0  0  0  0  0  0  0  0  0  0  0
   57.6450   26.2730   46.0130 C   0  0  0  0  0  0  0  0  0  0  0  0
   57.9080   27.2126   46.5209 H   0  0  0  0  0  0  0  0  0  0  0  0
   57.2650   25.1570   46.7650 C   0  0  0  0  0  0  0  0  0  0  0  0
   57.2124   25.2254   47.8616 H   0  0  0  0  0  0  0  0  0  0  0  0
   56.9520   23.9550   46.1250 C   0  0  0  0  0  0  0  0  0  0  0  0
   56.6481   23.0794   46.7175 H   0  0  0  0  0  0  0  0  0  0  0  0
   57.0250   23.8650   44.7320 C   0  0  0  0  0  0  0  0  0  0  0  0
   56.7833   22.9168   44.2295 H   0  0  0  0  0  0  0  0  0  0  0  0
   57.4050   24.9790   43.9760 C   0  0  0  0  0  0  0  0  0  0  0  0
   57.4791   24.8991   42.8814 H   0  0  0  0  0  0  0  0  0  0  0  0
   59.0010   29.4630   44.7720 C   0  0  0  0  0  0  0  0  0  0  0  0
   60.1610   29.0820   45.0880 O   0  0  0  0  0  0  0  0  0  0  0  0
   58.5620   30.7260   45.0310 N   0  0  0  0  0  0  0  0  0  0  0  0
   59.2760   31.7010   45.6020 N   0  0  0  0  0  0  0  0  0  0  0  0
   60.2520   31.4930   45.9100 H   0  0  0  0  0  0  0  0  0  0  0  0
  1  2  1  0
  2  3  1  0
  3  4  2  0
  4  5  1  0
  4  6  1  0
  6  7  1  0
  6  8  2  0
  8  9  1  0
  9 10  1  0
 10 11  1  0
 10 12  1  0
 10 13  1  0
  8 14  1  0
 14 15  1  0
 14 16  2  0
 16 17  1  0
  2 18  2  3
 18 19  1  0
 19 20  2  0
 19 21  1  0
 21 22  2  0
 22 23  1  0
 23 24  1  0
 24 25  2  0
 25 26  1  0
 25 27  1  0
 27 28  2  0
 28 29  1  0
 28 30  1  0
 30 31  1  0
 30 32  2  0
 32 33  1  0
 32 34  1  0
 34 35  1  0
 34 36  2  0
 36 37  1  0
 24 38  1  0
 38 39  2  0
 38 40  1  0
 40 41  1  0
 41 42  1  0
 16  3  1  0
 41 18  1  0
 40 22  1  0
 36 27  1  0
M  END
>  <UniqueID>  (14) 
13

>  <SMILES>  (14) 
CSc1ccc(C=c2[nH]n3c(=O)/c(=C\c4ccccc4)sc3nc2=O)cc1

>  <Energy>  (14) 
97.8592061194562

>  <Genealogy>  (14) 
CSc1ccc(C=c2[nH]n3c(=O)/c(=C\c4ccccc4)sc3nc2=O)cc1 (cis-trans isomerization)
CSc1ccc(C=c2[nH]n3c(=O)/c(=C\c4ccccc4)sc3nc2=O)cc1 (3D coordinates assigned)
CSc1ccc(C=c2[nH]n3c(=O)/c(=C\c4ccccc4)sc3nc2=O)cc1 (optimized conformer: 97.8592061194562 kcal/mol)

>  <smiles>  (14) 
CSc1ccc(C=c2[nH]n3c(=O)c(=Cc4ccccc4)sc3nc2=O)cc1

>  <score_type>  (14) 
oracle

>  <origin>  (14) 
adg

>  <m_score__min__energy>  (14) 
-8.6999999999999993

>  <m_primary>  (14) 
energy

$$$$
14:0
     RDKit          3D

 24 25  0  0  0  0  0  0  0  0999 V2000
   55.8940   30.0650   43.5070 C   0  0  0  0  0  0  0  0  0  0  0  0
   57.2030   29.4020   43.8460 C   0  0  0  0  0  0  0  0  0  0  0  0
   57.4010   28.1020   43.4840 N   0  0  0  0  0  0  0  0  0  0  0  0
   58.5750   27.4690   43.7430 C   0  0  0  0  0  0  0  0  0  0  0  0
   59.5780   28.1240   44.3780 N   0  0  0  0  0  0  0  0  0  0  0  0
   59.4300   29.4120   44.7740 C   0  0  0  0  0  0  0  0  0  0  0  0
   58.2280   30.0910   44.5350 C   0  0  0  0  0  0  0  0  0  0  0  0
   58.0810   31.4880   45.0020 C   0  0  0  0  0  0  0  0  0  0  0  0
   57.9070   32.5280   44.0730 C   0  0  0  0  0  0  0  0  0  0  0  0
   57.7800   33.8490   44.5110 C   0  0  0  0  0  0  0  0  0  0  0  0
   57.8330   34.1450   45.8760 C   0  0  0  0  0  0  0  0  0  0  0  0
   58.0190   33.1180   46.8050 C   0  0  0  0  0  0  0  0  0  0  0  0
   58.1470   31.7940   46.3720 C   0  0  0  0  0  0  0  0  0  0  0  0
   55.3670   30.3319   44.4349 H   0  0  0  0  0  0  0  0  0  0  0  0
   56.0852   30.9749   42.9192 H   0  0  0  0  0  0  0  0  0  0  0  0
   55.2736   29.3724   42.9192 H   0  0  0  0  0  0  0  0  0  0  0  0
   56.6470   27.5720   42.9900 H   0  0  0  0  0  0  0  0  0  0  0  0
   58.7122   26.4215   43.4365 H   0  0  0  0  0  0  0  0  0  0  0  0
   60.2572   29.9263   45.2852 H   0  0  0  0  0  0  0  0  0  0  0  0
   57.8706   32.3015   42.9972 H   0  0  0  0  0  0  0  0  0  0  0  0
   57.6379   34.6581   43.7795 H   0  0  0  0  0  0  0  0  0  0  0  0
   57.7284   35.1851   46.2184 H   0  0  0  0  0  0  0  0  0  0  0  0
   58.0649   33.3511   47.8790 H   0  0  0  0  0  0  0  0  0  0  0  0
   58.2999   30.9895   47.1065 H   0  0  0  0  0  0  0  0  0  0  0  0
  1  2  1  0
  2  3  2  0
  3  4  1  0
  4  5  2  0
  5  6  1  0
  6  7  2  0
  7  8  1  0
  8  9  2  0
  9 10  1  0
 10 11  2  0
 11 12  1  0
 12 13  2  0
  7  2  1  0
 13  8  1  0
  1 14  1  0
  1 15  1  0
  1 16  1  0
  3 17  1  0
  4 18  1  0
  6 19  1  0
  9 20  1  0
 10 21  1  0
 11 22  1  0
 12 23  1  0
 13 24  1  0
M  CHG  1   3   1
M  END
>  <UniqueID>  (15) 
14

>  <SMILES>  (15) 
Cc1[nH+]cncc1-c1ccccc1

>  <Energy>  (15) 
32.18434250577981

>  <Genealogy>  (15) 
Cc1[nH+]cncc1-c1ccccc1 (protonated)
Cc1[nH+]cncc1-c1ccccc1 (3D coordinates assigned)
Cc1[nH+]cncc1-c1ccccc1 (optimized conformer: 32.18434250577981 kcal/mol)

>  <smiles>  (15) 
Cc1ncncc1-c1ccccc1

>  <score_type>  (15) 
oracle

>  <origin>  (15) 
adg

>  <m_score__min__energy>  (15) 
-4.6799999999999997

>  <m_primary>  (15) 
energy

$$$$
15:0
     RDKit          3D

 36 39  0  0  0  0  0  0  0  0999 V2000
   59.2260   34.7725   43.9848 H   0  0  0  0  0  0  0  0  0  0  0  0
   58.8430   33.8810   44.5030 C   0  0  0  0  0  0  0  0  0  0  0  0
   59.2170   33.6300   45.7850 N   0  0  0  0  0  0  0  0  0  0  0  0
   58.7690   32.5450   46.4730 C   0  0  0  0  0  0  0  0  0  0  0  0
   59.1860   32.3710   47.6960 N   0  0  0  0  0  0  0  0  0  0  0  0
   60.4450   31.8170   48.1080 C   0  0  0  0  0  0  0  0  0  0  0  0
   60.4510   30.8170   48.8710 O   0  0  0  0  0  0  0  0  0  0  0  0
   61.7230   32.3350   47.5920 C   0  0  0  0  0  0  0  0  0  0  0  0
   62.8080   31.6100   47.4470 O   0  0  0  0  0  0  0  0  0  0  0  0
   63.7730   32.3340   46.9650 N   0  0  0  0  0  0  0  0  0  0  0  0
   64.7360   31.9860   46.7590 H   0  0  0  0  0  0  0  0  0  0  0  0
   63.3140   33.5830   46.7780 C   0  0  0  0  0  0  0  0  0  0  0  0
   63.8946   34.4285   46.3804 H   0  0  0  0  0  0  0  0  0  0  0  0
   61.9910   33.6260   47.1690 C   0  0  0  0  0  0  0  0  0  0  0  0
   61.3071   34.4873   47.1492 H   0  0  0  0  0  0  0  0  0  0  0  0
   57.9060   31.6340   45.8280 C   0  0  0  0  0  0  0  0  0  0  0  0
   57.5566   30.7354   46.3576 H   0  0  0  0  0  0  0  0  0  0  0  0
   57.4950   31.8780   44.5090 C   0  0  0  0  0  0  0  0  0  0  0  0
   56.5970   30.9000   43.8050 C   0  0  0  0  0  0  0  0  0  0  0  0
   55.5668   31.2855   43.8079 H   0  0  0  0  0  0  0  0  0  0  0  0
   56.9471   30.7719   42.7701 H   0  0  0  0  0  0  0  0  0  0  0  0
   56.6310   29.5740   44.5000 C   0  0  0  0  0  0  0  0  0  0  0  0
   55.5370   28.9440   44.9880 N   0  0  0  0  0  0  0  0  0  0  0  0
   55.9170   27.8310   45.6110 N   0  0  0  0  0  0  0  0  0  0  0  0
   57.2570   27.7650   45.5260 C   0  0  0  0  0  0  0  0  0  0  0  0
   58.0970   26.7840   46.0470 C   0  0  0  0  0  0  0  0  0  0  0  0
   57.6922   25.9212   46.5963 H   0  0  0  0  0  0  0  0  0  0  0  0
   59.4840   26.9350   45.8460 C   0  0  0  0  0  0  0  0  0  0  0  0
   60.3410   26.0050   46.3350 F   0  0  0  0  0  0  0  0  0  0  0  0
   59.9870   28.0520   45.1390 C   0  0  0  0  0  0  0  0  0  0  0  0
   61.0713   28.1602   44.9887 H   0  0  0  0  0  0  0  0  0  0  0  0
   59.1090   29.0270   44.6260 C   0  0  0  0  0  0  0  0  0  0  0  0
   59.4858   29.9018   44.0758 H   0  0  0  0  0  0  0  0  0  0  0  0
   57.7460   28.8410   44.8420 C   0  0  0  0  0  0  0  0  0  0  0  0
   57.9750   33.0120   43.8420 C   0  0  0  0  0  0  0  0  0  0  0  0
   57.6699   33.2158   42.8050 H   0  0  0  0  0  0  0  0  0  0  0  0
  1  2  1  0
  2  3  1  0
  3  4  1  0
  4  5  2  0
  5  6  1  0
  6  7  2  0
  6  8  1  0
  8  9  1  0
  9 10  1  0
 10 11  1  0
 10 12  2  0
 12 13  1  0
 12 14  1  0
 14 15  1  0
  4 16  1  0
 16 17  1  0
 16 18  2  0
 18 19  1  0
 19 20  1  0
 19 21  1  0
 19 22  1  0
 22 23  1  0
 23 24  1  0
 24 25  2  0
 25 26  1  0
 26 27  1  0
 26 28  2  0
 28 29  1  0
 28 30  1  0
 30 31  1  0
 30 32  2  0
 32 33  1  0
 32 34  1  0
 18 35  1  0
 35 36  1  0
 35  2  2  0
 14  8  2  0
 34 22  2  0
 34 25  1  0
M  CHG  3   3  -1  10   1  23  -1
M  END
>  <UniqueID>  (16) 
15

>  <SMILES>  (16) 
O=C(/N=c1\cc(Cc2[n-]nc3cc(F)ccc23)cc[n-]1)c1cc[nH+]o1

>  <Energy>  (16) 
116.3723310394652

>  <Genealogy>  (16) 
O=C(N=c1cc(Cc2[n-]nc3cc(F)ccc23)cc[n-]1)c1cc[nH+]o1 (protonated)
O=C(/N=c1\cc(Cc2[n-]nc3cc(F)ccc23)cc[n-]1)c1cc[nH+]o1 (cis-trans isomerization)
O=C(/N=c1\cc(Cc2[n-]nc3cc(F)ccc23)cc[n-]1)c1cc[nH+]o1 (3D coordinates assigned)
O=C(/N=c1\cc(Cc2[n-]nc3cc(F)ccc23)cc[n-]1)c1cc[nH+]o1 (optimized conformer: 116.3723310394652 kcal/mol)

>  <smiles>  (16) 
O=C(N=c1cc(Cc2[nH]nc3cc(F)ccc23)cc[nH]1)c1ccno1

>  <score_type>  (16) 
oracle

>  <origin>  (16) 
adg

>  <m_score__min__energy>  (16) 
-10.74

>  <m_primary>  (16) 
energy

$$$$
16:0
     RDKit          3D

 31 33  0  0  0  0  0  0  0  0999 V2000
   57.1092   35.0919   45.7670 H   0  0  0  0  0  0  0  0  0  0  0  0
   57.7500   34.2200   45.5690 C   0  0  0  0  0  0  0  0  0  0  0  0
   57.3960   33.3880   44.5790 C   0  0  0  0  0  0  0  0  0  0  0  0
   57.0446   33.8257   43.6330 H   0  0  0  0  0  0  0  0  0  0  0  0
   57.4520   31.9130   44.6890 C   0  0  0  0  0  0  0  0  0  0  0  0
   56.2930   31.2160   44.5430 N   0  0  0  0  0  0  0  0  0  0  0  0
   56.2570   29.8630   44.6200 C   0  0  0  0  0  0  0  0  0  0  0  0
   55.1540   29.2670   44.4840 O   0  0  0  0  0  0  0  0  0  0  0  0
   57.4410   29.1470   44.8490 C   0  0  0  0  0  0  0  0  0  0  0  0
   57.4650   27.7440   44.9420 C   0  0  0  0  0  0  0  0  0  0  0  0
   56.5315   27.1707   44.8423 H   0  0  0  0  0  0  0  0  0  0  0  0
   58.6740   27.0770   45.1610 C   0  0  0  0  0  0  0  0  0  0  0  0
   58.6895   25.9795   45.2335 H   0  0  0  0  0  0  0  0  0  0  0  0
   59.8620   27.8000   45.2880 C   0  0  0  0  0  0  0  0  0  0  0  0
   60.8105   27.2700   45.4594 H   0  0  0  0  0  0  0  0  0  0  0  0
   59.8500   29.1950   45.1980 C   0  0  0  0  0  0  0  0  0  0  0  0
   60.7893   29.7588   45.2975 H   0  0  0  0  0  0  0  0  0  0  0  0
   58.6430   29.8790   44.9810 C   0  0  0  0  0  0  0  0  0  0  0  0
   58.6230   31.2400   44.8920 N   0  0  0  0  0  0  0  0  0  0  0  0
   59.5270   31.7590   44.9520 H   0  0  0  0  0  0  0  0  0  0  0  0
   58.9560   34.0330   46.4130 C   0  0  0  0  0  0  0  0  0  0  0  0
   58.8860   33.8310   47.8070 C   0  0  0  0  0  0  0  0  0  0  0  0
   57.9074   33.8180   48.3092 H   0  0  0  0  0  0  0  0  0  0  0  0
   60.0540   33.6470   48.5550 C   0  0  0  0  0  0  0  0  0  0  0  0
   59.9911   33.4965   49.6428 H   0  0  0  0  0  0  0  0  0  0  0  0
   61.3000   33.6540   47.9230 C   0  0  0  0  0  0  0  0  0  0  0  0
   62.2175   33.5153   48.5138 H   0  0  0  0  0  0  0  0  0  0  0  0
   61.3800   33.8370   46.5420 C   0  0  0  0  0  0  0  0  0  0  0  0
   62.3609   33.8373   46.0442 H   0  0  0  0  0  0  0  0  0  0  0  0
   60.2160   34.0200   45.7900 C   0  0  0  0  0  0  0  0  0  0  0  0
   60.2867   34.1551   44.7006 H   0  0  0  0  0  0  0  0  0  0  0  0
  1  2  1  0
  2  3  2  0
  3  4  1  0
  3  5  1  0
  5  6  2  0
  6  7  1  0
  7  8  2  0
  7  9  1  0
  9 10  2  0
 10 11  1  0
 10 12  1  0
 12 13  1  0
 12 14  2  0
 14 15  1  0
 14 16  1  0
 16 17  1  0
 16 18  2  0
 18 19  1  0
 19 20  1  0
  2 21  1  0
 21 22  2  0
 22 23  1  0
 22 24  1  0
 24 25  1  0
 24 26  2  0
 26 27  1  0
 26 28  1  0
 28 29  1  0
 28 30  2  0
 30 31  1  0
 19  5  1  0
 30 21  1  0
 18  9  1  0
M  END
>  <UniqueID>  (17) 
16

>  <SMILES>  (17) 
O=c1nc(/C=C/c2ccccc2)[nH]c2ccccc12

>  <Energy>  (17) 
43.13171611932775

>  <Genealogy>  (17) 
O=c1nc(/C=C/c2ccccc2)[nH]c2ccccc12 (cis-trans isomerization)
O=c1nc(/C=C/c2ccccc2)[nH]c2ccccc12 (3D coordinates assigned)
O=c1nc(/C=C/c2ccccc2)[nH]c2ccccc12 (optimized conformer: 43.13171611932775 kcal/mol)

>  <smiles>  (17) 
O=c1nc(C=Cc2ccccc2)[nH]c2ccccc12

>  <score_type>  (17) 
oracle

>  <origin>  (17) 
adg

>  <m_score__min__energy>  (17) 
-7.8700000000000001

>  <m_primary>  (17) 
energy

$$$$
17:0
     RDKit          3D

 39 41  0  0  0  0  0  0  0  0999 V2000
   58.1200   26.7250   42.6250 C   0  0  0  0  0  0  0  0  0  0  0  0
   58.2780   26.9760   44.0890 C   0  0  0  0  0  0  0  0  0  0  0  0
   58.1360   26.0170   45.0260 N   0  0  0  0  0  0  0  0  0  0  0  0
   58.3370   26.5770   46.2110 N   0  0  0  0  0  0  0  0  0  0  0  0
   58.1820   25.8620   47.4730 C   0  0  0  0  0  0  0  0  0  0  0  0
   58.6090   27.8920   46.0620 C   0  0  0  0  0  0  0  0  0  0  0  0
   58.7360   28.8740   47.1870 C   0  0  0  0  0  0  0  0  0  0  0  0
   58.5560   28.1820   44.7110 C   0  0  0  0  0  0  0  0  0  0  0  0
   58.6480   29.4820   44.1140 N   0  0  0  0  0  0  0  0  0  0  0  0
   57.3750   30.6510   44.2750 S   0  0  0  0  0  0  0  0  0  0  0  0
   56.7550   30.8960   42.9290 O   0  0  0  0  0  0  0  0  0  0  0  0
   56.3250   30.1140   45.2080 O   0  0  0  0  0  0  0  0  0  0  0  0
   58.0220   32.1770   44.8780 C   0  0  0  0  0  0  0  0  0  0  0  0
   57.3980   33.3900   44.5630 C   0  0  0  0  0  0  0  0  0  0  0  0
   57.8930   34.5870   45.0850 C   0  0  0  0  0  0  0  0  0  0  0  0
   59.0070   34.5790   45.9290 C   0  0  0  0  0  0  0  0  0  0  0  0
   59.6500   33.3690   46.2480 C   0  0  0  0  0  0  0  0  0  0  0  0
   60.8120   33.3390   47.1660 C   0  0  0  0  0  0  0  0  0  0  0  0
   62.0780   33.0910   46.7570 N   0  0  0  0  0  0  0  0  0  0  0  0
   62.9640   33.0980   47.7880 C   0  0  0  0  0  0  0  0  0  0  0  0
   62.4140   33.3510   49.0390 C   0  0  0  0  0  0  0  0  0  0  0  0
   60.7600   33.5720   48.8340 S   0  0  0  0  0  0  0  0  0  0  0  0
   59.1580   32.1730   45.6980 C   0  0  0  0  0  0  0  0  0  0  0  0
   57.5397   25.8032   42.4716 H   0  0  0  0  0  0  0  0  0  0  0  0
   57.5919   27.5720   42.1627 H   0  0  0  0  0  0  0  0  0  0  0  0
   59.1120   26.6150   42.1627 H   0  0  0  0  0  0  0  0  0  0  0  0
   58.3331   26.5591   48.3104 H   0  0  0  0  0  0  0  0  0  0  0  0
   57.1702   25.4341   47.5301 H   0  0  0  0  0  0  0  0  0  0  0  0
   58.9257   25.0536   47.5301 H   0  0  0  0  0  0  0  0  0  0  0  0
   58.6672   28.3422   48.1474 H   0  0  0  0  0  0  0  0  0  0  0  0
   59.7077   29.3851   47.1196 H   0  0  0  0  0  0  0  0  0  0  0  0
   57.9263   29.6155   47.1196 H   0  0  0  0  0  0  0  0  0  0  0  0
   59.5860   29.8410   43.8360 H   0  0  0  0  0  0  0  0  0  0  0  0
   56.5173   33.4003   43.9040 H   0  0  0  0  0  0  0  0  0  0  0  0
   57.4045   35.5393   44.8310 H   0  0  0  0  0  0  0  0  0  0  0  0
   59.3833   35.5246   46.3464 H   0  0  0  0  0  0  0  0  0  0  0  0
   64.0391   32.9164   47.6425 H   0  0  0  0  0  0  0  0  0  0  0  0
   62.9621   33.3982   49.9916 H   0  0  0  0  0  0  0  0  0  0  0  0
   59.6702   31.2237   45.9136 H   0  0  0  0  0  0  0  0  0  0  0  0
  1  2  1  0
  2  3  2  0
  3  4  1  0
  4  5  1  0
  4  6  1  0
  6  7  1  0
  6  8  2  0
  8  9  1  0
  9 10  1  0
 10 11  2  0
 10 12  2  0
 10 13  1  0
 13 14  2  0
 14 15  1  0
 15 16  2  0
 16 17  1  0
 17 18  1  0
 18 19  2  0
 19 20  1  0
 20 21  2  0
 21 22  1  0
 17 23  2  0
  8  2  1  0
 23 13  1  0
 22 18  1  0
  1 24  1  0
  1 25  1  0
  1 26  1  0
  5 27  1  0
  5 28  1  0
  5 29  1  0
  7 30  1  0
  7 31  1  0
  7 32  1  0
  9 33  1  0
 14 34  1  0
 15 35  1  0
 16 36  1  0
 20 37  1  0
 21 38  1  0
 23 39  1  0
M  END
>  <UniqueID>  (18) 
17

>  <SMILES>  (18) 
Cc1nn(C)c(C)c1NS(=O)(=O)c1cccc(-c2nccs2)c1

>  <Energy>  (18) 
103.6053491647725

>  <Genealogy>  (18) 
Cc1nn(C)c(C)c1NS(=O)(=O)c1cccc(-c2nccs2)c1 (3D coordinates assigned)
Cc1nn(C)c(C)c1NS(=O)(=O)c1cccc(-c2nccs2)c1 (optimized conformer: 103.6053491647725 kcal/mol)

>  <smiles>  (18) 
Cc1nn(C)c(C)c1NS(=O)(=O)c1cccc(-c2nccs2)c1

>  <score_type>  (18) 
oracle

>  <origin>  (18) 
adg

>  <m_score__min__energy>  (18) 
-8.3399999999999999

>  <m_primary>  (18) 
energy

$$$$
18:0
     RDKit          3D

 21 21  0  0  0  0  0  0  0  0999 V2000
   56.0220   32.6006   45.3038 H   0  0  0  0  0  0  0  0  0  0  0  0
   57.0350   32.3890   44.9310 C   0  0  0  0  0  0  0  0  0  0  0  0
   57.1530   31.5360   43.8910 C   0  0  0  0  0  0  0  0  0  0  0  0
   57.7380   31.9680   42.6410 C   0  0  0  0  0  0  0  0  0  0  0  0
   58.2070   32.3150   41.6410 N   0  0  0  0  0  0  0  0  0  0  0  0
   56.6150   30.1520   43.9890 C   0  0  0  0  0  0  0  0  0  0  0  0
   55.7610   29.8660   44.8710 O   0  0  0  0  0  0  0  0  0  0  0  0
   57.0540   29.1210   43.0990 N   0  0  0  0  0  0  0  0  0  0  0  0
   57.7620   29.2980   42.3540 H   0  0  0  0  0  0  0  0  0  0  0  0
   56.6630   28.1560   43.1890 H   0  0  0  0  0  0  0  0  0  0  0  0
   58.1690   33.0610   45.6070 C   0  0  0  0  0  0  0  0  0  0  0  0
   58.9530   32.3300   46.5150 C   0  0  0  0  0  0  0  0  0  0  0  0
   58.7029   31.2812   46.7329 H   0  0  0  0  0  0  0  0  0  0  0  0
   60.0490   32.9280   47.1430 C   0  0  0  0  0  0  0  0  0  0  0  0
   60.6483   32.3542   47.8652 H   0  0  0  0  0  0  0  0  0  0  0  0
   60.3850   34.2540   46.8550 C   0  0  0  0  0  0  0  0  0  0  0  0
   61.2437   34.7250   47.3558 H   0  0  0  0  0  0  0  0  0  0  0  0
   59.6300   34.9810   45.9310 C   0  0  0  0  0  0  0  0  0  0  0  0
   59.9700   36.2600   45.6360 F   0  0  0  0  0  0  0  0  0  0  0  0
   58.5320   34.3870   45.3010 C   0  0  0  0  0  0  0  0  0  0  0  0
   57.9492   34.9579   44.5631 H   0  0  0  0  0  0  0  0  0  0  0  0
  1  2  1  0
  2  3  2  0
  3  4  1  0
  4  5  3  0
  3  6  1  0
  6  7  2  0
  6  8  1  0
  8  9  1  0
  8 10  1  0
  2 11  1  0
 11 12  2  0
 12 13  1  0
 12 14  1  0
 14 15  1  0
 14 16  2  0
 16 17  1  0
 16 18  1  0
 18 19  1  0
 18 20  2  0
 20 21  1  0
 20 11  1  0
M  END
>  <UniqueID>  (19) 
18

>  <SMILES>  (19) 
N#C/C(=C\c1cccc(F)c1)C(N)=O

>  <Energy>  (19) 
24.62508426314787

>  <Genealogy>  (19) 
N#C/C(=C\c1cccc(F)c1)C(N)=O (cis-trans isomerization)
N#C/C(=C\c1cccc(F)c1)C(N)=O (3D coordinates assigned)
N#C/C(=C\c1cccc(F)c1)C(N)=O (optimized conformer: 24.62508426314787 kcal/mol)

>  <smiles>  (19) 
N#CC(=Cc1cccc(F)c1)C(N)=O

>  <score_type>  (19) 
oracle

>  <origin>  (19) 
adg

>  <m_score__min__energy>  (19) 
-6.4699999999999998

>  <m_primary>  (19) 
energy

$$$$
19:0
     RDKit          3D

 25 26  0  0  0  0  0  0  0  0999 V2000
   55.1440   28.9670   44.8890 O   0  0  0  0  0  0  0  0  0  0  0  0
   56.5290   28.8980   44.9700 C   0  0  0  0  0  0  0  0  0  0  0  0
   57.1350   27.6710   45.2620 C   0  0  0  0  0  0  0  0  0  0  0  0
   58.5280   27.5740   45.3430 C   0  0  0  0  0  0  0  0  0  0  0  0
   59.3190   28.7040   45.1290 C   0  0  0  0  0  0  0  0  0  0  0  0
   58.7220   29.9340   44.8370 C   0  0  0  0  0  0  0  0  0  0  0  0
   57.3220   30.0450   44.7630 C   0  0  0  0  0  0  0  0  0  0  0  0
   56.6970   31.3720   44.4110 C   0  0  0  0  0  0  0  0  0  0  0  0
   57.5140   32.5030   44.9760 C   0  0  0  0  0  0  0  0  0  0  0  0
   57.4370   32.8160   46.3440 C   0  0  0  0  0  0  0  0  0  0  0  0
   58.2200   33.8460   46.8760 C   0  0  0  0  0  0  0  0  0  0  0  0
   59.0870   34.5660   46.0500 C   0  0  0  0  0  0  0  0  0  0  0  0
   59.1760   34.2550   44.6900 C   0  0  0  0  0  0  0  0  0  0  0  0
   58.3960   33.2250   44.1540 C   0  0  0  0  0  0  0  0  0  0  0  0
   56.5133   26.7790   45.4285 H   0  0  0  0  0  0  0  0  0  0  0  0
   58.9998   26.6078   45.5752 H   0  0  0  0  0  0  0  0  0  0  0  0
   60.4146   28.6266   45.1902 H   0  0  0  0  0  0  0  0  0  0  0  0
   59.3508   30.8199   44.6642 H   0  0  0  0  0  0  0  0  0  0  0  0
   56.6489   31.4711   43.3165 H   0  0  0  0  0  0  0  0  0  0  0  0
   55.6846   31.4144   44.8391 H   0  0  0  0  0  0  0  0  0  0  0  0
   56.7587   32.2491   46.9986 H   0  0  0  0  0  0  0  0  0  0  0  0
   58.1530   34.0895   47.9466 H   0  0  0  0  0  0  0  0  0  0  0  0
   59.6995   35.3775   46.4699 H   0  0  0  0  0  0  0  0  0  0  0  0
   59.8602   34.8209   44.0406 H   0  0  0  0  0  0  0  0  0  0  0  0
   58.4733   32.9791   43.0846 H   0  0  0  0  0  0  0  0  0  0  0  0
  1  2  1  0
  2  3  2  0
  3  4  1  0
  4  5  2  0
  5  6  1  0
  6  7  2  0
  7  8  1  0
  8  9  1  0
  9 10  2  0
 10 11  1  0
 11 12  2  0
 12 13  1  0
 13 14  2  0
  7  2  1  0
 14  9  1  0
  3 15  1  0
  4 16  1  0
  5 17  1  0
  6 18  1  0
  8 19  1  0
  8 20  1  0
 10 21  1  0
 11 22  1  0
 12 23  1  0
 13 24  1  0
 14 25  1  0
M  CHG  1   1  -1
M  END
>  <UniqueID>  (20) 
19

>  <SMILES>  (20) 
[O-]c1ccccc1Cc1ccccc1

>  <Energy>  (20) 
25.095100519971844

>  <Genealogy>  (20) 
[O-]c1ccccc1Cc1ccccc1 (protonated)
[O-]c1ccccc1Cc1ccccc1 (3D coordinates assigned)
[O-]c1ccccc1Cc1ccccc1 (optimized conformer: 25.095100519971844 kcal/mol)

>  <smiles>  (20) 
Oc1ccccc1Cc1ccccc1

>  <score_type>  (20) 
oracle

>  <origin>  (20) 
adg

>  <m_score__min__energy>  (20) 
-9.8900000000000006

>  <m_primary>  (20) 
energy

$$$$
20:0
     RDKit          3D

 29 30  0  0  0  0  0  0  0  0999 V2000
   61.2155   28.8370   44.8181 H   0  0  0  0  0  0  0  0  0  0  0  0
   60.1740   28.5520   45.0280 C   0  0  0  0  0  0  0  0  0  0  0  0
   59.1230   29.3120   44.5040 C   0  0  0  0  0  0  0  0  0  0  0  0
   59.3398   30.1936   43.8829 H   0  0  0  0  0  0  0  0  0  0  0  0
   57.7920   28.9520   44.7690 C   0  0  0  0  0  0  0  0  0  0  0  0
   56.4620   29.8950   44.0970 S   0  0  0  0  0  0  0  0  0  0  0  0
   56.4600   29.7390   42.6030 O   0  0  0  0  0  0  0  0  0  0  0  0
   55.1430   29.4190   44.6380 O   0  0  0  0  0  0  0  0  0  0  0  0
   56.6700   31.5670   44.5000 N   0  0  0  0  0  0  0  0  0  0  0  0
   57.3880   31.9530   45.5070 C   0  0  0  0  0  0  0  0  0  0  0  0
   57.7960   31.1710   46.4800 O   0  0  0  0  0  0  0  0  0  0  0  0
   58.5150   31.8510   47.3240 N   0  0  0  0  0  0  0  0  0  0  0  0
   58.9590   31.4570   48.1830 H   0  0  0  0  0  0  0  0  0  0  0  0
   58.5880   33.1240   46.8860 C   0  0  0  0  0  0  0  0  0  0  0  0
   59.3320   34.2190   47.5810 C   0  0  0  0  0  0  0  0  0  0  0  0
   59.2435   34.0888   48.6697 H   0  0  0  0  0  0  0  0  0  0  0  0
   60.3928   34.1821   47.2923 H   0  0  0  0  0  0  0  0  0  0  0  0
   58.9070   35.1917   47.2923 H   0  0  0  0  0  0  0  0  0  0  0  0
   57.8500   33.2370   45.7200 C   0  0  0  0  0  0  0  0  0  0  0  0
   57.7040   34.4300   44.8290 C   0  0  0  0  0  0  0  0  0  0  0  0
   57.5932   35.3354   45.4438 H   0  0  0  0  0  0  0  0  0  0  0  0
   58.5972   34.5250   44.1941 H   0  0  0  0  0  0  0  0  0  0  0  0
   56.8142   34.3068   44.1941 H   0  0  0  0  0  0  0  0  0  0  0  0
   57.5250   27.8260   45.5640 C   0  0  0  0  0  0  0  0  0  0  0  0
   56.2460   27.4580   45.8330 F   0  0  0  0  0  0  0  0  0  0  0  0
   58.5800   27.0700   46.0860 C   0  0  0  0  0  0  0  0  0  0  0  0
   58.3674   26.1888   46.7092 H   0  0  0  0  0  0  0  0  0  0  0  0
   59.9030   27.4310   45.8180 C   0  0  0  0  0  0  0  0  0  0  0  0
   60.9230   26.6970   46.3250 F   0  0  0  0  0  0  0  0  0  0  0  0
  1  2  1  0
  2  3  2  0
  3  4  1  0
  3  5  1  0
  5  6  1  0
  6  7  2  0
  6  8  2  0
  6  9  1  0
  9 10  2  0
 10 11  1  0
 11 12  1  0
 12 13  1  0
 12 14  1  0
 14 15  1  0
 15 16  1  0
 15 17  1  0
 15 18  1  0
 14 19  2  0
 19 20  1  0
 20 21  1  0
 20 22  1  0
 20 23  1  0
  5 24  2  0
 24 25  1  0
 24 26  1  0
 26 27  1  0
 26 28  2  0
 28 29  1  0
 28  2  1  0
 19 10  1  0
M  END
>  <UniqueID>  (21) 
20

>  <SMILES>  (21) 
Cc1[nH]o/c(=N\S(=O)(=O)c2ccc(F)cc2F)c1C

>  <Energy>  (21) 
62.496841793469905

>  <Genealogy>  (21) 
Cc1[nH]o/c(=N\S(=O)(=O)c2ccc(F)cc2F)c1C (cis-trans isomerization)
Cc1[nH]o/c(=N\S(=O)(=O)c2ccc(F)cc2F)c1C (3D coordinates assigned)
Cc1[nH]o/c(=N\S(=O)(=O)c2ccc(F)cc2F)c1C (optimized conformer: 62.496841793469905 kcal/mol)

>  <smiles>  (21) 
Cc1[nH]oc(=NS(=O)(=O)c2ccc(F)cc2F)c1C

>  <score_type>  (21) 
oracle

>  <origin>  (21) 
adg

>  <m_score__min__energy>  (21) 
-7.6299999999999999

>  <m_primary>  (21) 
energy

$$$$
21:0
     RDKit          3D

 33 35  0  0  0  0  0  0  0  0999 V2000
   64.2720   33.1170   49.2690 C   0  0  0  0  0  0  0  0  0  0  0  0
   64.1720   32.5450   47.9250 N   0  0  0  0  0  0  0  0  0  0  0  0
   62.8010   32.5640   47.4770 C   0  0  0  0  0  0  0  0  0  0  0  0
   62.1860   33.7740   47.1260 C   0  0  0  0  0  0  0  0  0  0  0  0
   60.8660   33.7950   46.6650 C   0  0  0  0  0  0  0  0  0  0  0  0
   60.1300   32.5970   46.5350 C   0  0  0  0  0  0  0  0  0  0  0  0
   58.7880   32.5640   46.0720 C   0  0  0  0  0  0  0  0  0  0  0  0
   58.0430   33.8310   45.6850 C   0  0  0  0  0  0  0  0  0  0  0  0
   56.6930   33.6000   45.4880 F   0  0  0  0  0  0  0  0  0  0  0  0
   58.1730   34.7730   46.6900 F   0  0  0  0  0  0  0  0  0  0  0  0
   58.5660   34.3380   44.5080 F   0  0  0  0  0  0  0  0  0  0  0  0
   58.1390   31.3180   45.9710 C   0  0  0  0  0  0  0  0  0  0  0  0
   58.8080   30.1360   46.3220 C   0  0  0  0  0  0  0  0  0  0  0  0
   58.1600   28.8090   46.2290 C   0  0  0  0  0  0  0  0  0  0  0  0
   58.5030   27.6420   46.9130 C   0  0  0  0  0  0  0  0  0  0  0  0
   57.6830   26.5500   46.5970 C   0  0  0  0  0  0  0  0  0  0  0  0
   56.6940   26.8430   45.6690 C   0  0  0  0  0  0  0  0  0  0  0  0
   56.8420   28.4600   45.2420 S   0  0  0  0  0  0  0  0  0  0  0  0
   60.0910   30.2040   46.7620 N   0  0  0  0  0  0  0  0  0  0  0  0
   60.7620   31.3770   46.8790 C   0  0  0  0  0  0  0  0  0  0  0  0
   62.0830   31.3660   47.3400 C   0  0  0  0  0  0  0  0  0  0  0  0
   64.1331   32.3224   50.0169 H   0  0  0  0  0  0  0  0  0  0  0  0
   65.2638   33.5745   49.3999 H   0  0  0  0  0  0  0  0  0  0  0  0
   63.4943   33.8838   49.3999 H   0  0  0  0  0  0  0  0  0  0  0  0
   64.5320   31.5620   47.9410 H   0  0  0  0  0  0  0  0  0  0  0  0
   64.7730   33.0970   47.2710 H   0  0  0  0  0  0  0  0  0  0  0  0
   62.7472   34.7159   47.2141 H   0  0  0  0  0  0  0  0  0  0  0  0
   60.3964   34.7541   46.4011 H   0  0  0  0  0  0  0  0  0  0  0  0
   57.0995   31.2714   45.6141 H   0  0  0  0  0  0  0  0  0  0  0  0
   59.3353   27.5847   47.6299 H   0  0  0  0  0  0  0  0  0  0  0  0
   57.8117   25.5529   47.0434 H   0  0  0  0  0  0  0  0  0  0  0  0
   55.9437   26.1386   45.2807 H   0  0  0  0  0  0  0  0  0  0  0  0
   62.5629   30.4102   47.5972 H   0  0  0  0  0  0  0  0  0  0  0  0
  1  2  1  0
  2  3  1  0
  3  4  2  0
  4  5  1  0
  5  6  2  0
  6  7  1  0
  7  8  1  0
  8  9  1  0
  8 10  1  0
  8 11  1  0
  7 12  2  0
 12 13  1  0
 13 14  1  0
 14 15  2  0
 15 16  1  0
 16 17  2  0
 17 18  1  0
 13 19  2  0
 19 20  1  0
 20 21  2  0
 21  3  1  0
 20  6  1  0
 18 14  1  0
  1 22  1  0
  1 23  1  0
  1 24  1  0
  2 25  1  0
  2 26  1  0
  4 27  1  0
  5 28  1  0
 12 29  1  0
 15 30  1  0
 16 31  1  0
 17 32  1  0
 21 33  1  0
M  CHG  1   2   1
M  END
>  <UniqueID>  (22) 
21

>  <SMILES>  (22) 
C[NH2+]c1ccc2c(C(F)(F)F)cc(-c3cccs3)nc2c1

>  <Energy>  (22) 
69.05581684902765

>  <Genealogy>  (22) 
C[NH2+]c1ccc2c(C(F)(F)F)cc(-c3cccs3)nc2c1 (protonated)
C[NH2+]c1ccc2c(C(F)(F)F)cc(-c3cccs3)nc2c1 (3D coordinates assigned)
C[NH2+]c1ccc2c(C(F)(F)F)cc(-c3cccs3)nc2c1 (optimized conformer: 69.05581684902765 kcal/mol)

>  <smiles>  (22) 
CNc1ccc2c(C(F)(F)F)cc(-c3cccs3)nc2c1

>  <score_type>  (22) 
oracle

>  <origin>  (22) 
adg

>  <m_score__min__energy>  (22) 
-5.2800000000000002

>  <m_primary>  (22) 
energy

$$$$
22:0
     RDKit          3D

 28 29  0  0  0  0  0  0  0  0999 V2000
   56.6450   30.0020   43.2490 C   0  0  0  0  0  0  0  0  0  0  0  0
   56.5400   30.5280   44.5680 O   0  0  0  0  0  0  0  0  0  0  0  0
   57.3690   31.5330   45.0910 C   0  0  0  0  0  0  0  0  0  0  0  0
   57.0990   32.9010   44.9000 C   0  0  0  0  0  0  0  0  0  0  0  0
   57.9470   33.8720   45.4390 C   0  0  0  0  0  0  0  0  0  0  0  0
   59.0750   33.4970   46.1880 C   0  0  0  0  0  0  0  0  0  0  0  0
   59.9920   34.5190   46.7490 C   0  0  0  0  0  0  0  0  0  0  0  0
   59.6490   35.7320   46.7060 O   0  0  0  0  0  0  0  0  0  0  0  0
   61.2990   34.1660   47.3560 C   0  0  0  0  0  0  0  0  0  0  0  0
   62.3780   33.7940   46.5350 C   0  0  0  0  0  0  0  0  0  0  0  0
   63.6090   33.4430   47.0980 C   0  0  0  0  0  0  0  0  0  0  0  0
   63.7720   33.4510   48.4860 C   0  0  0  0  0  0  0  0  0  0  0  0
   62.7010   33.8030   49.3120 C   0  0  0  0  0  0  0  0  0  0  0  0
   62.8570   33.7970   50.6600 F   0  0  0  0  0  0  0  0  0  0  0  0
   61.4690   34.1550   48.7540 C   0  0  0  0  0  0  0  0  0  0  0  0
   59.3520   32.1320   46.3640 C   0  0  0  0  0  0  0  0  0  0  0  0
   58.5050   31.1580   45.8260 C   0  0  0  0  0  0  0  0  0  0  0  0
   58.8790   29.4600   46.0800 Cl  0  0  0  0  0  0  0  0  0  0  0  0
   56.8601   28.9244   43.3000 H   0  0  0  0  0  0  0  0  0  0  0  0
   55.6972   30.1618   42.7140 H   0  0  0  0  0  0  0  0  0  0  0  0
   57.4588   30.5134   42.7140 H   0  0  0  0  0  0  0  0  0  0  0  0
   56.2145   33.2079   44.3225 H   0  0  0  0  0  0  0  0  0  0  0  0
   57.7298   34.9379   45.2757 H   0  0  0  0  0  0  0  0  0  0  0  0
   62.2530   33.7789   45.4422 H   0  0  0  0  0  0  0  0  0  0  0  0
   64.4499   33.1603   46.4477 H   0  0  0  0  0  0  0  0  0  0  0  0
   64.7423   33.1805   48.9279 H   0  0  0  0  0  0  0  0  0  0  0  0
   60.6281   34.4247   49.4098 H   0  0  0  0  0  0  0  0  0  0  0  0
   60.2438   31.8257   46.9305 H   0  0  0  0  0  0  0  0  0  0  0  0
  1  2  1  0
  2  3  1  0
  3  4  2  0
  4  5  1  0
  5  6  2  0
  6  7  1  0
  7  8  2  0
  7  9  1  0
  9 10  2  0
 10 11  1  0
 11 12  2  0
 12 13  1  0
 13 14  1  0
 13 15  2  0
  6 16  1  0
 16 17  2  0
 17 18  1  0
 17  3  1  0
 15  9  1  0
  1 19  1  0
  1 20  1  0
  1 21  1  0
  4 22  1  0
  5 23  1  0
 10 24  1  0
 11 25  1  0
 12 26  1  0
 15 27  1  0
 16 28  1  0
M  END
>  <UniqueID>  (23) 
22

>  <SMILES>  (23) 
COc1ccc(C(=O)c2cccc(F)c2)cc1Cl

>  <Energy>  (23) 
34.734827169007424

>  <Genealogy>  (23) 
COc1ccc(C(=O)c2cccc(F)c2)cc1Cl (3D coordinates assigned)
COc1ccc(C(=O)c2cccc(F)c2)cc1Cl (optimized conformer: 34.734827169007424 kcal/mol)

>  <smiles>  (23) 
COc1ccc(C(=O)c2cccc(F)c2)cc1Cl

>  <score_type>  (23) 
oracle

>  <origin>  (23) 
adg

>  <m_score__min__energy>  (23) 
-6.8799999999999999

>  <m_primary>  (23) 
energy

$$$$
23:0
     RDKit          3D

 42 43  0  0  0  0  0  0  0  0999 V2000
   59.6930   35.6500   46.1730 C   0  0  0  0  0  0  0  0  0  0  0  0
   59.9030   34.2370   46.7590 C   0  0  0  0  0  0  0  0  0  0  0  0
   59.6090   34.3110   48.2780 C   0  0  0  0  0  0  0  0  0  0  0  0
   61.3820   33.8250   46.5890 C   0  0  0  0  0  0  0  0  0  0  0  0
   59.0020   33.2310   46.0160 C   0  0  0  0  0  0  0  0  0  0  0  0
   58.2140   33.5890   44.8950 C   0  0  0  0  0  0  0  0  0  0  0  0
   57.4060   32.6480   44.2520 C   0  0  0  0  0  0  0  0  0  0  0  0
   57.3620   31.3220   44.7030 C   0  0  0  0  0  0  0  0  0  0  0  0
   56.4690   30.3130   44.0340 C   0  0  0  0  0  0  0  0  0  0  0  0
   55.9280   29.3830   45.0200 N   0  0  0  0  0  0  0  0  0  0  0  0
   56.5100   28.1070   45.3060 C   0  0  0  0  0  0  0  0  0  0  0  0
   57.7270   27.8950   45.0520 O   0  0  0  0  0  0  0  0  0  0  0  0
   55.7070   27.0940   45.9260 N   0  0  0  0  0  0  0  0  0  0  0  0
   56.1000   25.7170   46.0550 C   0  0  0  0  0  0  0  0  0  0  0  0
   55.3120   24.7180   45.4620 C   0  0  0  0  0  0  0  0  0  0  0  0
   55.6860   23.3740   45.5550 C   0  0  0  0  0  0  0  0  0  0  0  0
   56.8580   23.0170   46.2260 C   0  0  0  0  0  0  0  0  0  0  0  0
   57.6620   24.0050   46.8000 C   0  0  0  0  0  0  0  0  0  0  0  0
   57.2920   25.3510   46.7100 C   0  0  0  0  0  0  0  0  0  0  0  0
   58.1300   30.9520   45.8130 C   0  0  0  0  0  0  0  0  0  0  0  0
   58.9390   31.8900   46.4590 C   0  0  0  0  0  0  0  0  0  0  0  0
   59.5853   36.3749   46.9933 H   0  0  0  0  0  0  0  0  0  0  0  0
   60.5604   35.9229   45.5541 H   0  0  0  0  0  0  0  0  0  0  0  0
   58.7837   35.6589   45.5541 H   0  0  0  0  0  0  0  0  0  0  0  0
   60.5257   34.0803   48.8406 H   0  0  0  0  0  0  0  0  0  0  0  0
   59.2655   35.3236   48.5361 H   0  0  0  0  0  0  0  0  0  0  0  0
   58.8270   33.5817   48.5361 H   0  0  0  0  0  0  0  0  0  0  0  0
   61.8430   33.6966   47.5794 H   0  0  0  0  0  0  0  0  0  0  0  0
   61.4371   32.8773   46.0333 H   0  0  0  0  0  0  0  0  0  0  0  0
   61.9191   34.6077   46.0333 H   0  0  0  0  0  0  0  0  0  0  0  0
   58.2385   34.6245   44.5247 H   0  0  0  0  0  0  0  0  0  0  0  0
   56.7998   32.9502   43.3853 H   0  0  0  0  0  0  0  0  0  0  0  0
   55.6398   30.8364   43.5355 H   0  0  0  0  0  0  0  0  0  0  0  0
   57.0571   29.7490   43.2950 H   0  0  0  0  0  0  0  0  0  0  0  0
   54.8110   27.3970   46.3730 H   0  0  0  0  0  0  0  0  0  0  0  0
   54.3949   24.9942   44.9210 H   0  0  0  0  0  0  0  0  0  0  0  0
   55.0560   22.5961   45.0988 H   0  0  0  0  0  0  0  0  0  0  0  0
   57.1478   21.9586   46.3024 H   0  0  0  0  0  0  0  0  0  0  0  0
   58.5876   23.7239   47.3236 H   0  0  0  0  0  0  0  0  0  0  0  0
   57.9344   26.1266   47.1525 H   0  0  0  0  0  0  0  0  0  0  0  0
   58.0964   29.9153   46.1793 H   0  0  0  0  0  0  0  0  0  0  0  0
   59.5377   31.5796   47.3280 H   0  0  0  0  0  0  0  0  0  0  0  0
  1  2  1  0
  2  3  1  0
  2  4  1  0
  2  5  1  0
  5  6  2  0
  6  7  1  0
  7  8  2  0
  8  9  1  0
  9 10  1  0
 10 11  1  0
 11 12  2  0
 11 13  1  0
 13 14  1  0
 14 15  2  0
 15 16  1  0
 16 17  2  0
 17 18  1  0
 18 19  2  0
  8 20  1  0
 20 21  2  0
 21  5  1  0
 19 14  1  0
  1 22  1  0
  1 23  1  0
  1 24  1  0
  3 25  1  0
  3 26  1  0
  3 27  1  0
  4 28  1  0
  4 29  1  0
  4 30  1  0
  6 31  1  0
  7 32  1  0
  9 33  1  0
  9 34  1  0
 13 35  1  0
 15 36  1  0
 16 37  1  0
 17 38  1  0
 18 39  1  0
 19 40  1  0
 20 41  1  0
 21 42  1  0
M  CHG  1  10  -1
M  END
>  <UniqueID>  (24) 
23

>  <SMILES>  (24) 
CC(C)(C)c1ccc(C[N-]C(=O)Nc2ccccc2)cc1

>  <Energy>  (24) 
43.722940686124424

>  <Genealogy>  (24) 
CC(C)(C)c1ccc(C[N-]C(=O)Nc2ccccc2)cc1 (protonated)
CC(C)(C)c1ccc(C[N-]C(=O)Nc2ccccc2)cc1 (3D coordinates assigned)
CC(C)(C)c1ccc(C[N-]C(=O)Nc2ccccc2)cc1 (optimized conformer: 43.722940686124424 kcal/mol)

>  <smiles>  (24) 
CC(C)(C)c1ccc(CNC(=O)Nc2ccccc2)cc1

>  <score_type>  (24) 
oracle

>  <origin>  (24) 
adg

>  <m_score__min__energy>  (24) 
-9.4600000000000009

>  <m_primary>  (24) 
energy

$$$$
24:0
     RDKit          3D

 36 38  0  0  0  0  0  0  0  0999 V2000
   55.9180   26.1330   46.1010 N   0  0  0  0  0  0  0  0  0  0  0  0
   56.6330   27.1930   45.9360 C   0  0  0  0  0  0  0  0  0  0  0  0
   57.9180   27.2770   46.4180 C   0  0  0  0  0  0  0  0  0  0  0  0
   58.6720   28.4370   46.2260 C   0  0  0  0  0  0  0  0  0  0  0  0
   60.0040   28.5280   46.7250 N   0  0  0  0  0  0  0  0  0  0  0  0
   58.1060   29.5040   45.5400 C   0  0  0  0  0  0  0  0  0  0  0  0
   58.5600   30.7550   45.1880 C   0  0  0  0  0  0  0  0  0  0  0  0
   57.5510   31.3710   44.5160 N   0  0  0  0  0  0  0  0  0  0  0  0
   57.6100   32.7030   43.9700 C   0  0  0  0  0  0  0  0  0  0  0  0
   57.2810   33.7890   44.9350 C   0  0  0  0  0  0  0  0  0  0  0  0
   58.4040   33.8180   45.9380 C   0  0  0  0  0  0  0  0  0  0  0  0
   59.6720   34.2240   45.5280 C   0  0  0  0  0  0  0  0  0  0  0  0
   60.6780   34.2340   46.4910 C   0  0  0  0  0  0  0  0  0  0  0  0
   60.4260   33.8580   47.7960 C   0  0  0  0  0  0  0  0  0  0  0  0
   61.4390   33.8580   48.8040 N   0  0  0  0  0  0  0  0  0  0  0  0
   59.1650   33.4560   48.1970 C   0  0  0  0  0  0  0  0  0  0  0  0
   58.1500   33.4420   47.2430 C   0  0  0  0  0  0  0  0  0  0  0  0
   56.5200   30.5300   44.4600 N   0  0  0  0  0  0  0  0  0  0  0  0
   56.8150   29.3710   45.0760 C   0  0  0  0  0  0  0  0  0  0  0  0
   56.1160   28.2390   45.2780 N   0  0  0  0  0  0  0  0  0  0  0  0
   55.1180   26.1290   46.7680 H   0  0  0  0  0  0  0  0  0  0  0  0
   58.3553   26.4247   46.9586 H   0  0  0  0  0  0  0  0  0  0  0  0
   60.1300   28.7280   47.7330 H   0  0  0  0  0  0  0  0  0  0  0  0
   60.7860   28.3880   46.0560 H   0  0  0  0  0  0  0  0  0  0  0  0
   59.5517   31.1767   45.4087 H   0  0  0  0  0  0  0  0  0  0  0  0
   58.6302   32.8748   43.5964 H   0  0  0  0  0  0  0  0  0  0  0  0
   56.8453   32.7481   43.1806 H   0  0  0  0  0  0  0  0  0  0  0  0
   57.2119   34.7546   44.4126 H   0  0  0  0  0  0  0  0  0  0  0  0
   56.3125   33.6090   45.4244 H   0  0  0  0  0  0  0  0  0  0  0  0
   59.8701   34.5238   44.4883 H   0  0  0  0  0  0  0  0  0  0  0  0
   61.6933   34.5475   46.2068 H   0  0  0  0  0  0  0  0  0  0  0  0
   61.6630   34.6830   49.3920 H   0  0  0  0  0  0  0  0  0  0  0  0
   61.9920   32.9870   48.9700 H   0  0  0  0  0  0  0  0  0  0  0  0
   58.9695   33.1565   49.2372 H   0  0  0  0  0  0  0  0  0  0  0  0
   57.1359   33.1284   47.5316 H   0  0  0  0  0  0  0  0  0  0  0  0
   55.1450   28.1850   44.9100 H   0  0  0  0  0  0  0  0  0  0  0  0
  1  2  2  3
  2  3  1  0
  3  4  2  0
  4  5  1  0
  4  6  1  0
  6  7  2  0
  7  8  1  0
  8  9  1  0
  9 10  1  0
 10 11  1  0
 11 12  2  0
 12 13  1  0
 13 14  2  0
 14 15  1  0
 14 16  1  0
 16 17  2  0
  8 18  1  0
 18 19  2  0
 19 20  1  0
 20  2  1  0
 19  6  1  0
 17 11  1  0
  1 21  1  0
  3 22  1  0
  5 23  1  0
  5 24  1  0
  7 25  1  0
  9 26  1  0
  9 27  1  0
 10 28  1  0
 10 29  1  0
 12 30  1  0
 13 31  1  0
 15 32  1  0
 15 33  1  0
 16 34  1  0
 17 35  1  0
 20 36  1  0
M  END
>  <smiles>  (25) 
N=c1cc(N)c2cn(CCc3ccc(N)cc3)nc2[nH]1

>  <score_type>  (25) 
oracle

>  <origin>  (25) 
adg

>  <m_score__min__energy>  (25) 
-7.2699999999999996

>  <m_primary>  (25) 
energy

$$$$
25:0
     RDKit          3D

 35 36  0  0  0  0  0  0  0  0999 V2000
   56.7743   28.6163   43.8077 H   0  0  0  0  0  0  0  0  0  0  0  0
   56.2190   29.5050   44.1420 C   0  0  0  0  0  0  0  0  0  0  0  0
   55.2000   29.3520   44.8660 O   0  0  0  0  0  0  0  0  0  0  0  0
   56.6900   30.8400   43.7290 C   0  0  0  0  0  0  0  0  0  0  0  0
   56.7986   31.0211   42.6495 H   0  0  0  0  0  0  0  0  0  0  0  0
   56.9980   31.8540   44.5530 C   0  0  0  0  0  0  0  0  0  0  0  0
   56.2369   32.6346   44.6990 H   0  0  0  0  0  0  0  0  0  0  0  0
   58.2750   32.0080   45.2800 C   0  0  0  0  0  0  0  0  0  0  0  0
   58.8780   30.8810   45.8540 C   0  0  0  0  0  0  0  0  0  0  0  0
   58.4183   29.8899   45.7258 H   0  0  0  0  0  0  0  0  0  0  0  0
   60.0610   31.0090   46.5890 C   0  0  0  0  0  0  0  0  0  0  0  0
   60.5345   30.1151   47.0211 H   0  0  0  0  0  0  0  0  0  0  0  0
   60.6500   32.2720   46.7800 C   0  0  0  0  0  0  0  0  0  0  0  0
   61.9080   32.4100   47.5590 C   0  0  0  0  0  0  0  0  0  0  0  0
   62.8730   33.3550   47.1910 C   0  0  0  0  0  0  0  0  0  0  0  0
   62.7038   34.0053   46.3201 H   0  0  0  0  0  0  0  0  0  0  0  0
   64.0490   33.4700   47.9310 C   0  0  0  0  0  0  0  0  0  0  0  0
   64.8048   34.2136   47.6380 H   0  0  0  0  0  0  0  0  0  0  0  0
   64.2740   32.6700   49.0160 N   0  0  0  0  0  0  0  0  0  0  0  0
   65.5210   32.8130   49.7760 C   0  0  0  0  0  0  0  0  0  0  0  0
   65.2989   32.7875   50.8531 H   0  0  0  0  0  0  0  0  0  0  0  0
   66.2018   31.9870   49.5223 H   0  0  0  0  0  0  0  0  0  0  0  0
   65.9971   33.7716   49.5223 H   0  0  0  0  0  0  0  0  0  0  0  0
   63.3490   31.7360   49.4050 C   0  0  0  0  0  0  0  0  0  0  0  0
   63.6170   30.9330   50.5280 O   0  0  0  0  0  0  0  0  0  0  0  0
   62.6520   30.1330   51.2050 C   0  0  0  0  0  0  0  0  0  0  0  0
   62.7830   30.2416   52.2918 H   0  0  0  0  0  0  0  0  0  0  0  0
   61.6407   30.4613   50.9230 H   0  0  0  0  0  0  0  0  0  0  0  0
   62.7871   29.0784   50.9230 H   0  0  0  0  0  0  0  0  0  0  0  0
   62.1520   31.5960   48.6750 C   0  0  0  0  0  0  0  0  0  0  0  0
   61.4071   30.8466   48.9810 H   0  0  0  0  0  0  0  0  0  0  0  0
   60.0240   33.4050   46.2290 C   0  0  0  0  0  0  0  0  0  0  0  0
   60.4687   34.4003   46.3761 H   0  0  0  0  0  0  0  0  0  0  0  0
   58.8410   33.2750   45.4960 C   0  0  0  0  0  0  0  0  0  0  0  0
   58.3505   34.1702   45.0860 H   0  0  0  0  0  0  0  0  0  0  0  0
  1  2  1  0
  2  3  2  0
  2  4  1  0
  4  5  1  0
  4  6  2  0
  6  7  1  0
  6  8  1  0
  8  9  2  0
  9 10  1  0
  9 11  1  0
 11 12  1  0
 11 13  2  0
 13 14  1  0
 14 15  2  0
 15 16  1  0
 15 17  1  0
 17 18  1  0
 17 19  2  0
 19 20  1  0
 20 21  1  0
 20 22  1  0
 20 23  1  0
 19 24  1  0
 24 25  1  0
 25 26  1  0
 26 27  1  0
 26 28  1  0
 26 29  1  0
 24 30  2  0
 30 31  1  0
 13 32  1  0
 32 33  1  0
 32 34  2  0
 34 35  1  0
 34  8  1  0
 30 14  1  0
M  CHG  1  19   1
M  END
>  <UniqueID>  (26) 
24

>  <SMILES>  (26) 
COc1cc(-c2ccc(/C=C\C=O)cc2)cc[n+]1C

>  <Energy>  (26) 
48.835486402809465

>  <Genealogy>  (26) 
COc1cc(-c2ccc(/C=C\C=O)cc2)cc[n+]1C (cis-trans isomerization)
COc1cc(-c2ccc(/C=C\C=O)cc2)cc[n+]1C (3D coordinates assigned)
COc1cc(-c2ccc(/C=C\C=O)cc2)cc[n+]1C (optimized conformer: 48.835486402809465 kcal/mol)

>  <smiles>  (26) 
COc1cc(-c2ccc(C=CC=O)cc2)cc[n+]1C

>  <score_type>  (26) 
oracle

>  <origin>  (26) 
adg

>  <m_score__min__energy>  (26) 
-5.1299999999999999

>  <m_primary>  (26) 
energy

$$$$
26:0
     RDKit          3D

 31 32  0  0  0  0  0  0  0  0999 V2000
   56.2420   30.9940   44.5430 O   0  0  0  0  0  0  0  0  0  0  0  0
   57.4950   31.0500   44.4170 C   0  0  0  0  0  0  0  0  0  0  0  0
   58.1550   32.3660   44.1440 C   0  0  0  0  0  0  0  0  0  0  0  0
   57.7230   33.3680   45.1420 N   0  0  0  0  0  0  0  0  0  0  0  0
   58.4530   34.6530   45.0070 C   0  0  0  0  0  0  0  0  0  0  0  0
   59.6850   34.7360   45.9300 C   0  0  0  0  0  0  0  0  0  0  0  0
   60.1970   33.4470   46.1900 O   0  0  0  0  0  0  0  0  0  0  0  0
   59.2840   32.7120   46.9880 C   0  0  0  0  0  0  0  0  0  0  0  0
   57.8150   32.8470   46.5200 C   0  0  0  0  0  0  0  0  0  0  0  0
   58.2930   29.8610   44.4710 N   0  0  0  0  0  0  0  0  0  0  0  0
   57.9700   28.6500   45.1700 C   0  0  0  0  0  0  0  0  0  0  0  0
   58.9640   27.8150   45.7150 C   0  0  0  0  0  0  0  0  0  0  0  0
   58.6070   26.6300   46.3670 C   0  0  0  0  0  0  0  0  0  0  0  0
   57.2620   26.2640   46.4700 C   0  0  0  0  0  0  0  0  0  0  0  0
   56.2710   27.0770   45.9100 C   0  0  0  0  0  0  0  0  0  0  0  0
   54.9360   26.7070   46.0020 O   0  0  0  0  0  0  0  0  0  0  0  0
   56.6270   28.2620   45.2560 C   0  0  0  0  0  0  0  0  0  0  0  0
   59.2468   32.2440   44.2000 H   0  0  0  0  0  0  0  0  0  0  0  0
   57.8680   32.7112   43.1398 H   0  0  0  0  0  0  0  0  0  0  0  0
   58.7863   34.7607   43.9643 H   0  0  0  0  0  0  0  0  0  0  0  0
   57.7639   35.4593   45.2986 H   0  0  0  0  0  0  0  0  0  0  0  0
   60.4623   35.3424   45.4421 H   0  0  0  0  0  0  0  0  0  0  0  0
   59.3850   35.1977   46.8822 H   0  0  0  0  0  0  0  0  0  0  0  0
   59.5657   31.6493   46.9517 H   0  0  0  0  0  0  0  0  0  0  0  0
   59.3399   33.1212   48.0075 H   0  0  0  0  0  0  0  0  0  0  0  0
   57.3368   31.8571   46.5588 H   0  0  0  0  0  0  0  0  0  0  0  0
   57.3078   33.5583   47.1884 H   0  0  0  0  0  0  0  0  0  0  0  0
   60.0241   28.0952   45.6279 H   0  0  0  0  0  0  0  0  0  0  0  0
   59.3862   25.9851   46.7994 H   0  0  0  0  0  0  0  0  0  0  0  0
   56.9828   25.3366   46.9915 H   0  0  0  0  0  0  0  0  0  0  0  0
   55.8464   28.8932   44.8063 H   0  0  0  0  0  0  0  0  0  0  0  0
  1  2  2  0
  2  3  1  0
  3  4  1  0
  4  5  1  0
  5  6  1  0
  6  7  1  0
  7  8  1  0
  8  9  1  0
  2 10  1  0
 10 11  1  0
 11 12  2  0
 12 13  1  0
 13 14  2  0
 14 15  1  0
 15 16  1  0
 15 17  2  0
  9  4  1  0
 17 11  1  0
  3 18  1  0
  3 19  1  0
  5 20  1  0
  5 21  1  0
  6 22  1  0
  6 23  1  0
  8 24  1  0
  8 25  1  0
  9 26  1  0
  9 27  1  0
 12 28  1  0
 13 29  1  0
 14 30  1  0
 17 31  1  0
M  CHG  2  10  -1  16  -1
M  END
>  <UniqueID>  (27) 
25

>  <SMILES>  (27) 
O=C(CN1CCOCC1)[N-]c1cccc([O-])c1

>  <Energy>  (27) 
44.81564415385697

>  <Genealogy>  (27) 
O=C(CN1CCOCC1)[N-]c1cccc([O-])c1 (protonated)
O=C(CN1CCOCC1)[N-]c1cccc([O-])c1 (3D coordinates assigned)
O=C(CN1CCOCC1)[N-]c1cccc([O-])c1 (nonaromatic ring conformer: 44.81564415385697 kcal/mol)

>  <smiles>  (27) 
O=C(CN1CCOCC1)Nc1cccc(O)c1

>  <score_type>  (27) 
oracle

>  <origin>  (27) 
adg

>  <m_score__min__energy>  (27) 
-11.02

>  <m_primary>  (27) 
energy

$$$$
27:0
     RDKit          3D

 62 64  0  0  0  0  0  0  0  0999 V2000
   56.5320   30.2900   52.6700 C   0  0  0  0  0  0  0  0  0  0  0  0
   57.0140   30.2700   51.3290 O   0  0  0  0  0  0  0  0  0  0  0  0
   58.3410   30.5290   50.9480 C   0  0  0  0  0  0  0  0  0  0  0  0
   59.1490   29.5530   50.3330 C   0  0  0  0  0  0  0  0  0  0  0  0
   60.4720   29.8450   49.9910 C   0  0  0  0  0  0  0  0  0  0  0  0
   60.9950   31.1190   50.2330 C   0  0  0  0  0  0  0  0  0  0  0  0
   62.3840   31.4370   49.8580 C   0  0  0  0  0  0  0  0  0  0  0  0
   63.2470   31.5350   50.7730 O   0  0  0  0  0  0  0  0  0  0  0  0
   62.7510   31.6120   48.4670 N   0  0  2  0  0  0  0  0  0  0  0  0
   63.6940   32.7450   48.3100 C   0  0  0  0  0  0  0  0  0  0  0  0
   63.7200   33.2590   46.8760 C   0  0  0  0  0  0  0  0  0  0  0  0
   62.3580   33.8480   46.4900 C   0  0  0  0  0  0  0  0  0  0  0  0
   61.1270   33.0830   47.0960 C   0  0  1  0  0  0  0  0  0  0  0  0
   60.5270   33.8710   48.3090 C   0  0  0  0  0  0  0  0  0  0  0  0
   59.4680   34.8900   47.8800 C   0  0  0  0  0  0  0  0  0  0  0  0
   58.3090   34.2120   47.1170 C   0  0  0  0  0  0  0  0  0  0  0  0
   58.6810   32.8800   46.5850 N   0  0  0  0  0  0  0  0  0  0  0  0
   57.6660   32.3860   45.6190 C   0  0  0  0  0  0  0  0  0  0  0  0
   58.0570   31.0060   45.0520 C   0  0  0  0  0  0  0  0  0  0  0  0
   58.3490   29.9880   46.1610 C   0  0  0  0  0  0  0  0  0  0  0  0
   56.9920   30.4730   44.0870 C   0  0  0  0  0  0  0  0  0  0  0  0
   60.0290   32.9380   45.9840 C   0  0  0  0  0  0  0  0  0  0  0  0
   61.5550   31.6530   47.5750 C   0  0  0  0  0  0  0  0  0  0  0  0
   60.2040   32.0920   50.8530 C   0  0  0  0  0  0  0  0  0  0  0  0
   58.8700   31.8040   51.2110 C   0  0  0  0  0  0  0  0  0  0  0  0
   58.0480   32.7490   51.8440 O   0  0  0  0  0  0  0  0  0  0  0  0
   58.5100   33.9670   52.4270 C   0  0  0  0  0  0  0  0  0  0  0  0
   57.3830   30.2547   53.3661 H   0  0  0  0  0  0  0  0  0  0  0  0
   55.9577   31.2127   52.8395 H   0  0  0  0  0  0  0  0  0  0  0  0
   55.8832   29.4180   52.8395 H   0  0  0  0  0  0  0  0  0  0  0  0
   58.7364   28.5556   50.1208 H   0  0  0  0  0  0  0  0  0  0  0  0
   61.1034   29.0709   49.5304 H   0  0  0  0  0  0  0  0  0  0  0  0
   63.2870   30.7550   48.1920 H   0  0  0  0  0  0  0  0  0  0  0  0
   63.3834   33.5629   48.9767 H   0  0  0  0  0  0  0  0  0  0  0  0
   64.7032   32.3905   48.5666 H   0  0  0  0  0  0  0  0  0  0  0  0
   64.4902   34.0391   46.7853 H   0  0  0  0  0  0  0  0  0  0  0  0
   63.9477   32.4199   46.2022 H   0  0  0  0  0  0  0  0  0  0  0  0
   62.3219   34.8903   46.8397 H   0  0  0  0  0  0  0  0  0  0  0  0
   62.2757   33.7605   45.3966 H   0  0  0  0  0  0  0  0  0  0  0  0
   60.0651   33.1529   49.0025 H   0  0  0  0  0  0  0  0  0  0  0  0
   61.3486   34.4241   48.7876 H   0  0  0  0  0  0  0  0  0  0  0  0
   59.0652   35.3858   48.7755 H   0  0  0  0  0  0  0  0  0  0  0  0
   59.9430   35.6209   47.2091 H   0  0  0  0  0  0  0  0  0  0  0  0
   57.4575   34.0924   47.8031 H   0  0  0  0  0  0  0  0  0  0  0  0
   58.0524   34.8535   46.2611 H   0  0  0  0  0  0  0  0  0  0  0  0
   56.6958   32.3014   46.1305 H   0  0  0  0  0  0  0  0  0  0  0  0
   57.6049   33.0997   44.7842 H   0  0  0  0  0  0  0  0  0  0  0  0
   58.9886   31.1496   44.4850 H   0  0  0  0  0  0  0  0  0  0  0  0
   58.2120   30.4655   47.1424 H   0  0  0  0  0  0  0  0  0  0  0  0
   57.6589   29.1365   46.0681 H   0  0  0  0  0  0  0  0  0  0  0  0
   59.3856   29.6317   46.0681 H   0  0  0  0  0  0  0  0  0  0  0  0
   56.1534   30.0533   44.6619 H   0  0  0  0  0  0  0  0  0  0  0  0
   56.6272   31.2948   43.4533 H   0  0  0  0  0  0  0  0  0  0  0  0
   57.4311   29.6884   43.4533 H   0  0  0  0  0  0  0  0  0  0  0  0
   60.2108   32.0140   45.4155 H   0  0  0  0  0  0  0  0  0  0  0  0
   60.0820   33.8125   45.3188 H   0  0  0  0  0  0  0  0  0  0  0  0
   60.7088   31.2095   48.1202 H   0  0  0  0  0  0  0  0  0  0  0  0
   61.8329   31.0979   46.6669 H   0  0  0  0  0  0  0  0  0  0  0  0
   60.6242   33.0868   51.0625 H   0  0  0  0  0  0  0  0  0  0  0  0
   58.4784   33.8838   53.5234 H   0  0  0  0  0  0  0  0  0  0  0  0
   59.5436   34.1594   52.1035 H   0  0  0  0  0  0  0  0  0  0  0  0
   57.8641   34.7965   52.1035 H   0  0  0  0  0  0  0  0  0  0  0  0
  1  2  1  0
  2  3  1  0
  3  4  2  0
  4  5  1  0
  5  6  2  0
  6  7  1  0
  7  8  2  0
  7  9  1  0
  9 10  1  0
 10 11  1  0
 11 12  1  0
 13 12  1  6
 13 14  1  0
 14 15  1  0
 15 16  1  0
 16 17  1  0
 17 18  1  0
 18 19  1  0
 19 20  1  0
 19 21  1  0
 17 22  1  0
 13 23  1  0
  6 24  1  0
 24 25  2  0
 25 26  1  0
 26 27  1  0
 25  3  1  0
 23  9  1  0
 22 13  1  0
  1 28  1  0
  1 29  1  0
  1 30  1  0
  4 31  1  0
  5 32  1  0
  9 33  1  6
 10 34  1  0
 10 35  1  0
 11 36  1  0
 11 37  1  0
 12 38  1  0
 12 39  1  0
 14 40  1  0
 14 41  1  0
 15 42  1  0
 15 43  1  0
 16 44  1  0
 16 45  1  0
 18 46  1  0
 18 47  1  0
 19 48  1  0
 20 49  1  0
 20 50  1  0
 20 51  1  0
 21 52  1  0
 21 53  1  0
 21 54  1  0
 22 55  1  0
 22 56  1  0
 23 57  1  0
 23 58  1  0
 24 59  1  0
 27 60  1  0
 27 61  1  0
 27 62  1  0
M  CHG  1   9   1
M  END
>  <UniqueID>  (28) 
26

>  <SMILES>  (28) 
COc1ccc(C(=O)[N@@H+]2CCC[C@]3(CCCN(CC(C)C)C3)C2)cc1OC

>  <Energy>  (28) 
86.54549598985328

>  <Genealogy>  (28) 
COc1ccc(C(=O)[NH+]2CCCC3(CCCN(CC(C)C)C3)C2)cc1OC (protonated)
COc1ccc(C(=O)[N@@H+]2CCC[C@]3(CCCN(CC(C)C)C3)C2)cc1OC (chirality)
COc1ccc(C(=O)[N@@H+]2CCC[C@]3(CCCN(CC(C)C)C3)C2)cc1OC (3D coordinates assigned)
COc1ccc(C(=O)[N@@H+]2CCC[C@]3(CCCN(CC(C)C)C3)C2)cc1OC (nonaromatic ring conformer: 86.54549598985328 kcal/mol)

>  <smiles>  (28) 
COc1ccc(C(=O)N2CCCC3(CCCN(CC(C)C)C3)C2)cc1OC

>  <score_type>  (28) 
oracle

>  <origin>  (28) 
adg

>  <m_score__min__energy>  (28) 
-6.9100000000000001

>  <m_primary>  (28) 
energy

$$$$
28:0
     RDKit          3D

 60 63  0  0  0  0  0  0  0  0999 V2000
   66.1910   32.4000   50.5640 C   0  0  0  0  0  0  0  0  0  0  0  0
   65.6510   32.9780   49.3800 O   0  0  0  0  0  0  0  0  0  0  0  0
   64.2790   33.1080   49.1170 C   0  0  0  0  0  0  0  0  0  0  0  0
   63.6950   32.6640   47.9130 C   0  0  0  0  0  0  0  0  0  0  0  0
   62.3210   32.8090   47.7010 C   0  0  0  0  0  0  0  0  0  0  0  0
   61.5140   33.4000   48.6830 C   0  0  0  0  0  0  0  0  0  0  0  0
   59.7750   33.5580   48.4460 S   0  0  0  0  0  0  0  0  0  0  0  0
   59.3370   34.9670   48.7370 O   0  0  0  0  0  0  0  0  0  0  0  0
   59.0760   32.6270   49.3970 O   0  0  0  0  0  0  0  0  0  0  0  0
   59.3550   33.1410   46.8010 N   0  0  0  0  0  0  0  0  0  0  0  0
   59.8420   34.1910   45.8790 C   0  0  0  0  0  0  0  0  0  0  0  0
   59.2110   34.0510   44.4920 C   0  0  0  0  0  0  0  0  0  0  0  0
   57.6820   34.2150   44.5510 C   0  0  0  0  0  0  0  0  0  0  0  0
   57.1100   33.9190   45.9480 C   0  0  0  0  0  0  0  0  0  0  0  0
   57.9060   32.8130   46.6790 C   0  0  1  0  0  0  0  0  0  0  0  0
   57.7620   31.4800   45.9910 C   0  0  0  0  0  0  0  0  0  0  0  0
   58.5080   30.3410   46.2280 C   0  0  0  0  0  0  0  0  0  0  0  0
   57.9970   29.4250   45.3260 C   0  0  0  0  0  0  0  0  0  0  0  0
   58.4250   28.0280   45.1380 C   0  0  0  0  0  0  0  0  0  0  0  0
   59.6320   27.7290   45.3580 O   0  0  0  0  0  0  0  0  0  0  0  0
   57.5000   27.0160   44.7050 N   0  0  0  0  0  0  0  0  0  0  0  0
   57.9060   25.6170   44.5230 C   0  0  0  0  0  0  0  0  0  0  0  0
   58.4830   25.0340   45.8390 C   0  0  0  0  0  0  0  0  0  0  0  0
   58.4360   23.4920   45.9040 C   0  0  0  0  0  0  0  0  0  0  0  0
   58.3790   22.8530   44.5120 C   0  0  0  0  0  0  0  0  0  0  0  0
   57.1420   23.3230   43.7190 C   0  0  0  0  0  0  0  0  0  0  0  0
   56.7160   24.7700   44.0420 C   0  0  0  0  0  0  0  0  0  0  0  0
   57.0230   30.0090   44.5990 N   0  0  0  0  0  0  0  0  0  0  0  0
   56.9100   31.2330   45.0230 O   0  0  0  0  0  0  0  0  0  0  0  0
   62.0920   33.8470   49.8770 C   0  0  0  0  0  0  0  0  0  0  0  0
   63.4660   33.7000   50.0910 C   0  0  0  0  0  0  0  0  0  0  0  0
   65.7413   32.8813   51.4450 H   0  0  0  0  0  0  0  0  0  0  0  0
   65.9681   31.3229   50.5808 H   0  0  0  0  0  0  0  0  0  0  0  0
   67.2807   32.5492   50.5808 H   0  0  0  0  0  0  0  0  0  0  0  0
   64.3232   32.2016   47.1374 H   0  0  0  0  0  0  0  0  0  0  0  0
   61.8715   32.4581   46.7603 H   0  0  0  0  0  0  0  0  0  0  0  0
   59.5844   35.1776   46.2917 H   0  0  0  0  0  0  0  0  0  0  0  0
   60.9320   34.0840   45.7764 H   0  0  0  0  0  0  0  0  0  0  0  0
   59.6284   34.8235   43.8294 H   0  0  0  0  0  0  0  0  0  0  0  0
   59.4365   33.0447   44.1093 H   0  0  0  0  0  0  0  0  0  0  0  0
   57.4276   35.2498   44.2779 H   0  0  0  0  0  0  0  0  0  0  0  0
   57.2414   33.4910   43.8498 H   0  0  0  0  0  0  0  0  0  0  0  0
   57.1475   34.8394   46.5491 H   0  0  0  0  0  0  0  0  0  0  0  0
   56.0756   33.5662   45.8232 H   0  0  0  0  0  0  0  0  0  0  0  0
   57.4748   32.7525   47.6892 H   0  0  0  0  0  0  0  0  0  0  0  0
   59.3163   30.1970   46.9601 H   0  0  0  0  0  0  0  0  0  0  0  0
   56.5010   27.2760   44.5660 H   0  0  0  0  0  0  0  0  0  0  0  0
   58.6942   25.5865   43.7563 H   0  0  0  0  0  0  0  0  0  0  0  0
   59.5313   25.3543   45.9312 H   0  0  0  0  0  0  0  0  0  0  0  0
   57.8569   25.4111   46.6611 H   0  0  0  0  0  0  0  0  0  0  0  0
   59.3372   23.1321   46.4219 H   0  0  0  0  0  0  0  0  0  0  0  0
   57.5213   23.2055   46.4437 H   0  0  0  0  0  0  0  0  0  0  0  0
   59.2861   23.1303   43.9550 H   0  0  0  0  0  0  0  0  0  0  0  0
   58.3118   21.7623   44.6377 H   0  0  0  0  0  0  0  0  0  0  0  0
   57.3723   23.2595   42.6452 H   0  0  0  0  0  0  0  0  0  0  0  0
   56.3061   22.6683   44.0064 H   0  0  0  0  0  0  0  0  0  0  0  0
   56.2947   25.2288   43.1354 H   0  0  0  0  0  0  0  0  0  0  0  0
   55.9693   24.7366   44.8490 H   0  0  0  0  0  0  0  0  0  0  0  0
   61.4636   34.3152   50.6490 H   0  0  0  0  0  0  0  0  0  0  0  0
   63.9119   34.0525   51.0327 H   0  0  0  0  0  0  0  0  0  0  0  0
  1  2  1  0
  2  3  1  0
  3  4  2  0
  4  5  1  0
  5  6  2  0
  6  7  1  0
  7  8  2  0
  7  9  2  0
  7 10  1  0
 10 11  1  0
 11 12  1  0
 12 13  1  0
 13 14  1  0
 14 15  1  0
 15 16  1  0
 16 17  2  0
 17 18  1  0
 18 19  1  0
 19 20  2  0
 19 21  1  0
 21 22  1  0
 22 23  1  0
 23 24  1  0
 24 25  1  0
 25 26  1  0
 26 27  1  0
 18 28  2  0
 28 29  1  0
  6 30  1  0
 30 31  2  0
 31  3  1  0
 15 10  1  0
 29 16  1  0
 27 22  1  0
  1 32  1  0
  1 33  1  0
  1 34  1  0
  4 35  1  0
  5 36  1  0
 11 37  1  0
 11 38  1  0
 12 39  1  0
 12 40  1  0
 13 41  1  0
 13 42  1  0
 14 43  1  0
 14 44  1  0
 15 45  1  1
 17 46  1  0
 21 47  1  0
 22 48  1  0
 23 49  1  0
 23 50  1  0
 24 51  1  0
 24 52  1  0
 25 53  1  0
 25 54  1  0
 26 55  1  0
 26 56  1  0
 27 57  1  0
 27 58  1  0
 30 59  1  0
 31 60  1  0
M  END
>  <UniqueID>  (29) 
27

>  <SMILES>  (29) 
COc1ccc(S(=O)(=O)N2CCCC[C@H]2c2cc(C(=O)NC3CCCCC3)no2)cc1

>  <Energy>  (29) 
97.3442044026819

>  <Genealogy>  (29) 
COc1ccc(S(=O)(=O)N2CCCC[C@H]2c2cc(C(=O)NC3CCCCC3)no2)cc1 (chirality)
COc1ccc(S(=O)(=O)N2CCCC[C@H]2c2cc(C(=O)NC3CCCCC3)no2)cc1 (3D coordinates assigned)
COc1ccc(S(=O)(=O)N2CCCC[C@H]2c2cc(C(=O)NC3CCCCC3)no2)cc1 (nonaromatic ring conformer: 97.3442044026819 kcal/mol)

>  <smiles>  (29) 
COc1ccc(S(=O)(=O)N2CCCCC2c2cc(C(=O)NC3CCCCC3)no2)cc1

>  <score_type>  (29) 
oracle

>  <origin>  (29) 
adg

>  <m_score__min__energy>  (29) 
-9.9600000000000009

>  <m_primary>  (29) 
energy

$$$$
29:0
     RDKit          3D

 32 34  0  0  0  0  0  0  0  0999 V2000
   57.3880   25.5860   47.1140 C   0  0  0  0  0  0  0  0  0  0  0  0
   58.5030   26.4250   47.0890 C   0  0  0  0  0  0  0  0  0  0  0  0
   58.4830   27.5880   46.3150 C   0  0  0  0  0  0  0  0  0  0  0  0
   57.3360   27.8980   45.5620 C   0  0  0  0  0  0  0  0  0  0  0  0
   57.2440   29.1210   44.7300 C   0  0  0  0  0  0  0  0  0  0  0  0
   57.6690   30.3010   45.2560 N   0  0  0  0  0  0  0  0  0  0  0  0
   57.6090   31.4670   44.5560 C   0  0  0  0  0  0  0  0  0  0  0  0
   58.0790   32.6860   45.1620 N   0  0  0  0  0  0  0  0  0  0  0  0
   57.8040   33.0320   46.5460 C   0  0  0  0  0  0  0  0  0  0  0  0
   58.6090   34.2930   46.8240 C   0  0  0  0  0  0  0  0  0  0  0  0
   58.9850   34.8590   45.4570 C   0  0  0  0  0  0  0  0  0  0  0  0
   58.8640   33.7000   44.4770 C   0  0  0  0  0  0  0  0  0  0  0  0
   57.0900   31.4490   43.2550 C   0  0  0  0  0  0  0  0  0  0  0  0
   56.6440   30.2380   42.7300 C   0  0  0  0  0  0  0  0  0  0  0  0
   56.7200   29.1000   43.4680 N   0  0  0  0  0  0  0  0  0  0  0  0
   56.2600   27.0650   45.6200 N   0  0  0  0  0  0  0  0  0  0  0  0
   56.2600   25.9290   46.3680 C   0  0  0  0  0  0  0  0  0  0  0  0
   57.3984   24.6648   47.7150 H   0  0  0  0  0  0  0  0  0  0  0  0
   59.3966   26.1709   47.6780 H   0  0  0  0  0  0  0  0  0  0  0  0
   59.3569   28.2557   46.2946 H   0  0  0  0  0  0  0  0  0  0  0  0
   56.7301   33.2239   46.6871 H   0  0  0  0  0  0  0  0  0  0  0  0
   58.0792   32.2160   47.2304 H   0  0  0  0  0  0  0  0  0  0  0  0
   58.0017   35.0188   47.3848 H   0  0  0  0  0  0  0  0  0  0  0  0
   59.5006   34.0774   47.4311 H   0  0  0  0  0  0  0  0  0  0  0  0
   58.2972   35.6704   45.1766 H   0  0  0  0  0  0  0  0  0  0  0  0
   60.0011   35.2803   45.4603 H   0  0  0  0  0  0  0  0  0  0  0  0
   58.3527   34.0256   43.5591 H   0  0  0  0  0  0  0  0  0  0  0  0
   59.8506   33.3164   44.1781 H   0  0  0  0  0  0  0  0  0  0  0  0
   57.0357   32.3725   42.6598 H   0  0  0  0  0  0  0  0  0  0  0  0
   56.2280   30.2032   41.7123 H   0  0  0  0  0  0  0  0  0  0  0  0
   56.3430   28.2210   43.0520 H   0  0  0  0  0  0  0  0  0  0  0  0
   55.3712   25.2811   46.3848 H   0  0  0  0  0  0  0  0  0  0  0  0
  1  2  2  0
  2  3  1  0
  3  4  2  0
  4  5  1  0
  5  6  2  0
  6  7  1  0
  7  8  1  0
  8  9  1  0
  9 10  1  0
 10 11  1  0
 11 12  1  0
  7 13  2  0
 13 14  1  0
 14 15  2  0
  4 16  1  0
 16 17  2  0
 17  1  1  0
 15  5  1  0
 12  8  1  0
  1 18  1  0
  2 19  1  0
  3 20  1  0
  9 21  1  0
  9 22  1  0
 10 23  1  0
 10 24  1  0
 11 25  1  0
 11 26  1  0
 12 27  1  0
 12 28  1  0
 13 29  1  0
 14 30  1  0
 15 31  1  0
 17 32  1  0
M  CHG  1  15   1
M  END
>  <UniqueID>  (30) 
28

>  <SMILES>  (30) 
c1ccc(-c2nc(N3CCCC3)cc[nH+]2)nc1

>  <Energy>  (30) 
36.81842855485873

>  <Genealogy>  (30) 
c1ccc(-c2nc(N3CCCC3)cc[nH+]2)nc1 (protonated)
c1ccc(-c2nc(N3CCCC3)cc[nH+]2)nc1 (3D coordinates assigned)
c1ccc(-c2nc(N3CCCC3)cc[nH+]2)nc1 (nonaromatic ring conformer: 36.81842855485873 kcal/mol)

>  <smiles>  (30) 
c1ccc(-c2nccc(N3CCCC3)n2)nc1

>  <score_type>  (30) 
oracle

>  <origin>  (30) 
adg

>  <m_score__min__energy>  (30) 
-5.3200000000000003

>  <m_primary>  (30) 
energy

$$$$
30:0
     RDKit          3D

 30 31  0  0  0  0  0  0  0  0999 V2000
   54.4089   23.0966   45.6792 H   0  0  0  0  0  0  0  0  0  0  0  0
   55.1620   23.8750   45.4870 C   0  0  0  0  0  0  0  0  0  0  0  0
   55.0810   25.1230   46.0210 N   0  0  0  0  0  0  0  0  0  0  0  0
   56.1160   25.8990   45.6340 C   0  0  0  0  0  0  0  0  0  0  0  0
   56.2930   27.1360   45.9930 N   0  0  0  0  0  0  0  0  0  0  0  0
   56.8560   28.2300   45.2460 C   0  0  0  0  0  0  0  0  0  0  0  0
   56.2020   29.3050   45.1900 O   0  0  0  0  0  0  0  0  0  0  0  0
   58.2350   28.2150   44.6370 C   0  0  0  0  0  0  0  0  0  0  0  0
   58.1793   28.6096   43.6117 H   0  0  0  0  0  0  0  0  0  0  0  0
   58.6040   27.1787   44.6327 H   0  0  0  0  0  0  0  0  0  0  0  0
   59.3940   29.2400   45.6090 S   0  0  0  0  0  0  0  0  0  0  0  0
   58.7810   30.8110   45.0000 C   0  0  0  0  0  0  0  0  0  0  0  0
   58.7080   31.8770   45.8410 N   0  0  0  0  0  0  0  0  0  0  0  0
   58.2340   33.0760   45.4140 C   0  0  0  0  0  0  0  0  0  0  0  0
   58.1280   34.2200   46.3710 C   0  0  0  0  0  0  0  0  0  0  0  0
   58.1632   33.8396   47.4025 H   0  0  0  0  0  0  0  0  0  0  0  0
   58.9657   34.9139   46.2072 H   0  0  0  0  0  0  0  0  0  0  0  0
   57.1771   34.7481   46.2072 H   0  0  0  0  0  0  0  0  0  0  0  0
   57.8200   33.2240   44.0870 C   0  0  0  0  0  0  0  0  0  0  0  0
   57.4181   34.1831   43.7285 H   0  0  0  0  0  0  0  0  0  0  0  0
   57.9270   32.1280   43.2240 C   0  0  0  0  0  0  0  0  0  0  0  0
   57.4650   32.2410   41.8020 C   0  0  0  0  0  0  0  0  0  0  0  0
   56.3967   32.5023   41.7832 H   0  0  0  0  0  0  0  0  0  0  0  0
   58.0431   33.0242   41.2898 H   0  0  0  0  0  0  0  0  0  0  0  0
   57.6163   31.2794   41.2898 H   0  0  0  0  0  0  0  0  0  0  0  0
   58.3920   30.9380   43.7020 N   0  0  0  0  0  0  0  0  0  0  0  0
   58.4490   30.1080   43.0690 H   0  0  0  0  0  0  0  0  0  0  0  0
   57.1860   25.0720   44.6360 S   0  0  0  0  0  0  0  0  0  0  0  0
   56.2710   23.6620   44.6800 C   0  0  0  0  0  0  0  0  0  0  0  0
   56.6900   22.0500   43.7560 Br  0  0  0  0  0  0  0  0  0  0  0  0
  1  2  1  0
  2  3  1  0
  3  4  1  0
  4  5  2  0
  5  6  1  0
  6  7  2  0
  6  8  1  0
  8  9  1  0
  8 10  1  0
  8 11  1  0
 11 12  1  0
 12 13  2  0
 13 14  1  0
 14 15  1  0
 15 16  1  0
 15 17  1  0
 15 18  1  0
 14 19  2  0
 19 20  1  0
 19 21  1  0
 21 22  1  0
 22 23  1  0
 22 24  1  0
 22 25  1  0
 21 26  2  0
 26 27  1  0
  4 28  1  0
 28 29  1  0
 29 30  1  0
 29  2  2  0
 26 12  1  0
M  CHG  2   3  -1  26   1
M  END
>  <UniqueID>  (31) 
29

>  <SMILES>  (31) 
Cc1cc(C)[nH+]c(SCC(=O)/N=c2\[n-]cc(Br)s2)n1

>  <Energy>  (31) 
56.07017564550964

>  <Genealogy>  (31) 
Cc1cc(C)[nH+]c(SCC(=O)N=c2[n-]cc(Br)s2)n1 (protonated)
Cc1cc(C)[nH+]c(SCC(=O)/N=c2\[n-]cc(Br)s2)n1 (cis-trans isomerization)
Cc1cc(C)[nH+]c(SCC(=O)/N=c2\[n-]cc(Br)s2)n1 (3D coordinates assigned)
Cc1cc(C)[nH+]c(SCC(=O)/N=c2\[n-]cc(Br)s2)n1 (optimized conformer: 56.07017564550964 kcal/mol)

>  <smiles>  (31) 
Cc1cc(C)nc(SCC(=O)N=c2[nH]cc(Br)s2)n1

>  <score_type>  (31) 
oracle

>  <origin>  (31) 
adg

>  <m_score__min__energy>  (31) 
-8.2400000000000002

>  <m_primary>  (31) 
energy

$$$$
31:0
     RDKit          3D

 37 39  0  0  0  0  0  0  0  0999 V2000
   56.4900   22.1120   48.2700 H   0  0  0  0  0  0  0  0  0  0  0  0
   56.4570   30.4970   44.4330 N   0  0  0  0  0  0  0  0  0  0  0  0
   57.0720   29.5560   45.0840 C   0  0  0  0  0  0  0  0  0  0  0  0
   57.0370   25.0360   46.9690 N   0  0  0  0  0  0  0  0  0  0  0  0
   56.4260   25.9970   46.2250 C   0  0  0  0  0  0  0  0  0  0  0  0
   57.0890   27.3050   45.9960 C   0  0  0  0  0  0  0  0  0  0  0  0
   58.3880   27.5430   46.4780 C   0  0  0  0  0  0  0  0  0  0  0  0
   58.9233   26.7573   47.0313 H   0  0  0  0  0  0  0  0  0  0  0  0
   58.9990   28.7830   46.2520 C   0  0  0  0  0  0  0  0  0  0  0  0
   60.3790   29.0490   46.7600 C   0  0  0  0  0  0  0  0  0  0  0  0
   60.3714   29.0475   47.8600 H   0  0  0  0  0  0  0  0  0  0  0  0
   61.0607   28.2657   46.3970 H   0  0  0  0  0  0  0  0  0  0  0  0
   60.7207   30.0295   46.3970 H   0  0  0  0  0  0  0  0  0  0  0  0
   58.3310   29.7500   45.5680 N   0  0  0  0  0  0  0  0  0  0  0  0
   56.4350   23.8370   47.1740 C   0  0  0  0  0  0  0  0  0  0  0  0
   57.0220   22.9230   47.8770 N   0  0  0  0  0  0  0  0  0  0  0  0
   57.1320   31.6070   43.7690 C   0  0  0  0  0  0  0  0  0  0  0  0
   57.9374   31.2176   43.1290 H   0  0  0  0  0  0  0  0  0  0  0  0
   56.4105   32.1604   43.1500 H   0  0  0  0  0  0  0  0  0  0  0  0
   57.7100   32.5180   44.7990 C   0  0  0  0  0  0  0  0  0  0  0  0
   57.3520   32.4980   46.1020 N   0  0  0  0  0  0  0  0  0  0  0  0
   57.9530   33.4400   46.8270 N   0  0  0  0  0  0  0  0  0  0  0  0
   58.7750   34.2300   46.1000 C   0  0  0  0  0  0  0  0  0  0  0  0
   59.6090   35.3160   46.6880 C   0  0  0  0  0  0  0  0  0  0  0  0
   59.5650   35.2587   47.7856 H   0  0  0  0  0  0  0  0  0  0  0  0
   60.6512   35.1985   46.3562 H   0  0  0  0  0  0  0  0  0  0  0  0
   59.2265   36.2925   46.3562 H   0  0  0  0  0  0  0  0  0  0  0  0
   58.8050   33.7600   44.4830 S   0  0  0  0  0  0  0  0  0  0  0  0
   56.4310   28.3290   45.2920 C   0  0  0  0  0  0  0  0  0  0  0  0
   55.4142   28.1662   44.9053 H   0  0  0  0  0  0  0  0  0  0  0  0
   55.2010   25.7430   45.6910 N   0  0  0  0  0  0  0  0  0  0  0  0
   54.5900   24.5500   45.9050 C   0  0  0  0  0  0  0  0  0  0  0  0
   53.2640   24.2680   45.2820 C   0  0  0  0  0  0  0  0  0  0  0  0
   52.5145   24.1086   46.0712 H   0  0  0  0  0  0  0  0  0  0  0  0
   52.9631   25.1222   44.6577 H   0  0  0  0  0  0  0  0  0  0  0  0
   53.3367   23.3652   44.6577 H   0  0  0  0  0  0  0  0  0  0  0  0
   55.2140   23.5930   46.6370 N   0  0  0  0  0  0  0  0  0  0  0  0
  1  2  1  0
  2  3  2  0
  3  4  1  0
  4  5  2  0
  5  6  1  0
  6  7  1  0
  7  8  1  0
  7  9  2  0
  9 10  1  0
 10 11  1  0
 10 12  1  0
 10 13  1  0
  9 14  1  0
 14 15  1  0
 15 16  2  0
 16 17  1  0
 17 18  1  0
 17 19  1  0
 17 20  1  0
 20 21  2  0
 21 22  1  0
 22 23  2  0
 23 24  1  0
 24 25  1  0
 24 26  1  0
 24 27  1  0
 23 28  1  0
 15 29  1  0
 29 30  1  0
  5 31  1  0
 31 32  1  0
 32 33  1  0
 33 34  1  0
 33 35  1  0
 33 36  1  0
 32 37  2  0
 37  3  1  0
 29  6  2  0
 28 20  1  0
M  CHG  2  14  -1  31  -1
M  END
>  <UniqueID>  (32) 
30

>  <SMILES>  (32) 
[H]/N=c1/nc(C)[n-]c(-c2cc(C)[n-]/c(=N\Cc3nnc(C)s3)c2)n1

>  <Energy>  (32) 
68.66051799338194

>  <Genealogy>  (32) 
Cc1cc(-c2nc(=N)nc(C)[n-]2)cc(=NCc2nnc(C)s2)[n-]1 (protonated)
[H]/N=c1/nc(C)[n-]c(-c2cc(C)[n-]/c(=N\Cc3nnc(C)s3)c2)n1 (cis-trans isomerization)
[H]/N=c1/nc(C)[n-]c(-c2cc(C)[n-]/c(=N\Cc3nnc(C)s3)c2)n1 (3D coordinates assigned)
[H]/N=c1/nc(C)[n-]c(-c2cc(C)[n-]/c(=N\Cc3nnc(C)s3)c2)n1 (optimized conformer: 68.66051799338194 kcal/mol)

>  <smiles>  (32) 
Cc1cc(-c2nc(=N)nc(C)[nH]2)cc(=NCc2nnc(C)s2)[nH]1

>  <score_type>  (32) 
oracle

>  <origin>  (32) 
adg

>  <m_score__min__energy>  (32) 
-10.640000000000001

>  <m_primary>  (32) 
energy

$$$$
32:0
     RDKit          3D

 42 44  0  0  0  0  0  0  0  0999 V2000
   59.5810   34.0470   49.4050 C   0  0  0  0  0  0  0  0  0  0  0  0
   60.0480   34.6050   48.1050 C   0  0  0  0  0  0  0  0  0  0  0  0
   59.7280   33.7870   46.9580 N   0  0  0  0  0  0  0  0  0  0  0  0
   58.7080   34.3260   46.1320 C   0  0  0  0  0  0  0  0  0  0  0  0
   58.2870   33.3470   45.1020 C   0  0  0  0  0  0  0  0  0  0  0  0
   58.5760   33.4780   43.7590 C   0  0  0  0  0  0  0  0  0  0  0  0
   58.1400   32.4910   42.8670 C   0  0  0  0  0  0  0  0  0  0  0  0
   57.4210   31.3860   43.3210 C   0  0  0  0  0  0  0  0  0  0  0  0
   57.1320   31.2590   44.6810 C   0  0  0  0  0  0  0  0  0  0  0  0
   57.5660   32.2370   45.5510 C   0  0  0  0  0  0  0  0  0  0  0  0
   56.4070   30.0760   44.8800 O   0  0  0  0  0  0  0  0  0  0  0  0
   56.6280   29.3200   43.7000 C   0  0  0  0  0  0  0  0  0  0  0  0
   56.8690   30.2680   42.6760 O   0  0  0  0  0  0  0  0  0  0  0  0
   60.8560   33.2150   46.3070 C   0  0  0  0  0  0  0  0  0  0  0  0
   61.9540   32.8510   47.2410 C   0  0  0  0  0  0  0  0  0  0  0  0
   63.2400   33.3680   47.0390 C   0  0  0  0  0  0  0  0  0  0  0  0
   64.2590   33.0570   47.8610 N   0  0  0  0  0  0  0  0  0  0  0  0
   64.0410   32.2290   48.9060 C   0  0  0  0  0  0  0  0  0  0  0  0
   65.1970   31.9050   49.8000 C   0  0  0  0  0  0  0  0  0  0  0  0
   62.8070   31.7000   49.1450 N   0  0  0  0  0  0  0  0  0  0  0  0
   61.7790   32.0120   48.3180 C   0  0  0  0  0  0  0  0  0  0  0  0
   60.6310   31.4920   48.5820 N   0  0  0  0  0  0  0  0  0  0  0  0
   60.0469   34.6037   50.2315 H   0  0  0  0  0  0  0  0  0  0  0  0
   58.4869   34.1391   49.4717 H   0  0  0  0  0  0  0  0  0  0  0  0
   59.8644   32.9862   49.4717 H   0  0  0  0  0  0  0  0  0  0  0  0
   59.5813   35.5913   47.9658 H   0  0  0  0  0  0  0  0  0  0  0  0
   61.1455   34.6555   48.1598 H   0  0  0  0  0  0  0  0  0  0  0  0
   57.8405   34.5876   46.7558 H   0  0  0  0  0  0  0  0  0  0  0  0
   59.1020   35.2198   45.6262 H   0  0  0  0  0  0  0  0  0  0  0  0
   59.1422   34.3475   43.3937 H   0  0  0  0  0  0  0  0  0  0  0  0
   58.3674   32.5884   41.7952 H   0  0  0  0  0  0  0  0  0  0  0  0
   57.3395   32.1413   46.6232 H   0  0  0  0  0  0  0  0  0  0  0  0
   57.4995   28.6606   43.8248 H   0  0  0  0  0  0  0  0  0  0  0  0
   55.7675   28.6770   43.4631 H   0  0  0  0  0  0  0  0  0  0  0  0
   60.5307   32.3060   45.7798 H   0  0  0  0  0  0  0  0  0  0  0  0
   61.2537   33.9748   45.6181 H   0  0  0  0  0  0  0  0  0  0  0  0
   63.4210   34.0432   46.1896 H   0  0  0  0  0  0  0  0  0  0  0  0
   65.2070   33.4740   47.6630 H   0  0  0  0  0  0  0  0  0  0  0  0
   64.8837   31.9928   50.8508 H   0  0  0  0  0  0  0  0  0  0  0  0
   65.5360   30.8772   49.6031 H   0  0  0  0  0  0  0  0  0  0  0  0
   66.0208   32.6069   49.6031 H   0  0  0  0  0  0  0  0  0  0  0  0
   59.7590   31.9020   48.2210 H   0  0  0  0  0  0  0  0  0  0  0  0
  1  2  1  0
  2  3  1  0
  3  4  1  0
  4  5  1  0
  5  6  2  0
  6  7  1  0
  7  8  2  0
  8  9  1  0
  9 10  2  0
  9 11  1  0
 11 12  1  0
 12 13  1  0
  3 14  1  0
 14 15  1  0
 15 16  2  0
 16 17  1  0
 17 18  1  0
 18 19  1  0
 18 20  2  0
 20 21  1  0
 21 22  2  3
 10  5  1  0
 21 15  1  0
 13  8  1  0
  1 23  1  0
  1 24  1  0
  1 25  1  0
  2 26  1  0
  2 27  1  0
  4 28  1  0
  4 29  1  0
  6 30  1  0
  7 31  1  0
 10 32  1  0
 12 33  1  0
 12 34  1  0
 14 35  1  0
 14 36  1  0
 16 37  1  0
 17 38  1  0
 19 39  1  0
 19 40  1  0
 19 41  1  0
 22 42  1  0
M  END
>  <smiles>  (33) 
CCN(Cc1ccc2c(c1)OCO2)Cc1c[nH]c(C)nc1=N

>  <score_type>  (33) 
oracle

>  <origin>  (33) 
adg

>  <m_score__min__energy>  (33) 
-6.8399999999999999

>  <m_primary>  (33) 
energy

$$$$
33:0
     RDKit          3D

 45 46  0  0  0  0  0  0  0  0999 V2000
   64.5650   32.1130   49.7660 C   0  0  0  0  0  0  0  0  0  0  0  0
   64.4910   33.1440   48.6460 C   0  0  0  0  0  0  0  0  0  0  0  0
   63.0610   33.4070   48.2570 C   0  0  0  0  0  0  0  0  0  0  0  0
   62.1580   33.9360   49.1920 C   0  0  0  0  0  0  0  0  0  0  0  0
   60.8380   34.2100   48.8230 C   0  0  0  0  0  0  0  0  0  0  0  0
   60.4000   33.9580   47.5130 C   0  0  0  0  0  0  0  0  0  0  0  0
   58.9710   34.2610   47.1140 C   0  0  0  0  0  0  0  0  0  0  0  0
   58.1040   33.0580   47.1400 N   0  0  2  0  0  0  0  0  0  0  0  0
   58.5450   32.0030   48.0890 C   0  0  0  0  0  0  0  0  0  0  0  0
   58.2650   32.3070   49.5680 C   0  0  0  0  0  0  0  0  0  0  0  0
   57.8180   32.4200   45.5230 S   0  0  0  0  0  0  0  0  0  0  0  0
   58.5110   33.3250   44.5400 O   0  0  0  0  0  0  0  0  0  0  0  0
   56.3560   32.4420   45.1750 O   0  0  0  0  0  0  0  0  0  0  0  0
   58.4680   30.7790   45.3050 C   0  0  0  0  0  0  0  0  0  0  0  0
   59.7540   30.5010   45.8000 C   0  0  0  0  0  0  0  0  0  0  0  0
   60.2800   29.2100   45.7370 C   0  0  0  0  0  0  0  0  0  0  0  0
   59.5250   28.1740   45.1900 C   0  0  0  0  0  0  0  0  0  0  0  0
   58.2440   28.4290   44.6970 C   0  0  0  0  0  0  0  0  0  0  0  0
   57.7080   29.7250   44.7380 C   0  0  0  0  0  0  0  0  0  0  0  0
   56.3950   29.9400   44.2150 N   0  0  0  0  0  0  0  0  0  0  0  0
   56.2600   30.2790   43.0220 O   0  0  0  0  0  0  0  0  0  0  0  0
   55.3140   29.4120   44.8810 O   0  0  0  0  0  0  0  0  0  0  0  0
   61.3140   33.4600   46.5690 C   0  0  0  0  0  0  0  0  0  0  0  0
   62.6340   33.1860   46.9380 C   0  0  0  0  0  0  0  0  0  0  0  0
   64.5282   32.6251   50.7388 H   0  0  0  0  0  0  0  0  0  0  0  0
   63.7142   31.4206   49.6838 H   0  0  0  0  0  0  0  0  0  0  0  0
   65.5059   31.5492   49.6838 H   0  0  0  0  0  0  0  0  0  0  0  0
   64.9502   34.0829   48.9889 H   0  0  0  0  0  0  0  0  0  0  0  0
   65.0291   32.7529   47.7699 H   0  0  0  0  0  0  0  0  0  0  0  0
   62.4909   34.1361   50.2211 H   0  0  0  0  0  0  0  0  0  0  0  0
   60.1383   34.6254   49.5631 H   0  0  0  0  0  0  0  0  0  0  0  0
   58.5609   35.0059   47.8118 H   0  0  0  0  0  0  0  0  0  0  0  0
   58.9865   34.6381   46.0808 H   0  0  0  0  0  0  0  0  0  0  0  0
   57.1610   33.3680   47.4730 H   0  0  0  0  0  0  0  0  0  0  0  0
   58.0256   31.0692   47.8276 H   0  0  0  0  0  0  0  0  0  0  0  0
   59.6384   31.9351   47.9892 H   0  0  0  0  0  0  0  0  0  0  0  0
   58.8748   31.6449   50.2003 H   0  0  0  0  0  0  0  0  0  0  0  0
   58.5204   33.3554   49.7816 H   0  0  0  0  0  0  0  0  0  0  0  0
   57.1992   32.1385   49.7816 H   0  0  0  0  0  0  0  0  0  0  0  0
   60.3528   31.3108   46.2423 H   0  0  0  0  0  0  0  0  0  0  0  0
   61.2917   29.0098   46.1195 H   0  0  0  0  0  0  0  0  0  0  0  0
   59.9384   27.1556   45.1467 H   0  0  0  0  0  0  0  0  0  0  0  0
   57.6496   27.6065   44.2726 H   0  0  0  0  0  0  0  0  0  0  0  0
   60.9886   33.2847   45.5330 H   0  0  0  0  0  0  0  0  0  0  0  0
   63.3414   32.7955   46.1916 H   0  0  0  0  0  0  0  0  0  0  0  0
  1  2  1  0
  2  3  1  0
  3  4  2  0
  4  5  1  0
  5  6  2  0
  6  7  1  0
  7  8  1  0
  8  9  1  0
  9 10  1  0
  8 11  1  0
 11 12  2  0
 11 13  2  0
 11 14  1  0
 14 15  2  0
 15 16  1  0
 16 17  2  0
 17 18  1  0
 18 19  2  0
 19 20  1  0
 20 21  2  0
 20 22  1  0
  6 23  1  0
 23 24  2  0
 24  3  1  0
 19 14  1  0
  1 25  1  0
  1 26  1  0
  1 27  1  0
  2 28  1  0
  2 29  1  0
  4 30  1  0
  5 31  1  0
  7 32  1  0
  7 33  1  0
  8 34  1  1
  9 35  1  0
  9 36  1  0
 10 37  1  0
 10 38  1  0
 10 39  1  0
 15 40  1  0
 16 41  1  0
 17 42  1  0
 18 43  1  0
 23 44  1  0
 24 45  1  0
M  CHG  3   8   1  20   1  22  -1
M  END
>  <UniqueID>  (34) 
31

>  <SMILES>  (34) 
CCc1ccc(C[N@H+](CC)S(=O)(=O)c2ccccc2[N+](=O)[O-])cc1

>  <Energy>  (34) 
55.166196372856014

>  <Genealogy>  (34) 
CCc1ccc(C[NH+](CC)S(=O)(=O)c2ccccc2[N+](=O)[O-])cc1 (protonated)
CCc1ccc(C[N@H+](CC)S(=O)(=O)c2ccccc2[N+](=O)[O-])cc1 (chirality)
CCc1ccc(C[N@H+](CC)S(=O)(=O)c2ccccc2[N+](=O)[O-])cc1 (3D coordinates assigned)
CCc1ccc(C[N@H+](CC)S(=O)(=O)c2ccccc2[N+](=O)[O-])cc1 (optimized conformer: 55.166196372856014 kcal/mol)

>  <smiles>  (34) 
CCc1ccc(CN(CC)S(=O)(=O)c2ccccc2[N+](=O)[O-])cc1

>  <score_type>  (34) 
oracle

>  <origin>  (34) 
adg

>  <m_score__min__energy>  (34) 
-7.1699999999999999

>  <m_primary>  (34) 
energy

$$$$
34:0
     RDKit          3D

 25 27  0  0  0  0  0  0  0  0999 V2000
   55.5200   26.6420   45.9060 O   0  0  0  0  0  0  0  0  0  0  0  0
   56.5890   27.2990   45.8090 C   0  0  0  0  0  0  0  0  0  0  0  0
   57.7840   26.7510   46.1840 N   0  0  0  0  0  0  0  0  0  0  0  0
   58.9580   27.4590   46.0770 C   0  0  0  0  0  0  0  0  0  0  0  0
   58.9590   28.7370   45.5880 N   0  0  0  0  0  0  0  0  0  0  0  0
   57.7660   29.2680   45.2250 C   0  0  0  0  0  0  0  0  0  0  0  0
   56.6040   28.5950   45.3180 C   0  0  0  0  0  0  0  0  0  0  0  0
   55.6070   29.3760   44.8610 N   0  0  0  0  0  0  0  0  0  0  0  0
   56.1930   30.5190   44.4950 N   0  0  0  0  0  0  0  0  0  0  0  0
   57.5060   30.4770   44.7140 N   0  0  0  0  0  0  0  0  0  0  0  0
   58.4510   31.5330   44.3700 C   0  0  0  0  0  0  0  0  0  0  0  0
   58.8540   32.2920   45.6100 C   0  0  0  0  0  0  0  0  0  0  0  0
   59.8640   31.7690   46.4370 C   0  0  0  0  0  0  0  0  0  0  0  0
   60.2840   32.4670   47.5710 C   0  0  0  0  0  0  0  0  0  0  0  0
   59.7080   33.6970   47.8900 C   0  0  0  0  0  0  0  0  0  0  0  0
   58.7120   34.2350   47.0700 C   0  0  0  0  0  0  0  0  0  0  0  0
   58.2840   33.5450   45.9300 C   0  0  0  0  0  0  0  0  0  0  0  0
   57.0350   34.2820   44.9310 Cl  0  0  0  0  0  0  0  0  0  0  0  0
   59.9051   26.9936   46.3874 H   0  0  0  0  0  0  0  0  0  0  0  0
   59.3448   31.0859   43.9105 H   0  0  0  0  0  0  0  0  0  0  0  0
   57.9737   32.2268   43.6623 H   0  0  0  0  0  0  0  0  0  0  0  0
   60.3268   30.8025   46.1886 H   0  0  0  0  0  0  0  0  0  0  0  0
   61.0708   32.0462   48.2143 H   0  0  0  0  0  0  0  0  0  0  0  0
   60.0374   34.2431   48.7863 H   0  0  0  0  0  0  0  0  0  0  0  0
   58.2619   35.2065   47.3222 H   0  0  0  0  0  0  0  0  0  0  0  0
  1  2  2  0
  2  3  1  0
  3  4  1  0
  4  5  2  0
  5  6  1  0
  6  7  2  0
  7  8  1  0
  8  9  2  0
  9 10  1  0
 10 11  1  0
 11 12  1  0
 12 13  2  0
 13 14  1  0
 14 15  2  0
 15 16  1  0
 16 17  2  0
 17 18  1  0
  7  2  1  0
 17 12  1  0
 10  6  1  0
  4 19  1  0
 11 20  1  0
 11 21  1  0
 13 22  1  0
 14 23  1  0
 15 24  1  0
 16 25  1  0
M  CHG  1   3  -1
M  END
>  <UniqueID>  (35) 
32

>  <SMILES>  (35) 
O=c1[n-]cnc2c1nnn2Cc1ccccc1Cl

>  <Energy>  (35) 
76.80576506282128

>  <Genealogy>  (35) 
O=c1[n-]cnc2c1nnn2Cc1ccccc1Cl (protonated)
O=c1[n-]cnc2c1nnn2Cc1ccccc1Cl (3D coordinates assigned)
O=c1[n-]cnc2c1nnn2Cc1ccccc1Cl (optimized conformer: 76.80576506282128 kcal/mol)

>  <smiles>  (35) 
O=c1[nH]cnc2c1nnn2Cc1ccccc1Cl

>  <score_type>  (35) 
oracle

>  <origin>  (35) 
adg

>  <m_score__min__energy>  (35) 
-8.4499999999999993

>  <m_primary>  (35) 
energy

$$$$
35:0
     RDKit          3D

 43 47  0  0  1  0  0  0  0  0999 V2000
   56.6190   30.6230   41.9130 N   0  0  0  0  0  0  0  0  0  0  0  0
   56.8930   30.3390   42.9750 C   0  0  0  0  0  0  0  0  0  0  0  0
   57.2230   29.9690   44.2670 C   0  0  0  0  0  0  0  0  0  0  0  0
   57.7400   31.1210   45.0730 C   0  0  0  0  0  0  0  0  0  0  0  0
   57.8080   31.2720   46.3780 N   0  0  0  0  0  0  0  0  0  0  0  0
   58.3540   32.4930   46.6510 C   0  0  0  0  0  0  0  0  0  0  0  0
   58.6520   33.1610   47.8140 C   0  0  0  0  0  0  0  0  0  0  0  0
   59.2120   34.4160   47.6920 C   0  0  0  0  0  0  0  0  0  0  0  0
   59.4460   34.9370   46.4390 C   0  0  0  0  0  0  0  0  0  0  0  0
   59.1500   34.2730   45.2670 C   0  0  0  0  0  0  0  0  0  0  0  0
   58.5920   33.0260   45.3890 C   0  0  0  0  0  0  0  0  0  0  0  0
   58.2150   32.1830   44.4200 N   0  0  0  0  0  0  0  0  0  0  0  0
   57.2370   28.8380   44.9040 C   0  0  0  0  0  0  0  0  0  0  0  0
   56.1530   28.1530   45.2920 N   0  0  0  0  0  0  0  0  0  0  0  0
   56.5230   26.9760   45.8310 C   0  0  0  0  0  0  0  0  0  0  0  0
   55.8130   25.9660   46.3360 N   0  0  0  0  0  0  0  0  0  0  0  0
   56.4800   24.9020   46.7950 C   0  0  0  0  0  0  0  0  0  0  0  0
   57.8120   24.8500   46.7510 N   0  0  0  0  0  0  0  0  0  0  0  0
   58.5340   25.8510   46.2510 C   0  0  0  0  0  0  0  0  0  0  0  0
   59.7760   25.7250   46.2450 O   0  0  0  0  0  0  0  0  0  0  0  0
   57.9100   26.9500   45.7740 C   0  0  0  0  0  0  0  0  0  0  0  0
   58.3560   28.1570   45.1880 C   0  0  0  0  0  0  0  0  0  0  0  0
   59.5630   28.5520   45.3960 C   0  0  0  0  0  0  0  0  0  0  0  0
   60.1440   29.2030   46.5260 C   0  0  0  0  0  0  0  0  0  0  0  0
   61.0490   30.2800   46.4350 C   0  0  0  0  0  0  0  0  0  0  0  0
   61.4370   30.9770   47.5600 C   0  0  0  0  0  0  0  0  0  0  0  0
   60.9240   30.6050   48.7950 C   0  0  0  0  0  0  0  0  0  0  0  0
   60.0290   29.5490   48.9300 C   0  0  0  0  0  0  0  0  0  0  0  0
   59.6290   28.8350   47.7930 C   0  0  0  0  0  0  0  0  0  0  0  0
   58.4528   32.7147   48.7995 H   0  0  0  0  0  0  0  0  0  0  0  0
   59.4699   34.9967   48.5899 H   0  0  0  0  0  0  0  0  0  0  0  0
   59.8942   35.9391   46.3689 H   0  0  0  0  0  0  0  0  0  0  0  0
   59.3515   34.7214   44.2829 H   0  0  0  0  0  0  0  0  0  0  0  0
   58.2790   32.3250   43.3700 H   0  0  0  0  0  0  0  0  0  0  0  0
   55.1500   28.4290   45.2210 H   0  0  0  0  0  0  0  0  0  0  0  0
   54.7700   25.9860   46.3790 H   0  0  0  0  0  0  0  0  0  0  0  0
   55.9201   24.0542   47.2165 H   0  0  0  0  0  0  0  0  0  0  0  0
   60.2606   28.3562   44.5684 H   0  0  0  0  0  0  0  0  0  0  0  0
   61.4514   30.5686   45.4528 H   0  0  0  0  0  0  0  0  0  0  0  0
   62.1434   31.8164   47.4797 H   0  0  0  0  0  0  0  0  0  0  0  0
   61.2340   31.1610   49.6921 H   0  0  0  0  0  0  0  0  0  0  0  0
   59.6384   29.2766   49.9216 H   0  0  0  0  0  0  0  0  0  0  0  0
   58.9221   27.9971   47.8833 H   0  0  0  0  0  0  0  0  0  0  0  0
  1  2  3  0
  2  3  1  0
  3  4  1  0
  4  5  2  0
  5  6  1  0
  6  7  2  0
  7  8  1  0
  8  9  2  0
  9 10  1  0
 10 11  2  0
 11 12  1  0
  3 13  2  0
 13 14  1  0
 14 15  1  0
 15 16  1  0
 16 17  1  0
 17 18  2  0
 18 19  1  0
 19 20  2  0
 19 21  1  0
 21 22  1  0
 22 23  2  0
 23 24  1  0
 24 25  2  0
 25 26  1  0
 26 27  2  0
 27 28  1  0
 28 29  2  0
 12  4  1  0
 22 13  1  0
 29 24  1  0
 11  6  1  0
 21 15  2  0
  7 30  1  0
  8 31  1  0
  9 32  1  0
 10 33  1  0
 12 34  1  0
 14 35  1  0
 16 36  1  0
 17 37  1  0
 23 38  1  0
 25 39  1  0
 26 40  1  0
 27 41  1  0
 28 42  1  0
 29 43  1  0
M  END
>  <smiles>  (36) 
N#CC(c1nc2ccccc2[nH]1)=c1[nH]c2[nH]cnc(=O)c2c1=Cc1ccccc1

>  <score_type>  (36) 
oracle

>  <origin>  (36) 
adg

>  <m_score__min__energy>  (36) 
-9.0500000000000007

>  <m_primary>  (36) 
energy

$$$$
36:0
     RDKit          3D

 31 33  0  0  1  0  0  0  0  0999 V2000
   64.3050   33.0960   49.1150 C   0  0  0  0  0  0  0  0  0  0  0  0
   63.0520   33.3080   48.3880 C   0  0  0  0  0  0  0  0  0  0  0  0
   63.0290   33.5810   47.0360 C   0  0  0  0  0  0  0  0  0  0  0  0
   61.8410   33.7760   46.3710 C   0  0  0  0  0  0  0  0  0  0  0  0
   60.6030   33.7150   47.0010 C   0  0  0  0  0  0  0  0  0  0  0  0
   59.1490   33.9580   46.0740 S   0  0  0  0  0  0  0  0  0  0  0  0
   59.2560   35.0650   45.0720 O   0  0  0  0  0  0  0  0  0  0  0  0
   58.1710   34.5710   47.1160 O   0  0  0  0  0  0  0  0  0  0  0  0
   58.3730   32.5510   45.5660 N   0  0  0  0  0  0  0  0  0  0  0  0
   58.0320   32.2450   44.4150 C   0  0  0  0  0  0  0  0  0  0  0  0
   58.4660   32.9470   43.3550 N   0  0  0  0  0  0  0  0  0  0  0  0
   58.0890   32.6080   42.0880 C   0  0  0  0  0  0  0  0  0  0  0  0
   57.2630   31.5470   41.8850 N   0  0  0  0  0  0  0  0  0  0  0  0
   56.8070   30.8190   42.9200 C   0  0  0  0  0  0  0  0  0  0  0  0
   56.0110   29.7550   43.0390 N   0  0  0  0  0  0  0  0  0  0  0  0
   55.8960   29.4430   44.3470 C   0  0  0  0  0  0  0  0  0  0  0  0
   56.6360   30.3330   45.0220 N   0  0  0  0  0  0  0  0  0  0  0  0
   57.2020   31.1810   44.1850 C   0  0  0  0  0  0  0  0  0  0  0  0
   60.6290   33.4430   48.3480 C   0  0  0  0  0  0  0  0  0  0  0  0
   61.8340   33.2430   49.0310 C   0  0  0  0  0  0  0  0  0  0  0  0
   64.1110   33.1288   50.1973 H   0  0  0  0  0  0  0  0  0  0  0  0
   64.7229   32.1144   48.8470 H   0  0  0  0  0  0  0  0  0  0  0  0
   65.0225   33.8855   48.8470 H   0  0  0  0  0  0  0  0  0  0  0  0
   63.9764   33.6438   46.4806 H   0  0  0  0  0  0  0  0  0  0  0  0
   61.8716   33.9898   45.2924 H   0  0  0  0  0  0  0  0  0  0  0  0
   59.1050   33.7740   43.4800 H   0  0  0  0  0  0  0  0  0  0  0  0
   58.4534   33.1931   41.2308 H   0  0  0  0  0  0  0  0  0  0  0  0
   55.5480   29.2450   42.2320 H   0  0  0  0  0  0  0  0  0  0  0  0
   55.3085   28.6178   44.7759 H   0  0  0  0  0  0  0  0  0  0  0  0
   59.6807   33.3811   48.9020 H   0  0  0  0  0  0  0  0  0  0  0  0
   61.8088   33.0282   50.1095 H   0  0  0  0  0  0  0  0  0  0  0  0
  1  2  1  0
  2  3  2  0
  3  4  1  0
  4  5  2  0
  5  6  1  0
  6  7  2  0
  6  8  2  0
  6  9  1  0
  9 10  2  0
 10 11  1  0
 11 12  1  0
 12 13  2  0
 13 14  1  0
 14 15  1  0
 15 16  1  0
 16 17  2  0
 17 18  1  0
  5 19  1  0
 19 20  2  0
 20  2  1  0
 18 10  1  0
 18 14  2  0
  1 21  1  0
  1 22  1  0
  1 23  1  0
  3 24  1  0
  4 25  1  0
 11 26  1  0
 12 27  1  0
 15 28  1  0
 16 29  1  0
 19 30  1  0
 20 31  1  0
M  END
>  <smiles>  (37) 
Cc1ccc(S(=O)(=O)N=c2[nH]cnc3[nH]cnc23)cc1

>  <score_type>  (37) 
oracle

>  <origin>  (37) 
adg

>  <m_score__min__energy>  (37) 
-7.6100000000000003

>  <m_primary>  (37) 
energy

$$$$
37:0
     RDKit          3D

 31 32  0  0  0  0  0  0  0  0999 V2000
   55.1480   25.8990   46.8570 H   0  0  0  0  0  0  0  0  0  0  0  0
   55.5730   26.3000   45.9920 N   0  0  0  0  0  0  0  0  0  0  0  0
   56.6390   27.0310   46.0460 C   0  0  0  0  0  0  0  0  0  0  0  0
   57.0350   28.2260   44.9340 S   0  0  0  0  0  0  0  0  0  0  0  0
   58.4710   28.6220   45.7290 C   0  0  0  0  0  0  0  0  0  0  0  0
   59.3580   29.7620   45.3300 C   0  0  0  0  0  0  0  0  0  0  0  0
   60.3138   29.3634   44.9591 H   0  0  0  0  0  0  0  0  0  0  0  0
   58.8557   30.3425   44.5421 H   0  0  0  0  0  0  0  0  0  0  0  0
   59.6710   30.8350   46.7240 S   0  0  0  0  0  0  0  0  0  0  0  0
   61.0380   30.5430   47.2730 O   0  0  0  0  0  0  0  0  0  0  0  0
   58.6800   30.5260   47.8110 O   0  0  0  0  0  0  0  0  0  0  0  0
   59.5190   32.5420   46.2330 C   0  0  0  0  0  0  0  0  0  0  0  0
   60.3910   33.5180   46.7810 C   0  0  0  0  0  0  0  0  0  0  0  0
   61.6160   33.1290   47.9850 Cl  0  0  0  0  0  0  0  0  0  0  0  0
   60.2670   34.8610   46.4110 C   0  0  0  0  0  0  0  0  0  0  0  0
   60.9554   35.6086   46.8318 H   0  0  0  0  0  0  0  0  0  0  0  0
   59.2800   35.2590   45.5150 C   0  0  0  0  0  0  0  0  0  0  0  0
   59.1965   36.3160   45.2222 H   0  0  0  0  0  0  0  0  0  0  0  0
   58.3980   34.3190   44.9890 C   0  0  0  0  0  0  0  0  0  0  0  0
   57.6137   34.6403   44.2879 H   0  0  0  0  0  0  0  0  0  0  0  0
   58.5000   32.9690   45.3440 C   0  0  0  0  0  0  0  0  0  0  0  0
   57.2830   31.8850   44.6760 Cl  0  0  0  0  0  0  0  0  0  0  0  0
   58.5860   27.8050   46.8630 C   0  0  0  0  0  0  0  0  0  0  0  0
   59.6780   27.8950   47.7930 N   0  0  0  0  0  0  0  0  0  0  0  0
   60.0040   28.8280   48.1250 H   0  0  0  0  0  0  0  0  0  0  0  0
   60.3270   26.7150   48.3500 C   0  0  0  0  0  0  0  0  0  0  0  0
   60.2993   26.7654   49.4485 H   0  0  0  0  0  0  0  0  0  0  0  0
   59.7988   25.8116   48.0110 H   0  0  0  0  0  0  0  0  0  0  0  0
   61.3728   26.6773   48.0110 H   0  0  0  0  0  0  0  0  0  0  0  0
   57.5610   26.9210   47.0250 N   0  0  0  0  0  0  0  0  0  0  0  0
   57.4830   26.2380   47.8100 H   0  0  0  0  0  0  0  0  0  0  0  0
  1  2  1  0
  2  3  2  0
  3  4  1  0
  4  5  1  0
  5  6  1  0
  6  7  1  0
  6  8  1  0
  6  9  1  0
  9 10  2  0
  9 11  2  0
  9 12  1  0
 12 13  2  0
 13 14  1  0
 13 15  1  0
 15 16  1  0
 15 17  2  0
 17 18  1  0
 17 19  1  0
 19 20  1  0
 19 21  2  0
 21 22  1  0
  5 23  2  0
 23 24  1  0
 24 25  1  0
 24 26  1  0
 26 27  1  0
 26 28  1  0
 26 29  1  0
 23 30  1  0
 30 31  1  0
 30  3  1  0
 21 12  1  0
M  END
>  <UniqueID>  (38) 
33

>  <SMILES>  (38) 
[H]/N=c1/[nH]c(NC)c(CS(=O)(=O)c2c(Cl)cccc2Cl)s1

>  <Energy>  (38) 
57.54847534046708

>  <Genealogy>  (38) 
[H]/N=c1/[nH]c(NC)c(CS(=O)(=O)c2c(Cl)cccc2Cl)s1 (cis-trans isomerization)
[H]/N=c1/[nH]c(NC)c(CS(=O)(=O)c2c(Cl)cccc2Cl)s1 (3D coordinates assigned)
[H]/N=c1/[nH]c(NC)c(CS(=O)(=O)c2c(Cl)cccc2Cl)s1 (optimized conformer: 57.54847534046708 kcal/mol)

>  <smiles>  (38) 
CNc1[nH]c(=N)sc1CS(=O)(=O)c1c(Cl)cccc1Cl

>  <score_type>  (38) 
oracle

>  <origin>  (38) 
adg

>  <m_score__min__energy>  (38) 
-7.0999999999999996

>  <m_primary>  (38) 
energy

$$$$
38:0
     RDKit          3D

 23 24  0  0  0  0  0  0  0  0999 V2000
   57.8890   27.7160   46.5300 O   0  0  0  0  0  0  0  0  0  0  0  0
   56.8500   27.3920   45.8950 C   0  0  0  0  0  0  0  0  0  0  0  0
   56.1600   28.3630   45.0910 N   0  0  0  0  0  0  0  0  0  0  0  0
   56.7460   29.6020   44.6540 C   0  0  0  0  0  0  0  0  0  0  0  0
   56.5090   30.0530   43.3450 C   0  0  0  0  0  0  0  0  0  0  0  0
   57.0850   31.2440   42.8920 C   0  0  0  0  0  0  0  0  0  0  0  0
   57.9140   31.9880   43.7360 C   0  0  0  0  0  0  0  0  0  0  0  0
   58.4740   33.1410   43.2940 F   0  0  0  0  0  0  0  0  0  0  0  0
   58.1740   31.5370   45.0320 C   0  0  0  0  0  0  0  0  0  0  0  0
   57.6000   30.3470   45.4900 C   0  0  0  0  0  0  0  0  0  0  0  0
   56.3360   26.0190   46.0280 C   0  0  0  0  0  0  0  0  0  0  0  0
   57.0480   24.9040   46.4350 C   0  0  0  0  0  0  0  0  0  0  0  0
   56.1520   23.8580   46.4110 C   0  0  0  0  0  0  0  0  0  0  0  0
   54.9530   24.3990   45.9960 C   0  0  0  0  0  0  0  0  0  0  0  0
   53.3220   23.4390   45.7670 Br  0  0  0  0  0  0  0  0  0  0  0  0
   55.0900   25.6850   45.7760 O   0  0  0  0  0  0  0  0  0  0  0  0
   55.1450   28.2120   44.8940 H   0  0  0  0  0  0  0  0  0  0  0  0
   55.8665   29.4659   42.6723 H   0  0  0  0  0  0  0  0  0  0  0  0
   56.8852   31.5960   41.8692 H   0  0  0  0  0  0  0  0  0  0  0  0
   58.8318   32.1193   45.6940 H   0  0  0  0  0  0  0  0  0  0  0  0
   57.8165   29.9911   46.5081 H   0  0  0  0  0  0  0  0  0  0  0  0
   58.1099   24.8619   46.7189 H   0  0  0  0  0  0  0  0  0  0  0  0
   56.3516   22.8076   46.6695 H   0  0  0  0  0  0  0  0  0  0  0  0
  1  2  2  0
  2  3  1  0
  3  4  1  0
  4  5  2  0
  5  6  1  0
  6  7  2  0
  7  8  1  0
  7  9  1  0
  9 10  2  0
  2 11  1  0
 11 12  2  0
 12 13  1  0
 13 14  2  0
 14 15  1  0
 14 16  1  0
 10  4  1  0
 16 11  1  0
  3 17  1  0
  5 18  1  0
  6 19  1  0
  9 20  1  0
 10 21  1  0
 12 22  1  0
 13 23  1  0
M  END
>  <UniqueID>  (39) 
34

>  <SMILES>  (39) 
O=C(Nc1ccc(F)cc1)c1ccc(Br)o1

>  <Energy>  (39) 
52.58809205308546

>  <Genealogy>  (39) 
O=C(Nc1ccc(F)cc1)c1ccc(Br)o1 (3D coordinates assigned)
O=C(Nc1ccc(F)cc1)c1ccc(Br)o1 (optimized conformer: 52.58809205308546 kcal/mol)

>  <smiles>  (39) 
O=C(Nc1ccc(F)cc1)c1ccc(Br)o1

>  <score_type>  (39) 
oracle

>  <origin>  (39) 
adg

>  <m_score__min__energy>  (39) 
-6.1600000000000001

>  <m_primary>  (39) 
energy

$$$$
39:0
     RDKit          3D

 33 34  0  0  0  0  0  0  0  0999 V2000
   58.1460   32.5590   42.7390 C   0  0  0  0  0  0  0  0  0  0  0  0
   57.9310   31.3430   43.5370 N   0  0  0  0  0  0  0  0  0  0  0  0
   56.8130   30.5610   42.9780 C   0  0  0  0  0  0  0  0  0  0  0  0
   56.5240   29.3660   43.8450 C   0  0  0  0  0  0  0  0  0  0  0  0
   55.4460   29.3260   44.4960 O   0  0  0  0  0  0  0  0  0  0  0  0
   57.3940   28.2270   43.8740 N   0  0  0  0  0  0  0  0  0  0  0  0
   58.4490   28.0770   44.6210 C   0  0  0  0  0  0  0  0  0  0  0  0
   59.2680   29.0770   45.0230 N   0  0  0  0  0  0  0  0  0  0  0  0
   60.2650   28.6240   45.8310 C   0  0  0  0  0  0  0  0  0  0  0  0
   60.2370   27.2570   46.0830 C   0  0  0  0  0  0  0  0  0  0  0  0
   58.9140   26.6010   45.2720 S   0  0  0  0  0  0  0  0  0  0  0  0
   57.5860   31.8030   45.1910 S   0  0  0  0  0  0  0  0  0  0  0  0
   57.4210   30.5790   46.0470 O   0  0  0  0  0  0  0  0  0  0  0  0
   56.3130   32.6040   45.2500 O   0  0  0  0  0  0  0  0  0  0  0  0
   58.9240   32.7520   45.8330 C   0  0  0  0  0  0  0  0  0  0  0  0
   58.9220   34.1520   45.7370 C   0  0  0  0  0  0  0  0  0  0  0  0
   59.9990   34.8910   46.2380 C   0  0  0  0  0  0  0  0  0  0  0  0
   61.0800   34.2370   46.8350 C   0  0  0  0  0  0  0  0  0  0  0  0
   61.0880   32.8420   46.9290 C   0  0  0  0  0  0  0  0  0  0  0  0
   60.0130   32.1000   46.4270 C   0  0  0  0  0  0  0  0  0  0  0  0
   58.2976   33.4165   43.4110 H   0  0  0  0  0  0  0  0  0  0  0  0
   59.0350   32.4287   42.1045 H   0  0  0  0  0  0  0  0  0  0  0  0
   57.2662   32.7415   42.1045 H   0  0  0  0  0  0  0  0  0  0  0  0
   55.9166   31.1964   42.9260 H   0  0  0  0  0  0  0  0  0  0  0  0
   57.0887   30.2134   41.9715 H   0  0  0  0  0  0  0  0  0  0  0  0
   59.1470   30.0870   44.7990 H   0  0  0  0  0  0  0  0  0  0  0  0
   61.0339   29.2883   46.2523 H   0  0  0  0  0  0  0  0  0  0  0  0
   60.9542   26.7004   46.7041 H   0  0  0  0  0  0  0  0  0  0  0  0
   58.0724   34.6691   45.2671 H   0  0  0  0  0  0  0  0  0  0  0  0
   59.9949   35.9884   46.1619 H   0  0  0  0  0  0  0  0  0  0  0  0
   61.9247   34.8197   47.2310 H   0  0  0  0  0  0  0  0  0  0  0  0
   61.9398   32.3275   47.3978 H   0  0  0  0  0  0  0  0  0  0  0  0
   60.0228   31.0024   46.4988 H   0  0  0  0  0  0  0  0  0  0  0  0
  1  2  1  0
  2  3  1  0
  3  4  1  0
  4  5  2  0
  4  6  1  0
  6  7  2  3
  7  8  1  0
  8  9  1  0
  9 10  2  0
 10 11  1  0
  2 12  1  0
 12 13  2  0
 12 14  2  0
 12 15  1  0
 15 16  2  0
 16 17  1  0
 17 18  2  0
 18 19  1  0
 19 20  2  0
 11  7  1  0
 20 15  1  0
  1 21  1  0
  1 22  1  0
  1 23  1  0
  3 24  1  0
  3 25  1  0
  8 26  1  0
  9 27  1  0
 10 28  1  0
 16 29  1  0
 17 30  1  0
 18 31  1  0
 19 32  1  0
 20 33  1  0
M  END
>  <UniqueID>  (40) 
35

>  <SMILES>  (40) 
CN(CC(=O)N=c1[nH]ccs1)S(=O)(=O)c1ccccc1

>  <Energy>  (40) 
68.51388181643175

>  <Genealogy>  (40) 
CN(CC(=O)N=c1[nH]ccs1)S(=O)(=O)c1ccccc1 (3D coordinates assigned)
CN(CC(=O)N=c1[nH]ccs1)S(=O)(=O)c1ccccc1 (optimized conformer: 68.51388181643175 kcal/mol)

>  <smiles>  (40) 
CN(CC(=O)N=c1[nH]ccs1)S(=O)(=O)c1ccccc1

>  <score_type>  (40) 
oracle

>  <origin>  (40) 
adg

>  <m_score__min__energy>  (40) 
-6.6500000000000004

>  <m_primary>  (40) 
energy

$$$$
40:0
     RDKit          3D

 37 38  0  0  0  0  0  0  0  0999 V2000
   58.1400   27.0990   42.9880 C   0  0  0  0  0  0  0  0  0  0  0  0
   58.5200   27.1310   44.4690 C   0  0  0  0  0  0  0  0  0  0  0  0
   57.4090   27.7310   45.3430 C   0  0  0  0  0  0  0  0  0  0  0  0
   57.0910   29.1360   44.9390 C   0  0  0  0  0  0  0  0  0  0  0  0
   58.0210   30.0570   44.6270 N   0  0  0  0  0  0  0  0  0  0  0  0
   57.2490   31.1390   44.3940 C   0  0  0  0  0  0  0  0  0  0  0  0
   57.7980   32.4700   43.9830 C   0  0  0  0  0  0  0  0  0  0  0  0
   57.6660   33.4580   45.0730 N   0  0  0  0  0  0  0  0  0  0  0  0
   58.5670   34.6010   44.8600 C   0  0  0  0  0  0  0  0  0  0  0  0
   57.8010   32.8710   46.4290 C   0  0  0  0  0  0  0  0  0  0  0  0
   59.1480   33.1050   47.0770 C   0  0  0  0  0  0  0  0  0  0  0  0
   59.5720   34.5210   47.8820 S   0  0  0  0  0  0  0  0  0  0  0  0
   61.1140   34.0440   48.3410 C   0  0  0  0  0  0  0  0  0  0  0  0
   61.3190   32.7520   47.8800 C   0  0  0  0  0  0  0  0  0  0  0  0
   60.2220   32.2090   47.1910 C   0  0  0  0  0  0  0  0  0  0  0  0
   60.2680   30.8260   46.6120 C   0  0  0  0  0  0  0  0  0  0  0  0
   55.9340   30.8780   44.5310 N   0  0  0  0  0  0  0  0  0  0  0  0
   55.8790   29.6290   44.8760 O   0  0  0  0  0  0  0  0  0  0  0  0
   57.0481   27.0071   42.8915 H   0  0  0  0  0  0  0  0  0  0  0  0
   58.4739   28.0284   42.5036 H   0  0  0  0  0  0  0  0  0  0  0  0
   58.6246   26.2385   42.5036 H   0  0  0  0  0  0  0  0  0  0  0  0
   58.7184   26.1027   44.8056 H   0  0  0  0  0  0  0  0  0  0  0  0
   59.4112   27.7671   44.5740 H   0  0  0  0  0  0  0  0  0  0  0  0
   56.5027   27.1160   45.2409 H   0  0  0  0  0  0  0  0  0  0  0  0
   57.7592   27.7429   46.3857 H   0  0  0  0  0  0  0  0  0  0  0  0
   58.8619   32.3566   43.7275 H   0  0  0  0  0  0  0  0  0  0  0  0
   57.2284   32.8301   43.1136 H   0  0  0  0  0  0  0  0  0  0  0  0
   58.8846   35.0039   45.8331 H   0  0  0  0  0  0  0  0  0  0  0  0
   59.4505   34.2709   44.2938 H   0  0  0  0  0  0  0  0  0  0  0  0
   58.0398   35.3830   44.2938 H   0  0  0  0  0  0  0  0  0  0  0  0
   57.0270   33.3122   47.0741 H   0  0  0  0  0  0  0  0  0  0  0  0
   57.6916   31.7826   46.3136 H   0  0  0  0  0  0  0  0  0  0  0  0
   61.8359   34.6499   48.9082 H   0  0  0  0  0  0  0  0  0  0  0  0
   62.2577   32.2013   48.0398 H   0  0  0  0  0  0  0  0  0  0  0  0
   60.2926   30.0878   47.4272 H   0  0  0  0  0  0  0  0  0  0  0  0
   59.3749   30.6581   45.9921 H   0  0  0  0  0  0  0  0  0  0  0  0
   61.1702   30.7178   45.9921 H   0  0  0  0  0  0  0  0  0  0  0  0
  1  2  1  0
  2  3  1  0
  3  4  1  0
  4  5  2  0
  5  6  1  0
  6  7  1  0
  7  8  1  0
  8  9  1  0
  8 10  1  0
 10 11  1  0
 11 12  1  0
 12 13  1  0
 13 14  2  0
 14 15  1  0
 15 16  1  0
  6 17  2  0
 17 18  1  0
 18  4  1  0
 15 11  2  0
  1 19  1  0
  1 20  1  0
  1 21  1  0
  2 22  1  0
  2 23  1  0
  3 24  1  0
  3 25  1  0
  7 26  1  0
  7 27  1  0
  9 28  1  0
  9 29  1  0
  9 30  1  0
 10 31  1  0
 10 32  1  0
 13 33  1  0
 14 34  1  0
 16 35  1  0
 16 36  1  0
 16 37  1  0
M  END
>  <UniqueID>  (41) 
36

>  <SMILES>  (41) 
CCCc1nc(CN(C)Cc2sccc2C)no1

>  <Energy>  (41) 
90.41033164263636

>  <Genealogy>  (41) 
CCCc1nc(CN(C)Cc2sccc2C)no1 (3D coordinates assigned)
CCCc1nc(CN(C)Cc2sccc2C)no1 (optimized conformer: 90.41033164263636 kcal/mol)

>  <smiles>  (41) 
CCCc1nc(CN(C)Cc2sccc2C)no1

>  <score_type>  (41) 
oracle

>  <origin>  (41) 
adg

>  <m_score__min__energy>  (41) 
-6.8200000000000003

>  <m_primary>  (41) 
energy

$$$$
41:0
     RDKit          3D

 29 30  0  0  0  0  0  0  0  0999 V2000
   54.6268   30.4402   43.7445 H   0  0  0  0  0  0  0  0  0  0  0  0
   55.5280   30.0990   44.2750 C   0  0  0  0  0  0  0  0  0  0  0  0
   55.5470   28.8720   44.8550 N   0  0  0  0  0  0  0  0  0  0  0  0
   56.6420   28.4130   45.5140 C   0  0  0  0  0  0  0  0  0  0  0  0
   56.6271   27.4122   45.9702 H   0  0  0  0  0  0  0  0  0  0  0  0
   57.7880   29.2070   45.6150 C   0  0  0  0  0  0  0  0  0  0  0  0
   59.1900   28.5770   46.4710 Cl  0  0  0  0  0  0  0  0  0  0  0  0
   57.7970   30.4920   45.0430 C   0  0  0  0  0  0  0  0  0  0  0  0
   58.8830   31.2140   45.1420 N   0  0  0  0  0  0  0  0  0  0  0  0
   59.1360   32.3510   45.9850 C   0  0  0  0  0  0  0  0  0  0  0  0
   58.2180   32.7570   46.8110 N   0  0  0  0  0  0  0  0  0  0  0  0
   57.0470   33.5340   46.4180 C   0  0  0  0  0  0  0  0  0  0  0  0
   56.8446   34.3016   47.1794 H   0  0  0  0  0  0  0  0  0  0  0  0
   56.1779   32.8656   46.3291 H   0  0  0  0  0  0  0  0  0  0  0  0
   57.3070   34.2060   45.0780 C   0  0  0  0  0  0  0  0  0  0  0  0
   57.6992   35.2198   45.2462 H   0  0  0  0  0  0  0  0  0  0  0  0
   58.0425   33.6179   44.5095 H   0  0  0  0  0  0  0  0  0  0  0  0
   56.3672   34.2661   44.5095 H   0  0  0  0  0  0  0  0  0  0  0  0
   60.4520   32.9300   46.0480 N   0  0  0  0  0  0  0  0  0  0  0  0
   61.0980   33.3350   47.1040 C   0  0  0  0  0  0  0  0  0  0  0  0
   62.7720   33.4590   47.2830 S   0  0  0  0  0  0  0  0  0  0  0  0
   62.6710   34.0580   48.8540 C   0  0  0  0  0  0  0  0  0  0  0  0
   63.5202   34.3288   49.4986 H   0  0  0  0  0  0  0  0  0  0  0  0
   61.3250   34.1500   49.1930 C   0  0  0  0  0  0  0  0  0  0  0  0
   60.9846   34.5174   50.1723 H   0  0  0  0  0  0  0  0  0  0  0  0
   60.4630   33.7510   48.2210 N   0  0  0  0  0  0  0  0  0  0  0  0
   59.4250   33.7670   48.3300 H   0  0  0  0  0  0  0  0  0  0  0  0
   56.6480   30.9300   44.3490 C   0  0  0  0  0  0  0  0  0  0  0  0
   56.6351   31.9199   43.8695 H   0  0  0  0  0  0  0  0  0  0  0  0
  1  2  1  0
  2  3  1  0
  3  4  1  0
  4  5  1  0
  4  6  2  0
  6  7  1  0
  6  8  1  0
  8  9  2  3
  9 10  1  0
 10 11  2  0
 11 12  1  0
 12 13  1  0
 12 14  1  0
 12 15  1  0
 15 16  1  0
 15 17  1  0
 15 18  1  0
 10 19  1  0
 19 20  2  0
 20 21  1  0
 21 22  1  0
 22 23  1  0
 22 24  2  0
 24 25  1  0
 24 26  1  0
 26 27  1  0
  8 28  1  0
 28 29  1  0
 28  2  2  0
 26 20  1  0
M  CHG  1   3  -1
M  END
>  <UniqueID>  (42) 
37

>  <SMILES>  (42) 
CC/N=C(N=c1cc[n-]cc1Cl)\N=c1\[nH]ccs1

>  <Energy>  (42) 
67.40804282945498

>  <Genealogy>  (42) 
CCN=C(N=c1[nH]ccs1)N=c1cc[n-]cc1Cl (protonated)
CC/N=C(N=c1cc[n-]cc1Cl)\N=c1\[nH]ccs1 (cis-trans isomerization)
CC/N=C(N=c1cc[n-]cc1Cl)\N=c1\[nH]ccs1 (3D coordinates assigned)
CC/N=C(N=c1cc[n-]cc1Cl)\N=c1\[nH]ccs1 (optimized conformer: 67.40804282945498 kcal/mol)

>  <smiles>  (42) 
CCN=C(N=c1[nH]ccs1)N=c1cc[nH]cc1Cl

>  <score_type>  (42) 
oracle

>  <origin>  (42) 
adg

>  <m_score__min__energy>  (42) 
-7.5599999999999996

>  <m_primary>  (42) 
energy

$$$$
42:0
     RDKit          3D

 46 48  0  0  0  0  0  0  0  0999 V2000
   60.0590   34.6120   48.6400 C   0  0  0  0  0  0  0  0  0  0  0  0
   59.4240   33.8140   47.5410 C   0  0  0  0  0  0  0  0  0  0  0  0
   59.4260   34.2970   46.2240 C   0  0  0  0  0  0  0  0  0  0  0  0
   58.8020   33.5720   45.2060 C   0  0  0  0  0  0  0  0  0  0  0  0
   58.1230   32.3750   45.4920 C   0  0  0  0  0  0  0  0  0  0  0  0
   57.4620   31.5770   44.3830 C   0  0  0  0  0  0  0  0  0  0  0  0
   58.2100   30.3830   43.9030 N   0  0  1  0  0  0  0  0  0  0  0  0
   59.4820   30.0780   44.6060 C   0  0  0  0  0  0  0  0  0  0  0  0
   59.3270   29.0860   45.7830 C   0  0  0  0  0  0  0  0  0  0  0  0
   58.8800   27.6620   45.3610 C   0  0  0  0  0  0  0  0  0  0  0  0
   58.3220   27.6100   43.9980 N   0  0  0  0  0  0  0  0  0  0  0  0
   57.7660   26.2960   43.6110 C   0  0  0  0  0  0  0  0  0  0  0  0
   57.4050   25.3970   44.7750 C   0  0  0  0  0  0  0  0  0  0  0  0
   56.4000   25.7750   45.6820 C   0  0  0  0  0  0  0  0  0  0  0  0
   56.0610   24.9390   46.7510 C   0  0  0  0  0  0  0  0  0  0  0  0
   56.7100   23.7110   46.9140 C   0  0  0  0  0  0  0  0  0  0  0  0
   56.2840   22.6650   48.2560 Cl  0  0  0  0  0  0  0  0  0  0  0  0
   57.6930   23.3160   46.0020 C   0  0  0  0  0  0  0  0  0  0  0  0
   58.0350   24.1500   44.9340 C   0  0  0  0  0  0  0  0  0  0  0  0
   57.2370   28.9430   43.7370 S   0  0  0  0  0  0  0  0  0  0  0  0
   56.1290   28.9020   44.7500 O   0  0  0  0  0  0  0  0  0  0  0  0
   56.6560   28.8800   42.3510 O   0  0  0  0  0  0  0  0  0  0  0  0
   58.1620   31.8740   46.8060 C   0  0  0  0  0  0  0  0  0  0  0  0
   58.7860   32.5990   47.8260 C   0  0  0  0  0  0  0  0  0  0  0  0
   59.7409   34.2123   49.6142 H   0  0  0  0  0  0  0  0  0  0  0  0
   61.1538   34.5454   48.5561 H   0  0  0  0  0  0  0  0  0  0  0  0
   59.7482   35.6638   48.5561 H   0  0  0  0  0  0  0  0  0  0  0  0
   59.9214   35.2513   45.9918 H   0  0  0  0  0  0  0  0  0  0  0  0
   58.8424   33.9414   44.1707 H   0  0  0  0  0  0  0  0  0  0  0  0
   56.4835   31.2353   44.7515 H   0  0  0  0  0  0  0  0  0  0  0  0
   57.4057   32.2579   43.5209 H   0  0  0  0  0  0  0  0  0  0  0  0
   58.4860   30.6220   42.9210 H   0  0  0  0  0  0  0  0  0  0  0  0
   60.1843   29.6449   43.8785 H   0  0  0  0  0  0  0  0  0  0  0  0
   59.8452   31.0246   45.0327 H   0  0  0  0  0  0  0  0  0  0  0  0
   60.2968   29.0051   46.2957 H   0  0  0  0  0  0  0  0  0  0  0  0
   58.5337   29.4867   46.4312 H   0  0  0  0  0  0  0  0  0  0  0  0
   59.7522   26.9933   45.4077 H   0  0  0  0  0  0  0  0  0  0  0  0
   58.0837   27.3503   46.0529 H   0  0  0  0  0  0  0  0  0  0  0  0
   56.8568   26.4697   43.0167 H   0  0  0  0  0  0  0  0  0  0  0  0
   58.5560   25.7764   43.0489 H   0  0  0  0  0  0  0  0  0  0  0  0
   55.8771   26.7338   45.5504 H   0  0  0  0  0  0  0  0  0  0  0  0
   55.2828   25.2479   47.4645 H   0  0  0  0  0  0  0  0  0  0  0  0
   58.1984   22.3468   46.1252 H   0  0  0  0  0  0  0  0  0  0  0  0
   58.8016   23.8290   44.2134 H   0  0  0  0  0  0  0  0  0  0  0  0
   57.6974   30.9031   47.0331 H   0  0  0  0  0  0  0  0  0  0  0  0
   58.7761   32.2141   48.8564 H   0  0  0  0  0  0  0  0  0  0  0  0
  1  2  1  0
  2  3  2  0
  3  4  1  0
  4  5  2  0
  5  6  1  0
  6  7  1  0
  7  8  1  0
  8  9  1  0
  9 10  1  0
 10 11  1  0
 11 12  1  0
 12 13  1  0
 13 14  2  0
 14 15  1  0
 15 16  2  0
 16 17  1  0
 16 18  1  0
 18 19  2  0
 11 20  1  0
 20 21  2  0
 20 22  2  0
  5 23  1  0
 23 24  2  0
 24  2  1  0
 20  7  1  0
 19 13  1  0
  1 25  1  0
  1 26  1  0
  1 27  1  0
  3 28  1  0
  4 29  1  0
  6 30  1  0
  6 31  1  0
  7 32  1  6
  8 33  1  0
  8 34  1  0
  9 35  1  0
  9 36  1  0
 10 37  1  0
 10 38  1  0
 12 39  1  0
 12 40  1  0
 14 41  1  0
 15 42  1  0
 18 43  1  0
 19 44  1  0
 23 45  1  0
 24 46  1  0
M  CHG  1   7   1
M  END
>  <UniqueID>  (43) 
38

>  <SMILES>  (43) 
Cc1ccc(C[N@H+]2CCCN(Cc3ccc(Cl)cc3)S2(=O)=O)cc1

>  <Energy>  (43) 
62.901828112917094

>  <Genealogy>  (43) 
Cc1ccc(C[NH+]2CCCN(Cc3ccc(Cl)cc3)S2(=O)=O)cc1 (protonated)
Cc1ccc(C[N@H+]2CCCN(Cc3ccc(Cl)cc3)S2(=O)=O)cc1 (chirality)
Cc1ccc(C[N@H+]2CCCN(Cc3ccc(Cl)cc3)S2(=O)=O)cc1 (3D coordinates assigned)
Cc1ccc(C[N@H+]2CCCN(Cc3ccc(Cl)cc3)S2(=O)=O)cc1 (nonaromatic ring conformer: 62.901828112917094 kcal/mol)

>  <smiles>  (43) 
Cc1ccc(CN2CCCN(Cc3ccc(Cl)cc3)S2(=O)=O)cc1

>  <score_type>  (43) 
oracle

>  <origin>  (43) 
adg

>  <m_score__min__energy>  (43) 
-6.7000000000000002

>  <m_primary>  (43) 
energy

$$$$
43:0
     RDKit          3D

 33 35  0  0  0  0  0  0  0  0999 V2000
   55.9560   27.4620   45.6190 O   0  0  0  0  0  0  0  0  0  0  0  0
   56.6380   28.3730   45.0800 C   0  0  0  0  0  0  0  0  0  0  0  0
   57.9730   28.5580   44.7340 C   0  0  0  0  0  0  0  0  0  0  0  0
   59.2190   27.8370   44.8000 N   0  0  0  0  0  0  0  0  0  0  0  0
   60.4030   28.0920   45.6320 C   0  0  0  0  0  0  0  0  0  0  0  0
   60.1470   28.5490   47.0560 C   0  0  0  0  0  0  0  0  0  0  0  0
   60.6520   29.5410   46.0060 C   0  0  0  0  0  0  0  0  0  0  0  0
   57.6590   29.8170   44.2510 C   0  0  0  0  0  0  0  0  0  0  0  0
   58.3940   30.8680   43.6110 N   0  0  0  0  0  0  0  0  0  0  0  0
   57.6540   32.1380   43.6670 C   0  0  0  0  0  0  0  0  0  0  0  0
   58.1120   33.0030   44.8170 C   0  0  0  0  0  0  0  0  0  0  0  0
   58.9140   34.1310   44.5760 C   0  0  0  0  0  0  0  0  0  0  0  0
   59.3710   34.9100   45.6430 C   0  0  0  0  0  0  0  0  0  0  0  0
   59.0400   34.5650   46.9560 C   0  0  0  0  0  0  0  0  0  0  0  0
   58.2510   33.4380   47.2040 C   0  0  0  0  0  0  0  0  0  0  0  0
   57.7890   32.6570   46.1400 C   0  0  0  0  0  0  0  0  0  0  0  0
   56.3340   29.6200   44.5790 C   0  0  0  0  0  0  0  0  0  0  0  0
   55.2800   30.2990   44.4640 O   0  0  0  0  0  0  0  0  0  0  0  0
   59.2800   26.9910   44.1890 H   0  0  0  0  0  0  0  0  0  0  0  0
   61.0023   27.2912   45.1743 H   0  0  0  0  0  0  0  0  0  0  0  0
   59.1166   28.6237   47.4337 H   0  0  0  0  0  0  0  0  0  0  0  0
   60.4872   28.2267   48.0512 H   0  0  0  0  0  0  0  0  0  0  0  0
   59.9851   30.3298   45.6279 H   0  0  0  0  0  0  0  0  0  0  0  0
   61.5067   30.2294   45.9315 H   0  0  0  0  0  0  0  0  0  0  0  0
   58.5420   30.6040   42.6100 H   0  0  0  0  0  0  0  0  0  0  0  0
   59.3290   30.9710   44.0710 H   0  0  0  0  0  0  0  0  0  0  0  0
   57.8122   32.6842   42.7254 H   0  0  0  0  0  0  0  0  0  0  0  0
   56.5888   31.9071   43.8156 H   0  0  0  0  0  0  0  0  0  0  0  0
   59.1832   34.4021   43.5445 H   0  0  0  0  0  0  0  0  0  0  0  0
   59.9925   35.7965   45.4486 H   0  0  0  0  0  0  0  0  0  0  0  0
   59.4001   35.1799   47.7940 H   0  0  0  0  0  0  0  0  0  0  0  0
   57.9931   33.1650   48.2379 H   0  0  0  0  0  0  0  0  0  0  0  0
   57.1709   31.7692   46.3393 H   0  0  0  0  0  0  0  0  0  0  0  0
  1  2  2  0
  2  3  1  0
  3  4  1  0
  4  5  1  0
  5  6  1  0
  6  7  1  0
  3  8  2  0
  8  9  1  0
  9 10  1  0
 10 11  1  0
 11 12  2  0
 12 13  1  0
 13 14  2  0
 14 15  1  0
 15 16  2  0
  8 17  1  0
 17 18  2  0
 17  2  1  0
  7  5  1  0
 16 11  1  0
  4 19  1  0
  5 20  1  0
  6 21  1  0
  6 22  1  0
  7 23  1  0
  7 24  1  0
  9 25  1  0
  9 26  1  0
 10 27  1  0
 10 28  1  0
 12 29  1  0
 13 30  1  0
 14 31  1  0
 15 32  1  0
 16 33  1  0
M  CHG  1   9   1
M  END
>  <UniqueID>  (44) 
39

>  <SMILES>  (44) 
O=c1c(NC2CC2)c([NH2+]Cc2ccccc2)c1=O

>  <Energy>  (44) 
294.34383453357293

>  <Genealogy>  (44) 
O=c1c(NC2CC2)c([NH2+]Cc2ccccc2)c1=O (protonated)
O=c1c(NC2CC2)c([NH2+]Cc2ccccc2)c1=O (3D coordinates assigned)
O=c1c(NC2CC2)c([NH2+]Cc2ccccc2)c1=O (nonaromatic ring conformer: 294.34383453357293 kcal/mol)

>  <smiles>  (44) 
O=c1c(NCc2ccccc2)c(NC2CC2)c1=O

>  <score_type>  (44) 
oracle

>  <origin>  (44) 
adg

>  <m_score__min__energy>  (44) 
-5.0599999999999996

>  <m_primary>  (44) 
energy

$$$$
44:0
     RDKit          3D

 47 49  0  0  0  0  0  0  0  0999 V2000
   55.3040   29.7260   43.7190 C   0  0  0  0  0  0  0  0  0  0  0  0
   55.8280   29.1770   44.9240 O   0  0  0  0  0  0  0  0  0  0  0  0
   57.1430   28.7140   45.0820 C   0  0  0  0  0  0  0  0  0  0  0  0
   57.4470   27.3410   45.1880 C   0  0  0  0  0  0  0  0  0  0  0  0
   58.7710   26.9190   45.3230 C   0  0  0  0  0  0  0  0  0  0  0  0
   59.8060   27.8560   45.3520 C   0  0  0  0  0  0  0  0  0  0  0  0
   59.5180   29.2180   45.2520 C   0  0  0  0  0  0  0  0  0  0  0  0
   58.1910   29.6540   45.1230 C   0  0  0  0  0  0  0  0  0  0  0  0
   57.9100   31.0580   45.0240 N   0  0  0  0  0  0  0  0  0  0  0  0
   57.8110   31.7040   43.7140 C   0  0  0  0  0  0  0  0  0  0  0  0
   58.4530   33.0900   43.7990 C   0  0  0  0  0  0  0  0  0  0  0  0
   57.8040   33.9510   44.8240 N   0  0  0  0  0  0  0  0  0  0  0  0
   58.7620   34.8940   45.3550 C   0  0  0  0  0  0  0  0  0  0  0  0
   59.3840   35.6700   44.5780 O   0  0  0  0  0  0  0  0  0  0  0  0
   59.0280   34.9160   46.7650 N   0  0  0  0  0  0  0  0  0  0  0  0
   60.1990   34.4040   47.4180 C   0  0  0  0  0  0  0  0  0  0  0  0
   61.2320   33.8820   46.6320 C   0  0  0  0  0  0  0  0  0  0  0  0
   62.3820   33.3560   47.2290 C   0  0  0  0  0  0  0  0  0  0  0  0
   62.5160   33.3440   48.6270 C   0  0  0  0  0  0  0  0  0  0  0  0
   63.7330   32.7300   49.2730 C   0  0  0  0  0  0  0  0  0  0  0  0
   63.8490   33.1450   50.5880 F   0  0  0  0  0  0  0  0  0  0  0  0
   63.6170   31.3530   49.2430 F   0  0  0  0  0  0  0  0  0  0  0  0
   64.8830   33.1010   48.5990 F   0  0  0  0  0  0  0  0  0  0  0  0
   61.4550   33.8200   49.4170 C   0  0  0  0  0  0  0  0  0  0  0  0
   60.3070   34.3480   48.8180 C   0  0  0  0  0  0  0  0  0  0  0  0
   57.1170   33.2170   45.9240 C   0  0  0  0  0  0  0  0  0  0  0  0
   57.7610   31.8590   46.2430 C   0  0  0  0  0  0  0  0  0  0  0  0
   54.5632   30.5022   43.9614 H   0  0  0  0  0  0  0  0  0  0  0  0
   56.1217   30.1701   43.1324 H   0  0  0  0  0  0  0  0  0  0  0  0
   54.8223   28.9298   43.1324 H   0  0  0  0  0  0  0  0  0  0  0  0
   56.6361   26.5981   45.1642 H   0  0  0  0  0  0  0  0  0  0  0  0
   58.9993   25.8462   45.4067 H   0  0  0  0  0  0  0  0  0  0  0  0
   60.8487   27.5205   45.4537 H   0  0  0  0  0  0  0  0  0  0  0  0
   60.3358   29.9533   45.2745 H   0  0  0  0  0  0  0  0  0  0  0  0
   58.3376   31.0980   42.9620 H   0  0  0  0  0  0  0  0  0  0  0  0
   56.7546   31.7983   43.4223 H   0  0  0  0  0  0  0  0  0  0  0  0
   59.5157   32.9723   44.0573 H   0  0  0  0  0  0  0  0  0  0  0  0
   58.3289   33.5788   42.8214 H   0  0  0  0  0  0  0  0  0  0  0  0
   57.0640   34.5080   44.3320 H   0  0  0  0  0  0  0  0  0  0  0  0
   61.1389   33.8854   45.5360 H   0  0  0  0  0  0  0  0  0  0  0  0
   63.1870   32.9489   46.5995 H   0  0  0  0  0  0  0  0  0  0  0  0
   61.5284   33.7768   50.5137 H   0  0  0  0  0  0  0  0  0  0  0  0
   59.4845   34.7213   49.4458 H   0  0  0  0  0  0  0  0  0  0  0  0
   57.1466   33.8391   46.8307 H   0  0  0  0  0  0  0  0  0  0  0  0
   56.0876   33.0192   45.5906 H   0  0  0  0  0  0  0  0  0  0  0  0
   58.7525   32.0253   46.6894 H   0  0  0  0  0  0  0  0  0  0  0  0
   57.1125   31.3161   46.9463 H   0  0  0  0  0  0  0  0  0  0  0  0
  1  2  1  0
  2  3  1  0
  3  4  2  0
  4  5  1  0
  5  6  2  0
  6  7  1  0
  7  8  2  0
  8  9  1  0
  9 10  1  0
 10 11  1  0
 11 12  1  0
 12 13  1  0
 13 14  2  0
 13 15  1  0
 15 16  1  0
 16 17  2  0
 17 18  1  0
 18 19  2  0
 19 20  1  0
 20 21  1  0
 20 22  1  0
 20 23  1  0
 19 24  1  0
 24 25  2  0
 12 26  1  0
 26 27  1  0
  8  3  1  0
 27  9  1  0
 25 16  1  0
  1 28  1  0
  1 29  1  0
  1 30  1  0
  4 31  1  0
  5 32  1  0
  6 33  1  0
  7 34  1  0
 10 35  1  0
 10 36  1  0
 11 37  1  0
 11 38  1  0
 12 39  1  0
 17 40  1  0
 18 41  1  0
 24 42  1  0
 25 43  1  0
 26 44  1  0
 26 45  1  0
 27 46  1  0
 27 47  1  0
M  CHG  2  12   1  15  -1
M  END
>  <UniqueID>  (45) 
40

>  <SMILES>  (45) 
COc1ccccc1N1CC[NH+](C(=O)[N-]c2ccc(C(F)(F)F)cc2)CC1

>  <Energy>  (45) 
65.79142484017753

>  <Genealogy>  (45) 
COc1ccccc1N1CC[NH+](C(=O)[N-]c2ccc(C(F)(F)F)cc2)CC1 (protonated)
COc1ccccc1N1CC[NH+](C(=O)[N-]c2ccc(C(F)(F)F)cc2)CC1 (3D coordinates assigned)
COc1ccccc1N1CC[NH+](C(=O)[N-]c2ccc(C(F)(F)F)cc2)CC1 (nonaromatic ring conformer: 65.79142484017753 kcal/mol)

>  <smiles>  (45) 
COc1ccccc1N1CCN(C(=O)Nc2ccc(C(F)(F)F)cc2)CC1

>  <score_type>  (45) 
oracle

>  <origin>  (45) 
adg

>  <m_score__min__energy>  (45) 
-6.79

>  <m_primary>  (45) 
energy

$$$$
45:0
     RDKit          3D

 66 69  0  0  0  0  0  0  0  0999 V2000
   56.3270   29.0930   42.2880 C   0  0  0  0  0  0  0  0  0  0  0  0
   56.8250   30.3200   42.9920 C   0  0  0  0  0  0  0  0  0  0  0  0
   57.3570   31.3860   42.2520 C   0  0  0  0  0  0  0  0  0  0  0  0
   57.8990   32.4950   42.9060 C   0  0  0  0  0  0  0  0  0  0  0  0
   57.9090   32.5580   44.3050 C   0  0  0  0  0  0  0  0  0  0  0  0
   58.6850   33.9210   45.1110 S   0  0  0  0  0  0  0  0  0  0  0  0
   57.8140   35.1220   44.8730 O   0  0  0  0  0  0  0  0  0  0  0  0
   60.0200   34.1930   44.4740 O   0  0  0  0  0  0  0  0  0  0  0  0
   58.8740   33.6230   46.8380 N   0  0  0  0  0  0  0  0  0  0  0  0
   59.4480   32.2770   47.0730 C   0  0  0  0  0  0  0  0  0  0  0  0
   58.9990   31.7090   48.3940 C   0  0  0  0  0  0  0  0  0  0  0  0
   58.1590   32.3730   49.0580 O   0  0  0  0  0  0  0  0  0  0  0  0
   59.4280   30.4090   48.8780 N   0  0  0  0  0  0  0  0  0  0  0  0
   58.6650   29.7550   49.9580 C   0  0  0  0  0  0  0  0  0  0  0  0
   58.4680   30.6710   51.1420 C   0  0  0  0  0  0  0  0  0  0  0  0
   57.1820   30.8770   51.6730 C   0  0  0  0  0  0  0  0  0  0  0  0
   56.9940   31.7430   52.7530 C   0  0  0  0  0  0  0  0  0  0  0  0
   58.0810   32.4280   53.3000 C   0  0  0  0  0  0  0  0  0  0  0  0
   59.3600   32.2440   52.7690 C   0  0  0  0  0  0  0  0  0  0  0  0
   59.5550   31.3700   51.6950 C   0  0  0  0  0  0  0  0  0  0  0  0
   60.4800   29.6280   48.2010 C   0  0  0  0  0  0  0  0  0  0  0  0
   59.9550   28.9810   46.9470 C   0  0  0  0  0  0  0  0  0  0  0  0
   58.8790   28.0800   47.0030 C   0  0  0  0  0  0  0  0  0  0  0  0
   58.3800   27.5070   45.8280 C   0  0  0  0  0  0  0  0  0  0  0  0
   58.9450   27.8380   44.5930 C   0  0  0  0  0  0  0  0  0  0  0  0
   60.0060   28.7440   44.5290 C   0  0  0  0  0  0  0  0  0  0  0  0
   60.5060   29.3160   45.7010 C   0  0  0  0  0  0  0  0  0  0  0  0
   59.7410   34.6640   47.4340 C   0  0  0  0  0  0  0  0  0  0  0  0
   61.1210   34.1230   47.7210 C   0  0  0  0  0  0  0  0  0  0  0  0
   61.5120   33.8550   49.0420 C   0  0  0  0  0  0  0  0  0  0  0  0
   62.7900   33.3570   49.3150 C   0  0  0  0  0  0  0  0  0  0  0  0
   63.6800   33.1040   48.2680 C   0  0  0  0  0  0  0  0  0  0  0  0
   63.2890   33.3410   46.9470 C   0  0  0  0  0  0  0  0  0  0  0  0
   62.0120   33.8410   46.6720 C   0  0  0  0  0  0  0  0  0  0  0  0
   57.3860   31.4900   45.0470 C   0  0  0  0  0  0  0  0  0  0  0  0
   56.8490   30.3750   44.3930 C   0  0  0  0  0  0  0  0  0  0  0  0
   56.0222   28.3419   43.0316 H   0  0  0  0  0  0  0  0  0  0  0  0
   55.4646   29.3563   41.6580 H   0  0  0  0  0  0  0  0  0  0  0  0
   57.1290   28.6808   41.6580 H   0  0  0  0  0  0  0  0  0  0  0  0
   57.3474   31.3487   41.1527 H   0  0  0  0  0  0  0  0  0  0  0  0
   58.3206   33.3239   42.3185 H   0  0  0  0  0  0  0  0  0  0  0  0
   59.1236   31.6040   46.2656 H   0  0  0  0  0  0  0  0  0  0  0  0
   60.5442   32.3672   47.0905 H   0  0  0  0  0  0  0  0  0  0  0  0
   57.6794   29.4598   49.5688 H   0  0  0  0  0  0  0  0  0  0  0  0
   59.2363   28.8781   50.2965 H   0  0  0  0  0  0  0  0  0  0  0  0
   56.3193   30.3532   51.2354 H   0  0  0  0  0  0  0  0  0  0  0  0
   55.9876   31.8856   53.1734 H   0  0  0  0  0  0  0  0  0  0  0  0
   57.9303   33.1119   54.1483 H   0  0  0  0  0  0  0  0  0  0  0  0
   60.2153   32.7877   53.1966 H   0  0  0  0  0  0  0  0  0  0  0  0
   60.5642   31.2287   51.2808 H   0  0  0  0  0  0  0  0  0  0  0  0
   61.3115   30.2983   47.9379 H   0  0  0  0  0  0  0  0  0  0  0  0
   60.8214   28.8369   48.8848 H   0  0  0  0  0  0  0  0  0  0  0  0
   58.4275   27.8242   47.9729 H   0  0  0  0  0  0  0  0  0  0  0  0
   57.5425   26.7955   45.8762 H   0  0  0  0  0  0  0  0  0  0  0  0
   58.5535   27.3844   43.6705 H   0  0  0  0  0  0  0  0  0  0  0  0
   60.4475   29.0068   43.5564 H   0  0  0  0  0  0  0  0  0  0  0  0
   61.3375   30.0341   45.6467 H   0  0  0  0  0  0  0  0  0  0  0  0
   59.8244   35.5071   46.7324 H   0  0  0  0  0  0  0  0  0  0  0  0
   59.2906   34.9931   48.3820 H   0  0  0  0  0  0  0  0  0  0  0  0
   60.8088   34.0378   49.8679 H   0  0  0  0  0  0  0  0  0  0  0  0
   63.0946   33.1644   50.3543 H   0  0  0  0  0  0  0  0  0  0  0  0
   64.6876   32.7186   48.4831 H   0  0  0  0  0  0  0  0  0  0  0  0
   63.9869   33.1339   46.1223 H   0  0  0  0  0  0  0  0  0  0  0  0
   61.7041   34.0141   45.6303 H   0  0  0  0  0  0  0  0  0  0  0  0
   57.3976   31.5282   46.1463 H   0  0  0  0  0  0  0  0  0  0  0  0
   56.4439   29.5381   44.9808 H   0  0  0  0  0  0  0  0  0  0  0  0
  1  2  1  0
  2  3  2  0
  3  4  1  0
  4  5  2  0
  5  6  1  0
  6  7  2  0
  6  8  2  0
  6  9  1  0
  9 10  1  0
 10 11  1  0
 11 12  2  0
 11 13  1  0
 13 14  1  0
 14 15  1  0
 15 16  2  0
 16 17  1  0
 17 18  2  0
 18 19  1  0
 19 20  2  0
 13 21  1  0
 21 22  1  0
 22 23  2  0
 23 24  1  0
 24 25  2  0
 25 26  1  0
 26 27  2  0
  9 28  1  0
 28 29  1  0
 29 30  2  0
 30 31  1  0
 31 32  2  0
 32 33  1  0
 33 34  2  0
  5 35  1  0
 35 36  2  0
 36  2  1  0
 20 15  1  0
 27 22  1  0
 34 29  1  0
  1 37  1  0
  1 38  1  0
  1 39  1  0
  3 40  1  0
  4 41  1  0
 10 42  1  0
 10 43  1  0
 14 44  1  0
 14 45  1  0
 16 46  1  0
 17 47  1  0
 18 48  1  0
 19 49  1  0
 20 50  1  0
 21 51  1  0
 21 52  1  0
 23 53  1  0
 24 54  1  0
 25 55  1  0
 26 56  1  0
 27 57  1  0
 28 58  1  0
 28 59  1  0
 30 60  1  0
 31 61  1  0
 32 62  1  0
 33 63  1  0
 34 64  1  0
 35 65  1  0
 36 66  1  0
M  END
>  <UniqueID>  (46) 
41

>  <SMILES>  (46) 
Cc1ccc(S(=O)(=O)N(CC(=O)N(Cc2ccccc2)Cc2ccccc2)Cc2ccccc2)cc1

>  <Energy>  (46) 
62.923578908326775

>  <Genealogy>  (46) 
Cc1ccc(S(=O)(=O)N(CC(=O)N(Cc2ccccc2)Cc2ccccc2)Cc2ccccc2)cc1 (3D coordinates assigned)
Cc1ccc(S(=O)(=O)N(CC(=O)N(Cc2ccccc2)Cc2ccccc2)Cc2ccccc2)cc1 (optimized conformer: 62.923578908326775 kcal/mol)

>  <smiles>  (46) 
Cc1ccc(S(=O)(=O)N(CC(=O)N(Cc2ccccc2)Cc2ccccc2)Cc2ccccc2)cc1

>  <score_type>  (46) 
oracle

>  <origin>  (46) 
adg

>  <m_score__min__energy>  (46) 
-9.9100000000000001

>  <m_primary>  (46) 
energy

$$$$
46:0
     RDKit          3D

 37 39  0  0  1  0  0  0  0  0999 V2000
   61.3600   31.1230   47.1370 C   0  0  0  0  0  0  0  0  0  0  0  0
   60.1660   30.4640   46.7600 O   0  0  0  0  0  0  0  0  0  0  0  0
   60.0990   29.0880   46.9100 C   0  0  0  0  0  0  0  0  0  0  0  0
   60.4590   28.4310   48.0650 C   0  0  0  0  0  0  0  0  0  0  0  0
   60.3850   27.0500   48.2000 C   0  0  0  0  0  0  0  0  0  0  0  0
   59.9300   26.3310   47.1180 C   0  0  0  0  0  0  0  0  0  0  0  0
   59.5640   26.9680   45.9550 C   0  0  0  0  0  0  0  0  0  0  0  0
   59.6500   28.3510   45.8510 C   0  0  0  0  0  0  0  0  0  0  0  0
   59.2460   28.9070   44.6030 N   0  0  0  0  0  0  0  0  0  0  0  0
   58.2210   29.6740   44.5810 C   0  0  0  0  0  0  0  0  0  0  0  0
   57.0480   29.1320   44.2160 N   0  0  0  0  0  0  0  0  0  0  0  0
   55.9110   29.8630   44.1630 C   0  0  0  0  0  0  0  0  0  0  0  0
   54.7170   29.3420   43.8000 F   0  0  0  0  0  0  0  0  0  0  0  0
   55.9390   31.1720   44.4800 N   0  0  0  0  0  0  0  0  0  0  0  0
   57.1270   31.7300   44.8520 C   0  0  0  0  0  0  0  0  0  0  0  0
   57.0940   32.9770   45.1420 N   0  0  0  0  0  0  0  0  0  0  0  0
   58.0810   33.4810   46.0380 C   0  0  0  0  0  0  0  0  0  0  0  0
   58.9570   34.4460   45.5250 C   0  0  0  0  0  0  0  0  0  0  0  0
   59.9380   34.9780   46.3400 C   0  0  0  0  0  0  0  0  0  0  0  0
   60.0610   34.5660   47.6500 C   0  0  0  0  0  0  0  0  0  0  0  0
   59.1870   33.6220   48.1160 C   0  0  0  0  0  0  0  0  0  0  0  0
   58.1850   33.0540   47.3470 C   0  0  0  0  0  0  0  0  0  0  0  0
   58.2450   30.9820   44.8960 N   0  0  0  0  0  0  0  0  0  0  0  0
   61.4275   31.1602   48.2343 H   0  0  0  0  0  0  0  0  0  0  0  0
   62.2244   30.5742   46.7349 H   0  0  0  0  0  0  0  0  0  0  0  0
   61.3564   32.1469   46.7349 H   0  0  0  0  0  0  0  0  0  0  0  0
   60.8207   29.0247   48.9175 H   0  0  0  0  0  0  0  0  0  0  0  0
   60.6786   26.5508   49.1352 H   0  0  0  0  0  0  0  0  0  0  0  0
   59.8583   25.2353   47.1840 H   0  0  0  0  0  0  0  0  0  0  0  0
   59.2004   26.3780   45.1007 H   0  0  0  0  0  0  0  0  0  0  0  0
   57.0090   28.1050   43.9640 H   0  0  0  0  0  0  0  0  0  0  0  0
   58.8647   34.7781   44.4804 H   0  0  0  0  0  0  0  0  0  0  0  0
   60.6267   35.7368   45.9401 H   0  0  0  0  0  0  0  0  0  0  0  0
   60.8408   34.9850   48.3030 H   0  0  0  0  0  0  0  0  0  0  0  0
   59.2859   33.2954   49.1617 H   0  0  0  0  0  0  0  0  0  0  0  0
   57.5027   32.2967   47.7604 H   0  0  0  0  0  0  0  0  0  0  0  0
   59.1510   31.4210   45.1830 H   0  0  0  0  0  0  0  0  0  0  0  0
  1  2  1  0
  2  3  1  0
  3  4  2  0
  4  5  1  0
  5  6  2  0
  6  7  1  0
  7  8  2  0
  8  9  1  0
  9 10  2  0
 10 11  1  0
 11 12  1  0
 12 13  1  0
 12 14  2  0
 14 15  1  0
 15 16  2  0
 16 17  1  0
 17 18  2  0
 18 19  1  0
 19 20  2  0
 20 21  1  0
 21 22  2  0
 15 23  1  0
  8  3  1  0
 23 10  1  0
 22 17  1  0
  1 24  1  0
  1 25  1  0
  1 26  1  0
  4 27  1  0
  5 28  1  0
  6 29  1  0
  7 30  1  0
 11 31  1  0
 18 32  1  0
 19 33  1  0
 20 34  1  0
 21 35  1  0
 22 36  1  0
 23 37  1  0
M  END
>  <smiles>  (47) 
COc1ccccc1N=c1[nH]c(F)nc(=Nc2ccccc2)[nH]1

>  <score_type>  (47) 
oracle

>  <origin>  (47) 
adg

>  <m_score__min__energy>  (47) 
-7.5599999999999996

>  <m_primary>  (47) 
energy

$$$$
47:0
     RDKit          3D

 33 34  0  0  0  0  0  0  0  0999 V2000
   57.5579   32.6537   47.0439 H   0  0  0  0  0  0  0  0  0  0  0  0
   58.6280   32.4000   47.0680 C   0  0  0  0  0  0  0  0  0  0  0  0
   59.0180   31.0970   47.0460 N   0  0  0  0  0  0  0  0  0  0  0  0
   60.3290   30.7300   47.0720 C   0  0  0  0  0  0  0  0  0  0  0  0
   60.6170   29.4590   47.0440 N   0  0  0  0  0  0  0  0  0  0  0  0
   60.3770   28.5190   45.9460 C   0  0  0  0  0  0  0  0  0  0  0  0
   61.0518   27.6572   46.0555 H   0  0  0  0  0  0  0  0  0  0  0  0
   60.5655   29.0354   44.9932 H   0  0  0  0  0  0  0  0  0  0  0  0
   58.9490   28.0330   45.9570 C   0  0  0  0  0  0  0  0  0  0  0  0
   58.6210   26.8040   46.5490 C   0  0  0  0  0  0  0  0  0  0  0  0
   59.4114   26.1898   47.0050 H   0  0  0  0  0  0  0  0  0  0  0  0
   57.2890   26.3510   46.5640 C   0  0  0  0  0  0  0  0  0  0  0  0
   56.9220   25.1240   47.1350 O   0  0  0  0  0  0  0  0  0  0  0  0
   56.3140   24.0510   46.4210 C   0  0  0  0  0  0  0  0  0  0  0  0
   55.9014   23.3228   47.1348 H   0  0  0  0  0  0  0  0  0  0  0  0
   55.5042   24.4437   45.7885 H   0  0  0  0  0  0  0  0  0  0  0  0
   57.0671   23.5582   45.7885 H   0  0  0  0  0  0  0  0  0  0  0  0
   56.2870   27.1460   45.9900 C   0  0  0  0  0  0  0  0  0  0  0  0
   54.9690   26.7050   46.0000 O   0  0  0  0  0  0  0  0  0  0  0  0
   56.5990   28.3820   45.4060 C   0  0  0  0  0  0  0  0  0  0  0  0
   55.5570   29.1400   44.8490 O   0  0  0  0  0  0  0  0  0  0  0  0
   55.7200   30.0790   43.7910 C   0  0  0  0  0  0  0  0  0  0  0  0
   55.8938   31.0800   44.2127 H   0  0  0  0  0  0  0  0  0  0  0  0
   56.5810   29.7876   43.1715 H   0  0  0  0  0  0  0  0  0  0  0  0
   54.8112   30.0948   43.1715 H   0  0  0  0  0  0  0  0  0  0  0  0
   57.9340   28.8230   45.3980 C   0  0  0  0  0  0  0  0  0  0  0  0
   58.1844   29.7957   44.9496 H   0  0  0  0  0  0  0  0  0  0  0  0
   61.3200   31.7330   47.1300 C   0  0  0  0  0  0  0  0  0  0  0  0
   62.3853   31.4602   47.1584 H   0  0  0  0  0  0  0  0  0  0  0  0
   60.9350   33.0760   47.1510 C   0  0  0  0  0  0  0  0  0  0  0  0
   61.6988   33.8666   47.1912 H   0  0  0  0  0  0  0  0  0  0  0  0
   59.5830   33.4140   47.1210 C   0  0  0  0  0  0  0  0  0  0  0  0
   59.2731   34.4693   47.1389 H   0  0  0  0  0  0  0  0  0  0  0  0
  1  2  1  0
  2  3  1  0
  3  4  1  0
  4  5  2  0
  5  6  1  0
  6  7  1  0
  6  8  1  0
  6  9  1  0
  9 10  2  0
 10 11  1  0
 10 12  1  0
 12 13  1  0
 13 14  1  0
 14 15  1  0
 14 16  1  0
 14 17  1  0
 12 18  2  0
 18 19  1  0
 18 20  1  0
 20 21  1  0
 21 22  1  0
 22 23  1  0
 22 24  1  0
 22 25  1  0
 20 26  2  0
 26 27  1  0
  4 28  1  0
 28 29  1  0
 28 30  2  0
 30 31  1  0
 30 32  1  0
 32 33  1  0
 32  2  2  0
 26  9  1  0
M  CHG  2   3  -1  19  -1
M  END
>  <UniqueID>  (48) 
42

>  <SMILES>  (48) 
COc1cc(C/N=c2\cccc[n-]2)cc(OC)c1[O-]

>  <Energy>  (48) 
34.81431485600134

>  <Genealogy>  (48) 
COc1cc(CN=c2cccc[n-]2)cc(OC)c1[O-] (protonated)
COc1cc(C/N=c2\cccc[n-]2)cc(OC)c1[O-] (cis-trans isomerization)
COc1cc(C/N=c2\cccc[n-]2)cc(OC)c1[O-] (3D coordinates assigned)
COc1cc(C/N=c2\cccc[n-]2)cc(OC)c1[O-] (optimized conformer: 34.81431485600134 kcal/mol)

>  <smiles>  (48) 
COc1cc(CN=c2cccc[nH]2)cc(OC)c1O

>  <score_type>  (48) 
oracle

>  <origin>  (48) 
adg

>  <m_score__min__energy>  (48) 
-11.859999999999999

>  <m_primary>  (48) 
energy

$$$$
48:0
     RDKit          3D

 37 39  0  0  0  0  0  0  0  0999 V2000
   56.0070   21.8600   42.5500 N   0  0  0  0  0  0  0  0  0  0  0  0
   56.9400   21.7330   43.2210 C   0  0  0  0  0  0  0  0  0  0  0  0
   58.1240   21.5690   44.0700 C   0  0  0  0  0  0  0  0  0  0  0  0
   57.7510   22.0820   45.7790 S   0  0  0  0  0  0  0  0  0  0  0  0
   58.0220   23.8260   45.4690 C   0  0  0  0  0  0  0  0  0  0  0  0
   59.0260   24.5330   46.0390 N   0  0  0  0  0  0  0  0  0  0  0  0
   58.9970   25.8260   45.6270 C   0  0  0  0  0  0  0  0  0  0  0  0
   59.9060   26.8020   46.0300 C   0  0  0  0  0  0  0  0  0  0  0  0
   59.7690   28.1050   45.5240 C   0  0  0  0  0  0  0  0  0  0  0  0
   58.7190   28.4310   44.6340 C   0  0  0  0  0  0  0  0  0  0  0  0
   58.6260   29.7700   44.1200 N   0  0  0  0  0  0  0  0  0  0  0  0
   57.4480   30.5890   44.2170 C   0  0  0  0  0  0  0  0  0  0  0  0
   56.4570   30.2100   44.8980 O   0  0  0  0  0  0  0  0  0  0  0  0
   57.3910   31.9150   43.5210 C   0  0  0  0  0  0  0  0  0  0  0  0
   57.0530   32.9540   44.4400 O   0  0  0  0  0  0  0  0  0  0  0  0
   57.9320   33.5270   45.3740 C   0  0  0  0  0  0  0  0  0  0  0  0
   57.9300   33.0220   46.6820 C   0  0  0  0  0  0  0  0  0  0  0  0
   58.7870   33.5550   47.6500 C   0  0  0  0  0  0  0  0  0  0  0  0
   59.6540   34.5990   47.3190 C   0  0  0  0  0  0  0  0  0  0  0  0
   59.6640   35.1120   46.0200 C   0  0  0  0  0  0  0  0  0  0  0  0
   58.8080   34.5840   45.0480 C   0  0  0  0  0  0  0  0  0  0  0  0
   57.8200   27.4220   44.2230 C   0  0  0  0  0  0  0  0  0  0  0  0
   57.9810   26.1410   44.7400 C   0  0  0  0  0  0  0  0  0  0  0  0
   57.0680   24.7660   44.4340 S   0  0  0  0  0  0  0  0  0  0  0  0
   58.4297   20.5123   44.0666 H   0  0  0  0  0  0  0  0  0  0  0  0
   58.9369   22.1971   43.6766 H   0  0  0  0  0  0  0  0  0  0  0  0
   60.7165   26.5564   46.7320 H   0  0  0  0  0  0  0  0  0  0  0  0
   60.4876   28.8821   45.8237 H   0  0  0  0  0  0  0  0  0  0  0  0
   59.4970   30.2080   43.7440 H   0  0  0  0  0  0  0  0  0  0  0  0
   58.3735   32.1318   43.0765 H   0  0  0  0  0  0  0  0  0  0  0  0
   56.6191   31.8705   42.7386 H   0  0  0  0  0  0  0  0  0  0  0  0
   57.2491   32.2003   46.9488 H   0  0  0  0  0  0  0  0  0  0  0  0
   58.7784   33.1516   48.6733 H   0  0  0  0  0  0  0  0  0  0  0  0
   60.3284   35.0168   48.0809 H   0  0  0  0  0  0  0  0  0  0  0  0
   60.3473   35.9340   45.7605 H   0  0  0  0  0  0  0  0  0  0  0  0
   58.8177   34.9937   44.0272 H   0  0  0  0  0  0  0  0  0  0  0  0
   57.0116   27.6442   43.5108 H   0  0  0  0  0  0  0  0  0  0  0  0
  1  2  3  0
  2  3  1  0
  3  4  1  0
  4  5  1  0
  5  6  2  0
  6  7  1  0
  7  8  2  0
  8  9  1  0
  9 10  2  0
 10 11  1  0
 11 12  1  0
 12 13  2  0
 12 14  1  0
 14 15  1  0
 15 16  1  0
 16 17  2  0
 17 18  1  0
 18 19  2  0
 19 20  1  0
 20 21  2  0
 10 22  1  0
 22 23  2  0
 23 24  1  0
 24  5  1  0
 23  7  1  0
 21 16  1  0
  3 25  1  0
  3 26  1  0
  8 27  1  0
  9 28  1  0
 11 29  1  0
 14 30  1  0
 14 31  1  0
 17 32  1  0
 18 33  1  0
 19 34  1  0
 20 35  1  0
 21 36  1  0
 22 37  1  0
M  END
>  <UniqueID>  (49) 
43

>  <SMILES>  (49) 
N#CCSc1nc2ccc(NC(=O)COc3ccccc3)cc2s1

>  <Energy>  (49) 
71.45806284344566

>  <Genealogy>  (49) 
N#CCSc1nc2ccc(NC(=O)COc3ccccc3)cc2s1 (3D coordinates assigned)
N#CCSc1nc2ccc(NC(=O)COc3ccccc3)cc2s1 (optimized conformer: 71.45806284344566 kcal/mol)

>  <smiles>  (49) 
N#CCSc1nc2ccc(NC(=O)COc3ccccc3)cc2s1

>  <score_type>  (49) 
oracle

>  <origin>  (49) 
adg

>  <m_score__min__energy>  (49) 
-8.1300000000000008

>  <m_primary>  (49) 
energy

$$$$
49:0
     RDKit          3D

 43 45  0  0  1  0  0  0  0  0999 V2000
   56.3580   25.8260   46.0930 C   0  0  0  0  0  0  0  0  0  0  0  0
   57.4180   26.6840   46.7460 C   0  0  0  0  0  0  0  0  0  0  0  0
   57.6850   27.9210   45.9720 C   0  0  0  0  0  0  0  0  0  0  0  0
   58.5870   28.7960   46.3710 N   0  0  0  0  0  0  0  0  0  0  0  0
   58.8370   29.9080   45.6870 C   0  0  0  0  0  0  0  0  0  0  0  0
   59.7160   30.6860   46.1410 N   0  0  0  0  0  0  0  0  0  0  0  0
   60.0070   31.0620   47.4400 C   0  0  0  0  0  0  0  0  0  0  0  0
   58.9200   32.1690   47.6740 C   0  0  0  0  0  0  0  0  0  0  0  0
   58.7040   32.8320   46.3780 N   0  0  0  0  0  0  0  0  0  0  0  0
   59.3660   34.0940   46.4830 C   0  0  0  0  0  0  0  0  0  0  0  0
   59.3150   34.8750   45.1850 C   0  0  0  0  0  0  0  0  0  0  0  0
   58.1420   34.5750   44.5070 O   0  0  0  0  0  0  0  0  0  0  0  0
   57.0780   34.3120   45.3390 C   0  0  0  0  0  0  0  0  0  0  0  0
   57.2960   33.0610   46.1330 C   0  0  0  0  0  0  0  0  0  0  0  0
   58.1720   30.2530   44.4900 C   0  0  0  0  0  0  0  0  0  0  0  0
   58.2880   31.2920   43.6950 C   0  0  0  0  0  0  0  0  0  0  0  0
   57.4460   31.3300   42.5440 C   0  0  0  0  0  0  0  0  0  0  0  0
   57.3550   32.3390   41.5020 C   0  0  0  0  0  0  0  0  0  0  0  0
   56.4520   29.8130   42.6090 S   0  0  0  0  0  0  0  0  0  0  0  0
   57.2380   29.2800   44.1390 C   0  0  0  0  0  0  0  0  0  0  0  0
   57.0060   28.1600   44.8530 N   0  0  0  0  0  0  0  0  0  0  0  0
   55.7528   25.3361   46.8700 H   0  0  0  0  0  0  0  0  0  0  0  0
   55.7099   26.4569   45.4669 H   0  0  0  0  0  0  0  0  0  0  0  0
   56.8401   25.0607   45.4669 H   0  0  0  0  0  0  0  0  0  0  0  0
   57.0783   26.9623   47.7545 H   0  0  0  0  0  0  0  0  0  0  0  0
   58.3498   26.1008   46.7873 H   0  0  0  0  0  0  0  0  0  0  0  0
   59.8880   30.2227   48.1410 H   0  0  0  0  0  0  0  0  0  0  0  0
   61.0424   31.3991   47.5963 H   0  0  0  0  0  0  0  0  0  0  0  0
   57.9836   31.7120   48.0265 H   0  0  0  0  0  0  0  0  0  0  0  0
   59.2483   32.8902   48.4369 H   0  0  0  0  0  0  0  0  0  0  0  0
   58.8787   34.6855   47.2721 H   0  0  0  0  0  0  0  0  0  0  0  0
   60.4226   33.9031   46.7219 H   0  0  0  0  0  0  0  0  0  0  0  0
   59.3456   35.9524   45.4046 H   0  0  0  0  0  0  0  0  0  0  0  0
   60.1781   34.6019   44.5602 H   0  0  0  0  0  0  0  0  0  0  0  0
   56.9490   35.1567   46.0317 H   0  0  0  0  0  0  0  0  0  0  0  0
   56.1810   34.1735   44.7176 H   0  0  0  0  0  0  0  0  0  0  0  0
   56.7749   33.1533   47.0973 H   0  0  0  0  0  0  0  0  0  0  0  0
   56.9012   32.2111   45.5570 H   0  0  0  0  0  0  0  0  0  0  0  0
   59.0044   32.0991   43.9078 H   0  0  0  0  0  0  0  0  0  0  0  0
   57.2653   33.3341   41.9621 H   0  0  0  0  0  0  0  0  0  0  0  0
   58.2600   32.3040   40.8776 H   0  0  0  0  0  0  0  0  0  0  0  0
   56.4709   32.1426   40.8776 H   0  0  0  0  0  0  0  0  0  0  0  0
   56.2970   27.4750   44.5380 H   0  0  0  0  0  0  0  0  0  0  0  0
  1  2  1  0
  2  3  1  0
  3  4  2  0
  4  5  1  0
  5  6  2  0
  6  7  1  0
  7  8  1  0
  8  9  1  0
  9 10  1  0
 10 11  1  0
 11 12  1  0
 12 13  1  0
 13 14  1  0
  5 15  1  0
 15 16  1  0
 16 17  2  0
 17 18  1  0
 17 19  1  0
 19 20  1  0
 20 21  1  0
 21  3  1  0
 14  9  1  0
 20 15  2  0
  1 22  1  0
  1 23  1  0
  1 24  1  0
  2 25  1  0
  2 26  1  0
  7 27  1  0
  7 28  1  0
  8 29  1  0
  8 30  1  0
 10 31  1  0
 10 32  1  0
 11 33  1  0
 11 34  1  0
 13 35  1  0
 13 36  1  0
 14 37  1  0
 14 38  1  0
 16 39  1  0
 18 40  1  0
 18 41  1  0
 18 42  1  0
 21 43  1  0
M  END
>  <smiles>  (50) 
CCc1nc(=NCCN2CCOCC2)c2cc(C)sc2[nH]1

>  <score_type>  (50) 
oracle

>  <origin>  (50) 
adg

>  <m_score__min__energy>  (50) 
-7.0300000000000002

>  <m_primary>  (50) 
energy

$$$$
50:0
     RDKit          3D

 34 35  0  0  1  0  0  0  0  0999 V2000
   59.6730   35.3350   46.3760 C   0  0  0  0  0  0  0  0  0  0  0  0
   59.1390   34.5810   45.1540 C   0  0  0  0  0  0  0  0  0  0  0  0
   58.1390   33.6590   45.6750 N   0  0  0  0  0  0  0  0  0  0  0  0
   57.2200   32.9580   44.8550 C   0  0  0  0  0  0  0  0  0  0  0  0
   57.5390   31.9800   44.0340 C   0  0  0  0  0  0  0  0  0  0  0  0
   57.8330   32.3450   42.6740 C   0  0  0  0  0  0  0  0  0  0  0  0
   58.0630   32.6450   41.5570 N   0  0  0  0  0  0  0  0  0  0  0  0
   57.5870   30.5980   44.4870 C   0  0  0  0  0  0  0  0  0  0  0  0
   57.3680   30.0480   45.6740 N   0  0  0  0  0  0  0  0  0  0  0  0
   57.5370   28.7190   45.6130 C   0  0  0  0  0  0  0  0  0  0  0  0
   57.4440   27.6830   46.5120 C   0  0  0  0  0  0  0  0  0  0  0  0
   57.6770   26.3720   46.1750 C   0  0  0  0  0  0  0  0  0  0  0  0
   58.0230   26.0880   44.8640 C   0  0  0  0  0  0  0  0  0  0  0  0
   58.1320   27.0910   43.9220 C   0  0  0  0  0  0  0  0  0  0  0  0
   57.8840   28.4060   44.3170 C   0  0  0  0  0  0  0  0  0  0  0  0
   57.9030   29.5790   43.6620 N   0  0  0  0  0  0  0  0  0  0  0  0
   58.0830   33.4870   47.1210 C   0  0  0  0  0  0  0  0  0  0  0  0
   58.7630   32.2400   47.5860 C   0  0  0  0  0  0  0  0  0  0  0  0
   59.3227   34.8404   47.2939 H   0  0  0  0  0  0  0  0  0  0  0  0
   60.7728   35.3339   46.3557 H   0  0  0  0  0  0  0  0  0  0  0  0
   59.3069   36.3721   46.3557 H   0  0  0  0  0  0  0  0  0  0  0  0
   58.6817   35.2811   44.4394 H   0  0  0  0  0  0  0  0  0  0  0  0
   59.9407   34.0538   44.6161 H   0  0  0  0  0  0  0  0  0  0  0  0
   56.1617   33.2531   44.9087 H   0  0  0  0  0  0  0  0  0  0  0  0
   57.1697   27.9153   47.5516 H   0  0  0  0  0  0  0  0  0  0  0  0
   57.5914   25.5711   46.9241 H   0  0  0  0  0  0  0  0  0  0  0  0
   58.2141   25.0457   44.5688 H   0  0  0  0  0  0  0  0  0  0  0  0
   58.4083   26.8587   42.8829 H   0  0  0  0  0  0  0  0  0  0  0  0
   58.1400   29.6600   42.6320 H   0  0  0  0  0  0  0  0  0  0  0  0
   58.5710   34.3508   47.5962 H   0  0  0  0  0  0  0  0  0  0  0  0
   57.0226   33.4090   47.4029 H   0  0  0  0  0  0  0  0  0  0  0  0
   58.7753   32.2174   48.6857 H   0  0  0  0  0  0  0  0  0  0  0  0
   58.2185   31.3624   47.2073 H   0  0  0  0  0  0  0  0  0  0  0  0
   59.7956   32.2224   47.2073 H   0  0  0  0  0  0  0  0  0  0  0  0
  1  2  1  0
  2  3  1  0
  3  4  1  0
  4  5  2  0
  5  6  1  0
  6  7  3  0
  5  8  1  0
  8  9  2  0
  9 10  1  0
 10 11  2  0
 11 12  1  0
 12 13  2  0
 13 14  1  0
 14 15  2  0
 15 16  1  0
  3 17  1  0
 17 18  1  0
 16  8  1  0
 15 10  1  0
  1 19  1  0
  1 20  1  0
  1 21  1  0
  2 22  1  0
  2 23  1  0
  4 24  1  0
 11 25  1  0
 12 26  1  0
 13 27  1  0
 14 28  1  0
 16 29  1  0
 17 30  1  0
 17 31  1  0
 18 32  1  0
 18 33  1  0
 18 34  1  0
M  END
>  <smiles>  (51) 
CCN(C=C(C#N)c1nc2ccccc2[nH]1)CC

>  <score_type>  (51) 
oracle

>  <origin>  (51) 
adg

>  <m_score__min__energy>  (51) 
-6.04

>  <m_primary>  (51) 
energy

$$$$
51:0
     RDKit          3D

 32 34  0  0  0  0  0  0  0  0999 V2000
   58.5373   34.9127   47.2935 H   0  0  0  0  0  0  0  0  0  0  0  0
   58.4980   34.3210   46.3670 C   0  0  0  0  0  0  0  0  0  0  0  0
   57.8230   33.2050   46.2110 O   0  0  0  0  0  0  0  0  0  0  0  0
   58.0030   32.7750   44.9820 C   0  0  0  0  0  0  0  0  0  0  0  0
   57.4010   31.5500   44.4410 C   0  0  0  0  0  0  0  0  0  0  0  0
   56.7940   30.6320   45.2420 N   0  0  0  0  0  0  0  0  0  0  0  0
   56.3130   29.5880   44.5360 C   0  0  0  0  0  0  0  0  0  0  0  0
   55.7050   28.5920   45.1100 N   0  0  0  0  0  0  0  0  0  0  0  0
   56.2880   27.3850   45.6290 C   0  0  0  0  0  0  0  0  0  0  0  0
   55.5690   26.4350   46.0360 O   0  0  0  0  0  0  0  0  0  0  0  0
   57.7100   27.2500   45.6940 N   0  0  0  0  0  0  0  0  0  0  0  0
   58.4700   27.3030   46.9380 C   0  0  0  0  0  0  0  0  0  0  0  0
   57.8055   27.0564   47.7792 H   0  0  0  0  0  0  0  0  0  0  0  0
   59.2954   26.5780   46.8824 H   0  0  0  0  0  0  0  0  0  0  0  0
   59.0430   28.6790   47.1460 C   0  0  0  0  0  0  0  0  0  0  0  0
   58.8460   29.3460   48.3660 C   0  0  0  0  0  0  0  0  0  0  0  0
   58.2573   28.8676   49.1626 H   0  0  0  0  0  0  0  0  0  0  0  0
   59.3950   30.6160   48.5730 C   0  0  0  0  0  0  0  0  0  0  0  0
   59.2365   31.1337   49.5305 H   0  0  0  0  0  0  0  0  0  0  0  0
   60.1450   31.2280   47.5640 C   0  0  0  0  0  0  0  0  0  0  0  0
   60.6770   32.4570   47.7660 F   0  0  0  0  0  0  0  0  0  0  0  0
   60.3470   30.5690   46.3470 C   0  0  0  0  0  0  0  0  0  0  0  0
   60.9378   31.0501   45.5536 H   0  0  0  0  0  0  0  0  0  0  0  0
   59.7990   29.2990   46.1370 C   0  0  0  0  0  0  0  0  0  0  0  0
   59.9606   28.7840   45.1785 H   0  0  0  0  0  0  0  0  0  0  0  0
   56.6230   29.7640   42.8860 S   0  0  0  0  0  0  0  0  0  0  0  0
   57.4040   31.2400   43.0830 C   0  0  0  0  0  0  0  0  0  0  0  0
   57.8405   31.8529   42.2806 H   0  0  0  0  0  0  0  0  0  0  0  0
   58.8320   33.6420   44.2960 C   0  0  0  0  0  0  0  0  0  0  0  0
   59.1679   33.5551   43.2522 H   0  0  0  0  0  0  0  0  0  0  0  0
   59.1500   34.6390   45.1940 C   0  0  0  0  0  0  0  0  0  0  0  0
   59.7939   35.5120   45.0116 H   0  0  0  0  0  0  0  0  0  0  0  0
  1  2  1  0
  2  3  1  0
  3  4  1  0
  4  5  1  0
  5  6  1  0
  6  7  1  0
  7  8  2  0
  8  9  1  0
  9 10  2  0
  9 11  1  0
 11 12  1  0
 12 13  1  0
 12 14  1  0
 12 15  1  0
 15 16  2  0
 16 17  1  0
 16 18  1  0
 18 19  1  0
 18 20  2  0
 20 21  1  0
 20 22  1  0
 22 23  1  0
 22 24  2  0
 24 25  1  0
  7 26  1  0
 26 27  1  0
 27 28  1  0
  4 29  2  0
 29 30  1  0
 29 31  1  0
 31 32  1  0
 31  2  2  0
 27  5  2  0
 24 15  1  0
M  CHG  2   6  -1  11  -1
M  END
>  <UniqueID>  (52) 
44

>  <SMILES>  (52) 
O=C(/N=c1/[n-]c(-c2ccco2)cs1)[N-]Cc1ccc(F)cc1

>  <Energy>  (52) 
89.76568687373761

>  <Genealogy>  (52) 
O=C(N=c1[n-]c(-c2ccco2)cs1)[N-]Cc1ccc(F)cc1 (protonated)
O=C(/N=c1/[n-]c(-c2ccco2)cs1)[N-]Cc1ccc(F)cc1 (cis-trans isomerization)
O=C(/N=c1/[n-]c(-c2ccco2)cs1)[N-]Cc1ccc(F)cc1 (3D coordinates assigned)
O=C(/N=c1/[n-]c(-c2ccco2)cs1)[N-]Cc1ccc(F)cc1 (optimized conformer: 89.76568687373761 kcal/mol)

>  <smiles>  (52) 
O=C(N=c1[nH]c(-c2ccco2)cs1)NCc1ccc(F)cc1

>  <score_type>  (52) 
oracle

>  <origin>  (52) 
adg

>  <m_score__min__energy>  (52) 
-9.9299999999999997

>  <m_primary>  (52) 
energy

$$$$
52:0
     RDKit          3D

 43 45  0  0  0  0  0  0  0  0999 V2000
   57.5643   35.2654   46.6406 H   0  0  0  0  0  0  0  0  0  0  0  0
   58.4400   34.6060   46.5490 C   0  0  0  0  0  0  0  0  0  0  0  0
   59.5970   35.0380   47.0740 C   0  0  0  0  0  0  0  0  0  0  0  0
   59.9965   35.9938   46.7042 H   0  0  0  0  0  0  0  0  0  0  0  0
   60.3770   34.3280   48.1120 C   0  0  0  0  0  0  0  0  0  0  0  0
   59.8670   34.1210   49.4130 C   0  0  0  0  0  0  0  0  0  0  0  0
   58.8724   34.5100   49.6765 H   0  0  0  0  0  0  0  0  0  0  0  0
   60.6190   33.4220   50.3750 C   0  0  0  0  0  0  0  0  0  0  0  0
   60.2143   33.2829   51.3883 H   0  0  0  0  0  0  0  0  0  0  0  0
   61.8810   32.9010   50.0520 C   0  0  0  0  0  0  0  0  0  0  0  0
   62.4717   32.3580   50.8045 H   0  0  0  0  0  0  0  0  0  0  0  0
   62.3740   33.0840   48.7580 C   0  0  0  0  0  0  0  0  0  0  0  0
   63.6050   32.6240   48.2770 C   0  0  0  0  0  0  0  0  0  0  0  0
   64.3227   32.0558   48.8870 H   0  0  0  0  0  0  0  0  0  0  0  0
   63.8250   32.9620   46.9440 C   0  0  0  0  0  0  0  0  0  0  0  0
   64.7206   32.7063   46.3588 H   0  0  0  0  0  0  0  0  0  0  0  0
   62.4920   33.8290   46.3720 S   0  0  0  0  0  0  0  0  0  0  0  0
   61.6280   33.7750   47.8150 C   0  0  0  0  0  0  0  0  0  0  0  0
   58.2500   33.3130   45.8570 C   0  0  0  0  0  0  0  0  0  0  0  0
   58.4470   32.1210   46.5680 C   0  0  0  0  0  0  0  0  0  0  0  0
   58.7324   32.1585   47.6297 H   0  0  0  0  0  0  0  0  0  0  0  0
   58.2830   30.8850   45.9360 C   0  0  0  0  0  0  0  0  0  0  0  0
   58.4223   29.9559   46.5081 H   0  0  0  0  0  0  0  0  0  0  0  0
   57.9420   30.8220   44.5770 C   0  0  0  0  0  0  0  0  0  0  0  0
   57.7620   29.5490   43.9280 N   0  0  0  0  0  0  0  0  0  0  0  0
   58.7250   28.4640   44.1660 C   0  0  0  0  0  0  0  0  0  0  0  0
   58.8718   28.3414   45.2492 H   0  0  0  0  0  0  0  0  0  0  0  0
   59.6782   28.7214   43.6811 H   0  0  0  0  0  0  0  0  0  0  0  0
   58.2100   27.1550   43.5780 C   0  0  0  0  0  0  0  0  0  0  0  0
   57.9397   26.4680   44.3934 H   0  0  0  0  0  0  0  0  0  0  0  0
   57.3236   27.3551   42.9582 H   0  0  0  0  0  0  0  0  0  0  0  0
   58.9951   26.6975   42.9582 H   0  0  0  0  0  0  0  0  0  0  0  0
   56.6180   29.3430   43.0300 C   0  0  0  0  0  0  0  0  0  0  0  0
   56.7394   29.9756   42.1383 H   0  0  0  0  0  0  0  0  0  0  0  0
   56.5797   28.2824   42.7406 H   0  0  0  0  0  0  0  0  0  0  0  0
   55.3140   29.7100   43.7320 C   0  0  0  0  0  0  0  0  0  0  0  0
   55.4599   29.6689   44.8215 H   0  0  0  0  0  0  0  0  0  0  0  0
   55.0143   30.7274   43.4403 H   0  0  0  0  0  0  0  0  0  0  0  0
   54.5276   28.9983   43.4403 H   0  0  0  0  0  0  0  0  0  0  0  0
   57.7800   32.0150   43.8540 C   0  0  0  0  0  0  0  0  0  0  0  0
   57.5252   31.9769   42.7846 H   0  0  0  0  0  0  0  0  0  0  0  0
   57.9410   33.2500   44.4870 C   0  0  0  0  0  0  0  0  0  0  0  0
   57.8252   34.1791   43.9097 H   0  0  0  0  0  0  0  0  0  0  0  0
  1  2  1  0
  2  3  2  0
  3  4  1  0
  3  5  1  0
  5  6  2  0
  6  7  1  0
  6  8  1  0
  8  9  1  0
  8 10  2  0
 10 11  1  0
 10 12  1  0
 12 13  1  0
 13 14  1  0
 13 15  2  0
 15 16  1  0
 15 17  1  0
 17 18  1  0
  2 19  1  0
 19 20  2  0
 20 21  1  0
 20 22  1  0
 22 23  1  0
 22 24  2  0
 24 25  1  0
 25 26  1  0
 26 27  1  0
 26 28  1  0
 26 29  1  0
 29 30  1  0
 29 31  1  0
 29 32  1  0
 25 33  1  0
 33 34  1  0
 33 35  1  0
 33 36  1  0
 36 37  1  0
 36 38  1  0
 36 39  1  0
 24 40  1  0
 40 41  1  0
 40 42  2  0
 42 43  1  0
 18  5  1  0
 42 19  1  0
 18 12  2  0
M  END
>  <UniqueID>  (53) 
45

>  <SMILES>  (53) 
CCN(CC)c1ccc(/C=C\c2cccc3ccsc23)cc1

>  <Energy>  (53) 
82.30133851504446

>  <Genealogy>  (53) 
CCN(CC)c1ccc(/C=C\c2cccc3ccsc23)cc1 (cis-trans isomerization)
CCN(CC)c1ccc(/C=C\c2cccc3ccsc23)cc1 (3D coordinates assigned)
CCN(CC)c1ccc(/C=C\c2cccc3ccsc23)cc1 (optimized conformer: 82.30133851504446 kcal/mol)

>  <smiles>  (53) 
CCN(CC)c1ccc(C=Cc2cccc3ccsc23)cc1

>  <score_type>  (53) 
oracle

>  <origin>  (53) 
adg

>  <m_score__min__energy>  (53) 
-7.8499999999999996

>  <m_primary>  (53) 
energy

$$$$
53:0
     RDKit          3D

 49 51  0  0  0  0  0  0  0  0999 V2000
   66.8230   33.0140   50.3150 C   0  0  0  0  0  0  0  0  0  0  0  0
   65.7160   31.9780   50.1340 C   0  0  0  0  0  0  0  0  0  0  0  0
   64.3890   32.6140   50.2060 N   0  0  0  0  0  0  0  0  0  0  0  0
   63.9050   33.0860   51.5160 C   0  0  0  0  0  0  0  0  0  0  0  0
   63.8700   34.6110   51.5670 C   0  0  0  0  0  0  0  0  0  0  0  0
   63.6020   32.8260   49.0010 C   0  0  0  0  0  0  0  0  0  0  0  0
   64.0950   33.4630   47.8580 C   0  0  0  0  0  0  0  0  0  0  0  0
   62.8710   33.5240   46.7120 S   0  0  0  0  0  0  0  0  0  0  0  0
   61.6940   32.7500   47.6290 C   0  0  0  0  0  0  0  0  0  0  0  0
   60.2980   32.4580   47.2380 C   0  0  0  0  0  0  0  0  0  0  0  0
   59.5630   31.5060   47.8480 N   0  0  0  0  0  0  0  0  0  0  0  0
   58.3700   31.4980   47.2740 N   0  0  0  0  0  0  0  0  0  0  0  0
   58.3870   32.4520   46.3260 C   0  0  0  0  0  0  0  0  0  0  0  0
   56.9790   32.8130   45.2700 S   0  0  0  0  0  0  0  0  0  0  0  0
   57.2310   31.3830   44.1550 C   0  0  0  0  0  0  0  0  0  0  0  0
   56.3570   30.2110   44.4880 C   0  0  0  0  0  0  0  0  0  0  0  0
   55.2660   30.0670   43.8750 O   0  0  0  0  0  0  0  0  0  0  0  0
   56.6890   29.3480   45.5800 N   0  0  0  0  0  0  0  0  0  0  0  0
   57.9170   28.6200   45.7230 C   0  0  0  0  0  0  0  0  0  0  0  0
   59.1130   29.2800   45.4100 C   0  0  0  0  0  0  0  0  0  0  0  0
   60.3400   28.6200   45.5210 C   0  0  0  0  0  0  0  0  0  0  0  0
   60.3800   27.2860   45.9250 C   0  0  0  0  0  0  0  0  0  0  0  0
   59.1940   26.6040   46.2060 C   0  0  0  0  0  0  0  0  0  0  0  0
   57.9580   27.2560   46.1000 C   0  0  0  0  0  0  0  0  0  0  0  0
   56.5040   26.2950   46.3440 Cl  0  0  0  0  0  0  0  0  0  0  0  0
   59.5840   33.0740   46.2660 N   0  0  0  0  0  0  0  0  0  0  0  0
   60.0190   34.0830   45.3020 C   0  0  0  0  0  0  0  0  0  0  0  0
   62.2530   32.4320   48.8620 C   0  0  0  0  0  0  0  0  0  0  0  0
   66.9991   33.1788   51.3882 H   0  0  0  0  0  0  0  0  0  0  0  0
   67.7474   32.6490   49.8436 H   0  0  0  0  0  0  0  0  0  0  0  0
   66.5200   33.9605   49.8436 H   0  0  0  0  0  0  0  0  0  0  0  0
   65.8315   31.4941   49.1529 H   0  0  0  0  0  0  0  0  0  0  0  0
   65.7946   31.2329   50.9394 H   0  0  0  0  0  0  0  0  0  0  0  0
   62.8905   32.6967   51.6866 H   0  0  0  0  0  0  0  0  0  0  0  0
   64.5918   32.7242   52.2954 H   0  0  0  0  0  0  0  0  0  0  0  0
   63.8624   34.9427   52.6158 H   0  0  0  0  0  0  0  0  0  0  0  0
   64.7591   35.0153   51.0610 H   0  0  0  0  0  0  0  0  0  0  0  0
   62.9633   34.9741   51.0610 H   0  0  0  0  0  0  0  0  0  0  0  0
   65.1139   33.8577   47.7314 H   0  0  0  0  0  0  0  0  0  0  0  0
   57.0120   31.7005   43.1248 H   0  0  0  0  0  0  0  0  0  0  0  0
   58.2745   31.0561   44.2746 H   0  0  0  0  0  0  0  0  0  0  0  0
   59.0858   30.3270   45.0739 H   0  0  0  0  0  0  0  0  0  0  0  0
   61.2741   29.1529   45.2897 H   0  0  0  0  0  0  0  0  0  0  0  0
   61.3467   26.7702   46.0225 H   0  0  0  0  0  0  0  0  0  0  0  0
   59.2303   25.5482   46.5125 H   0  0  0  0  0  0  0  0  0  0  0  0
   60.3989   34.9642   45.8398 H   0  0  0  0  0  0  0  0  0  0  0  0
   60.8175   33.6665   44.6704 H   0  0  0  0  0  0  0  0  0  0  0  0
   59.1680   34.3776   44.6704 H   0  0  0  0  0  0  0  0  0  0  0  0
   61.6940   31.9190   49.6584 H   0  0  0  0  0  0  0  0  0  0  0  0
  1  2  1  0
  2  3  1  0
  3  4  1  0
  4  5  1  0
  3  6  1  0
  6  7  2  0
  7  8  1  0
  8  9  1  0
  9 10  1  0
 10 11  2  0
 11 12  1  0
 12 13  2  0
 13 14  1  0
 14 15  1  0
 15 16  1  0
 16 17  2  0
 16 18  1  0
 18 19  1  0
 19 20  2  0
 20 21  1  0
 21 22  2  0
 22 23  1  0
 23 24  2  0
 24 25  1  0
 13 26  1  0
 26 27  1  0
  9 28  2  0
 28  6  1  0
 26 10  1  0
 24 19  1  0
  1 29  1  0
  1 30  1  0
  1 31  1  0
  2 32  1  0
  2 33  1  0
  4 34  1  0
  4 35  1  0
  5 36  1  0
  5 37  1  0
  5 38  1  0
  7 39  1  0
 15 40  1  0
 15 41  1  0
 20 42  1  0
 21 43  1  0
 22 44  1  0
 23 45  1  0
 27 46  1  0
 27 47  1  0
 27 48  1  0
 28 49  1  0
M  CHG  1  18  -1
M  END
>  <UniqueID>  (54) 
46

>  <SMILES>  (54) 
CCN(CC)c1csc(-c2nnc(SCC(=O)[N-]c3ccccc3Cl)n2C)c1

>  <Energy>  (54) 
109.94082228431714

>  <Genealogy>  (54) 
CCN(CC)c1csc(-c2nnc(SCC(=O)[N-]c3ccccc3Cl)n2C)c1 (protonated)
CCN(CC)c1csc(-c2nnc(SCC(=O)[N-]c3ccccc3Cl)n2C)c1 (3D coordinates assigned)
CCN(CC)c1csc(-c2nnc(SCC(=O)[N-]c3ccccc3Cl)n2C)c1 (optimized conformer: 109.94082228431714 kcal/mol)

>  <smiles>  (54) 
CCN(CC)c1csc(-c2nnc(SCC(=O)Nc3ccccc3Cl)n2C)c1

>  <score_type>  (54) 
oracle

>  <origin>  (54) 
adg

>  <m_score__min__energy>  (54) 
-11.1

>  <m_primary>  (54) 
energy

$$$$
54:0
     RDKit          3D

 34 35  0  0  0  0  0  0  0  0999 V2000
   51.6670   23.7740   44.7950 C   0  0  0  0  0  0  0  0  0  0  0  0
   52.8520   22.9890   44.7050 O   0  0  0  0  0  0  0  0  0  0  0  0
   54.1510   23.5160   44.6770 C   0  0  0  0  0  0  0  0  0  0  0  0
   55.1560   23.0030   43.8330 C   0  0  0  0  0  0  0  0  0  0  0  0
   56.4310   23.5730   43.8340 C   0  0  0  0  0  0  0  0  0  0  0  0
   56.7220   24.6460   44.6790 C   0  0  0  0  0  0  0  0  0  0  0  0
   55.7370   25.1480   45.5470 C   0  0  0  0  0  0  0  0  0  0  0  0
   55.9880   26.2680   46.4080 N   0  0  0  0  0  0  0  0  0  0  0  0
   56.7830   27.4180   46.0960 C   0  0  0  0  0  0  0  0  0  0  0  0
   57.9700   27.4660   46.5150 O   0  0  0  0  0  0  0  0  0  0  0  0
   56.2780   28.4580   45.2440 N   0  0  0  0  0  0  0  0  0  0  0  0
   57.0080   29.6680   44.9880 C   0  0  0  0  0  0  0  0  0  0  0  0
   57.7730   30.2230   46.0250 C   0  0  0  0  0  0  0  0  0  0  0  0
   58.4850   31.4080   45.8250 C   0  0  0  0  0  0  0  0  0  0  0  0
   58.4460   32.0450   44.5840 C   0  0  0  0  0  0  0  0  0  0  0  0
   57.7120   31.4900   43.5340 C   0  0  0  0  0  0  0  0  0  0  0  0
   57.0070   30.2870   43.7140 C   0  0  0  0  0  0  0  0  0  0  0  0
   56.2670   29.7000   42.5430 C   0  0  0  0  0  0  0  0  0  0  0  0
   54.4520   24.5920   45.5220 C   0  0  0  0  0  0  0  0  0  0  0  0
   51.4166   23.9399   45.8532 H   0  0  0  0  0  0  0  0  0  0  0  0
   51.8306   24.7429   44.3007 H   0  0  0  0  0  0  0  0  0  0  0  0
   50.8386   23.2454   44.3007 H   0  0  0  0  0  0  0  0  0  0  0  0
   54.9359   22.1518   43.1720 H   0  0  0  0  0  0  0  0  0  0  0  0
   57.2093   23.1750   43.1663 H   0  0  0  0  0  0  0  0  0  0  0  0
   57.7242   25.0993   44.6653 H   0  0  0  0  0  0  0  0  0  0  0  0
   55.4830   28.2260   44.6090 H   0  0  0  0  0  0  0  0  0  0  0  0
   57.8124   29.7211   47.0030 H   0  0  0  0  0  0  0  0  0  0  0  0
   59.0766   31.8392   46.6460 H   0  0  0  0  0  0  0  0  0  0  0  0
   58.9947   32.9863   44.4327 H   0  0  0  0  0  0  0  0  0  0  0  0
   57.6851   31.9978   42.5586 H   0  0  0  0  0  0  0  0  0  0  0  0
   55.4542   29.0553   42.9087 H   0  0  0  0  0  0  0  0  0  0  0  0
   55.8447   30.5114   41.9320 H   0  0  0  0  0  0  0  0  0  0  0  0
   56.9610   29.1041   41.9320 H   0  0  0  0  0  0  0  0  0  0  0  0
   53.6688   25.0055   46.1744 H   0  0  0  0  0  0  0  0  0  0  0  0
  1  2  1  0
  2  3  1  0
  3  4  2  0
  4  5  1  0
  5  6  2  0
  6  7  1  0
  7  8  1  0
  8  9  1  0
  9 10  2  0
  9 11  1  0
 11 12  1  0
 12 13  2  0
 13 14  1  0
 14 15  2  0
 15 16  1  0
 16 17  2  0
 17 18  1  0
  7 19  2  0
 19  3  1  0
 17 12  1  0
  1 20  1  0
  1 21  1  0
  1 22  1  0
  4 23  1  0
  5 24  1  0
  6 25  1  0
 11 26  1  0
 13 27  1  0
 14 28  1  0
 15 29  1  0
 16 30  1  0
 18 31  1  0
 18 32  1  0
 18 33  1  0
 19 34  1  0
M  CHG  1   8  -1
M  END
>  <UniqueID>  (55) 
47

>  <SMILES>  (55) 
COc1cccc([N-]C(=O)Nc2ccccc2C)c1

>  <Energy>  (55) 
42.875648052072336

>  <Genealogy>  (55) 
COc1cccc([N-]C(=O)Nc2ccccc2C)c1 (protonated)
COc1cccc([N-]C(=O)Nc2ccccc2C)c1 (3D coordinates assigned)
COc1cccc([N-]C(=O)Nc2ccccc2C)c1 (optimized conformer: 42.875648052072336 kcal/mol)

>  <smiles>  (55) 
COc1cccc(NC(=O)Nc2ccccc2C)c1

>  <score_type>  (55) 
oracle

>  <origin>  (55) 
adg

>  <m_score__min__energy>  (55) 
-8.6300000000000008

>  <m_primary>  (55) 
energy

$$$$
55:0
     RDKit          3D

 37 40  0  0  0  0  0  0  0  0999 V2000
   56.0780   29.0400   44.8760 O   0  0  0  0  0  0  0  0  0  0  0  0
   57.1990   29.3920   45.3360 C   0  0  0  0  0  0  0  0  0  0  0  0
   58.0250   28.4370   46.0250 N   0  0  0  0  0  0  0  0  0  0  0  0
   57.8300   27.0140   45.9600 C   0  0  0  0  0  0  0  0  0  0  0  0
   58.9410   26.1620   46.0630 C   0  0  0  0  0  0  0  0  0  0  0  0
   58.7800   24.7760   45.9800 C   0  0  0  0  0  0  0  0  0  0  0  0
   57.5110   24.2290   45.7780 C   0  0  0  0  0  0  0  0  0  0  0  0
   56.3990   25.0670   45.6470 C   0  0  0  0  0  0  0  0  0  0  0  0
   54.7750   24.3660   45.3600 S   0  0  0  0  0  0  0  0  0  0  0  0
   55.4380   22.9940   44.4250 C   0  0  0  0  0  0  0  0  0  0  0  0
   55.9160   21.8700   44.9890 N   0  0  0  0  0  0  0  0  0  0  0  0
   56.2940   21.1610   43.9080 C   0  0  0  0  0  0  0  0  0  0  0  0
   56.0590   21.8180   42.7570 N   0  0  0  0  0  0  0  0  0  0  0  0
   55.5160   22.9780   43.0840 N   0  0  0  0  0  0  0  0  0  0  0  0
   56.5570   26.4570   45.7350 C   0  0  0  0  0  0  0  0  0  0  0  0
   57.6390   30.7960   45.1980 C   0  0  0  0  0  0  0  0  0  0  0  0
   57.3850   31.5240   44.0220 C   0  0  0  0  0  0  0  0  0  0  0  0
   57.8180   32.8480   43.9200 C   0  0  0  0  0  0  0  0  0  0  0  0
   58.5040   33.4430   44.9840 C   0  0  0  0  0  0  0  0  0  0  0  0
   58.9520   34.7700   44.9140 C   0  0  0  0  0  0  0  0  0  0  0  0
   59.6350   35.3340   45.9980 C   0  0  0  0  0  0  0  0  0  0  0  0
   59.8720   34.5790   47.1510 C   0  0  0  0  0  0  0  0  0  0  0  0
   59.4270   33.2550   47.2290 C   0  0  0  0  0  0  0  0  0  0  0  0
   58.7430   32.6820   46.1510 C   0  0  0  0  0  0  0  0  0  0  0  0
   58.3100   31.3960   46.2220 N   0  0  0  0  0  0  0  0  0  0  0  0
   58.7550   28.7970   46.6800 H   0  0  0  0  0  0  0  0  0  0  0  0
   59.9445   26.5878   46.2099 H   0  0  0  0  0  0  0  0  0  0  0  0
   59.6542   24.1150   46.0739 H   0  0  0  0  0  0  0  0  0  0  0  0
   57.3859   23.1376   45.7219 H   0  0  0  0  0  0  0  0  0  0  0  0
   56.7438   20.1585   43.9599 H   0  0  0  0  0  0  0  0  0  0  0  0
   55.6824   27.1154   45.6278 H   0  0  0  0  0  0  0  0  0  0  0  0
   56.8475   31.0527   43.1859 H   0  0  0  0  0  0  0  0  0  0  0  0
   57.6196   33.4226   43.0032 H   0  0  0  0  0  0  0  0  0  0  0  0
   58.7670   35.3668   44.0087 H   0  0  0  0  0  0  0  0  0  0  0  0
   59.9865   36.3748   45.9426 H   0  0  0  0  0  0  0  0  0  0  0  0
   60.4100   35.0275   47.9992 H   0  0  0  0  0  0  0  0  0  0  0  0
   59.6148   32.6643   48.1378 H   0  0  0  0  0  0  0  0  0  0  0  0
  1  2  2  0
  2  3  1  0
  3  4  1  0
  4  5  2  0
  5  6  1  0
  6  7  2  0
  7  8  1  0
  8  9  1  0
  9 10  1  0
 10 11  1  0
 11 12  2  0
 12 13  1  0
 13 14  1  0
  8 15  2  0
  2 16  1  0
 16 17  2  0
 17 18  1  0
 18 19  2  0
 19 20  1  0
 20 21  2  0
 21 22  1  0
 22 23  2  0
 23 24  1  0
 24 25  2  0
 15  4  1  0
 25 16  1  0
 14 10  2  0
 24 19  1  0
  3 26  1  0
  5 27  1  0
  6 28  1  0
  7 29  1  0
 12 30  1  0
 15 31  1  0
 17 32  1  0
 18 33  1  0
 20 34  1  0
 21 35  1  0
 22 36  1  0
 23 37  1  0
M  CHG  1  13  -1
M  END
>  <UniqueID>  (56) 
48

>  <SMILES>  (56) 
O=C(Nc1cccc(Sc2nc[n-]n2)c1)c1ccc2ccccc2n1

>  <Energy>  (56) 
76.26432851162366

>  <Genealogy>  (56) 
O=C(Nc1cccc(Sc2nc[n-]n2)c1)c1ccc2ccccc2n1 (protonated)
O=C(Nc1cccc(Sc2nc[n-]n2)c1)c1ccc2ccccc2n1 (3D coordinates assigned)
O=C(Nc1cccc(Sc2nc[n-]n2)c1)c1ccc2ccccc2n1 (optimized conformer: 76.26432851162366 kcal/mol)

>  <smiles>  (56) 
O=C(Nc1cccc(Sc2nc[nH]n2)c1)c1ccc2ccccc2n1

>  <score_type>  (56) 
oracle

>  <origin>  (56) 
adg

>  <m_score__min__energy>  (56) 
-11.029999999999999

>  <m_primary>  (56) 
energy

$$$$
56:0
     RDKit          3D

 48 50  0  0  0  0  0  0  0  0999 V2000
   59.6550   35.2610   46.3050 C   0  0  0  0  0  0  0  0  0  0  0  0
   59.3920   33.9290   46.8920 N   0  0  0  0  0  0  0  0  0  0  0  0
   60.3740   32.9360   46.3740 C   0  0  0  0  0  0  0  0  0  0  0  0
   61.6560   32.8580   47.1800 C   0  0  0  0  0  0  0  0  0  0  0  0
   62.7780   33.6210   46.8140 C   0  0  0  0  0  0  0  0  0  0  0  0
   63.9600   33.5380   47.5550 C   0  0  0  0  0  0  0  0  0  0  0  0
   64.0310   32.6990   48.6700 C   0  0  0  0  0  0  0  0  0  0  0  0
   65.1780   32.6190   49.3880 F   0  0  0  0  0  0  0  0  0  0  0  0
   62.9170   31.9440   49.0490 C   0  0  0  0  0  0  0  0  0  0  0  0
   61.7320   32.0250   48.3100 C   0  0  0  0  0  0  0  0  0  0  0  0
   57.9650   33.5040   46.7380 C   0  0  1  0  0  0  0  0  0  0  0  0
   57.2810   34.2150   45.5610 C   0  0  0  0  0  0  0  0  0  0  0  0
   57.5030   33.3100   44.3500 C   0  0  0  0  0  0  0  0  0  0  0  0
   58.0300   32.0380   44.8550 N   0  0  0  0  0  0  0  0  0  0  0  0
   57.5740   30.8250   44.1390 C   0  0  0  0  0  0  0  0  0  0  0  0
   58.0780   29.5150   44.7130 C   0  0  0  0  0  0  0  0  0  0  0  0
   59.4500   29.3080   44.9290 C   0  0  0  0  0  0  0  0  0  0  0  0
   59.9080   28.1000   45.4570 C   0  0  0  0  0  0  0  0  0  0  0  0
   59.0020   27.0960   45.8010 C   0  0  0  0  0  0  0  0  0  0  0  0
   57.6200   27.3010   45.6470 C   0  0  0  0  0  0  0  0  0  0  0  0
   56.6400   26.2050   45.9820 C   0  0  0  0  0  0  0  0  0  0  0  0
   55.3610   26.7290   45.9990 F   0  0  0  0  0  0  0  0  0  0  0  0
   56.6980   25.1890   45.0440 F   0  0  0  0  0  0  0  0  0  0  0  0
   56.9220   25.6640   47.2240 F   0  0  0  0  0  0  0  0  0  0  0  0
   57.1680   28.5110   45.0910 C   0  0  0  0  0  0  0  0  0  0  0  0
   57.8140   32.0410   46.3020 C   0  0  0  0  0  0  0  0  0  0  0  0
   59.7999   35.9949   47.1114 H   0  0  0  0  0  0  0  0  0  0  0  0
   60.5615   35.2153   45.6835 H   0  0  0  0  0  0  0  0  0  0  0  0
   58.7992   35.5633   45.6835 H   0  0  0  0  0  0  0  0  0  0  0  0
   59.8994   31.9437   46.3821 H   0  0  0  0  0  0  0  0  0  0  0  0
   60.6539   33.2635   45.3619 H   0  0  0  0  0  0  0  0  0  0  0  0
   62.7256   34.2868   45.9400 H   0  0  0  0  0  0  0  0  0  0  0  0
   64.8360   34.1343   47.2599 H   0  0  0  0  0  0  0  0  0  0  0  0
   62.9724   31.2860   49.9287 H   0  0  0  0  0  0  0  0  0  0  0  0
   60.8555   31.4342   48.6145 H   0  0  0  0  0  0  0  0  0  0  0  0
   57.5372   33.7201   47.7281 H   0  0  0  0  0  0  0  0  0  0  0  0
   56.2056   34.3361   45.7580 H   0  0  0  0  0  0  0  0  0  0  0  0
   57.6932   35.2217   45.3981 H   0  0  0  0  0  0  0  0  0  0  0  0
   56.5514   33.1424   43.8244 H   0  0  0  0  0  0  0  0  0  0  0  0
   58.2050   33.7709   43.6395 H   0  0  0  0  0  0  0  0  0  0  0  0
   56.4744   30.8076   44.1630 H   0  0  0  0  0  0  0  0  0  0  0  0
   57.9873   30.8945   43.1220 H   0  0  0  0  0  0  0  0  0  0  0  0
   60.1684   30.1031   44.6804 H   0  0  0  0  0  0  0  0  0  0  0  0
   60.9864   27.9389   45.6024 H   0  0  0  0  0  0  0  0  0  0  0  0
   59.3717   26.1379   46.1952 H   0  0  0  0  0  0  0  0  0  0  0  0
   56.0894   28.6745   44.9499 H   0  0  0  0  0  0  0  0  0  0  0  0
   56.8059   31.6712   46.5406 H   0  0  0  0  0  0  0  0  0  0  0  0
   58.5282   31.3854   46.8217 H   0  0  0  0  0  0  0  0  0  0  0  0
  1  2  1  0
  2  3  1  0
  3  4  1  0
  4  5  2  0
  5  6  1  0
  6  7  2  0
  7  8  1  0
  7  9  1  0
  9 10  2  0
  2 11  1  0
 11 12  1  0
 12 13  1  0
 13 14  1  0
 14 15  1  0
 15 16  1  0
 16 17  2  0
 17 18  1  0
 18 19  2  0
 19 20  1  0
 20 21  1  0
 21 22  1  0
 21 23  1  0
 21 24  1  0
 20 25  2  0
 14 26  1  0
 10  4  1  0
 26 11  1  0
 25 16  1  0
  1 27  1  0
  1 28  1  0
  1 29  1  0
  3 30  1  0
  3 31  1  0
  5 32  1  0
  6 33  1  0
  9 34  1  0
 10 35  1  0
 11 36  1  1
 12 37  1  0
 12 38  1  0
 13 39  1  0
 13 40  1  0
 15 41  1  0
 15 42  1  0
 17 43  1  0
 18 44  1  0
 19 45  1  0
 25 46  1  0
 26 47  1  0
 26 48  1  0
M  END
>  <UniqueID>  (57) 
49

>  <SMILES>  (57) 
CN(Cc1ccc(F)cc1)[C@H]1CCN(Cc2cccc(C(F)(F)F)c2)C1

>  <Energy>  (57) 
68.59852936859247

>  <Genealogy>  (57) 
CN(Cc1ccc(F)cc1)[C@H]1CCN(Cc2cccc(C(F)(F)F)c2)C1 (chirality)
CN(Cc1ccc(F)cc1)[C@H]1CCN(Cc2cccc(C(F)(F)F)c2)C1 (3D coordinates assigned)
CN(Cc1ccc(F)cc1)[C@H]1CCN(Cc2cccc(C(F)(F)F)c2)C1 (nonaromatic ring conformer: 68.59852936859247 kcal/mol)

>  <smiles>  (57) 
CN(Cc1ccc(F)cc1)C1CCN(Cc2cccc(C(F)(F)F)c2)C1

>  <score_type>  (57) 
oracle

>  <origin>  (57) 
adg

>  <m_score__min__energy>  (57) 
-7.75

>  <m_primary>  (57) 
energy

$$$$
57:0
     RDKit          3D

 28 29  0  0  0  0  0  0  0  0999 V2000
   56.0800   29.2390   54.8440 O   0  0  0  0  0  0  0  0  0  0  0  0
   55.9210   29.7130   53.6860 C   0  0  0  0  0  0  0  0  0  0  0  0
   54.8850   29.0730   52.7980 C   0  0  0  0  0  0  0  0  0  0  0  0
   53.7690   30.0370   52.4830 C   0  0  0  0  0  0  0  0  0  0  0  0
   52.8480   30.4020   53.4810 C   0  0  0  0  0  0  0  0  0  0  0  0
   51.8110   31.2940   53.1930 C   0  0  0  0  0  0  0  0  0  0  0  0
   51.6800   31.8250   51.9060 C   0  0  0  0  0  0  0  0  0  0  0  0
   50.6490   32.7120   51.6210 O   0  0  0  0  0  0  0  0  0  0  0  0
   52.5840   31.4580   50.9050 C   0  0  0  0  0  0  0  0  0  0  0  0
   53.6220   30.5660   51.1890 C   0  0  0  0  0  0  0  0  0  0  0  0
   56.7250   30.8940   53.2640 C   0  0  0  0  0  0  0  0  0  0  0  0
   56.7550   31.3300   51.9240 C   0  0  0  0  0  0  0  0  0  0  0  0
   57.5130   32.4460   51.5550 C   0  0  0  0  0  0  0  0  0  0  0  0
   58.2540   33.1430   52.5150 C   0  0  0  0  0  0  0  0  0  0  0  0
   59.0120   34.2560   52.1580 O   0  0  0  0  0  0  0  0  0  0  0  0
   58.2370   32.7170   53.8450 C   0  0  0  0  0  0  0  0  0  0  0  0
   57.4810   31.6030   54.2190 C   0  0  0  0  0  0  0  0  0  0  0  0
   55.3626   28.7572   51.8588 H   0  0  0  0  0  0  0  0  0  0  0  0
   54.4596   28.2068   53.3260 H   0  0  0  0  0  0  0  0  0  0  0  0
   52.9441   29.9834   54.4937 H   0  0  0  0  0  0  0  0  0  0  0  0
   51.0970   31.5786   53.9799 H   0  0  0  0  0  0  0  0  0  0  0  0
   52.4783   31.8721   49.8914 H   0  0  0  0  0  0  0  0  0  0  0  0
   54.3273   30.2766   50.3960 H   0  0  0  0  0  0  0  0  0  0  0  0
   56.1769   30.7876   51.1614 H   0  0  0  0  0  0  0  0  0  0  0  0
   57.5265   32.7768   50.5060 H   0  0  0  0  0  0  0  0  0  0  0  0
   58.5800   35.1560   51.9810 H   0  0  0  0  0  0  0  0  0  0  0  0
   58.8215   33.2610   54.6016 H   0  0  0  0  0  0  0  0  0  0  0  0
   57.4759   31.2761   55.2693 H   0  0  0  0  0  0  0  0  0  0  0  0
  1  2  2  0
  2  3  1  0
  3  4  1  0
  4  5  2  0
  5  6  1  0
  6  7  2  0
  7  8  1  0
  7  9  1  0
  9 10  2  0
  2 11  1  0
 11 12  2  0
 12 13  1  0
 13 14  2  0
 14 15  1  0
 14 16  1  0
 16 17  2  0
 10  4  1  0
 17 11  1  0
  3 18  1  0
  3 19  1  0
  5 20  1  0
  6 21  1  0
  9 22  1  0
 10 23  1  0
 12 24  1  0
 13 25  1  0
 15 26  1  0
 16 27  1  0
 17 28  1  0
M  CHG  1   8  -1
M  END
>  <UniqueID>  (58) 
50

>  <SMILES>  (58) 
O=C(Cc1ccc([O-])cc1)c1ccc(O)cc1

>  <Energy>  (58) 
29.31043681789753

>  <Genealogy>  (58) 
O=C(Cc1ccc([O-])cc1)c1ccc(O)cc1 (protonated)
O=C(Cc1ccc([O-])cc1)c1ccc(O)cc1 (3D coordinates assigned)
O=C(Cc1ccc([O-])cc1)c1ccc(O)cc1 (optimized conformer: 29.31043681789753 kcal/mol)

>  <smiles>  (58) 
O=C(Cc1ccc(O)cc1)c1ccc(O)cc1

>  <score_type>  (58) 
oracle

>  <origin>  (58) 
adg

>  <m_score__min__energy>  (58) 
-9.4399999999999995

>  <m_primary>  (58) 
energy

$$$$
58:0
     RDKit          3D

 35 37  0  0  0  0  0  0  0  0999 V2000
   58.7768   24.9659   47.4126 H   0  0  0  0  0  0  0  0  0  0  0  0
   57.9710   25.5350   46.9260 C   0  0  0  0  0  0  0  0  0  0  0  0
   56.7450   24.9200   46.6560 C   0  0  0  0  0  0  0  0  0  0  0  0
   56.5260   23.4750   46.9890 C   0  0  0  0  0  0  0  0  0  0  0  0
   56.5070   23.3493   48.0816 H   0  0  0  0  0  0  0  0  0  0  0  0
   55.5672   23.1422   46.5649 H   0  0  0  0  0  0  0  0  0  0  0  0
   57.3432   22.8731   46.5649 H   0  0  0  0  0  0  0  0  0  0  0  0
   55.7450   25.6640   46.0160 C   0  0  0  0  0  0  0  0  0  0  0  0
   54.7799   25.1913   45.7812 H   0  0  0  0  0  0  0  0  0  0  0  0
   55.9570   26.9670   45.6820 N   0  0  0  0  0  0  0  0  0  0  0  0
   55.1510   27.4780   45.2640 H   0  0  0  0  0  0  0  0  0  0  0  0
   57.1550   27.5860   45.9330 C   0  0  0  0  0  0  0  0  0  0  0  0
   57.3800   28.8330   45.6220 N   0  0  0  0  0  0  0  0  0  0  0  0
   56.5310   29.7560   44.9260 C   0  0  0  0  0  0  0  0  0  0  0  0
   55.3100   29.5040   44.7450 O   0  0  0  0  0  0  0  0  0  0  0  0
   57.1090   30.9570   44.3990 N   0  0  0  0  0  0  0  0  0  0  0  0
   57.6910   32.0330   45.1560 C   0  0  0  0  0  0  0  0  0  0  0  0
   57.1060   33.3120   45.1600 C   0  0  0  0  0  0  0  0  0  0  0  0
   56.1808   33.4890   44.5920 H   0  0  0  0  0  0  0  0  0  0  0  0
   57.6870   34.3590   45.8770 C   0  0  0  0  0  0  0  0  0  0  0  0
   57.2111   35.3507   45.8800 H   0  0  0  0  0  0  0  0  0  0  0  0
   58.8670   34.1540   46.5890 C   0  0  0  0  0  0  0  0  0  0  0  0
   59.3141   34.9816   47.1592 H   0  0  0  0  0  0  0  0  0  0  0  0
   59.4860   32.8970   46.5810 C   0  0  0  0  0  0  0  0  0  0  0  0
   60.6830   32.6950   47.2850 C   0  0  0  0  0  0  0  0  0  0  0  0
   61.1355   33.5259   47.8461 H   0  0  0  0  0  0  0  0  0  0  0  0
   61.3020   31.4430   47.2760 C   0  0  0  0  0  0  0  0  0  0  0  0
   62.2398   31.2904   47.8303 H   0  0  0  0  0  0  0  0  0  0  0  0
   60.7330   30.3850   46.5650 C   0  0  0  0  0  0  0  0  0  0  0  0
   61.2248   29.4011   46.5607 H   0  0  0  0  0  0  0  0  0  0  0  0
   59.5420   30.5700   45.8590 C   0  0  0  0  0  0  0  0  0  0  0  0
   59.1006   29.7301   45.3025 H   0  0  0  0  0  0  0  0  0  0  0  0
   58.9020   31.8260   45.8550 C   0  0  0  0  0  0  0  0  0  0  0  0
   58.1720   26.8710   46.5780 C   0  0  0  0  0  0  0  0  0  0  0  0
   59.1284   27.3624   46.8100 H   0  0  0  0  0  0  0  0  0  0  0  0
  1  2  1  0
  2  3  1  0
  3  4  1  0
  4  5  1  0
  4  6  1  0
  4  7  1  0
  3  8  2  0
  8  9  1  0
  8 10  1  0
 10 11  1  0
 10 12  1  0
 12 13  2  0
 13 14  1  0
 14 15  2  0
 14 16  1  0
 16 17  1  0
 17 18  2  0
 18 19  1  0
 18 20  1  0
 20 21  1  0
 20 22  2  0
 22 23  1  0
 22 24  1  0
 24 25  2  0
 25 26  1  0
 25 27  1  0
 27 28  1  0
 27 29  2  0
 29 30  1  0
 29 31  1  0
 31 32  1  0
 31 33  2  0
 12 34  1  0
 34 35  1  0
 34  2  2  0
 33 17  1  0
 33 24  1  0
M  CHG  1  16  -1
M  END
>  <UniqueID>  (59) 
51

>  <SMILES>  (59) 
Cc1cc/c(=N/C(=O)[N-]c2cccc3ccccc23)[nH]c1

>  <Energy>  (59) 
52.379056995225476

>  <Genealogy>  (59) 
Cc1ccc(=NC(=O)[N-]c2cccc3ccccc23)[nH]c1 (protonated)
Cc1cc/c(=N/C(=O)[N-]c2cccc3ccccc23)[nH]c1 (cis-trans isomerization)
Cc1cc/c(=N/C(=O)[N-]c2cccc3ccccc23)[nH]c1 (3D coordinates assigned)
Cc1cc/c(=N/C(=O)[N-]c2cccc3ccccc23)[nH]c1 (optimized conformer: 52.379056995225476 kcal/mol)

>  <smiles>  (59) 
Cc1ccc(=NC(=O)Nc2cccc3ccccc23)[nH]c1

>  <score_type>  (59) 
oracle

>  <origin>  (59) 
adg

>  <m_score__min__energy>  (59) 
-9.5600000000000005

>  <m_primary>  (59) 
energy

$$$$
59:0
     RDKit          3D

 31 33  0  0  0  0  0  0  0  0999 V2000
   55.1510   29.2470   44.5370 O   0  0  0  0  0  0  0  0  0  0  0  0
   56.4480   29.8890   44.1270 S   0  0  0  0  0  0  0  0  0  0  0  0
   56.6280   29.7240   42.6450 O   0  0  0  0  0  0  0  0  0  0  0  0
   56.3900   31.5840   44.5060 N   0  0  0  0  0  0  0  0  0  0  0  0
   57.3240   32.2830   45.0850 C   0  0  0  0  0  0  0  0  0  0  0  0
   57.8640   33.4510   44.5100 C   0  0  0  0  0  0  0  0  0  0  0  0
   58.8600   34.1590   45.1870 C   0  0  0  0  0  0  0  0  0  0  0  0
   59.3180   33.7060   46.4280 C   0  0  0  0  0  0  0  0  0  0  0  0
   60.3160   34.3940   47.1340 C   0  0  0  0  0  0  0  0  0  0  0  0
   60.7520   33.9140   48.3740 C   0  0  0  0  0  0  0  0  0  0  0  0
   61.7180   34.5790   49.0550 F   0  0  0  0  0  0  0  0  0  0  0  0
   60.1950   32.7480   48.9120 C   0  0  0  0  0  0  0  0  0  0  0  0
   59.1990   32.0570   48.2150 C   0  0  0  0  0  0  0  0  0  0  0  0
   58.7580   32.5320   46.9740 C   0  0  0  0  0  0  0  0  0  0  0  0
   57.7880   31.8630   46.2940 N   0  0  0  0  0  0  0  0  0  0  0  0
   57.8060   29.1260   44.9500 C   0  0  0  0  0  0  0  0  0  0  0  0
   59.1230   29.4050   44.5550 C   0  0  0  0  0  0  0  0  0  0  0  0
   60.1960   28.7900   45.2070 C   0  0  0  0  0  0  0  0  0  0  0  0
   59.9600   27.8970   46.2580 C   0  0  0  0  0  0  0  0  0  0  0  0
   61.0020   27.3020   46.8890 F   0  0  0  0  0  0  0  0  0  0  0  0
   58.6490   27.6210   46.6580 C   0  0  0  0  0  0  0  0  0  0  0  0
   57.5740   28.2340   46.0080 C   0  0  0  0  0  0  0  0  0  0  0  0
   57.5028   33.8035   43.5326 H   0  0  0  0  0  0  0  0  0  0  0  0
   59.2837   35.0724   44.7440 H   0  0  0  0  0  0  0  0  0  0  0  0
   60.7556   35.3103   46.7131 H   0  0  0  0  0  0  0  0  0  0  0  0
   60.5420   32.3740   49.8865 H   0  0  0  0  0  0  0  0  0  0  0  0
   58.7626   31.1416   48.6411 H   0  0  0  0  0  0  0  0  0  0  0  0
   59.3117   30.1088   43.7309 H   0  0  0  0  0  0  0  0  0  0  0  0
   61.2274   29.0085   44.8932 H   0  0  0  0  0  0  0  0  0  0  0  0
   58.4633   26.9204   47.4855 H   0  0  0  0  0  0  0  0  0  0  0  0
   56.5438   28.0166   46.3266 H   0  0  0  0  0  0  0  0  0  0  0  0
  1  2  2  0
  2  3  2  0
  2  4  1  0
  4  5  2  3
  5  6  1  0
  6  7  2  0
  7  8  1  0
  8  9  2  0
  9 10  1  0
 10 11  1  0
 10 12  2  0
 12 13  1  0
 13 14  2  0
 14 15  1  0
  2 16  1  0
 16 17  2  0
 17 18  1  0
 18 19  2  0
 19 20  1  0
 19 21  1  0
 21 22  2  0
 15  5  1  0
 22 16  1  0
 14  8  1  0
  6 23  1  0
  7 24  1  0
  9 25  1  0
 12 26  1  0
 13 27  1  0
 17 28  1  0
 18 29  1  0
 21 30  1  0
 22 31  1  0
M  CHG  1  15  -1
M  END
>  <UniqueID>  (60) 
52

>  <SMILES>  (60) 
O=S(=O)(N=c1ccc2cc(F)ccc2[n-]1)c1ccc(F)cc1

>  <Energy>  (60) 
42.43955149549312

>  <Genealogy>  (60) 
O=S(=O)(N=c1ccc2cc(F)ccc2[n-]1)c1ccc(F)cc1 (protonated)
O=S(=O)(N=c1ccc2cc(F)ccc2[n-]1)c1ccc(F)cc1 (3D coordinates assigned)
O=S(=O)(N=c1ccc2cc(F)ccc2[n-]1)c1ccc(F)cc1 (optimized conformer: 42.43955149549312 kcal/mol)

>  <smiles>  (60) 
O=S(=O)(N=c1ccc2cc(F)ccc2[nH]1)c1ccc(F)cc1

>  <score_type>  (60) 
oracle

>  <origin>  (60) 
adg

>  <m_score__min__energy>  (60) 
-9.2100000000000009

>  <m_primary>  (60) 
energy

$$$$
60:0
     RDKit          3D

 28 29  0  0  0  0  0  0  0  0999 V2000
   59.2169   34.7688   46.4443 H   0  0  0  0  0  0  0  0  0  0  0  0
   58.7870   33.8280   46.0700 C   0  0  0  0  0  0  0  0  0  0  0  0
   57.5570   33.8370   45.4200 C   0  0  0  0  0  0  0  0  0  0  0  0
   57.0213   34.7860   45.2705 H   0  0  0  0  0  0  0  0  0  0  0  0
   57.0030   32.6440   44.9580 C   0  0  0  0  0  0  0  0  0  0  0  0
   56.0286   32.6605   44.4477 H   0  0  0  0  0  0  0  0  0  0  0  0
   57.6720   31.4200   45.1350 C   0  0  0  0  0  0  0  0  0  0  0  0
   56.8700   29.9530   44.5380 S   0  0  0  0  0  0  0  0  0  0  0  0
   57.0290   29.8750   43.0440 O   0  0  0  0  0  0  0  0  0  0  0  0
   55.4050   29.9990   44.8730 O   0  0  0  0  0  0  0  0  0  0  0  0
   57.5520   28.5480   45.2850 N   0  0  0  0  0  0  0  0  0  0  0  0
   56.8330   27.5370   45.6580 C   0  0  0  0  0  0  0  0  0  0  0  0
   55.5220   27.4960   45.6260 O   0  0  0  0  0  0  0  0  0  0  0  0
   55.0900   26.3460   46.0590 N   0  0  0  0  0  0  0  0  0  0  0  0
   56.1760   25.6170   46.3910 C   0  0  0  0  0  0  0  0  0  0  0  0
   56.1190   24.2150   46.8990 C   0  0  0  0  0  0  0  0  0  0  0  0
   56.1193   24.2233   47.9990 H   0  0  0  0  0  0  0  0  0  0  0  0
   55.2004   23.7306   46.5362 H   0  0  0  0  0  0  0  0  0  0  0  0
   56.9952   23.6577   46.5362 H   0  0  0  0  0  0  0  0  0  0  0  0
   57.3210   26.3490   46.1410 C   0  0  0  0  0  0  0  0  0  0  0  0
   59.1440   25.8300   46.3840 Br  0  0  0  0  0  0  0  0  0  0  0  0
   58.9520   31.4100   45.7650 C   0  0  0  0  0  0  0  0  0  0  0  0
   59.7410   30.1350   46.0120 C   0  0  0  0  0  0  0  0  0  0  0  0
   59.8550   29.3880   44.8560 F   0  0  0  0  0  0  0  0  0  0  0  0
   59.1110   29.3860   46.9880 F   0  0  0  0  0  0  0  0  0  0  0  0
   61.0260   30.4170   46.4450 F   0  0  0  0  0  0  0  0  0  0  0  0
   59.4760   32.6290   46.2480 C   0  0  0  0  0  0  0  0  0  0  0  0
   60.4427   32.6327   46.7728 H   0  0  0  0  0  0  0  0  0  0  0  0
  1  2  1  0
  2  3  2  0
  3  4  1  0
  3  5  1  0
  5  6  1  0
  5  7  2  0
  7  8  1  0
  8  9  2  0
  8 10  2  0
  8 11  1  0
 11 12  2  0
 12 13  1  0
 13 14  1  0
 14 15  1  0
 15 16  1  0
 16 17  1  0
 16 18  1  0
 16 19  1  0
 15 20  2  0
 20 21  1  0
  7 22  1  0
 22 23  1  0
 23 24  1  0
 23 25  1  0
 23 26  1  0
 22 27  2  0
 27 28  1  0
 27  2  1  0
 20 12  1  0
M  CHG  1  14  -1
M  END
>  <UniqueID>  (61) 
53

>  <SMILES>  (61) 
Cc1[n-]o/c(=N\S(=O)(=O)c2ccccc2C(F)(F)F)c1Br

>  <Energy>  (61) 
67.263202336471

>  <Genealogy>  (61) 
Cc1[n-]oc(=NS(=O)(=O)c2ccccc2C(F)(F)F)c1Br (protonated)
Cc1[n-]o/c(=N\S(=O)(=O)c2ccccc2C(F)(F)F)c1Br (cis-trans isomerization)
Cc1[n-]o/c(=N\S(=O)(=O)c2ccccc2C(F)(F)F)c1Br (3D coordinates assigned)
Cc1[n-]o/c(=N\S(=O)(=O)c2ccccc2C(F)(F)F)c1Br (optimized conformer: 67.263202336471 kcal/mol)

>  <smiles>  (61) 
Cc1[nH]oc(=NS(=O)(=O)c2ccccc2C(F)(F)F)c1Br

>  <score_type>  (61) 
oracle

>  <origin>  (61) 
adg

>  <m_score__min__energy>  (61) 
-10.76

>  <m_primary>  (61) 
energy

$$$$
61:0
     RDKit          3D

 28 30  0  0  0  0  0  0  0  0999 V2000
   57.6490   32.1940   44.7850 C   0  0  0  0  0  0  0  0  0  0  0  0
   58.3150   31.0290   45.4730 C   0  0  0  0  0  0  0  0  0  0  0  0
   59.5960   31.2320   46.0190 C   0  0  0  0  0  0  0  0  0  0  0  0
   60.2710   30.1990   46.6680 C   0  0  0  0  0  0  0  0  0  0  0  0
   59.6840   28.9430   46.7850 C   0  0  0  0  0  0  0  0  0  0  0  0
   58.4140   28.7080   46.2540 C   0  0  0  0  0  0  0  0  0  0  0  0
   57.8640   27.4730   46.3820 N   0  0  0  0  0  0  0  0  0  0  0  0
   56.6350   27.1890   45.8850 C   0  0  0  0  0  0  0  0  0  0  0  0
   56.0740   25.8330   46.0460 C   0  0  0  0  0  0  0  0  0  0  0  0
   56.8230   24.7940   46.6230 C   0  0  0  0  0  0  0  0  0  0  0  0
   56.2520   23.5260   46.7550 C   0  0  0  0  0  0  0  0  0  0  0  0
   54.9470   23.3020   46.3130 C   0  0  0  0  0  0  0  0  0  0  0  0
   54.2300   24.3540   45.7430 C   0  0  0  0  0  0  0  0  0  0  0  0
   54.8020   25.5820   45.6240 N   0  0  0  0  0  0  0  0  0  0  0  0
   55.9330   28.1580   45.2430 N   0  0  0  0  0  0  0  0  0  0  0  0
   56.4240   29.4130   45.0810 C   0  0  0  0  0  0  0  0  0  0  0  0
   55.7150   30.2570   44.4760 O   0  0  0  0  0  0  0  0  0  0  0  0
   57.7060   29.7420   45.5890 C   0  0  0  0  0  0  0  0  0  0  0  0
   57.2522   32.8880   45.5406 H   0  0  0  0  0  0  0  0  0  0  0  0
   58.3842   32.7176   44.1563 H   0  0  0  0  0  0  0  0  0  0  0  0
   56.8247   31.8261   44.1563 H   0  0  0  0  0  0  0  0  0  0  0  0
   60.0717   32.2200   45.9325 H   0  0  0  0  0  0  0  0  0  0  0  0
   61.2714   30.3777   47.0891 H   0  0  0  0  0  0  0  0  0  0  0  0
   60.2223   28.1322   47.2976 H   0  0  0  0  0  0  0  0  0  0  0  0
   57.8512   24.9775   46.9682 H   0  0  0  0  0  0  0  0  0  0  0  0
   56.8295   22.7057   47.2063 H   0  0  0  0  0  0  0  0  0  0  0  0
   54.4891   22.3069   46.4131 H   0  0  0  0  0  0  0  0  0  0  0  0
   53.2013   24.1902   45.3895 H   0  0  0  0  0  0  0  0  0  0  0  0
  1  2  1  0
  2  3  2  0
  3  4  1  0
  4  5  2  0
  5  6  1  0
  6  7  1  0
  7  8  1  0
  8  9  1  0
  9 10  2  0
 10 11  1  0
 11 12  2  0
 12 13  1  0
 13 14  2  0
  8 15  2  0
 15 16  1  0
 16 17  2  0
 16 18  1  0
 18  2  1  0
 18  6  2  0
 14  9  1  0
  1 19  1  0
  1 20  1  0
  1 21  1  0
  3 22  1  0
  4 23  1  0
  5 24  1  0
 10 25  1  0
 11 26  1  0
 12 27  1  0
 13 28  1  0
M  CHG  1   7  -1
M  END
>  <UniqueID>  (62) 
54

>  <SMILES>  (62) 
Cc1cccc2[n-]c(-c3ccccn3)nc(=O)c12

>  <Energy>  (62) 
40.27388850287478

>  <Genealogy>  (62) 
Cc1cccc2[n-]c(-c3ccccn3)nc(=O)c12 (protonated)
Cc1cccc2[n-]c(-c3ccccn3)nc(=O)c12 (3D coordinates assigned)
Cc1cccc2[n-]c(-c3ccccn3)nc(=O)c12 (optimized conformer: 40.27388850287478 kcal/mol)

>  <smiles>  (62) 
Cc1cccc2[nH]c(-c3ccccn3)nc(=O)c12

>  <score_type>  (62) 
oracle

>  <origin>  (62) 
adg

>  <m_score__min__energy>  (62) 
-8.1899999999999995

>  <m_primary>  (62) 
energy

$$$$
62:0
     RDKit          3D

 53 56  0  0  0  0  0  0  0  0999 V2000
   59.6480   33.8800   49.8420 C   0  0  0  0  0  0  0  0  0  0  0  0
   59.3750   33.2810   48.5420 N   0  0  0  0  0  0  0  0  0  0  0  0
   58.9690   34.0740   47.4170 C   0  0  0  0  0  0  0  0  0  0  0  0
   58.9910   35.3330   47.5010 O   0  0  0  0  0  0  0  0  0  0  0  0
   58.5540   33.4410   46.1460 C   0  0  0  0  0  0  0  0  0  0  0  0
   57.8500   32.2240   46.1750 C   0  0  0  0  0  0  0  0  0  0  0  0
   57.4560   31.5910   44.9890 C   0  0  0  0  0  0  0  0  0  0  0  0
   56.7050   30.3680   45.0770 N   0  0  0  0  0  0  0  0  0  0  0  0
   57.0990   29.2490   45.6120 C   0  0  0  0  0  0  0  0  0  0  0  0
   58.0090   29.2800   46.6170 N   0  0  0  0  0  0  0  0  0  0  0  0
   58.4600   28.1270   47.1800 C   0  0  0  0  0  0  0  0  0  0  0  0
   59.4240   28.1650   48.2550 N   0  0  0  0  0  0  0  0  0  0  0  0
   59.8250   29.4560   48.8290 C   0  0  0  0  0  0  0  0  0  0  0  0
   60.3780   29.2650   50.2450 C   0  0  0  0  0  0  0  0  0  0  0  0
   61.3730   28.2620   50.2660 O   0  0  0  0  0  0  0  0  0  0  0  0
   60.7880   27.0130   49.9570 C   0  0  0  0  0  0  0  0  0  0  0  0
   60.2720   26.9930   48.5150 C   0  0  0  0  0  0  0  0  0  0  0  0
   57.9930   26.9360   46.7180 N   0  0  0  0  0  0  0  0  0  0  0  0
   57.0890   26.8880   45.7050 C   0  0  0  0  0  0  0  0  0  0  0  0
   56.6010   25.6210   45.2180 N   0  0  0  0  0  0  0  0  0  0  0  0
   55.5490   24.9110   45.9590 C   0  0  0  0  0  0  0  0  0  0  0  0
   54.8070   23.9390   45.0360 C   0  0  0  0  0  0  0  0  0  0  0  0
   55.7150   23.1110   44.3400 O   0  0  0  0  0  0  0  0  0  0  0  0
   56.4850   23.9000   43.4550 C   0  0  0  0  0  0  0  0  0  0  0  0
   57.3850   24.8670   44.2290 C   0  0  0  0  0  0  0  0  0  0  0  0
   56.6510   28.0500   45.1530 N   0  0  0  0  0  0  0  0  0  0  0  0
   57.7340   32.2070   43.7560 C   0  0  0  0  0  0  0  0  0  0  0  0
   58.4490   33.4050   43.7160 C   0  0  0  0  0  0  0  0  0  0  0  0
   58.8690   34.0180   44.8990 C   0  0  0  0  0  0  0  0  0  0  0  0
   59.6120   35.1500   44.8190 F   0  0  0  0  0  0  0  0  0  0  0  0
   59.3330   33.1888   50.6376 H   0  0  0  0  0  0  0  0  0  0  0  0
   60.7258   34.0792   49.9349 H   0  0  0  0  0  0  0  0  0  0  0  0
   59.0913   34.8242   49.9349 H   0  0  0  0  0  0  0  0  0  0  0  0
   59.5320   32.2540   48.4260 H   0  0  0  0  0  0  0  0  0  0  0  0
   57.6051   31.7624   47.1430 H   0  0  0  0  0  0  0  0  0  0  0  0
   60.6017   29.9084   48.1950 H   0  0  0  0  0  0  0  0  0  0  0  0
   58.9442   30.1131   48.8767 H   0  0  0  0  0  0  0  0  0  0  0  0
   60.8147   30.2130   50.5921 H   0  0  0  0  0  0  0  0  0  0  0  0
   59.5542   28.9571   50.9058 H   0  0  0  0  0  0  0  0  0  0  0  0
   61.5420   26.2217   50.0807 H   0  0  0  0  0  0  0  0  0  0  0  0
   59.9394   26.8447   50.6363 H   0  0  0  0  0  0  0  0  0  0  0  0
   61.1279   27.0051   47.8241 H   0  0  0  0  0  0  0  0  0  0  0  0
   59.6751   26.0816   48.3635 H   0  0  0  0  0  0  0  0  0  0  0  0
   56.0057   24.3478   46.7862 H   0  0  0  0  0  0  0  0  0  0  0  0
   54.8319   25.6466   46.3523 H   0  0  0  0  0  0  0  0  0  0  0  0
   54.1365   23.3100   45.6399 H   0  0  0  0  0  0  0  0  0  0  0  0
   54.2306   24.5221   44.3027 H   0  0  0  0  0  0  0  0  0  0  0  0
   57.1121   23.2405   42.8370 H   0  0  0  0  0  0  0  0  0  0  0  0
   55.8027   24.4853   42.8211 H   0  0  0  0  0  0  0  0  0  0  0  0
   58.1685   24.2954   44.7480 H   0  0  0  0  0  0  0  0  0  0  0  0
   57.8386   25.5753   43.5200 H   0  0  0  0  0  0  0  0  0  0  0  0
   57.3871   31.7436   42.8206 H   0  0  0  0  0  0  0  0  0  0  0  0
   58.6833   33.8695   42.7468 H   0  0  0  0  0  0  0  0  0  0  0  0
  1  2  1  0
  2  3  1  0
  3  4  2  0
  3  5  1  0
  5  6  2  0
  6  7  1  0
  7  8  1  0
  8  9  2  3
  9 10  1  0
 10 11  2  0
 11 12  1  0
 12 13  1  0
 13 14  1  0
 14 15  1  0
 15 16  1  0
 16 17  1  0
 11 18  1  0
 18 19  1  0
 19 20  1  0
 20 21  1  0
 21 22  1  0
 22 23  1  0
 23 24  1  0
 24 25  1  0
 19 26  2  0
  7 27  2  0
 27 28  1  0
 28 29  2  0
 29 30  1  0
 29  5  1  0
 26  9  1  0
 17 12  1  0
 25 20  1  0
  1 31  1  0
  1 32  1  0
  1 33  1  0
  2 34  1  0
  6 35  1  0
 13 36  1  0
 13 37  1  0
 14 38  1  0
 14 39  1  0
 16 40  1  0
 16 41  1  0
 17 42  1  0
 17 43  1  0
 21 44  1  0
 21 45  1  0
 22 46  1  0
 22 47  1  0
 24 48  1  0
 24 49  1  0
 25 50  1  0
 25 51  1  0
 27 52  1  0
 28 53  1  0
M  CHG  1  18  -1
M  END
>  <UniqueID>  (63) 
55

>  <SMILES>  (63) 
CNC(=O)c1cc(N=c2nc(N3CCOCC3)[n-]c(N3CCOCC3)n2)ccc1F

>  <Energy>  (63) 
65.72917894410706

>  <Genealogy>  (63) 
CNC(=O)c1cc(N=c2nc(N3CCOCC3)[n-]c(N3CCOCC3)n2)ccc1F (protonated)
CNC(=O)c1cc(N=c2nc(N3CCOCC3)[n-]c(N3CCOCC3)n2)ccc1F (3D coordinates assigned)
CNC(=O)c1cc(N=c2nc(N3CCOCC3)[n-]c(N3CCOCC3)n2)ccc1F (nonaromatic ring conformer: 65.72917894410706 kcal/mol)

>  <smiles>  (63) 
CNC(=O)c1cc(N=c2nc(N3CCOCC3)[nH]c(N3CCOCC3)n2)ccc1F

>  <score_type>  (63) 
oracle

>  <origin>  (63) 
adg

>  <m_score__min__energy>  (63) 
-8.7400000000000002

>  <m_primary>  (63) 
energy

$$$$
63:0
     RDKit          3D

 25 27  0  0  0  0  0  0  0  0999 V2000
   55.3952   30.3462   44.4489 H   0  0  0  0  0  0  0  0  0  0  0  0
   56.1950   29.6330   44.6970 C   0  0  0  0  0  0  0  0  0  0  0  0
   55.8850   28.4280   45.2430 N   0  0  0  0  0  0  0  0  0  0  0  0
   56.8360   27.5120   45.5770 C   0  0  0  0  0  0  0  0  0  0  0  0
   56.4490   26.3750   46.0860 N   0  0  0  0  0  0  0  0  0  0  0  0
   56.8030   25.0540   45.6480 C   0  0  0  0  0  0  0  0  0  0  0  0
   57.7500   24.3170   46.3900 C   0  0  0  0  0  0  0  0  0  0  0  0
   58.1692   24.7447   47.3127 H   0  0  0  0  0  0  0  0  0  0  0  0
   58.1640   23.0440   45.9650 C   0  0  0  0  0  0  0  0  0  0  0  0
   58.8884   22.4638   46.5555 H   0  0  0  0  0  0  0  0  0  0  0  0
   57.6380   22.5290   44.7780 C   0  0  0  0  0  0  0  0  0  0  0  0
   56.7320   23.2680   44.0370 C   0  0  0  0  0  0  0  0  0  0  0  0
   56.3050   22.3960   42.6670 S   0  0  0  0  0  0  0  0  0  0  0  0
   57.3020   21.0910   43.0810 C   0  0  0  0  0  0  0  0  0  0  0  0
   57.4077   20.1758   42.4800 H   0  0  0  0  0  0  0  0  0  0  0  0
   57.9530   21.3190   44.2480 N   0  0  0  0  0  0  0  0  0  0  0  0
   58.6200   20.6420   44.6800 H   0  0  0  0  0  0  0  0  0  0  0  0
   56.3060   24.5320   44.4340 C   0  0  0  0  0  0  0  0  0  0  0  0
   55.6006   25.1092   43.8181 H   0  0  0  0  0  0  0  0  0  0  0  0
   58.1910   27.8120   45.3200 C   0  0  0  0  0  0  0  0  0  0  0  0
   58.9756   27.0786   45.5578 H   0  0  0  0  0  0  0  0  0  0  0  0
   58.5280   29.0460   44.7620 C   0  0  0  0  0  0  0  0  0  0  0  0
   59.8270   29.3450   44.5090 F   0  0  0  0  0  0  0  0  0  0  0  0
   57.5270   29.9660   44.4510 C   0  0  0  0  0  0  0  0  0  0  0  0
   57.7850   30.9431   44.0166 H   0  0  0  0  0  0  0  0  0  0  0  0
  1  2  1  0
  2  3  1  0
  3  4  1  0
  4  5  2  0
  5  6  1  0
  6  7  2  0
  7  8  1  0
  7  9  1  0
  9 10  1  0
  9 11  2  0
 11 12  1  0
 12 13  1  0
 13 14  1  0
 14 15  1  0
 14 16  2  0
 16 17  1  0
 12 18  2  0
 18 19  1  0
  4 20  1  0
 20 21  1  0
 20 22  2  0
 22 23  1  0
 22 24  1  0
 24 25  1  0
 24  2  2  0
 18  6  1  0
 16 11  1  0
M  CHG  2   3  -1  16   1
M  END
>  <UniqueID>  (64) 
56

>  <SMILES>  (64) 
Fc1cc[n-]/c(=N/c2ccc3[nH+]csc3c2)c1

>  <Energy>  (64) 
72.12395892359157

>  <Genealogy>  (64) 
Fc1cc[n-]c(=Nc2ccc3[nH+]csc3c2)c1 (protonated)
Fc1cc[n-]/c(=N/c2ccc3[nH+]csc3c2)c1 (cis-trans isomerization)
Fc1cc[n-]/c(=N/c2ccc3[nH+]csc3c2)c1 (3D coordinates assigned)
Fc1cc[n-]/c(=N/c2ccc3[nH+]csc3c2)c1 (optimized conformer: 72.12395892359157 kcal/mol)

>  <smiles>  (64) 
Fc1cc[nH]c(=Nc2ccc3ncsc3c2)c1

>  <score_type>  (64) 
oracle

>  <origin>  (64) 
adg

>  <m_score__min__energy>  (64) 
-6.79

>  <m_primary>  (64) 
energy

$$$$
64:0
     RDKit          3D

 37 38  0  0  0  0  0  0  0  0999 V2000
   55.7513   27.3517   45.6124 H   0  0  0  0  0  0  0  0  0  0  0  0
   56.5380   28.0450   45.2800 C   0  0  0  0  0  0  0  0  0  0  0  0
   56.2920   29.3810   45.2440 N   0  0  0  0  0  0  0  0  0  0  0  0
   57.2240   30.2850   44.8400 C   0  0  0  0  0  0  0  0  0  0  0  0
   56.9040   31.5490   44.8350 N   0  0  0  0  0  0  0  0  0  0  0  0
   57.6900   32.6610   44.2970 C   0  0  0  0  0  0  0  0  0  0  0  0
   58.4687   32.2621   43.6302 H   0  0  0  0  0  0  0  0  0  0  0  0
   57.0164   33.3317   43.7434 H   0  0  0  0  0  0  0  0  0  0  0  0
   58.3440   33.4440   45.4060 C   0  0  0  0  0  0  0  0  0  0  0  0
   59.0390   34.6330   45.1280 C   0  0  0  0  0  0  0  0  0  0  0  0
   59.1003   35.0022   44.0936 H   0  0  0  0  0  0  0  0  0  0  0  0
   59.6530   35.3490   46.1600 C   0  0  0  0  0  0  0  0  0  0  0  0
   60.1887   36.2835   45.9371 H   0  0  0  0  0  0  0  0  0  0  0  0
   59.5870   34.8790   47.4740 C   0  0  0  0  0  0  0  0  0  0  0  0
   60.0686   35.4447   48.2852 H   0  0  0  0  0  0  0  0  0  0  0  0
   58.9090   33.6900   47.7580 C   0  0  0  0  0  0  0  0  0  0  0  0
   58.8600   33.3188   48.7923 H   0  0  0  0  0  0  0  0  0  0  0  0
   58.2930   32.9720   46.7280 C   0  0  0  0  0  0  0  0  0  0  0  0
   57.7661   32.0333   46.9542 H   0  0  0  0  0  0  0  0  0  0  0  0
   58.4940   29.8230   44.4410 C   0  0  0  0  0  0  0  0  0  0  0  0
   59.2641   30.5359   44.1113 H   0  0  0  0  0  0  0  0  0  0  0  0
   58.7680   28.4550   44.4670 C   0  0  0  0  0  0  0  0  0  0  0  0
   59.7554   28.0881   44.1501 H   0  0  0  0  0  0  0  0  0  0  0  0
   57.7910   27.5470   44.8950 C   0  0  0  0  0  0  0  0  0  0  0  0
   58.0770   26.0590   44.9290 C   0  0  0  0  0  0  0  0  0  0  0  0
   58.3418   25.7810   45.9598 H   0  0  0  0  0  0  0  0  0  0  0  0
   58.8957   25.8757   44.2176 H   0  0  0  0  0  0  0  0  0  0  0  0
   56.9360   25.2160   44.4970 N   0  0  0  0  0  0  0  0  0  0  0  0
   56.3440   25.8060   43.8640 H   0  0  0  0  0  0  0  0  0  0  0  0
   57.3670   24.0440   43.7160 C   0  0  0  0  0  0  0  0  0  0  0  0
   57.6641   23.2361   44.4009 H   0  0  0  0  0  0  0  0  0  0  0  0
   56.5364   23.7003   43.0819 H   0  0  0  0  0  0  0  0  0  0  0  0
   58.2223   24.3203   43.0819 H   0  0  0  0  0  0  0  0  0  0  0  0
   56.0820   24.8050   45.6260 C   0  0  0  0  0  0  0  0  0  0  0  0
   56.5853   25.0472   46.5736 H   0  0  0  0  0  0  0  0  0  0  0  0
   55.1222   25.3398   45.5734 H   0  0  0  0  0  0  0  0  0  0  0  0
   55.9012   23.7212   45.5734 H   0  0  0  0  0  0  0  0  0  0  0  0
  1  2  1  0
  2  3  1  0
  3  4  1  0
  4  5  2  0
  5  6  1  0
  6  7  1  0
  6  8  1  0
  6  9  1  0
  9 10  2  0
 10 11  1  0
 10 12  1  0
 12 13  1  0
 12 14  2  0
 14 15  1  0
 14 16  1  0
 16 17  1  0
 16 18  2  0
 18 19  1  0
  4 20  1  0
 20 21  1  0
 20 22  2  0
 22 23  1  0
 22 24  1  0
 24 25  1  0
 25 26  1  0
 25 27  1  0
 25 28  1  0
 28 29  1  0
 28 30  1  0
 30 31  1  0
 30 32  1  0
 30 33  1  0
 28 34  1  0
 34 35  1  0
 34 36  1  0
 34 37  1  0
 24  2  2  0
 18  9  1  0
M  CHG  2   3  -1  28   1
M  END
>  <UniqueID>  (65) 
57

>  <SMILES>  (65) 
C[NH+](C)Cc1cc/c(=N\Cc2ccccc2)[n-]c1

>  <Energy>  (65) 
41.17117443567012

>  <Genealogy>  (65) 
C[NH+](C)Cc1ccc(=NCc2ccccc2)[n-]c1 (protonated)
C[NH+](C)Cc1cc/c(=N\Cc2ccccc2)[n-]c1 (cis-trans isomerization)
C[NH+](C)Cc1cc/c(=N\Cc2ccccc2)[n-]c1 (3D coordinates assigned)
C[NH+](C)Cc1cc/c(=N\Cc2ccccc2)[n-]c1 (optimized conformer: 41.17117443567012 kcal/mol)

>  <smiles>  (65) 
CN(C)Cc1ccc(=NCc2ccccc2)[nH]c1

>  <score_type>  (65) 
oracle

>  <origin>  (65) 
adg

>  <m_score__min__energy>  (65) 
-6.6399999999999997

>  <m_primary>  (65) 
energy

$$$$
65:0
     RDKit          3D

 37 39  0  0  0  0  0  0  0  0999 V2000
   59.6420   35.5240   45.2580 C   0  0  0  0  0  0  0  0  0  0  0  0
   58.9660   34.1950   45.4170 C   0  0  0  0  0  0  0  0  0  0  0  0
   58.8610   33.6030   46.6860 C   0  0  0  0  0  0  0  0  0  0  0  0
   58.2640   32.3490   46.8330 C   0  0  0  0  0  0  0  0  0  0  0  0
   57.7800   31.6640   45.7150 C   0  0  0  0  0  0  0  0  0  0  0  0
   57.2020   30.4430   45.8670 N   0  0  0  0  0  0  0  0  0  0  0  0
   56.7180   29.7270   44.8150 C   0  0  0  0  0  0  0  0  0  0  0  0
   56.1180   28.4450   45.0740 N   0  0  0  0  0  0  0  0  0  0  0  0
   56.6970   27.4070   45.9390 C   0  0  2  0  0  0  0  0  0  0  0  0
   58.0960   26.9810   45.4310 C   0  0  0  0  0  0  0  0  0  0  0  0
   58.4860   25.5630   45.8890 C   0  0  0  0  0  0  0  0  0  0  0  0
   57.7210   25.1450   47.1510 C   0  0  0  0  0  0  0  0  0  0  0  0
   56.2580   25.1570   46.9530 N   0  0  0  0  0  0  0  0  0  0  0  0
   55.7720   26.1760   46.0000 C   0  0  0  0  0  0  0  0  0  0  0  0
   56.8100   30.2670   43.5180 C   0  0  0  0  0  0  0  0  0  0  0  0
   57.3990   31.5200   43.3250 C   0  0  0  0  0  0  0  0  0  0  0  0
   57.4770   31.9920   42.1590 O   0  0  0  0  0  0  0  0  0  0  0  0
   57.8930   32.2380   44.4290 C   0  0  0  0  0  0  0  0  0  0  0  0
   58.4950   33.5030   44.2890 C   0  0  0  0  0  0  0  0  0  0  0  0
   59.8572   35.9470   46.2504 H   0  0  0  0  0  0  0  0  0  0  0  0
   60.5829   35.3928   44.7035 H   0  0  0  0  0  0  0  0  0  0  0  0
   58.9818   36.2072   44.7035 H   0  0  0  0  0  0  0  0  0  0  0  0
   59.2512   34.1299   47.5693 H   0  0  0  0  0  0  0  0  0  0  0  0
   58.1744   31.8987   47.8326 H   0  0  0  0  0  0  0  0  0  0  0  0
   55.2050   28.2550   44.6010 H   0  0  0  0  0  0  0  0  0  0  0  0
   56.8012   27.8306   46.9488 H   0  0  0  0  0  0  0  0  0  0  0  0
   58.0948   27.0082   44.3313 H   0  0  0  0  0  0  0  0  0  0  0  0
   58.8314   27.6816   45.8534 H   0  0  0  0  0  0  0  0  0  0  0  0
   58.2575   24.8519   45.0815 H   0  0  0  0  0  0  0  0  0  0  0  0
   59.5609   25.5612   46.1227 H   0  0  0  0  0  0  0  0  0  0  0  0
   58.0311   24.1275   47.4311 H   0  0  0  0  0  0  0  0  0  0  0  0
   57.9580   25.8712   47.9425 H   0  0  0  0  0  0  0  0  0  0  0  0
   55.9620   24.2160   46.6010 H   0  0  0  0  0  0  0  0  0  0  0  0
   55.7161   25.7254   44.9981 H   0  0  0  0  0  0  0  0  0  0  0  0
   54.7833   26.5143   46.3437 H   0  0  0  0  0  0  0  0  0  0  0  0
   56.4190   29.7038   42.6578 H   0  0  0  0  0  0  0  0  0  0  0  0
   58.5971   33.9522   43.2901 H   0  0  0  0  0  0  0  0  0  0  0  0
  1  2  1  0
  2  3  2  0
  3  4  1  0
  4  5  2  0
  5  6  1  0
  6  7  1  0
  7  8  1  0
  8  9  1  0
  9 10  1  0
 10 11  1  0
 11 12  1  0
 12 13  1  0
 13 14  1  0
  7 15  2  0
 15 16  1  0
 16 17  2  0
 16 18  1  0
 18 19  2  0
 19  2  1  0
 18  5  1  0
 14  9  1  0
  1 20  1  0
  1 21  1  0
  1 22  1  0
  3 23  1  0
  4 24  1  0
  8 25  1  0
  9 26  1  1
 10 27  1  0
 10 28  1  0
 11 29  1  0
 11 30  1  0
 12 31  1  0
 12 32  1  0
 13 33  1  0
 14 34  1  0
 14 35  1  0
 15 36  1  0
 19 37  1  0
M  CHG  1   6  -1
M  END
>  <UniqueID>  (66) 
58

>  <SMILES>  (66) 
Cc1ccc2[n-]c(N[C@@H]3CCCNC3)cc(=O)c2c1

>  <Energy>  (66) 
48.18625565947965

>  <Genealogy>  (66) 
Cc1ccc2[n-]c(NC3CCCNC3)cc(=O)c2c1 (protonated)
Cc1ccc2[n-]c(N[C@@H]3CCCNC3)cc(=O)c2c1 (chirality)
Cc1ccc2[n-]c(N[C@@H]3CCCNC3)cc(=O)c2c1 (3D coordinates assigned)
Cc1ccc2[n-]c(N[C@@H]3CCCNC3)cc(=O)c2c1 (nonaromatic ring conformer: 48.18625565947965 kcal/mol)

>  <smiles>  (66) 
Cc1ccc2[nH]c(NC3CCCNC3)cc(=O)c2c1

>  <score_type>  (66) 
oracle

>  <origin>  (66) 
adg

>  <m_score__min__energy>  (66) 
-9.4399999999999995

>  <m_primary>  (66) 
energy

$$$$
66:0
     RDKit          3D

 53 54  0  0  0  0  0  0  0  0999 V2000
   54.4390   24.9020   45.5900 C   0  0  0  0  0  0  0  0  0  0  0  0
   54.8950   26.1970   45.9710 O   0  0  0  0  0  0  0  0  0  0  0  0
   56.2430   26.5880   46.0040 C   0  0  0  0  0  0  0  0  0  0  0  0
   57.2520   25.7490   46.5100 C   0  0  0  0  0  0  0  0  0  0  0  0
   58.5840   26.1670   46.5130 C   0  0  0  0  0  0  0  0  0  0  0  0
   58.9340   27.4190   45.9910 C   0  0  0  0  0  0  0  0  0  0  0  0
   60.3740   27.8640   45.9810 C   0  0  0  0  0  0  0  0  0  0  0  0
   60.5400   29.3080   45.4800 C   0  0  0  0  0  0  0  0  0  0  0  0
   59.9040   30.2820   46.3850 N   0  0  0  0  0  0  0  0  0  0  0  0
   60.3300   30.3280   47.7870 C   0  0  0  0  0  0  0  0  0  0  0  0
   58.9480   31.2660   45.9220 C   0  0  0  0  0  0  0  0  0  0  0  0
   57.7470   30.9220   45.7460 O   0  0  0  0  0  0  0  0  0  0  0  0
   59.3240   32.7080   45.6900 C   0  0  0  0  0  0  0  0  0  0  0  0
   58.2680   33.8310   46.5940 S   0  0  0  0  0  0  0  0  0  0  0  0
   57.3930   34.5810   45.6290 O   0  0  0  0  0  0  0  0  0  0  0  0
   57.4100   33.0140   47.5200 O   0  0  0  0  0  0  0  0  0  0  0  0
   59.2560   34.9630   47.5210 C   0  0  0  0  0  0  0  0  0  0  0  0
   60.1070   34.5980   48.4850 C   0  0  0  0  0  0  0  0  0  0  0  0
   61.3420   33.8350   48.2410 C   0  0  0  0  0  0  0  0  0  0  0  0
   61.9950   33.9560   47.0060 C   0  0  0  0  0  0  0  0  0  0  0  0
   63.1730   33.2440   46.7600 C   0  0  0  0  0  0  0  0  0  0  0  0
   63.7120   32.4200   47.7510 C   0  0  0  0  0  0  0  0  0  0  0  0
   63.0800   32.3130   48.9920 C   0  0  0  0  0  0  0  0  0  0  0  0
   61.9000   33.0220   49.2440 C   0  0  0  0  0  0  0  0  0  0  0  0
   61.3210   32.9380   50.4680 F   0  0  0  0  0  0  0  0  0  0  0  0
   57.9300   28.2610   45.4910 C   0  0  0  0  0  0  0  0  0  0  0  0
   56.5810   27.8570   45.5090 C   0  0  0  0  0  0  0  0  0  0  0  0
   55.5490   28.6860   45.0410 O   0  0  0  0  0  0  0  0  0  0  0  0
   55.7200   29.7240   44.0820 C   0  0  0  0  0  0  0  0  0  0  0  0
   54.2295   24.3072   46.4913 H   0  0  0  0  0  0  0  0  0  0  0  0
   53.5205   24.9978   44.9923 H   0  0  0  0  0  0  0  0  0  0  0  0
   55.2149   24.4012   44.9923 H   0  0  0  0  0  0  0  0  0  0  0  0
   56.9899   24.7568   46.9060 H   0  0  0  0  0  0  0  0  0  0  0  0
   59.3627   25.5099   46.9274 H   0  0  0  0  0  0  0  0  0  0  0  0
   60.7709   27.7979   47.0048 H   0  0  0  0  0  0  0  0  0  0  0  0
   60.9227   27.2056   45.2915 H   0  0  0  0  0  0  0  0  0  0  0  0
   61.6133   29.5380   45.4081 H   0  0  0  0  0  0  0  0  0  0  0  0
   60.0503   29.3858   44.4981 H   0  0  0  0  0  0  0  0  0  0  0  0
   59.4505   30.2330   48.4408 H   0  0  0  0  0  0  0  0  0  0  0  0
   61.0260   29.4998   47.9861 H   0  0  0  0  0  0  0  0  0  0  0  0
   60.8332   31.2857   47.9861 H   0  0  0  0  0  0  0  0  0  0  0  0
   60.3640   32.8601   46.0145 H   0  0  0  0  0  0  0  0  0  0  0  0
   59.2058   32.9208   44.6173 H   0  0  0  0  0  0  0  0  0  0  0  0
   59.1657   36.0349   47.2911 H   0  0  0  0  0  0  0  0  0  0  0  0
   59.8708   34.8843   49.5205 H   0  0  0  0  0  0  0  0  0  0  0  0
   61.5791   34.6132   46.2281 H   0  0  0  0  0  0  0  0  0  0  0  0
   63.6756   33.3328   45.7856 H   0  0  0  0  0  0  0  0  0  0  0  0
   64.6349   31.8549   47.5538 H   0  0  0  0  0  0  0  0  0  0  0  0
   63.5109   31.6697   49.7734 H   0  0  0  0  0  0  0  0  0  0  0  0
   58.1986   29.2458   45.0811 H   0  0  0  0  0  0  0  0  0  0  0  0
   55.8776   30.6808   44.6014 H   0  0  0  0  0  0  0  0  0  0  0  0
   56.5935   29.5007   43.4518 H   0  0  0  0  0  0  0  0  0  0  0  0
   54.8211   29.7927   43.4518 H   0  0  0  0  0  0  0  0  0  0  0  0
  1  2  1  0
  2  3  1  0
  3  4  2  0
  4  5  1  0
  5  6  2  0
  6  7  1  0
  7  8  1  0
  8  9  1  0
  9 10  1  0
  9 11  1  0
 11 12  2  0
 11 13  1  0
 13 14  1  0
 14 15  2  0
 14 16  2  0
 14 17  1  0
 17 18  2  3
 18 19  1  0
 19 20  2  0
 20 21  1  0
 21 22  2  0
 22 23  1  0
 23 24  2  0
 24 25  1  0
  6 26  1  0
 26 27  2  0
 27 28  1  0
 28 29  1  0
 27  3  1  0
 24 19  1  0
  1 30  1  0
  1 31  1  0
  1 32  1  0
  4 33  1  0
  5 34  1  0
  7 35  1  0
  7 36  1  0
  8 37  1  0
  8 38  1  0
 10 39  1  0
 10 40  1  0
 10 41  1  0
 13 42  1  0
 13 43  1  0
 17 44  1  0
 18 45  1  0
 20 46  1  0
 21 47  1  0
 22 48  1  0
 23 49  1  0
 26 50  1  0
 29 51  1  0
 29 52  1  0
 29 53  1  0
M  END
>  <UniqueID>  (67) 
59

>  <SMILES>  (67) 
COc1ccc(CCN(C)C(=O)CS(=O)(=O)C=Cc2ccccc2F)cc1OC

>  <Energy>  (67) 
49.16611478560812

>  <Genealogy>  (67) 
COc1ccc(CCN(C)C(=O)CS(=O)(=O)C=Cc2ccccc2F)cc1OC (3D coordinates assigned)
COc1ccc(CCN(C)C(=O)CS(=O)(=O)C=Cc2ccccc2F)cc1OC (optimized conformer: 49.16611478560812 kcal/mol)

>  <smiles>  (67) 
COc1ccc(CCN(C)C(=O)CS(=O)(=O)C=Cc2ccccc2F)cc1OC

>  <score_type>  (67) 
oracle

>  <origin>  (67) 
adg

>  <m_score__min__energy>  (67) 
-9.2899999999999991

>  <m_primary>  (67) 
energy

$$$$
67:0
     RDKit          3D

 59 63  0  0  0  0  0  0  0  0999 V2000
   59.8730   26.0580   46.7220 C   0  0  0  0  0  0  0  0  0  0  0  0
   59.0970   25.1380   45.8340 C   0  0  0  0  0  0  0  0  0  0  0  0
   59.3860   23.8200   45.7120 N   0  0  0  0  0  0  0  0  0  0  0  0
   58.4520   23.3700   44.8510 C   0  0  0  0  0  0  0  0  0  0  0  0
   58.3320   22.0580   44.3990 C   0  0  0  0  0  0  0  0  0  0  0  0
   57.3050   21.7710   43.4870 C   0  0  0  0  0  0  0  0  0  0  0  0
   56.4380   22.7890   43.0500 C   0  0  0  0  0  0  0  0  0  0  0  0
   56.6040   24.0940   43.5370 C   0  0  0  0  0  0  0  0  0  0  0  0
   57.6050   24.3280   44.4300 N   0  0  0  0  0  0  0  0  0  0  0  0
   58.0020   25.4640   45.0350 C   0  0  0  0  0  0  0  0  0  0  0  0
   57.3540   26.7830   44.8880 C   0  0  0  0  0  0  0  0  0  0  0  0
   56.4170   27.1010   45.6690 O   0  0  0  0  0  0  0  0  0  0  0  0
   57.7700   27.6950   43.8600 N   0  0  0  0  0  0  0  0  0  0  0  0
   57.1090   28.9790   43.6410 C   0  0  0  0  0  0  0  0  0  0  0  0
   57.6010   29.9840   44.6460 C   0  0  0  0  0  0  0  0  0  0  0  0
   57.3190   31.3480   44.4880 C   0  0  0  0  0  0  0  0  0  0  0  0
   57.8230   32.2830   45.3970 C   0  0  0  0  0  0  0  0  0  0  0  0
   58.6160   31.8670   46.4790 C   0  0  0  0  0  0  0  0  0  0  0  0
   59.1560   32.8320   47.4020 N   0  0  0  0  0  0  0  0  0  0  0  0
   58.8360   32.7610   48.8350 C   0  0  0  0  0  0  0  0  0  0  0  0
   60.1320   32.6930   49.6510 C   0  0  0  0  0  0  0  0  0  0  0  0
   61.1390   33.6390   49.1390 N   0  0  0  0  0  0  0  0  0  0  0  0
   62.4880   33.5770   49.6370 C   0  0  0  0  0  0  0  0  0  0  0  0
   62.8330   34.2170   50.8400 C   0  0  0  0  0  0  0  0  0  0  0  0
   64.1470   34.1650   51.3180 C   0  0  0  0  0  0  0  0  0  0  0  0
   65.1270   33.4770   50.5970 C   0  0  0  0  0  0  0  0  0  0  0  0
   64.7960   32.8430   49.3970 C   0  0  0  0  0  0  0  0  0  0  0  0
   63.4840   32.8950   48.9150 C   0  0  0  0  0  0  0  0  0  0  0  0
   60.7730   34.5900   48.0800 C   0  0  0  0  0  0  0  0  0  0  0  0
   60.1100   33.8430   46.9160 C   0  0  0  0  0  0  0  0  0  0  0  0
   58.9050   30.5010   46.6300 C   0  0  0  0  0  0  0  0  0  0  0  0
   58.4040   29.5670   45.7190 C   0  0  0  0  0  0  0  0  0  0  0  0
   59.6662   25.8129   47.7742 H   0  0  0  0  0  0  0  0  0  0  0  0
   60.9483   25.9398   46.5224 H   0  0  0  0  0  0  0  0  0  0  0  0
   59.5752   27.0979   46.5224 H   0  0  0  0  0  0  0  0  0  0  0  0
   59.0198   21.2726   44.7456 H   0  0  0  0  0  0  0  0  0  0  0  0
   57.1772   20.7449   43.1119 H   0  0  0  0  0  0  0  0  0  0  0  0
   55.6359   22.5634   42.3318 H   0  0  0  0  0  0  0  0  0  0  0  0
   55.9422   24.9078   43.2058 H   0  0  0  0  0  0  0  0  0  0  0  0
   58.4650   27.3800   43.1480 H   0  0  0  0  0  0  0  0  0  0  0  0
   57.3348   29.3373   42.6258 H   0  0  0  0  0  0  0  0  0  0  0  0
   56.0225   28.8522   43.7566 H   0  0  0  0  0  0  0  0  0  0  0  0
   56.6981   31.6844   43.6446 H   0  0  0  0  0  0  0  0  0  0  0  0
   57.5970   33.3513   45.2639 H   0  0  0  0  0  0  0  0  0  0  0  0
   58.2664   33.6555   49.1272 H   0  0  0  0  0  0  0  0  0  0  0  0
   58.2351   31.8605   49.0299 H   0  0  0  0  0  0  0  0  0  0  0  0
   59.9085   32.9405   50.6992 H   0  0  0  0  0  0  0  0  0  0  0  0
   60.5400   31.6747   49.5693 H   0  0  0  0  0  0  0  0  0  0  0  0
   62.0654   34.7620   51.4090 H   0  0  0  0  0  0  0  0  0  0  0  0
   64.4089   34.6658   52.2617 H   0  0  0  0  0  0  0  0  0  0  0  0
   66.1593   33.4348   50.9746 H   0  0  0  0  0  0  0  0  0  0  0  0
   65.5683   32.3021   48.8304 H   0  0  0  0  0  0  0  0  0  0  0  0
   63.2297   32.3999   47.9662 H   0  0  0  0  0  0  0  0  0  0  0  0
   60.0702   35.3336   48.4841 H   0  0  0  0  0  0  0  0  0  0  0  0
   61.6800   35.0955   47.7170 H   0  0  0  0  0  0  0  0  0  0  0  0
   59.5740   34.5670   46.2847 H   0  0  0  0  0  0  0  0  0  0  0  0
   60.8951   33.3306   46.3406 H   0  0  0  0  0  0  0  0  0  0  0  0
   59.5295   30.1641   47.4705 H   0  0  0  0  0  0  0  0  0  0  0  0
   58.6401   28.4999   45.8435 H   0  0  0  0  0  0  0  0  0  0  0  0
  1  2  1  0
  2  3  1  0
  3  4  2  0
  4  5  1  0
  5  6  2  0
  6  7  1  0
  7  8  2  0
  8  9  1  0
  9 10  1  0
 10 11  1  0
 11 12  2  0
 11 13  1  0
 13 14  1  0
 14 15  1  0
 15 16  2  0
 16 17  1  0
 17 18  2  0
 18 19  1  0
 19 20  1  0
 20 21  1  0
 21 22  1  0
 22 23  1  0
 23 24  2  0
 24 25  1  0
 25 26  2  0
 26 27  1  0
 27 28  2  0
 22 29  1  0
 29 30  1  0
 18 31  1  0
 31 32  2  0
 10  2  2  0
 32 15  1  0
  9  4  1  0
 30 19  1  0
 28 23  1  0
  1 33  1  0
  1 34  1  0
  1 35  1  0
  5 36  1  0
  6 37  1  0
  7 38  1  0
  8 39  1  0
 13 40  1  0
 14 41  1  0
 14 42  1  0
 16 43  1  0
 17 44  1  0
 20 45  1  0
 20 46  1  0
 21 47  1  0
 21 48  1  0
 24 49  1  0
 25 50  1  0
 26 51  1  0
 27 52  1  0
 28 53  1  0
 29 54  1  0
 29 55  1  0
 30 56  1  0
 30 57  1  0
 31 58  1  0
 32 59  1  0
M  END
>  <UniqueID>  (68) 
60

>  <SMILES>  (68) 
Cc1nc2ccccn2c1C(=O)NCc1ccc(N2CCN(c3ccccc3)CC2)cc1

>  <Energy>  (68) 
108.62948396368725

>  <Genealogy>  (68) 
Cc1nc2ccccn2c1C(=O)NCc1ccc(N2CCN(c3ccccc3)CC2)cc1 (3D coordinates assigned)
Cc1nc2ccccn2c1C(=O)NCc1ccc(N2CCN(c3ccccc3)CC2)cc1 (nonaromatic ring conformer: 108.62948396368725 kcal/mol)

>  <smiles>  (68) 
Cc1nc2ccccn2c1C(=O)NCc1ccc(N2CCN(c3ccccc3)CC2)cc1

>  <score_type>  (68) 
oracle

>  <origin>  (68) 
adg

>  <m_score__min__energy>  (68) 
-9.3200000000000003

>  <m_primary>  (68) 
energy

$$$$
68:0
     RDKit          3D

 57 61  0  0  0  0  0  0  0  0999 V2000
   56.6670   32.5504   51.4773 H   0  0  0  0  0  0  0  0  0  0  0  0
   57.7240   32.2770   51.3430 C   0  0  0  0  0  0  0  0  0  0  0  0
   58.7590   32.8240   52.0130 N   0  0  0  0  0  0  0  0  0  0  0  0
   59.8450   32.1900   51.5230 C   0  0  0  0  0  0  0  0  0  0  0  0
   60.8733   32.3904   51.8583 H   0  0  0  0  0  0  0  0  0  0  0  0
   59.5290   31.2850   50.5780 N   0  0  0  0  0  0  0  0  0  0  0  0
   60.4410   30.3740   49.8940 C   0  0  0  0  0  0  0  0  0  0  0  0
   61.2586   30.0979   50.5761 H   0  0  0  0  0  0  0  0  0  0  0  0
   60.8486   30.8749   49.0035 H   0  0  0  0  0  0  0  0  0  0  0  0
   59.6950   29.1080   49.4590 C   0  0  0  0  0  0  0  0  0  0  0  0
   58.6281   29.3477   49.3396 H   0  0  0  0  0  0  0  0  0  0  0  0
   59.8459   28.3413   50.2332 H   0  0  0  0  0  0  0  0  0  0  0  0
   60.2280   28.5560   48.1370 C   0  0  0  0  0  0  0  0  0  0  0  0
   61.1969   28.0655   48.3118 H   0  0  0  0  0  0  0  0  0  0  0  0
   60.3512   29.3848   47.4244 H   0  0  0  0  0  0  0  0  0  0  0  0
   59.2880   27.5850   47.5830 N   0  0  0  0  0  0  0  0  0  0  0  0
   58.2440   27.8310   46.8400 C   0  0  0  0  0  0  0  0  0  0  0  0
   57.3540   26.7820   46.5160 C   0  0  0  0  0  0  0  0  0  0  0  0
   57.6360   25.1440   47.0930 Cl  0  0  0  0  0  0  0  0  0  0  0  0
   56.2180   27.0410   45.7140 C   0  0  0  0  0  0  0  0  0  0  0  0
   55.5297   26.2203   45.4638 H   0  0  0  0  0  0  0  0  0  0  0  0
   55.9670   28.3000   45.2470 N   0  0  0  0  0  0  0  0  0  0  0  0
   56.8240   29.2990   45.5640 C   0  0  0  0  0  0  0  0  0  0  0  0
   56.7210   30.5780   45.1780 N   0  0  0  0  0  0  0  0  0  0  0  0
   57.8170   31.1330   45.7580 C   0  0  0  0  0  0  0  0  0  0  0  0
   58.1840   32.5720   45.5780 C   0  0  0  0  0  0  0  0  0  0  0  0
   57.2801   33.1922   45.6688 H   0  0  0  0  0  0  0  0  0  0  0  0
   58.6322   32.7078   44.5827 H   0  0  0  0  0  0  0  0  0  0  0  0
   59.1790   32.9860   46.6270 C   0  0  0  0  0  0  0  0  0  0  0  0
   60.4720   32.4410   46.6330 C   0  0  0  0  0  0  0  0  0  0  0  0
   60.7674   31.7229   45.8539 H   0  0  0  0  0  0  0  0  0  0  0  0
   61.3860   32.8070   47.6250 C   0  0  0  0  0  0  0  0  0  0  0  0
   62.3968   32.3731   47.6223 H   0  0  0  0  0  0  0  0  0  0  0  0
   61.0250   33.7230   48.6240 C   0  0  0  0  0  0  0  0  0  0  0  0
   61.9840   34.0610   49.6410 N   0  0  0  0  0  0  0  0  0  0  0  0
   61.9810   35.0440   49.9970 H   0  0  0  0  0  0  0  0  0  0  0  0
   62.8670   33.1190   50.2750 C   0  0  0  0  0  0  0  0  0  0  0  0
   62.8670   31.9060   49.9320 O   0  0  0  0  0  0  0  0  0  0  0  0
   63.7930   33.5600   51.3370 C   0  0  0  0  0  0  0  0  0  0  0  0
   63.2670   34.1850   52.4790 C   0  0  0  0  0  0  0  0  0  0  0  0
   62.1819   34.3442   52.5640 H   0  0  0  0  0  0  0  0  0  0  0  0
   64.1130   34.6060   53.5080 C   0  0  0  0  0  0  0  0  0  0  0  0
   63.6918   35.0846   54.4044 H   0  0  0  0  0  0  0  0  0  0  0  0
   65.4920   34.4200   53.4000 C   0  0  0  0  0  0  0  0  0  0  0  0
   66.1556   34.7443   54.2152 H   0  0  0  0  0  0  0  0  0  0  0  0
   66.0300   33.8230   52.2590 C   0  0  0  0  0  0  0  0  0  0  0  0
   67.1184   33.6885   52.1733 H   0  0  0  0  0  0  0  0  0  0  0  0
   65.1910   33.3940   51.2220 C   0  0  0  0  0  0  0  0  0  0  0  0
   65.9370   32.7440   49.7660 Cl  0  0  0  0  0  0  0  0  0  0  0  0
   59.7150   34.2340   48.6430 C   0  0  0  0  0  0  0  0  0  0  0  0
   59.4076   34.9214   49.4449 H   0  0  0  0  0  0  0  0  0  0  0  0
   58.8010   33.8730   47.6480 C   0  0  0  0  0  0  0  0  0  0  0  0
   57.7815   34.2857   47.6652 H   0  0  0  0  0  0  0  0  0  0  0  0
   58.5880   30.2640   46.4620 N   0  0  0  0  0  0  0  0  0  0  0  0
   57.9300   29.1030   46.3270 C   0  0  0  0  0  0  0  0  0  0  0  0
   58.1910   31.3250   50.4660 C   0  0  0  0  0  0  0  0  0  0  0  0
   57.5781   30.7071   49.7933 H   0  0  0  0  0  0  0  0  0  0  0  0
  1  2  1  0
  2  3  1  0
  3  4  2  0
  4  5  1  0
  4  6  1  0
  6  7  1  0
  7  8  1  0
  7  9  1  0
  7 10  1  0
 10 11  1  0
 10 12  1  0
 10 13  1  0
 13 14  1  0
 13 15  1  0
 13 16  1  0
 16 17  2  0
 17 18  1  0
 18 19  1  0
 18 20  2  0
 20 21  1  0
 20 22  1  0
 22 23  1  0
 23 24  1  0
 24 25  1  0
 25 26  1  0
 26 27  1  0
 26 28  1  0
 26 29  1  0
 29 30  2  0
 30 31  1  0
 30 32  1  0
 32 33  1  0
 32 34  2  0
 34 35  1  0
 35 36  1  0
 35 37  1  0
 37 38  2  0
 37 39  1  0
 39 40  2  0
 40 41  1  0
 40 42  1  0
 42 43  1  0
 42 44  2  0
 44 45  1  0
 44 46  1  0
 46 47  1  0
 46 48  2  0
 48 49  1  0
 34 50  1  0
 50 51  1  0
 50 52  2  0
 52 53  1  0
 25 54  2  0
 54 55  1  0
  6 56  1  0
 56 57  1  0
 56  2  2  0
 55 17  1  0
 55 23  2  0
 52 29  1  0
 48 39  1  0
M  CHG  2  22  -1  24  -1
M  END
>  <UniqueID>  (69) 
61

>  <SMILES>  (69) 
O=C(Nc1ccc(Cc2nc3/c(=N\CCCn4ccnc4)c(Cl)c[n-]c3[n-]2)cc1)c1ccccc1Cl

>  <Energy>  (69) 
134.98540141440026

>  <Genealogy>  (69) 
O=C(Nc1ccc(Cc2nc3c(=NCCCn4ccnc4)c(Cl)c[n-]c3[n-]2)cc1)c1ccccc1Cl (protonated)
O=C(Nc1ccc(Cc2nc3/c(=N\CCCn4ccnc4)c(Cl)c[n-]c3[n-]2)cc1)c1ccccc1Cl (cis-trans isomerization)
O=C(Nc1ccc(Cc2nc3/c(=N\CCCn4ccnc4)c(Cl)c[n-]c3[n-]2)cc1)c1ccccc1Cl (3D coordinates assigned)
O=C(Nc1ccc(Cc2nc3/c(=N\CCCn4ccnc4)c(Cl)c[n-]c3[n-]2)cc1)c1ccccc1Cl (optimized conformer: 134.98540141440026 kcal/mol)

>  <smiles>  (69) 
O=C(Nc1ccc(Cc2nc3c(=NCCCn4ccnc4)c(Cl)c[nH]c3[nH]2)cc1)c1ccccc1Cl

>  <score_type>  (69) 
oracle

>  <origin>  (69) 
adg

>  <m_score__min__energy>  (69) 
-12.050000000000001

>  <m_primary>  (69) 
energy

$$$$
69:0
     RDKit          3D

 40 42  0  0  0  0  0  0  0  0999 V2000
   64.5110   33.0140   48.9970 N   0  0  0  0  0  0  0  0  0  0  0  0
   63.4820   33.2900   48.5430 C   0  0  0  0  0  0  0  0  0  0  0  0
   62.2030   33.6320   47.9800 C   0  0  0  0  0  0  0  0  0  0  0  0
   61.9970   33.5380   46.5980 C   0  0  0  0  0  0  0  0  0  0  0  0
   60.7540   33.8700   46.0500 C   0  0  0  0  0  0  0  0  0  0  0  0
   59.7060   34.3010   46.8740 C   0  0  0  0  0  0  0  0  0  0  0  0
   58.4800   34.6270   46.2710 O   0  0  0  0  0  0  0  0  0  0  0  0
   58.2030   34.5500   44.8720 C   0  0  0  0  0  0  0  0  0  0  0  0
   57.8270   33.1560   44.4820 C   0  0  0  0  0  0  0  0  0  0  0  0
   57.4170   32.1530   45.3320 C   0  0  0  0  0  0  0  0  0  0  0  0
   57.2000   31.0840   44.4870 C   0  0  0  0  0  0  0  0  0  0  0  0
   56.7180   29.7480   44.8920 C   0  0  0  0  0  0  0  0  0  0  0  0
   55.4890   29.4880   44.7760 O   0  0  0  0  0  0  0  0  0  0  0  0
   57.6110   28.7350   45.3980 N   0  0  0  0  0  0  0  0  0  0  0  0
   57.2400   27.3190   45.2590 C   0  0  0  0  0  0  0  0  0  0  0  0
   58.4930   26.4370   45.2590 C   0  0  0  0  0  0  0  0  0  0  0  0
   59.3520   26.6320   46.5270 C   0  0  0  0  0  0  0  0  0  0  0  0
   60.6870   26.4830   46.1880 F   0  0  0  0  0  0  0  0  0  0  0  0
   59.0320   25.6480   47.4480 F   0  0  0  0  0  0  0  0  0  0  0  0
   59.1530   28.0100   47.1920 C   0  0  0  0  0  0  0  0  0  0  0  0
   58.8080   29.1020   46.1740 C   0  0  0  0  0  0  0  0  0  0  0  0
   57.4550   31.4550   43.2160 N   0  0  0  0  0  0  0  0  0  0  0  0
   57.8300   32.7000   43.2530 O   0  0  0  0  0  0  0  0  0  0  0  0
   59.9170   34.3900   48.2640 C   0  0  0  0  0  0  0  0  0  0  0  0
   61.1600   34.0580   48.8110 C   0  0  0  0  0  0  0  0  0  0  0  0
   62.8142   33.2025   45.9425 H   0  0  0  0  0  0  0  0  0  0  0  0
   60.5979   33.7922   44.9639 H   0  0  0  0  0  0  0  0  0  0  0  0
   57.3717   35.2288   44.6309 H   0  0  0  0  0  0  0  0  0  0  0  0
   59.1071   34.8403   44.3166 H   0  0  0  0  0  0  0  0  0  0  0  0
   57.2923   32.1942   46.4241 H   0  0  0  0  0  0  0  0  0  0  0  0
   56.5928   27.0295   46.1000 H   0  0  0  0  0  0  0  0  0  0  0  0
   56.7063   27.1814   44.3071 H   0  0  0  0  0  0  0  0  0  0  0  0
   58.1829   25.3832   45.2014 H   0  0  0  0  0  0  0  0  0  0  0  0
   59.1055   26.7257   44.3921 H   0  0  0  0  0  0  0  0  0  0  0  0
   58.3338   27.9355   47.9223 H   0  0  0  0  0  0  0  0  0  0  0  0
   60.0996   28.2894   47.6777 H   0  0  0  0  0  0  0  0  0  0  0  0
   58.6168   30.0448   46.7075 H   0  0  0  0  0  0  0  0  0  0  0  0
   59.6548   29.2185   45.4816 H   0  0  0  0  0  0  0  0  0  0  0  0
   59.1003   34.7221   48.9218 H   0  0  0  0  0  0  0  0  0  0  0  0
   61.3189   34.1317   49.8970 H   0  0  0  0  0  0  0  0  0  0  0  0
  1  2  3  0
  2  3  1  0
  3  4  2  0
  4  5  1  0
  5  6  2  0
  6  7  1  0
  7  8  1  0
  8  9  1  0
  9 10  2  0
 10 11  1  0
 11 12  1  0
 12 13  2  0
 12 14  1  0
 14 15  1  0
 15 16  1  0
 16 17  1  0
 17 18  1  0
 17 19  1  0
 17 20  1  0
 20 21  1  0
 11 22  2  0
 22 23  1  0
  6 24  1  0
 24 25  2  0
 25  3  1  0
 23  9  1  0
 21 14  1  0
  4 26  1  0
  5 27  1  0
  8 28  1  0
  8 29  1  0
 10 30  1  0
 15 31  1  0
 15 32  1  0
 16 33  1  0
 16 34  1  0
 20 35  1  0
 20 36  1  0
 21 37  1  0
 21 38  1  0
 24 39  1  0
 25 40  1  0
M  END
>  <UniqueID>  (70) 
62

>  <SMILES>  (70) 
N#Cc1ccc(OCc2cc(C(=O)N3CCC(F)(F)CC3)no2)cc1

>  <Energy>  (70) 
73.18622163674821

>  <Genealogy>  (70) 
N#Cc1ccc(OCc2cc(C(=O)N3CCC(F)(F)CC3)no2)cc1 (3D coordinates assigned)
N#Cc1ccc(OCc2cc(C(=O)N3CCC(F)(F)CC3)no2)cc1 (nonaromatic ring conformer: 73.18622163674821 kcal/mol)

>  <smiles>  (70) 
N#Cc1ccc(OCc2cc(C(=O)N3CCC(F)(F)CC3)no2)cc1

>  <score_type>  (70) 
oracle

>  <origin>  (70) 
adg

>  <m_score__min__energy>  (70) 
-7.5300000000000002

>  <m_primary>  (70) 
energy

$$$$
70:0
     RDKit          3D

 42 45  0  0  1  0  0  0  0  0999 V2000
   59.7000   34.5170   48.9830 C   0  0  0  0  0  0  0  0  0  0  0  0
   60.9640   34.2080   48.2010 C   0  0  0  0  0  0  0  0  0  0  0  0
   60.5630   33.6330   46.9380 N   0  0  0  0  0  0  0  0  0  0  0  0
   60.7180   32.2210   46.8400 C   0  0  0  0  0  0  0  0  0  0  0  0
   59.3220   31.5890   47.2740 C   0  0  0  0  0  0  0  0  0  0  0  0
   58.5050   31.6280   46.0500 C   0  0  0  0  0  0  0  0  0  0  0  0
   58.5740   33.0640   45.6570 C   0  0  0  0  0  0  0  0  0  0  0  0
   57.7770   33.2610   44.1350 S   0  0  0  0  0  0  0  0  0  0  0  0
   57.3570   31.5190   44.0140 C   0  0  0  0  0  0  0  0  0  0  0  0
   56.6950   31.0170   42.9750 N   0  0  0  0  0  0  0  0  0  0  0  0
   56.4350   29.7080   42.9790 C   0  0  0  0  0  0  0  0  0  0  0  0
   56.8580   29.0140   44.0270 N   0  0  0  0  0  0  0  0  0  0  0  0
   57.5340   29.5300   45.0890 C   0  0  0  0  0  0  0  0  0  0  0  0
   57.7430   28.7670   46.0130 N   0  0  0  0  0  0  0  0  0  0  0  0
   58.2760   27.5220   46.0860 C   0  0  0  0  0  0  0  0  0  0  0  0
   57.3560   26.4080   45.7040 C   0  0  0  0  0  0  0  0  0  0  0  0
   57.6550   25.4380   44.7740 C   0  0  0  0  0  0  0  0  0  0  0  0
   56.7890   24.3860   44.4730 C   0  0  0  0  0  0  0  0  0  0  0  0
   55.5870   24.2990   45.1190 C   0  0  0  0  0  0  0  0  0  0  0  0
   55.2860   25.2300   46.0200 N   0  0  0  0  0  0  0  0  0  0  0  0
   56.1050   26.2510   46.3250 C   0  0  0  0  0  0  0  0  0  0  0  0
   57.8490   30.9150   45.1340 C   0  0  0  0  0  0  0  0  0  0  0  0
   59.2180   34.0300   46.5640 C   0  0  0  0  0  0  0  0  0  0  0  0
   59.9137   34.4648   50.0608 H   0  0  0  0  0  0  0  0  0  0  0  0
   59.3485   35.5275   48.7274 H   0  0  0  0  0  0  0  0  0  0  0  0
   58.9220   33.7826   48.7274 H   0  0  0  0  0  0  0  0  0  0  0  0
   61.5345   35.1325   48.0286 H   0  0  0  0  0  0  0  0  0  0  0  0
   61.6041   33.5090   48.7593 H   0  0  0  0  0  0  0  0  0  0  0  0
   60.9609   31.9350   45.8060 H   0  0  0  0  0  0  0  0  0  0  0  0
   61.5367   31.8624   47.4811 H   0  0  0  0  0  0  0  0  0  0  0  0
   59.4546   30.5534   47.6204 H   0  0  0  0  0  0  0  0  0  0  0  0
   58.8554   32.1358   48.1067 H   0  0  0  0  0  0  0  0  0  0  0  0
   55.8944   29.2266   42.1507 H   0  0  0  0  0  0  0  0  0  0  0  0
   56.6350   27.9720   44.0010 H   0  0  0  0  0  0  0  0  0  0  0  0
   59.1483   27.4864   45.4168 H   0  0  0  0  0  0  0  0  0  0  0  0
   58.5248   27.3602   47.1452 H   0  0  0  0  0  0  0  0  0  0  0  0
   58.6180   25.4946   44.2454 H   0  0  0  0  0  0  0  0  0  0  0  0
   57.0710   23.6330   43.7223 H   0  0  0  0  0  0  0  0  0  0  0  0
   54.8867   23.4798   44.8991 H   0  0  0  0  0  0  0  0  0  0  0  0
   55.7875   26.9839   47.0814 H   0  0  0  0  0  0  0  0  0  0  0  0
   59.2660   35.0073   46.0614 H   0  0  0  0  0  0  0  0  0  0  0  0
   58.6162   34.0760   47.4836 H   0  0  0  0  0  0  0  0  0  0  0  0
  1  2  1  0
  2  3  1  0
  3  4  1  0
  4  5  1  0
  5  6  1  0
  6  7  2  0
  7  8  1  0
  8  9  1  0
  9 10  1  0
 10 11  2  0
 11 12  1  0
 12 13  1  0
 13 14  2  0
 14 15  1  0
 15 16  1  0
 16 17  2  0
 17 18  1  0
 18 19  2  0
 19 20  1  0
 20 21  2  0
 13 22  1  0
  7 23  1  0
 23  3  1  0
 22  6  1  0
 22  9  2  0
 21 16  1  0
  1 24  1  0
  1 25  1  0
  1 26  1  0
  2 27  1  0
  2 28  1  0
  4 29  1  0
  4 30  1  0
  5 31  1  0
  5 32  1  0
 11 33  1  0
 12 34  1  0
 15 35  1  0
 15 36  1  0
 17 37  1  0
 18 38  1  0
 19 39  1  0
 21 40  1  0
 23 41  1  0
 23 42  1  0
M  END
>  <smiles>  (71) 
CCN1CCc2c(sc3nc[nH]c(=NCc4cccnc4)c23)C1

>  <score_type>  (71) 
oracle

>  <origin>  (71) 
adg

>  <m_score__min__energy>  (71) 
-7.9000000000000004

>  <m_primary>  (71) 
energy

$$$$
71:0
     RDKit          3D

 36 37  0  0  0  0  0  0  0  0999 V2000
   54.2049   24.3904   46.1202 H   0  0  0  0  0  0  0  0  0  0  0  0
   55.1570   24.8510   45.8180 C   0  0  0  0  0  0  0  0  0  0  0  0
   55.3480   26.1870   45.9830 N   0  0  0  0  0  0  0  0  0  0  0  0
   56.5120   26.8000   45.6320 C   0  0  0  0  0  0  0  0  0  0  0  0
   56.6810   28.0830   45.7860 N   0  0  0  0  0  0  0  0  0  0  0  0
   56.3520   29.1480   44.8770 C   0  0  0  0  0  0  0  0  0  0  0  0
   55.1390   29.4480   44.7250 O   0  0  0  0  0  0  0  0  0  0  0  0
   57.3770   29.8660   44.0320 C   0  0  0  0  0  0  0  0  0  0  0  0
   56.8784   30.2840   43.1451 H   0  0  0  0  0  0  0  0  0  0  0  0
   58.1522   29.1411   43.7429 H   0  0  0  0  0  0  0  0  0  0  0  0
   58.0410   30.9870   44.7940 C   0  0  0  0  0  0  0  0  0  0  0  0
   57.7030   32.3250   44.5280 C   0  0  0  0  0  0  0  0  0  0  0  0
   56.9568   32.5569   43.7538 H   0  0  0  0  0  0  0  0  0  0  0  0
   58.3090   33.3620   45.2410 C   0  0  0  0  0  0  0  0  0  0  0  0
   58.0436   34.4065   45.0208 H   0  0  0  0  0  0  0  0  0  0  0  0
   59.2530   33.0770   46.2350 C   0  0  0  0  0  0  0  0  0  0  0  0
   59.9980   34.3900   47.1420 S   0  0  0  0  0  0  0  0  0  0  0  0
   59.1910   34.6590   48.3800 O   0  0  0  0  0  0  0  0  0  0  0  0
   60.0250   35.6410   46.3070 O   0  0  0  0  0  0  0  0  0  0  0  0
   61.6640   33.9440   47.6070 C   0  0  0  0  0  0  0  0  0  0  0  0
   61.6437   32.9788   48.1343 H   0  0  0  0  0  0  0  0  0  0  0  0
   62.0677   34.7323   48.2594 H   0  0  0  0  0  0  0  0  0  0  0  0
   62.5610   33.8230   46.3820 C   0  0  0  0  0  0  0  0  0  0  0  0
   63.6036   33.6824   46.7034 H   0  0  0  0  0  0  0  0  0  0  0  0
   62.2436   32.9595   45.7789 H   0  0  0  0  0  0  0  0  0  0  0  0
   62.4837   34.7397   45.7789 H   0  0  0  0  0  0  0  0  0  0  0  0
   59.5730   31.7440   46.5240 C   0  0  0  0  0  0  0  0  0  0  0  0
   60.3039   31.5146   47.3134 H   0  0  0  0  0  0  0  0  0  0  0  0
   58.9670   30.7050   45.8130 C   0  0  0  0  0  0  0  0  0  0  0  0
   59.2160   29.6606   46.0521 H   0  0  0  0  0  0  0  0  0  0  0  0
   57.5420   26.0420   45.0610 C   0  0  0  0  0  0  0  0  0  0  0  0
   58.4814   26.5256   44.7549 H   0  0  0  0  0  0  0  0  0  0  0  0
   57.3680   24.6680   44.8830 C   0  0  0  0  0  0  0  0  0  0  0  0
   58.1743   24.0632   44.4425 H   0  0  0  0  0  0  0  0  0  0  0  0
   56.1690   24.0630   45.2650 C   0  0  0  0  0  0  0  0  0  0  0  0
   55.9340   22.3390   45.0490 Cl  0  0  0  0  0  0  0  0  0  0  0  0
  1  2  1  0
  2  3  1  0
  3  4  1  0
  4  5  2  0
  5  6  1  0
  6  7  2  0
  6  8  1  0
  8  9  1  0
  8 10  1  0
  8 11  1  0
 11 12  2  0
 12 13  1  0
 12 14  1  0
 14 15  1  0
 14 16  2  0
 16 17  1  0
 17 18  2  0
 17 19  2  0
 17 20  1  0
 20 21  1  0
 20 22  1  0
 20 23  1  0
 23 24  1  0
 23 25  1  0
 23 26  1  0
 16 27  1  0
 27 28  1  0
 27 29  2  0
 29 30  1  0
  4 31  1  0
 31 32  1  0
 31 33  2  0
 33 34  1  0
 33 35  1  0
 35 36  1  0
 35  2  2  0
 29 11  1  0
M  CHG  1   3  -1
M  END
>  <UniqueID>  (72) 
63

>  <SMILES>  (72) 
CCS(=O)(=O)c1ccc(CC(=O)/N=c2/ccc(Cl)c[n-]2)cc1

>  <Energy>  (72) 
35.02530787777968

>  <Genealogy>  (72) 
CCS(=O)(=O)c1ccc(CC(=O)N=c2ccc(Cl)c[n-]2)cc1 (protonated)
CCS(=O)(=O)c1ccc(CC(=O)/N=c2/ccc(Cl)c[n-]2)cc1 (cis-trans isomerization)
CCS(=O)(=O)c1ccc(CC(=O)/N=c2/ccc(Cl)c[n-]2)cc1 (3D coordinates assigned)
CCS(=O)(=O)c1ccc(CC(=O)/N=c2/ccc(Cl)c[n-]2)cc1 (optimized conformer: 35.02530787777968 kcal/mol)

>  <smiles>  (72) 
CCS(=O)(=O)c1ccc(CC(=O)N=c2ccc(Cl)c[nH]2)cc1

>  <score_type>  (72) 
oracle

>  <origin>  (72) 
adg

>  <m_score__min__energy>  (72) 
-10.19

>  <m_primary>  (72) 
energy

$$$$
72:0
     RDKit          3D

 50 54  0  0  0  0  0  0  0  0999 V2000
   62.5970   34.1420   46.5970 C   0  0  0  0  0  0  0  0  0  0  0  0
   63.7020   33.0940   46.7230 C   0  0  0  0  0  0  0  0  0  0  0  0
   63.5530   32.3150   47.9990 C   0  0  0  0  0  0  0  0  0  0  0  0
   64.4710   32.3880   49.0000 N   0  0  0  0  0  0  0  0  0  0  0  0
   63.9500   31.6030   49.9620 C   0  0  0  0  0  0  0  0  0  0  0  0
   64.5170   31.3280   51.2010 C   0  0  0  0  0  0  0  0  0  0  0  0
   63.8100   30.4660   52.0520 C   0  0  0  0  0  0  0  0  0  0  0  0
   62.5800   29.9190   51.6340 C   0  0  0  0  0  0  0  0  0  0  0  0
   62.0850   30.2330   50.4030 N   0  0  0  0  0  0  0  0  0  0  0  0
   62.7730   31.0610   49.6200 N   0  0  0  0  0  0  0  0  0  0  0  0
   62.4940   31.4780   48.3740 C   0  0  0  0  0  0  0  0  0  0  0  0
   61.2810   31.1010   47.6200 C   0  0  0  0  0  0  0  0  0  0  0  0
   60.8540   31.8860   46.7290 O   0  0  0  0  0  0  0  0  0  0  0  0
   60.5560   29.9030   47.9420 N   0  0  0  0  0  0  0  0  0  0  0  0
   59.5370   29.3040   47.1250 C   0  0  0  0  0  0  0  0  0  0  0  0
   58.5600   28.4390   47.5750 C   0  0  0  0  0  0  0  0  0  0  0  0
   57.7670   28.1000   46.5390 N   0  0  0  0  0  0  0  0  0  0  0  0
   58.2320   28.7100   45.4580 N   0  0  0  0  0  0  0  0  0  0  0  0
   57.5860   28.6490   44.1510 C   0  0  0  0  0  0  0  0  0  0  0  0
   56.5010   29.7230   44.0500 C   0  0  0  0  0  0  0  0  0  0  0  0
   57.1010   31.0170   43.7360 N   0  0  0  0  0  0  0  0  0  0  0  0
   57.4640   31.4650   42.5090 C   0  0  0  0  0  0  0  0  0  0  0  0
   58.0960   32.7050   42.6080 C   0  0  0  0  0  0  0  0  0  0  0  0
   58.1190   32.9940   43.9570 C   0  0  0  0  0  0  0  0  0  0  0  0
   58.6500   34.0690   44.6620 C   0  0  0  0  0  0  0  0  0  0  0  0
   58.5360   34.0410   46.0630 C   0  0  0  0  0  0  0  0  0  0  0  0
   57.9040   32.9470   46.6960 C   0  0  0  0  0  0  0  0  0  0  0  0
   57.3990   31.9150   45.9570 N   0  0  0  0  0  0  0  0  0  0  0  0
   57.5150   31.9540   44.6060 C   0  0  0  0  0  0  0  0  0  0  0  0
   59.3070   29.4610   45.7710 C   0  0  0  0  0  0  0  0  0  0  0  0
   62.2698   34.4523   47.6003 H   0  0  0  0  0  0  0  0  0  0  0  0
   62.9809   35.0157   46.0500 H   0  0  0  0  0  0  0  0  0  0  0  0
   61.7448   33.7124   46.0500 H   0  0  0  0  0  0  0  0  0  0  0  0
   63.6431   32.4029   45.8692 H   0  0  0  0  0  0  0  0  0  0  0  0
   64.6754   33.6063   46.7334 H   0  0  0  0  0  0  0  0  0  0  0  0
   65.4795   31.7678   51.5013 H   0  0  0  0  0  0  0  0  0  0  0  0
   64.2148   30.2172   53.0441 H   0  0  0  0  0  0  0  0  0  0  0  0
   62.0222   29.2421   52.2977 H   0  0  0  0  0  0  0  0  0  0  0  0
   60.7660   29.4300   48.8480 H   0  0  0  0  0  0  0  0  0  0  0  0
   58.4470   28.0842   48.6101 H   0  0  0  0  0  0  0  0  0  0  0  0
   58.3377   28.8162   43.3655 H   0  0  0  0  0  0  0  0  0  0  0  0
   57.1250   27.6585   44.0232 H   0  0  0  0  0  0  0  0  0  0  0  0
   55.7912   29.4491   43.2555 H   0  0  0  0  0  0  0  0  0  0  0  0
   55.9758   29.7949   45.0139 H   0  0  0  0  0  0  0  0  0  0  0  0
   57.2852   30.9261   41.5669 H   0  0  0  0  0  0  0  0  0  0  0  0
   58.4913   33.3205   41.7864 H   0  0  0  0  0  0  0  0  0  0  0  0
   59.1394   34.9072   44.1443 H   0  0  0  0  0  0  0  0  0  0  0  0
   58.9380   34.8691   46.6653 H   0  0  0  0  0  0  0  0  0  0  0  0
   57.8180   32.9262   47.7924 H   0  0  0  0  0  0  0  0  0  0  0  0
   59.8923   30.0830   45.0778 H   0  0  0  0  0  0  0  0  0  0  0  0
  1  2  1  0
  2  3  1  0
  3  4  1  0
  4  5  2  0
  5  6  1  0
  6  7  2  0
  7  8  1  0
  8  9  2  0
  9 10  1  0
 10 11  1  0
 11 12  1  0
 12 13  2  0
 12 14  1  0
 14 15  1  0
 15 16  1  0
 16 17  2  0
 17 18  1  0
 18 19  1  0
 19 20  1  0
 20 21  1  0
 21 22  1  0
 22 23  2  0
 23 24  1  0
 24 25  2  0
 25 26  1  0
 26 27  2  0
 27 28  1  0
 28 29  2  0
 18 30  1  0
 11  3  2  0
 30 15  2  0
 10  5  1  0
 29 21  1  0
 29 24  1  0
  1 31  1  0
  1 32  1  0
  1 33  1  0
  2 34  1  0
  2 35  1  0
  6 36  1  0
  7 37  1  0
  8 38  1  0
 14 39  1  0
 16 40  1  0
 19 41  1  0
 19 42  1  0
 20 43  1  0
 20 44  1  0
 22 45  1  0
 23 46  1  0
 25 47  1  0
 26 48  1  0
 27 49  1  0
 30 50  1  0
M  END
>  <UniqueID>  (73) 
64

>  <SMILES>  (73) 
CCc1nc2cccnn2c1C(=O)Nc1cnn(CCn2ccc3cccnc32)c1

>  <Energy>  (73) 
156.84661411505047

>  <Genealogy>  (73) 
CCc1nc2cccnn2c1C(=O)Nc1cnn(CCn2ccc3cccnc32)c1 (3D coordinates assigned)
CCc1nc2cccnn2c1C(=O)Nc1cnn(CCn2ccc3cccnc32)c1 (optimized conformer: 156.84661411505047 kcal/mol)

>  <smiles>  (73) 
CCc1nc2cccnn2c1C(=O)Nc1cnn(CCn2ccc3cccnc32)c1

>  <score_type>  (73) 
oracle

>  <origin>  (73) 
adg

>  <m_score__min__energy>  (73) 
-8.9800000000000004

>  <m_primary>  (73) 
energy

$$$$
73:0
     RDKit          3D

 43 45  0  0  0  0  0  0  0  0999 V2000
   55.9770   30.8400   52.0230 C   0  0  0  0  0  0  0  0  0  0  0  0
   57.0320   30.1310   51.3830 O   0  0  0  0  0  0  0  0  0  0  0  0
   58.3740   30.1530   51.7980 C   0  0  0  0  0  0  0  0  0  0  0  0
   58.7340   30.3300   53.1490 C   0  0  0  0  0  0  0  0  0  0  0  0
   60.0790   30.3460   53.5250 C   0  0  0  0  0  0  0  0  0  0  0  0
   61.0770   30.1950   52.5620 C   0  0  0  0  0  0  0  0  0  0  0  0
   60.7340   30.0190   51.2200 C   0  0  0  0  0  0  0  0  0  0  0  0
   59.3830   29.9800   50.8300 C   0  0  0  0  0  0  0  0  0  0  0  0
   59.0210   29.8290   49.4480 N   0  0  0  0  0  0  0  0  0  0  0  0
   59.8680   29.2060   48.4640 C   0  0  0  0  0  0  0  0  0  0  0  0
   61.0410   28.8590   48.7710 O   0  0  0  0  0  0  0  0  0  0  0  0
   59.3780   28.9500   47.0890 C   0  0  0  0  0  0  0  0  0  0  0  0
   60.1240   28.1390   46.2190 C   0  0  0  0  0  0  0  0  0  0  0  0
   59.6680   27.8830   44.9250 C   0  0  0  0  0  0  0  0  0  0  0  0
   58.4590   28.4260   44.4850 C   0  0  0  0  0  0  0  0  0  0  0  0
   57.6850   29.2280   45.3430 C   0  0  0  0  0  0  0  0  0  0  0  0
   56.3940   29.7940   44.8830 C   0  0  0  0  0  0  0  0  0  0  0  0
   55.4050   29.0350   44.6970 O   0  0  0  0  0  0  0  0  0  0  0  0
   56.2610   31.2110   44.7010 N   0  0  0  0  0  0  0  0  0  0  0  0
   57.2310   32.2240   45.0110 C   0  0  0  0  0  0  0  0  0  0  0  0
   57.3930   32.7220   46.3180 C   0  0  0  0  0  0  0  0  0  0  0  0
   58.3320   33.7250   46.5800 C   0  0  0  0  0  0  0  0  0  0  0  0
   59.1050   34.2490   45.5420 C   0  0  0  0  0  0  0  0  0  0  0  0
   58.9330   33.7810   44.2380 C   0  0  0  0  0  0  0  0  0  0  0  0
   57.9940   32.7770   43.9670 C   0  0  0  0  0  0  0  0  0  0  0  0
   57.7930   32.2200   42.3120 Cl  0  0  0  0  0  0  0  0  0  0  0  0
   58.1530   29.4820   46.6450 C   0  0  0  0  0  0  0  0  0  0  0  0
   56.0923   30.7625   53.1142 H   0  0  0  0  0  0  0  0  0  0  0  0
   56.0126   31.8982   51.7247 H   0  0  0  0  0  0  0  0  0  0  0  0
   55.0107   30.4073   51.7247 H   0  0  0  0  0  0  0  0  0  0  0  0
   57.9514   30.4562   53.9116 H   0  0  0  0  0  0  0  0  0  0  0  0
   60.3519   30.4779   54.5824 H   0  0  0  0  0  0  0  0  0  0  0  0
   62.1356   30.2146   52.8603 H   0  0  0  0  0  0  0  0  0  0  0  0
   61.5249   29.9102   50.4633 H   0  0  0  0  0  0  0  0  0  0  0  0
   58.0600   30.1270   49.1730 H   0  0  0  0  0  0  0  0  0  0  0  0
   61.0744   27.7023   46.5596 H   0  0  0  0  0  0  0  0  0  0  0  0
   60.2631   27.2512   44.2492 H   0  0  0  0  0  0  0  0  0  0  0  0
   58.1099   28.2253   43.4613 H   0  0  0  0  0  0  0  0  0  0  0  0
   56.7782   32.3203   47.1369 H   0  0  0  0  0  0  0  0  0  0  0  0
   58.4617   34.1016   47.6054 H   0  0  0  0  0  0  0  0  0  0  0  0
   59.8498   35.0309   45.7518 H   0  0  0  0  0  0  0  0  0  0  0  0
   59.5367   34.2019   43.4205 H   0  0  0  0  0  0  0  0  0  0  0  0
   57.5535   30.1048   47.3252 H   0  0  0  0  0  0  0  0  0  0  0  0
  1  2  1  0
  2  3  1  0
  3  4  2  0
  4  5  1  0
  5  6  2  0
  6  7  1  0
  7  8  2  0
  8  9  1  0
  9 10  1  0
 10 11  2  0
 10 12  1  0
 12 13  2  0
 13 14  1  0
 14 15  2  0
 15 16  1  0
 16 17  1  0
 17 18  2  0
 17 19  1  0
 19 20  1  0
 20 21  2  0
 21 22  1  0
 22 23  2  0
 23 24  1  0
 24 25  2  0
 25 26  1  0
 16 27  2  0
  8  3  1  0
 27 12  1  0
 25 20  1  0
  1 28  1  0
  1 29  1  0
  1 30  1  0
  4 31  1  0
  5 32  1  0
  6 33  1  0
  7 34  1  0
  9 35  1  0
 13 36  1  0
 14 37  1  0
 15 38  1  0
 21 39  1  0
 22 40  1  0
 23 41  1  0
 24 42  1  0
 27 43  1  0
M  CHG  1  19  -1
M  END
>  <UniqueID>  (74) 
65

>  <SMILES>  (74) 
COc1ccccc1NC(=O)c1cccc(C(=O)[N-]c2ccccc2Cl)c1

>  <Energy>  (74) 
57.138915819701126

>  <Genealogy>  (74) 
COc1ccccc1NC(=O)c1cccc(C(=O)[N-]c2ccccc2Cl)c1 (protonated)
COc1ccccc1NC(=O)c1cccc(C(=O)[N-]c2ccccc2Cl)c1 (3D coordinates assigned)
COc1ccccc1NC(=O)c1cccc(C(=O)[N-]c2ccccc2Cl)c1 (optimized conformer: 57.138915819701126 kcal/mol)

>  <smiles>  (74) 
COc1ccccc1NC(=O)c1cccc(C(=O)Nc2ccccc2Cl)c1

>  <score_type>  (74) 
oracle

>  <origin>  (74) 
adg

>  <m_score__min__energy>  (74) 
-10.199999999999999

>  <m_primary>  (74) 
energy

$$$$
74:0
     RDKit          3D

 33 34  0  0  0  0  0  0  0  0999 V2000
   57.7380   25.6400   44.9240 C   0  0  0  0  0  0  0  0  0  0  0  0
   57.7660   25.8020   43.5980 C   0  0  0  0  0  0  0  0  0  0  0  0
   58.1410   27.1190   42.9620 C   0  0  0  0  0  0  0  0  0  0  0  0
   57.5400   28.2670   43.6830 N   0  0  2  0  0  0  0  0  0  0  0  0
   56.8730   29.1890   42.7330 C   0  0  0  0  0  0  0  0  0  0  0  0
   56.3170   30.4230   43.4520 C   0  0  0  0  0  0  0  0  0  0  0  0
   57.3970   31.0890   44.2560 C   0  0  0  0  0  0  0  0  0  0  0  0
   57.3000   32.4940   44.5420 N   0  0  0  0  0  0  0  0  0  0  0  0
   58.1150   33.1830   45.5050 C   0  0  0  0  0  0  0  0  0  0  0  0
   58.1380   32.7970   46.8580 C   0  0  0  0  0  0  0  0  0  0  0  0
   58.9190   33.5010   47.7800 C   0  0  0  0  0  0  0  0  0  0  0  0
   59.6730   34.6020   47.3640 C   0  0  0  0  0  0  0  0  0  0  0  0
   59.6380   35.0070   46.0270 C   0  0  0  0  0  0  0  0  0  0  0  0
   58.8560   34.3060   45.1020 C   0  0  0  0  0  0  0  0  0  0  0  0
   58.4030   30.3930   44.6970 N   0  0  0  0  0  0  0  0  0  0  0  0
   58.5460   28.9900   44.4450 C   0  0  0  0  0  0  0  0  0  0  0  0
   59.5100   28.3780   44.9830 O   0  0  0  0  0  0  0  0  0  0  0  0
   57.4601   24.6661   45.3534 H   0  0  0  0  0  0  0  0  0  0  0  0
   57.9928   26.4805   45.5863 H   0  0  0  0  0  0  0  0  0  0  0  0
   57.5083   24.9508   42.9507 H   0  0  0  0  0  0  0  0  0  0  0  0
   59.2360   27.2228   42.9763 H   0  0  0  0  0  0  0  0  0  0  0  0
   57.7581   27.1232   41.9308 H   0  0  0  0  0  0  0  0  0  0  0  0
   56.8300   27.9080   44.3650 H   0  0  0  0  0  0  0  0  0  0  0  0
   57.6027   29.5135   41.9765 H   0  0  0  0  0  0  0  0  0  0  0  0
   56.0349   28.6550   42.2614 H   0  0  0  0  0  0  0  0  0  0  0  0
   55.9293   31.1331   42.7068 H   0  0  0  0  0  0  0  0  0  0  0  0
   55.5092   30.1087   44.1292 H   0  0  0  0  0  0  0  0  0  0  0  0
   56.6510   33.0650   43.9550 H   0  0  0  0  0  0  0  0  0  0  0  0
   57.5387   31.9372   47.1921 H   0  0  0  0  0  0  0  0  0  0  0  0
   58.9400   33.1878   48.8343 H   0  0  0  0  0  0  0  0  0  0  0  0
   60.2936   35.1494   48.0887 H   0  0  0  0  0  0  0  0  0  0  0  0
   60.2258   35.8778   45.7012 H   0  0  0  0  0  0  0  0  0  0  0  0
   58.8215   34.6364   44.0534 H   0  0  0  0  0  0  0  0  0  0  0  0
  1  2  2  0
  2  3  1  0
  3  4  1  0
  4  5  1  0
  5  6  1  0
  6  7  1  0
  7  8  1  0
  8  9  1  0
  9 10  2  0
 10 11  1  0
 11 12  2  0
 12 13  1  0
 13 14  2  0
  7 15  2  0
 15 16  1  0
 16 17  2  0
 16  4  1  0
 14  9  1  0
  1 18  1  0
  1 19  1  0
  2 20  1  0
  3 21  1  0
  3 22  1  0
  4 23  1  1
  5 24  1  0
  5 25  1  0
  6 26  1  0
  6 27  1  0
  8 28  1  0
 10 29  1  0
 11 30  1  0
 12 31  1  0
 13 32  1  0
 14 33  1  0
M  CHG  1   4   1
M  END
>  <UniqueID>  (75) 
66

>  <SMILES>  (75) 
C=CC[N@@H+]1CCC(Nc2ccccc2)=NC1=O

>  <Energy>  (75) 
38.98481579850821

>  <Genealogy>  (75) 
C=CC[NH+]1CCC(Nc2ccccc2)=NC1=O (protonated)
C=CC[N@@H+]1CCC(Nc2ccccc2)=NC1=O (chirality)
C=CC[N@@H+]1CCC(Nc2ccccc2)=NC1=O (3D coordinates assigned)
C=CC[N@@H+]1CCC(Nc2ccccc2)=NC1=O (nonaromatic ring conformer: 38.98481579850821 kcal/mol)

>  <smiles>  (75) 
C=CCN1CCC(Nc2ccccc2)=NC1=O

>  <score_type>  (75) 
oracle

>  <origin>  (75) 
adg

>  <m_score__min__energy>  (75) 
-4.8399999999999999

>  <m_primary>  (75) 
energy

$$$$
75:0
     RDKit          3D

 31 31  0  0  0  0  0  0  0  0999 V2000
   57.7440   27.5580   46.6800 C   0  0  0  0  0  0  0  0  0  0  0  0
   56.9250   27.2490   45.4340 C   0  0  0  0  0  0  0  0  0  0  0  0
   55.9010   28.2240   45.2470 O   0  0  0  0  0  0  0  0  0  0  0  0
   56.0610   29.3710   44.4620 C   0  0  0  0  0  0  0  0  0  0  0  0
   55.2130   30.3050   44.4990 O   0  0  0  0  0  0  0  0  0  0  0  0
   57.2480   29.4810   43.5550 C   0  0  0  0  0  0  0  0  0  0  0  0
   58.3250   30.4260   44.1070 C   0  0  0  0  0  0  0  0  0  0  0  0
   58.2570   30.5920   45.6290 C   0  0  0  0  0  0  0  0  0  0  0  0
   57.6240   31.8260   45.9580 O   0  0  0  0  0  0  0  0  0  0  0  0
   58.2930   33.0540   46.0750 C   0  0  0  0  0  0  0  0  0  0  0  0
   58.5590   33.8780   44.9640 C   0  0  0  0  0  0  0  0  0  0  0  0
   59.2380   35.0890   45.1340 C   0  0  0  0  0  0  0  0  0  0  0  0
   59.6530   35.4880   46.4070 C   0  0  0  0  0  0  0  0  0  0  0  0
   59.3890   34.6770   47.5130 C   0  0  0  0  0  0  0  0  0  0  0  0
   58.7100   33.4670   47.3470 C   0  0  0  0  0  0  0  0  0  0  0  0
   57.1472   27.3328   47.5762 H   0  0  0  0  0  0  0  0  0  0  0  0
   58.6552   26.9419   46.6819 H   0  0  0  0  0  0  0  0  0  0  0  0
   58.0212   28.6225   46.6819 H   0  0  0  0  0  0  0  0  0  0  0  0
   57.5886   27.2500   44.5567 H   0  0  0  0  0  0  0  0  0  0  0  0
   56.4545   26.2623   45.5567 H   0  0  0  0  0  0  0  0  0  0  0  0
   57.6881   28.4810   43.4273 H   0  0  0  0  0  0  0  0  0  0  0  0
   56.8994   29.8951   42.5974 H   0  0  0  0  0  0  0  0  0  0  0  0
   59.3136   30.0224   43.8428 H   0  0  0  0  0  0  0  0  0  0  0  0
   58.1517   31.4166   43.6612 H   0  0  0  0  0  0  0  0  0  0  0  0
   57.6803   29.7606   46.0605 H   0  0  0  0  0  0  0  0  0  0  0  0
   59.2782   30.5902   46.0379 H   0  0  0  0  0  0  0  0  0  0  0  0
   58.2320   33.5684   43.9604 H   0  0  0  0  0  0  0  0  0  0  0  0
   59.4457   35.7286   44.2635 H   0  0  0  0  0  0  0  0  0  0  0  0
   60.1874   36.4405   46.5381 H   0  0  0  0  0  0  0  0  0  0  0  0
   59.7158   34.9909   48.5153 H   0  0  0  0  0  0  0  0  0  0  0  0
   58.5013   32.8339   48.2220 H   0  0  0  0  0  0  0  0  0  0  0  0
  1  2  1  0
  2  3  1  0
  3  4  1  0
  4  5  2  0
  4  6  1  0
  6  7  1  0
  7  8  1  0
  8  9  1  0
  9 10  1  0
 10 11  2  0
 11 12  1  0
 12 13  2  0
 13 14  1  0
 14 15  2  0
 15 10  1  0
  1 16  1  0
  1 17  1  0
  1 18  1  0
  2 19  1  0
  2 20  1  0
  6 21  1  0
  6 22  1  0
  7 23  1  0
  7 24  1  0
  8 25  1  0
  8 26  1  0
 11 27  1  0
 12 28  1  0
 13 29  1  0
 14 30  1  0
 15 31  1  0
M  END
>  <UniqueID>  (76) 
67

>  <SMILES>  (76) 
CCOC(=O)CCCOc1ccccc1

>  <Energy>  (76) 
18.578906869985158

>  <Genealogy>  (76) 
CCOC(=O)CCCOc1ccccc1 (3D coordinates assigned)
CCOC(=O)CCCOc1ccccc1 (optimized conformer: 18.578906869985158 kcal/mol)

>  <smiles>  (76) 
CCOC(=O)CCCOc1ccccc1

>  <score_type>  (76) 
oracle

>  <origin>  (76) 
adg

>  <m_score__min__energy>  (76) 
-5.6200000000000001

>  <m_primary>  (76) 
energy

$$$$
76:0
     RDKit          3D

 50 52  0  0  0  0  0  0  0  0999 V2000
   55.4030   23.7300   46.1680 C   0  0  0  0  0  0  0  0  0  0  0  0
   56.2560   25.2910   46.1710 S   0  0  0  0  0  0  0  0  0  0  0  0
   56.9600   25.4990   47.4810 O   0  0  0  0  0  0  0  0  0  0  0  0
   55.2450   26.3890   45.9940 O   0  0  0  0  0  0  0  0  0  0  0  0
   57.3880   25.3650   44.8590 N   0  0  0  0  0  0  0  0  0  0  0  0
   57.7700   26.5350   44.1230 C   0  0  0  0  0  0  0  0  0  0  0  0
   57.8280   26.4500   42.8690 O   0  0  0  0  0  0  0  0  0  0  0  0
   58.0480   27.8610   44.7960 C   0  0  1  0  0  0  0  0  0  0  0  0
   56.5260   28.8990   44.9530 S   0  0  0  0  0  0  0  0  0  0  0  0
   57.0740   30.3820   44.0790 C   0  0  0  0  0  0  0  0  0  0  0  0
   56.9520   30.4460   42.6830 C   0  0  0  0  0  0  0  0  0  0  0  0
   57.3370   31.5970   41.9950 C   0  0  0  0  0  0  0  0  0  0  0  0
   57.8630   32.6850   42.6930 C   0  0  0  0  0  0  0  0  0  0  0  0
   58.0240   32.6170   44.0780 C   0  0  0  0  0  0  0  0  0  0  0  0
   57.6640   31.4510   44.7790 C   0  0  0  0  0  0  0  0  0  0  0  0
   57.8300   31.3590   46.2020 N   0  0  0  0  0  0  0  0  0  0  0  0
   59.0680   31.4220   46.9240 C   0  0  0  0  0  0  0  0  0  0  0  0
   60.1050   30.9610   46.3790 O   0  0  0  0  0  0  0  0  0  0  0  0
   59.1680   32.0600   48.2590 C   0  0  0  0  0  0  0  0  0  0  0  0
   58.8460   31.3460   49.4250 C   0  0  0  0  0  0  0  0  0  0  0  0
   58.9400   31.9560   50.6790 C   0  0  0  0  0  0  0  0  0  0  0  0
   59.3520   33.2970   50.7910 C   0  0  0  0  0  0  0  0  0  0  0  0
   59.4500   33.9290   52.0800 N   0  0  0  0  0  0  0  0  0  0  0  0
   58.4980   34.5940   52.5390 O   0  0  0  0  0  0  0  0  0  0  0  0
   60.5980   33.8110   52.8310 O   0  0  0  0  0  0  0  0  0  0  0  0
   59.6610   34.0130   49.6220 C   0  0  0  0  0  0  0  0  0  0  0  0
   59.5650   33.4030   48.3690 C   0  0  0  0  0  0  0  0  0  0  0  0
   58.8060   27.7150   46.1030 C   0  0  0  0  0  0  0  0  0  0  0  0
   59.9960   26.9640   46.1320 C   0  0  0  0  0  0  0  0  0  0  0  0
   60.7440   26.8600   47.3080 C   0  0  0  0  0  0  0  0  0  0  0  0
   60.3130   27.5050   48.4700 C   0  0  0  0  0  0  0  0  0  0  0  0
   61.0540   27.4260   49.6040 F   0  0  0  0  0  0  0  0  0  0  0  0
   59.1350   28.2530   48.4580 C   0  0  0  0  0  0  0  0  0  0  0  0
   58.3850   28.3630   47.2830 C   0  0  0  0  0  0  0  0  0  0  0  0
   55.2263   23.4067   47.2045 H   0  0  0  0  0  0  0  0  0  0  0  0
   54.4394   23.8397   45.6488 H   0  0  0  0  0  0  0  0  0  0  0  0
   56.0157   22.9783   45.6488 H   0  0  0  0  0  0  0  0  0  0  0  0
   58.7261   28.4105   44.1266 H   0  0  0  0  0  0  0  0  0  0  0  0
   56.5510   29.5849   42.1283 H   0  0  0  0  0  0  0  0  0  0  0  0
   57.2259   31.6470   40.9018 H   0  0  0  0  0  0  0  0  0  0  0  0
   58.1512   33.5977   42.1509 H   0  0  0  0  0  0  0  0  0  0  0  0
   58.4343   33.4792   44.6242 H   0  0  0  0  0  0  0  0  0  0  0  0
   58.5174   30.2989   49.3506 H   0  0  0  0  0  0  0  0  0  0  0  0
   58.6902   31.3839   51.5847 H   0  0  0  0  0  0  0  0  0  0  0  0
   59.9812   35.0629   49.6942 H   0  0  0  0  0  0  0  0  0  0  0  0
   59.8020   33.9784   47.4619 H   0  0  0  0  0  0  0  0  0  0  0  0
   60.3406   26.4540   45.2203 H   0  0  0  0  0  0  0  0  0  0  0  0
   61.6724   26.2701   47.3187 H   0  0  0  0  0  0  0  0  0  0  0  0
   58.7957   28.7572   49.3749 H   0  0  0  0  0  0  0  0  0  0  0  0
   57.4604   28.9589   47.2789 H   0  0  0  0  0  0  0  0  0  0  0  0
  1  2  1  0
  2  3  2  0
  2  4  2  0
  2  5  1  0
  5  6  1  0
  6  7  2  0
  6  8  1  0
  8  9  1  0
  9 10  1  0
 10 11  2  0
 11 12  1  0
 12 13  2  0
 13 14  1  0
 14 15  2  0
 15 16  1  0
 16 17  1  0
 17 18  2  0
 17 19  1  0
 19 20  2  0
 20 21  1  0
 21 22  2  0
 22 23  1  0
 23 24  2  0
 23 25  1  0
 22 26  1  0
 26 27  2  0
  8 28  1  0
 28 29  2  0
 29 30  1  0
 30 31  2  0
 31 32  1  0
 31 33  1  0
 33 34  2  0
 15 10  1  0
 27 19  1  0
 34 28  1  0
  1 35  1  0
  1 36  1  0
  1 37  1  0
  8 38  1  6
 11 39  1  0
 12 40  1  0
 13 41  1  0
 14 42  1  0
 20 43  1  0
 21 44  1  0
 26 45  1  0
 27 46  1  0
 29 47  1  0
 30 48  1  0
 33 49  1  0
 34 50  1  0
M  CHG  4   5  -1  16  -1  23   1  25  -1
M  END
>  <UniqueID>  (77) 
68

>  <SMILES>  (77) 
CS(=O)(=O)[N-]C(=O)[C@@H](Sc1ccccc1[N-]C(=O)c1ccc([N+](=O)[O-])cc1)c1ccc(F)cc1

>  <Energy>  (77) 
58.674477446461026

>  <Genealogy>  (77) 
CS(=O)(=O)[N-]C(=O)C(Sc1ccccc1[N-]C(=O)c1ccc([N+](=O)[O-])cc1)c1ccc(F)cc1 (protonated)
CS(=O)(=O)[N-]C(=O)[C@@H](Sc1ccccc1[N-]C(=O)c1ccc([N+](=O)[O-])cc1)c1ccc(F)cc1 (chirality)
CS(=O)(=O)[N-]C(=O)[C@@H](Sc1ccccc1[N-]C(=O)c1ccc([N+](=O)[O-])cc1)c1ccc(F)cc1 (3D coordinates assigned)
CS(=O)(=O)[N-]C(=O)[C@@H](Sc1ccccc1[N-]C(=O)c1ccc([N+](=O)[O-])cc1)c1ccc(F)cc1 (optimized conformer: 58.674477446461026 kcal/mol)

>  <smiles>  (77) 
CS(=O)(=O)NC(=O)C(Sc1ccccc1NC(=O)c1ccc([N+](=O)[O-])cc1)c1ccc(F)cc1

>  <score_type>  (77) 
oracle

>  <origin>  (77) 
adg

>  <m_score__min__energy>  (77) 
-12.039999999999999

>  <m_primary>  (77) 
energy

$$$$
77:0
     RDKit          3D

 27 28  0  0  0  0  0  0  0  0999 V2000
   55.9090   30.3980   44.6760 O   0  0  0  0  0  0  0  0  0  0  0  0
   56.8240   29.7350   45.2350 C   0  0  0  0  0  0  0  0  0  0  0  0
   56.7340   28.3060   45.2490 N   0  0  0  0  0  0  0  0  0  0  0  0
   57.7750   27.3990   45.6420 C   0  0  0  0  0  0  0  0  0  0  0  0
   59.1280   27.7910   45.6330 C   0  0  0  0  0  0  0  0  0  0  0  0
   60.1280   26.8830   45.9910 C   0  0  0  0  0  0  0  0  0  0  0  0
   59.7910   25.5750   46.3470 C   0  0  0  0  0  0  0  0  0  0  0  0
   58.4540   25.1690   46.3350 C   0  0  0  0  0  0  0  0  0  0  0  0
   57.4470   26.0730   45.9750 C   0  0  0  0  0  0  0  0  0  0  0  0
   55.7750   25.5300   45.9650 Cl  0  0  0  0  0  0  0  0  0  0  0  0
   57.8900   30.4140   45.9150 N   0  0  0  0  0  0  0  0  0  0  0  0
   58.0970   31.8280   45.8040 C   0  0  0  0  0  0  0  0  0  0  0  0
   57.7580   32.4740   44.6050 C   0  0  0  0  0  0  0  0  0  0  0  0
   57.9510   33.8500   44.4630 C   0  0  0  0  0  0  0  0  0  0  0  0
   58.4680   34.5960   45.5250 C   0  0  0  0  0  0  0  0  0  0  0  0
   58.7830   33.9690   46.7320 C   0  0  0  0  0  0  0  0  0  0  0  0
   58.5940   32.5890   46.8840 C   0  0  0  0  0  0  0  0  0  0  0  0
   58.9380   31.8120   48.6030 Br  0  0  0  0  0  0  0  0  0  0  0  0
   59.3987   28.8169   45.3427 H   0  0  0  0  0  0  0  0  0  0  0  0
   61.1817   27.1986   45.9925 H   0  0  0  0  0  0  0  0  0  0  0  0
   60.5787   24.8641   46.6370 H   0  0  0  0  0  0  0  0  0  0  0  0
   58.1918   24.1365   46.6091 H   0  0  0  0  0  0  0  0  0  0  0  0
   58.3860   29.9050   46.6820 H   0  0  0  0  0  0  0  0  0  0  0  0
   57.3374   31.8926   43.7713 H   0  0  0  0  0  0  0  0  0  0  0  0
   57.6959   34.3463   43.5150 H   0  0  0  0  0  0  0  0  0  0  0  0
   58.6270   35.6784   45.4101 H   0  0  0  0  0  0  0  0  0  0  0  0
   59.1818   34.5618   47.5684 H   0  0  0  0  0  0  0  0  0  0  0  0
  1  2  2  0
  2  3  1  0
  3  4  1  0
  4  5  2  0
  5  6  1  0
  6  7  2  0
  7  8  1  0
  8  9  2  0
  9 10  1  0
  2 11  1  0
 11 12  1  0
 12 13  2  0
 13 14  1  0
 14 15  2  0
 15 16  1  0
 16 17  2  0
 17 18  1  0
  9  4  1  0
 17 12  1  0
  5 19  1  0
  6 20  1  0
  7 21  1  0
  8 22  1  0
 11 23  1  0
 13 24  1  0
 14 25  1  0
 15 26  1  0
 16 27  1  0
M  CHG  1   3  -1
M  END
>  <UniqueID>  (78) 
69

>  <SMILES>  (78) 
O=C([N-]c1ccccc1Cl)Nc1ccccc1Br

>  <Energy>  (78) 
37.88643392857618

>  <Genealogy>  (78) 
O=C([N-]c1ccccc1Cl)Nc1ccccc1Br (protonated)
O=C([N-]c1ccccc1Cl)Nc1ccccc1Br (3D coordinates assigned)
O=C([N-]c1ccccc1Cl)Nc1ccccc1Br (optimized conformer: 37.88643392857618 kcal/mol)

>  <smiles>  (78) 
O=C(Nc1ccccc1Cl)Nc1ccccc1Br

>  <score_type>  (78) 
oracle

>  <origin>  (78) 
adg

>  <m_score__min__energy>  (78) 
-8.9700000000000006

>  <m_primary>  (78) 
energy

$$$$
78:0
     RDKit          3D

 16 16  0  0  0  0  0  0  0  0999 V2000
   54.7410   27.4780   46.3750 H   0  0  0  0  0  0  0  0  0  0  0  0
   54.7870   26.4910   46.1540 O   0  0  0  0  0  0  0  0  0  0  0  0
   56.0060   25.8580   46.0760 N   0  0  0  0  0  0  0  0  0  0  0  0
   57.1070   26.4150   46.4800 C   0  0  0  0  0  0  0  0  0  0  0  0
   57.6043   26.0099   47.3736 H   0  0  0  0  0  0  0  0  0  0  0  0
   57.7210   27.5690   45.7920 C   0  0  0  0  0  0  0  0  0  0  0  0
   59.1180   27.6160   45.6660 C   0  0  0  0  0  0  0  0  0  0  0  0
   59.7318   26.8048   46.0846 H   0  0  0  0  0  0  0  0  0  0  0  0
   59.7350   28.6870   45.0120 C   0  0  0  0  0  0  0  0  0  0  0  0
   61.0860   28.7310   44.9090 F   0  0  0  0  0  0  0  0  0  0  0  0
   58.9600   29.7110   44.4650 C   0  0  0  0  0  0  0  0  0  0  0  0
   59.4470   30.5587   43.9607 H   0  0  0  0  0  0  0  0  0  0  0  0
   57.5660   29.6610   44.5570 C   0  0  0  0  0  0  0  0  0  0  0  0
   56.9580   30.4659   44.1184 H   0  0  0  0  0  0  0  0  0  0  0  0
   56.9420   28.5890   45.2060 C   0  0  0  0  0  0  0  0  0  0  0  0
   55.5530   28.5310   45.2320 O   0  0  0  0  0  0  0  0  0  0  0  0
  1  2  1  0
  2  3  1  0
  3  4  2  0
  4  5  1  0
  4  6  1  0
  6  7  2  0
  7  8  1  0
  7  9  1  0
  9 10  1  0
  9 11  2  0
 11 12  1  0
 11 13  1  0
 13 14  1  0
 13 15  2  0
 15 16  1  0
 15  6  1  0
M  CHG  1  16  -1
M  END
>  <UniqueID>  (79) 
70

>  <SMILES>  (79) 
[O-]c1ccc(F)cc1/C=N\O

>  <Energy>  (79) 
20.3896617332482

>  <Genealogy>  (79) 
[O-]c1ccc(F)cc1C=NO (protonated)
[O-]c1ccc(F)cc1/C=N\O (cis-trans isomerization)
[O-]c1ccc(F)cc1/C=N\O (3D coordinates assigned)
[O-]c1ccc(F)cc1/C=N\O (optimized conformer: 20.3896617332482 kcal/mol)

>  <smiles>  (79) 
ON=Cc1cc(F)ccc1O

>  <score_type>  (79) 
oracle

>  <origin>  (79) 
adg

>  <m_score__min__energy>  (79) 
-9.2699999999999996

>  <m_primary>  (79) 
energy

$$$$
79:0
     RDKit          3D

 30 32  0  0  0  0  0  0  0  0999 V2000
   57.8570   31.9640   43.0920 C   0  0  0  0  0  0  0  0  0  0  0  0
   58.3030   31.5780   44.4740 C   0  0  0  0  0  0  0  0  0  0  0  0
   58.5350   32.5450   45.3140 N   0  0  0  0  0  0  0  0  0  0  0  0
   59.0720   32.4590   46.6390 C   0  0  0  0  0  0  0  0  0  0  0  0
   58.6700   33.4180   47.5790 C   0  0  0  0  0  0  0  0  0  0  0  0
   59.2660   33.4700   48.8420 C   0  0  0  0  0  0  0  0  0  0  0  0
   60.2940   32.5830   49.1640 C   0  0  0  0  0  0  0  0  0  0  0  0
   60.7240   31.6420   48.2260 C   0  0  0  0  0  0  0  0  0  0  0  0
   60.1150   31.5680   46.9630 C   0  0  0  0  0  0  0  0  0  0  0  0
   60.5770   30.5940   46.0220 N   0  0  0  0  0  0  0  0  0  0  0  0
   59.6450   29.6800   45.4330 C   0  0  0  0  0  0  0  0  0  0  0  0
   59.9130   28.3060   45.5060 C   0  0  0  0  0  0  0  0  0  0  0  0
   58.9880   27.3800   45.0320 C   0  0  0  0  0  0  0  0  0  0  0  0
   57.7730   27.8130   44.5110 C   0  0  0  0  0  0  0  0  0  0  0  0
   57.4800   29.1840   44.4210 C   0  0  0  0  0  0  0  0  0  0  0  0
   56.1760   29.5910   43.9750 N   0  0  0  0  0  0  0  0  0  0  0  0
   55.9260   29.6780   42.7540 O   0  0  0  0  0  0  0  0  0  0  0  0
   55.1390   29.6860   44.8750 O   0  0  0  0  0  0  0  0  0  0  0  0
   58.4530   30.1370   44.8300 C   0  0  0  0  0  0  0  0  0  0  0  0
   57.0269   32.6824   43.1619 H   0  0  0  0  0  0  0  0  0  0  0  0
   58.6965   32.4252   42.5512 H   0  0  0  0  0  0  0  0  0  0  0  0
   57.5210   31.0670   42.5512 H   0  0  0  0  0  0  0  0  0  0  0  0
   57.8781   34.1363   47.3201 H   0  0  0  0  0  0  0  0  0  0  0  0
   58.9251   34.2094   49.5816 H   0  0  0  0  0  0  0  0  0  0  0  0
   60.7657   32.6250   50.1568 H   0  0  0  0  0  0  0  0  0  0  0  0
   61.5449   30.9545   48.4782 H   0  0  0  0  0  0  0  0  0  0  0  0
   61.5720   30.2810   46.1030 H   0  0  0  0  0  0  0  0  0  0  0  0
   60.8611   27.9570   45.9410 H   0  0  0  0  0  0  0  0  0  0  0  0
   59.2180   26.3050   45.0695 H   0  0  0  0  0  0  0  0  0  0  0  0
   57.0343   27.0745   44.1661 H   0  0  0  0  0  0  0  0  0  0  0  0
  1  2  1  0
  2  3  2  0
  3  4  1  0
  4  5  2  0
  5  6  1  0
  6  7  2  0
  7  8  1  0
  8  9  2  0
  9 10  1  0
 10 11  1  0
 11 12  2  0
 12 13  1  0
 13 14  2  0
 14 15  1  0
 15 16  1  0
 16 17  2  0
 16 18  1  0
 15 19  2  0
 19  2  1  0
  9  4  1  0
 19 11  1  0
  1 20  1  0
  1 21  1  0
  1 22  1  0
  5 23  1  0
  6 24  1  0
  7 25  1  0
  8 26  1  0
 10 27  1  0
 12 28  1  0
 13 29  1  0
 14 30  1  0
M  CHG  2  16   1  18  -1
M  END
>  <UniqueID>  (80) 
71

>  <SMILES>  (80) 
CC1=Nc2ccccc2Nc2cccc([N+](=O)[O-])c21

>  <Energy>  (80) 
59.95610510899658

>  <Genealogy>  (80) 
CC1=Nc2ccccc2Nc2cccc([N+](=O)[O-])c21 (3D coordinates assigned)
CC1=Nc2ccccc2Nc2cccc([N+](=O)[O-])c21 (nonaromatic ring conformer: 59.95610510899658 kcal/mol)

>  <smiles>  (80) 
CC1=Nc2ccccc2Nc2cccc([N+](=O)[O-])c21

>  <score_type>  (80) 
oracle

>  <origin>  (80) 
adg

>  <m_score__min__energy>  (80) 
-7.04

>  <m_primary>  (80) 
energy

$$$$
80:0
     RDKit          3D

 31 33  0  0  0  0  0  0  0  0999 V2000
   54.7580   30.4140   45.3990 H   0  0  0  0  0  0  0  0  0  0  0  0
   55.1780   29.6720   44.7950 N   0  0  0  0  0  0  0  0  0  0  0  0
   56.2980   29.1010   45.1040 C   0  0  0  0  0  0  0  0  0  0  0  0
   56.3120   27.7830   45.4770 N   0  0  0  0  0  0  0  0  0  0  0  0
   57.5030   27.2220   45.7890 C   0  0  0  0  0  0  0  0  0  0  0  0
   58.6650   27.9100   45.7590 C   0  0  0  0  0  0  0  0  0  0  0  0
   59.6900   27.1310   46.1490 N   0  0  0  0  0  0  0  0  0  0  0  0
   59.0780   25.9420   46.4110 C   0  0  0  0  0  0  0  0  0  0  0  0
   59.6154   25.0512   46.7682 H   0  0  0  0  0  0  0  0  0  0  0  0
   57.7370   25.9660   46.1870 N   0  0  0  0  0  0  0  0  0  0  0  0
   56.7580   24.9100   46.4550 C   0  0  1  0  0  0  0  0  0  0  0  0
   56.8740   24.5786   47.4975 H   0  0  0  0  0  0  0  0  0  0  0  0
   55.4510   25.4120   46.2590 O   0  0  0  0  0  0  0  0  0  0  0  0
   54.8310   24.6480   45.2470 C   0  0  2  0  0  0  0  0  0  0  0  0
   54.3082   25.2715   44.5067 H   0  0  0  0  0  0  0  0  0  0  0  0
   53.7590   23.7490   45.8940 C   0  0  0  0  0  0  0  0  0  0  0  0
   54.2445   23.0676   46.6082 H   0  0  0  0  0  0  0  0  0  0  0  0
   53.0283   24.3904   46.4084 H   0  0  0  0  0  0  0  0  0  0  0  0
   53.0840   22.9920   44.9240 O   0  0  0  0  0  0  0  0  0  0  0  0
   53.5480   22.1160   44.8740 H   0  0  0  0  0  0  0  0  0  0  0  0
   55.9210   23.8800   44.4950 C   0  0  2  0  0  0  0  0  0  0  0  0
   56.2586   24.4082   43.5911 H   0  0  0  0  0  0  0  0  0  0  0  0
   55.4810   22.6400   44.0070 O   0  0  0  0  0  0  0  0  0  0  0  0
   55.0850   22.1580   44.7790 H   0  0  0  0  0  0  0  0  0  0  0  0
   56.9910   23.7200   45.5340 C   0  0  0  0  0  0  0  0  0  0  0  0
   57.9920   23.7621   45.0798 H   0  0  0  0  0  0  0  0  0  0  0  0
   56.9455   22.7531   46.0565 H   0  0  0  0  0  0  0  0  0  0  0  0
   58.6660   29.2470   45.3860 C   0  0  0  0  0  0  0  0  0  0  0  0
   59.7350   29.9130   45.3530 O   0  0  0  0  0  0  0  0  0  0  0  0
   57.4690   29.8220   45.0590 N   0  0  0  0  0  0  0  0  0  0  0  0
   57.4460   30.8280   44.7750 H   0  0  0  0  0  0  0  0  0  0  0  0
  1  2  1  0
  2  3  2  0
  3  4  1  0
  4  5  1  0
  5  6  2  0
  6  7  1  0
  7  8  2  0
  8  9  1  0
  8 10  1  0
 10 11  1  0
 11 12  1  1
 11 13  1  0
 13 14  1  0
 14 15  1  6
 14 16  1  0
 16 17  1  0
 16 18  1  0
 16 19  1  0
 19 20  1  0
 14 21  1  0
 21 22  1  6
 21 23  1  0
 23 24  1  0
 21 25  1  0
 25 26  1  0
 25 27  1  0
  6 28  1  0
 28 29  2  0
 28 30  1  0
 30 31  1  0
 30  3  1  0
 10  5  1  0
 25 11  1  0
M  CHG  1   4  -1
M  END
>  <UniqueID>  (81) 
72

>  <SMILES>  (81) 
[H]/N=c1\[n-]c2c(ncn2[C@@H]2C[C@@H](O)C(CO)O2)c(=O)[nH]1

>  <Energy>  (81) 
73.98642682043308

>  <Genealogy>  (81) 
N=c1[n-]c2c(ncn2C2CC(O)C(CO)O2)c(=O)[nH]1 (protonated)
N=c1[n-]c2c(ncn2[C@@H]2C[C@@H](O)C(CO)O2)c(=O)[nH]1 (chirality)
[H]/N=c1\[n-]c2c(ncn2[C@@H]2C[C@@H](O)C(CO)O2)c(=O)[nH]1 (cis-trans isomerization)
[H]/N=c1\[n-]c2c(ncn2[C@@H]2C[C@@H](O)C(CO)O2)c(=O)[nH]1 (3D coordinates assigned)
[H]/N=c1\[n-]c2c(ncn2[C@@H]2C[C@@H](O)C(CO)O2)c(=O)[nH]1 (nonaromatic ring conformer: 73.98642682043308 kcal/mol)

>  <smiles>  (81) 
N=c1[nH]c(=O)c2ncn(C3CC(O)C(CO)O3)c2[nH]1

>  <score_type>  (81) 
oracle

>  <origin>  (81) 
adg

>  <m_score__min__energy>  (81) 
-7.4500000000000002

>  <m_primary>  (81) 
energy

$$$$
81:0
     RDKit          3D

 43 45  0  0  0  0  0  0  0  0999 V2000
   66.8780   31.1180   50.8780 C   0  0  0  0  0  0  0  0  0  0  0  0
   65.4930   31.7350   50.6920 C   0  0  0  0  0  0  0  0  0  0  0  0
   65.5150   32.9450   49.7480 C   0  0  0  0  0  0  0  0  0  0  0  0
   64.1570   33.3380   49.3480 N   0  0  0  0  0  0  0  0  0  0  0  0
   63.8110   33.3480   48.0240 C   0  0  0  0  0  0  0  0  0  0  0  0
   62.5280   33.7350   47.6270 C   0  0  0  0  0  0  0  0  0  0  0  0
   61.5840   34.1020   48.5920 C   0  0  0  0  0  0  0  0  0  0  0  0
   60.2750   34.5270   48.1770 N   0  0  0  0  0  0  0  0  0  0  0  0
   59.6170   34.0830   46.9780 C   0  0  0  0  0  0  0  0  0  0  0  0
   59.1440   35.0000   46.0240 C   0  0  0  0  0  0  0  0  0  0  0  0
   58.4880   34.5480   44.8780 C   0  0  0  0  0  0  0  0  0  0  0  0
   58.2840   33.1810   44.6780 C   0  0  0  0  0  0  0  0  0  0  0  0
   58.7280   32.2470   45.6310 C   0  0  0  0  0  0  0  0  0  0  0  0
   58.5010   30.7940   45.4260 C   0  0  0  0  0  0  0  0  0  0  0  0
   57.3300   30.3350   44.7930 C   0  0  0  0  0  0  0  0  0  0  0  0
   57.1190   28.9660   44.6000 C   0  0  0  0  0  0  0  0  0  0  0  0
   58.0720   28.0410   45.0360 C   0  0  0  0  0  0  0  0  0  0  0  0
   57.7800   26.1720   44.7710 Br  0  0  0  0  0  0  0  0  0  0  0  0
   59.2380   28.4860   45.6650 C   0  0  0  0  0  0  0  0  0  0  0  0
   59.4530   29.8530   45.8600 C   0  0  0  0  0  0  0  0  0  0  0  0
   59.3880   32.7130   46.7840 C   0  0  0  0  0  0  0  0  0  0  0  0
   61.9630   34.1110   49.9410 C   0  0  0  0  0  0  0  0  0  0  0  0
   63.2550   33.7200   50.3010 C   0  0  0  0  0  0  0  0  0  0  0  0
   67.0951   31.0213   51.9520 H   0  0  0  0  0  0  0  0  0  0  0  0
   66.9026   30.1238   50.4080 H   0  0  0  0  0  0  0  0  0  0  0  0
   67.6336   31.7646   50.4080 H   0  0  0  0  0  0  0  0  0  0  0  0
   64.8196   30.9725   50.2737 H   0  0  0  0  0  0  0  0  0  0  0  0
   65.1452   32.0828   51.6759 H   0  0  0  0  0  0  0  0  0  0  0  0
   65.9957   33.7908   50.2615 H   0  0  0  0  0  0  0  0  0  0  0  0
   66.0757   32.6678   48.8431 H   0  0  0  0  0  0  0  0  0  0  0  0
   64.5493   33.0488   47.2654 H   0  0  0  0  0  0  0  0  0  0  0  0
   62.2615   33.7509   46.5599 H   0  0  0  0  0  0  0  0  0  0  0  0
   59.7650   35.2040   48.7900 H   0  0  0  0  0  0  0  0  0  0  0  0
   59.2914   36.0787   46.1811 H   0  0  0  0  0  0  0  0  0  0  0  0
   58.1305   35.2709   44.1299 H   0  0  0  0  0  0  0  0  0  0  0  0
   57.7725   32.8324   43.7687 H   0  0  0  0  0  0  0  0  0  0  0  0
   56.5762   31.0580   44.4480 H   0  0  0  0  0  0  0  0  0  0  0  0
   56.2014   28.6165   44.1042 H   0  0  0  0  0  0  0  0  0  0  0  0
   59.9885   27.7583   46.0075 H   0  0  0  0  0  0  0  0  0  0  0  0
   60.3729   30.1958   46.3562 H   0  0  0  0  0  0  0  0  0  0  0  0
   59.7286   31.9930   47.5427 H   0  0  0  0  0  0  0  0  0  0  0  0
   61.2458   34.4248   50.7138 H   0  0  0  0  0  0  0  0  0  0  0  0
   63.5489   33.7196   51.3610 H   0  0  0  0  0  0  0  0  0  0  0  0
  1  2  1  0
  2  3  1  0
  3  4  1  0
  4  5  2  0
  5  6  1  0
  6  7  2  0
  7  8  1  0
  8  9  1  0
  9 10  2  0
 10 11  1  0
 11 12  2  0
 12 13  1  0
 13 14  1  0
 14 15  2  0
 15 16  1  0
 16 17  2  0
 17 18  1  0
 17 19  1  0
 19 20  2  0
 13 21  2  0
  7 22  1  0
 22 23  2  0
 23  4  1  0
 21  9  1  0
 20 14  1  0
  1 24  1  0
  1 25  1  0
  1 26  1  0
  2 27  1  0
  2 28  1  0
  3 29  1  0
  3 30  1  0
  5 31  1  0
  6 32  1  0
  8 33  1  0
 10 34  1  0
 11 35  1  0
 12 36  1  0
 15 37  1  0
 16 38  1  0
 19 39  1  0
 20 40  1  0
 21 41  1  0
 22 42  1  0
 23 43  1  0
M  CHG  1   4   1
M  END
>  <UniqueID>  (82) 
73

>  <SMILES>  (82) 
CCC[n+]1ccc(Nc2cccc(-c3ccc(Br)cc3)c2)cc1

>  <Energy>  (82) 
51.6683986049805

>  <Genealogy>  (82) 
CCC[n+]1ccc(Nc2cccc(-c3ccc(Br)cc3)c2)cc1 (3D coordinates assigned)
CCC[n+]1ccc(Nc2cccc(-c3ccc(Br)cc3)c2)cc1 (optimized conformer: 51.6683986049805 kcal/mol)

>  <smiles>  (82) 
CCC[n+]1ccc(Nc2cccc(-c3ccc(Br)cc3)c2)cc1

>  <score_type>  (82) 
oracle

>  <origin>  (82) 
adg

>  <m_score__min__energy>  (82) 
-6.6600000000000001

>  <m_primary>  (82) 
energy

$$$$
82:0
     RDKit          3D

 49 53  0  0  1  0  0  0  0  0999 V2000
   63.0870   31.4670   47.1840 C   0  0  0  0  0  0  0  0  0  0  0  0
   63.7760   32.7130   47.4540 N   0  0  0  0  0  0  0  0  0  0  0  0
   63.7690   33.0000   48.8680 C   0  0  0  0  0  0  0  0  0  0  0  0
   62.6390   33.8780   49.3200 C   0  0  0  0  0  0  0  0  0  0  0  0
   61.4960   33.9030   48.3740 C   0  0  0  0  0  0  0  0  0  0  0  0
   60.1870   33.9660   48.7950 C   0  0  0  0  0  0  0  0  0  0  0  0
   59.1760   33.9840   47.8340 C   0  0  0  0  0  0  0  0  0  0  0  0
   59.4730   33.9410   46.4870 C   0  0  0  0  0  0  0  0  0  0  0  0
   58.4760   33.9570   45.4710 N   0  0  0  0  0  0  0  0  0  0  0  0
   58.0620   32.9250   44.8340 C   0  0  0  0  0  0  0  0  0  0  0  0
   57.9750   32.9830   43.4900 N   0  0  0  0  0  0  0  0  0  0  0  0
   57.5360   31.8800   42.8590 C   0  0  0  0  0  0  0  0  0  0  0  0
   57.1880   30.7400   43.5290 C   0  0  0  0  0  0  0  0  0  0  0  0
   56.6290   29.3440   42.6770 Cl  0  0  0  0  0  0  0  0  0  0  0  0
   57.2950   30.7350   44.8950 C   0  0  0  0  0  0  0  0  0  0  0  0
   56.9910   29.7170   45.5800 N   0  0  0  0  0  0  0  0  0  0  0  0
   57.8920   28.7870   46.1290 C   0  0  0  0  0  0  0  0  0  0  0  0
   57.9920   27.4710   45.6570 C   0  0  0  0  0  0  0  0  0  0  0  0
   58.9150   26.5910   46.2180 C   0  0  0  0  0  0  0  0  0  0  0  0
   59.7290   27.0460   47.2490 C   0  0  0  0  0  0  0  0  0  0  0  0
   59.6510   28.3420   47.7330 C   0  0  0  0  0  0  0  0  0  0  0  0
   58.7250   29.2250   47.1700 C   0  0  0  0  0  0  0  0  0  0  0  0
   58.8620   30.4370   47.8370 O   0  0  0  0  0  0  0  0  0  0  0  0
   60.1330   30.4610   48.4980 C   0  0  0  0  0  0  0  0  0  0  0  0
   60.3180   29.0620   48.7270 O   0  0  0  0  0  0  0  0  0  0  0  0
   57.7340   31.8340   45.5460 N   0  0  0  0  0  0  0  0  0  0  0  0
   60.7910   33.8770   46.0490 C   0  0  0  0  0  0  0  0  0  0  0  0
   61.7700   33.8590   47.0060 C   0  0  0  0  0  0  0  0  0  0  0  0
   63.2330   33.7930   46.6600 C   0  0  0  0  0  0  0  0  0  0  0  0
   62.8192   30.9827   48.1346 H   0  0  0  0  0  0  0  0  0  0  0  0
   62.1734   31.6709   46.6062 H   0  0  0  0  0  0  0  0  0  0  0  0
   63.7454   30.8017   46.6062 H   0  0  0  0  0  0  0  0  0  0  0  0
   63.7014   32.0461   49.4117 H   0  0  0  0  0  0  0  0  0  0  0  0
   64.6970   33.5514   49.0796 H   0  0  0  0  0  0  0  0  0  0  0  0
   62.2789   33.5098   50.2920 H   0  0  0  0  0  0  0  0  0  0  0  0
   63.0306   34.9040   49.3826 H   0  0  0  0  0  0  0  0  0  0  0  0
   59.9432   34.0014   49.8671 H   0  0  0  0  0  0  0  0  0  0  0  0
   58.1251   34.0333   48.1551 H   0  0  0  0  0  0  0  0  0  0  0  0
   58.2420   33.8540   42.9840 H   0  0  0  0  0  0  0  0  0  0  0  0
   57.4537   31.8952   41.7622 H   0  0  0  0  0  0  0  0  0  0  0  0
   57.3387   27.1314   44.8398 H   0  0  0  0  0  0  0  0  0  0  0  0
   58.9980   25.5568   45.8524 H   0  0  0  0  0  0  0  0  0  0  0  0
   60.4589   26.3545   47.6952 H   0  0  0  0  0  0  0  0  0  0  0  0
   60.9211   30.8772   47.8532 H   0  0  0  0  0  0  0  0  0  0  0  0
   60.1750   31.0885   49.4005 H   0  0  0  0  0  0  0  0  0  0  0  0
   57.8200   31.8440   46.5860 H   0  0  0  0  0  0  0  0  0  0  0  0
   61.0372   33.8422   44.9775 H   0  0  0  0  0  0  0  0  0  0  0  0
   63.3643   33.5842   45.5880 H   0  0  0  0  0  0  0  0  0  0  0  0
   63.7423   34.7454   46.8687 H   0  0  0  0  0  0  0  0  0  0  0  0
  1  2  1  0
  2  3  1  0
  3  4  1  0
  4  5  1  0
  5  6  2  0
  6  7  1  0
  7  8  2  0
  8  9  1  0
  9 10  2  0
 10 11  1  0
 11 12  1  0
 12 13  2  0
 13 14  1  0
 13 15  1  0
 15 16  2  0
 16 17  1  0
 17 18  2  0
 18 19  1  0
 19 20  2  0
 20 21  1  0
 21 22  2  0
 22 23  1  0
 23 24  1  0
 24 25  1  0
 15 26  1  0
  8 27  1  0
 27 28  2  0
 28 29  1  0
 29  2  1  0
 28  5  1  0
 26 10  1  0
 22 17  1  0
 25 21  1  0
  1 30  1  0
  1 31  1  0
  1 32  1  0
  3 33  1  0
  3 34  1  0
  4 35  1  0
  4 36  1  0
  6 37  1  0
  7 38  1  0
 11 39  1  0
 12 40  1  0
 18 41  1  0
 19 42  1  0
 20 43  1  0
 24 44  1  0
 24 45  1  0
 26 46  1  0
 27 47  1  0
 29 48  1  0
 29 49  1  0
M  END
>  <smiles>  (83) 
CN1CCc2ccc(N=c3[nH]cc(Cl)c(=Nc4cccc5c4OCO5)[nH]3)cc2C1

>  <score_type>  (83) 
oracle

>  <origin>  (83) 
adg

>  <m_score__min__energy>  (83) 
-9.1999999999999993

>  <m_primary>  (83) 
energy

$$$$
83:0
     RDKit          3D

 35 36  0  0  0  0  0  0  0  0999 V2000
   61.1163   26.2416   45.8881 H   0  0  0  0  0  0  0  0  0  0  0  0
   60.4260   27.0890   46.0120 C   0  0  0  0  0  0  0  0  0  0  0  0
   60.6140   28.2580   45.2710 C   0  0  0  0  0  0  0  0  0  0  0  0
   61.4570   28.3332   44.5684 H   0  0  0  0  0  0  0  0  0  0  0  0
   59.7320   29.3330   45.4210 C   0  0  0  0  0  0  0  0  0  0  0  0
   59.8893   30.2544   44.8412 H   0  0  0  0  0  0  0  0  0  0  0  0
   58.6500   29.2430   46.3050 C   0  0  0  0  0  0  0  0  0  0  0  0
   57.7950   30.3470   46.4380 O   0  0  0  0  0  0  0  0  0  0  0  0
   58.0660   31.6400   45.9660 C   0  0  0  0  0  0  0  0  0  0  0  0
   57.5040   32.0770   44.7460 C   0  0  0  0  0  0  0  0  0  0  0  0
   56.6730   31.2140   43.9400 N   0  0  0  0  0  0  0  0  0  0  0  0
   56.8660   31.1230   42.7100 O   0  0  0  0  0  0  0  0  0  0  0  0
   55.6780   30.4490   44.5030 O   0  0  0  0  0  0  0  0  0  0  0  0
   57.7800   33.3840   44.3170 C   0  0  0  0  0  0  0  0  0  0  0  0
   57.3547   33.7488   43.3704 H   0  0  0  0  0  0  0  0  0  0  0  0
   58.5880   34.2230   45.0800 C   0  0  0  0  0  0  0  0  0  0  0  0
   58.8099   35.2423   44.7310 H   0  0  0  0  0  0  0  0  0  0  0  0
   59.1150   33.7670   46.2880 C   0  0  0  0  0  0  0  0  0  0  0  0
   59.8640   34.5740   46.9870 N   0  0  0  0  0  0  0  0  0  0  0  0
   61.0730   34.2070   47.7200 C   0  0  0  0  0  0  0  0  0  0  0  0
   60.8523   33.3576   48.3832 H   0  0  0  0  0  0  0  0  0  0  0  0
   61.4087   35.0695   48.3145 H   0  0  0  0  0  0  0  0  0  0  0  0
   62.1820   33.8110   46.7430 C   0  0  0  0  0  0  0  0  0  0  0  0
   62.7250   34.7169   46.4357 H   0  0  0  0  0  0  0  0  0  0  0  0
   61.7138   33.3162   45.8793 H   0  0  0  0  0  0  0  0  0  0  0  0
   63.1730   32.8300   47.3700 C   0  0  0  0  0  0  0  0  0  0  0  0
   63.1084   32.8939   48.4662 H   0  0  0  0  0  0  0  0  0  0  0  0
   62.9299   31.8068   47.0474 H   0  0  0  0  0  0  0  0  0  0  0  0
   64.1936   33.0834   47.0474 H   0  0  0  0  0  0  0  0  0  0  0  0
   58.8340   32.4950   46.7080 N   0  0  0  0  0  0  0  0  0  0  0  0
   59.1820   32.1610   47.6330 H   0  0  0  0  0  0  0  0  0  0  0  0
   58.4760   28.0700   47.0640 C   0  0  0  0  0  0  0  0  0  0  0  0
   57.6431   27.9973   47.7788 H   0  0  0  0  0  0  0  0  0  0  0  0
   59.3600   26.9970   46.9110 C   0  0  0  0  0  0  0  0  0  0  0  0
   59.2159   26.0789   47.4995 H   0  0  0  0  0  0  0  0  0  0  0  0
  1  2  1  0
  2  3  2  0
  3  4  1  0
  3  5  1  0
  5  6  1  0
  5  7  2  0
  7  8  1  0
  8  9  1  0
  9 10  2  0
 10 11  1  0
 11 12  2  0
 11 13  1  0
 10 14  1  0
 14 15  1  0
 14 16  2  0
 16 17  1  0
 16 18  1  0
 18 19  2  0
 19 20  1  0
 20 21  1  0
 20 22  1  0
 20 23  1  0
 23 24  1  0
 23 25  1  0
 23 26  1  0
 26 27  1  0
 26 28  1  0
 26 29  1  0
 18 30  1  0
 30 31  1  0
  7 32  1  0
 32 33  1  0
 32 34  2  0
 34 35  1  0
 34  2  1  0
 30  9  1  0
M  CHG  2  11   1  13  -1
M  END
>  <UniqueID>  (84) 
74

>  <SMILES>  (84) 
CCC/N=c1/ccc([N+](=O)[O-])c(Oc2ccccc2)[nH]1

>  <Energy>  (84) 
40.07396813835487

>  <Genealogy>  (84) 
CCC/N=c1/ccc([N+](=O)[O-])c(Oc2ccccc2)[nH]1 (cis-trans isomerization)
CCC/N=c1/ccc([N+](=O)[O-])c(Oc2ccccc2)[nH]1 (3D coordinates assigned)
CCC/N=c1/ccc([N+](=O)[O-])c(Oc2ccccc2)[nH]1 (optimized conformer: 40.07396813835487 kcal/mol)

>  <smiles>  (84) 
CCCN=c1ccc([N+](=O)[O-])c(Oc2ccccc2)[nH]1

>  <score_type>  (84) 
oracle

>  <origin>  (84) 
adg

>  <m_score__min__energy>  (84) 
-6.75

>  <m_primary>  (84) 
energy

$$$$
84:0
     RDKit          3D

 56 59  0  0  0  0  0  0  0  0999 V2000
   55.4350   29.2290   44.8810 O   0  0  0  0  0  0  0  0  0  0  0  0
   56.4640   29.8950   44.5870 C   0  0  0  0  0  0  0  0  0  0  0  0
   57.7100   29.1820   44.1420 C   0  0  0  0  0  0  0  0  0  0  0  0
   57.5710   27.7110   44.2500 N   0  0  0  0  0  0  0  0  0  0  0  0
   58.2240   27.2320   45.4970 C   0  0  0  0  0  0  0  0  0  0  0  0
   58.5690   25.7270   45.4700 C   0  0  0  0  0  0  0  0  0  0  0  0
   57.7690   25.0240   44.4600 N   0  0  0  0  0  0  0  0  0  0  0  0
   57.0650   23.8090   44.7840 C   0  0  0  0  0  0  0  0  0  0  0  0
   56.0120   23.8230   45.7180 C   0  0  0  0  0  0  0  0  0  0  0  0
   55.3220   22.6450   46.0230 C   0  0  0  0  0  0  0  0  0  0  0  0
   55.6700   21.4460   45.3960 C   0  0  0  0  0  0  0  0  0  0  0  0
   55.0000   20.3060   45.6920 F   0  0  0  0  0  0  0  0  0  0  0  0
   56.7070   21.4230   44.4590 C   0  0  0  0  0  0  0  0  0  0  0  0
   57.3990   22.5980   44.1500 C   0  0  0  0  0  0  0  0  0  0  0  0
   57.7650   25.5370   43.0850 C   0  0  0  0  0  0  0  0  0  0  0  0
   58.1320   27.0290   43.0610 C   0  0  0  0  0  0  0  0  0  0  0  0
   56.4490   31.3270   44.6320 N   0  0  0  0  0  0  0  0  0  0  0  0
   57.3970   32.1650   45.3090 C   0  0  0  0  0  0  0  0  0  0  0  0
   57.5190   33.5010   44.9090 C   0  0  0  0  0  0  0  0  0  0  0  0
   58.4430   34.3460   45.5290 C   0  0  0  0  0  0  0  0  0  0  0  0
   59.2800   33.8560   46.5440 C   0  0  0  0  0  0  0  0  0  0  0  0
   60.2510   34.7730   47.2370 C   0  0  0  0  0  0  0  0  0  0  0  0
   61.4790   34.0100   47.6520 C   0  0  0  0  0  0  0  0  0  0  0  0
   61.6020   33.5260   48.9660 C   0  0  0  0  0  0  0  0  0  0  0  0
   62.7300   32.7860   49.3410 C   0  0  0  0  0  0  0  0  0  0  0  0
   63.7350   32.5190   48.4070 C   0  0  0  0  0  0  0  0  0  0  0  0
   63.6130   32.9880   47.0960 C   0  0  0  0  0  0  0  0  0  0  0  0
   62.4880   33.7280   46.7170 C   0  0  0  0  0  0  0  0  0  0  0  0
   59.1710   32.5120   46.9360 C   0  0  0  0  0  0  0  0  0  0  0  0
   58.2440   31.6690   46.3160 C   0  0  0  0  0  0  0  0  0  0  0  0
   57.9149   29.4442   43.0935 H   0  0  0  0  0  0  0  0  0  0  0  0
   58.5359   29.4962   44.7971 H   0  0  0  0  0  0  0  0  0  0  0  0
   56.5480   27.4820   44.3170 H   0  0  0  0  0  0  0  0  0  0  0  0
   59.1543   27.8003   45.6438 H   0  0  0  0  0  0  0  0  0  0  0  0
   57.5083   27.3862   46.3180 H   0  0  0  0  0  0  0  0  0  0  0  0
   59.6361   25.6064   45.2320 H   0  0  0  0  0  0  0  0  0  0  0  0
   58.3445   25.2973   46.4574 H   0  0  0  0  0  0  0  0  0  0  0  0
   55.7302   24.7653   46.2107 H   0  0  0  0  0  0  0  0  0  0  0  0
   54.5038   22.6628   46.7580 H   0  0  0  0  0  0  0  0  0  0  0  0
   56.9791   20.4791   43.9640 H   0  0  0  0  0  0  0  0  0  0  0  0
   58.2095   22.5756   43.4067 H   0  0  0  0  0  0  0  0  0  0  0  0
   58.4982   24.9751   42.4878 H   0  0  0  0  0  0  0  0  0  0  0  0
   56.7560   25.4141   42.6646 H   0  0  0  0  0  0  0  0  0  0  0  0
   59.2269   27.1343   43.0642 H   0  0  0  0  0  0  0  0  0  0  0  0
   57.7142   27.4877   42.1527 H   0  0  0  0  0  0  0  0  0  0  0  0
   56.8823   33.8886   44.1001 H   0  0  0  0  0  0  0  0  0  0  0  0
   58.5149   35.3994   45.2206 H   0  0  0  0  0  0  0  0  0  0  0  0
   60.5405   35.5820   46.5501 H   0  0  0  0  0  0  0  0  0  0  0  0
   59.7705   35.1948   48.1321 H   0  0  0  0  0  0  0  0  0  0  0  0
   60.8099   33.7292   49.7017 H   0  0  0  0  0  0  0  0  0  0  0  0
   62.8253   32.4143   50.3719 H   0  0  0  0  0  0  0  0  0  0  0  0
   64.6219   31.9398   48.7037 H   0  0  0  0  0  0  0  0  0  0  0  0
   64.4031   32.7748   46.3609 H   0  0  0  0  0  0  0  0  0  0  0  0
   62.3934   34.0903   45.6827 H   0  0  0  0  0  0  0  0  0  0  0  0
   59.8181   32.1206   47.7348 H   0  0  0  0  0  0  0  0  0  0  0  0
   58.1769   30.6132   46.6172 H   0  0  0  0  0  0  0  0  0  0  0  0
  1  2  2  0
  2  3  1  0
  3  4  1  0
  4  5  1  0
  5  6  1  0
  6  7  1  0
  7  8  1  0
  8  9  2  0
  9 10  1  0
 10 11  2  0
 11 12  1  0
 11 13  1  0
 13 14  2  0
  7 15  1  0
 15 16  1  0
  2 17  1  0
 17 18  1  0
 18 19  2  0
 19 20  1  0
 20 21  2  0
 21 22  1  0
 22 23  1  0
 23 24  2  0
 24 25  1  0
 25 26  2  0
 26 27  1  0
 27 28  2  0
 21 29  1  0
 29 30  2  0
 16  4  1  0
 30 18  1  0
 14  8  1  0
 28 23  1  0
  3 31  1  0
  3 32  1  0
  4 33  1  0
  5 34  1  0
  5 35  1  0
  6 36  1  0
  6 37  1  0
  9 38  1  0
 10 39  1  0
 13 40  1  0
 14 41  1  0
 15 42  1  0
 15 43  1  0
 16 44  1  0
 16 45  1  0
 19 46  1  0
 20 47  1  0
 22 48  1  0
 22 49  1  0
 24 50  1  0
 25 51  1  0
 26 52  1  0
 27 53  1  0
 28 54  1  0
 29 55  1  0
 30 56  1  0
M  CHG  2   4   1  17  -1
M  END
>  <UniqueID>  (85) 
75

>  <SMILES>  (85) 
O=C(C[NH+]1CCN(c2ccc(F)cc2)CC1)[N-]c1ccc(Cc2ccccc2)cc1

>  <Energy>  (85) 
71.74862630371497

>  <Genealogy>  (85) 
O=C(C[NH+]1CCN(c2ccc(F)cc2)CC1)[N-]c1ccc(Cc2ccccc2)cc1 (protonated)
O=C(C[NH+]1CCN(c2ccc(F)cc2)CC1)[N-]c1ccc(Cc2ccccc2)cc1 (3D coordinates assigned)
O=C(C[NH+]1CCN(c2ccc(F)cc2)CC1)[N-]c1ccc(Cc2ccccc2)cc1 (nonaromatic ring conformer: 71.74862630371497 kcal/mol)

>  <smiles>  (85) 
O=C(CN1CCN(c2ccc(F)cc2)CC1)Nc1ccc(Cc2ccccc2)cc1

>  <score_type>  (85) 
oracle

>  <origin>  (85) 
adg

>  <m_score__min__energy>  (85) 
-9.5800000000000001

>  <m_primary>  (85) 
energy

$$$$
85:0
     RDKit          3D

 47 49  0  0  0  0  0  0  0  0999 V2000
   60.8110   30.1900   46.7610 C   0  0  0  0  0  0  0  0  0  0  0  0
   59.5970   29.3260   46.5390 C   0  0  0  0  0  0  0  0  0  0  0  0
   59.5420   28.0760   47.1750 C   0  0  0  0  0  0  0  0  0  0  0  0
   58.4370   27.2440   47.0180 C   0  0  0  0  0  0  0  0  0  0  0  0
   57.3510   27.6470   46.2330 C   0  0  0  0  0  0  0  0  0  0  0  0
   56.2250   26.8240   46.0790 O   0  0  0  0  0  0  0  0  0  0  0  0
   56.2150   25.5720   45.4410 C   0  0  0  0  0  0  0  0  0  0  0  0
   55.1490   24.6640   45.5930 C   0  0  0  0  0  0  0  0  0  0  0  0
   55.1730   23.4330   44.9290 C   0  0  0  0  0  0  0  0  0  0  0  0
   56.2470   23.1090   44.0970 C   0  0  0  0  0  0  0  0  0  0  0  0
   57.3000   24.0120   43.9280 C   0  0  0  0  0  0  0  0  0  0  0  0
   57.2830   25.2400   44.5960 C   0  0  0  0  0  0  0  0  0  0  0  0
   57.4030   28.8750   45.5550 C   0  0  0  0  0  0  0  0  0  0  0  0
   55.8880   29.3740   44.4730 Br  0  0  0  0  0  0  0  0  0  0  0  0
   58.5260   29.7270   45.6940 C   0  0  0  0  0  0  0  0  0  0  0  0
   58.5320   31.0710   44.9940 C   0  0  0  0  0  0  0  0  0  0  0  0
   57.4390   31.8330   45.4530 O   0  0  0  0  0  0  0  0  0  0  0  0
   57.9360   33.0180   45.9040 N   0  0  0  0  0  0  0  0  0  0  0  0
   57.8370   34.2040   45.0520 C   0  0  0  0  0  0  0  0  0  0  0  0
   58.4800   33.1230   47.2340 C   0  0  0  0  0  0  0  0  0  0  0  0
   57.7110   33.0220   48.2310 O   0  0  0  0  0  0  0  0  0  0  0  0
   59.9200   33.3810   47.4600 C   0  0  0  0  0  0  0  0  0  0  0  0
   60.7790   33.5750   46.3650 C   0  0  0  0  0  0  0  0  0  0  0  0
   62.1450   33.7970   46.5680 C   0  0  0  0  0  0  0  0  0  0  0  0
   62.6620   33.8370   47.8660 C   0  0  0  0  0  0  0  0  0  0  0  0
   61.8130   33.6660   48.9620 C   0  0  0  0  0  0  0  0  0  0  0  0
   60.4470   33.4440   48.7630 C   0  0  0  0  0  0  0  0  0  0  0  0
   60.9820   30.3117   47.8408 H   0  0  0  0  0  0  0  0  0  0  0  0
   61.6895   29.7129   46.3021 H   0  0  0  0  0  0  0  0  0  0  0  0
   60.6480   31.1763   46.3021 H   0  0  0  0  0  0  0  0  0  0  0  0
   60.3824   27.7498   47.8053 H   0  0  0  0  0  0  0  0  0  0  0  0
   58.4174   26.2627   47.5146 H   0  0  0  0  0  0  0  0  0  0  0  0
   54.2950   24.9237   46.2358 H   0  0  0  0  0  0  0  0  0  0  0  0
   54.3459   22.7201   45.0622 H   0  0  0  0  0  0  0  0  0  0  0  0
   56.2640   22.1415   43.5739 H   0  0  0  0  0  0  0  0  0  0  0  0
   58.1428   23.7564   43.2689 H   0  0  0  0  0  0  0  0  0  0  0  0
   58.1122   25.9495   44.4577 H   0  0  0  0  0  0  0  0  0  0  0  0
   59.4702   31.5995   45.2187 H   0  0  0  0  0  0  0  0  0  0  0  0
   58.4516   30.9238   43.9069 H   0  0  0  0  0  0  0  0  0  0  0  0
   57.7620   35.1027   45.6818 H   0  0  0  0  0  0  0  0  0  0  0  0
   58.7323   34.2750   44.4169 H   0  0  0  0  0  0  0  0  0  0  0  0
   56.9423   34.1256   44.4169 H   0  0  0  0  0  0  0  0  0  0  0  0
   60.3748   33.5521   45.3422 H   0  0  0  0  0  0  0  0  0  0  0  0
   62.8128   33.9402   45.7057 H   0  0  0  0  0  0  0  0  0  0  0  0
   63.7378   34.0032   48.0245 H   0  0  0  0  0  0  0  0  0  0  0  0
   62.2198   33.7061   49.9832 H   0  0  0  0  0  0  0  0  0  0  0  0
   59.7811   33.3180   49.6294 H   0  0  0  0  0  0  0  0  0  0  0  0
  1  2  1  0
  2  3  2  0
  3  4  1  0
  4  5  2  0
  5  6  1  0
  6  7  1  0
  7  8  2  0
  8  9  1  0
  9 10  2  0
 10 11  1  0
 11 12  2  0
  5 13  1  0
 13 14  1  0
 13 15  2  0
 15 16  1  0
 16 17  1  0
 17 18  1  0
 18 19  1  0
 18 20  1  0
 20 21  2  0
 20 22  1  0
 22 23  2  0
 23 24  1  0
 24 25  2  0
 25 26  1  0
 26 27  2  0
 15  2  1  0
 27 22  1  0
 12  7  1  0
  1 28  1  0
  1 29  1  0
  1 30  1  0
  3 31  1  0
  4 32  1  0
  8 33  1  0
  9 34  1  0
 10 35  1  0
 11 36  1  0
 12 37  1  0
 16 38  1  0
 16 39  1  0
 19 40  1  0
 19 41  1  0
 19 42  1  0
 23 43  1  0
 24 44  1  0
 25 45  1  0
 26 46  1  0
 27 47  1  0
M  END
>  <UniqueID>  (86) 
76

>  <SMILES>  (86) 
Cc1ccc(Oc2ccccc2)c(Br)c1CON(C)C(=O)c1ccccc1

>  <Energy>  (86) 
57.70474513163739

>  <Genealogy>  (86) 
Cc1ccc(Oc2ccccc2)c(Br)c1CON(C)C(=O)c1ccccc1 (3D coordinates assigned)
Cc1ccc(Oc2ccccc2)c(Br)c1CON(C)C(=O)c1ccccc1 (optimized conformer: 57.70474513163739 kcal/mol)

>  <smiles>  (86) 
Cc1ccc(Oc2ccccc2)c(Br)c1CON(C)C(=O)c1ccccc1

>  <score_type>  (86) 
oracle

>  <origin>  (86) 
adg

>  <m_score__min__energy>  (86) 
-9.1500000000000004

>  <m_primary>  (86) 
energy

$$$$
86:0
     RDKit          3D

 56 60  0  0  1  0  0  0  0  0999 V2000
   57.7680   28.2220   44.1450 C   0  0  0  0  0  0  0  0  0  0  0  0
   58.0120   29.5150   44.8440 C   0  0  2  0  0  0  0  0  0  0  0  0
   58.7630   29.2920   46.0930 C   0  0  0  0  0  0  0  0  0  0  0  0
   58.6700   28.0440   46.6390 N   0  0  0  0  0  0  0  0  0  0  0  0
   59.3200   27.7460   47.7790 C   0  0  0  0  0  0  0  0  0  0  0  0
   59.1870   26.5770   48.2240 O   0  0  0  0  0  0  0  0  0  0  0  0
   60.0860   28.7110   48.3980 C   0  0  0  0  0  0  0  0  0  0  0  0
   60.8430   28.6800   49.5510 C   0  0  0  0  0  0  0  0  0  0  0  0
   61.3750   29.9090   49.6720 N   0  0  0  0  0  0  0  0  0  0  0  0
   60.9900   30.6970   48.6630 N   0  0  0  0  0  0  0  0  0  0  0  0
   61.3250   32.0770   48.4060 C   0  0  0  0  0  0  0  0  0  0  0  0
   62.0530   32.2990   47.1070 C   0  0  0  0  0  0  0  0  0  0  0  0
   63.2330   33.1750   47.1800 C   0  0  0  0  0  0  0  0  0  0  0  0
   63.3400   34.0580   48.2090 O   0  0  0  0  0  0  0  0  0  0  0  0
   62.2990   34.1580   49.0830 C   0  0  0  0  0  0  0  0  0  0  0  0
   61.9830   32.7650   49.5850 C   0  0  0  0  0  0  0  0  0  0  0  0
   60.1870   29.9750   47.8550 C   0  0  0  0  0  0  0  0  0  0  0  0
   59.5110   30.2130   46.7090 N   0  0  0  0  0  0  0  0  0  0  0  0
   56.8380   30.3270   45.0600 N   0  0  0  0  0  0  0  0  0  0  0  0
   55.7630   29.7030   44.3260 C   0  0  0  0  0  0  0  0  0  0  0  0
   57.1050   31.6230   44.5070 C   0  0  2  0  0  0  0  0  0  0  0  0
   58.1310   31.5760   43.3910 C   0  0  0  0  0  0  0  0  0  0  0  0
   58.4510   33.0740   43.2740 C   0  0  0  0  0  0  0  0  0  0  0  0
   58.5870   33.4480   44.7290 C   0  0  0  0  0  0  0  0  0  0  0  0
   59.3260   34.4310   45.3490 C   0  0  0  0  0  0  0  0  0  0  0  0
   59.3060   34.5980   46.7150 C   0  0  0  0  0  0  0  0  0  0  0  0
   58.5140   33.7380   47.4440 C   0  0  0  0  0  0  0  0  0  0  0  0
   57.7760   32.7540   46.8190 C   0  0  0  0  0  0  0  0  0  0  0  0
   57.7750   32.5630   45.4510 C   0  0  0  0  0  0  0  0  0  0  0  0
   57.6177   27.4257   44.8889 H   0  0  0  0  0  0  0  0  0  0  0  0
   56.8705   28.3094   43.5150 H   0  0  0  0  0  0  0  0  0  0  0  0
   58.6356   27.9763   43.5150 H   0  0  0  0  0  0  0  0  0  0  0  0
   58.6243   30.1130   44.1530 H   0  0  0  0  0  0  0  0  0  0  0  0
   60.9825   27.8265   50.2307 H   0  0  0  0  0  0  0  0  0  0  0  0
   60.3551   32.5789   48.2740 H   0  0  0  0  0  0  0  0  0  0  0  0
   62.3822   31.3187   46.7320 H   0  0  0  0  0  0  0  0  0  0  0  0
   61.3386   32.8117   46.4461 H   0  0  0  0  0  0  0  0  0  0  0  0
   64.1166   32.5213   47.2240 H   0  0  0  0  0  0  0  0  0  0  0  0
   63.1379   33.8174   46.2921 H   0  0  0  0  0  0  0  0  0  0  0  0
   62.5794   34.8055   49.9268 H   0  0  0  0  0  0  0  0  0  0  0  0
   61.4207   34.5969   48.5870 H   0  0  0  0  0  0  0  0  0  0  0  0
   62.9037   32.2391   49.8778 H   0  0  0  0  0  0  0  0  0  0  0  0
   61.3374   32.7777   50.4755 H   0  0  0  0  0  0  0  0  0  0  0  0
   59.5860   31.1500   46.3070 H   0  0  0  0  0  0  0  0  0  0  0  0
   55.0339   29.2798   45.0326 H   0  0  0  0  0  0  0  0  0  0  0  0
   55.2671   30.4536   43.6931 H   0  0  0  0  0  0  0  0  0  0  0  0
   56.1689   28.9001   43.6931 H   0  0  0  0  0  0  0  0  0  0  0  0
   56.0990   31.9488   44.2042 H   0  0  0  0  0  0  0  0  0  0  0  0
   59.0170   30.9884   43.6732 H   0  0  0  0  0  0  0  0  0  0  0  0
   57.7888   31.0973   42.4616 H   0  0  0  0  0  0  0  0  0  0  0  0
   59.3870   33.2462   42.7225 H   0  0  0  0  0  0  0  0  0  0  0  0
   57.7005   33.6584   42.7216 H   0  0  0  0  0  0  0  0  0  0  0  0
   59.9484   35.1000   44.7365 H   0  0  0  0  0  0  0  0  0  0  0  0
   59.8978   35.3855   47.2045 H   0  0  0  0  0  0  0  0  0  0  0  0
   58.4695   33.8372   48.5386 H   0  0  0  0  0  0  0  0  0  0  0  0
   57.1582   32.0891   47.4405 H   0  0  0  0  0  0  0  0  0  0  0  0
  1  2  1  0
  2  3  1  0
  3  4  2  0
  4  5  1  0
  5  6  2  0
  5  7  1  0
  7  8  1  0
  8  9  2  0
  9 10  1  0
 10 11  1  0
 11 12  1  0
 12 13  1  0
 13 14  1  0
 14 15  1  0
 15 16  1  0
 10 17  1  0
 17 18  1  0
  2 19  1  0
 19 20  1  0
 19 21  1  0
 21 22  1  0
 22 23  1  0
 23 24  1  0
 24 25  2  0
 25 26  1  0
 26 27  2  0
 27 28  1  0
 28 29  2  0
 18  3  1  0
 29 21  1  0
 17  7  2  0
 29 24  1  0
 16 11  1  0
  1 30  1  0
  1 31  1  0
  1 32  1  0
  2 33  1  6
  8 34  1  0
 11 35  1  0
 12 36  1  0
 12 37  1  0
 13 38  1  0
 13 39  1  0
 15 40  1  0
 15 41  1  0
 16 42  1  0
 16 43  1  0
 18 44  1  0
 20 45  1  0
 20 46  1  0
 20 47  1  0
 21 48  1  6
 22 49  1  0
 22 50  1  0
 23 51  1  0
 23 52  1  0
 25 53  1  0
 26 54  1  0
 27 55  1  0
 28 56  1  0
M  END
>  <smiles>  (87) 
CC(c1nc(=O)c2cnn(C3CCOCC3)c2[nH]1)N(C)C1CCc2ccccc21

>  <score_type>  (87) 
oracle

>  <origin>  (87) 
adg

>  <m_score__min__energy>  (87) 
-9.2799999999999994

>  <m_primary>  (87) 
energy

$$$$
87:0
     RDKit          3D

 28 29  0  0  0  0  0  0  0  0999 V2000
   60.7490   30.1360   46.3930 C   0  0  0  0  0  0  0  0  0  0  0  0
   59.5450   30.8870   46.5110 O   0  0  0  0  0  0  0  0  0  0  0  0
   59.4340   32.2650   46.2620 C   0  0  0  0  0  0  0  0  0  0  0  0
   60.1620   33.2120   47.0120 C   0  0  0  0  0  0  0  0  0  0  0  0
   60.0090   34.5780   46.7680 C   0  0  0  0  0  0  0  0  0  0  0  0
   59.1310   35.0180   45.7780 C   0  0  0  0  0  0  0  0  0  0  0  0
   58.4070   34.0940   45.0240 C   0  0  0  0  0  0  0  0  0  0  0  0
   58.5560   32.7140   45.2500 C   0  0  0  0  0  0  0  0  0  0  0  0
   57.7840   31.7530   44.4240 C   0  0  0  0  0  0  0  0  0  0  0  0
   57.7560   31.8770   43.0240 C   0  0  0  0  0  0  0  0  0  0  0  0
   57.0210   30.9760   42.2500 C   0  0  0  0  0  0  0  0  0  0  0  0
   56.3030   29.9460   42.8640 C   0  0  0  0  0  0  0  0  0  0  0  0
   56.3150   29.8150   44.2600 C   0  0  0  0  0  0  0  0  0  0  0  0
   55.5790   28.7620   44.8880 N   0  0  0  0  0  0  0  0  0  0  0  0
   57.0530   30.7200   45.0350 C   0  0  0  0  0  0  0  0  0  0  0  0
   61.1320   29.8971   47.3961 H   0  0  0  0  0  0  0  0  0  0  0  0
   60.5472   29.2033   45.8459 H   0  0  0  0  0  0  0  0  0  0  0  0
   61.4979   30.7274   45.8459 H   0  0  0  0  0  0  0  0  0  0  0  0
   60.8555   32.8717   47.7951 H   0  0  0  0  0  0  0  0  0  0  0  0
   60.5821   35.3086   47.3578 H   0  0  0  0  0  0  0  0  0  0  0  0
   59.0091   36.0952   45.5913 H   0  0  0  0  0  0  0  0  0  0  0  0
   57.7140   34.4478   44.2464 H   0  0  0  0  0  0  0  0  0  0  0  0
   58.3160   32.6880   42.5354 H   0  0  0  0  0  0  0  0  0  0  0  0
   57.0072   31.0773   41.1548 H   0  0  0  0  0  0  0  0  0  0  0  0
   55.7274   29.2368   42.2510 H   0  0  0  0  0  0  0  0  0  0  0  0
   54.7670   28.9750   45.5110 H   0  0  0  0  0  0  0  0  0  0  0  0
   55.8390   27.7620   44.7350 H   0  0  0  0  0  0  0  0  0  0  0  0
   57.0601   30.6209   46.1305 H   0  0  0  0  0  0  0  0  0  0  0  0
  1  2  1  0
  2  3  1  0
  3  4  2  0
  4  5  1  0
  5  6  2  0
  6  7  1  0
  7  8  2  0
  8  9  1  0
  9 10  2  0
 10 11  1  0
 11 12  2  0
 12 13  1  0
 13 14  1  0
 13 15  2  0
  8  3  1  0
 15  9  1  0
  1 16  1  0
  1 17  1  0
  1 18  1  0
  4 19  1  0
  5 20  1  0
  6 21  1  0
  7 22  1  0
 10 23  1  0
 11 24  1  0
 12 25  1  0
 14 26  1  0
 14 27  1  0
 15 28  1  0
M  END
>  <UniqueID>  (88) 
77

>  <SMILES>  (88) 
COc1ccccc1-c1cccc(N)c1

>  <Energy>  (88) 
33.47494801757502

>  <Genealogy>  (88) 
COc1ccccc1-c1cccc(N)c1 (3D coordinates assigned)
COc1ccccc1-c1cccc(N)c1 (optimized conformer: 33.47494801757502 kcal/mol)

>  <smiles>  (88) 
COc1ccccc1-c1cccc(N)c1

>  <score_type>  (88) 
oracle

>  <origin>  (88) 
adg

>  <m_score__min__energy>  (88) 
-6.6799999999999997

>  <m_primary>  (88) 
energy

$$$$
88:0
     RDKit          3D

 55 58  0  0  0  0  0  0  0  0999 V2000
   51.7050   23.8790   44.7900 C   0  0  0  0  0  0  0  0  0  0  0  0
   52.6310   22.8970   45.2480 O   0  0  0  0  0  0  0  0  0  0  0  0
   54.0260   23.0570   45.2500 C   0  0  0  0  0  0  0  0  0  0  0  0
   54.6180   23.7100   44.1640 C   0  0  0  0  0  0  0  0  0  0  0  0
   56.0040   23.8930   44.1150 C   0  0  0  0  0  0  0  0  0  0  0  0
   56.8220   23.4250   45.1580 C   0  0  0  0  0  0  0  0  0  0  0  0
   58.3190   23.5880   45.0630 C   0  0  0  0  0  0  0  0  0  0  0  0
   58.8490   24.0840   46.3290 N   0  0  0  0  0  0  0  0  0  0  0  0
   59.2640   25.4390   46.5350 C   0  0  0  0  0  0  0  0  0  0  0  0
   60.1820   25.6930   47.3600 O   0  0  0  0  0  0  0  0  0  0  0  0
   58.6240   26.5370   45.7770 C   0  0  0  0  0  0  0  0  0  0  0  0
   57.2580   26.8290   45.9550 C   0  0  0  0  0  0  0  0  0  0  0  0
   56.6620   27.8810   45.2530 C   0  0  0  0  0  0  0  0  0  0  0  0
   57.4090   28.6450   44.3420 C   0  0  0  0  0  0  0  0  0  0  0  0
   56.7740   29.8010   43.6070 C   0  0  0  0  0  0  0  0  0  0  0  0
   57.4380   31.0800   43.9440 N   0  0  0  0  0  0  0  0  0  0  0  0
   57.7620   31.9610   42.9370 C   0  0  0  0  0  0  0  0  0  0  0  0
   57.4960   31.6820   41.7350 O   0  0  0  0  0  0  0  0  0  0  0  0
   58.3680   33.1460   43.2220 N   0  0  0  0  0  0  0  0  0  0  0  0
   58.6760   33.4930   44.5010 C   0  0  0  0  0  0  0  0  0  0  0  0
   59.3090   34.7180   44.7730 C   0  0  0  0  0  0  0  0  0  0  0  0
   59.6330   35.0640   46.0870 C   0  0  0  0  0  0  0  0  0  0  0  0
   59.3210   34.1970   47.1390 C   0  0  0  0  0  0  0  0  0  0  0  0
   58.6840   32.9790   46.8810 C   0  0  0  0  0  0  0  0  0  0  0  0
   58.3580   32.6160   45.5590 C   0  0  0  0  0  0  0  0  0  0  0  0
   57.7240   31.4000   45.2520 C   0  0  0  0  0  0  0  0  0  0  0  0
   57.4160   30.6040   46.1860 O   0  0  0  0  0  0  0  0  0  0  0  0
   58.7720   28.3610   44.1720 C   0  0  0  0  0  0  0  0  0  0  0  0
   59.3740   27.3210   44.8830 C   0  0  0  0  0  0  0  0  0  0  0  0
   56.2390   22.7610   46.2580 C   0  0  0  0  0  0  0  0  0  0  0  0
   57.0750   22.2920   47.2870 O   0  0  0  0  0  0  0  0  0  0  0  0
   56.6530   21.4390   48.3500 C   0  0  0  0  0  0  0  0  0  0  0  0
   54.8400   22.5840   46.2990 C   0  0  0  0  0  0  0  0  0  0  0  0
   51.2382   24.3741   45.6543 H   0  0  0  0  0  0  0  0  0  0  0  0
   52.2345   24.6266   44.1811 H   0  0  0  0  0  0  0  0  0  0  0  0
   50.9277   23.3942   44.1811 H   0  0  0  0  0  0  0  0  0  0  0  0
   53.9889   24.0825   43.3421 H   0  0  0  0  0  0  0  0  0  0  0  0
   56.4569   24.4067   43.2542 H   0  0  0  0  0  0  0  0  0  0  0  0
   58.7774   22.6150   44.8326 H   0  0  0  0  0  0  0  0  0  0  0  0
   58.5536   24.3093   44.2663 H   0  0  0  0  0  0  0  0  0  0  0  0
   56.6562   26.2257   46.6506 H   0  0  0  0  0  0  0  0  0  0  0  0
   55.5989   28.1121   45.4157 H   0  0  0  0  0  0  0  0  0  0  0  0
   56.8586   29.6274   42.5241 H   0  0  0  0  0  0  0  0  0  0  0  0
   55.7181   29.8671   43.9083 H   0  0  0  0  0  0  0  0  0  0  0  0
   58.6020   33.7970   42.4360 H   0  0  0  0  0  0  0  0  0  0  0  0
   59.5499   35.4060   43.9492 H   0  0  0  0  0  0  0  0  0  0  0  0
   60.1347   36.0206   46.2947 H   0  0  0  0  0  0  0  0  0  0  0  0
   59.5773   34.4738   48.1723 H   0  0  0  0  0  0  0  0  0  0  0  0
   58.4368   32.3025   47.7124 H   0  0  0  0  0  0  0  0  0  0  0  0
   59.3715   28.9625   43.4729 H   0  0  0  0  0  0  0  0  0  0  0  0
   60.4450   27.1132   44.7423 H   0  0  0  0  0  0  0  0  0  0  0  0
   56.8872   21.9123   49.3149 H   0  0  0  0  0  0  0  0  0  0  0  0
   55.5682   21.2718   48.2773 H   0  0  0  0  0  0  0  0  0  0  0  0
   57.1783   20.4752   48.2773 H   0  0  0  0  0  0  0  0  0  0  0  0
   54.3803   22.0722   47.1573 H   0  0  0  0  0  0  0  0  0  0  0  0
  1  2  1  0
  2  3  1  0
  3  4  2  0
  4  5  1  0
  5  6  2  0
  6  7  1  0
  7  8  1  0
  8  9  1  0
  9 10  2  0
  9 11  1  0
 11 12  2  0
 12 13  1  0
 13 14  2  0
 14 15  1  0
 15 16  1  0
 16 17  1  0
 17 18  2  0
 17 19  1  0
 19 20  1  0
 20 21  2  0
 21 22  1  0
 22 23  2  0
 23 24  1  0
 24 25  2  0
 25 26  1  0
 26 27  2  0
 14 28  1  0
 28 29  2  0
  6 30  1  0
 30 31  1  0
 31 32  1  0
 30 33  2  0
 33  3  1  0
 29 11  1  0
 26 16  1  0
 25 20  1  0
  1 34  1  0
  1 35  1  0
  1 36  1  0
  4 37  1  0
  5 38  1  0
  7 39  1  0
  7 40  1  0
 12 41  1  0
 13 42  1  0
 15 43  1  0
 15 44  1  0
 19 45  1  0
 21 46  1  0
 22 47  1  0
 23 48  1  0
 24 49  1  0
 28 50  1  0
 29 51  1  0
 32 52  1  0
 32 53  1  0
 32 54  1  0
 33 55  1  0
M  CHG  1   8  -1
M  END
>  <UniqueID>  (89) 
78

>  <SMILES>  (89) 
COc1ccc(C[N-]C(=O)c2ccc(Cn3c(=O)[nH]c4ccccc4c3=O)cc2)c(OC)c1

>  <Energy>  (89) 
66.05765463396946

>  <Genealogy>  (89) 
COc1ccc(C[N-]C(=O)c2ccc(Cn3c(=O)[nH]c4ccccc4c3=O)cc2)c(OC)c1 (protonated)
COc1ccc(C[N-]C(=O)c2ccc(Cn3c(=O)[nH]c4ccccc4c3=O)cc2)c(OC)c1 (3D coordinates assigned)
COc1ccc(C[N-]C(=O)c2ccc(Cn3c(=O)[nH]c4ccccc4c3=O)cc2)c(OC)c1 (optimized conformer: 66.05765463396946 kcal/mol)

>  <smiles>  (89) 
COc1ccc(CNC(=O)c2ccc(Cn3c(=O)[nH]c4ccccc4c3=O)cc2)c(OC)c1

>  <score_type>  (89) 
oracle

>  <origin>  (89) 
adg

>  <m_score__min__energy>  (89) 
-10.869999999999999

>  <m_primary>  (89) 
energy

$$$$
89:0
     RDKit          3D

 30 31  0  0  0  0  0  0  0  0999 V2000
   59.6090   34.9200   45.9670 C   0  0  0  0  0  0  0  0  0  0  0  0
   58.4990   34.2010   46.7280 C   0  0  0  0  0  0  0  0  0  0  0  0
   57.4120   33.6910   45.7700 C   0  0  0  0  0  0  0  0  0  0  0  0
   57.9830   32.7770   44.6770 C   0  0  0  0  0  0  0  0  0  0  0  0
   57.6770   31.3260   44.9410 C   0  0  0  0  0  0  0  0  0  0  0  0
   56.6220   30.6970   44.2680 C   0  0  0  0  0  0  0  0  0  0  0  0
   56.3290   29.3610   44.5430 C   0  0  0  0  0  0  0  0  0  0  0  0
   57.0830   28.6510   45.4910 C   0  0  0  0  0  0  0  0  0  0  0  0
   56.7660   27.2310   45.7800 C   0  0  0  0  0  0  0  0  0  0  0  0
   57.6320   26.2550   46.2340 C   0  0  0  0  0  0  0  0  0  0  0  0
   56.9620   25.0990   46.3720 N   0  0  0  0  0  0  0  0  0  0  0  0
   55.7050   25.4070   45.9960 C   0  0  0  0  0  0  0  0  0  0  0  0
   54.4000   24.2400   45.9870 Cl  0  0  0  0  0  0  0  0  0  0  0  0
   55.5410   26.6930   45.6290 N   0  0  0  0  0  0  0  0  0  0  0  0
   58.1280   29.3230   46.1480 C   0  0  0  0  0  0  0  0  0  0  0  0
   58.3970   30.6270   45.8650 N   0  0  0  0  0  0  0  0  0  0  0  0
   60.3099   35.3740   46.6830 H   0  0  0  0  0  0  0  0  0  0  0  0
   60.1470   34.1984   45.3347 H   0  0  0  0  0  0  0  0  0  0  0  0
   59.1704   35.7060   45.3347 H   0  0  0  0  0  0  0  0  0  0  0  0
   58.9303   33.3462   47.2697 H   0  0  0  0  0  0  0  0  0  0  0  0
   58.0398   34.9122   47.4304 H   0  0  0  0  0  0  0  0  0  0  0  0
   56.6660   33.1270   46.3491 H   0  0  0  0  0  0  0  0  0  0  0  0
   56.9602   34.5644   45.2771 H   0  0  0  0  0  0  0  0  0  0  0  0
   57.5441   33.0626   43.7096 H   0  0  0  0  0  0  0  0  0  0  0  0
   59.0762   32.8985   44.6681 H   0  0  0  0  0  0  0  0  0  0  0  0
   56.0282   31.2528   43.5274 H   0  0  0  0  0  0  0  0  0  0  0  0
   55.5035   28.8616   44.0147 H   0  0  0  0  0  0  0  0  0  0  0  0
   58.7009   26.4014   46.4485 H   0  0  0  0  0  0  0  0  0  0  0  0
   58.7333   28.7910   46.8968 H   0  0  0  0  0  0  0  0  0  0  0  0
   59.1760   31.0970   46.3800 H   0  0  0  0  0  0  0  0  0  0  0  0
  1  2  1  0
  2  3  1  0
  3  4  1  0
  4  5  1  0
  5  6  2  0
  6  7  1  0
  7  8  2  0
  8  9  1  0
  9 10  2  0
 10 11  1  0
 11 12  2  0
 12 13  1  0
 12 14  1  0
  8 15  1  0
 15 16  2  0
 16  5  1  0
 14  9  1  0
  1 17  1  0
  1 18  1  0
  1 19  1  0
  2 20  1  0
  2 21  1  0
  3 22  1  0
  3 23  1  0
  4 24  1  0
  4 25  1  0
  6 26  1  0
  7 27  1  0
 10 28  1  0
 15 29  1  0
 16 30  1  0
M  CHG  2  14  -1  16   1
M  END
>  <UniqueID>  (90) 
79

>  <SMILES>  (90) 
CCCCc1ccc(-c2cnc(Cl)[n-]2)c[nH+]1

>  <Energy>  (90) 
51.55121184502301

>  <Genealogy>  (90) 
CCCCc1ccc(-c2cnc(Cl)[n-]2)c[nH+]1 (protonated)
CCCCc1ccc(-c2cnc(Cl)[n-]2)c[nH+]1 (3D coordinates assigned)
CCCCc1ccc(-c2cnc(Cl)[n-]2)c[nH+]1 (optimized conformer: 51.55121184502301 kcal/mol)

>  <smiles>  (90) 
CCCCc1ccc(-c2cnc(Cl)[nH]2)cn1

>  <score_type>  (90) 
oracle

>  <origin>  (90) 
adg

>  <m_score__min__energy>  (90) 
-5.8300000000000001

>  <m_primary>  (90) 
energy

$$$$
90:0
     RDKit          3D

 31 33  0  0  0  0  0  0  0  0999 V2000
   53.8280   24.7940   45.6140 C   0  0  0  0  0  0  0  0  0  0  0  0
   54.5470   25.9610   45.9940 O   0  0  0  0  0  0  0  0  0  0  0  0
   55.8940   25.9280   46.3650 C   0  0  0  0  0  0  0  0  0  0  0  0
   56.2770   25.2080   47.3270 O   0  0  0  0  0  0  0  0  0  0  0  0
   56.8640   26.7410   45.6240 C   0  0  0  0  0  0  0  0  0  0  0  0
   58.1860   26.4180   45.3870 C   0  0  0  0  0  0  0  0  0  0  0  0
   58.7030   27.4670   44.6560 C   0  0  0  0  0  0  0  0  0  0  0  0
   57.6620   28.3620   44.5010 C   0  0  0  0  0  0  0  0  0  0  0  0
   57.7260   29.6510   43.7500 C   0  0  0  0  0  0  0  0  0  0  0  0
   56.2480   30.6440   44.1320 S   0  0  0  0  0  0  0  0  0  0  0  0
   57.1980   31.9740   44.8590 C   0  0  0  0  0  0  0  0  0  0  0  0
   57.7860   32.9520   44.1210 N   0  0  0  0  0  0  0  0  0  0  0  0
   58.3700   33.6990   45.0730 C   0  0  0  0  0  0  0  0  0  0  0  0
   59.1290   34.8550   44.9080 C   0  0  0  0  0  0  0  0  0  0  0  0
   59.6440   35.4680   46.0680 C   0  0  0  0  0  0  0  0  0  0  0  0
   59.3870   34.9150   47.3440 C   0  0  0  0  0  0  0  0  0  0  0  0
   58.6130   33.7450   47.4720 C   0  0  0  0  0  0  0  0  0  0  0  0
   58.1240   33.1690   46.3040 C   0  0  0  0  0  0  0  0  0  0  0  0
   57.3940   32.0970   46.1600 O   0  0  0  0  0  0  0  0  0  0  0  0
   56.5790   27.9030   45.0830 O   0  0  0  0  0  0  0  0  0  0  0  0
   53.4973   24.2573   46.5154 H   0  0  0  0  0  0  0  0  0  0  0  0
   52.9507   25.0822   45.0163 H   0  0  0  0  0  0  0  0  0  0  0  0
   54.4800   24.1400   45.0163 H   0  0  0  0  0  0  0  0  0  0  0  0
   58.7166   25.5116   45.7138 H   0  0  0  0  0  0  0  0  0  0  0  0
   59.7300   27.5697   44.2757 H   0  0  0  0  0  0  0  0  0  0  0  0
   58.6282   30.2054   44.0478 H   0  0  0  0  0  0  0  0  0  0  0  0
   57.7636   29.4467   42.6698 H   0  0  0  0  0  0  0  0  0  0  0  0
   59.3196   35.2742   43.9090 H   0  0  0  0  0  0  0  0  0  0  0  0
   60.2495   36.3821   45.9803 H   0  0  0  0  0  0  0  0  0  0  0  0
   59.7942   35.4017   48.2425 H   0  0  0  0  0  0  0  0  0  0  0  0
   58.4033   33.3038   48.4576 H   0  0  0  0  0  0  0  0  0  0  0  0
  1  2  1  0
  2  3  1  0
  3  4  2  0
  3  5  1  0
  5  6  2  0
  6  7  1  0
  7  8  2  0
  8  9  1  0
  9 10  1  0
 10 11  1  0
 11 12  2  0
 12 13  1  0
 13 14  2  0
 14 15  1  0
 15 16  2  0
 16 17  1  0
 17 18  2  0
 18 19  1  0
  8 20  1  0
 20  5  1  0
 19 11  1  0
 18 13  1  0
  1 21  1  0
  1 22  1  0
  1 23  1  0
  6 24  1  0
  7 25  1  0
  9 26  1  0
  9 27  1  0
 14 28  1  0
 15 29  1  0
 16 30  1  0
 17 31  1  0
M  END
>  <UniqueID>  (91) 
80

>  <SMILES>  (91) 
COC(=O)c1ccc(CSc2nc3ccccc3o2)o1

>  <Energy>  (91) 
88.4215310418991

>  <Genealogy>  (91) 
COC(=O)c1ccc(CSc2nc3ccccc3o2)o1 (3D coordinates assigned)
COC(=O)c1ccc(CSc2nc3ccccc3o2)o1 (optimized conformer: 88.4215310418991 kcal/mol)

>  <smiles>  (91) 
COC(=O)c1ccc(CSc2nc3ccccc3o2)o1

>  <score_type>  (91) 
oracle

>  <origin>  (91) 
adg

>  <m_score__min__energy>  (91) 
-7.8399999999999999

>  <m_primary>  (91) 
energy

$$$$
91:0
     RDKit          3D

 49 51  0  0  0  0  0  0  0  0999 V2000
   60.7590   34.5810   48.5130 C   0  0  0  0  0  0  0  0  0  0  0  0
   60.0250   34.9200   47.3370 O   0  0  0  0  0  0  0  0  0  0  0  0
   59.1460   34.0480   46.6760 C   0  0  0  0  0  0  0  0  0  0  0  0
   58.9980   32.7470   47.1740 C   0  0  0  0  0  0  0  0  0  0  0  0
   58.1280   31.8450   46.5550 C   0  0  0  0  0  0  0  0  0  0  0  0
   57.3990   32.2320   45.4160 C   0  0  0  0  0  0  0  0  0  0  0  0
   56.4750   31.3450   44.7720 N   0  0  0  0  0  0  0  0  0  0  0  0
   56.8040   30.1550   44.0390 C   0  0  0  0  0  0  0  0  0  0  0  0
   56.4050   30.0590   42.8450 O   0  0  0  0  0  0  0  0  0  0  0  0
   57.6390   29.0680   44.6200 C   0  0  0  0  0  0  0  0  0  0  0  0
   59.0040   29.2830   44.8500 C   0  0  0  0  0  0  0  0  0  0  0  0
   59.7950   28.2860   45.4150 C   0  0  0  0  0  0  0  0  0  0  0  0
   59.2460   27.0480   45.7840 C   0  0  0  0  0  0  0  0  0  0  0  0
   60.1680   26.0140   46.3760 C   0  0  0  0  0  0  0  0  0  0  0  0
   57.8630   26.8100   45.5530 C   0  0  0  0  0  0  0  0  0  0  0  0
   57.0540   25.2580   45.8990 S   0  0  0  0  0  0  0  0  0  0  0  0
   55.5640   25.4360   45.9900 O   0  0  0  0  0  0  0  0  0  0  0  0
   57.5240   24.7830   47.2490 O   0  0  0  0  0  0  0  0  0  0  0  0
   57.3940   24.0290   44.6900 N   0  0  0  0  0  0  0  0  0  0  0  0
   57.4910   22.6670   45.2780 C   0  0  0  0  0  0  0  0  0  0  0  0
   56.2380   21.8120   44.9890 C   0  0  0  0  0  0  0  0  0  0  0  0
   55.9090   21.6960   43.6060 O   0  0  0  0  0  0  0  0  0  0  0  0
   56.3780   22.7750   42.8080 C   0  0  0  0  0  0  0  0  0  0  0  0
   56.4280   24.1070   43.5710 C   0  0  0  0  0  0  0  0  0  0  0  0
   57.0840   27.8290   44.9810 C   0  0  0  0  0  0  0  0  0  0  0  0
   57.5380   33.5340   44.9220 C   0  0  0  0  0  0  0  0  0  0  0  0
   58.4080   34.4380   45.5400 C   0  0  0  0  0  0  0  0  0  0  0  0
   60.1717   34.8522   49.4027 H   0  0  0  0  0  0  0  0  0  0  0  0
   60.9589   33.4994   48.5214 H   0  0  0  0  0  0  0  0  0  0  0  0
   61.7121   35.1301   48.5214 H   0  0  0  0  0  0  0  0  0  0  0  0
   59.5709   32.4329   48.0590 H   0  0  0  0  0  0  0  0  0  0  0  0
   58.0130   30.8288   46.9601 H   0  0  0  0  0  0  0  0  0  0  0  0
   59.4556   30.2494   44.5815 H   0  0  0  0  0  0  0  0  0  0  0  0
   60.8674   28.4716   45.5747 H   0  0  0  0  0  0  0  0  0  0  0  0
   60.1212   26.0665   47.4737 H   0  0  0  0  0  0  0  0  0  0  0  0
   59.8577   25.0125   46.0432 H   0  0  0  0  0  0  0  0  0  0  0  0
   61.1984   26.2080   46.0432 H   0  0  0  0  0  0  0  0  0  0  0  0
   58.3390   24.2640   44.2990 H   0  0  0  0  0  0  0  0  0  0  0  0
   58.3703   22.1604   44.8534 H   0  0  0  0  0  0  0  0  0  0  0  0
   57.5781   22.7774   46.3690 H   0  0  0  0  0  0  0  0  0  0  0  0
   56.4120   20.8014   45.3870 H   0  0  0  0  0  0  0  0  0  0  0  0
   55.3916   22.3233   45.4708 H   0  0  0  0  0  0  0  0  0  0  0  0
   57.3916   22.5350   42.4545 H   0  0  0  0  0  0  0  0  0  0  0  0
   55.6715   22.8994   41.9741 H   0  0  0  0  0  0  0  0  0  0  0  0
   56.7363   24.9072   42.8821 H   0  0  0  0  0  0  0  0  0  0  0  0
   55.4289   24.3206   43.9785 H   0  0  0  0  0  0  0  0  0  0  0  0
   56.0116   27.6524   44.8113 H   0  0  0  0  0  0  0  0  0  0  0  0
   56.9588   33.8486   44.0413 H   0  0  0  0  0  0  0  0  0  0  0  0
   58.5167   35.4563   45.1385 H   0  0  0  0  0  0  0  0  0  0  0  0
  1  2  1  0
  2  3  1  0
  3  4  2  0
  4  5  1  0
  5  6  2  0
  6  7  1  0
  7  8  1  0
  8  9  2  0
  8 10  1  0
 10 11  2  0
 11 12  1  0
 12 13  2  0
 13 14  1  0
 13 15  1  0
 15 16  1  0
 16 17  2  0
 16 18  2  0
 16 19  1  0
 19 20  1  0
 20 21  1  0
 21 22  1  0
 22 23  1  0
 23 24  1  0
 15 25  2  0
  6 26  1  0
 26 27  2  0
 27  3  1  0
 25 10  1  0
 24 19  1  0
  1 28  1  0
  1 29  1  0
  1 30  1  0
  4 31  1  0
  5 32  1  0
 11 33  1  0
 12 34  1  0
 14 35  1  0
 14 36  1  0
 14 37  1  0
 19 38  1  0
 20 39  1  0
 20 40  1  0
 21 41  1  0
 21 42  1  0
 23 43  1  0
 23 44  1  0
 24 45  1  0
 24 46  1  0
 25 47  1  0
 26 48  1  0
 27 49  1  0
M  CHG  2   7  -1  19   1
M  END
>  <UniqueID>  (92) 
81

>  <SMILES>  (92) 
COc1ccc([N-]C(=O)c2ccc(C)c(S(=O)(=O)[NH+]3CCOCC3)c2)cc1

>  <Energy>  (92) 
73.09179364933803

>  <Genealogy>  (92) 
COc1ccc([N-]C(=O)c2ccc(C)c(S(=O)(=O)[NH+]3CCOCC3)c2)cc1 (protonated)
COc1ccc([N-]C(=O)c2ccc(C)c(S(=O)(=O)[NH+]3CCOCC3)c2)cc1 (3D coordinates assigned)
COc1ccc([N-]C(=O)c2ccc(C)c(S(=O)(=O)[NH+]3CCOCC3)c2)cc1 (nonaromatic ring conformer: 73.09179364933803 kcal/mol)

>  <smiles>  (92) 
COc1ccc(NC(=O)c2ccc(C)c(S(=O)(=O)N3CCOCC3)c2)cc1

>  <score_type>  (92) 
oracle

>  <origin>  (92) 
adg

>  <m_score__min__energy>  (92) 
-8.5500000000000007

>  <m_primary>  (92) 
energy

$$$$
92:0
     RDKit          3D

 24 26  0  0  1  0  0  0  0  0999 V2000
   58.5390   34.9810   45.1030 O   0  0  0  0  0  0  0  0  0  0  0  0
   58.9880   33.9710   45.6560 C   0  0  0  0  0  0  0  0  0  0  0  0
   58.3530   32.6630   45.5460 N   0  0  0  0  0  0  0  0  0  0  0  0
   58.0230   32.2490   44.3560 C   0  0  0  0  0  0  0  0  0  0  0  0
   58.4300   32.9490   43.2800 N   0  0  0  0  0  0  0  0  0  0  0  0
   58.0420   32.6060   42.0140 C   0  0  0  0  0  0  0  0  0  0  0  0
   57.2350   31.5370   41.8860 N   0  0  0  0  0  0  0  0  0  0  0  0
   56.8180   30.8200   42.9530 C   0  0  0  0  0  0  0  0  0  0  0  0
   56.0190   29.7410   43.0270 N   0  0  0  0  0  0  0  0  0  0  0  0
   55.9180   29.4270   44.3250 C   0  0  0  0  0  0  0  0  0  0  0  0
   56.6300   30.2790   45.0730 N   0  0  0  0  0  0  0  0  0  0  0  0
   57.2130   31.1690   44.2530 C   0  0  0  0  0  0  0  0  0  0  0  0
   60.2010   33.9400   46.4870 C   0  0  0  0  0  0  0  0  0  0  0  0
   60.1870   34.2180   47.8590 C   0  0  0  0  0  0  0  0  0  0  0  0
   61.4510   34.1280   48.3300 N   0  0  0  0  0  0  0  0  0  0  0  0
   62.2390   33.8030   47.2840 C   0  0  0  0  0  0  0  0  0  0  0  0
   61.4700   33.6920   46.1720 N   0  0  0  0  0  0  0  0  0  0  0  0
   59.0580   33.7700   43.3230 H   0  0  0  0  0  0  0  0  0  0  0  0
   58.3758   33.1802   41.1371 H   0  0  0  0  0  0  0  0  0  0  0  0
   55.5690   29.2420   42.2060 H   0  0  0  0  0  0  0  0  0  0  0  0
   55.3312   28.5854   44.7217 H   0  0  0  0  0  0  0  0  0  0  0  0
   59.2964   34.4679   48.4543 H   0  0  0  0  0  0  0  0  0  0  0  0
   61.6970   34.2960   49.3340 H   0  0  0  0  0  0  0  0  0  0  0  0
   63.3278   33.6525   47.3261 H   0  0  0  0  0  0  0  0  0  0  0  0
  1  2  2  0
  2  3  1  0
  3  4  2  0
  4  5  1  0
  5  6  1  0
  6  7  2  0
  7  8  1  0
  8  9  1  0
  9 10  1  0
 10 11  2  0
 11 12  1  0
  2 13  1  0
 13 14  2  0
 14 15  1  0
 15 16  1  0
 16 17  2  0
 12  4  1  0
 17 13  1  0
 12  8  2  0
  5 18  1  0
  6 19  1  0
  9 20  1  0
 10 21  1  0
 14 22  1  0
 15 23  1  0
 16 24  1  0
M  END
>  <smiles>  (93) 
O=C(N=c1[nH]cnc2[nH]cnc12)c1c[nH]cn1

>  <score_type>  (93) 
oracle

>  <origin>  (93) 
adg

>  <m_score__min__energy>  (93) 
-5.4199999999999999

>  <m_primary>  (93) 
energy

$$$$
