0:0
     RDKit          3D

 36 37  0  0  0  0  0  0  0  0999 V2000
   57.8990   32.3730   41.1980 C   0  0  0  0  0  0  0  0  0  0  0  0
   57.1860   31.9880   42.3690 O   0  0  0  0  0  0  0  0  0  0  0  0
   57.7610   31.8700   43.6430 C   0  0  0  0  0  0  0  0  0  0  0  0
   58.1570   30.6310   44.1800 C   0  0  0  0  0  0  0  0  0  0  0  0
   58.7540   30.5650   45.4420 C   0  0  0  0  0  0  0  0  0  0  0  0
   59.1750   29.2940   45.9500 N   0  0  0  0  0  0  0  0  0  0  0  0
   58.3070   28.2500   46.4150 C   0  0  0  0  0  0  0  0  0  0  0  0
   58.4250   27.8520   47.6040 O   0  0  0  0  0  0  0  0  0  0  0  0
   57.2300   27.6470   45.5480 C   0  0  0  0  0  0  0  0  0  0  0  0
   56.8710   26.2610   45.9960 C   0  0  0  0  0  0  0  0  0  0  0  0
   57.7710   25.3480   46.4210 N   0  0  0  0  0  0  0  0  0  0  0  0
   57.0190   24.2550   46.6780 C   0  0  0  0  0  0  0  0  0  0  0  0
   57.5070   23.1790   47.1160 O   0  0  0  0  0  0  0  0  0  0  0  0
   55.7050   24.4290   46.4280 N   0  0  0  0  0  0  0  0  0  0  0  0
   54.6160   23.4890   46.6680 C   0  0  0  0  0  0  0  0  0  0  0  0
   55.6110   25.7020   46.0140 C   0  0  0  0  0  0  0  0  0  0  0  0
   54.4230   26.3350   45.6640 O   0  0  0  0  0  0  0  0  0  0  0  0
   58.9120   31.7350   46.2000 C   0  0  0  0  0  0  0  0  0  0  0  0
   58.5170   32.9790   45.6750 C   0  0  0  0  0  0  0  0  0  0  0  0
   58.6730   34.1790   46.3860 O   0  0  0  0  0  0  0  0  0  0  0  0
   59.6780   35.1500   46.1130 C   0  0  0  0  0  0  0  0  0  0  0  0
   57.9470   33.0340   44.3980 C   0  0  0  0  0  0  0  0  0  0  0  0
   58.8330   32.8773   41.4866 H   0  0  0  0  0  0  0  0  0  0  0  0
   58.1341   31.4792   40.6014 H   0  0  0  0  0  0  0  0  0  0  0  0
   57.2806   33.0598   40.6014 H   0  0  0  0  0  0  0  0  0  0  0  0
   57.9957   29.7086   43.6028 H   0  0  0  0  0  0  0  0  0  0  0  0
   56.3333   28.2821   45.5993 H   0  0  0  0  0  0  0  0  0  0  0  0
   57.6112   27.5874   44.5179 H   0  0  0  0  0  0  0  0  0  0  0  0
   54.4714   23.3642   47.7513 H   0  0  0  0  0  0  0  0  0  0  0  0
   53.6908   23.8768   46.2169 H   0  0  0  0  0  0  0  0  0  0  0  0
   54.8645   22.5170   46.2169 H   0  0  0  0  0  0  0  0  0  0  0  0
   59.3465   31.6794   47.2090 H   0  0  0  0  0  0  0  0  0  0  0  0
   60.0798   35.5382   47.0605 H   0  0  0  0  0  0  0  0  0  0  0  0
   60.4894   34.6851   45.5338 H   0  0  0  0  0  0  0  0  0  0  0  0
   59.2412   35.9769   45.5338 H   0  0  0  0  0  0  0  0  0  0  0  0
   57.6410   34.0052   43.9819 H   0  0  0  0  0  0  0  0  0  0  0  0
  1  2  1  0
  2  3  1  0
  3  4  2  0
  4  5  1  0
  5  6  1  0
  6  7  1  0
  7  8  2  0
  7  9  1  0
  9 10  1  0
 10 11  1  0
 11 12  1  0
 12 13  2  0
 12 14  1  0
 14 15  1  0
 14 16  1  0
 16 17  1  0
  5 18  2  0
 18 19  1  0
 19 20  1  0
 20 21  1  0
 19 22  2  0
 22  3  1  0
 16 10  2  0
  1 23  1  0
  1 24  1  0
  1 25  1  0
  4 26  1  0
  9 27  1  0
  9 28  1  0
 15 29  1  0
 15 30  1  0
 15 31  1  0
 18 32  1  0
 21 33  1  0
 21 34  1  0
 21 35  1  0
 22 36  1  0
M  CHG  3   6  -1  11  -1  17  -1
M  END
>  <UniqueID>  (1) 
1

>  <SMILES>  (1) 
COc1cc([N-]C(=O)Cc2[n-]c(=O)n(C)c2[O-])cc(OC)c1

>  <Energy>  (1) 
68.59285565216194

>  <Genealogy>  (1) 
COc1cc([N-]C(=O)Cc2[n-]c(=O)n(C)c2[O-])cc(OC)c1 (protonated)
COc1cc([N-]C(=O)Cc2[n-]c(=O)n(C)c2[O-])cc(OC)c1 (3D coordinates assigned)
COc1cc([N-]C(=O)Cc2[n-]c(=O)n(C)c2[O-])cc(OC)c1 (optimized conformer: 68.59285565216194 kcal/mol)

>  <smiles>  (1) 
COc1cc(NC(=O)Cc2[nH]c(=O)n(C)c2O)cc(OC)c1

>  <score_type>  (1) 
oracle

>  <origin>  (1) 
adg

>  <m_score__min__energy>  (1) 
-13.1

>  <m_primary>  (1) 
energy

$$$$
1:0
     RDKit          3D

 56 59  0  0  0  0  0  0  0  0999 V2000
   59.3670   35.2300   46.3120 C   0  0  0  0  0  0  0  0  0  0  0  0
   59.2630   33.9200   46.9590 N   0  0  0  0  0  0  0  0  0  0  0  0
   58.7020   32.8010   46.2470 C   0  0  0  0  0  0  0  0  0  0  0  0
   58.6870   31.5220   46.8290 C   0  0  0  0  0  0  0  0  0  0  0  0
   58.1590   30.4330   46.1310 C   0  0  0  0  0  0  0  0  0  0  0  0
   57.6410   30.6060   44.8320 C   0  0  0  0  0  0  0  0  0  0  0  0
   57.1200   29.5420   44.0790 O   0  0  0  0  0  0  0  0  0  0  0  0
   57.8860   28.4950   43.4840 C   0  0  0  0  0  0  0  0  0  0  0  0
   59.0640   28.1220   44.3460 C   0  0  0  0  0  0  0  0  0  0  0  0
   60.1730   28.6720   44.1160 O   0  0  0  0  0  0  0  0  0  0  0  0
   58.9970   27.1180   45.3720 N   0  0  0  0  0  0  0  0  0  0  0  0
   57.9540   26.4610   45.7940 C   0  0  0  0  0  0  0  0  0  0  0  0
   56.6930   26.8900   45.5630 N   0  0  0  0  0  0  0  0  0  0  0  0
   55.7580   26.0500   46.0770 C   0  0  0  0  0  0  0  0  0  0  0  0
   54.4000   26.3210   45.9880 O   0  0  0  0  0  0  0  0  0  0  0  0
   56.2690   24.9160   46.7040 C   0  0  0  0  0  0  0  0  0  0  0  0
   55.4830   23.8740   47.4370 C   0  0  0  0  0  0  0  0  0  0  0  0
   56.1960   22.5590   47.3730 C   0  0  0  0  0  0  0  0  0  0  0  0
   57.0610   22.2810   48.2510 O   0  0  0  0  0  0  0  0  0  0  0  0
   55.8900   21.6360   46.3130 N   0  0  0  0  0  0  0  0  0  0  0  0
   56.5230   21.5300   45.1820 C   0  0  0  0  0  0  0  0  0  0  0  0
   55.9360   21.2240   44.0040 N   0  0  0  0  0  0  0  0  0  0  0  0
   56.8410   21.1970   42.9920 C   0  0  0  0  0  0  0  0  0  0  0  0
   58.1520   21.4810   43.3610 C   0  0  0  0  0  0  0  0  0  0  0  0
   58.1740   21.7780   45.0190 S   0  0  0  0  0  0  0  0  0  0  0  0
   57.9510   24.9910   46.6300 S   0  0  0  0  0  0  0  0  0  0  0  0
   57.6470   31.8820   44.2590 C   0  0  0  0  0  0  0  0  0  0  0  0
   58.1780   32.9700   44.9540 C   0  0  0  0  0  0  0  0  0  0  0  0
   59.8700   33.7240   48.5780 S   0  0  0  0  0  0  0  0  0  0  0  0
   59.1850   32.5520   49.2190 O   0  0  0  0  0  0  0  0  0  0  0  0
   59.6000   34.9590   49.3870 O   0  0  0  0  0  0  0  0  0  0  0  0
   61.6130   33.4720   48.5260 C   0  0  0  0  0  0  0  0  0  0  0  0
   62.3660   33.5900   49.7030 C   0  0  0  0  0  0  0  0  0  0  0  0
   63.7540   33.4060   49.6710 C   0  0  0  0  0  0  0  0  0  0  0  0
   64.3950   33.1050   48.4650 C   0  0  0  0  0  0  0  0  0  0  0  0
   63.6480   32.9840   47.2910 C   0  0  0  0  0  0  0  0  0  0  0  0
   62.2590   33.1640   47.3190 C   0  0  0  0  0  0  0  0  0  0  0  0
   59.4293   36.0146   47.0805 H   0  0  0  0  0  0  0  0  0  0  0  0
   60.2702   35.2585   45.6848 H   0  0  0  0  0  0  0  0  0  0  0  0
   58.4796   35.4007   45.6848 H   0  0  0  0  0  0  0  0  0  0  0  0
   59.0936   31.3773   47.8408 H   0  0  0  0  0  0  0  0  0  0  0  0
   58.1476   29.4368   46.5972 H   0  0  0  0  0  0  0  0  0  0  0  0
   57.2441   27.6115   43.3524 H   0  0  0  0  0  0  0  0  0  0  0  0
   58.2638   28.8491   42.5135 H   0  0  0  0  0  0  0  0  0  0  0  0
   56.4590   27.7760   45.0590 H   0  0  0  0  0  0  0  0  0  0  0  0
   55.3686   24.1760   48.4885 H   0  0  0  0  0  0  0  0  0  0  0  0
   54.4925   23.7720   46.9695 H   0  0  0  0  0  0  0  0  0  0  0  0
   56.5577   20.9670   41.9543 H   0  0  0  0  0  0  0  0  0  0  0  0
   59.0217   21.5070   42.6880 H   0  0  0  0  0  0  0  0  0  0  0  0
   57.2297   32.0294   43.2520 H   0  0  0  0  0  0  0  0  0  0  0  0
   58.1863   33.9658   44.4867 H   0  0  0  0  0  0  0  0  0  0  0  0
   61.8655   33.8276   50.6533 H   0  0  0  0  0  0  0  0  0  0  0  0
   64.3413   33.4984   50.5965 H   0  0  0  0  0  0  0  0  0  0  0  0
   65.4856   32.9638   48.4411 H   0  0  0  0  0  0  0  0  0  0  0  0
   64.1515   32.7468   46.3422 H   0  0  0  0  0  0  0  0  0  0  0  0
   61.6737   33.0637   46.3931 H   0  0  0  0  0  0  0  0  0  0  0  0
  1  2  1  0
  2  3  1  0
  3  4  2  0
  4  5  1  0
  5  6  2  0
  6  7  1  0
  7  8  1  0
  8  9  1  0
  9 10  2  0
  9 11  1  0
 11 12  2  3
 12 13  1  0
 13 14  1  0
 14 15  1  0
 14 16  2  0
 16 17  1  0
 17 18  1  0
 18 19  2  0
 18 20  1  0
 20 21  2  3
 21 22  1  0
 22 23  1  0
 23 24  2  0
 24 25  1  0
 16 26  1  0
  6 27  1  0
 27 28  2  0
  2 29  1  0
 29 30  2  0
 29 31  2  0
 29 32  1  0
 32 33  2  0
 33 34  1  0
 34 35  2  0
 35 36  1  0
 36 37  2  0
 28  3  1  0
 37 32  1  0
 26 12  1  0
 25 21  1  0
  1 38  1  0
  1 39  1  0
  1 40  1  0
  4 41  1  0
  5 42  1  0
  8 43  1  0
  8 44  1  0
 13 45  1  0
 17 46  1  0
 17 47  1  0
 23 48  1  0
 24 49  1  0
 27 50  1  0
 28 51  1  0
 33 52  1  0
 34 53  1  0
 35 54  1  0
 36 55  1  0
 37 56  1  0
M  CHG  2  15  -1  22  -1
M  END
>  <UniqueID>  (2) 
2

>  <SMILES>  (2) 
CN(c1ccc(OCC(=O)N=c2[nH]c([O-])c(CC(=O)N=c3[n-]ccs3)s2)cc1)S(=O)(=O)c1ccccc1

>  <Energy>  (2) 
130.25135520076714

>  <Genealogy>  (2) 
CN(c1ccc(OCC(=O)N=c2[nH]c([O-])c(CC(=O)N=c3[n-]ccs3)s2)cc1)S(=O)(=O)c1ccccc1 (protonated)
CN(c1ccc(OCC(=O)N=c2[nH]c([O-])c(CC(=O)N=c3[n-]ccs3)s2)cc1)S(=O)(=O)c1ccccc1 (3D coordinates assigned)
CN(c1ccc(OCC(=O)N=c2[nH]c([O-])c(CC(=O)N=c3[n-]ccs3)s2)cc1)S(=O)(=O)c1ccccc1 (optimized conformer: 130.25135520076714 kcal/mol)

>  <smiles>  (2) 
CN(c1ccc(OCC(=O)N=c2[nH]c(O)c(CC(=O)N=c3[nH]ccs3)s2)cc1)S(=O)(=O)c1ccccc1

>  <score_type>  (2) 
oracle

>  <origin>  (2) 
adg

>  <m_score__min__energy>  (2) 
-14.92

>  <m_primary>  (2) 
energy

$$$$
2:0
     RDKit          3D

 31 32  0  0  0  0  0  0  0  0999 V2000
   59.5330   35.5337   48.0563 H   0  0  0  0  0  0  0  0  0  0  0  0
   59.2680   34.6870   47.4060 C   0  0  0  0  0  0  0  0  0  0  0  0
   58.9030   33.4600   47.9690 C   0  0  0  0  0  0  0  0  0  0  0  0
   58.8803   33.3424   49.0625 H   0  0  0  0  0  0  0  0  0  0  0  0
   58.5670   32.3830   47.1440 C   0  0  0  0  0  0  0  0  0  0  0  0
   58.2768   31.4208   47.5913 H   0  0  0  0  0  0  0  0  0  0  0  0
   58.5980   32.5230   45.7460 C   0  0  0  0  0  0  0  0  0  0  0  0
   58.2160   31.3690   44.8570 C   0  0  0  0  0  0  0  0  0  0  0  0
   58.7069   30.4537   45.2194 H   0  0  0  0  0  0  0  0  0  0  0  0
   58.5387   31.5876   43.8284 H   0  0  0  0  0  0  0  0  0  0  0  0
   56.7700   31.1770   44.8700 N   0  0  0  0  0  0  0  0  0  0  0  0
   56.1190   30.0170   44.3400 C   0  0  0  0  0  0  0  0  0  0  0  0
   55.1460   29.4990   44.9510 O   0  0  0  0  0  0  0  0  0  0  0  0
   56.5880   29.4280   43.0810 C   0  0  0  0  0  0  0  0  0  0  0  0
   56.2720   29.9700   41.9890 O   0  0  0  0  0  0  0  0  0  0  0  0
   57.4760   28.3000   43.1190 N   0  0  0  0  0  0  0  0  0  0  0  0
   58.0550   27.7510   44.1530 C   0  0  0  0  0  0  0  0  0  0  0  0
   59.3420   28.1850   44.4980 C   0  0  0  0  0  0  0  0  0  0  0  0
   59.8377   28.9680   43.9054 H   0  0  0  0  0  0  0  0  0  0  0  0
   59.9920   27.6210   45.5950 C   0  0  0  0  0  0  0  0  0  0  0  0
   61.0065   27.9506   45.8635 H   0  0  0  0  0  0  0  0  0  0  0  0
   59.3550   26.6400   46.3500 C   0  0  0  0  0  0  0  0  0  0  0  0
   59.8635   26.1840   47.2123 H   0  0  0  0  0  0  0  0  0  0  0  0
   58.0620   26.2410   46.0000 C   0  0  0  0  0  0  0  0  0  0  0  0
   57.2380   25.0280   46.9650 Cl  0  0  0  0  0  0  0  0  0  0  0  0
   57.4380   26.8000   44.9250 N   0  0  0  0  0  0  0  0  0  0  0  0
   56.4550   26.5040   44.7440 H   0  0  0  0  0  0  0  0  0  0  0  0
   58.9610   33.7630   45.1860 C   0  0  0  0  0  0  0  0  0  0  0  0
   58.9880   33.9290   43.8390 F   0  0  0  0  0  0  0  0  0  0  0  0
   59.2960   34.8370   46.0170 C   0  0  0  0  0  0  0  0  0  0  0  0
   59.5825   35.8030   45.5756 H   0  0  0  0  0  0  0  0  0  0  0  0
  1  2  1  0
  2  3  2  0
  3  4  1  0
  3  5  1  0
  5  6  1  0
  5  7  2  0
  7  8  1  0
  8  9  1  0
  8 10  1  0
  8 11  1  0
 11 12  1  0
 12 13  2  0
 12 14  1  0
 14 15  2  0
 14 16  1  0
 16 17  2  0
 17 18  1  0
 18 19  1  0
 18 20  2  0
 20 21  1  0
 20 22  1  0
 22 23  1  0
 22 24  2  0
 24 25  1  0
 24 26  1  0
 26 27  1  0
  7 28  1  0
 28 29  1  0
 28 30  2  0
 30 31  1  0
 30  2  1  0
 26 17  1  0
M  CHG  1  11  -1
M  END
>  <UniqueID>  (3) 
3

>  <SMILES>  (3) 
O=C(/N=c1/cccc(Cl)[nH]1)C(=O)[N-]Cc1ccccc1F

>  <Energy>  (3) 
35.75196981128239

>  <Genealogy>  (3) 
O=C(N=c1cccc(Cl)[nH]1)C(=O)[N-]Cc1ccccc1F (protonated)
O=C(/N=c1/cccc(Cl)[nH]1)C(=O)[N-]Cc1ccccc1F (cis-trans isomerization)
O=C(/N=c1/cccc(Cl)[nH]1)C(=O)[N-]Cc1ccccc1F (3D coordinates assigned)
O=C(/N=c1/cccc(Cl)[nH]1)C(=O)[N-]Cc1ccccc1F (optimized conformer: 35.75196981128239 kcal/mol)

>  <smiles>  (3) 
O=C(N=c1cccc(Cl)[nH]1)C(=O)NCc1ccccc1F

>  <score_type>  (3) 
oracle

>  <origin>  (3) 
adg

>  <m_score__min__energy>  (3) 
-8.7899999999999991

>  <m_primary>  (3) 
energy

$$$$
3:0
     RDKit          3D

 36 37  0  0  0  0  0  0  0  0999 V2000
   55.7950   29.1440   44.9260 O   0  0  0  0  0  0  0  0  0  0  0  0
   56.9810   29.1450   45.3550 C   0  0  0  0  0  0  0  0  0  0  0  0
   57.9440   30.1690   44.8550 C   0  0  0  0  0  0  0  0  0  0  0  0
   57.0180   31.5630   44.1360 S   0  0  0  0  0  0  0  0  0  0  0  0
   57.8820   32.7980   45.1100 C   0  0  0  0  0  0  0  0  0  0  0  0
   58.5550   33.8490   44.4740 C   0  0  0  0  0  0  0  0  0  0  0  0
   59.2210   34.8150   45.2340 C   0  0  0  0  0  0  0  0  0  0  0  0
   59.2120   34.7360   46.6310 C   0  0  0  0  0  0  0  0  0  0  0  0
   58.5390   33.6880   47.2670 C   0  0  0  0  0  0  0  0  0  0  0  0
   57.8730   32.7200   46.5080 C   0  0  0  0  0  0  0  0  0  0  0  0
   57.4140   28.1780   46.3170 N   0  0  0  0  0  0  0  0  0  0  0  0
   57.0210   26.8020   46.3490 C   0  0  0  0  0  0  0  0  0  0  0  0
   57.7810   25.9660   46.9040 O   0  0  0  0  0  0  0  0  0  0  0  0
   55.8120   26.3590   45.7120 N   0  0  0  0  0  0  0  0  0  0  0  0
   55.2550   25.0270   45.9340 C   0  0  0  0  0  0  0  0  0  0  0  0
   55.9830   24.0150   45.0920 C   0  0  0  0  0  0  0  0  0  0  0  0
   55.5630   23.7410   43.7800 C   0  0  0  0  0  0  0  0  0  0  0  0
   56.2590   22.8150   42.9980 C   0  0  0  0  0  0  0  0  0  0  0  0
   57.3810   22.1610   43.5170 C   0  0  0  0  0  0  0  0  0  0  0  0
   57.8090   22.4350   44.8200 C   0  0  0  0  0  0  0  0  0  0  0  0
   57.1150   23.3610   45.6050 C   0  0  0  0  0  0  0  0  0  0  0  0
   58.5630   30.5301   45.6895 H   0  0  0  0  0  0  0  0  0  0  0  0
   58.5929   29.7219   44.0876 H   0  0  0  0  0  0  0  0  0  0  0  0
   58.5595   33.9143   43.3759 H   0  0  0  0  0  0  0  0  0  0  0  0
   59.7525   35.6378   44.7334 H   0  0  0  0  0  0  0  0  0  0  0  0
   59.7340   35.4978   47.2286 H   0  0  0  0  0  0  0  0  0  0  0  0
   58.5334   33.6248   48.3652 H   0  0  0  0  0  0  0  0  0  0  0  0
   57.3421   31.8974   47.0095 H   0  0  0  0  0  0  0  0  0  0  0  0
   55.3360   26.9810   45.0200 H   0  0  0  0  0  0  0  0  0  0  0  0
   55.3613   24.7606   46.9960 H   0  0  0  0  0  0  0  0  0  0  0  0
   54.1914   25.0303   45.6534 H   0  0  0  0  0  0  0  0  0  0  0  0
   54.6837   24.2567   43.3667 H   0  0  0  0  0  0  0  0  0  0  0  0
   55.9237   22.6002   41.9726 H   0  0  0  0  0  0  0  0  0  0  0  0
   57.9267   21.4314   42.9006 H   0  0  0  0  0  0  0  0  0  0  0  0
   58.6923   21.9216   45.2276 H   0  0  0  0  0  0  0  0  0  0  0  0
   57.4569   23.5779   46.6278 H   0  0  0  0  0  0  0  0  0  0  0  0
  1  2  2  0
  2  3  1  0
  3  4  1  0
  4  5  1  0
  5  6  2  0
  6  7  1  0
  7  8  2  0
  8  9  1  0
  9 10  2  0
  2 11  1  0
 11 12  1  0
 12 13  2  0
 12 14  1  0
 14 15  1  0
 15 16  1  0
 16 17  2  0
 17 18  1  0
 18 19  2  0
 19 20  1  0
 20 21  2  0
 10  5  1  0
 21 16  1  0
  3 22  1  0
  3 23  1  0
  6 24  1  0
  7 25  1  0
  8 26  1  0
  9 27  1  0
 10 28  1  0
 14 29  1  0
 15 30  1  0
 15 31  1  0
 17 32  1  0
 18 33  1  0
 19 34  1  0
 20 35  1  0
 21 36  1  0
M  CHG  1  11  -1
M  END
>  <UniqueID>  (4) 
4

>  <SMILES>  (4) 
O=C(CSc1ccccc1)[N-]C(=O)NCc1ccccc1

>  <Energy>  (4) 
30.3507863705988

>  <Genealogy>  (4) 
O=C(CSc1ccccc1)[N-]C(=O)NCc1ccccc1 (protonated)
O=C(CSc1ccccc1)[N-]C(=O)NCc1ccccc1 (3D coordinates assigned)
O=C(CSc1ccccc1)[N-]C(=O)NCc1ccccc1 (optimized conformer: 30.3507863705988 kcal/mol)

>  <smiles>  (4) 
O=C(CSc1ccccc1)NC(=O)NCc1ccccc1

>  <score_type>  (4) 
oracle

>  <origin>  (4) 
adg

>  <m_score__min__energy>  (4) 
-9.6199999999999992

>  <m_primary>  (4) 
energy

$$$$
4:0
     RDKit          3D

 50 52  0  0  0  0  0  0  0  0999 V2000
   56.2850   29.6790   42.8180 C   0  0  0  0  0  0  0  0  0  0  0  0
   55.9910   29.9930   44.2520 C   0  0  0  0  0  0  0  0  0  0  0  0
   55.1420   29.3030   44.8760 O   0  0  0  0  0  0  0  0  0  0  0  0
   56.6700   31.0480   44.9390 N   0  0  0  0  0  0  0  0  0  0  0  0
   57.8160   31.7690   44.3950 C   0  0  0  0  0  0  0  0  0  0  0  0
   57.4520   33.2410   44.1340 C   0  0  0  0  0  0  0  0  0  0  0  0
   57.8140   34.1570   45.2390 N   0  0  0  0  0  0  0  0  0  0  0  0
   57.6190   33.6140   46.6040 C   0  0  0  0  0  0  0  0  0  0  0  0
   58.9230   33.1180   47.2510 C   0  0  0  0  0  0  0  0  0  0  0  0
   60.0160   34.0760   47.0610 N   0  0  0  0  0  0  0  0  0  0  0  0
   61.3140   33.7880   47.6060 C   0  0  0  0  0  0  0  0  0  0  0  0
   62.3750   33.4490   46.7550 C   0  0  0  0  0  0  0  0  0  0  0  0
   63.6420   33.1770   47.2800 C   0  0  0  0  0  0  0  0  0  0  0  0
   63.8660   33.2310   48.6640 C   0  0  0  0  0  0  0  0  0  0  0  0
   65.1840   32.9710   49.1760 N   0  0  0  0  0  0  0  0  0  0  0  0
   65.4450   32.4380   50.4870 C   0  0  0  0  0  0  0  0  0  0  0  0
   64.5110   31.9080   51.1500 O   0  0  0  0  0  0  0  0  0  0  0  0
   66.8120   32.4740   51.0490 C   0  0  0  0  0  0  0  0  0  0  0  0
   67.2060   31.5960   52.0720 C   0  0  0  0  0  0  0  0  0  0  0  0
   68.4710   31.6640   52.5640 N   0  0  0  0  0  0  0  0  0  0  0  0
   69.3650   32.5670   52.0870 C   0  0  0  0  0  0  0  0  0  0  0  0
   68.9800   33.4430   51.0720 C   0  0  0  0  0  0  0  0  0  0  0  0
   67.7160   33.3770   50.5780 N   0  0  0  0  0  0  0  0  0  0  0  0
   62.8080   33.6010   49.5140 C   0  0  0  0  0  0  0  0  0  0  0  0
   61.5400   33.8720   48.9910 C   0  0  0  0  0  0  0  0  0  0  0  0
   60.5440   34.2550   49.8270 F   0  0  0  0  0  0  0  0  0  0  0  0
   59.7870   35.2950   46.2850 C   0  0  0  0  0  0  0  0  0  0  0  0
   59.0560   34.9320   44.9930 C   0  0  0  0  0  0  0  0  0  0  0  0
   57.0359   28.8770   42.7648 H   0  0  0  0  0  0  0  0  0  0  0  0
   55.3619   29.3508   42.3178 H   0  0  0  0  0  0  0  0  0  0  0  0
   56.6732   30.5785   42.3178 H   0  0  0  0  0  0  0  0  0  0  0  0
   58.6469   31.7236   45.1144 H   0  0  0  0  0  0  0  0  0  0  0  0
   58.1117   31.3016   43.4442 H   0  0  0  0  0  0  0  0  0  0  0  0
   57.9769   33.5710   43.2254 H   0  0  0  0  0  0  0  0  0  0  0  0
   56.3577   33.2842   44.0311 H   0  0  0  0  0  0  0  0  0  0  0  0
   57.1936   34.4060   47.2378 H   0  0  0  0  0  0  0  0  0  0  0  0
   56.9467   32.7476   46.5180 H   0  0  0  0  0  0  0  0  0  0  0  0
   58.7556   32.9761   48.3289 H   0  0  0  0  0  0  0  0  0  0  0  0
   59.2076   32.1703   46.7704 H   0  0  0  0  0  0  0  0  0  0  0  0
   62.2100   33.3967   45.6687 H   0  0  0  0  0  0  0  0  0  0  0  0
   64.4695   32.9187   46.6028 H   0  0  0  0  0  0  0  0  0  0  0  0
   65.9910   33.0920   48.5230 H   0  0  0  0  0  0  0  0  0  0  0  0
   66.4953   30.8581   52.4724 H   0  0  0  0  0  0  0  0  0  0  0  0
   70.3847   32.6077   52.4974 H   0  0  0  0  0  0  0  0  0  0  0  0
   69.6932   34.1805   50.6752 H   0  0  0  0  0  0  0  0  0  0  0  0
   62.9795   33.6777   50.5978 H   0  0  0  0  0  0  0  0  0  0  0  0
   59.1742   35.9957   46.8711 H   0  0  0  0  0  0  0  0  0  0  0  0
   60.7499   35.7702   46.0464 H   0  0  0  0  0  0  0  0  0  0  0  0
   58.7934   35.8600   44.4640 H   0  0  0  0  0  0  0  0  0  0  0  0
   59.7297   34.3011   44.3947 H   0  0  0  0  0  0  0  0  0  0  0  0
  1  2  1  0
  2  3  2  0
  2  4  1  0
  4  5  1  0
  5  6  1  0
  6  7  1  0
  7  8  1  0
  8  9  1  0
  9 10  1  0
 10 11  1  0
 11 12  2  0
 12 13  1  0
 13 14  2  0
 14 15  1  0
 15 16  1  0
 16 17  2  0
 16 18  1  0
 18 19  2  0
 19 20  1  0
 20 21  2  0
 21 22  1  0
 22 23  2  0
 14 24  1  0
 24 25  2  0
 25 26  1  0
 10 27  1  0
 27 28  1  0
 28  7  1  0
 25 11  1  0
 23 18  1  0
  1 29  1  0
  1 30  1  0
  1 31  1  0
  5 32  1  0
  5 33  1  0
  6 34  1  0
  6 35  1  0
  8 36  1  0
  8 37  1  0
  9 38  1  0
  9 39  1  0
 12 40  1  0
 13 41  1  0
 15 42  1  0
 19 43  1  0
 21 44  1  0
 22 45  1  0
 24 46  1  0
 27 47  1  0
 27 48  1  0
 28 49  1  0
 28 50  1  0
M  CHG  1   4  -1
M  END
>  <UniqueID>  (5) 
5

>  <SMILES>  (5) 
CC(=O)[N-]CCN1CCN(c2ccc(NC(=O)c3cnccn3)cc2F)CC1

>  <Energy>  (5) 
68.0598950861723

>  <Genealogy>  (5) 
CC(=O)[N-]CCN1CCN(c2ccc(NC(=O)c3cnccn3)cc2F)CC1 (protonated)
CC(=O)[N-]CCN1CCN(c2ccc(NC(=O)c3cnccn3)cc2F)CC1 (3D coordinates assigned)
CC(=O)[N-]CCN1CCN(c2ccc(NC(=O)c3cnccn3)cc2F)CC1 (nonaromatic ring conformer: 68.0598950861723 kcal/mol)

>  <smiles>  (5) 
CC(=O)NCCN1CCN(c2ccc(NC(=O)c3cnccn3)cc2F)CC1

>  <score_type>  (5) 
oracle

>  <origin>  (5) 
adg

>  <m_score__min__energy>  (5) 
-10.33

>  <m_primary>  (5) 
energy

$$$$
5:0
     RDKit          3D

 29 30  0  0  0  0  0  0  0  0999 V2000
   56.2830   29.7440   42.9910 C   0  0  0  0  0  0  0  0  0  0  0  0
   56.9820   29.9480   44.3300 C   0  0  0  0  0  0  0  0  0  0  0  0
   56.6670   31.2300   44.8710 O   0  0  0  0  0  0  0  0  0  0  0  0
   57.3590   32.3980   44.5370 C   0  0  0  0  0  0  0  0  0  0  0  0
   57.7840   32.5830   43.3630 O   0  0  0  0  0  0  0  0  0  0  0  0
   57.6390   33.4140   45.6030 C   0  0  1  0  0  0  0  0  0  0  0  0
   58.6400   32.8970   46.6500 C   0  0  0  0  0  0  0  0  0  0  0  0
   59.7570   33.8850   46.5240 C   0  0  0  0  0  0  0  0  0  0  0  0
   61.0070   33.8670   47.3220 C   0  0  0  0  0  0  0  0  0  0  0  0
   60.9910   34.2030   48.6890 C   0  0  0  0  0  0  0  0  0  0  0  0
   62.1720   34.1850   49.4380 C   0  0  0  0  0  0  0  0  0  0  0  0
   63.3800   33.8320   48.8330 C   0  0  0  0  0  0  0  0  0  0  0  0
   63.4100   33.4950   47.4780 C   0  0  0  0  0  0  0  0  0  0  0  0
   62.2320   33.5120   46.7240 C   0  0  0  0  0  0  0  0  0  0  0  0
   59.5180   34.7770   45.6250 N   0  0  0  0  0  0  0  0  0  0  0  0
   58.2950   34.5450   45.0530 O   0  0  0  0  0  0  0  0  0  0  0  0
   55.2402   29.4397   43.1643 H   0  0  0  0  0  0  0  0  0  0  0  0
   56.3005   30.6847   42.4212 H   0  0  0  0  0  0  0  0  0  0  0  0
   56.8038   28.9604   42.4212 H   0  0  0  0  0  0  0  0  0  0  0  0
   56.6522   29.1683   45.0324 H   0  0  0  0  0  0  0  0  0  0  0  0
   58.0693   29.8859   44.1754 H   0  0  0  0  0  0  0  0  0  0  0  0
   56.6584   33.6432   46.0456 H   0  0  0  0  0  0  0  0  0  0  0  0
   58.2053   32.9114   47.6604 H   0  0  0  0  0  0  0  0  0  0  0  0
   58.9498   31.8535   46.4913 H   0  0  0  0  0  0  0  0  0  0  0  0
   60.0426   34.4818   49.1716 H   0  0  0  0  0  0  0  0  0  0  0  0
   62.1492   34.4494   50.5055 H   0  0  0  0  0  0  0  0  0  0  0  0
   64.3079   33.8194   49.4236 H   0  0  0  0  0  0  0  0  0  0  0  0
   64.3619   33.2156   47.0028 H   0  0  0  0  0  0  0  0  0  0  0  0
   62.2624   33.2464   45.6570 H   0  0  0  0  0  0  0  0  0  0  0  0
  1  2  1  0
  2  3  1  0
  3  4  1  0
  4  5  2  0
  4  6  1  0
  6  7  1  0
  7  8  1  0
  8  9  1  0
  9 10  2  0
 10 11  1  0
 11 12  2  0
 12 13  1  0
 13 14  2  0
  8 15  2  0
 15 16  1  0
 16  6  1  0
 14  9  1  0
  1 17  1  0
  1 18  1  0
  1 19  1  0
  2 20  1  0
  2 21  1  0
  6 22  1  1
  7 23  1  0
  7 24  1  0
 10 25  1  0
 11 26  1  0
 12 27  1  0
 13 28  1  0
 14 29  1  0
M  END
>  <UniqueID>  (6) 
6

>  <SMILES>  (6) 
CCOC(=O)[C@H]1CC(c2ccccc2)=NO1

>  <Energy>  (6) 
37.80538413871825

>  <Genealogy>  (6) 
CCOC(=O)[C@H]1CC(c2ccccc2)=NO1 (chirality)
CCOC(=O)[C@H]1CC(c2ccccc2)=NO1 (3D coordinates assigned)
CCOC(=O)[C@H]1CC(c2ccccc2)=NO1 (nonaromatic ring conformer: 37.80538413871825 kcal/mol)

>  <smiles>  (6) 
CCOC(=O)C1CC(c2ccccc2)=NO1

>  <score_type>  (6) 
oracle

>  <origin>  (6) 
adg

>  <m_score__min__energy>  (6) 
-6.2300000000000004

>  <m_primary>  (6) 
energy

$$$$
6:0
     RDKit          3D

 40 42  0  0  0  0  0  0  0  0999 V2000
   52.8650   21.7350   45.2540 H   0  0  0  0  0  0  0  0  0  0  0  0
   53.0380   22.7340   45.2710 O   0  0  0  0  0  0  0  0  0  0  0  0
   54.2760   23.2540   45.6420 C   0  0  0  0  0  0  0  0  0  0  0  0
   54.5010   24.6360   45.6180 C   0  0  0  0  0  0  0  0  0  0  0  0
   53.6910   25.3158   45.3150 H   0  0  0  0  0  0  0  0  0  0  0  0
   55.7500   25.1590   45.9770 C   0  0  0  0  0  0  0  0  0  0  0  0
   55.9560   26.6270   45.9430 C   0  0  0  0  0  0  0  0  0  0  0  0
   55.0754   27.2616   45.7647 H   0  0  0  0  0  0  0  0  0  0  0  0
   57.1390   27.2380   46.1140 C   0  0  0  0  0  0  0  0  0  0  0  0
   58.0033   26.6181   46.3944 H   0  0  0  0  0  0  0  0  0  0  0  0
   57.3540   28.6940   45.9490 C   0  0  0  0  0  0  0  0  0  0  0  0
   56.4300   29.4920   45.2630 C   0  0  0  0  0  0  0  0  0  0  0  0
   55.2580   28.9470   44.7510 O   0  0  0  0  0  0  0  0  0  0  0  0
   56.6720   30.8150   45.0990 N   0  0  0  0  0  0  0  0  0  0  0  0
   57.7940   31.3970   45.5900 C   0  0  0  0  0  0  0  0  0  0  0  0
   57.9830   32.6280   45.3900 O   0  0  0  0  0  0  0  0  0  0  0  0
   58.7120   30.6510   46.2830 N   0  0  0  0  0  0  0  0  0  0  0  0
   59.9160   31.2710   46.7830 C   0  0  0  0  0  0  0  0  0  0  0  0
   61.1560   30.6290   46.6290 C   0  0  0  0  0  0  0  0  0  0  0  0
   61.2091   29.6507   46.1290 H   0  0  0  0  0  0  0  0  0  0  0  0
   62.3230   31.2310   47.1100 C   0  0  0  0  0  0  0  0  0  0  0  0
   63.2924   30.7257   46.9877 H   0  0  0  0  0  0  0  0  0  0  0  0
   62.2590   32.4740   47.7460 C   0  0  0  0  0  0  0  0  0  0  0  0
   63.1778   32.9455   48.1249 H   0  0  0  0  0  0  0  0  0  0  0  0
   61.0270   33.1190   47.9010 C   0  0  0  0  0  0  0  0  0  0  0  0
   60.9777   34.0977   48.4007 H   0  0  0  0  0  0  0  0  0  0  0  0
   59.8590   32.5200   47.4210 C   0  0  0  0  0  0  0  0  0  0  0  0
   58.8917   33.0291   47.5436 H   0  0  0  0  0  0  0  0  0  0  0  0
   58.4970   29.3110   46.4800 C   0  0  0  0  0  0  0  0  0  0  0  0
   59.3300   28.6210   47.1330 O   0  0  0  0  0  0  0  0  0  0  0  0
   56.7610   24.2840   46.4150 C   0  0  0  0  0  0  0  0  0  0  0  0
   57.7254   24.6912   46.7527 H   0  0  0  0  0  0  0  0  0  0  0  0
   56.5500   22.8940   46.4250 C   0  0  0  0  0  0  0  0  0  0  0  0
   57.5540   21.9910   46.8110 O   0  0  0  0  0  0  0  0  0  0  0  0
   58.0350   20.9260   45.9960 C   0  0  0  0  0  0  0  0  0  0  0  0
   58.4030   20.1112   46.6369 H   0  0  0  0  0  0  0  0  0  0  0  0
   57.2182   20.5526   45.3609 H   0  0  0  0  0  0  0  0  0  0  0  0
   58.8552   21.2919   45.3609 H   0  0  0  0  0  0  0  0  0  0  0  0
   55.3020   22.3860   46.0380 C   0  0  0  0  0  0  0  0  0  0  0  0
   55.0790   21.0140   46.0490 O   0  0  0  0  0  0  0  0  0  0  0  0
  1  2  1  0
  2  3  1  0
  3  4  2  0
  4  5  1  0
  4  6  1  0
  6  7  1  0
  7  8  1  0
  7  9  2  0
  9 10  1  0
  9 11  1  0
 11 12  2  0
 12 13  1  0
 12 14  1  0
 14 15  1  0
 15 16  2  0
 15 17  1  0
 17 18  1  0
 18 19  2  0
 19 20  1  0
 19 21  1  0
 21 22  1  0
 21 23  2  0
 23 24  1  0
 23 25  1  0
 25 26  1  0
 25 27  2  0
 27 28  1  0
 17 29  1  0
 29 30  2  0
  6 31  2  0
 31 32  1  0
 31 33  1  0
 33 34  1  0
 34 35  1  0
 35 36  1  0
 35 37  1  0
 35 38  1  0
 33 39  2  0
 39 40  1  0
 39  3  1  0
 29 11  1  0
 27 18  1  0
M  CHG  3  13  -1  14  -1  40  -1
M  END
>  <UniqueID>  (7) 
7

>  <SMILES>  (7) 
COc1cc(/C=C\c2c([O-])[n-]c(=O)n(-c3ccccc3)c2=O)cc(O)c1[O-]

>  <Energy>  (7) 
63.97521721191127

>  <Genealogy>  (7) 
COc1cc(C=Cc2c([O-])[n-]c(=O)n(-c3ccccc3)c2=O)cc(O)c1[O-] (protonated)
COc1cc(/C=C\c2c([O-])[n-]c(=O)n(-c3ccccc3)c2=O)cc(O)c1[O-] (cis-trans isomerization)
COc1cc(/C=C\c2c([O-])[n-]c(=O)n(-c3ccccc3)c2=O)cc(O)c1[O-] (3D coordinates assigned)
COc1cc(/C=C\c2c([O-])[n-]c(=O)n(-c3ccccc3)c2=O)cc(O)c1[O-] (optimized conformer: 63.97521721191127 kcal/mol)

>  <smiles>  (7) 
COc1cc(C=Cc2c(O)[nH]c(=O)n(-c3ccccc3)c2=O)cc(O)c1O

>  <score_type>  (7) 
oracle

>  <origin>  (7) 
adg

>  <m_score__min__energy>  (7) 
-14.140000000000001

>  <m_primary>  (7) 
energy

$$$$
7:0
     RDKit          3D

 50 52  0  0  0  0  0  0  0  0999 V2000
   52.1900   24.4500   44.8610 C   0  0  0  0  0  0  0  0  0  0  0  0
   53.5760   24.7620   45.3160 C   0  0  0  0  0  0  0  0  0  0  0  0
   54.5940   23.8520   45.5060 C   0  0  0  0  0  0  0  0  0  0  0  0
   55.6270   24.6440   45.9500 C   0  0  0  0  0  0  0  0  0  0  0  0
   56.8080   24.2120   46.2640 N   0  0  0  0  0  0  0  0  0  0  0  0
   58.2540   24.7580   45.4810 S   0  0  0  0  0  0  0  0  0  0  0  0
   57.9680   25.0290   44.0300 O   0  0  0  0  0  0  0  0  0  0  0  0
   59.3020   23.6840   45.5680 O   0  0  0  0  0  0  0  0  0  0  0  0
   58.8480   26.2080   46.2830 C   0  0  0  0  0  0  0  0  0  0  0  0
   59.9400   26.9190   45.7680 C   0  0  0  0  0  0  0  0  0  0  0  0
   60.4010   28.0680   46.4190 C   0  0  0  0  0  0  0  0  0  0  0  0
   59.7760   28.5170   47.5960 C   0  0  0  0  0  0  0  0  0  0  0  0
   60.2120   29.7090   48.2690 N   0  0  0  0  0  0  0  0  0  0  0  0
   60.6590   30.8950   47.5930 C   0  0  0  0  0  0  0  0  0  0  0  0
   61.1360   30.8180   46.4290 O   0  0  0  0  0  0  0  0  0  0  0  0
   60.6720   32.1990   48.2840 C   0  0  0  0  0  0  0  0  0  0  0  0
   59.7990   33.1920   48.0540 C   0  0  0  0  0  0  0  0  0  0  0  0
   59.0580   33.3830   46.7890 C   0  0  0  0  0  0  0  0  0  0  0  0
   59.1990   34.5820   46.0780 C   0  0  0  0  0  0  0  0  0  0  0  0
   58.5060   34.7760   44.8810 C   0  0  0  0  0  0  0  0  0  0  0  0
   57.6820   33.7680   44.3740 C   0  0  0  0  0  0  0  0  0  0  0  0
   57.5570   32.5460   45.0580 C   0  0  0  0  0  0  0  0  0  0  0  0
   56.7430   31.4750   44.5660 N   0  0  0  0  0  0  0  0  0  0  0  0
   56.8700   29.8170   45.0520 S   0  0  0  0  0  0  0  0  0  0  0  0
   57.9270   28.9650   43.9040 C   0  0  0  0  0  0  0  0  0  0  0  0
   55.5130   29.1720   45.0370 O   0  0  0  0  0  0  0  0  0  0  0  0
   57.4620   29.7330   46.4310 O   0  0  0  0  0  0  0  0  0  0  0  0
   58.2540   32.3590   46.2580 C   0  0  0  0  0  0  0  0  0  0  0  0
   58.6620   27.8190   48.0870 C   0  0  0  0  0  0  0  0  0  0  0  0
   58.2070   26.6680   47.4400 C   0  0  0  0  0  0  0  0  0  0  0  0
   55.2440   25.9350   46.0200 N   0  0  0  0  0  0  0  0  0  0  0  0
   54.0030   25.9630   45.6310 O   0  0  0  0  0  0  0  0  0  0  0  0
   51.5407   24.3038   45.7368 H   0  0  0  0  0  0  0  0  0  0  0  0
   51.8064   25.2843   44.2553 H   0  0  0  0  0  0  0  0  0  0  0  0
   52.2009   23.5318   44.2553 H   0  0  0  0  0  0  0  0  0  0  0  0
   54.5829   22.7642   45.3432 H   0  0  0  0  0  0  0  0  0  0  0  0
   60.4361   26.5727   44.8493 H   0  0  0  0  0  0  0  0  0  0  0  0
   61.2570   28.6233   46.0081 H   0  0  0  0  0  0  0  0  0  0  0  0
   60.2710   29.6910   49.3120 H   0  0  0  0  0  0  0  0  0  0  0  0
   61.4521   32.3690   49.0407 H   0  0  0  0  0  0  0  0  0  0  0  0
   59.6223   33.9150   48.8640 H   0  0  0  0  0  0  0  0  0  0  0  0
   59.8580   35.3736   46.4640 H   0  0  0  0  0  0  0  0  0  0  0  0
   58.6093   35.7256   44.3356 H   0  0  0  0  0  0  0  0  0  0  0  0
   57.1294   33.9309   43.4369 H   0  0  0  0  0  0  0  0  0  0  0  0
   58.6663   28.3690   44.4592 H   0  0  0  0  0  0  0  0  0  0  0  0
   57.3207   28.3001   43.2713 H   0  0  0  0  0  0  0  0  0  0  0  0
   58.4480   29.6987   43.2713 H   0  0  0  0  0  0  0  0  0  0  0  0
   58.1716   31.4004   46.7911 H   0  0  0  0  0  0  0  0  0  0  0  0
   58.1438   28.1808   48.9873 H   0  0  0  0  0  0  0  0  0  0  0  0
   57.3414   26.1204   47.8410 H   0  0  0  0  0  0  0  0  0  0  0  0
  1  2  1  0
  2  3  2  0
  3  4  1  0
  4  5  2  3
  5  6  1  0
  6  7  2  0
  6  8  2  0
  6  9  1  0
  9 10  2  0
 10 11  1  0
 11 12  2  0
 12 13  1  0
 13 14  1  0
 14 15  2  0
 14 16  1  0
 16 17  2  3
 17 18  1  0
 18 19  2  0
 19 20  1  0
 20 21  2  0
 21 22  1  0
 22 23  1  0
 23 24  1  0
 24 25  1  0
 24 26  2  0
 24 27  2  0
 22 28  2  0
 12 29  1  0
 29 30  2  0
  4 31  1  0
 31 32  1  0
 32  2  1  0
 30  9  1  0
 28 18  1  0
  1 33  1  0
  1 34  1  0
  1 35  1  0
  3 36  1  0
 10 37  1  0
 11 38  1  0
 13 39  1  0
 16 40  1  0
 17 41  1  0
 19 42  1  0
 20 43  1  0
 21 44  1  0
 25 45  1  0
 25 46  1  0
 25 47  1  0
 28 48  1  0
 29 49  1  0
 30 50  1  0
M  CHG  2  23  -1  31  -1
M  END
>  <UniqueID>  (8) 
8

>  <SMILES>  (8) 
Cc1cc(=NS(=O)(=O)c2ccc(NC(=O)C=Cc3cccc([N-]S(C)(=O)=O)c3)cc2)[n-]o1

>  <Energy>  (8) 
90.7725156607574

>  <Genealogy>  (8) 
Cc1cc(=NS(=O)(=O)c2ccc(NC(=O)C=Cc3cccc([N-]S(C)(=O)=O)c3)cc2)[n-]o1 (protonated)
Cc1cc(=NS(=O)(=O)c2ccc(NC(=O)C=Cc3cccc([N-]S(C)(=O)=O)c3)cc2)[n-]o1 (3D coordinates assigned)
Cc1cc(=NS(=O)(=O)c2ccc(NC(=O)C=Cc3cccc([N-]S(C)(=O)=O)c3)cc2)[n-]o1 (optimized conformer: 90.7725156607574 kcal/mol)

>  <smiles>  (8) 
Cc1cc(=NS(=O)(=O)c2ccc(NC(=O)C=Cc3cccc(NS(C)(=O)=O)c3)cc2)[nH]o1

>  <score_type>  (8) 
oracle

>  <origin>  (8) 
adg

>  <m_score__min__energy>  (8) 
-13.81

>  <m_primary>  (8) 
energy

$$$$
8:0
     RDKit          3D

 52 54  0  0  0  0  0  0  0  0999 V2000
   55.8080   29.6090   44.9080 O   0  0  0  0  0  0  0  0  0  0  0  0
   56.8830   29.3070   44.3180 C   0  0  0  0  0  0  0  0  0  0  0  0
   57.4040   30.1800   43.3040 N   0  0  0  0  0  0  0  0  0  0  0  0
   57.0250   31.5880   43.2280 C   0  0  0  0  0  0  0  0  0  0  0  0
   57.7130   32.3570   44.3220 C   0  0  0  0  0  0  0  0  0  0  0  0
   58.6070   33.3980   44.0100 C   0  0  0  0  0  0  0  0  0  0  0  0
   59.1960   34.1490   45.0310 C   0  0  0  0  0  0  0  0  0  0  0  0
   58.8910   33.8730   46.3700 C   0  0  0  0  0  0  0  0  0  0  0  0
   59.6300   34.8110   47.6530 Cl  0  0  0  0  0  0  0  0  0  0  0  0
   57.9910   32.8500   46.6850 C   0  0  0  0  0  0  0  0  0  0  0  0
   57.4000   32.0980   45.6660 C   0  0  0  0  0  0  0  0  0  0  0  0
   57.6010   28.0120   44.6470 C   0  0  0  0  0  0  0  0  0  0  0  0
   59.0930   28.0700   44.3050 C   0  0  0  0  0  0  0  0  0  0  0  0
   59.8090   29.1690   45.0920 C   0  0  0  0  0  0  0  0  0  0  0  0
   59.3840   29.2810   46.5020 N   0  0  0  0  0  0  0  0  0  0  0  0
   60.0130   30.3260   47.2860 C   0  0  0  0  0  0  0  0  0  0  0  0
   60.5820   31.2820   46.6880 O   0  0  0  0  0  0  0  0  0  0  0  0
   59.9960   30.2940   48.7740 C   0  0  0  0  0  0  0  0  0  0  0  0
   58.9230   30.5000   49.5520 C   0  0  0  0  0  0  0  0  0  0  0  0
   58.7600   31.6210   50.4990 C   0  0  0  0  0  0  0  0  0  0  0  0
   59.5660   32.7580   50.3130 C   0  0  0  0  0  0  0  0  0  0  0  0
   59.4550   33.8520   51.1710 C   0  0  0  0  0  0  0  0  0  0  0  0
   58.5340   33.8250   52.2190 C   0  0  0  0  0  0  0  0  0  0  0  0
   57.7170   32.7060   52.4110 C   0  0  0  0  0  0  0  0  0  0  0  0
   57.8010   31.5990   51.5490 C   0  0  0  0  0  0  0  0  0  0  0  0
   56.9180   30.4770   51.7590 N   0  0  0  0  0  0  0  0  0  0  0  0
   57.3650   29.3280   51.9440 O   0  0  0  0  0  0  0  0  0  0  0  0
   55.5560   30.6380   51.6340 O   0  0  0  0  0  0  0  0  0  0  0  0
   58.2250   28.5660   47.0790 C   0  0  0  0  0  0  0  0  0  0  0  0
   57.4870   27.6100   46.1210 C   0  0  0  0  0  0  0  0  0  0  0  0
   58.1450   29.8300   42.6540 H   0  0  0  0  0  0  0  0  0  0  0  0
   57.3241   31.9951   42.2509 H   0  0  0  0  0  0  0  0  0  0  0  0
   55.9354   31.6793   43.3478 H   0  0  0  0  0  0  0  0  0  0  0  0
   58.8430   33.6214   42.9591 H   0  0  0  0  0  0  0  0  0  0  0  0
   59.8996   34.9574   44.7829 H   0  0  0  0  0  0  0  0  0  0  0  0
   57.7479   32.6369   47.7364 H   0  0  0  0  0  0  0  0  0  0  0  0
   56.6865   31.2997   45.9180 H   0  0  0  0  0  0  0  0  0  0  0  0
   57.0924   27.2613   44.0243 H   0  0  0  0  0  0  0  0  0  0  0  0
   59.5526   27.1004   44.5471 H   0  0  0  0  0  0  0  0  0  0  0  0
   59.1916   28.2949   43.2328 H   0  0  0  0  0  0  0  0  0  0  0  0
   60.8886   28.9589   45.0731 H   0  0  0  0  0  0  0  0  0  0  0  0
   59.5509   30.1226   44.6081 H   0  0  0  0  0  0  0  0  0  0  0  0
   60.9489   30.0824   49.2811 H   0  0  0  0  0  0  0  0  0  0  0  0
   58.0984   29.7757   49.4786 H   0  0  0  0  0  0  0  0  0  0  0  0
   60.2894   32.7849   49.4848 H   0  0  0  0  0  0  0  0  0  0  0  0
   60.0930   34.7355   51.0217 H   0  0  0  0  0  0  0  0  0  0  0  0
   58.4502   34.6872   52.8969 H   0  0  0  0  0  0  0  0  0  0  0  0
   57.0008   32.6922   53.2458 H   0  0  0  0  0  0  0  0  0  0  0  0
   58.5835   27.9763   47.9356 H   0  0  0  0  0  0  0  0  0  0  0  0
   57.4955   29.3440   47.3483 H   0  0  0  0  0  0  0  0  0  0  0  0
   57.9108   26.6020   46.2405 H   0  0  0  0  0  0  0  0  0  0  0  0
   56.4198   27.6485   46.3848 H   0  0  0  0  0  0  0  0  0  0  0  0
  1  2  2  0
  2  3  1  0
  3  4  1  0
  4  5  1  0
  5  6  2  0
  6  7  1  0
  7  8  2  0
  8  9  1  0
  8 10  1  0
 10 11  2  0
  2 12  1  0
 12 13  1  0
 13 14  1  0
 14 15  1  0
 15 16  1  0
 16 17  2  0
 16 18  1  0
 18 19  2  3
 19 20  1  0
 20 21  2  0
 21 22  1  0
 22 23  2  0
 23 24  1  0
 24 25  2  0
 25 26  1  0
 26 27  2  0
 26 28  1  0
 15 29  1  0
 29 30  1  0
 11  5  1  0
 30 12  1  0
 25 20  1  0
  3 31  1  0
  4 32  1  0
  4 33  1  0
  6 34  1  0
  7 35  1  0
 10 36  1  0
 11 37  1  0
 12 38  1  0
 13 39  1  0
 13 40  1  0
 14 41  1  0
 14 42  1  0
 18 43  1  0
 19 44  1  0
 21 45  1  0
 22 46  1  0
 23 47  1  0
 24 48  1  0
 29 49  1  0
 29 50  1  0
 30 51  1  0
 30 52  1  0
M  CHG  2  26   1  28  -1
M  END
>  <UniqueID>  (9) 
9

>  <SMILES>  (9) 
O=C(NCc1ccc(Cl)cc1)C1CCN(C(=O)C=Cc2ccccc2[N+](=O)[O-])CC1

>  <Energy>  (9) 
64.70863083192653

>  <Genealogy>  (9) 
O=C(NCc1ccc(Cl)cc1)C1CCN(C(=O)C=Cc2ccccc2[N+](=O)[O-])CC1 (3D coordinates assigned)
O=C(NCc1ccc(Cl)cc1)C1CCN(C(=O)C=Cc2ccccc2[N+](=O)[O-])CC1 (nonaromatic ring conformer: 64.70863083192653 kcal/mol)

>  <smiles>  (9) 
O=C(NCc1ccc(Cl)cc1)C1CCN(C(=O)C=Cc2ccccc2[N+](=O)[O-])CC1

>  <score_type>  (9) 
oracle

>  <origin>  (9) 
adg

>  <m_score__min__energy>  (9) 
-10.1

>  <m_primary>  (9) 
energy

$$$$
9:0
     RDKit          3D

 44 46  0  0  0  0  0  0  0  0999 V2000
   59.8964   25.3010   46.0408 H   0  0  0  0  0  0  0  0  0  0  0  0
   58.8370   25.5950   46.0070 C   0  0  0  0  0  0  0  0  0  0  0  0
   58.4990   26.9090   45.9380 N   0  0  0  0  0  0  0  0  0  0  0  0
   57.2080   27.3380   45.8880 C   0  0  0  0  0  0  0  0  0  0  0  0
   57.0080   28.6280   45.8330 N   0  0  0  0  0  0  0  0  0  0  0  0
   56.2880   29.4170   44.8760 C   0  0  0  0  0  0  0  0  0  0  0  0
   55.1330   29.0840   44.4980 O   0  0  0  0  0  0  0  0  0  0  0  0
   56.9810   30.5150   44.1830 C   0  0  0  0  0  0  0  0  0  0  0  0
   56.6530   30.7620   42.8390 C   0  0  0  0  0  0  0  0  0  0  0  0
   55.9263   30.1139   42.3272 H   0  0  0  0  0  0  0  0  0  0  0  0
   57.2410   31.8220   42.1480 C   0  0  0  0  0  0  0  0  0  0  0  0
   56.9734   32.0085   41.0975 H   0  0  0  0  0  0  0  0  0  0  0  0
   58.1670   32.6450   42.7870 C   0  0  0  0  0  0  0  0  0  0  0  0
   58.6192   33.4882   42.2444 H   0  0  0  0  0  0  0  0  0  0  0  0
   58.5210   32.4000   44.1150 C   0  0  0  0  0  0  0  0  0  0  0  0
   59.2570   33.0505   44.6102 H   0  0  0  0  0  0  0  0  0  0  0  0
   57.9470   31.3300   44.8280 C   0  0  0  0  0  0  0  0  0  0  0  0
   58.4800   31.0270   46.2140 C   0  0  0  0  0  0  0  0  0  0  0  0
   59.3598   30.3730   46.1229 H   0  0  0  0  0  0  0  0  0  0  0  0
   57.6819   30.5347   46.7891 H   0  0  0  0  0  0  0  0  0  0  0  0
   58.8870   32.3100   46.9580 C   0  0  0  0  0  0  0  0  0  0  0  0
   58.4614   32.2817   47.9719 H   0  0  0  0  0  0  0  0  0  0  0  0
   58.5032   33.1679   46.3865 H   0  0  0  0  0  0  0  0  0  0  0  0
   60.3880   32.4570   47.0640 C   0  0  0  0  0  0  0  0  0  0  0  0
   61.1440   31.4240   47.6470 C   0  0  0  0  0  0  0  0  0  0  0  0
   60.6404   30.5129   48.0024 H   0  0  0  0  0  0  0  0  0  0  0  0
   62.5280   31.5460   47.7780 C   0  0  0  0  0  0  0  0  0  0  0  0
   63.1092   30.7362   48.2432 H   0  0  0  0  0  0  0  0  0  0  0  0
   63.1750   32.6930   47.3200 C   0  0  0  0  0  0  0  0  0  0  0  0
   64.2666   32.7845   47.4204 H   0  0  0  0  0  0  0  0  0  0  0  0
   62.4400   33.7260   46.7340 C   0  0  0  0  0  0  0  0  0  0  0  0
   62.9574   34.6255   46.3690 H   0  0  0  0  0  0  0  0  0  0  0  0
   61.0400   33.6240   46.6070 C   0  0  0  0  0  0  0  0  0  0  0  0
   60.2740   34.6550   46.0390 O   0  0  0  0  0  0  0  0  0  0  0  0
   59.2710   35.3930   46.7310 C   0  0  0  0  0  0  0  0  0  0  0  0
   59.4186   35.2844   47.8156 H   0  0  0  0  0  0  0  0  0  0  0  0
   59.3423   36.4556   46.4558 H   0  0  0  0  0  0  0  0  0  0  0  0
   58.2777   35.0088   46.4558 H   0  0  0  0  0  0  0  0  0  0  0  0
   56.1700   26.3700   45.9490 C   0  0  0  0  0  0  0  0  0  0  0  0
   54.8250   26.7090   46.0100 O   0  0  0  0  0  0  0  0  0  0  0  0
   56.5070   25.0130   46.0050 C   0  0  0  0  0  0  0  0  0  0  0  0
   55.7129   24.2521   46.0254 H   0  0  0  0  0  0  0  0  0  0  0  0
   57.8440   24.6210   46.0350 C   0  0  0  0  0  0  0  0  0  0  0  0
   58.1108   23.5548   46.0803 H   0  0  0  0  0  0  0  0  0  0  0  0
  1  2  1  0
  2  3  1  0
  3  4  1  0
  4  5  2  0
  5  6  1  0
  6  7  2  0
  6  8  1  0
  8  9  2  0
  9 10  1  0
  9 11  1  0
 11 12  1  0
 11 13  2  0
 13 14  1  0
 13 15  1  0
 15 16  1  0
 15 17  2  0
 17 18  1  0
 18 19  1  0
 18 20  1  0
 18 21  1  0
 21 22  1  0
 21 23  1  0
 21 24  1  0
 24 25  2  0
 25 26  1  0
 25 27  1  0
 27 28  1  0
 27 29  2  0
 29 30  1  0
 29 31  1  0
 31 32  1  0
 31 33  2  0
 33 34  1  0
 34 35  1  0
 35 36  1  0
 35 37  1  0
 35 38  1  0
  4 39  1  0
 39 40  1  0
 39 41  2  0
 41 42  1  0
 41 43  1  0
 43 44  1  0
 43  2  2  0
 17  8  1  0
 33 24  1  0
M  CHG  2   3  -1  40  -1
M  END
>  <UniqueID>  (10) 
10

>  <SMILES>  (10) 
COc1ccccc1CCc1ccccc1C(=O)/N=c1/[n-]cccc1[O-]

>  <Energy>  (10) 
58.64265403352096

>  <Genealogy>  (10) 
COc1ccccc1CCc1ccccc1C(=O)N=c1[n-]cccc1[O-] (protonated)
COc1ccccc1CCc1ccccc1C(=O)/N=c1/[n-]cccc1[O-] (cis-trans isomerization)
COc1ccccc1CCc1ccccc1C(=O)/N=c1/[n-]cccc1[O-] (3D coordinates assigned)
COc1ccccc1CCc1ccccc1C(=O)/N=c1/[n-]cccc1[O-] (optimized conformer: 58.64265403352096 kcal/mol)

>  <smiles>  (10) 
COc1ccccc1CCc1ccccc1C(=O)N=c1[nH]cccc1O

>  <score_type>  (10) 
oracle

>  <origin>  (10) 
adg

>  <m_score__min__energy>  (10) 
-13.98

>  <m_primary>  (10) 
energy

$$$$
10:0
     RDKit          3D

 50 52  0  0  0  0  0  0  0  0999 V2000
   62.7440   34.1970   49.2920 C   0  0  0  0  0  0  0  0  0  0  0  0
   61.6010   33.5440   48.5130 C   0  0  0  0  0  0  0  0  0  0  0  0
   60.2860   34.3320   48.6330 C   0  0  2  0  0  0  0  0  0  0  0  0
   59.5290   33.8280   49.7800 N   0  0  0  0  0  0  0  0  0  0  0  0
   59.9650   32.7910   50.6690 C   0  0  0  0  0  0  0  0  0  0  0  0
   60.3130   33.1010   51.8380 O   0  0  0  0  0  0  0  0  0  0  0  0
   60.0410   31.3810   50.2430 C   0  0  0  0  0  0  0  0  0  0  0  0
   60.2400   30.3640   51.1810 C   0  0  0  0  0  0  0  0  0  0  0  0
   60.3400   29.0430   50.7480 C   0  0  0  0  0  0  0  0  0  0  0  0
   60.2250   28.7300   49.3860 C   0  0  0  0  0  0  0  0  0  0  0  0
   60.3920   27.2980   48.9510 C   0  0  0  0  0  0  0  0  0  0  0  0
   59.9520   29.7800   48.4730 C   0  0  0  0  0  0  0  0  0  0  0  0
   59.7240   29.5470   47.0290 C   0  0  0  0  0  0  0  0  0  0  0  0
   60.7840   29.1240   46.2120 C   0  0  0  0  0  0  0  0  0  0  0  0
   60.5850   28.9210   44.8450 C   0  0  0  0  0  0  0  0  0  0  0  0
   59.3320   29.1600   44.2750 C   0  0  0  0  0  0  0  0  0  0  0  0
   58.2740   29.6190   45.0700 C   0  0  0  0  0  0  0  0  0  0  0  0
   56.6980   29.9280   44.3490 S   0  0  0  0  0  0  0  0  0  0  0  0
   55.5210   28.8860   45.0660 N   0  0  0  0  0  0  0  0  0  0  0  0
   56.7590   29.6760   42.8680 O   0  0  0  0  0  0  0  0  0  0  0  0
   56.3020   31.3600   44.5780 O   0  0  0  0  0  0  0  0  0  0  0  0
   58.4730   29.8140   46.4450 C   0  0  0  0  0  0  0  0  0  0  0  0
   59.8930   31.0600   48.9300 N   0  0  0  0  0  0  0  0  0  0  0  0
   59.4540   34.2140   47.3700 C   0  0  0  0  0  0  0  0  0  0  0  0
   58.2540   33.4800   47.3650 C   0  0  0  0  0  0  0  0  0  0  0  0
   57.4870   33.3850   46.2000 C   0  0  0  0  0  0  0  0  0  0  0  0
   57.9110   34.0180   45.0290 C   0  0  0  0  0  0  0  0  0  0  0  0
   59.1050   34.7430   45.0200 C   0  0  0  0  0  0  0  0  0  0  0  0
   59.8760   34.8390   46.1830 C   0  0  0  0  0  0  0  0  0  0  0  0
   62.5594   34.0915   50.3713 H   0  0  0  0  0  0  0  0  0  0  0  0
   63.6928   33.7047   49.0325 H   0  0  0  0  0  0  0  0  0  0  0  0
   62.8018   35.2644   49.0325 H   0  0  0  0  0  0  0  0  0  0  0  0
   61.8837   33.4877   47.4514 H   0  0  0  0  0  0  0  0  0  0  0  0
   61.4331   32.5436   48.9385 H   0  0  0  0  0  0  0  0  0  0  0  0
   60.5255   35.3958   48.7776 H   0  0  0  0  0  0  0  0  0  0  0  0
   60.3170   30.6042   52.2517 H   0  0  0  0  0  0  0  0  0  0  0  0
   60.5104   28.2400   51.4802 H   0  0  0  0  0  0  0  0  0  0  0  0
   60.4674   26.6518   49.8380 H   0  0  0  0  0  0  0  0  0  0  0  0
   59.5232   26.9941   48.3486 H   0  0  0  0  0  0  0  0  0  0  0  0
   61.3074   27.2021   48.3486 H   0  0  0  0  0  0  0  0  0  0  0  0
   61.7776   28.9514   46.6513 H   0  0  0  0  0  0  0  0  0  0  0  0
   61.4167   28.5721   44.2153 H   0  0  0  0  0  0  0  0  0  0  0  0
   59.1760   28.9874   43.1999 H   0  0  0  0  0  0  0  0  0  0  0  0
   54.5950   29.3600   44.9700 H   0  0  0  0  0  0  0  0  0  0  0  0
   57.6447   30.1783   47.0705 H   0  0  0  0  0  0  0  0  0  0  0  0
   57.9169   32.9775   48.2837 H   0  0  0  0  0  0  0  0  0  0  0  0
   56.5486   32.8112   46.2054 H   0  0  0  0  0  0  0  0  0  0  0  0
   57.3046   33.9455   44.1141 H   0  0  0  0  0  0  0  0  0  0  0  0
   59.4393   35.2391   44.0969 H   0  0  0  0  0  0  0  0  0  0  0  0
   60.8181   35.4067   46.1691 H   0  0  0  0  0  0  0  0  0  0  0  0
  1  2  1  0
  2  3  1  0
  3  4  1  0
  4  5  1  0
  5  6  2  0
  5  7  1  0
  7  8  2  0
  8  9  1  0
  9 10  2  0
 10 11  1  0
 10 12  1  0
 12 13  1  0
 13 14  2  0
 14 15  1  0
 15 16  2  0
 16 17  1  0
 17 18  1  0
 18 19  1  0
 18 20  2  0
 18 21  2  0
 17 22  2  0
 12 23  2  0
  3 24  1  0
 24 25  2  0
 25 26  1  0
 26 27  2  0
 27 28  1  0
 28 29  2  0
 23  7  1  0
 29 24  1  0
 22 13  1  0
  1 30  1  0
  1 31  1  0
  1 32  1  0
  2 33  1  0
  2 34  1  0
  3 35  1  1
  8 36  1  0
  9 37  1  0
 11 38  1  0
 11 39  1  0
 11 40  1  0
 14 41  1  0
 15 42  1  0
 16 43  1  0
 19 44  1  0
 22 45  1  0
 25 46  1  0
 26 47  1  0
 27 48  1  0
 28 49  1  0
 29 50  1  0
M  CHG  2   4  -1  19  -1
M  END
>  <UniqueID>  (11) 
11

>  <SMILES>  (11) 
CC[C@H]([N-]C(=O)c1ccc(C)c(-c2cccc(S([NH-])(=O)=O)c2)n1)c1ccccc1

>  <Energy>  (11) 
55.13440939980797

>  <Genealogy>  (11) 
CCC([N-]C(=O)c1ccc(C)c(-c2cccc(S([NH-])(=O)=O)c2)n1)c1ccccc1 (protonated)
CC[C@H]([N-]C(=O)c1ccc(C)c(-c2cccc(S([NH-])(=O)=O)c2)n1)c1ccccc1 (chirality)
CC[C@H]([N-]C(=O)c1ccc(C)c(-c2cccc(S([NH-])(=O)=O)c2)n1)c1ccccc1 (3D coordinates assigned)
CC[C@H]([N-]C(=O)c1ccc(C)c(-c2cccc(S([NH-])(=O)=O)c2)n1)c1ccccc1 (optimized conformer: 55.13440939980797 kcal/mol)

>  <smiles>  (11) 
CCC(NC(=O)c1ccc(C)c(-c2cccc(S(N)(=O)=O)c2)n1)c1ccccc1

>  <score_type>  (11) 
oracle

>  <origin>  (11) 
adg

>  <m_score__min__energy>  (11) 
-13.6

>  <m_primary>  (11) 
energy

$$$$
11:0
     RDKit          3D

 36 38  0  0  0  0  0  0  0  0999 V2000
   54.7760   27.0920   46.4350 H   0  0  0  0  0  0  0  0  0  0  0  0
   55.1260   26.2270   45.9680 N   0  0  0  0  0  0  0  0  0  0  0  0
   56.5130   26.0620   45.6730 C   0  0  0  0  0  0  0  0  0  0  0  0
   56.9810   24.8940   45.5930 O   0  0  0  0  0  0  0  0  0  0  0  0
   57.4040   27.2370   45.4730 C   0  0  0  0  0  0  0  0  0  0  0  0
   58.8000   27.0540   45.5000 C   0  0  0  0  0  0  0  0  0  0  0  0
   59.2129   26.0496   45.6754 H   0  0  0  0  0  0  0  0  0  0  0  0
   59.6660   28.1310   45.3070 C   0  0  0  0  0  0  0  0  0  0  0  0
   60.7539   27.9687   45.3184 H   0  0  0  0  0  0  0  0  0  0  0  0
   59.1570   29.4110   45.1000 C   0  0  0  0  0  0  0  0  0  0  0  0
   59.8446   30.2547   44.9406 H   0  0  0  0  0  0  0  0  0  0  0  0
   57.7750   29.6280   45.0940 C   0  0  0  0  0  0  0  0  0  0  0  0
   57.2770   30.9530   44.8580 N   0  0  0  0  0  0  0  0  0  0  0  0
   56.4340   31.0500   44.2470 H   0  0  0  0  0  0  0  0  0  0  0  0
   59.2610   33.7570   46.4690 C   0  0  0  0  0  0  0  0  0  0  0  0
   58.5290   32.1950   46.9720 S   0  0  0  0  0  0  0  0  0  0  0  0
   60.0270   34.4670   47.3110 C   0  0  0  0  0  0  0  0  0  0  0  0
   57.8630   32.0290   45.2980 C   0  0  0  0  0  0  0  0  0  0  0  0
   59.6775   35.4684   47.6025 H   0  0  0  0  0  0  0  0  0  0  0  0
   61.3070   33.9940   47.8720 C   0  0  0  0  0  0  0  0  0  0  0  0
   62.3850   33.7560   47.0060 C   0  0  0  0  0  0  0  0  0  0  0  0
   62.2594   33.8994   45.9226 H   0  0  0  0  0  0  0  0  0  0  0  0
   63.6190   33.3370   47.5150 C   0  0  0  0  0  0  0  0  0  0  0  0
   64.4567   33.1387   46.8302 H   0  0  0  0  0  0  0  0  0  0  0  0
   63.7890   33.1700   48.8920 C   0  0  0  0  0  0  0  0  0  0  0  0
   65.0150   32.7510   49.3950 O   0  0  0  0  0  0  0  0  0  0  0  0
   62.7270   33.4320   49.7640 C   0  0  0  0  0  0  0  0  0  0  0  0
   62.8641   33.3058   50.8481 H   0  0  0  0  0  0  0  0  0  0  0  0
   61.4910   33.8540   49.2620 C   0  0  0  0  0  0  0  0  0  0  0  0
   60.4580   34.1440   50.1460 O   0  0  0  0  0  0  0  0  0  0  0  0
   58.8840   34.1240   45.1000 C   0  0  0  0  0  0  0  0  0  0  0  0
   59.1690   35.2190   44.5480 O   0  0  0  0  0  0  0  0  0  0  0  0
   58.1130   33.1380   44.4410 N   0  0  0  0  0  0  0  0  0  0  0  0
   57.7830   33.2130   43.4530 H   0  0  0  0  0  0  0  0  0  0  0  0
   56.8940   28.5400   45.2510 C   0  0  0  0  0  0  0  0  0  0  0  0
   55.5240   28.7630   45.1570 O   0  0  0  0  0  0  0  0  0  0  0  0
  1  2  1  0
  2  3  1  0
  3  4  2  0
  3  5  1  0
  5  6  2  0
  6  7  1  0
  6  8  1  0
  8  9  1  0
  8 10  2  0
 10 11  1  0
 10 12  1  0
 12 13  1  0
 13 14  1  0
 13 15  2  0
 15 16  1  0
 16 17  1  0
 17 18  2  0
 18 19  1  0
 18 20  1  0
 20 21  2  0
 21 22  1  0
 21 23  1  0
 23 24  1  0
 23 25  2  0
 25 26  1  0
 25 27  1  0
 27 28  1  0
 27 29  2  0
 29 30  1  0
 17 31  1  0
 31 32  2  0
 31 33  1  0
 33 34  1  0
 12 35  2  0
 35 36  1  0
 35  5  1  0
 33 15  1  0
 29 20  1  0
M  CHG  5   2  -1  13   1  26  -1  30  -1  36  -1
M  END
>  <UniqueID>  (12) 
12

>  <SMILES>  (12) 
[NH-]C(=O)c1cccc(/[NH+]=C2/NC(=O)/C(=C\c3ccc([O-])cc3[O-])S2)c1[O-]

>  <Energy>  (12) 
76.04277273640139

>  <Genealogy>  (12) 
[NH-]C(=O)c1cccc([NH+]=C2NC(=O)C(=Cc3ccc([O-])cc3[O-])S2)c1[O-] (protonated)
[NH-]C(=O)c1cccc(/[NH+]=C2/NC(=O)/C(=C\c3ccc([O-])cc3[O-])S2)c1[O-] (cis-trans isomerization)
[NH-]C(=O)c1cccc(/[NH+]=C2/NC(=O)/C(=C\c3ccc([O-])cc3[O-])S2)c1[O-] (3D coordinates assigned)
[NH-]C(=O)c1cccc(/[NH+]=C2/NC(=O)/C(=C\c3ccc([O-])cc3[O-])S2)c1[O-] (nonaromatic ring conformer: 76.04277273640139 kcal/mol)

>  <smiles>  (12) 
NC(=O)c1cccc(N=C2NC(=O)C(=Cc3ccc(O)cc3O)S2)c1O

>  <score_type>  (12) 
oracle

>  <origin>  (12) 
adg

>  <m_score__min__energy>  (12) 
-15.880000000000001

>  <m_primary>  (12) 
energy

$$$$
12:0
     RDKit          3D

 53 55  0  0  0  0  0  0  0  0999 V2000
   63.5700   34.1350   51.1820 C   0  0  0  0  0  0  0  0  0  0  0  0
   62.9370   34.7070   50.0430 O   0  0  0  0  0  0  0  0  0  0  0  0
   62.1410   33.9940   49.1300 C   0  0  0  0  0  0  0  0  0  0  0  0
   62.5840   33.6930   47.8290 C   0  0  0  0  0  0  0  0  0  0  0  0
   61.7590   32.9910   46.9480 C   0  0  0  0  0  0  0  0  0  0  0  0
   60.4790   32.5860   47.3380 C   0  0  0  0  0  0  0  0  0  0  0  0
   59.6750   31.8600   46.3960 N   0  0  0  0  0  0  0  0  0  0  0  0
   58.4060   32.2500   45.8570 C   0  0  0  0  0  0  0  0  0  0  0  0
   57.7150   33.1490   46.4070 O   0  0  0  0  0  0  0  0  0  0  0  0
   57.9250   31.6280   44.5840 C   0  0  0  0  0  0  0  0  0  0  0  0
   57.3680   30.3010   44.8490 N   0  0  0  0  0  0  0  0  0  0  0  0
   58.0310   29.1690   45.1540 C   0  0  0  0  0  0  0  0  0  0  0  0
   59.4070   29.0650   45.3310 O   0  0  0  0  0  0  0  0  0  0  0  0
   57.1260   28.1310   45.2370 C   0  0  0  0  0  0  0  0  0  0  0  0
   57.4360   26.6950   45.5220 C   0  0  0  0  0  0  0  0  0  0  0  0
   56.3700   26.0720   46.3790 C   0  0  0  0  0  0  0  0  0  0  0  0
   56.6970   25.5390   47.4700 O   0  0  0  0  0  0  0  0  0  0  0  0
   54.9890   26.0730   45.9960 N   0  0  0  0  0  0  0  0  0  0  0  0
   54.2500   24.8910   45.5720 C   0  0  0  0  0  0  0  0  0  0  0  0
   55.2160   23.8390   45.1100 C   0  0  0  0  0  0  0  0  0  0  0  0
   55.6780   23.8380   43.7840 C   0  0  0  0  0  0  0  0  0  0  0  0
   56.6000   22.8770   43.3640 C   0  0  0  0  0  0  0  0  0  0  0  0
   57.0760   21.9180   44.2640 C   0  0  0  0  0  0  0  0  0  0  0  0
   56.6340   21.9240   45.5880 C   0  0  0  0  0  0  0  0  0  0  0  0
   55.7130   22.8850   46.0130 C   0  0  0  0  0  0  0  0  0  0  0  0
   55.8860   28.5940   44.9660 N   0  0  0  0  0  0  0  0  0  0  0  0
   56.0800   29.9120   44.7370 C   0  0  0  0  0  0  0  0  0  0  0  0
   55.1410   30.6970   44.4390 O   0  0  0  0  0  0  0  0  0  0  0  0
   60.0460   32.8540   48.6470 C   0  0  0  0  0  0  0  0  0  0  0  0
   60.8670   33.5690   49.5430 C   0  0  0  0  0  0  0  0  0  0  0  0
   60.4560   33.8750   50.8500 O   0  0  0  0  0  0  0  0  0  0  0  0
   59.2300   33.4410   51.4350 C   0  0  0  0  0  0  0  0  0  0  0  0
   63.1172   34.5441   52.0972 H   0  0  0  0  0  0  0  0  0  0  0  0
   63.4389   33.0430   51.1646 H   0  0  0  0  0  0  0  0  0  0  0  0
   64.6432   34.3757   51.1646 H   0  0  0  0  0  0  0  0  0  0  0  0
   63.5853   34.0123   47.5043 H   0  0  0  0  0  0  0  0  0  0  0  0
   62.1200   32.7541   45.9363 H   0  0  0  0  0  0  0  0  0  0  0  0
   57.1475   32.2662   44.1389 H   0  0  0  0  0  0  0  0  0  0  0  0
   58.7727   31.5295   43.8899 H   0  0  0  0  0  0  0  0  0  0  0  0
   59.9530   29.8310   45.7060 H   0  0  0  0  0  0  0  0  0  0  0  0
   57.4995   26.1455   44.5712 H   0  0  0  0  0  0  0  0  0  0  0  0
   58.3930   26.6443   46.0621 H   0  0  0  0  0  0  0  0  0  0  0  0
   53.6614   24.5035   46.4166 H   0  0  0  0  0  0  0  0  0  0  0  0
   53.5733   25.1569   44.7465 H   0  0  0  0  0  0  0  0  0  0  0  0
   55.3130   24.5955   43.0748 H   0  0  0  0  0  0  0  0  0  0  0  0
   56.9530   22.8742   42.3222 H   0  0  0  0  0  0  0  0  0  0  0  0
   57.7984   21.1593   43.9286 H   0  0  0  0  0  0  0  0  0  0  0  0
   57.0108   21.1720   46.2969 H   0  0  0  0  0  0  0  0  0  0  0  0
   55.3756   22.8944   47.0599 H   0  0  0  0  0  0  0  0  0  0  0  0
   59.0570   32.5027   48.9763 H   0  0  0  0  0  0  0  0  0  0  0  0
   59.3158   33.4714   52.5312 H   0  0  0  0  0  0  0  0  0  0  0  0
   58.4145   34.1051   51.1125 H   0  0  0  0  0  0  0  0  0  0  0  0
   59.0140   32.4118   51.1125 H   0  0  0  0  0  0  0  0  0  0  0  0
  1  2  1  0
  2  3  1  0
  3  4  2  0
  4  5  1  0
  5  6  2  0
  6  7  1  0
  7  8  1  0
  8  9  2  0
  8 10  1  0
 10 11  1  0
 11 12  1  0
 12 13  1  0
 12 14  2  0
 14 15  1  0
 15 16  1  0
 16 17  2  0
 16 18  1  0
 18 19  1  0
 19 20  1  0
 20 21  2  0
 21 22  1  0
 22 23  2  0
 23 24  1  0
 24 25  2  0
 14 26  1  0
 26 27  1  0
 27 28  2  0
  6 29  1  0
 29 30  2  0
 30 31  1  0
 31 32  1  0
 30  3  1  0
 27 11  1  0
 25 20  1  0
  1 33  1  0
  1 34  1  0
  1 35  1  0
  4 36  1  0
  5 37  1  0
 10 38  1  0
 10 39  1  0
 13 40  1  0
 15 41  1  0
 15 42  1  0
 19 43  1  0
 19 44  1  0
 21 45  1  0
 22 46  1  0
 23 47  1  0
 24 48  1  0
 25 49  1  0
 29 50  1  0
 32 51  1  0
 32 52  1  0
 32 53  1  0
M  CHG  3   7  -1  18  -1  26  -1
M  END
>  <UniqueID>  (13) 
13

>  <SMILES>  (13) 
COc1ccc([N-]C(=O)Cn2c(O)c(CC(=O)[N-]Cc3ccccc3)[n-]c2=O)cc1OC

>  <Energy>  (13) 
83.01909295045331

>  <Genealogy>  (13) 
COc1ccc([N-]C(=O)Cn2c(O)c(CC(=O)[N-]Cc3ccccc3)[n-]c2=O)cc1OC (protonated)
COc1ccc([N-]C(=O)Cn2c(O)c(CC(=O)[N-]Cc3ccccc3)[n-]c2=O)cc1OC (3D coordinates assigned)
COc1ccc([N-]C(=O)Cn2c(O)c(CC(=O)[N-]Cc3ccccc3)[n-]c2=O)cc1OC (optimized conformer: 83.01909295045331 kcal/mol)

>  <smiles>  (13) 
COc1ccc(NC(=O)Cn2c(O)c(CC(=O)NCc3ccccc3)[nH]c2=O)cc1OC

>  <score_type>  (13) 
oracle

>  <origin>  (13) 
adg

>  <m_score__min__energy>  (13) 
-13.24

>  <m_primary>  (13) 
energy

$$$$
13:0
     RDKit          3D

 35 38  0  0  0  0  0  0  0  0999 V2000
   56.5240   19.1290   43.4970 H   0  0  0  0  0  0  0  0  0  0  0  0
   57.0040   30.9400   44.8220 N   0  0  0  0  0  0  0  0  0  0  0  0
   57.1150   29.6450   44.7570 C   0  0  0  0  0  0  0  0  0  0  0  0
   56.0640   22.3340   43.0980 N   0  0  0  0  0  0  0  0  0  0  0  0
   56.7970   23.2380   43.7720 C   0  0  0  0  0  0  0  0  0  0  0  0
   56.6340   24.6210   43.7900 C   0  0  0  0  0  0  0  0  0  0  0  0
   55.8351   25.1037   43.2080 H   0  0  0  0  0  0  0  0  0  0  0  0
   57.5260   25.3890   44.5790 C   0  0  0  0  0  0  0  0  0  0  0  0
   57.3930   26.8670   44.6350 C   0  0  0  0  0  0  0  0  0  0  0  0
   56.5720   27.4830   45.5960 C   0  0  0  0  0  0  0  0  0  0  0  0
   56.0196   26.8664   46.3203 H   0  0  0  0  0  0  0  0  0  0  0  0
   56.4580   28.8350   45.6340 N   0  0  0  0  0  0  0  0  0  0  0  0
   56.6600   21.1640   43.4460 C   0  0  0  0  0  0  0  0  0  0  0  0
   56.2590   20.0140   43.0100 N   0  0  0  0  0  0  0  0  0  0  0  0
   57.9740   31.8890   44.3580 C   0  0  0  0  0  0  0  0  0  0  0  0
   58.3990   31.7940   43.1770 O   0  0  0  0  0  0  0  0  0  0  0  0
   58.4380   33.0110   45.1970 C   0  0  0  0  0  0  0  0  0  0  0  0
   58.2280   33.1230   46.8630 S   0  0  0  0  0  0  0  0  0  0  0  0
   59.0470   34.5780   47.0600 C   0  0  0  0  0  0  0  0  0  0  0  0
   59.1926   35.1124   48.0104 H   0  0  0  0  0  0  0  0  0  0  0  0
   59.5080   34.9890   45.8160 C   0  0  0  0  0  0  0  0  0  0  0  0
   60.0798   35.9162   45.6628 H   0  0  0  0  0  0  0  0  0  0  0  0
   59.1770   34.1130   44.7750 C   0  0  0  0  0  0  0  0  0  0  0  0
   59.4714   34.2789   43.7282 H   0  0  0  0  0  0  0  0  0  0  0  0
   57.9530   29.0760   43.7940 C   0  0  0  0  0  0  0  0  0  0  0  0
   58.5042   29.7179   43.0910 H   0  0  0  0  0  0  0  0  0  0  0  0
   58.0860   27.6880   43.7300 C   0  0  0  0  0  0  0  0  0  0  0  0
   58.7365   27.2350   42.9674 H   0  0  0  0  0  0  0  0  0  0  0  0
   58.5470   24.7290   45.3190 C   0  0  0  0  0  0  0  0  0  0  0  0
   59.2404   25.3211   45.9343 H   0  0  0  0  0  0  0  0  0  0  0  0
   58.6810   23.3300   45.2740 C   0  0  0  0  0  0  0  0  0  0  0  0
   59.4694   22.8149   45.8423 H   0  0  0  0  0  0  0  0  0  0  0  0
   57.7820   22.6210   44.4860 C   0  0  0  0  0  0  0  0  0  0  0  0
   57.7110   21.2990   44.2900 N   0  0  0  0  0  0  0  0  0  0  0  0
   58.3190   20.5520   44.6930 H   0  0  0  0  0  0  0  0  0  0  0  0
  1  2  1  0
  2  3  2  0
  3  4  1  0
  4  5  1  0
  5  6  2  0
  6  7  1  0
  6  8  1  0
  8  9  1  0
  9 10  2  0
 10 11  1  0
 10 12  1  0
 12 13  1  0
 13 14  2  0
 14 15  1  0
 15 16  2  0
 15 17  1  0
 17 18  1  0
 18 19  1  0
 19 20  1  0
 19 21  2  0
 21 22  1  0
 21 23  1  0
 23 24  1  0
 13 25  1  0
 25 26  1  0
 25 27  2  0
 27 28  1  0
  8 29  2  0
 29 30  1  0
 29 31  1  0
 31 32  1  0
 31 33  2  0
 33 34  1  0
 34 35  1  0
 34  3  1  0
 33  5  1  0
 27  9  1  0
 23 17  2  0
M  CHG  2   4  -1  12  -1
M  END
>  <UniqueID>  (14) 
14

>  <SMILES>  (14) 
[H]/N=c1\[n-]c2cc(-c3cc/c(=N/C(=O)c4cccs4)[n-]c3)ccc2[nH]1

>  <Energy>  (14) 
114.42591677896624

>  <Genealogy>  (14) 
N=c1[n-]c2cc(-c3ccc(=NC(=O)c4cccs4)[n-]c3)ccc2[nH]1 (protonated)
[H]/N=c1\[n-]c2cc(-c3cc/c(=N/C(=O)c4cccs4)[n-]c3)ccc2[nH]1 (cis-trans isomerization)
[H]/N=c1\[n-]c2cc(-c3cc/c(=N/C(=O)c4cccs4)[n-]c3)ccc2[nH]1 (3D coordinates assigned)
[H]/N=c1\[n-]c2cc(-c3cc/c(=N/C(=O)c4cccs4)[n-]c3)ccc2[nH]1 (optimized conformer: 114.42591677896624 kcal/mol)

>  <smiles>  (14) 
N=c1[nH]c2ccc(-c3ccc(=NC(=O)c4cccs4)[nH]c3)cc2[nH]1

>  <score_type>  (14) 
oracle

>  <origin>  (14) 
adg

>  <m_score__min__energy>  (14) 
-11.300000000000001

>  <m_primary>  (14) 
energy

$$$$
14:0
     RDKit          3D

 37 39  0  0  0  0  0  0  0  0999 V2000
   56.2440   29.5360   42.7020 C   0  0  0  0  0  0  0  0  0  0  0  0
   55.9530   30.1140   44.0540 C   0  0  0  0  0  0  0  0  0  0  0  0
   55.1370   29.5200   44.8070 O   0  0  0  0  0  0  0  0  0  0  0  0
   56.6050   31.2980   44.5340 N   0  0  0  0  0  0  0  0  0  0  0  0
   57.7160   31.3600   45.4400 C   0  0  0  0  0  0  0  0  0  0  0  0
   58.6030   32.4550   45.3480 C   0  0  0  0  0  0  0  0  0  0  0  0
   59.7270   32.5440   46.1860 C   0  0  0  0  0  0  0  0  0  0  0  0
   59.9560   31.5170   47.1010 C   0  0  0  0  0  0  0  0  0  0  0  0
   59.0970   30.4310   47.1860 C   0  0  0  0  0  0  0  0  0  0  0  0
   57.9780   30.3210   46.3580 C   0  0  0  0  0  0  0  0  0  0  0  0
   59.5400   29.5880   48.1120 C   0  0  0  0  0  0  0  0  0  0  0  0
   58.9970   28.2410   48.4830 C   0  0  0  0  0  0  0  0  0  0  0  0
   59.8820   27.1680   47.9370 C   0  0  0  0  0  0  0  0  0  0  0  0
   60.8800   26.7820   48.6050 O   0  0  0  0  0  0  0  0  0  0  0  0
   59.5830   26.5880   46.6610 N   0  0  0  0  0  0  0  0  0  0  0  0
   58.3760   25.9070   46.2960 C   0  0  0  0  0  0  0  0  0  0  0  0
   58.3790   24.5740   45.8440 C   0  0  0  0  0  0  0  0  0  0  0  0
   57.1800   23.9560   45.4700 C   0  0  0  0  0  0  0  0  0  0  0  0
   55.9770   24.6650   45.5280 C   0  0  0  0  0  0  0  0  0  0  0  0
   55.9720   25.9970   45.9520 C   0  0  0  0  0  0  0  0  0  0  0  0
   54.7770   26.7060   45.9980 O   0  0  0  0  0  0  0  0  0  0  0  0
   57.1680   26.6170   46.3270 C   0  0  0  0  0  0  0  0  0  0  0  0
   60.7580   30.2230   48.5920 C   0  0  0  0  0  0  0  0  0  0  0  0
   61.5360   29.7630   49.4690 O   0  0  0  0  0  0  0  0  0  0  0  0
   60.9660   31.4560   47.9110 N   0  0  0  0  0  0  0  0  0  0  0  0
   56.7358   28.5591   42.8190 H   0  0  0  0  0  0  0  0  0  0  0  0
   55.3026   29.4085   42.1474 H   0  0  0  0  0  0  0  0  0  0  0  0
   56.9071   30.2163   42.1474 H   0  0  0  0  0  0  0  0  0  0  0  0
   58.4113   33.2485   44.6107 H   0  0  0  0  0  0  0  0  0  0  0  0
   60.4104   33.4036   46.1219 H   0  0  0  0  0  0  0  0  0  0  0  0
   57.3161   29.4446   46.4200 H   0  0  0  0  0  0  0  0  0  0  0  0
   58.9526   28.1548   49.5787 H   0  0  0  0  0  0  0  0  0  0  0  0
   57.9879   28.1283   48.0600 H   0  0  0  0  0  0  0  0  0  0  0  0
   59.3255   24.0167   45.7845 H   0  0  0  0  0  0  0  0  0  0  0  0
   57.1846   22.9100   45.1297 H   0  0  0  0  0  0  0  0  0  0  0  0
   55.0350   24.1753   45.2403 H   0  0  0  0  0  0  0  0  0  0  0  0
   57.1607   27.6690   46.6485 H   0  0  0  0  0  0  0  0  0  0  0  0
  1  2  1  0
  2  3  2  0
  2  4  1  0
  4  5  1  0
  5  6  1  0
  6  7  2  0
  7  8  1  0
  8  9  1  0
  9 10  1  0
  9 11  2  0
 11 12  1  0
 12 13  1  0
 13 14  2  0
 13 15  1  0
 15 16  1  0
 16 17  2  0
 17 18  1  0
 18 19  2  0
 19 20  1  0
 20 21  1  0
 20 22  2  0
 11 23  1  0
 23 24  2  0
 23 25  1  0
 10  5  2  0
 22 16  1  0
 25  8  2  0
  1 26  1  0
  1 27  1  0
  1 28  1  0
  6 29  1  0
  7 30  1  0
 10 31  1  0
 12 32  1  0
 12 33  1  0
 17 34  1  0
 18 35  1  0
 19 36  1  0
 22 37  1  0
M  CHG  3   4  -1  15  -1  21  -1
M  END
>  <UniqueID>  (15) 
15

>  <SMILES>  (15) 
CC(=O)[N-]c1ccc2c(c1)=C(CC(=O)[N-]c1cccc([O-])c1)C(=O)N=2

>  <Energy>  (15) 
75.37351865335854

>  <Genealogy>  (15) 
CC(=O)[N-]c1ccc2c(c1)=C(CC(=O)[N-]c1cccc([O-])c1)C(=O)N=2 (protonated)
CC(=O)[N-]c1ccc2c(c1)=C(CC(=O)[N-]c1cccc([O-])c1)C(=O)N=2 (3D coordinates assigned)
CC(=O)[N-]c1ccc2c(c1)=C(CC(=O)[N-]c1cccc([O-])c1)C(=O)N=2 (nonaromatic ring conformer: 75.37351865335854 kcal/mol)

>  <smiles>  (15) 
CC(=O)Nc1ccc2c(c1)=C(CC(=O)Nc1cccc(O)c1)C(=O)N=2

>  <score_type>  (15) 
oracle

>  <origin>  (15) 
adg

>  <m_score__min__energy>  (15) 
-14.890000000000001

>  <m_primary>  (15) 
energy

$$$$
15:0
     RDKit          3D

 22 23  0  0  0  0  0  0  0  0999 V2000
   58.9501   27.9088   45.9032 H   0  0  0  0  0  0  0  0  0  0  0  0
   57.8830   28.1750   45.8840 C   0  0  0  0  0  0  0  0  0  0  0  0
   57.0160   27.2880   46.3950 C   0  0  0  0  0  0  0  0  0  0  0  0
   56.4575   27.5825   47.2957 H   0  0  0  0  0  0  0  0  0  0  0  0
   56.7560   25.9460   45.8380 C   0  0  0  0  0  0  0  0  0  0  0  0
   57.8410   25.1010   45.5640 C   0  0  0  0  0  0  0  0  0  0  0  0
   58.8674   25.4507   45.7491 H   0  0  0  0  0  0  0  0  0  0  0  0
   57.6250   23.8170   45.0570 C   0  0  0  0  0  0  0  0  0  0  0  0
   58.4813   23.1641   44.8323 H   0  0  0  0  0  0  0  0  0  0  0  0
   56.3230   23.3610   44.8350 C   0  0  0  0  0  0  0  0  0  0  0  0
   56.1567   22.3539   44.4249 H   0  0  0  0  0  0  0  0  0  0  0  0
   55.2310   24.1820   45.1330 C   0  0  0  0  0  0  0  0  0  0  0  0
   53.6020   23.5820   44.8660 Cl  0  0  0  0  0  0  0  0  0  0  0  0
   55.4420   25.4700   45.6460 C   0  0  0  0  0  0  0  0  0  0  0  0
   54.3500   26.2700   45.9750 O   0  0  0  0  0  0  0  0  0  0  0  0
   57.5180   29.4820   45.2970 C   0  0  0  0  0  0  0  0  0  0  0  0
   58.3450   30.5350   45.1580 N   0  0  0  0  0  0  0  0  0  0  0  0
   57.5500   31.4910   44.6310 C   0  0  0  0  0  0  0  0  0  0  0  0
   57.9720   32.6420   44.3450 O   0  0  0  0  0  0  0  0  0  0  0  0
   56.2670   31.1170   44.4380 N   0  0  0  0  0  0  0  0  0  0  0  0
   56.2640   29.8460   44.8700 C   0  0  0  0  0  0  0  0  0  0  0  0
   55.1360   29.0350   44.8740 O   0  0  0  0  0  0  0  0  0  0  0  0
  1  2  1  0
  2  3  2  0
  3  4  1  0
  3  5  1  0
  5  6  2  0
  6  7  1  0
  6  8  1  0
  8  9  1  0
  8 10  2  0
 10 11  1  0
 10 12  1  0
 12 13  1  0
 12 14  2  0
 14 15  1  0
  2 16  1  0
 16 17  1  0
 17 18  1  0
 18 19  2  0
 18 20  1  0
 20 21  1  0
 21 22  1  0
 14  5  1  0
 21 16  2  0
M  CHG  4  15  -1  17  -1  20  -1  22  -1
M  END
>  <UniqueID>  (16) 
16

>  <SMILES>  (16) 
O=c1[n-]c([O-])c(/C=C\c2cccc(Cl)c2[O-])[n-]1

>  <Energy>  (16) 
60.820804394941945

>  <Genealogy>  (16) 
O=c1[n-]c([O-])c(C=Cc2cccc(Cl)c2[O-])[n-]1 (protonated)
O=c1[n-]c([O-])c(/C=C\c2cccc(Cl)c2[O-])[n-]1 (cis-trans isomerization)
O=c1[n-]c([O-])c(/C=C\c2cccc(Cl)c2[O-])[n-]1 (3D coordinates assigned)
O=c1[n-]c([O-])c(/C=C\c2cccc(Cl)c2[O-])[n-]1 (optimized conformer: 60.820804394941945 kcal/mol)

>  <smiles>  (16) 
O=c1[nH]c(O)c(C=Cc2cccc(Cl)c2O)[nH]1

>  <score_type>  (16) 
oracle

>  <origin>  (16) 
adg

>  <m_score__min__energy>  (16) 
-16.170000000000002

>  <m_primary>  (16) 
energy

$$$$
16:0
     RDKit          3D

 54 55  0  0  0  0  0  0  0  0999 V2000
   58.0845   27.3336   45.4490 H   0  0  0  0  0  0  0  0  0  0  0  0
   57.8440   26.6270   44.6410 C   0  0  0  0  0  0  0  0  0  0  0  0
   57.8470   27.1410   43.2600 C   0  0  0  0  0  0  0  0  0  0  0  0
   58.1480   26.3860   42.2930 O   0  0  0  0  0  0  0  0  0  0  0  0
   57.5230   28.4840   43.0350 O   0  0  0  0  0  0  0  0  0  0  0  0
   56.5560   29.1910   43.8090 C   0  0  0  0  0  0  0  0  0  0  0  0
   56.3779   28.6512   44.7508 H   0  0  0  0  0  0  0  0  0  0  0  0
   55.6189   29.2634   43.2375 H   0  0  0  0  0  0  0  0  0  0  0  0
   57.0530   30.5690   44.1140 C   0  0  0  0  0  0  0  0  0  0  0  0
   57.2640   31.3780   43.1700 O   0  0  0  0  0  0  0  0  0  0  0  0
   57.3330   30.9310   45.4700 N   0  0  0  0  0  0  0  0  0  0  0  0
   58.3730   30.3780   46.2880 C   0  0  0  0  0  0  0  0  0  0  0  0
   58.4620   28.7840   46.8080 S   0  0  0  0  0  0  0  0  0  0  0  0
   59.7650   29.0010   47.8480 C   0  0  0  0  0  0  0  0  0  0  0  0
   60.2910   27.9320   48.7190 C   0  0  0  0  0  0  0  0  0  0  0  0
   60.7350   26.8720   48.1980 O   0  0  0  0  0  0  0  0  0  0  0  0
   60.2630   28.0720   50.1100 O   0  0  0  0  0  0  0  0  0  0  0  0
   61.3480   27.6860   50.9460 C   0  0  0  0  0  0  0  0  0  0  0  0
   62.0403   27.0480   50.3771 H   0  0  0  0  0  0  0  0  0  0  0  0
   60.9630   27.1279   51.8122 H   0  0  0  0  0  0  0  0  0  0  0  0
   62.0820   28.9260   51.4280 C   0  0  0  0  0  0  0  0  0  0  0  0
   62.0915   28.9421   52.5278 H   0  0  0  0  0  0  0  0  0  0  0  0
   63.1158   28.9093   51.0526 H   0  0  0  0  0  0  0  0  0  0  0  0
   61.5700   29.8243   51.0526 H   0  0  0  0  0  0  0  0  0  0  0  0
   60.1740   30.3430   47.7810 C   0  0  0  0  0  0  0  0  0  0  0  0
   61.3740   30.8810   48.5130 C   0  0  0  0  0  0  0  0  0  0  0  0
   61.2061   30.8057   49.5975 H   0  0  0  0  0  0  0  0  0  0  0  0
   62.2639   30.2957   48.2382 H   0  0  0  0  0  0  0  0  0  0  0  0
   61.5290   31.9348   48.2382 H   0  0  0  0  0  0  0  0  0  0  0  0
   59.3550   31.1290   46.9320 C   0  0  0  0  0  0  0  0  0  0  0  0
   59.4690   32.5950   46.7650 C   0  0  0  0  0  0  0  0  0  0  0  0
   60.5180   33.0910   46.2740 O   0  0  0  0  0  0  0  0  0  0  0  0
   58.4040   33.4270   47.1270 O   0  0  0  0  0  0  0  0  0  0  0  0
   57.3740   33.8250   46.2230 C   0  0  0  0  0  0  0  0  0  0  0  0
   56.6659   32.9934   46.0930 H   0  0  0  0  0  0  0  0  0  0  0  0
   56.8576   34.7031   46.6381 H   0  0  0  0  0  0  0  0  0  0  0  0
   57.9640   34.1970   44.8680 C   0  0  0  0  0  0  0  0  0  0  0  0
   58.8860   34.7783   45.0166 H   0  0  0  0  0  0  0  0  0  0  0  0
   58.1950   33.2809   44.3047 H   0  0  0  0  0  0  0  0  0  0  0  0
   57.2369   34.8003   44.3047 H   0  0  0  0  0  0  0  0  0  0  0  0
   57.5690   25.3590   44.9840 C   0  0  0  0  0  0  0  0  0  0  0  0
   58.4071   24.7247   45.3084 H   0  0  0  0  0  0  0  0  0  0  0  0
   56.2150   24.7510   44.9570 C   0  0  0  0  0  0  0  0  0  0  0  0
   55.9920   23.5050   44.3320 C   0  0  0  0  0  0  0  0  0  0  0  0
   57.0950   22.7640   43.6330 C   0  0  0  0  0  0  0  0  0  0  0  0
   57.7651   22.3138   44.3801 H   0  0  0  0  0  0  0  0  0  0  0  0
   56.6631   21.9721   43.0034 H   0  0  0  0  0  0  0  0  0  0  0  0
   57.6648   23.4632   43.0034 H   0  0  0  0  0  0  0  0  0  0  0  0
   54.7450   22.9600   44.3450 N   0  0  0  0  0  0  0  0  0  0  0  0
   53.7060   23.5830   44.9600 C   0  0  0  0  0  0  0  0  0  0  0  0
   52.5620   23.0540   44.9530 O   0  0  0  0  0  0  0  0  0  0  0  0
   53.9030   24.7660   45.5930 N   0  0  0  0  0  0  0  0  0  0  0  0
   55.1270   25.3560   45.6180 C   0  0  0  0  0  0  0  0  0  0  0  0
   55.2780   26.4350   46.2520 O   0  0  0  0  0  0  0  0  0  0  0  0
  1  2  1  0
  2  3  1  0
  3  4  2  0
  3  5  1  0
  5  6  1  0
  6  7  1  0
  6  8  1  0
  6  9  1  0
  9 10  2  0
  9 11  1  0
 11 12  1  0
 12 13  1  0
 13 14  1  0
 14 15  1  0
 15 16  2  0
 15 17  1  0
 17 18  1  0
 18 19  1  0
 18 20  1  0
 18 21  1  0
 21 22  1  0
 21 23  1  0
 21 24  1  0
 14 25  2  0
 25 26  1  0
 26 27  1  0
 26 28  1  0
 26 29  1  0
 25 30  1  0
 30 31  1  0
 31 32  2  0
 31 33  1  0
 33 34  1  0
 34 35  1  0
 34 36  1  0
 34 37  1  0
 37 38  1  0
 37 39  1  0
 37 40  1  0
  2 41  2  0
 41 42  1  0
 41 43  1  0
 43 44  2  0
 44 45  1  0
 45 46  1  0
 45 47  1  0
 45 48  1  0
 44 49  1  0
 49 50  1  0
 50 51  2  0
 50 52  1  0
 52 53  1  0
 53 54  2  0
 30 12  2  0
 53 43  1  0
M  CHG  3  11  -1  49  -1  52  -1
M  END
>  <UniqueID>  (17) 
17

>  <SMILES>  (17) 
CCOC(=O)c1sc([N-]C(=O)COC(=O)/C=C\c2c(C)[n-]c(=O)[n-]c2=O)c(C(=O)OCC)c1C

>  <Energy>  (17) 
81.57814542745521

>  <Genealogy>  (17) 
CCOC(=O)c1sc([N-]C(=O)COC(=O)C=Cc2c(C)[n-]c(=O)[n-]c2=O)c(C(=O)OCC)c1C (protonated)
CCOC(=O)c1sc([N-]C(=O)COC(=O)/C=C\c2c(C)[n-]c(=O)[n-]c2=O)c(C(=O)OCC)c1C (cis-trans isomerization)
CCOC(=O)c1sc([N-]C(=O)COC(=O)/C=C\c2c(C)[n-]c(=O)[n-]c2=O)c(C(=O)OCC)c1C (3D coordinates assigned)
CCOC(=O)c1sc([N-]C(=O)COC(=O)/C=C\c2c(C)[n-]c(=O)[n-]c2=O)c(C(=O)OCC)c1C (optimized conformer: 81.57814542745521 kcal/mol)

>  <smiles>  (17) 
CCOC(=O)c1sc(NC(=O)COC(=O)C=Cc2c(C)[nH]c(=O)[nH]c2=O)c(C(=O)OCC)c1C

>  <score_type>  (17) 
oracle

>  <origin>  (17) 
adg

>  <m_score__min__energy>  (17) 
-13.09

>  <m_primary>  (17) 
energy

$$$$
17:0
     RDKit          3D

 43 44  0  0  0  0  0  0  0  0999 V2000
   58.9650   34.8380   45.2010 C   0  0  0  0  0  0  0  0  0  0  0  0
   58.8350   33.4620   44.5530 C   0  0  0  0  0  0  0  0  0  0  0  0
   58.0810   32.5460   45.4380 N   0  0  0  0  0  0  0  0  0  0  0  0
   56.9780   31.8810   44.7060 C   0  0  0  0  0  0  0  0  0  0  0  0
   57.4180   30.4960   44.2180 C   0  0  0  0  0  0  0  0  0  0  0  0
   56.7670   29.4240   45.0330 C   0  0  0  0  0  0  0  0  0  0  0  0
   55.5440   29.1700   44.8710 O   0  0  0  0  0  0  0  0  0  0  0  0
   57.5470   28.7050   45.9950 N   0  0  0  0  0  0  0  0  0  0  0  0
   57.7730   27.2880   46.0220 C   0  0  0  0  0  0  0  0  0  0  0  0
   59.0750   26.7540   46.0030 C   0  0  0  0  0  0  0  0  0  0  0  0
   59.2710   25.3700   45.9900 C   0  0  0  0  0  0  0  0  0  0  0  0
   58.1740   24.5080   45.9810 C   0  0  0  0  0  0  0  0  0  0  0  0
   56.8780   25.0270   45.9760 C   0  0  0  0  0  0  0  0  0  0  0  0
   56.6700   26.4110   45.9910 C   0  0  0  0  0  0  0  0  0  0  0  0
   55.3600   26.8920   45.9810 O   0  0  0  0  0  0  0  0  0  0  0  0
   57.5870   33.2400   46.6540 C   0  0  0  0  0  0  0  0  0  0  0  0
   58.5580   33.0340   47.8200 C   0  0  0  0  0  0  0  0  0  0  0  0
   59.3830   31.8440   47.6210 N   0  0  0  0  0  0  0  0  0  0  0  0
   60.6050   31.8120   47.0570 C   0  0  0  0  0  0  0  0  0  0  0  0
   61.0260   30.5010   47.0160 C   0  0  0  0  0  0  0  0  0  0  0  0
   59.9900   29.7800   47.5780 C   0  0  0  0  0  0  0  0  0  0  0  0
   58.9990   30.6180   47.9380 N   0  0  0  0  0  0  0  0  0  0  0  0
   58.9548   34.7302   46.2957 H   0  0  0  0  0  0  0  0  0  0  0  0
   59.9111   35.3032   44.8871 H   0  0  0  0  0  0  0  0  0  0  0  0
   58.1228   35.4721   44.8871 H   0  0  0  0  0  0  0  0  0  0  0  0
   58.3030   33.5608   43.5953 H   0  0  0  0  0  0  0  0  0  0  0  0
   59.8408   33.0495   44.3849 H   0  0  0  0  0  0  0  0  0  0  0  0
   56.1129   31.7709   45.3764 H   0  0  0  0  0  0  0  0  0  0  0  0
   56.7063   32.4960   43.8354 H   0  0  0  0  0  0  0  0  0  0  0  0
   57.1295   30.3749   43.1634 H   0  0  0  0  0  0  0  0  0  0  0  0
   58.5096   30.4109   44.3239 H   0  0  0  0  0  0  0  0  0  0  0  0
   59.9432   27.4294   45.9983 H   0  0  0  0  0  0  0  0  0  0  0  0
   60.2917   24.9599   45.9869 H   0  0  0  0  0  0  0  0  0  0  0  0
   58.3303   23.4192   45.9778 H   0  0  0  0  0  0  0  0  0  0  0  0
   56.0155   24.3444   45.9602 H   0  0  0  0  0  0  0  0  0  0  0  0
   55.1450   27.8820   45.9840 H   0  0  0  0  0  0  0  0  0  0  0  0
   57.4954   34.3160   46.4448 H   0  0  0  0  0  0  0  0  0  0  0  0
   56.6070   32.8227   46.9288 H   0  0  0  0  0  0  0  0  0  0  0  0
   59.2126   33.9143   47.9008 H   0  0  0  0  0  0  0  0  0  0  0  0
   57.9711   32.8993   48.7405 H   0  0  0  0  0  0  0  0  0  0  0  0
   61.1698   32.6825   46.6919 H   0  0  0  0  0  0  0  0  0  0  0  0
   61.9773   30.1135   46.6225 H   0  0  0  0  0  0  0  0  0  0  0  0
   59.9766   28.6882   47.7111 H   0  0  0  0  0  0  0  0  0  0  0  0
  1  2  1  0
  2  3  1  0
  3  4  1  0
  4  5  1  0
  5  6  1  0
  6  7  2  0
  6  8  1  0
  8  9  1  0
  9 10  2  0
 10 11  1  0
 11 12  2  0
 12 13  1  0
 13 14  2  0
 14 15  1  0
  3 16  1  0
 16 17  1  0
 17 18  1  0
 18 19  1  0
 19 20  2  0
 20 21  1  0
 21 22  2  0
 14  9  1  0
 22 18  1  0
  1 23  1  0
  1 24  1  0
  1 25  1  0
  2 26  1  0
  2 27  1  0
  4 28  1  0
  4 29  1  0
  5 30  1  0
  5 31  1  0
 10 32  1  0
 11 33  1  0
 12 34  1  0
 13 35  1  0
 15 36  1  0
 16 37  1  0
 16 38  1  0
 17 39  1  0
 17 40  1  0
 19 41  1  0
 20 42  1  0
 21 43  1  0
M  CHG  1   8  -1
M  END
>  <UniqueID>  (18) 
18

>  <SMILES>  (18) 
CCN(CCC(=O)[N-]c1ccccc1O)CCn1cccn1

>  <Energy>  (18) 
69.59528783580227

>  <Genealogy>  (18) 
CCN(CCC(=O)[N-]c1ccccc1O)CCn1cccn1 (protonated)
CCN(CCC(=O)[N-]c1ccccc1O)CCn1cccn1 (3D coordinates assigned)
CCN(CCC(=O)[N-]c1ccccc1O)CCn1cccn1 (optimized conformer: 69.59528783580227 kcal/mol)

>  <smiles>  (18) 
CCN(CCC(=O)Nc1ccccc1O)CCn1cccn1

>  <score_type>  (18) 
oracle

>  <origin>  (18) 
adg

>  <m_score__min__energy>  (18) 
-9.3399999999999999

>  <m_primary>  (18) 
energy

$$$$
18:0
     RDKit          3D

 48 50  0  0  0  0  0  0  0  0999 V2000
   58.6670   31.6010   52.6250 C   0  0  0  0  0  0  0  0  0  0  0  0
   57.8550   30.9700   51.1750 S   0  0  0  0  0  0  0  0  0  0  0  0
   57.7290   32.0700   50.1590 O   0  0  0  0  0  0  0  0  0  0  0  0
   56.4870   30.4740   51.5520 O   0  0  0  0  0  0  0  0  0  0  0  0
   58.7990   29.6650   50.5250 N   0  0  0  0  0  0  0  0  0  0  0  0
   60.0890   30.1700   50.0670 C   0  0  0  0  0  0  0  0  0  0  0  0
   60.4250   29.5860   48.6930 C   0  0  0  0  0  0  0  0  0  0  0  0
   59.6550   30.2580   47.6200 N   0  0  0  0  0  0  0  0  0  0  0  0
   59.9970   31.5230   47.1850 C   0  0  0  0  0  0  0  0  0  0  0  0
   61.1780   32.2380   47.7220 C   0  0  0  0  0  0  0  0  0  0  0  0
   62.4460   32.0270   47.1590 C   0  0  0  0  0  0  0  0  0  0  0  0
   63.5630   32.6890   47.6780 C   0  0  0  0  0  0  0  0  0  0  0  0
   63.4200   33.5560   48.7660 C   0  0  0  0  0  0  0  0  0  0  0  0
   62.1610   33.7590   49.3400 C   0  0  0  0  0  0  0  0  0  0  0  0
   62.0240   34.5940   50.3980 F   0  0  0  0  0  0  0  0  0  0  0  0
   61.0420   33.0980   48.8220 C   0  0  0  0  0  0  0  0  0  0  0  0
   59.2140   32.1540   46.2010 C   0  0  0  0  0  0  0  0  0  0  0  0
   59.6020   33.7560   45.5850 Cl  0  0  0  0  0  0  0  0  0  0  0  0
   58.1330   31.5150   45.6950 N   0  0  0  0  0  0  0  0  0  0  0  0
   57.7770   30.2750   46.1130 C   0  0  0  0  0  0  0  0  0  0  0  0
   56.7300   29.6830   45.6150 N   0  0  0  0  0  0  0  0  0  0  0  0
   56.7830   28.6620   44.5730 C   0  0  0  0  0  0  0  0  0  0  0  0
   57.3370   27.3890   45.1500 C   0  0  0  0  0  0  0  0  0  0  0  0
   58.7160   27.1290   45.0800 C   0  0  0  0  0  0  0  0  0  0  0  0
   59.2440   25.9630   45.6410 C   0  0  0  0  0  0  0  0  0  0  0  0
   58.4020   25.0530   46.2870 C   0  0  0  0  0  0  0  0  0  0  0  0
   57.0320   25.3100   46.3770 C   0  0  0  0  0  0  0  0  0  0  0  0
   56.4960   26.4760   45.8180 C   0  0  0  0  0  0  0  0  0  0  0  0
   55.1320   26.7210   45.9310 O   0  0  0  0  0  0  0  0  0  0  0  0
   58.5480   29.6330   47.0920 C   0  0  0  0  0  0  0  0  0  0  0  0
   58.2100   28.4810   47.4850 O   0  0  0  0  0  0  0  0  0  0  0  0
   58.1665   31.2121   53.5240 H   0  0  0  0  0  0  0  0  0  0  0  0
   59.7196   31.2815   52.6241 H   0  0  0  0  0  0  0  0  0  0  0  0
   58.6174   32.6999   52.6241 H   0  0  0  0  0  0  0  0  0  0  0  0
   60.0456   31.2668   49.9953 H   0  0  0  0  0  0  0  0  0  0  0  0
   60.8675   29.8721   50.7848 H   0  0  0  0  0  0  0  0  0  0  0  0
   61.4997   29.7191   48.5001 H   0  0  0  0  0  0  0  0  0  0  0  0
   60.1594   28.5185   48.6948 H   0  0  0  0  0  0  0  0  0  0  0  0
   62.5614   31.3397   46.3080 H   0  0  0  0  0  0  0  0  0  0  0  0
   64.5547   32.5277   47.2303 H   0  0  0  0  0  0  0  0  0  0  0  0
   64.2990   34.0790   49.1708 H   0  0  0  0  0  0  0  0  0  0  0  0
   60.0532   33.2530   49.2783 H   0  0  0  0  0  0  0  0  0  0  0  0
   55.7696   28.4792   44.1862 H   0  0  0  0  0  0  0  0  0  0  0  0
   57.4305   29.0065   43.7532 H   0  0  0  0  0  0  0  0  0  0  0  0
   59.3835   27.8470   44.5810 H   0  0  0  0  0  0  0  0  0  0  0  0
   60.3232   25.7610   45.5742 H   0  0  0  0  0  0  0  0  0  0  0  0
   58.8187   24.1339   46.7247 H   0  0  0  0  0  0  0  0  0  0  0  0
   56.3723   24.5939   46.8888 H   0  0  0  0  0  0  0  0  0  0  0  0
  1  2  1  0
  2  3  2  0
  2  4  2  0
  2  5  1  0
  5  6  1  0
  6  7  1  0
  7  8  1  0
  8  9  1  0
  9 10  1  0
 10 11  2  0
 11 12  1  0
 12 13  2  0
 13 14  1  0
 14 15  1  0
 14 16  2  0
  9 17  2  0
 17 18  1  0
 17 19  1  0
 19 20  1  0
 20 21  2  3
 21 22  1  0
 22 23  1  0
 23 24  2  0
 24 25  1  0
 25 26  2  0
 26 27  1  0
 27 28  2  0
 28 29  1  0
 20 30  1  0
 30 31  2  0
 30  8  1  0
 16 10  1  0
 28 23  1  0
  1 32  1  0
  1 33  1  0
  1 34  1  0
  6 35  1  0
  6 36  1  0
  7 37  1  0
  7 38  1  0
 11 39  1  0
 12 40  1  0
 13 41  1  0
 16 42  1  0
 22 43  1  0
 22 44  1  0
 24 45  1  0
 25 46  1  0
 26 47  1  0
 27 48  1  0
M  CHG  3   5  -1  19  -1  29  -1
M  END
>  <UniqueID>  (19) 
19

>  <SMILES>  (19) 
CS(=O)(=O)[N-]CCn1c(-c2cccc(F)c2)c(Cl)[n-]c(=NCc2ccccc2[O-])c1=O

>  <Energy>  (19) 
55.63867722438255

>  <Genealogy>  (19) 
CS(=O)(=O)[N-]CCn1c(-c2cccc(F)c2)c(Cl)[n-]c(=NCc2ccccc2[O-])c1=O (protonated)
CS(=O)(=O)[N-]CCn1c(-c2cccc(F)c2)c(Cl)[n-]c(=NCc2ccccc2[O-])c1=O (3D coordinates assigned)
CS(=O)(=O)[N-]CCn1c(-c2cccc(F)c2)c(Cl)[n-]c(=NCc2ccccc2[O-])c1=O (optimized conformer: 55.63867722438255 kcal/mol)

>  <smiles>  (19) 
CS(=O)(=O)NCCn1c(-c2cccc(F)c2)c(Cl)[nH]c(=NCc2ccccc2O)c1=O

>  <score_type>  (19) 
oracle

>  <origin>  (19) 
adg

>  <m_score__min__energy>  (19) 
-14.34

>  <m_primary>  (19) 
energy

$$$$
19:0
     RDKit          3D

 63 66  0  0  0  0  0  0  0  0999 V2000
   55.7100   23.9370   44.3270 C   0  0  0  0  0  0  0  0  0  0  0  0
   54.7270   24.5770   45.6580 S   0  0  0  0  0  0  0  0  0  0  0  0
   53.2920   24.2340   45.3860 O   0  0  0  0  0  0  0  0  0  0  0  0
   55.1550   23.9510   46.9570 O   0  0  0  0  0  0  0  0  0  0  0  0
   54.9600   26.2960   45.7390 N   0  0  0  0  0  0  0  0  0  0  0  0
   56.2350   26.9490   45.7420 C   0  0  0  0  0  0  0  0  0  0  0  0
   57.4110   26.2630   46.0790 C   0  0  0  0  0  0  0  0  0  0  0  0
   58.6340   26.9380   46.0920 C   0  0  0  0  0  0  0  0  0  0  0  0
   58.6960   28.2900   45.7560 C   0  0  0  0  0  0  0  0  0  0  0  0
   57.5330   28.9750   45.3800 C   0  0  0  0  0  0  0  0  0  0  0  0
   57.5990   30.6950   44.9980 S   0  0  0  0  0  0  0  0  0  0  0  0
   56.2220   31.1810   44.6460 O   0  0  0  0  0  0  0  0  0  0  0  0
   58.5120   30.9480   43.8350 O   0  0  0  0  0  0  0  0  0  0  0  0
   58.1810   31.5550   46.3810 N   0  0  0  0  0  0  0  0  0  0  0  0
   58.7330   32.8640   46.2430 C   0  0  0  0  0  0  0  0  0  0  0  0
   58.6710   33.4970   44.9930 C   0  0  0  0  0  0  0  0  0  0  0  0
   59.1040   34.8170   44.8440 C   0  0  0  0  0  0  0  0  0  0  0  0
   59.6010   35.5150   45.9460 C   0  0  0  0  0  0  0  0  0  0  0  0
   59.6790   34.8910   47.1950 C   0  0  0  0  0  0  0  0  0  0  0  0
   59.2610   33.5570   47.3570 C   0  0  0  0  0  0  0  0  0  0  0  0
   59.3570   32.9320   48.6940 C   0  0  0  0  0  0  0  0  0  0  0  0
   60.4970   32.6610   49.1570 O   0  0  0  0  0  0  0  0  0  0  0  0
   58.1700   32.6330   49.4520 N   0  0  0  0  0  0  0  0  0  0  0  0
   58.1970   32.3140   50.8520 C   0  0  0  0  0  0  0  0  0  0  0  0
   59.0980   32.9440   51.7310 C   0  0  0  0  0  0  0  0  0  0  0  0
   59.1080   32.6050   53.0870 C   0  0  0  0  0  0  0  0  0  0  0  0
   58.2230   31.6390   53.5750 C   0  0  0  0  0  0  0  0  0  0  0  0
   57.3160   31.0100   52.7120 C   0  0  0  0  0  0  0  0  0  0  0  0
   56.1950   29.7940   53.3240 S   0  0  0  0  0  0  0  0  0  0  0  0
   56.9550   28.5220   53.5960 O   0  0  0  0  0  0  0  0  0  0  0  0
   55.6280   30.2730   54.6330 O   0  0  0  0  0  0  0  0  0  0  0  0
   54.8850   29.4410   52.2160 N   0  0  0  0  0  0  0  0  0  0  0  0
   54.3090   30.6470   51.5850 C   0  0  0  0  0  0  0  0  0  0  0  0
   53.1190   31.2120   52.3770 C   0  0  0  0  0  0  0  0  0  0  0  0
   52.1550   30.2090   52.6210 O   0  0  0  0  0  0  0  0  0  0  0  0
   52.7170   29.2250   53.4620 C   0  0  0  0  0  0  0  0  0  0  0  0
   53.8810   28.5070   52.7620 C   0  0  0  0  0  0  0  0  0  0  0  0
   57.3250   31.3310   51.3460 C   0  0  0  0  0  0  0  0  0  0  0  0
   56.3050   28.2980   45.3670 C   0  0  0  0  0  0  0  0  0  0  0  0
   55.1430   28.9680   45.0040 O   0  0  0  0  0  0  0  0  0  0  0  0
   56.5652   23.3802   44.7376 H   0  0  0  0  0  0  0  0  0  0  0  0
   55.0971   23.2643   43.7091 H   0  0  0  0  0  0  0  0  0  0  0  0
   56.0772   24.7697   43.7091 H   0  0  0  0  0  0  0  0  0  0  0  0
   57.3703   25.1935   46.3331 H   0  0  0  0  0  0  0  0  0  0  0  0
   59.5528   26.4003   46.3687 H   0  0  0  0  0  0  0  0  0  0  0  0
   59.6596   28.8196   45.7862 H   0  0  0  0  0  0  0  0  0  0  0  0
   58.2784   32.9500   44.1232 H   0  0  0  0  0  0  0  0  0  0  0  0
   59.0533   35.3055   43.8597 H   0  0  0  0  0  0  0  0  0  0  0  0
   59.9319   36.5578   45.8317 H   0  0  0  0  0  0  0  0  0  0  0  0
   60.0707   35.4480   48.0589 H   0  0  0  0  0  0  0  0  0  0  0  0
   57.2430   32.8220   49.0200 H   0  0  0  0  0  0  0  0  0  0  0  0
   59.7955   33.7045   51.3501 H   0  0  0  0  0  0  0  0  0  0  0  0
   59.8134   33.0991   53.7713 H   0  0  0  0  0  0  0  0  0  0  0  0
   58.2388   31.3714   54.6418 H   0  0  0  0  0  0  0  0  0  0  0  0
   55.0896   31.4194   51.5216 H   0  0  0  0  0  0  0  0  0  0  0  0
   53.9425   30.3610   50.5881 H   0  0  0  0  0  0  0  0  0  0  0  0
   53.4805   31.6058   53.3384 H   0  0  0  0  0  0  0  0  0  0  0  0
   52.6513   32.0129   51.7856 H   0  0  0  0  0  0  0  0  0  0  0  0
   53.0889   29.7047   54.3794 H   0  0  0  0  0  0  0  0  0  0  0  0
   51.9410   28.4840   53.7041 H   0  0  0  0  0  0  0  0  0  0  0  0
   54.3749   27.8465   53.4899 H   0  0  0  0  0  0  0  0  0  0  0  0
   53.4608   27.9420   51.9169 H   0  0  0  0  0  0  0  0  0  0  0  0
   56.6442   30.8089   50.6576 H   0  0  0  0  0  0  0  0  0  0  0  0
  1  2  1  0
  2  3  2  0
  2  4  2  0
  2  5  1  0
  5  6  1  0
  6  7  2  0
  7  8  1  0
  8  9  2  0
  9 10  1  0
 10 11  1  0
 11 12  2  0
 11 13  2  0
 11 14  1  0
 14 15  1  0
 15 16  2  0
 16 17  1  0
 17 18  2  0
 18 19  1  0
 19 20  2  0
 20 21  1  0
 21 22  2  0
 21 23  1  0
 23 24  1  0
 24 25  2  0
 25 26  1  0
 26 27  2  0
 27 28  1  0
 28 29  1  0
 29 30  2  0
 29 31  2  0
 29 32  1  0
 32 33  1  0
 33 34  1  0
 34 35  1  0
 35 36  1  0
 36 37  1  0
 28 38  2  0
 10 39  2  0
 39 40  1  0
 39  6  1  0
 20 15  1  0
 38 24  1  0
 37 32  1  0
  1 41  1  0
  1 42  1  0
  1 43  1  0
  7 44  1  0
  8 45  1  0
  9 46  1  0
 16 47  1  0
 17 48  1  0
 18 49  1  0
 19 50  1  0
 23 51  1  0
 25 52  1  0
 26 53  1  0
 27 54  1  0
 33 55  1  0
 33 56  1  0
 34 57  1  0
 34 58  1  0
 36 59  1  0
 36 60  1  0
 37 61  1  0
 37 62  1  0
 38 63  1  0
M  CHG  3   5  -1  14  -1  40  -1
M  END
>  <UniqueID>  (20) 
20

>  <SMILES>  (20) 
CS(=O)(=O)[N-]c1cccc(S(=O)(=O)[N-]c2ccccc2C(=O)Nc2cccc(S(=O)(=O)N3CCOCC3)c2)c1[O-]

>  <Energy>  (20) 
91.35571508224209

>  <Genealogy>  (20) 
CS(=O)(=O)[N-]c1cccc(S(=O)(=O)[N-]c2ccccc2C(=O)Nc2cccc(S(=O)(=O)N3CCOCC3)c2)c1[O-] (protonated)
CS(=O)(=O)[N-]c1cccc(S(=O)(=O)[N-]c2ccccc2C(=O)Nc2cccc(S(=O)(=O)N3CCOCC3)c2)c1[O-] (3D coordinates assigned)
CS(=O)(=O)[N-]c1cccc(S(=O)(=O)[N-]c2ccccc2C(=O)Nc2cccc(S(=O)(=O)N3CCOCC3)c2)c1[O-] (nonaromatic ring conformer: 91.35571508224209 kcal/mol)

>  <smiles>  (20) 
CS(=O)(=O)Nc1cccc(S(=O)(=O)Nc2ccccc2C(=O)Nc2cccc(S(=O)(=O)N3CCOCC3)c2)c1O

>  <score_type>  (20) 
oracle

>  <origin>  (20) 
adg

>  <m_score__min__energy>  (20) 
-18.420000000000002

>  <m_primary>  (20) 
energy

$$$$
20:0
     RDKit          3D

 54 56  0  0  0  0  0  0  0  0999 V2000
   55.9420   30.8410   44.5120 O   0  0  0  0  0  0  0  0  0  0  0  0
   56.9270   30.3430   43.9020 C   0  0  0  0  0  0  0  0  0  0  0  0
   57.0390   28.8490   43.7770 C   0  0  0  0  0  0  0  0  0  0  0  0
   57.3270   28.1660   45.1310 C   0  0  0  0  0  0  0  0  0  0  0  0
   58.6350   27.4630   45.1600 N   0  0  0  0  0  0  0  0  0  0  0  0
   59.1150   27.1230   46.5140 C   0  0  0  0  0  0  0  0  0  0  0  0
   59.3550   28.3800   47.3570 C   0  0  0  0  0  0  0  0  0  0  0  0
   59.9640   29.4460   46.5530 N   0  0  0  0  0  0  0  0  0  0  0  0
   60.1810   30.7520   47.1290 C   0  0  0  0  0  0  0  0  0  0  0  0
   61.1610   31.4500   46.7500 O   0  0  0  0  0  0  0  0  0  0  0  0
   59.2500   31.3240   48.1670 C   0  0  0  0  0  0  0  0  0  0  0  0
   59.9960   32.0740   49.2410 C   0  0  0  0  0  0  0  0  0  0  0  0
   61.3220   31.7290   49.5570 C   0  0  0  0  0  0  0  0  0  0  0  0
   62.0180   32.4280   50.5480 C   0  0  0  0  0  0  0  0  0  0  0  0
   61.3910   33.4640   51.2440 C   0  0  0  0  0  0  0  0  0  0  0  0
   60.0650   33.8000   50.9540 C   0  0  0  0  0  0  0  0  0  0  0  0
   59.3670   33.1050   49.9620 C   0  0  0  0  0  0  0  0  0  0  0  0
   60.5850   29.1050   45.2660 C   0  0  0  0  0  0  0  0  0  0  0  0
   59.6700   28.2070   44.3980 C   0  0  0  0  0  0  0  0  0  0  0  0
   57.9410   31.1980   43.3530 N   0  0  0  0  0  0  0  0  0  0  0  0
   57.7710   32.6440   43.2420 C   0  0  0  0  0  0  0  0  0  0  0  0
   58.1630   33.3240   44.5260 C   0  0  0  0  0  0  0  0  0  0  0  0
   59.2860   34.1670   44.5630 C   0  0  0  0  0  0  0  0  0  0  0  0
   59.6560   34.7960   45.7550 C   0  0  0  0  0  0  0  0  0  0  0  0
   58.9070   34.5900   46.9180 C   0  0  0  0  0  0  0  0  0  0  0  0
   57.7870   33.7560   46.8890 C   0  0  0  0  0  0  0  0  0  0  0  0
   57.4130   33.1220   45.6990 C   0  0  0  0  0  0  0  0  0  0  0  0
   56.0927   28.4559   43.3771 H   0  0  0  0  0  0  0  0  0  0  0  0
   57.8819   28.6306   43.1048 H   0  0  0  0  0  0  0  0  0  0  0  0
   57.3243   28.9340   45.9185 H   0  0  0  0  0  0  0  0  0  0  0  0
   56.5438   27.4104   45.2914 H   0  0  0  0  0  0  0  0  0  0  0  0
   58.3615   26.4962   47.0134 H   0  0  0  0  0  0  0  0  0  0  0  0
   60.0697   26.5852   46.4168 H   0  0  0  0  0  0  0  0  0  0  0  0
   58.3929   28.7350   47.7549 H   0  0  0  0  0  0  0  0  0  0  0  0
   60.0418   28.1250   48.1775 H   0  0  0  0  0  0  0  0  0  0  0  0
   58.5486   32.0133   47.6741 H   0  0  0  0  0  0  0  0  0  0  0  0
   58.7168   30.4881   48.6434 H   0  0  0  0  0  0  0  0  0  0  0  0
   61.8148   30.9042   49.0213 H   0  0  0  0  0  0  0  0  0  0  0  0
   63.0599   32.1619   50.7796 H   0  0  0  0  0  0  0  0  0  0  0  0
   61.9406   34.0159   52.0207 H   0  0  0  0  0  0  0  0  0  0  0  0
   59.5705   34.6121   51.5071 H   0  0  0  0  0  0  0  0  0  0  0  0
   58.3208   33.3657   49.7442 H   0  0  0  0  0  0  0  0  0  0  0  0
   60.7949   30.0343   44.7161 H   0  0  0  0  0  0  0  0  0  0  0  0
   61.5098   28.5466   45.4733 H   0  0  0  0  0  0  0  0  0  0  0  0
   59.1612   28.8456   43.6609 H   0  0  0  0  0  0  0  0  0  0  0  0
   60.3216   27.4511   43.9354 H   0  0  0  0  0  0  0  0  0  0  0  0
   58.8020   30.7680   42.9450 H   0  0  0  0  0  0  0  0  0  0  0  0
   58.4045   33.0208   42.4255 H   0  0  0  0  0  0  0  0  0  0  0  0
   56.7129   32.8616   43.0344 H   0  0  0  0  0  0  0  0  0  0  0  0
   59.8767   34.3328   43.6500 H   0  0  0  0  0  0  0  0  0  0  0  0
   60.5373   35.4538   45.7785 H   0  0  0  0  0  0  0  0  0  0  0  0
   59.2000   35.0849   47.8557 H   0  0  0  0  0  0  0  0  0  0  0  0
   57.1974   33.5972   47.8040 H   0  0  0  0  0  0  0  0  0  0  0  0
   56.5312   32.4646   45.6806 H   0  0  0  0  0  0  0  0  0  0  0  0
  1  2  2  0
  2  3  1  0
  3  4  1  0
  4  5  1  0
  5  6  1  0
  6  7  1  0
  7  8  1  0
  8  9  1  0
  9 10  2  0
  9 11  1  0
 11 12  1  0
 12 13  2  0
 13 14  1  0
 14 15  2  0
 15 16  1  0
 16 17  2  0
  8 18  1  0
 18 19  1  0
  2 20  1  0
 20 21  1  0
 21 22  1  0
 22 23  2  0
 23 24  1  0
 24 25  2  0
 25 26  1  0
 26 27  2  0
 19  5  1  0
 27 22  1  0
 17 12  1  0
  3 28  1  0
  3 29  1  0
  4 30  1  0
  4 31  1  0
  6 32  1  0
  6 33  1  0
  7 34  1  0
  7 35  1  0
 11 36  1  0
 11 37  1  0
 13 38  1  0
 14 39  1  0
 15 40  1  0
 16 41  1  0
 17 42  1  0
 18 43  1  0
 18 44  1  0
 19 45  1  0
 19 46  1  0
 20 47  1  0
 21 48  1  0
 21 49  1  0
 23 50  1  0
 24 51  1  0
 25 52  1  0
 26 53  1  0
 27 54  1  0
M  END
>  <UniqueID>  (21) 
21

>  <SMILES>  (21) 
O=C(CCN1CCN(C(=O)Cc2ccccc2)CC1)NCc1ccccc1

>  <Energy>  (21) 
58.786001497821985

>  <Genealogy>  (21) 
O=C(CCN1CCN(C(=O)Cc2ccccc2)CC1)NCc1ccccc1 (3D coordinates assigned)
O=C(CCN1CCN(C(=O)Cc2ccccc2)CC1)NCc1ccccc1 (nonaromatic ring conformer: 58.786001497821985 kcal/mol)

>  <smiles>  (21) 
O=C(CCN1CCN(C(=O)Cc2ccccc2)CC1)NCc1ccccc1

>  <score_type>  (21) 
oracle

>  <origin>  (21) 
adg

>  <m_score__min__energy>  (21) 
-8.5800000000000001

>  <m_primary>  (21) 
energy

$$$$
21:0
     RDKit          3D

 31 32  0  0  0  0  0  0  0  0999 V2000
   55.4640   29.8680   44.8650 O   0  0  0  0  0  0  0  0  0  0  0  0
   56.4770   30.0020   44.1260 C   0  0  0  0  0  0  0  0  0  0  0  0
   57.1490   28.7940   43.5590 C   0  0  0  0  0  0  0  0  0  0  0  0
   57.6870   27.7200   44.8810 S   0  0  0  0  0  0  0  0  0  0  0  0
   58.4080   26.5340   44.3060 O   0  0  0  0  0  0  0  0  0  0  0  0
   56.4820   27.2330   45.6380 O   0  0  0  0  0  0  0  0  0  0  0  0
   58.7710   28.5930   45.9630 C   0  0  0  0  0  0  0  0  0  0  0  0
   58.5340   28.6190   47.3460 C   0  0  0  0  0  0  0  0  0  0  0  0
   59.3560   29.3790   48.1850 C   0  0  0  0  0  0  0  0  0  0  0  0
   60.4160   30.1140   47.6480 C   0  0  0  0  0  0  0  0  0  0  0  0
   60.6590   30.0870   46.2720 C   0  0  0  0  0  0  0  0  0  0  0  0
   59.8400   29.3280   45.4300 C   0  0  0  0  0  0  0  0  0  0  0  0
   56.9950   31.3030   43.8110 N   0  0  0  0  0  0  0  0  0  0  0  0
   57.6390   32.1240   44.5970 C   0  0  0  0  0  0  0  0  0  0  0  0
   58.3470   33.2430   44.1070 C   0  0  0  0  0  0  0  0  0  0  0  0
   58.9680   34.1110   45.0050 C   0  0  0  0  0  0  0  0  0  0  0  0
   58.8810   33.8730   46.3760 C   0  0  0  0  0  0  0  0  0  0  0  0
   59.6470   34.9640   47.5160 Cl  0  0  0  0  0  0  0  0  0  0  0  0
   58.1690   32.7640   46.8310 C   0  0  0  0  0  0  0  0  0  0  0  0
   57.5670   31.9250   45.9450 N   0  0  0  0  0  0  0  0  0  0  0  0
   56.4415   28.2522   42.9141 H   0  0  0  0  0  0  0  0  0  0  0  0
   58.0231   29.1090   42.9702 H   0  0  0  0  0  0  0  0  0  0  0  0
   57.7004   28.0407   47.7711 H   0  0  0  0  0  0  0  0  0  0  0  0
   59.1676   29.3979   49.2686 H   0  0  0  0  0  0  0  0  0  0  0  0
   61.0594   30.7140   48.3084 H   0  0  0  0  0  0  0  0  0  0  0  0
   61.4957   30.6636   45.8506 H   0  0  0  0  0  0  0  0  0  0  0  0
   60.0346   29.3074   44.3475 H   0  0  0  0  0  0  0  0  0  0  0  0
   58.4084   33.4290   43.0246 H   0  0  0  0  0  0  0  0  0  0  0  0
   59.5259   34.9825   44.6319 H   0  0  0  0  0  0  0  0  0  0  0  0
   58.0936   32.5665   47.9105 H   0  0  0  0  0  0  0  0  0  0  0  0
   57.0310   31.1090   46.3190 H   0  0  0  0  0  0  0  0  0  0  0  0
  1  2  2  0
  2  3  1  0
  3  4  1  0
  4  5  2  0
  4  6  2  0
  4  7  1  0
  7  8  2  0
  8  9  1  0
  9 10  2  0
 10 11  1  0
 11 12  2  0
  2 13  1  0
 13 14  2  3
 14 15  1  0
 15 16  2  0
 16 17  1  0
 17 18  1  0
 17 19  2  0
 19 20  1  0
 12  7  1  0
 20 14  1  0
  3 21  1  0
  3 22  1  0
  8 23  1  0
  9 24  1  0
 10 25  1  0
 11 26  1  0
 12 27  1  0
 15 28  1  0
 16 29  1  0
 19 30  1  0
 20 31  1  0
M  END
>  <UniqueID>  (22) 
22

>  <SMILES>  (22) 
O=C(CS(=O)(=O)c1ccccc1)N=c1ccc(Cl)c[nH]1

>  <Energy>  (22) 
32.41115128222457

>  <Genealogy>  (22) 
O=C(CS(=O)(=O)c1ccccc1)N=c1ccc(Cl)c[nH]1 (3D coordinates assigned)
O=C(CS(=O)(=O)c1ccccc1)N=c1ccc(Cl)c[nH]1 (optimized conformer: 32.41115128222457 kcal/mol)

>  <smiles>  (22) 
O=C(CS(=O)(=O)c1ccccc1)N=c1ccc(Cl)c[nH]1

>  <score_type>  (22) 
oracle

>  <origin>  (22) 
adg

>  <m_score__min__energy>  (22) 
-7.0899999999999999

>  <m_primary>  (22) 
energy

$$$$
22:0
     RDKit          3D

 53 56  0  0  0  0  0  0  0  0999 V2000
   55.6920   30.9020   52.0970 C   0  0  0  0  0  0  0  0  0  0  0  0
   57.1320   31.1980   52.4980 C   0  0  0  0  0  0  0  0  0  0  0  0
   58.0560   31.0540   51.3170 C   0  0  0  0  0  0  0  0  0  0  0  0
   58.1430   29.8170   50.6370 C   0  0  0  0  0  0  0  0  0  0  0  0
   59.0270   29.6400   49.5420 C   0  0  0  0  0  0  0  0  0  0  0  0
   59.0750   28.5270   48.9550 O   0  0  0  0  0  0  0  0  0  0  0  0
   59.8290   30.6590   49.1140 N   0  0  0  0  0  0  0  0  0  0  0  0
   59.7720   31.8460   49.7590 C   0  0  0  0  0  0  0  0  0  0  0  0
   60.4600   32.9630   49.4830 N   0  0  0  0  0  0  0  0  0  0  0  0
   61.4720   33.1270   48.4780 C   0  0  0  0  0  0  0  0  0  0  0  0
   62.7240   32.5200   48.6700 C   0  0  0  0  0  0  0  0  0  0  0  0
   63.7420   32.6700   47.7280 C   0  0  0  0  0  0  0  0  0  0  0  0
   63.5210   33.4280   46.5790 C   0  0  0  0  0  0  0  0  0  0  0  0
   62.2800   34.0270   46.3630 C   0  0  0  0  0  0  0  0  0  0  0  0
   61.2410   33.8900   47.3030 C   0  0  0  0  0  0  0  0  0  0  0  0
   59.8790   34.4340   46.9370 C   0  0  0  0  0  0  0  0  0  0  0  0
   59.6620   34.2710   45.5020 N   0  0  0  0  0  0  0  0  0  0  0  0
   58.4310   33.7450   44.9860 C   0  0  0  0  0  0  0  0  0  0  0  0
   57.3410   33.9920   45.5680 O   0  0  0  0  0  0  0  0  0  0  0  0
   58.4500   32.8390   43.7940 C   0  0  0  0  0  0  0  0  0  0  0  0
   57.7430   31.5580   44.1350 C   0  0  0  0  0  0  0  0  0  0  0  0
   56.6660   31.1140   43.3480 C   0  0  0  0  0  0  0  0  0  0  0  0
   55.9420   29.9760   43.7190 C   0  0  0  0  0  0  0  0  0  0  0  0
   56.2890   29.2720   44.8760 C   0  0  0  0  0  0  0  0  0  0  0  0
   55.5640   28.1460   45.2480 O   0  0  0  0  0  0  0  0  0  0  0  0
   57.3620   29.7040   45.6610 C   0  0  0  0  0  0  0  0  0  0  0  0
   58.0830   30.8460   45.2970 C   0  0  0  0  0  0  0  0  0  0  0  0
   60.1180   33.8970   50.3630 N   0  0  0  0  0  0  0  0  0  0  0  0
   59.1780   33.3960   51.2100 C   0  0  0  0  0  0  0  0  0  0  0  0
   58.5540   34.2110   52.2950 C   0  0  0  0  0  0  0  0  0  0  0  0
   58.9020   32.0750   50.8680 C   0  0  0  0  0  0  0  0  0  0  0  0
   55.0782   30.7758   53.0010 H   0  0  0  0  0  0  0  0  0  0  0  0
   55.2983   31.7380   51.5002 H   0  0  0  0  0  0  0  0  0  0  0  0
   55.6600   29.9785   51.5002 H   0  0  0  0  0  0  0  0  0  0  0  0
   57.1953   32.2268   52.8822 H   0  0  0  0  0  0  0  0  0  0  0  0
   57.4368   30.4804   53.2740 H   0  0  0  0  0  0  0  0  0  0  0  0
   57.5132   28.9763   50.9635 H   0  0  0  0  0  0  0  0  0  0  0  0
   62.9039   31.9193   49.5738 H   0  0  0  0  0  0  0  0  0  0  0  0
   64.7184   32.1905   47.8917 H   0  0  0  0  0  0  0  0  0  0  0  0
   64.3271   33.5540   45.8412 H   0  0  0  0  0  0  0  0  0  0  0  0
   62.1112   34.6132   45.4476 H   0  0  0  0  0  0  0  0  0  0  0  0
   59.1033   33.8844   47.4904 H   0  0  0  0  0  0  0  0  0  0  0  0
   59.8270   35.5013   47.1979 H   0  0  0  0  0  0  0  0  0  0  0  0
   60.5010   34.2830   44.8790 H   0  0  0  0  0  0  0  0  0  0  0  0
   57.9387   33.3284   42.9519 H   0  0  0  0  0  0  0  0  0  0  0  0
   59.4908   32.6224   43.5113 H   0  0  0  0  0  0  0  0  0  0  0  0
   56.3913   31.6642   42.4360 H   0  0  0  0  0  0  0  0  0  0  0  0
   55.0991   29.6348   43.1000 H   0  0  0  0  0  0  0  0  0  0  0  0
   57.6398   29.1448   46.5666 H   0  0  0  0  0  0  0  0  0  0  0  0
   58.9200   31.1880   45.9235 H   0  0  0  0  0  0  0  0  0  0  0  0
   58.8588   33.8129   53.2741 H   0  0  0  0  0  0  0  0  0  0  0  0
   58.8849   35.2562   52.2050 H   0  0  0  0  0  0  0  0  0  0  0  0
   57.4587   34.1642   52.2050 H   0  0  0  0  0  0  0  0  0  0  0  0
  1  2  1  0
  2  3  1  0
  3  4  2  0
  4  5  1  0
  5  6  2  0
  5  7  1  0
  7  8  2  0
  8  9  1  0
  9 10  1  0
 10 11  2  0
 11 12  1  0
 12 13  2  0
 13 14  1  0
 14 15  2  0
 15 16  1  0
 16 17  1  0
 17 18  1  0
 18 19  2  0
 18 20  1  0
 20 21  1  0
 21 22  2  0
 22 23  1  0
 23 24  2  0
 24 25  1  0
 24 26  1  0
 26 27  2  0
  9 28  1  0
 28 29  1  0
 29 30  1  0
 29 31  2  0
 31  3  1  0
 31  8  1  0
 15 10  1  0
 27 21  1  0
  1 32  1  0
  1 33  1  0
  1 34  1  0
  2 35  1  0
  2 36  1  0
  4 37  1  0
 11 38  1  0
 12 39  1  0
 13 40  1  0
 14 41  1  0
 16 42  1  0
 16 43  1  0
 17 44  1  0
 20 45  1  0
 20 46  1  0
 22 47  1  0
 23 48  1  0
 26 49  1  0
 27 50  1  0
 30 51  1  0
 30 52  1  0
 30 53  1  0
M  CHG  2  25  -1  28  -1
M  END
>  <UniqueID>  (23) 
23

>  <SMILES>  (23) 
CCc1cc(=O)nc2n(-c3ccccc3CNC(=O)Cc3ccc([O-])cc3)[n-]c(C)c1-2

>  <Energy>  (23) 
94.13499885824875

>  <Genealogy>  (23) 
CCc1cc(=O)nc2n(-c3ccccc3CNC(=O)Cc3ccc([O-])cc3)[n-]c(C)c1-2 (protonated)
CCc1cc(=O)nc2n(-c3ccccc3CNC(=O)Cc3ccc([O-])cc3)[n-]c(C)c1-2 (3D coordinates assigned)
CCc1cc(=O)nc2n(-c3ccccc3CNC(=O)Cc3ccc([O-])cc3)[n-]c(C)c1-2 (optimized conformer: 94.13499885824875 kcal/mol)

>  <smiles>  (23) 
CCc1cc(=O)nc2n(-c3ccccc3CNC(=O)Cc3ccc(O)cc3)[nH]c(C)c1-2

>  <score_type>  (23) 
oracle

>  <origin>  (23) 
adg

>  <m_score__min__energy>  (23) 
-13.58

>  <m_primary>  (23) 
energy

$$$$
23:0
     RDKit          3D

 46 49  0  0  0  0  0  0  0  0999 V2000
   56.2580   25.6950   46.8350 O   0  0  0  0  0  0  0  0  0  0  0  0
   55.5270   26.3350   46.0360 C   0  0  0  0  0  0  0  0  0  0  0  0
   54.2750   25.7710   45.6320 N   0  0  0  0  0  0  0  0  0  0  0  0
   54.0400   24.3440   45.4550 C   0  0  0  0  0  0  0  0  0  0  0  0
   55.0890   23.7790   44.5570 C   0  0  0  0  0  0  0  0  0  0  0  0
   56.4180   23.6020   44.8800 C   0  0  0  0  0  0  0  0  0  0  0  0
   56.9970   23.0280   43.7690 C   0  0  0  0  0  0  0  0  0  0  0  0
   55.9840   22.8850   42.8400 C   0  0  0  0  0  0  0  0  0  0  0  0
   54.8570   23.3380   43.3410 O   0  0  0  0  0  0  0  0  0  0  0  0
   55.9450   27.6330   45.5970 N   0  0  0  0  0  0  0  0  0  0  0  0
   57.3070   28.0660   45.4910 C   0  0  0  0  0  0  0  0  0  0  0  0
   58.0440   27.8850   44.3080 C   0  0  0  0  0  0  0  0  0  0  0  0
   59.3720   28.3120   44.2360 C   0  0  0  0  0  0  0  0  0  0  0  0
   59.9800   28.9040   45.3450 C   0  0  0  0  0  0  0  0  0  0  0  0
   59.2680   29.0550   46.5480 C   0  0  0  0  0  0  0  0  0  0  0  0
   59.9230   29.7030   47.7430 C   0  0  0  0  0  0  0  0  0  0  0  0
   60.6400   30.9720   47.3580 C   0  0  0  0  0  0  0  0  0  0  0  0
   61.9880   31.0220   47.5250 N   0  0  0  0  0  0  0  0  0  0  0  0
   62.6990   32.1070   47.2250 N   0  0  0  0  0  0  0  0  0  0  0  0
   62.1130   33.2310   46.7440 C   0  0  0  0  0  0  0  0  0  0  0  0
   62.8280   34.2300   46.4630 O   0  0  0  0  0  0  0  0  0  0  0  0
   60.7220   33.2670   46.5670 C   0  0  0  0  0  0  0  0  0  0  0  0
   59.9700   32.1110   46.8590 C   0  0  0  0  0  0  0  0  0  0  0  0
   58.5410   32.1280   46.6700 N   0  0  0  0  0  0  0  0  0  0  0  0
   57.8800   33.2400   45.9930 C   0  0  0  0  0  0  0  0  0  0  0  0
   58.5610   34.5560   46.3610 C   0  0  0  0  0  0  0  0  0  0  0  0
   60.0490   34.4990   46.0020 C   0  0  0  0  0  0  0  0  0  0  0  0
   57.9280   28.6380   46.6090 C   0  0  0  0  0  0  0  0  0  0  0  0
   54.0828   23.8406   46.4321 H   0  0  0  0  0  0  0  0  0  0  0  0
   53.0478   24.1868   45.0069 H   0  0  0  0  0  0  0  0  0  0  0  0
   56.9126   23.8643   45.8269 H   0  0  0  0  0  0  0  0  0  0  0  0
   58.0520   22.7416   43.6465 H   0  0  0  0  0  0  0  0  0  0  0  0
   56.1031   22.4569   41.8338 H   0  0  0  0  0  0  0  0  0  0  0  0
   57.5738   27.4059   43.4366 H   0  0  0  0  0  0  0  0  0  0  0  0
   59.9404   28.1816   43.3033 H   0  0  0  0  0  0  0  0  0  0  0  0
   61.0207   29.2538   45.2771 H   0  0  0  0  0  0  0  0  0  0  0  0
   59.1505   29.9409   48.4890 H   0  0  0  0  0  0  0  0  0  0  0  0
   60.6617   29.0002   48.1557 H   0  0  0  0  0  0  0  0  0  0  0  0
   57.9410   31.3550   47.0260 H   0  0  0  0  0  0  0  0  0  0  0  0
   57.9398   33.0910   44.9048 H   0  0  0  0  0  0  0  0  0  0  0  0
   56.8266   33.2788   46.3075 H   0  0  0  0  0  0  0  0  0  0  0  0
   58.0848   35.3789   45.8077 H   0  0  0  0  0  0  0  0  0  0  0  0
   58.4587   34.7232   47.4434 H   0  0  0  0  0  0  0  0  0  0  0  0
   60.1498   34.4879   44.9067 H   0  0  0  0  0  0  0  0  0  0  0  0
   60.5376   35.3829   46.4378 H   0  0  0  0  0  0  0  0  0  0  0  0
   57.3609   28.7617   47.5434 H   0  0  0  0  0  0  0  0  0  0  0  0
  1  2  2  0
  2  3  1  0
  3  4  1  0
  4  5  1  0
  5  6  2  0
  6  7  1  0
  7  8  2  0
  8  9  1  0
  2 10  1  0
 10 11  1  0
 11 12  2  0
 12 13  1  0
 13 14  2  0
 14 15  1  0
 15 16  1  0
 16 17  1  0
 17 18  2  0
 18 19  1  0
 19 20  1  0
 20 21  2  0
 20 22  1  0
 22 23  2  0
 23 24  1  0
 24 25  1  0
 25 26  1  0
 26 27  1  0
 15 28  2  0
  9  5  1  0
 28 11  1  0
 23 17  1  0
 27 22  1  0
  4 29  1  0
  4 30  1  0
  6 31  1  0
  7 32  1  0
  8 33  1  0
 12 34  1  0
 13 35  1  0
 14 36  1  0
 16 37  1  0
 16 38  1  0
 24 39  1  0
 25 40  1  0
 25 41  1  0
 26 42  1  0
 26 43  1  0
 27 44  1  0
 27 45  1  0
 28 46  1  0
M  CHG  3   3  -1  10  -1  19  -1
M  END
>  <UniqueID>  (24) 
24

>  <SMILES>  (24) 
O=C([N-]Cc1ccco1)[N-]c1cccc(Cc2n[n-]c(=O)c3c2NCCC3)c1

>  <Energy>  (24) 
80.34898469693086

>  <Genealogy>  (24) 
O=C([N-]Cc1ccco1)[N-]c1cccc(Cc2n[n-]c(=O)c3c2NCCC3)c1 (protonated)
O=C([N-]Cc1ccco1)[N-]c1cccc(Cc2n[n-]c(=O)c3c2NCCC3)c1 (3D coordinates assigned)
O=C([N-]Cc1ccco1)[N-]c1cccc(Cc2n[n-]c(=O)c3c2NCCC3)c1 (nonaromatic ring conformer: 80.34898469693086 kcal/mol)

>  <smiles>  (24) 
O=C(NCc1ccco1)Nc1cccc(Cc2n[nH]c(=O)c3c2NCCC3)c1

>  <score_type>  (24) 
oracle

>  <origin>  (24) 
adg

>  <m_score__min__energy>  (24) 
-13.84

>  <m_primary>  (24) 
energy

$$$$
24:0
     RDKit          3D

 55 57  0  0  0  0  0  0  0  0999 V2000
   50.8800   24.3650   43.8960 C   0  0  0  0  0  0  0  0  0  0  0  0
   52.1160   24.1070   44.7460 C   0  0  0  0  0  0  0  0  0  0  0  0
   52.2130   22.7240   45.0120 O   0  0  0  0  0  0  0  0  0  0  0  0
   52.5660   22.5040   46.3680 C   0  0  0  0  0  0  0  0  0  0  0  0
   53.7770   23.3630   46.7460 C   0  0  0  0  0  0  0  0  0  0  0  0
   54.9340   22.9650   46.0100 O   0  0  0  0  0  0  0  0  0  0  0  0
   55.5790   23.7880   45.0750 C   0  0  0  0  0  0  0  0  0  0  0  0
   55.4590   23.5500   43.8390 O   0  0  0  0  0  0  0  0  0  0  0  0
   56.4090   24.9340   45.5280 C   0  0  0  0  0  0  0  0  0  0  0  0
   57.8110   24.8050   45.5700 C   0  0  0  0  0  0  0  0  0  0  0  0
   58.6180   25.8610   46.0020 C   0  0  0  0  0  0  0  0  0  0  0  0
   60.3520   25.5930   46.1330 Cl  0  0  0  0  0  0  0  0  0  0  0  0
   58.0320   27.0860   46.3740 C   0  0  0  0  0  0  0  0  0  0  0  0
   58.8210   28.1820   46.8510 N   0  0  0  0  0  0  0  0  0  0  0  0
   58.9870   29.4370   46.1810 C   0  0  0  0  0  0  0  0  0  0  0  0
   60.1540   29.8480   45.9440 O   0  0  0  0  0  0  0  0  0  0  0  0
   57.8180   30.3290   45.8590 C   0  0  0  0  0  0  0  0  0  0  0  0
   58.2080   31.7290   45.9940 N   0  0  0  0  0  0  0  0  0  0  0  0
   58.6300   32.5760   44.9400 C   0  0  0  0  0  0  0  0  0  0  0  0
   58.3510   32.3700   43.7300 O   0  0  0  0  0  0  0  0  0  0  0  0
   59.4130   33.6780   45.3750 N   0  0  0  0  0  0  0  0  0  0  0  0
   59.5710   33.5690   46.8330 C   0  0  2  0  0  0  0  0  0  0  0  0
   58.9400   34.8010   47.4970 C   0  0  0  0  0  0  0  0  0  0  0  0
   61.0380   33.4060   47.2320 C   0  0  0  0  0  0  0  0  0  0  0  0
   61.4160   32.7810   48.4420 C   0  0  0  0  0  0  0  0  0  0  0  0
   62.7650   32.6790   48.7990 C   0  0  0  0  0  0  0  0  0  0  0  0
   63.7540   33.1800   47.9540 C   0  0  0  0  0  0  0  0  0  0  0  0
   63.4000   33.7790   46.7440 C   0  0  0  0  0  0  0  0  0  0  0  0
   62.0570   33.8900   46.3830 C   0  0  0  0  0  0  0  0  0  0  0  0
   58.7850   32.3200   47.1510 C   0  0  0  0  0  0  0  0  0  0  0  0
   58.6280   31.8520   48.3100 O   0  0  0  0  0  0  0  0  0  0  0  0
   56.6400   27.2140   46.3610 C   0  0  0  0  0  0  0  0  0  0  0  0
   55.8290   26.1570   45.9350 C   0  0  0  0  0  0  0  0  0  0  0  0
   54.4500   26.3410   45.9230 O   0  0  0  0  0  0  0  0  0  0  0  0
   50.0153   24.5455   44.5516 H   0  0  0  0  0  0  0  0  0  0  0  0
   51.0492   25.2472   43.2611 H   0  0  0  0  0  0  0  0  0  0  0  0
   50.6822   23.4888   43.2611 H   0  0  0  0  0  0  0  0  0  0  0  0
   53.0125   24.4416   44.2035 H   0  0  0  0  0  0  0  0  0  0  0  0
   52.0374   24.6619   45.6925 H   0  0  0  0  0  0  0  0  0  0  0  0
   51.7157   22.7711   47.0127 H   0  0  0  0  0  0  0  0  0  0  0  0
   52.8222   21.4430   46.5044 H   0  0  0  0  0  0  0  0  0  0  0  0
   53.5541   24.4171   46.5242 H   0  0  0  0  0  0  0  0  0  0  0  0
   53.9804   23.2307   47.8189 H   0  0  0  0  0  0  0  0  0  0  0  0
   58.2776   23.8590   45.2581 H   0  0  0  0  0  0  0  0  0  0  0  0
   57.4889   30.1402   44.8265 H   0  0  0  0  0  0  0  0  0  0  0  0
   56.9957   30.1137   46.5572 H   0  0  0  0  0  0  0  0  0  0  0  0
   58.9938   34.6960   48.5907 H   0  0  0  0  0  0  0  0  0  0  0  0
   59.4864   35.7043   47.1881 H   0  0  0  0  0  0  0  0  0  0  0  0
   57.8877   34.8854   47.1881 H   0  0  0  0  0  0  0  0  0  0  0  0
   60.6430   32.3712   49.1088 H   0  0  0  0  0  0  0  0  0  0  0  0
   63.0460   32.2019   49.7495 H   0  0  0  0  0  0  0  0  0  0  0  0
   64.8132   33.1033   48.2407 H   0  0  0  0  0  0  0  0  0  0  0  0
   64.1820   34.1646   46.0733 H   0  0  0  0  0  0  0  0  0  0  0  0
   61.7888   34.3602   45.4254 H   0  0  0  0  0  0  0  0  0  0  0  0
   56.1773   28.1564   46.6894 H   0  0  0  0  0  0  0  0  0  0  0  0
  1  2  1  0
  2  3  1  0
  3  4  1  0
  4  5  1  0
  5  6  1  0
  6  7  1  0
  7  8  2  0
  7  9  1  0
  9 10  2  0
 10 11  1  0
 11 12  1  0
 11 13  2  0
 13 14  1  0
 14 15  1  0
 15 16  2  0
 15 17  1  0
 17 18  1  0
 18 19  1  0
 19 20  2  0
 19 21  1  0
 21 22  1  0
 22 23  1  1
 22 24  1  0
 24 25  2  0
 25 26  1  0
 26 27  2  0
 27 28  1  0
 28 29  2  0
 22 30  1  0
 30 31  2  0
 13 32  1  0
 32 33  2  0
 33 34  1  0
 33  9  1  0
 30 18  1  0
 29 24  1  0
  1 35  1  0
  1 36  1  0
  1 37  1  0
  2 38  1  0
  2 39  1  0
  4 40  1  0
  4 41  1  0
  5 42  1  0
  5 43  1  0
 10 44  1  0
 17 45  1  0
 17 46  1  0
 23 47  1  0
 23 48  1  0
 23 49  1  0
 25 50  1  0
 26 51  1  0
 27 52  1  0
 28 53  1  0
 29 54  1  0
 32 55  1  0
M  CHG  3  14  -1  21  -1  34  -1
M  END
>  <UniqueID>  (25) 
25

>  <SMILES>  (25) 
CCOCCOC(=O)c1cc(Cl)c([N-]C(=O)CN2C(=O)[N-][C@](C)(c3ccccc3)C2=O)cc1[O-]

>  <Energy>  (25) 
80.54757167291446

>  <Genealogy>  (25) 
CCOCCOC(=O)c1cc(Cl)c([N-]C(=O)CN2C(=O)[N-]C(C)(c3ccccc3)C2=O)cc1[O-] (protonated)
CCOCCOC(=O)c1cc(Cl)c([N-]C(=O)CN2C(=O)[N-][C@](C)(c3ccccc3)C2=O)cc1[O-] (chirality)
CCOCCOC(=O)c1cc(Cl)c([N-]C(=O)CN2C(=O)[N-][C@](C)(c3ccccc3)C2=O)cc1[O-] (3D coordinates assigned)
CCOCCOC(=O)c1cc(Cl)c([N-]C(=O)CN2C(=O)[N-][C@](C)(c3ccccc3)C2=O)cc1[O-] (nonaromatic ring conformer: 80.54757167291446 kcal/mol)

>  <smiles>  (25) 
CCOCCOC(=O)c1cc(Cl)c(NC(=O)CN2C(=O)NC(C)(c3ccccc3)C2=O)cc1O

>  <score_type>  (25) 
oracle

>  <origin>  (25) 
adg

>  <m_score__min__energy>  (25) 
-16.02

>  <m_primary>  (25) 
energy

$$$$
25:0
     RDKit          3D

 53 55  0  0  0  0  0  0  0  0999 V2000
   57.2530   30.4940   45.7100 O   0  0  0  0  0  0  0  0  0  0  0  0
   56.5760   29.8740   44.8480 C   0  0  0  0  0  0  0  0  0  0  0  0
   56.6230   30.3240   43.4100 C   0  0  0  0  0  0  0  0  0  0  0  0
   57.7380   31.3500   43.1650 C   0  0  0  0  0  0  0  0  0  0  0  0
   57.4430   32.7060   43.8210 C   0  0  0  0  0  0  0  0  0  0  0  0
   58.6390   33.5470   43.8640 N   0  0  0  0  0  0  0  0  0  0  0  0
   59.0730   34.3180   44.9920 C   0  0  0  0  0  0  0  0  0  0  0  0
   59.2290   35.5600   44.8570 O   0  0  0  0  0  0  0  0  0  0  0  0
   59.3360   33.7010   46.3070 C   0  0  0  0  0  0  0  0  0  0  0  0
   59.2850   34.4730   47.4770 C   0  0  0  0  0  0  0  0  0  0  0  0
   59.5150   33.8830   48.7220 C   0  0  0  0  0  0  0  0  0  0  0  0
   59.8080   32.5160   48.8110 C   0  0  0  0  0  0  0  0  0  0  0  0
   60.0670   31.7680   50.3850 S   0  0  0  0  0  0  0  0  0  0  0  0
   60.4990   32.8120   51.3770 O   0  0  0  0  0  0  0  0  0  0  0  0
   61.1510   30.7360   50.2490 O   0  0  0  0  0  0  0  0  0  0  0  0
   58.5950   31.0040   50.9340 N   0  0  0  0  0  0  0  0  0  0  0  0
   57.7080   31.9980   51.5560 C   0  0  0  0  0  0  0  0  0  0  0  0
   56.4000   31.3190   52.0130 C   0  0  0  0  0  0  0  0  0  0  0  0
   56.4760   29.9050   51.9570 O   0  0  0  0  0  0  0  0  0  0  0  0
   57.6380   29.4590   52.6270 C   0  0  0  0  0  0  0  0  0  0  0  0
   58.9110   29.9340   51.8970 C   0  0  0  0  0  0  0  0  0  0  0  0
   59.8460   31.7390   47.6460 C   0  0  0  0  0  0  0  0  0  0  0  0
   59.6000   32.3260   46.4010 C   0  0  0  0  0  0  0  0  0  0  0  0
   55.9060   28.6680   45.2350 N   0  0  0  0  0  0  0  0  0  0  0  0
   56.5460   27.4590   45.6610 C   0  0  0  0  0  0  0  0  0  0  0  0
   57.9400   27.4360   45.7850 C   0  0  0  0  0  0  0  0  0  0  0  0
   58.5910   26.2780   46.2230 C   0  0  0  0  0  0  0  0  0  0  0  0
   57.8480   25.1450   46.5610 C   0  0  0  0  0  0  0  0  0  0  0  0
   56.4550   25.1660   46.4630 C   0  0  0  0  0  0  0  0  0  0  0  0
   55.7990   26.3210   46.0230 C   0  0  0  0  0  0  0  0  0  0  0  0
   54.4090   26.3380   45.9710 O   0  0  0  0  0  0  0  0  0  0  0  0
   56.7997   29.4476   42.7692 H   0  0  0  0  0  0  0  0  0  0  0  0
   55.6619   30.8033   43.1723 H   0  0  0  0  0  0  0  0  0  0  0  0
   58.6778   30.9551   43.5782 H   0  0  0  0  0  0  0  0  0  0  0  0
   57.8104   31.5124   42.0795 H   0  0  0  0  0  0  0  0  0  0  0  0
   56.6628   33.2219   43.2421 H   0  0  0  0  0  0  0  0  0  0  0  0
   57.1074   32.5267   44.8531 H   0  0  0  0  0  0  0  0  0  0  0  0
   59.0628   35.5485   47.4138 H   0  0  0  0  0  0  0  0  0  0  0  0
   59.4659   34.4937   49.6356 H   0  0  0  0  0  0  0  0  0  0  0  0
   58.2120   32.4428   52.4267 H   0  0  0  0  0  0  0  0  0  0  0  0
   57.4722   32.7833   50.8227 H   0  0  0  0  0  0  0  0  0  0  0  0
   56.1892   31.6205   53.0497 H   0  0  0  0  0  0  0  0  0  0  0  0
   55.6000   31.6387   51.3291 H   0  0  0  0  0  0  0  0  0  0  0  0
   57.6394   29.8601   53.6513 H   0  0  0  0  0  0  0  0  0  0  0  0
   57.6329   28.3592   52.6449 H   0  0  0  0  0  0  0  0  0  0  0  0
   59.6296   30.3159   52.6371 H   0  0  0  0  0  0  0  0  0  0  0  0
   59.3409   29.0827   51.3489 H   0  0  0  0  0  0  0  0  0  0  0  0
   60.0700   30.6640   47.7108 H   0  0  0  0  0  0  0  0  0  0  0  0
   59.6135   31.7074   45.4915 H   0  0  0  0  0  0  0  0  0  0  0  0
   58.5264   28.3329   45.5368 H   0  0  0  0  0  0  0  0  0  0  0  0
   59.6881   26.2599   46.3012 H   0  0  0  0  0  0  0  0  0  0  0  0
   58.3607   24.2346   46.9050 H   0  0  0  0  0  0  0  0  0  0  0  0
   55.8723   24.2727   46.7323 H   0  0  0  0  0  0  0  0  0  0  0  0
  1  2  2  0
  2  3  1  0
  3  4  1  0
  4  5  1  0
  5  6  1  0
  6  7  1  0
  7  8  2  0
  7  9  1  0
  9 10  2  0
 10 11  1  0
 11 12  2  0
 12 13  1  0
 13 14  2  0
 13 15  2  0
 13 16  1  0
 16 17  1  0
 17 18  1  0
 18 19  1  0
 19 20  1  0
 20 21  1  0
 12 22  1  0
 22 23  2  0
  2 24  1  0
 24 25  1  0
 25 26  2  0
 26 27  1  0
 27 28  2  0
 28 29  1  0
 29 30  2  0
 30 31  1  0
 23  9  1  0
 30 25  1  0
 21 16  1  0
  3 32  1  0
  3 33  1  0
  4 34  1  0
  4 35  1  0
  5 36  1  0
  5 37  1  0
 10 38  1  0
 11 39  1  0
 17 40  1  0
 17 41  1  0
 18 42  1  0
 18 43  1  0
 20 44  1  0
 20 45  1  0
 21 46  1  0
 21 47  1  0
 22 48  1  0
 23 49  1  0
 26 50  1  0
 27 51  1  0
 28 52  1  0
 29 53  1  0
M  CHG  3   6  -1  24  -1  31  -1
M  END
>  <UniqueID>  (26) 
26

>  <SMILES>  (26) 
O=C(CCC[N-]C(=O)c1ccc(S(=O)(=O)N2CCOCC2)cc1)[N-]c1ccccc1[O-]

>  <Energy>  (26) 
64.75627654371617

>  <Genealogy>  (26) 
O=C(CCC[N-]C(=O)c1ccc(S(=O)(=O)N2CCOCC2)cc1)[N-]c1ccccc1[O-] (protonated)
O=C(CCC[N-]C(=O)c1ccc(S(=O)(=O)N2CCOCC2)cc1)[N-]c1ccccc1[O-] (3D coordinates assigned)
O=C(CCC[N-]C(=O)c1ccc(S(=O)(=O)N2CCOCC2)cc1)[N-]c1ccccc1[O-] (nonaromatic ring conformer: 64.75627654371617 kcal/mol)

>  <smiles>  (26) 
O=C(CCCNC(=O)c1ccc(S(=O)(=O)N2CCOCC2)cc1)Nc1ccccc1O

>  <score_type>  (26) 
oracle

>  <origin>  (26) 
adg

>  <m_score__min__energy>  (26) 
-16.43

>  <m_primary>  (26) 
energy

$$$$
26:0
     RDKit          3D

 54 57  0  0  0  0  0  0  0  0999 V2000
   60.3560   34.6010   46.3170 C   0  0  0  0  0  0  0  0  0  0  0  0
   61.4820   33.9340   47.0750 C   0  0  0  0  0  0  0  0  0  0  0  0
   62.6810   33.6600   46.3930 C   0  0  0  0  0  0  0  0  0  0  0  0
   63.7510   33.0560   47.0510 C   0  0  0  0  0  0  0  0  0  0  0  0
   63.6500   32.7360   48.4040 C   0  0  0  0  0  0  0  0  0  0  0  0
   62.4720   33.0090   49.1200 C   0  0  0  0  0  0  0  0  0  0  0  0
   62.4500   32.6650   50.8620 S   0  0  0  0  0  0  0  0  0  0  0  0
   63.8190   32.2920   51.3520 O   0  0  0  0  0  0  0  0  0  0  0  0
   61.9850   33.8930   51.5910 O   0  0  0  0  0  0  0  0  0  0  0  0
   61.3720   31.3540   51.2290 N   0  0  0  0  0  0  0  0  0  0  0  0
   60.6940   30.5670   50.2320 C   0  0  0  0  0  0  0  0  0  0  0  0
   61.3790   29.9820   49.1480 C   0  0  0  0  0  0  0  0  0  0  0  0
   60.6760   29.2960   48.1550 C   0  0  0  0  0  0  0  0  0  0  0  0
   59.2830   29.1790   48.2320 C   0  0  0  0  0  0  0  0  0  0  0  0
   58.5190   28.5490   47.1410 C   0  0  0  0  0  0  0  0  0  0  0  0
   57.7530   27.4740   47.4460 N   0  0  0  0  0  0  0  0  0  0  0  0
   57.0030   26.8720   46.4960 C   0  0  0  0  0  0  0  0  0  0  0  0
   56.3090   25.8660   46.7900 O   0  0  0  0  0  0  0  0  0  0  0  0
   56.9970   27.3550   45.2350 N   0  0  0  0  0  0  0  0  0  0  0  0
   57.7410   28.4390   44.9070 C   0  0  0  0  0  0  0  0  0  0  0  0
   57.6910   28.8720   43.7210 O   0  0  0  0  0  0  0  0  0  0  0  0
   58.5230   29.0560   45.8550 N   0  0  0  0  0  0  0  0  0  0  0  0
   59.3380   30.2450   45.4950 C   0  0  0  0  0  0  0  0  0  0  0  0
   58.5320   31.5200   45.5730 C   0  0  0  0  0  0  0  0  0  0  0  0
   58.1730   32.0640   46.8220 C   0  0  0  0  0  0  0  0  0  0  0  0
   57.4680   33.2700   46.8920 C   0  0  0  0  0  0  0  0  0  0  0  0
   57.0970   33.9310   45.7220 C   0  0  0  0  0  0  0  0  0  0  0  0
   57.4250   33.3830   44.4780 C   0  0  0  0  0  0  0  0  0  0  0  0
   58.1370   32.1820   44.4030 C   0  0  0  0  0  0  0  0  0  0  0  0
   58.6040   29.7080   49.3350 C   0  0  0  0  0  0  0  0  0  0  0  0
   59.3030   30.4050   50.3230 C   0  0  0  0  0  0  0  0  0  0  0  0
   61.3500   33.5630   48.4420 C   0  0  0  0  0  0  0  0  0  0  0  0
   60.0490   33.8090   49.1830 C   0  0  0  0  0  0  0  0  0  0  0  0
   59.6358   35.0276   47.0307 H   0  0  0  0  0  0  0  0  0  0  0  0
   60.7644   35.4030   45.6845 H   0  0  0  0  0  0  0  0  0  0  0  0
   59.8489   33.8575   45.6845 H   0  0  0  0  0  0  0  0  0  0  0  0
   62.7753   33.9250   45.3296 H   0  0  0  0  0  0  0  0  0  0  0  0
   64.6771   32.8314   46.5015 H   0  0  0  0  0  0  0  0  0  0  0  0
   64.5015   32.2647   48.9167 H   0  0  0  0  0  0  0  0  0  0  0  0
   61.2730   31.0940   52.2340 H   0  0  0  0  0  0  0  0  0  0  0  0
   62.4739   30.0662   49.0836 H   0  0  0  0  0  0  0  0  0  0  0  0
   61.2183   28.8464   47.3101 H   0  0  0  0  0  0  0  0  0  0  0  0
   60.1881   30.3178   46.1892 H   0  0  0  0  0  0  0  0  0  0  0  0
   59.6846   30.1217   44.4584 H   0  0  0  0  0  0  0  0  0  0  0  0
   58.4487   31.5373   47.7475 H   0  0  0  0  0  0  0  0  0  0  0  0
   57.2060   33.6973   47.8712 H   0  0  0  0  0  0  0  0  0  0  0  0
   56.5471   34.8821   45.7773 H   0  0  0  0  0  0  0  0  0  0  0  0
   57.1217   33.8987   43.5549 H   0  0  0  0  0  0  0  0  0  0  0  0
   58.3882   31.7549   43.4209 H   0  0  0  0  0  0  0  0  0  0  0  0
   57.5158   29.5745   49.4243 H   0  0  0  0  0  0  0  0  0  0  0  0
   58.7590   30.8303   51.1792 H   0  0  0  0  0  0  0  0  0  0  0  0
   60.2323   33.7743   50.2671 H   0  0  0  0  0  0  0  0  0  0  0  0
   59.6526   34.7980   48.9096 H   0  0  0  0  0  0  0  0  0  0  0  0
   59.3189   33.0330   48.9096 H   0  0  0  0  0  0  0  0  0  0  0  0
  1  2  1  0
  2  3  2  0
  3  4  1  0
  4  5  2  0
  5  6  1  0
  6  7  1  0
  7  8  2  0
  7  9  2  0
  7 10  1  0
 10 11  1  0
 11 12  2  0
 12 13  1  0
 13 14  2  0
 14 15  1  0
 15 16  2  0
 16 17  1  0
 17 18  2  0
 17 19  1  0
 19 20  1  0
 20 21  2  0
 20 22  1  0
 22 23  1  0
 23 24  1  0
 24 25  2  0
 25 26  1  0
 26 27  2  0
 27 28  1  0
 28 29  2  0
 14 30  1  0
 30 31  2  0
  6 32  2  0
 32 33  1  0
 32  2  1  0
 31 11  1  0
 22 15  1  0
 29 24  1  0
  1 34  1  0
  1 35  1  0
  1 36  1  0
  3 37  1  0
  4 38  1  0
  5 39  1  0
 10 40  1  0
 12 41  1  0
 13 42  1  0
 23 43  1  0
 23 44  1  0
 25 45  1  0
 26 46  1  0
 27 47  1  0
 28 48  1  0
 29 49  1  0
 30 50  1  0
 31 51  1  0
 33 52  1  0
 33 53  1  0
 33 54  1  0
M  CHG  1  19  -1
M  END
>  <UniqueID>  (27) 
27

>  <SMILES>  (27) 
Cc1cccc(S(=O)(=O)Nc2ccc(-c3nc(=O)[n-]c(=O)n3Cc3ccccc3)cc2)c1C

>  <Energy>  (27) 
73.98447904300693

>  <Genealogy>  (27) 
Cc1cccc(S(=O)(=O)Nc2ccc(-c3nc(=O)[n-]c(=O)n3Cc3ccccc3)cc2)c1C (protonated)
Cc1cccc(S(=O)(=O)Nc2ccc(-c3nc(=O)[n-]c(=O)n3Cc3ccccc3)cc2)c1C (3D coordinates assigned)
Cc1cccc(S(=O)(=O)Nc2ccc(-c3nc(=O)[n-]c(=O)n3Cc3ccccc3)cc2)c1C (optimized conformer: 73.98447904300693 kcal/mol)

>  <smiles>  (27) 
Cc1cccc(S(=O)(=O)Nc2ccc(-c3nc(=O)[nH]c(=O)n3Cc3ccccc3)cc2)c1C

>  <score_type>  (27) 
oracle

>  <origin>  (27) 
adg

>  <m_score__min__energy>  (27) 
-11.199999999999999

>  <m_primary>  (27) 
energy

$$$$
27:0
     RDKit          3D

 33 35  0  0  0  0  0  0  0  0999 V2000
   59.7820   26.7710   46.4860 O   0  0  0  0  0  0  0  0  0  0  0  0
   59.2250   27.8980   46.4020 C   0  0  0  0  0  0  0  0  0  0  0  0
   59.6990   29.1280   47.0240 C   0  0  0  0  0  0  0  0  0  0  0  0
   60.7990   29.3680   47.8450 C   0  0  0  0  0  0  0  0  0  0  0  0
   61.0170   30.6860   48.2870 C   0  0  0  0  0  0  0  0  0  0  0  0
   60.1430   31.7240   47.9010 C   0  0  0  0  0  0  0  0  0  0  0  0
   59.0420   31.4570   47.0670 C   0  0  0  0  0  0  0  0  0  0  0  0
   58.8450   30.1430   46.6460 C   0  0  0  0  0  0  0  0  0  0  0  0
   57.8240   29.5620   45.7820 C   0  0  0  0  0  0  0  0  0  0  0  0
   56.8920   30.1960   45.2210 O   0  0  0  0  0  0  0  0  0  0  0  0
   58.0390   28.1550   45.6440 N   0  0  0  0  0  0  0  0  0  0  0  0
   57.4710   27.2880   44.6150 C   0  0  0  0  0  0  0  0  0  0  0  0
   57.2230   25.9180   45.1770 C   0  0  0  0  0  0  0  0  0  0  0  0
   58.1610   24.9870   45.0170 O   0  0  0  0  0  0  0  0  0  0  0  0
   58.0260   23.7370   45.4510 C   0  0  0  0  0  0  0  0  0  0  0  0
   59.1440   22.7610   45.2420 C   0  0  0  0  0  0  0  0  0  0  0  0
   60.3680   23.3550   45.5770 O   0  0  0  0  0  0  0  0  0  0  0  0
   56.8580   23.3500   46.1190 C   0  0  0  0  0  0  0  0  0  0  0  0
   55.8450   24.2900   46.3040 C   0  0  0  0  0  0  0  0  0  0  0  0
   54.7840   23.9570   46.8990 O   0  0  0  0  0  0  0  0  0  0  0  0
   56.0170   25.5960   45.8270 C   0  0  0  0  0  0  0  0  0  0  0  0
   55.0220   26.5620   45.9910 O   0  0  0  0  0  0  0  0  0  0  0  0
   61.4761   28.5523   48.1385 H   0  0  0  0  0  0  0  0  0  0  0  0
   61.8751   30.9086   48.9382 H   0  0  0  0  0  0  0  0  0  0  0  0
   60.3238   32.7497   48.2548 H   0  0  0  0  0  0  0  0  0  0  0  0
   58.3577   32.2604   46.7567 H   0  0  0  0  0  0  0  0  0  0  0  0
   56.5203   27.7149   44.2631 H   0  0  0  0  0  0  0  0  0  0  0  0
   58.1788   27.2115   43.7764 H   0  0  0  0  0  0  0  0  0  0  0  0
   58.9810   21.8788   45.8785 H   0  0  0  0  0  0  0  0  0  0  0  0
   59.1667   22.4592   44.1844 H   0  0  0  0  0  0  0  0  0  0  0  0
   60.2050   24.3350   45.6270 H   0  0  0  0  0  0  0  0  0  0  0  0
   56.7415   22.3216   46.4916 H   0  0  0  0  0  0  0  0  0  0  0  0
   54.1110   26.3370   46.3710 H   0  0  0  0  0  0  0  0  0  0  0  0
  1  2  2  0
  2  3  1  0
  3  4  2  0
  4  5  1  0
  5  6  2  0
  6  7  1  0
  7  8  2  0
  8  9  1  0
  9 10  2  0
  9 11  1  0
 11 12  1  0
 12 13  1  0
 13 14  1  0
 14 15  1  0
 15 16  1  0
 16 17  1  0
 15 18  2  0
 18 19  1  0
 19 20  2  0
 19 21  1  0
 21 22  1  0
 11  2  1  0
 21 13  2  0
  8  3  1  0
  4 23  1  0
  5 24  1  0
  6 25  1  0
  7 26  1  0
 12 27  1  0
 12 28  1  0
 16 29  1  0
 16 30  1  0
 17 31  1  0
 18 32  1  0
 22 33  1  0
M  END
>  <UniqueID>  (28) 
28

>  <SMILES>  (28) 
O=C1c2ccccc2C(=O)N1Cc1oc(CO)cc(=O)c1O

>  <Energy>  (28) 
66.67625612027196

>  <Genealogy>  (28) 
O=C1c2ccccc2C(=O)N1Cc1oc(CO)cc(=O)c1O (3D coordinates assigned)
O=C1c2ccccc2C(=O)N1Cc1oc(CO)cc(=O)c1O (nonaromatic ring conformer: 66.67625612027196 kcal/mol)

>  <smiles>  (28) 
O=C1c2ccccc2C(=O)N1Cc1oc(CO)cc(=O)c1O

>  <score_type>  (28) 
oracle

>  <origin>  (28) 
adg

>  <m_score__min__energy>  (28) 
-7.9500000000000002

>  <m_primary>  (28) 
energy

$$$$
28:0
     RDKit          3D

 44 46  0  0  0  0  0  0  0  0999 V2000
   56.2370   27.4630   44.9990 H   0  0  0  0  0  0  0  0  0  0  0  0
   55.5280   27.0810   45.6130 O   0  0  0  0  0  0  0  0  0  0  0  0
   55.5360   25.7340   45.9670 C   0  0  0  0  0  0  0  0  0  0  0  0
   54.3820   25.0280   45.9070 N   0  0  0  0  0  0  0  0  0  0  0  0
   54.3220   23.7150   46.2320 C   0  0  0  0  0  0  0  0  0  0  0  0
   52.8540   22.9790   46.1430 S   0  0  0  0  0  0  0  0  0  0  0  0
   55.4620   23.0480   46.6290 N   0  0  0  0  0  0  0  0  0  0  0  0
   55.4240   21.6150   47.0040 C   0  0  0  0  0  0  0  0  0  0  0  0
   56.3477   21.1266   46.6600 H   0  0  0  0  0  0  0  0  0  0  0  0
   54.5477   21.1477   46.5310 H   0  0  0  0  0  0  0  0  0  0  0  0
   55.3080   21.4590   48.5170 C   0  0  0  0  0  0  0  0  0  0  0  0
   55.8939   22.2469   49.0128 H   0  0  0  0  0  0  0  0  0  0  0  0
   54.2525   21.5447   48.8146 H   0  0  0  0  0  0  0  0  0  0  0  0
   55.6939   20.4729   48.8146 H   0  0  0  0  0  0  0  0  0  0  0  0
   56.6480   23.7380   46.7280 C   0  0  0  0  0  0  0  0  0  0  0  0
   57.6860   23.1440   47.1350 O   0  0  0  0  0  0  0  0  0  0  0  0
   56.7170   25.1080   46.3850 C   0  0  0  0  0  0  0  0  0  0  0  0
   57.9750   25.8980   46.4580 C   0  0  0  0  0  0  0  0  0  0  0  0
   58.6390   25.7737   47.3261 H   0  0  0  0  0  0  0  0  0  0  0  0
   58.3070   26.7330   45.5170 N   0  0  0  0  0  0  0  0  0  0  0  0
   58.3270   28.1680   45.6100 C   0  0  0  0  0  0  0  0  0  0  0  0
   57.9760   29.0100   44.5360 C   0  0  0  0  0  0  0  0  0  0  0  0
   57.6802   28.5722   43.5712 H   0  0  0  0  0  0  0  0  0  0  0  0
   58.0020   30.3990   44.6910 C   0  0  0  0  0  0  0  0  0  0  0  0
   57.7347   31.0474   43.8436 H   0  0  0  0  0  0  0  0  0  0  0  0
   58.3660   30.9730   45.9180 C   0  0  0  0  0  0  0  0  0  0  0  0
   58.4010   32.4060   46.0680 N   0  0  0  0  0  0  0  0  0  0  0  0
   58.9930   32.9980   47.2730 C   0  0  0  0  0  0  0  0  0  0  0  0
   58.3316   32.8104   48.1317 H   0  0  0  0  0  0  0  0  0  0  0  0
   59.9782   32.5412   47.4484 H   0  0  0  0  0  0  0  0  0  0  0  0
   59.1700   34.5070   47.0930 C   0  0  0  0  0  0  0  0  0  0  0  0
   58.2156   35.0154   47.2945 H   0  0  0  0  0  0  0  0  0  0  0  0
   59.9342   34.8742   47.7938 H   0  0  0  0  0  0  0  0  0  0  0  0
   59.5760   34.7750   45.7690 O   0  0  0  0  0  0  0  0  0  0  0  0
   58.4870   34.5950   44.8800 C   0  0  0  0  0  0  0  0  0  0  0  0
   57.7845   35.4301   45.0185 H   0  0  0  0  0  0  0  0  0  0  0  0
   58.9056   34.5612   43.8633 H   0  0  0  0  0  0  0  0  0  0  0  0
   57.7180   33.2700   45.0950 C   0  0  0  0  0  0  0  0  0  0  0  0
   56.7080   33.4984   45.4661 H   0  0  0  0  0  0  0  0  0  0  0  0
   57.6692   32.7379   44.1335 H   0  0  0  0  0  0  0  0  0  0  0  0
   58.7080   30.1330   46.9900 C   0  0  0  0  0  0  0  0  0  0  0  0
   58.9988   30.5705   47.9565 H   0  0  0  0  0  0  0  0  0  0  0  0
   58.6810   28.7450   46.8360 C   0  0  0  0  0  0  0  0  0  0  0  0
   58.9406   28.0981   47.6869 H   0  0  0  0  0  0  0  0  0  0  0  0
  1  2  1  0
  2  3  1  0
  3  4  1  0
  4  5  1  0
  5  6  2  0
  5  7  1  0
  7  8  1  0
  8  9  1  0
  8 10  1  0
  8 11  1  0
 11 12  1  0
 11 13  1  0
 11 14  1  0
  7 15  1  0
 15 16  2  0
 15 17  1  0
 17 18  1  0
 18 19  1  0
 18 20  2  0
 20 21  1  0
 21 22  2  0
 22 23  1  0
 22 24  1  0
 24 25  1  0
 24 26  2  0
 26 27  1  0
 27 28  1  0
 28 29  1  0
 28 30  1  0
 28 31  1  0
 31 32  1  0
 31 33  1  0
 31 34  1  0
 34 35  1  0
 35 36  1  0
 35 37  1  0
 35 38  1  0
 38 39  1  0
 38 40  1  0
 26 41  1  0
 41 42  1  0
 41 43  2  0
 43 44  1  0
 17  3  2  0
 43 21  1  0
 38 27  1  0
M  CHG  1   4  -1
M  END
>  <UniqueID>  (29) 
29

>  <SMILES>  (29) 
CCn1c(=S)[n-]c(O)c(/C=N/c2ccc(N3CCOCC3)cc2)c1=O

>  <Energy>  (29) 
65.14226948016503

>  <Genealogy>  (29) 
CCn1c(=S)[n-]c(O)c(C=Nc2ccc(N3CCOCC3)cc2)c1=O (protonated)
CCn1c(=S)[n-]c(O)c(/C=N/c2ccc(N3CCOCC3)cc2)c1=O (cis-trans isomerization)
CCn1c(=S)[n-]c(O)c(/C=N/c2ccc(N3CCOCC3)cc2)c1=O (3D coordinates assigned)
CCn1c(=S)[n-]c(O)c(/C=N/c2ccc(N3CCOCC3)cc2)c1=O (nonaromatic ring conformer: 65.14226948016503 kcal/mol)

>  <smiles>  (29) 
CCn1c(=S)[nH]c(O)c(C=Nc2ccc(N3CCOCC3)cc2)c1=O

>  <score_type>  (29) 
oracle

>  <origin>  (29) 
adg

>  <m_score__min__energy>  (29) 
-9.5600000000000005

>  <m_primary>  (29) 
energy

$$$$
29:0
     RDKit          3D

 70 73  0  0  0  0  0  0  0  0999 V2000
   58.2250   27.5610   44.0600 C   0  0  0  0  0  0  0  0  0  0  0  0
   57.4060   28.6570   43.3870 C   0  0  0  0  0  0  0  0  0  0  0  0
   56.6080   29.6960   44.5990 S   0  0  0  0  0  0  0  0  0  0  0  0
   55.1360   29.3930   44.6350 O   0  0  0  0  0  0  0  0  0  0  0  0
   57.2060   29.4400   45.9540 O   0  0  0  0  0  0  0  0  0  0  0  0
   56.8590   31.4040   44.1470 C   0  0  0  0  0  0  0  0  0  0  0  0
   58.3520   31.7380   44.0710 C   0  0  0  0  0  0  0  0  0  0  0  0
   58.7970   32.4130   45.2980 N   0  0  0  0  0  0  0  0  0  0  0  0
   58.3840   33.7810   45.4990 C   0  0  0  0  0  0  0  0  0  0  0  0
   57.1940   34.1120   45.2290 O   0  0  0  0  0  0  0  0  0  0  0  0
   59.3390   34.8150   46.0250 C   0  0  0  0  0  0  0  0  0  0  0  0
   60.0540   34.3230   47.2490 C   0  0  0  0  0  0  0  0  0  0  0  0
   59.5610   34.3100   48.5500 C   0  0  0  0  0  0  0  0  0  0  0  0
   60.5220   33.8950   49.4080 N   0  0  0  0  0  0  0  0  0  0  0  0
   60.3870   33.7490   50.8550 C   0  0  0  0  0  0  0  0  0  0  0  0
   61.6210   33.6550   48.6650 C   0  0  0  0  0  0  0  0  0  0  0  0
   62.8760   33.2220   49.0980 C   0  0  0  0  0  0  0  0  0  0  0  0
   63.8870   33.0600   48.1320 C   0  0  0  0  0  0  0  0  0  0  0  0
   63.6270   33.3370   46.7720 C   0  0  0  0  0  0  0  0  0  0  0  0
   62.3560   33.7750   46.3630 C   0  0  0  0  0  0  0  0  0  0  0  0
   61.3720   33.9150   47.3400 C   0  0  0  0  0  0  0  0  0  0  0  0
   59.4310   31.6080   46.3670 C   0  0  2  0  0  0  0  0  0  0  0  0
   59.9210   30.2340   45.8540 C   0  0  0  0  0  0  0  0  0  0  0  0
   60.0930   29.2080   46.9970 C   0  0  0  0  0  0  0  0  0  0  0  0
   60.3930   29.8770   48.2840 N   0  0  2  0  0  0  0  0  0  0  0  0
   60.8570   28.9310   49.3300 C   0  0  0  0  0  0  0  0  0  0  0  0
   61.3980   29.5880   50.5850 C   0  0  0  0  0  0  0  0  0  0  0  0
   62.6300   30.2680   50.5640 C   0  0  0  0  0  0  0  0  0  0  0  0
   63.1120   30.8930   51.7170 C   0  0  0  0  0  0  0  0  0  0  0  0
   62.3660   30.8590   52.8980 C   0  0  0  0  0  0  0  0  0  0  0  0
   61.1340   30.2020   52.9250 C   0  0  0  0  0  0  0  0  0  0  0  0
   60.6490   29.5720   51.7750 C   0  0  0  0  0  0  0  0  0  0  0  0
   59.2600   30.7260   48.7470 C   0  0  0  0  0  0  0  0  0  0  0  0
   58.5200   31.4420   47.5920 C   0  0  0  0  0  0  0  0  0  0  0  0
   58.1479   27.6641   45.1524 H   0  0  0  0  0  0  0  0  0  0  0  0
   57.8395   26.5765   43.7565 H   0  0  0  0  0  0  0  0  0  0  0  0
   59.2784   27.6517   43.7565 H   0  0  0  0  0  0  0  0  0  0  0  0
   58.0725   29.2745   42.7669 H   0  0  0  0  0  0  0  0  0  0  0  0
   56.6306   28.1837   42.7666 H   0  0  0  0  0  0  0  0  0  0  0  0
   56.3989   31.5875   43.1649 H   0  0  0  0  0  0  0  0  0  0  0  0
   56.3959   32.0414   44.9147 H   0  0  0  0  0  0  0  0  0  0  0  0
   58.9241   30.8072   43.9433 H   0  0  0  0  0  0  0  0  0  0  0  0
   58.5207   32.4103   43.2168 H   0  0  0  0  0  0  0  0  0  0  0  0
   60.0801   35.0477   45.2461 H   0  0  0  0  0  0  0  0  0  0  0  0
   58.7644   35.7131   46.2956 H   0  0  0  0  0  0  0  0  0  0  0  0
   58.5388   34.5955   48.8392 H   0  0  0  0  0  0  0  0  0  0  0  0
   61.0506   34.4667   51.3594 H   0  0  0  0  0  0  0  0  0  0  0  0
   59.3449   33.9449   51.1477 H   0  0  0  0  0  0  0  0  0  0  0  0
   60.6638   32.7254   51.1477 H   0  0  0  0  0  0  0  0  0  0  0  0
   63.0686   33.0140   50.1608 H   0  0  0  0  0  0  0  0  0  0  0  0
   64.8857   32.7155   48.4385 H   0  0  0  0  0  0  0  0  0  0  0  0
   64.4258   33.2089   46.0267 H   0  0  0  0  0  0  0  0  0  0  0  0
   62.1448   33.9998   45.3071 H   0  0  0  0  0  0  0  0  0  0  0  0
   60.3158   32.1770   46.6884 H   0  0  0  0  0  0  0  0  0  0  0  0
   59.1864   29.8425   45.1349 H   0  0  0  0  0  0  0  0  0  0  0  0
   60.9044   30.3817   45.3838 H   0  0  0  0  0  0  0  0  0  0  0  0
   59.1628   28.6304   47.1023 H   0  0  0  0  0  0  0  0  0  0  0  0
   60.9363   28.5480   46.7454 H   0  0  0  0  0  0  0  0  0  0  0  0
   61.2100   30.5130   48.1170 H   0  0  0  0  0  0  0  0  0  0  0  0
   60.0076   28.2934   49.6162 H   0  0  0  0  0  0  0  0  0  0  0  0
   61.6929   28.3674   48.8899 H   0  0  0  0  0  0  0  0  0  0  0  0
   63.2169   30.3077   49.6345 H   0  0  0  0  0  0  0  0  0  0  0  0
   64.0811   31.4130   51.6949 H   0  0  0  0  0  0  0  0  0  0  0  0
   62.7487   31.3491   53.8054 H   0  0  0  0  0  0  0  0  0  0  0  0
   60.5439   30.1801   53.8531 H   0  0  0  0  0  0  0  0  0  0  0  0
   59.6754   29.0606   51.8012 H   0  0  0  0  0  0  0  0  0  0  0  0
   58.5402   30.0874   49.2800 H   0  0  0  0  0  0  0  0  0  0  0  0
   59.6821   31.5066   49.3970 H   0  0  0  0  0  0  0  0  0  0  0  0
   57.6398   30.8472   47.3066 H   0  0  0  0  0  0  0  0  0  0  0  0
   58.2173   32.4410   47.9388 H   0  0  0  0  0  0  0  0  0  0  0  0
  1  2  1  0
  2  3  1  0
  3  4  2  0
  3  5  2  0
  3  6  1  0
  6  7  1  0
  7  8  1  0
  8  9  1  0
  9 10  2  0
  9 11  1  0
 11 12  1  0
 12 13  2  0
 13 14  1  0
 14 15  1  0
 14 16  1  0
 16 17  2  0
 17 18  1  0
 18 19  2  0
 19 20  1  0
 20 21  2  0
  8 22  1  0
 22 23  1  0
 23 24  1  0
 24 25  1  0
 25 26  1  0
 26 27  1  0
 27 28  2  0
 28 29  1  0
 29 30  2  0
 30 31  1  0
 31 32  2  0
 25 33  1  0
 33 34  1  0
 21 12  1  0
 34 22  1  0
 21 16  1  0
 32 27  1  0
  1 35  1  0
  1 36  1  0
  1 37  1  0
  2 38  1  0
  2 39  1  0
  6 40  1  0
  6 41  1  0
  7 42  1  0
  7 43  1  0
 11 44  1  0
 11 45  1  0
 13 46  1  0
 15 47  1  0
 15 48  1  0
 15 49  1  0
 17 50  1  0
 18 51  1  0
 19 52  1  0
 20 53  1  0
 22 54  1  1
 23 55  1  0
 23 56  1  0
 24 57  1  0
 24 58  1  0
 25 59  1  6
 26 60  1  0
 26 61  1  0
 28 62  1  0
 29 63  1  0
 30 64  1  0
 31 65  1  0
 32 66  1  0
 33 67  1  0
 33 68  1  0
 34 69  1  0
 34 70  1  0
M  CHG  1  25   1
M  END
>  <UniqueID>  (30) 
30

>  <SMILES>  (30) 
CCS(=O)(=O)CCN(C(=O)Cc1cn(C)c2ccccc12)C1CC[NH+](Cc2ccccc2)CC1

>  <Energy>  (30) 
106.1105065686642

>  <Genealogy>  (30) 
CCS(=O)(=O)CCN(C(=O)Cc1cn(C)c2ccccc12)C1CC[NH+](Cc2ccccc2)CC1 (protonated)
CCS(=O)(=O)CCN(C(=O)Cc1cn(C)c2ccccc12)C1CC[NH+](Cc2ccccc2)CC1 (3D coordinates assigned)
CCS(=O)(=O)CCN(C(=O)Cc1cn(C)c2ccccc12)C1CC[NH+](Cc2ccccc2)CC1 (nonaromatic ring conformer: 106.1105065686642 kcal/mol)

>  <smiles>  (30) 
CCS(=O)(=O)CCN(C(=O)Cc1cn(C)c2ccccc12)C1CCN(Cc2ccccc2)CC1

>  <score_type>  (30) 
oracle

>  <origin>  (30) 
adg

>  <m_score__min__energy>  (30) 
-9.0299999999999994

>  <m_primary>  (30) 
energy

$$$$
30:0
     RDKit          3D

 43 46  0  0  0  0  0  0  0  0999 V2000
   58.8797   28.9076   47.7041 H   0  0  0  0  0  0  0  0  0  0  0  0
   58.3230   29.1720   46.7930 C   0  0  0  0  0  0  0  0  0  0  0  0
   58.4520   30.4510   46.2500 C   0  0  0  0  0  0  0  0  0  0  0  0
   59.1253   31.1783   46.7272 H   0  0  0  0  0  0  0  0  0  0  0  0
   57.7330   30.8210   45.1020 C   0  0  0  0  0  0  0  0  0  0  0  0
   57.9580   32.4590   44.4530 S   0  0  0  0  0  0  0  0  0  0  0  0
   59.2290   33.0510   44.9940 O   0  0  0  0  0  0  0  0  0  0  0  0
   56.8110   33.3350   44.8700 O   0  0  0  0  0  0  0  0  0  0  0  0
   58.0870   32.4260   42.6770 C   0  0  0  0  0  0  0  0  0  0  0  0
   59.1155   32.1629   42.3889 H   0  0  0  0  0  0  0  0  0  0  0  0
   57.3900   31.6772   42.2726 H   0  0  0  0  0  0  0  0  0  0  0  0
   57.8352   33.4175   42.2726 H   0  0  0  0  0  0  0  0  0  0  0  0
   56.8450   29.8840   44.5130 C   0  0  0  0  0  0  0  0  0  0  0  0
   56.0470   30.2010   43.2740 C   0  0  0  0  0  0  0  0  0  0  0  0
   55.0607   30.5928   43.5634 H   0  0  0  0  0  0  0  0  0  0  0  0
   56.5806   30.9555   42.6773 H   0  0  0  0  0  0  0  0  0  0  0  0
   55.9174   29.2861   42.6773 H   0  0  0  0  0  0  0  0  0  0  0  0
   56.7400   28.5940   45.0630 C   0  0  0  0  0  0  0  0  0  0  0  0
   56.0580   27.8628   44.6045 H   0  0  0  0  0  0  0  0  0  0  0  0
   57.4940   28.2260   46.1900 C   0  0  0  0  0  0  0  0  0  0  0  0
   57.3780   26.9270   46.7930 N   0  0  0  0  0  0  0  0  0  0  0  0
   56.7320   25.9030   46.3160 C   0  0  0  0  0  0  0  0  0  0  0  0
   55.3740   25.9290   46.1550 N   0  0  0  0  0  0  0  0  0  0  0  0
   54.6770   24.8790   45.6350 C   0  0  0  0  0  0  0  0  0  0  0  0
   53.3830   24.9970   45.5270 N   0  0  0  0  0  0  0  0  0  0  0  0
   52.4060   23.9780   45.1620 C   0  0  0  0  0  0  0  0  0  0  0  0
   52.5644   23.3007   46.0142 H   0  0  0  0  0  0  0  0  0  0  0  0
   52.2760   23.8350   43.6560 C   0  0  0  0  0  0  0  0  0  0  0  0
   52.9216   24.4259   42.9896 H   0  0  0  0  0  0  0  0  0  0  0  0
   52.3154   22.9938   42.9483 H   0  0  0  0  0  0  0  0  0  0  0  0
   51.1770   24.5190   44.4520 C   0  0  0  0  0  0  0  0  0  0  0  0
   51.0271   25.6050   44.3621 H   0  0  0  0  0  0  0  0  0  0  0  0
   50.0913   24.3782   44.5594 H   0  0  0  0  0  0  0  0  0  0  0  0
   55.4280   23.7440   45.2570 C   0  0  0  0  0  0  0  0  0  0  0  0
   56.7580   23.7700   45.4210 N   0  0  0  0  0  0  0  0  0  0  0  0
   57.4270   24.8000   45.9300 N   0  0  0  0  0  0  0  0  0  0  0  0
   57.2330   22.5920   44.9950 C   0  0  0  0  0  0  0  0  0  0  0  0
   58.6170   22.1980   44.9990 C   0  0  0  0  0  0  0  0  0  0  0  0
   59.7290   21.8800   45.0030 N   0  0  0  0  0  0  0  0  0  0  0  0
   56.1560   21.8400   44.5650 C   0  0  0  0  0  0  0  0  0  0  0  0
   56.2106   20.8205   44.1555 H   0  0  0  0  0  0  0  0  0  0  0  0
   55.0220   22.5630   44.7300 N   0  0  0  0  0  0  0  0  0  0  0  0
   54.0690   22.2260   44.4910 H   0  0  0  0  0  0  0  0  0  0  0  0
  1  2  1  0
  2  3  2  0
  3  4  1  0
  3  5  1  0
  5  6  1  0
  6  7  2  0
  6  8  2  0
  6  9  1  0
  9 10  1  0
  9 11  1  0
  9 12  1  0
  5 13  2  0
 13 14  1  0
 14 15  1  0
 14 16  1  0
 14 17  1  0
 13 18  1  0
 18 19  1  0
 18 20  2  0
 20 21  1  0
 21 22  2  0
 22 23  1  0
 23 24  1  0
 24 25  2  3
 25 26  1  0
 26 27  1  0
 26 28  1  0
 28 29  1  0
 28 30  1  0
 28 31  1  0
 31 32  1  0
 31 33  1  0
 24 34  1  0
 34 35  1  0
 35 36  1  0
 35 37  1  0
 37 38  1  0
 38 39  3  0
 37 40  2  0
 40 41  1  0
 40 42  1  0
 42 43  1  0
 20  2  1  0
 36 22  1  0
 31 26  1  0
 42 34  2  0
M  CHG  3  23  -1  36  -1  42   1
M  END
>  <UniqueID>  (31) 
31

>  <SMILES>  (31) 
Cc1cc(/N=c2\[n-]c(=NC3CC3)c3[nH+]cc(C#N)n3[n-]2)ccc1S(C)(=O)=O

>  <Energy>  (31) 
361.41177343722603

>  <Genealogy>  (31) 
Cc1cc(N=c2[n-]c(=NC3CC3)c3[nH+]cc(C#N)n3[n-]2)ccc1S(C)(=O)=O (protonated)
Cc1cc(/N=c2\[n-]c(=NC3CC3)c3[nH+]cc(C#N)n3[n-]2)ccc1S(C)(=O)=O (cis-trans isomerization)
Cc1cc(/N=c2\[n-]c(=NC3CC3)c3[nH+]cc(C#N)n3[n-]2)ccc1S(C)(=O)=O (3D coordinates assigned)
Cc1cc(/N=c2\[n-]c(=NC3CC3)c3[nH+]cc(C#N)n3[n-]2)ccc1S(C)(=O)=O (nonaromatic ring conformer: 361.41177343722603 kcal/mol)

>  <smiles>  (31) 
Cc1cc(N=c2[nH]c(=NC3CC3)c3ncc(C#N)n3[nH]2)ccc1S(C)(=O)=O

>  <score_type>  (31) 
oracle

>  <origin>  (31) 
adg

>  <m_score__min__energy>  (31) 
-9.3800000000000008

>  <m_primary>  (31) 
energy

$$$$
31:0
     RDKit          3D

 42 44  0  0  0  0  0  0  0  0999 V2000
   51.0310   23.3830   45.6750 C   0  0  0  0  0  0  0  0  0  0  0  0
   52.0900   24.0480   44.8020 C   0  0  0  0  0  0  0  0  0  0  0  0
   53.2440   24.4470   45.6060 N   0  0  0  0  0  0  0  0  0  0  0  0
   54.2400   23.5160   46.0440 C   0  0  0  0  0  0  0  0  0  0  0  0
   54.1580   22.2980   45.7260 O   0  0  0  0  0  0  0  0  0  0  0  0
   55.3530   23.9890   46.8100 N   0  0  0  0  0  0  0  0  0  0  0  0
   56.4150   24.8130   46.3110 C   0  0  0  0  0  0  0  0  0  0  0  0
   57.6820   24.2420   46.1450 C   0  0  0  0  0  0  0  0  0  0  0  0
   58.7450   25.0070   45.6620 C   0  0  0  0  0  0  0  0  0  0  0  0
   58.5470   26.3460   45.3210 C   0  0  0  0  0  0  0  0  0  0  0  0
   57.2760   26.9250   45.4400 C   0  0  0  0  0  0  0  0  0  0  0  0
   57.0230   28.6090   44.9730 S   0  0  0  0  0  0  0  0  0  0  0  0
   55.5710   28.9530   45.1610 O   0  0  0  0  0  0  0  0  0  0  0  0
   57.3720   28.7960   43.5230 O   0  0  0  0  0  0  0  0  0  0  0  0
   58.0160   29.6760   45.9340 N   0  0  0  0  0  0  0  0  0  0  0  0
   58.8540   29.1030   46.9980 C   0  0  0  0  0  0  0  0  0  0  0  0
   58.9520   30.0350   48.1700 C   0  0  0  0  0  0  0  0  0  0  0  0
   59.2010   29.5840   49.3180 O   0  0  0  0  0  0  0  0  0  0  0  0
   58.8410   31.4430   47.9700 N   0  0  0  0  0  0  0  0  0  0  0  0
   58.4800   31.9700   46.6930 C   0  0  0  0  0  0  0  0  0  0  0  0
   58.5180   33.3510   46.4750 C   0  0  0  0  0  0  0  0  0  0  0  0
   58.1710   33.8730   45.2270 C   0  0  0  0  0  0  0  0  0  0  0  0
   57.7850   33.0160   44.1940 C   0  0  0  0  0  0  0  0  0  0  0  0
   57.7360   31.6350   44.4080 C   0  0  0  0  0  0  0  0  0  0  0  0
   58.0750   31.0960   45.6660 C   0  0  0  0  0  0  0  0  0  0  0  0
   56.2040   26.1540   45.9250 C   0  0  0  0  0  0  0  0  0  0  0  0
   54.9290   26.7100   45.9930 O   0  0  0  0  0  0  0  0  0  0  0  0
   51.2791   23.5388   46.7353 H   0  0  0  0  0  0  0  0  0  0  0  0
   50.0474   23.8259   45.4597 H   0  0  0  0  0  0  0  0  0  0  0  0
   51.0026   22.3046   45.4597 H   0  0  0  0  0  0  0  0  0  0  0  0
   52.4171   23.3389   44.0273 H   0  0  0  0  0  0  0  0  0  0  0  0
   51.6543   24.9450   44.3377 H   0  0  0  0  0  0  0  0  0  0  0  0
   53.3120   25.4390   45.9250 H   0  0  0  0  0  0  0  0  0  0  0  0
   57.8412   23.1831   46.3969 H   0  0  0  0  0  0  0  0  0  0  0  0
   59.7409   24.5536   45.5499 H   0  0  0  0  0  0  0  0  0  0  0  0
   59.3919   26.9493   44.9574 H   0  0  0  0  0  0  0  0  0  0  0  0
   58.4116   28.1525   47.3310 H   0  0  0  0  0  0  0  0  0  0  0  0
   59.8649   28.9395   46.5964 H   0  0  0  0  0  0  0  0  0  0  0  0
   58.8217   34.0271   47.2878 H   0  0  0  0  0  0  0  0  0  0  0  0
   58.2017   34.9594   45.0576 H   0  0  0  0  0  0  0  0  0  0  0  0
   57.5189   33.4284   43.2096 H   0  0  0  0  0  0  0  0  0  0  0  0
   57.4313   30.9653   43.5903 H   0  0  0  0  0  0  0  0  0  0  0  0
  1  2  1  0
  2  3  1  0
  3  4  1  0
  4  5  2  0
  4  6  1  0
  6  7  1  0
  7  8  2  0
  8  9  1  0
  9 10  2  0
 10 11  1  0
 11 12  1  0
 12 13  2  0
 12 14  2  0
 12 15  1  0
 15 16  1  0
 16 17  1  0
 17 18  2  0
 17 19  1  0
 19 20  1  0
 20 21  2  0
 21 22  1  0
 22 23  2  0
 23 24  1  0
 24 25  2  0
 11 26  2  0
 26 27  1  0
 26  7  1  0
 25 15  1  0
 25 20  1  0
  1 28  1  0
  1 29  1  0
  1 30  1  0
  2 31  1  0
  2 32  1  0
  3 33  1  0
  8 34  1  0
  9 35  1  0
 10 36  1  0
 16 37  1  0
 16 38  1  0
 21 39  1  0
 22 40  1  0
 23 41  1  0
 24 42  1  0
M  CHG  3   6  -1  19  -1  27  -1
M  END
>  <UniqueID>  (32) 
32

>  <SMILES>  (32) 
CCNC(=O)[N-]c1cccc(S(=O)(=O)N2CC(=O)[N-]c3ccccc32)c1[O-]

>  <Energy>  (32) 
50.37393543228975

>  <Genealogy>  (32) 
CCNC(=O)[N-]c1cccc(S(=O)(=O)N2CC(=O)[N-]c3ccccc32)c1[O-] (protonated)
CCNC(=O)[N-]c1cccc(S(=O)(=O)N2CC(=O)[N-]c3ccccc32)c1[O-] (3D coordinates assigned)
CCNC(=O)[N-]c1cccc(S(=O)(=O)N2CC(=O)[N-]c3ccccc32)c1[O-] (nonaromatic ring conformer: 50.37393543228975 kcal/mol)

>  <smiles>  (32) 
CCNC(=O)Nc1cccc(S(=O)(=O)N2CC(=O)Nc3ccccc32)c1O

>  <score_type>  (32) 
oracle

>  <origin>  (32) 
adg

>  <m_score__min__energy>  (32) 
-15.24

>  <m_primary>  (32) 
energy

$$$$
32:0
     RDKit          3D

 52 55  0  0  0  0  0  0  0  0999 V2000
   54.2690   26.7320   46.5960 H   0  0  0  0  0  0  0  0  0  0  0  0
   55.0330   26.3280   46.0080 N   0  0  0  0  0  0  0  0  0  0  0  0
   56.1440   26.9630   45.8140 C   0  0  0  0  0  0  0  0  0  0  0  0
   56.1360   28.1970   45.2470 N   0  0  0  0  0  0  0  0  0  0  0  0
   57.2760   28.9110   45.0330 C   0  0  0  0  0  0  0  0  0  0  0  0
   57.1540   30.2580   44.3850 C   0  0  0  0  0  0  0  0  0  0  0  0
   57.0838   31.0336   45.1619 H   0  0  0  0  0  0  0  0  0  0  0  0
   58.0389   30.4452   43.7589 H   0  0  0  0  0  0  0  0  0  0  0  0
   56.2499   30.2832   43.7589 H   0  0  0  0  0  0  0  0  0  0  0  0
   58.5260   28.3750   45.4360 C   0  0  0  0  0  0  0  0  0  0  0  0
   59.8310   29.1130   45.2160 C   0  0  0  0  0  0  0  0  0  0  0  0
   60.6509   28.3811   45.1710 H   0  0  0  0  0  0  0  0  0  0  0  0
   59.7515   29.6755   44.2740 H   0  0  0  0  0  0  0  0  0  0  0  0
   60.1040   30.0640   46.2920 N   0  0  0  0  0  0  0  0  0  0  0  0
   59.1930   30.4450   47.3330 C   0  0  0  0  0  0  0  0  0  0  0  0
   58.4750   31.4650   47.1630 O   0  0  0  0  0  0  0  0  0  0  0  0
   59.0340   29.6490   48.5970 C   0  0  0  0  0  0  0  0  0  0  0  0
   57.9844   29.3362   48.6994 H   0  0  0  0  0  0  0  0  0  0  0  0
   59.6872   28.7653   48.5482 H   0  0  0  0  0  0  0  0  0  0  0  0
   59.4110   30.4550   49.7530 N   0  0  0  0  0  0  0  0  0  0  0  0
   60.6060   30.9820   49.9350 N   0  0  0  0  0  0  0  0  0  0  0  0
   60.5320   31.6620   51.0980 C   0  0  0  0  0  0  0  0  0  0  0  0
   61.6460   32.5160   51.6160 C   0  0  0  0  0  0  0  0  0  0  0  0
   61.4894   32.6922   52.6905 H   0  0  0  0  0  0  0  0  0  0  0  0
   62.5938   31.9876   51.4358 H   0  0  0  0  0  0  0  0  0  0  0  0
   61.7100   33.8710   50.8940 C   0  0  0  0  0  0  0  0  0  0  0  0
   60.7292   34.3623   50.9756 H   0  0  0  0  0  0  0  0  0  0  0  0
   62.4996   34.4702   51.3710 H   0  0  0  0  0  0  0  0  0  0  0  0
   62.0620   33.7230   49.4230 C   0  0  0  0  0  0  0  0  0  0  0  0
   63.3670   33.3040   49.1100 C   0  0  0  0  0  0  0  0  0  0  0  0
   64.0882   33.1297   49.9221 H   0  0  0  0  0  0  0  0  0  0  0  0
   63.7620   33.1060   47.7900 C   0  0  0  0  0  0  0  0  0  0  0  0
   64.7937   32.7954   47.5683 H   0  0  0  0  0  0  0  0  0  0  0  0
   62.8580   33.2990   46.7490 C   0  0  0  0  0  0  0  0  0  0  0  0
   63.1782   33.1397   45.7087 H   0  0  0  0  0  0  0  0  0  0  0  0
   61.5430   33.6950   47.0210 C   0  0  0  0  0  0  0  0  0  0  0  0
   60.6340   33.8550   45.9630 C   0  0  0  0  0  0  0  0  0  0  0  0
   60.9604   33.6744   44.9282 H   0  0  0  0  0  0  0  0  0  0  0  0
   59.3190   34.2420   46.2190 C   0  0  0  0  0  0  0  0  0  0  0  0
   58.6100   34.3591   45.3862 H   0  0  0  0  0  0  0  0  0  0  0  0
   58.9000   34.4810   47.5270 C   0  0  0  0  0  0  0  0  0  0  0  0
   57.8624   34.7898   47.7219 H   0  0  0  0  0  0  0  0  0  0  0  0
   59.7920   34.3300   48.5910 C   0  0  0  0  0  0  0  0  0  0  0  0
   59.4514   34.5284   49.6179 H   0  0  0  0  0  0  0  0  0  0  0  0
   61.1280   33.9250   48.3640 C   0  0  0  0  0  0  0  0  0  0  0  0
   59.3080   31.5950   51.6750 N   0  0  0  0  0  0  0  0  0  0  0  0
   58.6460   30.8180   50.7960 C   0  0  0  0  0  0  0  0  0  0  0  0
   57.4380   30.4870   50.9350 O   0  0  0  0  0  0  0  0  0  0  0  0
   58.5440   27.0830   45.9910 C   0  0  0  0  0  0  0  0  0  0  0  0
   59.5031   26.6225   46.2704 H   0  0  0  0  0  0  0  0  0  0  0  0
   57.3560   26.3810   46.1900 C   0  0  0  0  0  0  0  0  0  0  0  0
   57.3735   25.3771   46.6394 H   0  0  0  0  0  0  0  0  0  0  0  0
  1  2  1  0
  2  3  2  0
  3  4  1  0
  4  5  1  0
  5  6  1  0
  6  7  1  0
  6  8  1  0
  6  9  1  0
  5 10  2  0
 10 11  1  0
 11 12  1  0
 11 13  1  0
 11 14  1  0
 14 15  1  0
 15 16  2  0
 15 17  1  0
 17 18  1  0
 17 19  1  0
 17 20  1  0
 20 21  1  0
 21 22  1  0
 22 23  1  0
 23 24  1  0
 23 25  1  0
 23 26  1  0
 26 27  1  0
 26 28  1  0
 26 29  1  0
 29 30  2  0
 30 31  1  0
 30 32  1  0
 32 33  1  0
 32 34  2  0
 34 35  1  0
 34 36  1  0
 36 37  2  0
 37 38  1  0
 37 39  1  0
 39 40  1  0
 39 41  2  0
 41 42  1  0
 41 43  1  0
 43 44  1  0
 43 45  2  0
 22 46  2  0
 46 47  1  0
 47 48  2  0
 10 49  1  0
 49 50  1  0
 49 51  2  0
 51 52  1  0
 51  3  1  0
 47 20  1  0
 45 29  1  0
 45 36  1  0
M  CHG  3   4  -1  14  -1  21  -1
M  END
>  <UniqueID>  (33) 
33

>  <SMILES>  (33) 
[H]/N=c1/ccc(C[N-]C(=O)Cn2[n-]c(CCc3cccc4ccccc34)nc2=O)c(C)[n-]1

>  <Energy>  (33) 
86.57791356174552

>  <Genealogy>  (33) 
Cc1[n-]c(=N)ccc1C[N-]C(=O)Cn1[n-]c(CCc2cccc3ccccc23)nc1=O (protonated)
[H]/N=c1/ccc(C[N-]C(=O)Cn2[n-]c(CCc3cccc4ccccc34)nc2=O)c(C)[n-]1 (cis-trans isomerization)
[H]/N=c1/ccc(C[N-]C(=O)Cn2[n-]c(CCc3cccc4ccccc34)nc2=O)c(C)[n-]1 (3D coordinates assigned)
[H]/N=c1/ccc(C[N-]C(=O)Cn2[n-]c(CCc3cccc4ccccc34)nc2=O)c(C)[n-]1 (optimized conformer: 86.57791356174552 kcal/mol)

>  <smiles>  (33) 
Cc1[nH]c(=N)ccc1CNC(=O)Cn1[nH]c(CCc2cccc3ccccc23)nc1=O

>  <score_type>  (33) 
oracle

>  <origin>  (33) 
adg

>  <m_score__min__energy>  (33) 
-14.550000000000001

>  <m_primary>  (33) 
energy

$$$$
33:0
     RDKit          3D

 41 43  0  0  1  0  0  0  0  0999 V2000
   56.6480   30.5250   43.4900 C   0  0  0  0  0  0  0  0  0  0  0  0
   56.6360   31.1930   44.6910 O   0  0  0  0  0  0  0  0  0  0  0  0
   57.2740   32.4020   44.5810 C   0  0  0  0  0  0  0  0  0  0  0  0
   57.4120   33.1490   45.8850 C   0  0  0  0  0  0  0  0  0  0  0  0
   58.8620   33.3540   46.0490 N   0  0  0  0  0  0  0  0  0  0  0  0
   59.5730   32.3320   46.3820 C   0  0  0  0  0  0  0  0  0  0  0  0
   59.0610   31.0670   46.3760 N   0  0  0  0  0  0  0  0  0  0  0  0
   59.7610   29.9950   46.7100 C   0  0  0  0  0  0  0  0  0  0  0  0
   59.3070   28.6250   46.7340 C   0  0  0  0  0  0  0  0  0  0  0  0
   60.2310   27.6110   47.0230 C   0  0  0  0  0  0  0  0  0  0  0  0
   59.8740   26.2850   47.0650 C   0  0  0  0  0  0  0  0  0  0  0  0
   58.5820   25.8730   46.8230 C   0  0  0  0  0  0  0  0  0  0  0  0
   57.6590   26.8510   46.5370 C   0  0  0  0  0  0  0  0  0  0  0  0
   56.3210   26.4430   46.2840 N   0  0  0  0  0  0  0  0  0  0  0  0
   55.5360   27.1440   45.6380 O   0  0  0  0  0  0  0  0  0  0  0  0
   55.8900   25.2190   46.7820 O   0  0  0  0  0  0  0  0  0  0  0  0
   58.0250   28.2000   46.4950 C   0  0  0  0  0  0  0  0  0  0  0  0
   57.0240   29.0880   46.2010 O   0  0  0  0  0  0  0  0  0  0  0  0
   61.0610   30.2270   47.0730 N   0  0  0  0  0  0  0  0  0  0  0  0
   61.6190   31.4320   47.1000 C   0  0  0  0  0  0  0  0  0  0  0  0
   62.9390   31.5240   47.4850 C   0  0  0  0  0  0  0  0  0  0  0  0
   63.4870   32.8020   47.5010 C   0  0  0  0  0  0  0  0  0  0  0  0
   62.7500   33.9220   47.1490 C   0  0  0  0  0  0  0  0  0  0  0  0
   61.4320   33.7980   46.7680 C   0  0  0  0  0  0  0  0  0  0  0  0
   60.8820   32.5380   46.7500 C   0  0  0  0  0  0  0  0  0  0  0  0
   56.6675   29.4406   43.6737 H   0  0  0  0  0  0  0  0  0  0  0  0
   55.7451   30.7837   42.9175 H   0  0  0  0  0  0  0  0  0  0  0  0
   57.5411   30.8160   42.9175 H   0  0  0  0  0  0  0  0  0  0  0  0
   58.2815   32.2250   44.1765 H   0  0  0  0  0  0  0  0  0  0  0  0
   56.6543   33.0279   43.9220 H   0  0  0  0  0  0  0  0  0  0  0  0
   56.8871   34.1145   45.8361 H   0  0  0  0  0  0  0  0  0  0  0  0
   56.9724   32.5968   46.7287 H   0  0  0  0  0  0  0  0  0  0  0  0
   58.0790   30.9870   46.0910 H   0  0  0  0  0  0  0  0  0  0  0  0
   61.2771   27.8864   47.2229 H   0  0  0  0  0  0  0  0  0  0  0  0
   60.6409   25.5317   47.2983 H   0  0  0  0  0  0  0  0  0  0  0  0
   58.3015   24.8099   46.8570 H   0  0  0  0  0  0  0  0  0  0  0  0
   56.4600   29.0980   45.3560 H   0  0  0  0  0  0  0  0  0  0  0  0
   63.5261   30.6366   47.7639 H   0  0  0  0  0  0  0  0  0  0  0  0
   64.5374   32.9280   47.8022 H   0  0  0  0  0  0  0  0  0  0  0  0
   63.2205   34.9160   47.1741 H   0  0  0  0  0  0  0  0  0  0  0  0
   60.8378   34.6800   46.4868 H   0  0  0  0  0  0  0  0  0  0  0  0
  1  2  1  0
  2  3  1  0
  3  4  1  0
  4  5  1  0
  5  6  2  0
  6  7  1  0
  7  8  1  0
  8  9  1  0
  9 10  2  0
 10 11  1  0
 11 12  2  0
 12 13  1  0
 13 14  1  0
 14 15  2  0
 14 16  1  0
 13 17  2  0
 17 18  1  0
  8 19  2  0
 19 20  1  0
 20 21  2  0
 21 22  1  0
 22 23  2  0
 23 24  1  0
 24 25  2  0
 25  6  1  0
 17  9  1  0
 25 20  1  0
  1 26  1  0
  1 27  1  0
  1 28  1  0
  3 29  1  0
  3 30  1  0
  4 31  1  0
  4 32  1  0
  7 33  1  0
 10 34  1  0
 11 35  1  0
 12 36  1  0
 18 37  1  0
 21 38  1  0
 22 39  1  0
 23 40  1  0
 24 41  1  0
M  CHG  2  14   1  16  -1
M  END
>  <smiles>  (34) 
COCCN=c1[nH]c(-c2cccc([N+](=O)[O-])c2O)nc2ccccc12

>  <score_type>  (34) 
oracle

>  <origin>  (34) 
adg

>  <m_score__min__energy>  (34) 
-8.7799999999999994

>  <m_primary>  (34) 
energy

$$$$
34:0
     RDKit          3D

 54 55  0  0  0  0  0  0  0  0999 V2000
   56.2790   31.5420   45.2460 H   0  0  0  0  0  0  0  0  0  0  0  0
   56.6080   32.4990   45.2720 O   0  0  0  0  0  0  0  0  0  0  0  0
   57.6860   32.9240   46.0540 C   0  0  0  0  0  0  0  0  0  0  0  0
   57.8590   34.2980   46.2350 C   0  0  0  0  0  0  0  0  0  0  0  0
   57.1651   35.0018   45.7520 H   0  0  0  0  0  0  0  0  0  0  0  0
   58.9000   34.7870   47.0200 C   0  0  0  0  0  0  0  0  0  0  0  0
   59.0244   35.8724   47.1479 H   0  0  0  0  0  0  0  0  0  0  0  0
   59.7900   33.9060   47.6480 C   0  0  0  0  0  0  0  0  0  0  0  0
   60.9220   34.4780   48.4700 C   0  0  0  0  0  0  0  0  0  0  0  0
   61.1838   35.4728   48.0803 H   0  0  0  0  0  0  0  0  0  0  0  0
   60.5950   34.5511   49.5177 H   0  0  0  0  0  0  0  0  0  0  0  0
   62.1140   33.6020   48.4050 N   0  0  0  0  0  0  0  0  0  0  0  0
   62.9710   33.7450   49.6120 C   0  0  0  0  0  0  0  0  0  0  0  0
   64.0277   33.7781   49.3084 H   0  0  0  0  0  0  0  0  0  0  0  0
   62.7085   34.6751   50.1373 H   0  0  0  0  0  0  0  0  0  0  0  0
   62.7480   32.5580   50.5440 C   0  0  0  0  0  0  0  0  0  0  0  0
   63.6547   32.3874   51.1430 H   0  0  0  0  0  0  0  0  0  0  0  0
   61.9005   32.7719   51.2118 H   0  0  0  0  0  0  0  0  0  0  0  0
   62.4670   31.4140   49.7880 O   0  0  0  0  0  0  0  0  0  0  0  0
   61.8850   31.7140   49.0420 H   0  0  0  0  0  0  0  0  0  0  0  0
   62.8730   33.8490   47.1580 C   0  0  0  0  0  0  0  0  0  0  0  0
   62.1665   34.0478   46.3386 H   0  0  0  0  0  0  0  0  0  0  0  0
   63.5330   34.7155   47.3114 H   0  0  0  0  0  0  0  0  0  0  0  0
   63.7330   32.6320   46.7970 C   0  0  0  0  0  0  0  0  0  0  0  0
   63.8109   32.5538   45.7026 H   0  0  0  0  0  0  0  0  0  0  0  0
   64.7337   32.7563   47.2366 H   0  0  0  0  0  0  0  0  0  0  0  0
   63.1520   31.4610   47.3050 O   0  0  0  0  0  0  0  0  0  0  0  0
   62.2590   31.7150   47.6580 H   0  0  0  0  0  0  0  0  0  0  0  0
   59.6280   32.5170   47.4740 C   0  0  0  0  0  0  0  0  0  0  0  0
   60.5020   31.6370   48.1080 O   0  0  0  0  0  0  0  0  0  0  0  0
   58.5880   32.0150   46.6610 C   0  0  0  0  0  0  0  0  0  0  0  0
   58.4270   30.5260   46.4660 C   0  0  0  0  0  0  0  0  0  0  0  0
   57.7242   30.1322   47.2150 H   0  0  0  0  0  0  0  0  0  0  0  0
   59.4035   30.0335   46.5840 H   0  0  0  0  0  0  0  0  0  0  0  0
   57.9090   30.2630   45.1280 N   0  0  0  0  0  0  0  0  0  0  0  0
   56.9750   29.2260   44.8110 C   0  0  0  0  0  0  0  0  0  0  0  0
   55.7430   29.4820   44.8950 O   0  0  0  0  0  0  0  0  0  0  0  0
   57.4340   27.8660   44.4330 C   0  0  0  0  0  0  0  0  0  0  0  0
   57.7537   27.7107   43.3920 H   0  0  0  0  0  0  0  0  0  0  0  0
   57.4900   26.8110   45.2600 C   0  0  0  0  0  0  0  0  0  0  0  0
   58.2139   26.8510   46.0872 H   0  0  0  0  0  0  0  0  0  0  0  0
   56.6520   25.5990   45.1430 C   0  0  0  0  0  0  0  0  0  0  0  0
   57.1640   24.4820   44.4650 C   0  0  0  0  0  0  0  0  0  0  0  0
   58.1811   24.5170   44.0476 H   0  0  0  0  0  0  0  0  0  0  0  0
   56.3880   23.3170   44.3140 C   0  0  0  0  0  0  0  0  0  0  0  0
   56.9240   22.1620   43.6400 N   0  0  0  0  0  0  0  0  0  0  0  0
   56.2030   21.4700   42.8910 O   0  0  0  0  0  0  0  0  0  0  0  0
   58.2500   21.8230   43.7820 O   0  0  0  0  0  0  0  0  0  0  0  0
   55.0820   23.2960   44.8300 C   0  0  0  0  0  0  0  0  0  0  0  0
   54.4674   22.3899   44.7237 H   0  0  0  0  0  0  0  0  0  0  0  0
   54.5580   24.4170   45.4770 C   0  0  0  0  0  0  0  0  0  0  0  0
   53.5314   24.3913   45.8713 H   0  0  0  0  0  0  0  0  0  0  0  0
   55.3310   25.5710   45.6260 C   0  0  0  0  0  0  0  0  0  0  0  0
   54.7760   26.6870   46.2430 O   0  0  0  0  0  0  0  0  0  0  0  0
  1  2  1  0
  2  3  1  0
  3  4  2  0
  4  5  1  0
  4  6  1  0
  6  7  1  0
  6  8  2  0
  8  9  1  0
  9 10  1  0
  9 11  1  0
  9 12  1  0
 12 13  1  0
 13 14  1  0
 13 15  1  0
 13 16  1  0
 16 17  1  0
 16 18  1  0
 16 19  1  0
 19 20  1  0
 12 21  1  0
 21 22  1  0
 21 23  1  0
 21 24  1  0
 24 25  1  0
 24 26  1  0
 24 27  1  0
 27 28  1  0
  8 29  1  0
 29 30  1  0
 29 31  2  0
 31 32  1  0
 32 33  1  0
 32 34  1  0
 32 35  1  0
 35 36  1  0
 36 37  2  0
 36 38  1  0
 38 39  1  0
 38 40  2  0
 40 41  1  0
 40 42  1  0
 42 43  2  0
 43 44  1  0
 43 45  1  0
 45 46  1  0
 46 47  2  0
 46 48  1  0
 45 49  2  0
 49 50  1  0
 49 51  1  0
 51 52  1  0
 51 53  2  0
 53 54  1  0
 31  3  1  0
 53 42  1  0
M  CHG  5  30  -1  35  -1  46   1  48  -1  54  -1
M  END
>  <UniqueID>  (35) 
34

>  <SMILES>  (35) 
O=C(/C=C\c1cc([N+](=O)[O-])ccc1[O-])[N-]Cc1c(O)ccc(CN(CCO)CCO)c1[O-]

>  <Energy>  (35) 
64.62799763029213

>  <Genealogy>  (35) 
O=C(C=Cc1cc([N+](=O)[O-])ccc1[O-])[N-]Cc1c(O)ccc(CN(CCO)CCO)c1[O-] (protonated)
O=C(/C=C\c1cc([N+](=O)[O-])ccc1[O-])[N-]Cc1c(O)ccc(CN(CCO)CCO)c1[O-] (cis-trans isomerization)
O=C(/C=C\c1cc([N+](=O)[O-])ccc1[O-])[N-]Cc1c(O)ccc(CN(CCO)CCO)c1[O-] (3D coordinates assigned)
O=C(/C=C\c1cc([N+](=O)[O-])ccc1[O-])[N-]Cc1c(O)ccc(CN(CCO)CCO)c1[O-] (optimized conformer: 64.62799763029213 kcal/mol)

>  <smiles>  (35) 
O=C(C=Cc1cc([N+](=O)[O-])ccc1O)NCc1c(O)ccc(CN(CCO)CCO)c1O

>  <score_type>  (35) 
oracle

>  <origin>  (35) 
adg

>  <m_score__min__energy>  (35) 
-13.119999999999999

>  <m_primary>  (35) 
energy

$$$$
35:0
     RDKit          3D

 44 46  0  0  0  0  0  0  0  0999 V2000
   55.5420   30.6180   44.2770 O   0  0  0  0  0  0  0  0  0  0  0  0
   56.6630   30.0530   44.1470 C   0  0  0  0  0  0  0  0  0  0  0  0
   56.8110   28.6110   44.5170 C   0  0  0  0  0  0  0  0  0  0  0  0
   58.5020   28.0220   44.1560 S   0  0  0  0  0  0  0  0  0  0  0  0
   59.2300   28.7680   45.6120 C   0  0  0  0  0  0  0  0  0  0  0  0
   59.5870   27.9900   46.6670 N   0  0  0  0  0  0  0  0  0  0  0  0
   60.1260   28.5350   47.7890 C   0  0  0  0  0  0  0  0  0  0  0  0
   60.4520   27.7840   48.7450 O   0  0  0  0  0  0  0  0  0  0  0  0
   60.3100   29.9250   47.8710 C   0  0  0  0  0  0  0  0  0  0  0  0
   61.0160   30.6960   49.2900 S   0  0  0  0  0  0  0  0  0  0  0  0
   59.9410   31.3900   50.0800 O   0  0  0  0  0  0  0  0  0  0  0  0
   61.6560   29.6670   50.1820 O   0  0  0  0  0  0  0  0  0  0  0  0
   62.2160   31.8700   48.7630 C   0  0  0  0  0  0  0  0  0  0  0  0
   61.9490   32.7000   47.6640 C   0  0  0  0  0  0  0  0  0  0  0  0
   62.9100   33.6170   47.2280 C   0  0  0  0  0  0  0  0  0  0  0  0
   64.1420   33.7050   47.8830 C   0  0  0  0  0  0  0  0  0  0  0  0
   64.4170   32.8720   48.9730 C   0  0  0  0  0  0  0  0  0  0  0  0
   63.4570   31.9550   49.4110 C   0  0  0  0  0  0  0  0  0  0  0  0
   59.9520   30.6990   46.7630 C   0  0  0  0  0  0  0  0  0  0  0  0
   59.4210   30.1110   45.6620 N   0  0  0  0  0  0  0  0  0  0  0  0
   57.7950   30.7930   43.6700 N   0  0  0  0  0  0  0  0  0  0  0  0
   57.7560   32.2390   43.4740 C   0  0  0  0  0  0  0  0  0  0  0  0
   58.1440   32.9470   44.7440 C   0  0  0  0  0  0  0  0  0  0  0  0
   59.2160   33.8560   44.7600 C   0  0  0  0  0  0  0  0  0  0  0  0
   59.5630   34.5140   45.9440 C   0  0  0  0  0  0  0  0  0  0  0  0
   58.8390   34.2770   47.1160 C   0  0  0  0  0  0  0  0  0  0  0  0
   57.7640   33.3840   47.1050 C   0  0  0  0  0  0  0  0  0  0  0  0
   57.4170   32.7200   45.9250 C   0  0  0  0  0  0  0  0  0  0  0  0
   56.6087   28.4913   45.5916 H   0  0  0  0  0  0  0  0  0  0  0  0
   56.0967   28.0191   43.9259 H   0  0  0  0  0  0  0  0  0  0  0  0
   60.9820   32.6292   47.1445 H   0  0  0  0  0  0  0  0  0  0  0  0
   62.6966   34.2699   46.3688 H   0  0  0  0  0  0  0  0  0  0  0  0
   64.8957   34.4297   47.5412 H   0  0  0  0  0  0  0  0  0  0  0  0
   65.3882   32.9386   49.4851 H   0  0  0  0  0  0  0  0  0  0  0  0
   63.6755   31.2984   50.2661 H   0  0  0  0  0  0  0  0  0  0  0  0
   60.1015   31.7886   46.7842 H   0  0  0  0  0  0  0  0  0  0  0  0
   58.6940   30.2890   43.4950 H   0  0  0  0  0  0  0  0  0  0  0  0
   58.4587   32.5162   42.6744 H   0  0  0  0  0  0  0  0  0  0  0  0
   56.7339   32.5358   43.1959 H   0  0  0  0  0  0  0  0  0  0  0  0
   59.7838   34.0504   43.8381 H   0  0  0  0  0  0  0  0  0  0  0  0
   60.4071   35.2193   45.9531 H   0  0  0  0  0  0  0  0  0  0  0  0
   59.1154   34.7934   48.0471 H   0  0  0  0  0  0  0  0  0  0  0  0
   57.1903   33.2035   48.0260 H   0  0  0  0  0  0  0  0  0  0  0  0
   56.5712   32.0167   45.9208 H   0  0  0  0  0  0  0  0  0  0  0  0
  1  2  2  0
  2  3  1  0
  3  4  1  0
  4  5  1  0
  5  6  2  0
  6  7  1  0
  7  8  2  0
  7  9  1  0
  9 10  1  0
 10 11  2  0
 10 12  2  0
 10 13  1  0
 13 14  2  0
 14 15  1  0
 15 16  2  0
 16 17  1  0
 17 18  2  0
  9 19  2  0
 19 20  1  0
  2 21  1  0
 21 22  1  0
 22 23  1  0
 23 24  2  0
 24 25  1  0
 25 26  2  0
 26 27  1  0
 27 28  2  0
 20  5  1  0
 28 23  1  0
 18 13  1  0
  3 29  1  0
  3 30  1  0
 14 31  1  0
 15 32  1  0
 16 33  1  0
 17 34  1  0
 18 35  1  0
 19 36  1  0
 21 37  1  0
 22 38  1  0
 22 39  1  0
 24 40  1  0
 25 41  1  0
 26 42  1  0
 27 43  1  0
 28 44  1  0
M  CHG  1  20  -1
M  END
>  <UniqueID>  (36) 
35

>  <SMILES>  (36) 
O=C(CSc1nc(=O)c(S(=O)(=O)c2ccccc2)c[n-]1)NCc1ccccc1

>  <Energy>  (36) 
40.270314422237654

>  <Genealogy>  (36) 
O=C(CSc1nc(=O)c(S(=O)(=O)c2ccccc2)c[n-]1)NCc1ccccc1 (protonated)
O=C(CSc1nc(=O)c(S(=O)(=O)c2ccccc2)c[n-]1)NCc1ccccc1 (3D coordinates assigned)
O=C(CSc1nc(=O)c(S(=O)(=O)c2ccccc2)c[n-]1)NCc1ccccc1 (optimized conformer: 40.270314422237654 kcal/mol)

>  <smiles>  (36) 
O=C(CSc1nc(=O)c(S(=O)(=O)c2ccccc2)c[nH]1)NCc1ccccc1

>  <score_type>  (36) 
oracle

>  <origin>  (36) 
adg

>  <m_score__min__energy>  (36) 
-10.289999999999999

>  <m_primary>  (36) 
energy

$$$$
36:0
     RDKit          3D

 47 49  0  0  0  0  0  0  0  0999 V2000
   58.4290   27.4580   43.5090 C   0  0  0  0  0  0  0  0  0  0  0  0
   58.4260   28.6710   44.3500 N   0  0  0  0  0  0  0  0  0  0  0  0
   59.4440   28.8990   45.2490 C   0  0  0  0  0  0  0  0  0  0  0  0
   60.5820   27.9290   45.4600 C   0  0  0  0  0  0  0  0  0  0  0  0
   60.3430   27.0810   46.6700 C   0  0  0  0  0  0  0  0  0  0  0  0
   61.3210   26.5460   47.2590 O   0  0  0  0  0  0  0  0  0  0  0  0
   59.0080   26.9190   47.1660 N   0  0  0  0  0  0  0  0  0  0  0  0
   57.9790   26.0860   46.6140 C   0  0  0  0  0  0  0  0  0  0  0  0
   58.2510   24.8170   46.0710 C   0  0  0  0  0  0  0  0  0  0  0  0
   57.2160   24.0490   45.5260 C   0  0  0  0  0  0  0  0  0  0  0  0
   55.9070   24.5430   45.5030 C   0  0  0  0  0  0  0  0  0  0  0  0
   54.6220   23.5640   44.8160 Cl  0  0  0  0  0  0  0  0  0  0  0  0
   55.6360   25.8180   46.0190 C   0  0  0  0  0  0  0  0  0  0  0  0
   54.3420   26.3280   45.9920 O   0  0  0  0  0  0  0  0  0  0  0  0
   56.6710   26.5860   46.5640 C   0  0  0  0  0  0  0  0  0  0  0  0
   59.4290   30.0170   46.0190 N   0  0  0  0  0  0  0  0  0  0  0  0
   58.4550   30.9530   45.9280 C   0  0  0  0  0  0  0  0  0  0  0  0
   58.5390   32.1420   46.8030 C   0  0  0  0  0  0  0  0  0  0  0  0
   58.4710   32.0290   48.0570 O   0  0  0  0  0  0  0  0  0  0  0  0
   58.6980   33.4370   46.2130 N   0  0  0  0  0  0  0  0  0  0  0  0
   59.3150   34.5670   46.8980 C   0  0  0  0  0  0  0  0  0  0  0  0
   60.7120   34.2130   47.3310 C   0  0  0  0  0  0  0  0  0  0  0  0
   61.0420   34.2010   48.6950 C   0  0  0  0  0  0  0  0  0  0  0  0
   62.3310   33.8420   49.1050 C   0  0  0  0  0  0  0  0  0  0  0  0
   63.2930   33.4860   48.1570 C   0  0  0  0  0  0  0  0  0  0  0  0
   64.5420   33.1370   48.5550 F   0  0  0  0  0  0  0  0  0  0  0  0
   62.9700   33.4900   46.7970 C   0  0  0  0  0  0  0  0  0  0  0  0
   61.6830   33.8490   46.3830 C   0  0  0  0  0  0  0  0  0  0  0  0
   57.4200   30.7660   45.0010 C   0  0  0  0  0  0  0  0  0  0  0  0
   56.4020   31.7150   44.8670 O   0  0  0  0  0  0  0  0  0  0  0  0
   57.4290   29.6060   44.2100 C   0  0  0  0  0  0  0  0  0  0  0  0
   56.5080   29.4380   43.3630 O   0  0  0  0  0  0  0  0  0  0  0  0
   58.4312   26.5658   44.1524 H   0  0  0  0  0  0  0  0  0  0  0  0
   57.5309   27.4499   42.8739 H   0  0  0  0  0  0  0  0  0  0  0  0
   59.3272   27.4543   42.8739 H   0  0  0  0  0  0  0  0  0  0  0  0
   60.6702   27.2795   44.5766 H   0  0  0  0  0  0  0  0  0  0  0  0
   61.5091   28.5018   45.6096 H   0  0  0  0  0  0  0  0  0  0  0  0
   59.2798   24.4276   46.0749 H   0  0  0  0  0  0  0  0  0  0  0  0
   57.4324   23.0524   45.1138 H   0  0  0  0  0  0  0  0  0  0  0  0
   56.4559   27.5908   46.9565 H   0  0  0  0  0  0  0  0  0  0  0  0
   59.3537   35.4286   46.2152 H   0  0  0  0  0  0  0  0  0  0  0  0
   58.7169   34.8180   47.7864 H   0  0  0  0  0  0  0  0  0  0  0  0
   60.2848   34.4747   49.4445 H   0  0  0  0  0  0  0  0  0  0  0  0
   62.5868   33.8402   50.1748 H   0  0  0  0  0  0  0  0  0  0  0  0
   63.7289   33.2105   46.0514 H   0  0  0  0  0  0  0  0  0  0  0  0
   61.4305   33.8463   45.3124 H   0  0  0  0  0  0  0  0  0  0  0  0
   55.6950   31.6550   44.1450 H   0  0  0  0  0  0  0  0  0  0  0  0
  1  2  1  0
  2  3  1  0
  3  4  1  0
  4  5  1  0
  5  6  2  0
  5  7  1  0
  7  8  1  0
  8  9  2  0
  9 10  1  0
 10 11  2  0
 11 12  1  0
 11 13  1  0
 13 14  1  0
 13 15  2  0
  3 16  2  0
 16 17  1  0
 17 18  1  0
 18 19  2  0
 18 20  1  0
 20 21  1  0
 21 22  1  0
 22 23  2  0
 23 24  1  0
 24 25  2  0
 25 26  1  0
 25 27  1  0
 27 28  2  0
 17 29  2  0
 29 30  1  0
 29 31  1  0
 31 32  2  0
 31  2  1  0
 15  8  1  0
 28 22  1  0
  1 33  1  0
  1 34  1  0
  1 35  1  0
  4 36  1  0
  4 37  1  0
  9 38  1  0
 10 39  1  0
 15 40  1  0
 21 41  1  0
 21 42  1  0
 23 43  1  0
 24 44  1  0
 27 45  1  0
 28 46  1  0
 30 47  1  0
M  CHG  3   7  -1  14  -1  20  -1
M  END
>  <UniqueID>  (37) 
36

>  <SMILES>  (37) 
Cn1c(CC(=O)[N-]c2ccc(Cl)c([O-])c2)nc(C(=O)[N-]Cc2ccc(F)cc2)c(O)c1=O

>  <Energy>  (37) 
56.30878011976466

>  <Genealogy>  (37) 
Cn1c(CC(=O)[N-]c2ccc(Cl)c([O-])c2)nc(C(=O)[N-]Cc2ccc(F)cc2)c(O)c1=O (protonated)
Cn1c(CC(=O)[N-]c2ccc(Cl)c([O-])c2)nc(C(=O)[N-]Cc2ccc(F)cc2)c(O)c1=O (3D coordinates assigned)
Cn1c(CC(=O)[N-]c2ccc(Cl)c([O-])c2)nc(C(=O)[N-]Cc2ccc(F)cc2)c(O)c1=O (optimized conformer: 56.30878011976466 kcal/mol)

>  <smiles>  (37) 
Cn1c(CC(=O)Nc2ccc(Cl)c(O)c2)nc(C(=O)NCc2ccc(F)cc2)c(O)c1=O

>  <score_type>  (37) 
oracle

>  <origin>  (37) 
adg

>  <m_score__min__energy>  (37) 
-14.16

>  <m_primary>  (37) 
energy

$$$$
37:0
     RDKit          3D

 37 39  0  0  0  0  0  0  0  0999 V2000
   58.3451   21.1700   45.6585 H   0  0  0  0  0  0  0  0  0  0  0  0
   57.8320   22.1410   45.7210 C   0  0  0  0  0  0  0  0  0  0  0  0
   57.4180   22.6140   46.9260 N   0  0  0  0  0  0  0  0  0  0  0  0
   56.7760   23.8060   47.0500 C   0  0  0  0  0  0  0  0  0  0  0  0
   56.4040   24.1870   48.1920 O   0  0  0  0  0  0  0  0  0  0  0  0
   56.5170   24.5930   45.9070 C   0  0  0  0  0  0  0  0  0  0  0  0
   55.8230   25.9020   46.0060 C   0  0  0  0  0  0  0  0  0  0  0  0
   54.5790   25.9600   45.8100 O   0  0  0  0  0  0  0  0  0  0  0  0
   56.5120   27.1010   46.3780 N   0  0  0  0  0  0  0  0  0  0  0  0
   56.9530   28.1310   45.4840 C   0  0  0  0  0  0  0  0  0  0  0  0
   55.9290   29.2990   44.8430 S   0  0  0  0  0  0  0  0  0  0  0  0
   57.1540   30.0160   43.9430 C   0  0  0  0  0  0  0  0  0  0  0  0
   56.9590   31.0740   43.2100 N   0  0  0  0  0  0  0  0  0  0  0  0
   57.7570   32.2680   43.1310 C   0  0  0  0  0  0  0  0  0  0  0  0
   58.1300   32.7180   42.0140 O   0  0  0  0  0  0  0  0  0  0  0  0
   58.0860   33.0150   44.3680 C   0  0  0  0  0  0  0  0  0  0  0  0
   57.3600   32.7910   45.5540 C   0  0  0  0  0  0  0  0  0  0  0  0
   56.5427   32.0548   45.5628 H   0  0  0  0  0  0  0  0  0  0  0  0
   57.6700   33.4970   46.7200 C   0  0  0  0  0  0  0  0  0  0  0  0
   57.0972   33.3139   47.6411 H   0  0  0  0  0  0  0  0  0  0  0  0
   58.7050   34.4340   46.7180 C   0  0  0  0  0  0  0  0  0  0  0  0
   59.0040   35.1180   47.8500 F   0  0  0  0  0  0  0  0  0  0  0  0
   59.4320   34.6670   45.5470 C   0  0  0  0  0  0  0  0  0  0  0  0
   60.2467   35.4061   45.5452 H   0  0  0  0  0  0  0  0  0  0  0  0
   59.1270   33.9640   44.3790 C   0  0  0  0  0  0  0  0  0  0  0  0
   59.7037   34.1528   43.4615 H   0  0  0  0  0  0  0  0  0  0  0  0
   58.3400   29.3780   44.1130 N   0  0  0  0  0  0  0  0  0  0  0  0
   59.2480   29.6570   43.6840 H   0  0  0  0  0  0  0  0  0  0  0  0
   58.2360   28.3080   44.9500 C   0  0  0  0  0  0  0  0  0  0  0  0
   59.4130   27.4240   45.2310 C   0  0  0  0  0  0  0  0  0  0  0  0
   59.5455   27.3245   46.3184 H   0  0  0  0  0  0  0  0  0  0  0  0
   59.2394   26.4312   44.7904 H   0  0  0  0  0  0  0  0  0  0  0  0
   60.3181   27.8675   44.7904 H   0  0  0  0  0  0  0  0  0  0  0  0
   56.9530   24.1150   44.6590 C   0  0  0  0  0  0  0  0  0  0  0  0
   56.7781   24.7128   43.7523 H   0  0  0  0  0  0  0  0  0  0  0  0
   57.6070   22.8850   44.5650 C   0  0  0  0  0  0  0  0  0  0  0  0
   57.9413   22.5071   43.5875 H   0  0  0  0  0  0  0  0  0  0  0  0
  1  2  1  0
  2  3  1  0
  3  4  1  0
  4  5  2  0
  4  6  1  0
  6  7  1  0
  7  8  2  0
  7  9  1  0
  9 10  1  0
 10 11  1  0
 11 12  1  0
 12 13  2  0
 13 14  1  0
 14 15  2  0
 14 16  1  0
 16 17  2  0
 17 18  1  0
 17 19  1  0
 19 20  1  0
 19 21  2  0
 21 22  1  0
 21 23  1  0
 23 24  1  0
 23 25  2  0
 25 26  1  0
 12 27  1  0
 27 28  1  0
 27 29  1  0
 29 30  1  0
 30 31  1  0
 30 32  1  0
 30 33  1  0
  6 34  2  0
 34 35  1  0
 34 36  1  0
 36 37  1  0
 36  2  2  0
 29 10  2  0
 25 16  1  0
M  CHG  2   3  -1   9  -1
M  END
>  <UniqueID>  (38) 
37

>  <SMILES>  (38) 
Cc1[nH]/c(=N\C(=O)c2ccc(F)cc2)sc1[N-]C(=O)c1ccc[n-]c1=O

>  <Energy>  (38) 
85.74316974143439

>  <Genealogy>  (38) 
Cc1[nH]c(=NC(=O)c2ccc(F)cc2)sc1[N-]C(=O)c1ccc[n-]c1=O (protonated)
Cc1[nH]/c(=N\C(=O)c2ccc(F)cc2)sc1[N-]C(=O)c1ccc[n-]c1=O (cis-trans isomerization)
Cc1[nH]/c(=N\C(=O)c2ccc(F)cc2)sc1[N-]C(=O)c1ccc[n-]c1=O (3D coordinates assigned)
Cc1[nH]/c(=N\C(=O)c2ccc(F)cc2)sc1[N-]C(=O)c1ccc[n-]c1=O (optimized conformer: 85.74316974143439 kcal/mol)

>  <smiles>  (38) 
Cc1[nH]c(=NC(=O)c2ccc(F)cc2)sc1NC(=O)c1ccc[nH]c1=O

>  <score_type>  (38) 
oracle

>  <origin>  (38) 
adg

>  <m_score__min__energy>  (38) 
-12.119999999999999

>  <m_primary>  (38) 
energy

$$$$
38:0
     RDKit          3D

 60 64  0  0  0  0  0  0  0  0999 V2000
   60.5785   27.6455   49.6538 H   0  0  0  0  0  0  0  0  0  0  0  0
   60.3190   28.5330   49.0580 C   0  0  0  0  0  0  0  0  0  0  0  0
   59.6830   28.4890   47.8870 C   0  0  0  0  0  0  0  0  0  0  0  0
   59.2060   27.2540   47.1990 C   0  0  0  0  0  0  0  0  0  0  0  0
   60.1400   26.3320   46.6880 C   0  0  0  0  0  0  0  0  0  0  0  0
   61.2163   26.5250   46.8079 H   0  0  0  0  0  0  0  0  0  0  0  0
   59.7150   25.1760   46.0310 C   0  0  0  0  0  0  0  0  0  0  0  0
   60.4567   24.4668   45.6349 H   0  0  0  0  0  0  0  0  0  0  0  0
   58.3550   24.9170   45.8750 C   0  0  0  0  0  0  0  0  0  0  0  0
   58.0275   24.0086   45.3482 H   0  0  0  0  0  0  0  0  0  0  0  0
   57.4010   25.8100   46.3870 C   0  0  0  0  0  0  0  0  0  0  0  0
   55.9520   25.5420   46.2190 C   0  0  0  0  0  0  0  0  0  0  0  0
   55.1740   26.5050   45.9760 O   0  0  0  0  0  0  0  0  0  0  0  0
   55.4040   24.2160   46.2710 N   0  0  0  0  0  0  0  0  0  0  0  0
   54.1950   23.8790   45.9300 C   0  0  0  0  0  0  0  0  0  0  0  0
   53.3660   24.6820   45.2090 N   0  0  0  0  0  0  0  0  0  0  0  0
   52.2660   23.9250   45.0900 C   0  0  0  0  0  0  0  0  0  0  0  0
   51.0740   24.2490   44.4460 C   0  0  0  0  0  0  0  0  0  0  0  0
   50.9421   25.2205   43.9473 H   0  0  0  0  0  0  0  0  0  0  0  0
   50.0440   23.2890   44.4560 C   0  0  0  0  0  0  0  0  0  0  0  0
   49.0865   23.5089   43.9613 H   0  0  0  0  0  0  0  0  0  0  0  0
   50.2340   22.0430   45.0990 C   0  0  0  0  0  0  0  0  0  0  0  0
   49.4234   21.2994   45.1007 H   0  0  0  0  0  0  0  0  0  0  0  0
   51.4550   21.7490   45.7370 C   0  0  0  0  0  0  0  0  0  0  0  0
   51.6178   20.7839   46.2391 H   0  0  0  0  0  0  0  0  0  0  0  0
   52.4500   22.7260   45.7090 C   0  0  0  0  0  0  0  0  0  0  0  0
   53.6760   22.6640   46.2500 N   0  0  0  0  0  0  0  0  0  0  0  0
   57.8310   26.9830   47.0310 C   0  0  0  0  0  0  0  0  0  0  0  0
   57.0864   27.6990   47.4089 H   0  0  0  0  0  0  0  0  0  0  0  0
   59.4980   29.8730   47.3510 C   0  0  0  0  0  0  0  0  0  0  0  0
   60.0085   29.9890   46.3836 H   0  0  0  0  0  0  0  0  0  0  0  0
   58.4413   30.1184   47.1688 H   0  0  0  0  0  0  0  0  0  0  0  0
   60.1050   30.7270   48.3620 N   0  0  0  0  0  0  0  0  0  0  0  0
   59.9480   32.1570   48.3860 C   0  0  0  0  0  0  0  0  0  0  0  0
   60.4270   32.8180   49.3490 O   0  0  0  0  0  0  0  0  0  0  0  0
   59.2550   32.8790   47.3020 C   0  0  0  0  0  0  0  0  0  0  0  0
   59.6020   34.2000   46.9830 C   0  0  0  0  0  0  0  0  0  0  0  0
   60.3792   34.7239   47.5588 H   0  0  0  0  0  0  0  0  0  0  0  0
   58.9530   34.8440   45.9290 C   0  0  0  0  0  0  0  0  0  0  0  0
   59.2120   35.8831   45.6775 H   0  0  0  0  0  0  0  0  0  0  0  0
   58.0020   34.1900   45.2130 N   0  0  0  0  0  0  0  0  0  0  0  0
   57.6430   32.9050   45.4880 C   0  0  0  0  0  0  0  0  0  0  0  0
   56.7400   32.2770   44.7900 N   0  0  0  0  0  0  0  0  0  0  0  0
   56.6770   30.9060   44.3500 C   0  0  0  0  0  0  0  0  0  0  0  0
   56.1070   30.0770   45.1100 O   0  0  0  0  0  0  0  0  0  0  0  0
   57.2860   30.4030   43.0520 C   0  0  0  0  0  0  0  0  0  0  0  0
   58.3690   30.2881   43.2066 H   0  0  0  0  0  0  0  0  0  0  0  0
   56.6760   29.0450   42.6790 C   0  0  0  0  0  0  0  0  0  0  0  0
   56.4270   28.4906   43.5959 H   0  0  0  0  0  0  0  0  0  0  0  0
   55.7626   29.2035   42.0869 H   0  0  0  0  0  0  0  0  0  0  0  0
   57.4012   28.4675   42.0869 H   0  0  0  0  0  0  0  0  0  0  0  0
   57.0750   31.4070   41.9070 C   0  0  0  0  0  0  0  0  0  0  0  0
   56.8658   32.4023   42.3260 H   0  0  0  0  0  0  0  0  0  0  0  0
   57.9830   31.4532   41.2879 H   0  0  0  0  0  0  0  0  0  0  0  0
   56.2252   31.0838   41.2879 H   0  0  0  0  0  0  0  0  0  0  0  0
   58.2790   32.2270   46.5370 C   0  0  0  0  0  0  0  0  0  0  0  0
   58.0119   31.1834   46.7595 H   0  0  0  0  0  0  0  0  0  0  0  0
   60.6340   29.9280   49.4590 C   0  0  0  0  0  0  0  0  0  0  0  0
   61.7198   30.0716   49.5616 H   0  0  0  0  0  0  0  0  0  0  0  0
   60.2025   30.2006   50.4334 H   0  0  0  0  0  0  0  0  0  0  0  0
  1  2  1  0
  2  3  2  0
  3  4  1  0
  4  5  2  0
  5  6  1  0
  5  7  1  0
  7  8  1  0
  7  9  2  0
  9 10  1  0
  9 11  1  0
 11 12  1  0
 12 13  2  0
 12 14  1  0
 14 15  2  3
 15 16  1  0
 16 17  1  0
 17 18  2  0
 18 19  1  0
 18 20  1  0
 20 21  1  0
 20 22  2  0
 22 23  1  0
 22 24  1  0
 24 25  1  0
 24 26  2  0
 26 27  1  0
 11 28  2  0
 28 29  1  0
  3 30  1  0
 30 31  1  0
 30 32  1  0
 30 33  1  0
 33 34  1  0
 34 35  2  0
 34 36  1  0
 36 37  1  0
 37 38  1  0
 37 39  2  0
 39 40  1  0
 39 41  1  0
 41 42  1  0
 42 43  2  0
 43 44  1  0
 44 45  2  0
 44 46  1  0
 46 47  1  0
 46 48  1  0
 48 49  1  0
 48 50  1  0
 48 51  1  0
 46 52  1  0
 52 53  1  0
 52 54  1  0
 52 55  1  0
 42 56  1  0
 56 57  1  0
 33 58  1  0
 58 59  1  0
 58 60  1  0
 58  2  1  0
 28  4  1  0
 56 36  2  0
 27 15  1  0
 26 17  1  0
M  CHG  3  16  -1  27  -1  41  -1
M  END
>  <UniqueID>  (39) 
38

>  <SMILES>  (39) 
CC(C)C(=O)/N=c1/cc(C(=O)N2CC=C(c3cccc(C(=O)N=c4[n-]c5ccccc5[n-]4)c3)C2)cc[n-]1

>  <Energy>  (39) 
124.467789286486

>  <Genealogy>  (39) 
CC(C)C(=O)N=c1cc(C(=O)N2CC=C(c3cccc(C(=O)N=c4[n-]c5ccccc5[n-]4)c3)C2)cc[n-]1 (protonated)
CC(C)C(=O)/N=c1/cc(C(=O)N2CC=C(c3cccc(C(=O)N=c4[n-]c5ccccc5[n-]4)c3)C2)cc[n-]1 (cis-trans isomerization)
CC(C)C(=O)/N=c1/cc(C(=O)N2CC=C(c3cccc(C(=O)N=c4[n-]c5ccccc5[n-]4)c3)C2)cc[n-]1 (3D coordinates assigned)
CC(C)C(=O)/N=c1/cc(C(=O)N2CC=C(c3cccc(C(=O)N=c4[n-]c5ccccc5[n-]4)c3)C2)cc[n-]1 (nonaromatic ring conformer: 124.467789286486 kcal/mol)

>  <smiles>  (39) 
CC(C)C(=O)N=c1cc(C(=O)N2CC=C(c3cccc(C(=O)N=c4[nH]c5ccccc5[nH]4)c3)C2)cc[nH]1

>  <score_type>  (39) 
oracle

>  <origin>  (39) 
adg

>  <m_score__min__energy>  (39) 
-14.470000000000001

>  <m_primary>  (39) 
energy

$$$$
39:0
     RDKit          3D

 39 40  0  0  0  0  0  0  0  0999 V2000
   58.1460   27.1190   43.6730 C   0  0  0  0  0  0  0  0  0  0  0  0
   57.6030   26.0560   44.6220 C   0  0  0  0  0  0  0  0  0  0  0  0
   56.5450   26.7850   45.8590 S   0  0  0  0  0  0  0  0  0  0  0  0
   55.4100   25.8480   46.1620 O   0  0  0  0  0  0  0  0  0  0  0  0
   57.3420   27.0470   47.1060 O   0  0  0  0  0  0  0  0  0  0  0  0
   55.9200   28.2800   45.2420 N   0  0  0  0  0  0  0  0  0  0  0  0
   56.6470   29.5130   45.1740 C   0  0  0  0  0  0  0  0  0  0  0  0
   56.3220   30.5250   44.2530 C   0  0  0  0  0  0  0  0  0  0  0  0
   57.0490   31.7180   44.2310 C   0  0  0  0  0  0  0  0  0  0  0  0
   58.1020   31.9270   45.1360 C   0  0  0  0  0  0  0  0  0  0  0  0
   58.8330   33.2140   45.1370 C   0  0  0  0  0  0  0  0  0  0  0  0
   58.8070   33.9350   44.1040 O   0  0  0  0  0  0  0  0  0  0  0  0
   59.6280   33.6820   46.2950 C   0  0  0  0  0  0  0  0  0  0  0  0
   60.9690   33.7140   46.3540 C   0  0  0  0  0  0  0  0  0  0  0  0
   61.7600   33.7230   47.6040 C   0  0  0  0  0  0  0  0  0  0  0  0
   61.1140   34.0420   48.8090 C   0  0  0  0  0  0  0  0  0  0  0  0
   61.8360   34.0980   50.0040 C   0  0  0  0  0  0  0  0  0  0  0  0
   63.2030   33.8150   50.0100 C   0  0  0  0  0  0  0  0  0  0  0  0
   63.8490   33.4580   48.8230 C   0  0  0  0  0  0  0  0  0  0  0  0
   63.1320   33.3960   47.6200 C   0  0  0  0  0  0  0  0  0  0  0  0
   63.7760   33.0020   46.4460 O   0  0  0  0  0  0  0  0  0  0  0  0
   58.4430   30.9030   46.0350 C   0  0  0  0  0  0  0  0  0  0  0  0
   57.7160   29.7090   46.0560 C   0  0  0  0  0  0  0  0  0  0  0  0
   58.5702   27.9494   44.2566 H   0  0  0  0  0  0  0  0  0  0  0  0
   58.9296   26.6786   43.0389 H   0  0  0  0  0  0  0  0  0  0  0  0
   57.3299   27.4958   43.0389 H   0  0  0  0  0  0  0  0  0  0  0  0
   57.0262   25.3187   44.0443 H   0  0  0  0  0  0  0  0  0  0  0  0
   58.4510   25.5709   45.1275 H   0  0  0  0  0  0  0  0  0  0  0  0
   55.4918   30.3766   43.5468 H   0  0  0  0  0  0  0  0  0  0  0  0
   56.7946   32.4991   43.4994 H   0  0  0  0  0  0  0  0  0  0  0  0
   59.0750   34.0320   47.1791 H   0  0  0  0  0  0  0  0  0  0  0  0
   61.5203   33.7351   45.4023 H   0  0  0  0  0  0  0  0  0  0  0  0
   60.0336   34.2490   48.8124 H   0  0  0  0  0  0  0  0  0  0  0  0
   61.3265   34.3655   50.9415 H   0  0  0  0  0  0  0  0  0  0  0  0
   63.7722   33.8730   50.9495 H   0  0  0  0  0  0  0  0  0  0  0  0
   64.9240   33.2248   48.8329 H   0  0  0  0  0  0  0  0  0  0  0  0
   64.5860   32.3940   46.4630 H   0  0  0  0  0  0  0  0  0  0  0  0
   59.2871   31.0414   46.7266 H   0  0  0  0  0  0  0  0  0  0  0  0
   57.9861   28.9178   46.7709 H   0  0  0  0  0  0  0  0  0  0  0  0
  1  2  1  0
  2  3  1  0
  3  4  2  0
  3  5  2  0
  3  6  1  0
  6  7  1  0
  7  8  2  0
  8  9  1  0
  9 10  2  0
 10 11  1  0
 11 12  2  0
 11 13  1  0
 13 14  2  3
 14 15  1  0
 15 16  2  0
 16 17  1  0
 17 18  2  0
 18 19  1  0
 19 20  2  0
 20 21  1  0
 10 22  1  0
 22 23  2  0
 23  7  1  0
 20 15  1  0
  1 24  1  0
  1 25  1  0
  1 26  1  0
  2 27  1  0
  2 28  1  0
  8 29  1  0
  9 30  1  0
 13 31  1  0
 14 32  1  0
 16 33  1  0
 17 34  1  0
 18 35  1  0
 19 36  1  0
 21 37  1  0
 22 38  1  0
 23 39  1  0
M  CHG  1   6  -1
M  END
>  <UniqueID>  (40) 
39

>  <SMILES>  (40) 
CCS(=O)(=O)[N-]c1ccc(C(=O)C=Cc2ccccc2O)cc1

>  <Energy>  (40) 
46.272160551484745

>  <Genealogy>  (40) 
CCS(=O)(=O)[N-]c1ccc(C(=O)C=Cc2ccccc2O)cc1 (protonated)
CCS(=O)(=O)[N-]c1ccc(C(=O)C=Cc2ccccc2O)cc1 (3D coordinates assigned)
CCS(=O)(=O)[N-]c1ccc(C(=O)C=Cc2ccccc2O)cc1 (optimized conformer: 46.272160551484745 kcal/mol)

>  <smiles>  (40) 
CCS(=O)(=O)Nc1ccc(C(=O)C=Cc2ccccc2O)cc1

>  <score_type>  (40) 
oracle

>  <origin>  (40) 
adg

>  <m_score__min__energy>  (40) 
-10.109999999999999

>  <m_primary>  (40) 
energy

$$$$
40:0
     RDKit          3D

 53 56  0  0  1  0  0  0  0  0999 V2000
   56.3340   22.6510   42.6640 C   0  0  0  0  0  0  0  0  0  0  0  0
   55.9930   21.8140   43.7220 O   0  0  0  0  0  0  0  0  0  0  0  0
   57.1210   21.3090   44.3300 C   0  0  0  0  0  0  0  0  0  0  0  0
   58.2930   22.2670   44.2930 C   0  0  0  0  0  0  0  0  0  0  0  0
   58.3980   22.9750   45.5500 N   0  0  0  0  0  0  0  0  0  0  0  0
   57.8030   24.1090   45.7410 C   0  0  0  0  0  0  0  0  0  0  0  0
   58.5230   25.1670   46.0930 N   0  0  0  0  0  0  0  0  0  0  0  0
   57.8750   26.3620   46.2920 C   0  0  0  0  0  0  0  0  0  0  0  0
   58.6740   27.4040   46.6500 O   0  0  0  0  0  0  0  0  0  0  0  0
   58.4650   28.7080   46.3250 C   0  0  0  0  0  0  0  0  0  0  0  0
   59.3130   29.6060   46.8910 N   0  0  0  0  0  0  0  0  0  0  0  0
   59.2250   30.9150   46.6600 C   0  0  0  0  0  0  0  0  0  0  0  0
   60.1670   31.8260   47.3000 C   0  0  0  0  0  0  0  0  0  0  0  0
   59.7850   32.8940   48.0770 C   0  0  0  0  0  0  0  0  0  0  0  0
   60.7830   33.6900   48.6330 C   0  0  0  0  0  0  0  0  0  0  0  0
   62.1100   33.4520   48.4360 C   0  0  0  0  0  0  0  0  0  0  0  0
   62.4800   32.3860   47.6600 C   0  0  0  0  0  0  0  0  0  0  0  0
   61.5110   31.5880   47.1010 C   0  0  0  0  0  0  0  0  0  0  0  0
   58.2580   31.4380   45.8290 C   0  0  0  0  0  0  0  0  0  0  0  0
   58.1200   32.8340   45.5500 C   0  0  0  0  0  0  0  0  0  0  0  0
   58.0290   33.9640   45.3210 N   0  0  0  0  0  0  0  0  0  0  0  0
   57.3940   30.5360   45.2510 C   0  0  0  0  0  0  0  0  0  0  0  0
   56.4980   30.9530   44.4890 O   0  0  0  0  0  0  0  0  0  0  0  0
   57.5220   29.2000   45.5160 N   0  0  0  0  0  0  0  0  0  0  0  0
   56.5570   26.3720   46.1150 N   0  0  0  0  0  0  0  0  0  0  0  0
   55.8540   25.2960   45.7620 C   0  0  0  0  0  0  0  0  0  0  0  0
   54.4740   25.4530   45.6130 O   0  0  0  0  0  0  0  0  0  0  0  0
   53.5840   24.3860   45.6350 C   0  0  0  0  0  0  0  0  0  0  0  0
   52.4410   24.4010   44.8610 C   0  0  0  0  0  0  0  0  0  0  0  0
   51.5470   23.3550   44.8690 C   0  0  0  0  0  0  0  0  0  0  0  0
   51.8280   22.2780   45.6830 C   0  0  0  0  0  0  0  0  0  0  0  0
   50.5820   20.8250   45.6910 Br  0  0  0  0  0  0  0  0  0  0  0  0
   52.9580   22.2200   46.4730 C   0  0  0  0  0  0  0  0  0  0  0  0
   53.8470   23.2950   46.4450 C   0  0  0  0  0  0  0  0  0  0  0  0
   56.4650   24.1210   45.5620 N   0  0  0  0  0  0  0  0  0  0  0  0
   56.7214   23.6018   43.0588 H   0  0  0  0  0  0  0  0  0  0  0  0
   57.1069   22.1676   42.0484 H   0  0  0  0  0  0  0  0  0  0  0  0
   55.4433   22.8453   42.0484 H   0  0  0  0  0  0  0  0  0  0  0  0
   56.8831   21.0868   45.3807 H   0  0  0  0  0  0  0  0  0  0  0  0
   57.4169   20.4060   43.7758 H   0  0  0  0  0  0  0  0  0  0  0  0
   59.2196   21.7012   44.1159 H   0  0  0  0  0  0  0  0  0  0  0  0
   58.1371   22.9944   43.4827 H   0  0  0  0  0  0  0  0  0  0  0  0
   58.7218   33.1133   48.2543 H   0  0  0  0  0  0  0  0  0  0  0  0
   60.4879   34.5464   49.2571 H   0  0  0  0  0  0  0  0  0  0  0  0
   62.8699   34.1039   48.8917 H   0  0  0  0  0  0  0  0  0  0  0  0
   63.5444   32.1703   47.4856 H   0  0  0  0  0  0  0  0  0  0  0  0
   61.8159   30.7350   46.4770 H   0  0  0  0  0  0  0  0  0  0  0  0
   56.8440   28.5980   45.0510 H   0  0  0  0  0  0  0  0  0  0  0  0
   52.2395   25.2725   44.2207 H   0  0  0  0  0  0  0  0  0  0  0  0
   50.6396   23.3772   44.2476 H   0  0  0  0  0  0  0  0  0  0  0  0
   53.1536   21.3454   47.1108 H   0  0  0  0  0  0  0  0  0  0  0  0
   54.7551   23.2755   47.0655 H   0  0  0  0  0  0  0  0  0  0  0  0
   55.9180   23.2960   45.2910 H   0  0  0  0  0  0  0  0  0  0  0  0
  1  2  1  0
  2  3  1  0
  3  4  1  0
  4  5  1  0
  5  6  2  0
  6  7  1  0
  7  8  2  0
  8  9  1  0
  9 10  1  0
 10 11  2  0
 11 12  1  0
 12 13  1  0
 13 14  2  0
 14 15  1  0
 15 16  2  0
 16 17  1  0
 17 18  2  0
 12 19  2  0
 19 20  1  0
 20 21  3  0
 19 22  1  0
 22 23  2  0
 22 24  1  0
  8 25  1  0
 25 26  2  0
 26 27  1  0
 27 28  1  0
 28 29  2  0
 29 30  1  0
 30 31  2  0
 31 32  1  0
 31 33  1  0
 33 34  2  0
 26 35  1  0
 35  6  1  0
 24 10  1  0
 34 28  1  0
 18 13  1  0
  1 36  1  0
  1 37  1  0
  1 38  1  0
  3 39  1  0
  3 40  1  0
  4 41  1  0
  4 42  1  0
 14 43  1  0
 15 44  1  0
 16 45  1  0
 17 46  1  0
 18 47  1  0
 24 48  1  0
 29 49  1  0
 30 50  1  0
 33 51  1  0
 34 52  1  0
 35 53  1  0
M  END
>  <smiles>  (41) 
COCCN=c1nc(Oc2nc(-c3ccccc3)c(C#N)c(=O)[nH]2)nc(Oc2ccc(Br)cc2)[nH]1

>  <score_type>  (41) 
oracle

>  <origin>  (41) 
adg

>  <m_score__min__energy>  (41) 
-8.8499999999999996

>  <m_primary>  (41) 
energy

$$$$
41:0
     RDKit          3D

 17 17  0  0  0  0  0  0  0  0999 V2000
   56.9600   31.1600   45.1130 O   0  0  0  0  0  0  0  0  0  0  0  0
   57.8820   30.8890   44.3010 C   0  0  0  0  0  0  0  0  0  0  0  0
   58.4010   29.5140   44.2190 C   0  0  0  0  0  0  0  0  0  0  0  0
   58.5690   28.7120   45.2790 C   0  0  0  0  0  0  0  0  0  0  0  0
   57.6600   27.5990   45.6390 C   0  0  0  0  0  0  0  0  0  0  0  0
   56.2630   27.7530   45.6170 C   0  0  0  0  0  0  0  0  0  0  0  0
   55.6900   28.9720   45.2640 O   0  0  0  0  0  0  0  0  0  0  0  0
   55.4620   26.7000   45.9260 N   0  0  0  0  0  0  0  0  0  0  0  0
   55.9850   25.4870   46.2390 C   0  0  0  0  0  0  0  0  0  0  0  0
   55.2230   24.5280   46.5250 O   0  0  0  0  0  0  0  0  0  0  0  0
   57.3300   25.3070   46.2370 N   0  0  0  0  0  0  0  0  0  0  0  0
   58.1750   26.3280   45.9370 C   0  0  0  0  0  0  0  0  0  0  0  0
   59.4180   26.1220   45.9400 O   0  0  0  0  0  0  0  0  0  0  0  0
   58.2984   31.6761   43.6552 H   0  0  0  0  0  0  0  0  0  0  0  0
   58.6672   29.1209   43.2267 H   0  0  0  0  0  0  0  0  0  0  0  0
   59.4406   28.8921   45.9255 H   0  0  0  0  0  0  0  0  0  0  0  0
   55.6000   29.7210   45.9410 H   0  0  0  0  0  0  0  0  0  0  0  0
  1  2  2  0
  2  3  1  0
  3  4  2  3
  4  5  1  0
  5  6  2  0
  6  7  1  0
  6  8  1  0
  8  9  1  0
  9 10  2  0
  9 11  1  0
 11 12  1  0
 12 13  2  0
 12  5  1  0
  2 14  1  0
  3 15  1  0
  4 16  1  0
  7 17  1  0
M  CHG  2   8  -1  11  -1
M  END
>  <UniqueID>  (42) 
40

>  <SMILES>  (42) 
O=CC=Cc1c(O)[n-]c(=O)[n-]c1=O

>  <Energy>  (42) 
23.063218375345638

>  <Genealogy>  (42) 
O=CC=Cc1c(O)[n-]c(=O)[n-]c1=O (protonated)
O=CC=Cc1c(O)[n-]c(=O)[n-]c1=O (3D coordinates assigned)
O=CC=Cc1c(O)[n-]c(=O)[n-]c1=O (optimized conformer: 23.063218375345638 kcal/mol)

>  <smiles>  (42) 
O=CC=Cc1c(O)[nH]c(=O)[nH]c1=O

>  <score_type>  (42) 
oracle

>  <origin>  (42) 
adg

>  <m_score__min__energy>  (42) 
-10.32

>  <m_primary>  (42) 
energy

$$$$
42:0
     RDKit          3D

 71 74  0  0  0  0  0  0  0  0999 V2000
   56.2906   35.0288   44.9888 H   0  0  0  0  0  0  0  0  0  0  0  0
   57.0140   34.2420   45.2490 C   0  0  0  0  0  0  0  0  0  0  0  0
   56.6510   32.9350   45.1720 N   0  0  0  0  0  0  0  0  0  0  0  0
   57.5030   31.9210   45.4790 C   0  0  0  0  0  0  0  0  0  0  0  0
   57.0610   30.6980   45.3830 N   0  0  0  0  0  0  0  0  0  0  0  0
   57.7340   29.5120   44.9250 C   0  0  0  0  0  0  0  0  0  0  0  0
   58.0780   29.4620   43.7140 O   0  0  0  0  0  0  0  0  0  0  0  0
   57.8930   28.2970   45.7700 C   0  0  0  0  0  0  0  0  0  0  0  0
   57.1270   27.1560   45.4670 C   0  0  0  0  0  0  0  0  0  0  0  0
   56.4086   27.1932   44.6348 H   0  0  0  0  0  0  0  0  0  0  0  0
   57.2630   25.9720   46.2070 C   0  0  0  0  0  0  0  0  0  0  0  0
   56.3200   24.8480   45.9920 C   0  0  0  0  0  0  0  0  0  0  0  0
   56.8180   23.5350   45.9340 C   0  0  0  0  0  0  0  0  0  0  0  0
   57.9039   23.3635   45.8962 H   0  0  0  0  0  0  0  0  0  0  0  0
   55.9440   22.4480   45.9240 C   0  0  0  0  0  0  0  0  0  0  0  0
   56.3469   21.4260   45.8678 H   0  0  0  0  0  0  0  0  0  0  0  0
   54.5550   22.6450   45.9850 C   0  0  0  0  0  0  0  0  0  0  0  0
   53.6470   21.5000   46.2110 C   0  0  0  0  0  0  0  0  0  0  0  0
   54.0480   20.4790   46.8330 O   0  0  0  0  0  0  0  0  0  0  0  0
   52.3380   21.5170   45.6340 N   0  0  0  0  0  0  0  0  0  0  0  0
   51.2590   20.6190   46.0260 C   0  0  0  0  0  0  0  0  0  0  0  0
   51.5546   20.0615   46.9270 H   0  0  0  0  0  0  0  0  0  0  0  0
   51.0546   19.9117   45.2087 H   0  0  0  0  0  0  0  0  0  0  0  0
   49.9980   21.4370   46.3220 C   0  0  0  0  0  0  0  0  0  0  0  0
   49.1562   20.7483   46.4864 H   0  0  0  0  0  0  0  0  0  0  0  0
   49.8052   22.0950   45.4619 H   0  0  0  0  0  0  0  0  0  0  0  0
   50.1740   22.3180   47.5720 C   0  0  0  0  0  0  0  0  0  0  0  0
   49.2079   22.7793   47.8248 H   0  0  0  0  0  0  0  0  0  0  0  0
   50.9262   23.0896   47.3513 H   0  0  0  0  0  0  0  0  0  0  0  0
   50.6290   21.5480   48.6870 O   0  0  0  0  0  0  0  0  0  0  0  0
   51.9680   21.4690   49.1140 C   0  0  0  0  0  0  0  0  0  0  0  0
   52.8090   22.5950   49.1790 C   0  0  0  0  0  0  0  0  0  0  0  0
   52.4191   23.5833   48.8939 H   0  0  0  0  0  0  0  0  0  0  0  0
   54.1340   22.4700   49.6020 C   0  0  0  0  0  0  0  0  0  0  0  0
   54.7907   23.3524   49.6148 H   0  0  0  0  0  0  0  0  0  0  0  0
   54.6310   21.2220   50.0110 C   0  0  0  0  0  0  0  0  0  0  0  0
   55.9960   21.0440   50.4190 N   0  0  0  0  0  0  0  0  0  0  0  0
   57.1420   21.8280   50.0510 C   0  0  0  0  0  0  0  0  0  0  0  0
   57.3190   22.1060   48.8370 O   0  0  0  0  0  0  0  0  0  0  0  0
   58.1650   22.2820   51.0480 C   0  0  0  0  0  0  0  0  0  0  0  0
   57.7847   22.1132   52.0663 H   0  0  0  0  0  0  0  0  0  0  0  0
   59.0948   21.7120   50.9047 H   0  0  0  0  0  0  0  0  0  0  0  0
   58.3662   23.3539   50.9047 H   0  0  0  0  0  0  0  0  0  0  0  0
   53.8010   20.0970   49.9280 C   0  0  0  0  0  0  0  0  0  0  0  0
   54.1908   19.1090   50.2141 H   0  0  0  0  0  0  0  0  0  0  0  0
   52.4800   20.2200   49.4840 C   0  0  0  0  0  0  0  0  0  0  0  0
   51.8388   19.3282   49.4252 H   0  0  0  0  0  0  0  0  0  0  0  0
   54.0530   23.9570   45.9540 C   0  0  0  0  0  0  0  0  0  0  0  0
   52.9662   24.1249   45.9264 H   0  0  0  0  0  0  0  0  0  0  0  0
   54.9250   25.0520   45.9580 C   0  0  0  0  0  0  0  0  0  0  0  0
   54.3940   26.3390   45.9450 O   0  0  0  0  0  0  0  0  0  0  0  0
   58.2230   25.9110   47.2260 C   0  0  0  0  0  0  0  0  0  0  0  0
   58.3607   24.9781   47.7923 H   0  0  0  0  0  0  0  0  0  0  0  0
   59.0040   27.0250   47.5260 C   0  0  0  0  0  0  0  0  0  0  0  0
   59.7678   26.9566   48.3146 H   0  0  0  0  0  0  0  0  0  0  0  0
   58.8280   28.2340   46.8340 C   0  0  0  0  0  0  0  0  0  0  0  0
   59.5870   29.4160   47.3040 C   0  0  0  0  0  0  0  0  0  0  0  0
   59.1520   30.0850   48.2790 O   0  0  0  0  0  0  0  0  0  0  0  0
   60.8320   29.8740   46.6070 C   0  0  0  0  0  0  0  0  0  0  0  0
   61.5893   30.1526   47.3545 H   0  0  0  0  0  0  0  0  0  0  0  0
   61.2204   29.0599   45.9774 H   0  0  0  0  0  0  0  0  0  0  0  0
   60.6002   30.7457   45.9774 H   0  0  0  0  0  0  0  0  0  0  0  0
   58.8280   32.2330   45.8540 C   0  0  0  0  0  0  0  0  0  0  0  0
   59.5514   31.4284   46.0524 H   0  0  0  0  0  0  0  0  0  0  0  0
   59.2160   33.5770   45.9720 C   0  0  0  0  0  0  0  0  0  0  0  0
   60.6170   33.9320   46.3700 C   0  0  0  0  0  0  0  0  0  0  0  0
   60.6928   33.9512   47.4672 H   0  0  0  0  0  0  0  0  0  0  0  0
   61.3137   33.1820   45.9674 H   0  0  0  0  0  0  0  0  0  0  0  0
   60.8725   34.9233   45.9674 H   0  0  0  0  0  0  0  0  0  0  0  0
   58.3010   34.5880   45.6570 C   0  0  0  0  0  0  0  0  0  0  0  0
   58.5947   35.6455   45.7307 H   0  0  0  0  0  0  0  0  0  0  0  0
  1  2  1  0
  2  3  1  0
  3  4  1  0
  4  5  2  0
  5  6  1  0
  6  7  2  0
  6  8  1  0
  8  9  2  0
  9 10  1  0
  9 11  1  0
 11 12  1  0
 12 13  2  0
 13 14  1  0
 13 15  1  0
 15 16  1  0
 15 17  2  0
 17 18  1  0
 18 19  2  0
 18 20  1  0
 20 21  1  0
 21 22  1  0
 21 23  1  0
 21 24  1  0
 24 25  1  0
 24 26  1  0
 24 27  1  0
 27 28  1  0
 27 29  1  0
 27 30  1  0
 30 31  1  0
 31 32  2  0
 32 33  1  0
 32 34  1  0
 34 35  1  0
 34 36  2  0
 36 37  1  0
 37 38  1  0
 38 39  2  0
 38 40  1  0
 40 41  1  0
 40 42  1  0
 40 43  1  0
 36 44  1  0
 44 45  1  0
 44 46  2  0
 46 47  1  0
 17 48  1  0
 48 49  1  0
 48 50  2  0
 50 51  1  0
 11 52  2  0
 52 53  1  0
 52 54  1  0
 54 55  1  0
 54 56  2  0
 56 57  1  0
 57 58  2  0
 57 59  1  0
 59 60  1  0
 59 61  1  0
 59 62  1  0
  4 63  1  0
 63 64  1  0
 63 65  2  0
 65 66  1  0
 66 67  1  0
 66 68  1  0
 66 69  1  0
 65 70  1  0
 70 71  1  0
 70  2  2  0
 56  8  1  0
 50 12  1  0
 46 31  1  0
M  CHG  4   3  -1  20  -1  37  -1  51  -1
M  END
>  <UniqueID>  (43) 
41

>  <SMILES>  (43) 
CC(=O)[N-]c1ccc(OCCC[N-]C(=O)c2ccc(-c3ccc(C(C)=O)c(C(=O)/N=c4\cc(C)cc[n-]4)c3)c([O-])c2)cc1

>  <Energy>  (43) 
98.86236864810215

>  <Genealogy>  (43) 
CC(=O)[N-]c1ccc(OCCC[N-]C(=O)c2ccc(-c3ccc(C(C)=O)c(C(=O)N=c4cc(C)cc[n-]4)c3)c([O-])c2)cc1 (protonated)
CC(=O)[N-]c1ccc(OCCC[N-]C(=O)c2ccc(-c3ccc(C(C)=O)c(C(=O)/N=c4\cc(C)cc[n-]4)c3)c([O-])c2)cc1 (cis-trans isomerization)
CC(=O)[N-]c1ccc(OCCC[N-]C(=O)c2ccc(-c3ccc(C(C)=O)c(C(=O)/N=c4\cc(C)cc[n-]4)c3)c([O-])c2)cc1 (3D coordinates assigned)
CC(=O)[N-]c1ccc(OCCC[N-]C(=O)c2ccc(-c3ccc(C(C)=O)c(C(=O)/N=c4\cc(C)cc[n-]4)c3)c([O-])c2)cc1 (optimized conformer: 98.86236864810215 kcal/mol)

>  <smiles>  (43) 
CC(=O)Nc1ccc(OCCCNC(=O)c2ccc(-c3ccc(C(C)=O)c(C(=O)N=c4cc(C)cc[nH]4)c3)c(O)c2)cc1

>  <score_type>  (43) 
oracle

>  <origin>  (43) 
adg

>  <m_score__min__energy>  (43) 
-16.309999999999999

>  <m_primary>  (43) 
energy

$$$$
43:0
     RDKit          3D

 37 39  0  0  0  0  0  0  0  0999 V2000
   60.2169   29.9152   46.6823 H   0  0  0  0  0  0  0  0  0  0  0  0
   59.9700   30.9150   47.0690 C   0  0  0  0  0  0  0  0  0  0  0  0
   60.3480   32.0220   46.3750 N   0  0  0  0  0  0  0  0  0  0  0  0
   60.0670   33.2790   46.8180 C   0  0  0  0  0  0  0  0  0  0  0  0
   60.5740   34.4660   46.0500 C   0  0  0  0  0  0  0  0  0  0  0  0
   60.9812   35.2019   46.7589 H   0  0  0  0  0  0  0  0  0  0  0  0
   61.3512   34.1178   45.3538 H   0  0  0  0  0  0  0  0  0  0  0  0
   59.2440   35.2570   45.0720 S   0  0  0  0  0  0  0  0  0  0  0  0
   58.2520   33.7730   44.9060 C   0  0  0  0  0  0  0  0  0  0  0  0
   58.5240   32.5360   43.7970 S   0  0  0  0  0  0  0  0  0  0  0  0
   57.2760   31.6010   44.4270 C   0  0  0  0  0  0  0  0  0  0  0  0
   56.9580   30.4270   43.9710 N   0  0  0  0  0  0  0  0  0  0  0  0
   56.3870   29.3600   44.7450 C   0  0  0  0  0  0  0  0  0  0  0  0
   55.1390   29.3380   44.9140 O   0  0  0  0  0  0  0  0  0  0  0  0
   57.2110   28.2700   45.3200 C   0  0  0  0  0  0  0  0  0  0  0  0
   58.6120   28.3790   45.3020 C   0  0  0  0  0  0  0  0  0  0  0  0
   59.0851   29.2769   44.8778 H   0  0  0  0  0  0  0  0  0  0  0  0
   59.4080   27.3530   45.8200 C   0  0  0  0  0  0  0  0  0  0  0  0
   60.5041   27.4427   45.7956 H   0  0  0  0  0  0  0  0  0  0  0  0
   58.8130   26.2130   46.3690 C   0  0  0  0  0  0  0  0  0  0  0  0
   59.4409   25.4014   46.7654 H   0  0  0  0  0  0  0  0  0  0  0  0
   57.4210   26.1050   46.4140 C   0  0  0  0  0  0  0  0  0  0  0  0
   56.9550   25.2109   46.8539 H   0  0  0  0  0  0  0  0  0  0  0  0
   56.6170   27.1290   45.9020 C   0  0  0  0  0  0  0  0  0  0  0  0
   55.2340   27.0140   45.9910 O   0  0  0  0  0  0  0  0  0  0  0  0
   56.6390   32.2140   45.4530 N   0  0  0  0  0  0  0  0  0  0  0  0
   57.1840   33.4270   45.7220 C   0  0  0  0  0  0  0  0  0  0  0  0
   56.8098   34.0829   46.5218 H   0  0  0  0  0  0  0  0  0  0  0  0
   59.3720   33.4500   48.0230 C   0  0  0  0  0  0  0  0  0  0  0  0
   59.1401   34.4603   48.3913 H   0  0  0  0  0  0  0  0  0  0  0  0
   58.9770   32.3280   48.7510 C   0  0  0  0  0  0  0  0  0  0  0  0
   58.4366   32.4524   49.7010 H   0  0  0  0  0  0  0  0  0  0  0  0
   59.2670   31.0430   48.2750 C   0  0  0  0  0  0  0  0  0  0  0  0
   58.9050   29.8330   49.0830 C   0  0  0  0  0  0  0  0  0  0  0  0
   58.9767   30.0725   50.1542 H   0  0  0  0  0  0  0  0  0  0  0  0
   57.8759   29.5268   48.8438 H   0  0  0  0  0  0  0  0  0  0  0  0
   59.5968   29.0119   48.8438 H   0  0  0  0  0  0  0  0  0  0  0  0
  1  2  1  0
  2  3  2  0
  3  4  1  0
  4  5  1  0
  5  6  1  0
  5  7  1  0
  5  8  1  0
  8  9  1  0
  9 10  1  0
 10 11  1  0
 11 12  2  0
 12 13  1  0
 13 14  2  0
 13 15  1  0
 15 16  2  0
 16 17  1  0
 16 18  1  0
 18 19  1  0
 18 20  2  0
 20 21  1  0
 20 22  1  0
 22 23  1  0
 22 24  2  0
 24 25  1  0
 11 26  1  0
 26 27  1  0
 27 28  1  0
  4 29  2  0
 29 30  1  0
 29 31  1  0
 31 32  1  0
 31 33  2  0
 33 34  1  0
 34 35  1  0
 34 36  1  0
 34 37  1  0
 33  2  1  0
 27  9  2  0
 24 15  1  0
M  CHG  2  25  -1  26  -1
M  END
>  <UniqueID>  (44) 
42

>  <SMILES>  (44) 
Cc1ccc(CSc2c[n-]/c(=N\C(=O)c3ccccc3[O-])s2)nc1

>  <Energy>  (44) 
71.95328026788746

>  <Genealogy>  (44) 
Cc1ccc(CSc2c[n-]c(=NC(=O)c3ccccc3[O-])s2)nc1 (protonated)
Cc1ccc(CSc2c[n-]/c(=N\C(=O)c3ccccc3[O-])s2)nc1 (cis-trans isomerization)
Cc1ccc(CSc2c[n-]/c(=N\C(=O)c3ccccc3[O-])s2)nc1 (3D coordinates assigned)
Cc1ccc(CSc2c[n-]/c(=N\C(=O)c3ccccc3[O-])s2)nc1 (optimized conformer: 71.95328026788746 kcal/mol)

>  <smiles>  (44) 
Cc1ccc(CSc2c[nH]c(=NC(=O)c3ccccc3O)s2)nc1

>  <score_type>  (44) 
oracle

>  <origin>  (44) 
adg

>  <m_score__min__energy>  (44) 
-14.390000000000001

>  <m_primary>  (44) 
energy

$$$$
44:0
     RDKit          3D

 59 62  0  0  0  0  0  0  0  0999 V2000
   59.0035   27.4764   43.9605 H   0  0  0  0  0  0  0  0  0  0  0  0
   58.8870   27.3790   45.0500 C   0  0  0  0  0  0  0  0  0  0  0  0
   58.5030   26.1970   45.5430 C   0  0  0  0  0  0  0  0  0  0  0  0
   59.2599   25.5197   45.9652 H   0  0  0  0  0  0  0  0  0  0  0  0
   57.0850   25.7790   45.5340 C   0  0  0  0  0  0  0  0  0  0  0  0
   56.1080   26.6890   45.9550 C   0  0  0  0  0  0  0  0  0  0  0  0
   56.4001   27.7074   46.2509 H   0  0  0  0  0  0  0  0  0  0  0  0
   54.8010   26.3210   46.0000 N   0  0  0  0  0  0  0  0  0  0  0  0
   54.4140   25.0760   45.6240 C   0  0  0  0  0  0  0  0  0  0  0  0
   53.2010   24.7500   45.6910 O   0  0  0  0  0  0  0  0  0  0  0  0
   55.3330   24.1890   45.1670 N   0  0  0  0  0  0  0  0  0  0  0  0
   56.6530   24.5040   45.1020 C   0  0  0  0  0  0  0  0  0  0  0  0
   57.6800   23.4210   44.4170 S   0  0  0  0  0  0  0  0  0  0  0  0
   59.1630   28.5610   45.8920 C   0  0  0  0  0  0  0  0  0  0  0  0
   60.3900   28.6030   46.5790 C   0  0  0  0  0  0  0  0  0  0  0  0
   61.1203   27.7920   46.4412 H   0  0  0  0  0  0  0  0  0  0  0  0
   60.6880   29.6640   47.4330 C   0  0  0  0  0  0  0  0  0  0  0  0
   61.6550   29.6933   47.9565 H   0  0  0  0  0  0  0  0  0  0  0  0
   59.7610   30.6880   47.6240 C   0  0  0  0  0  0  0  0  0  0  0  0
   59.9993   31.5259   48.2957 H   0  0  0  0  0  0  0  0  0  0  0  0
   58.5320   30.6520   46.9650 C   0  0  0  0  0  0  0  0  0  0  0  0
   57.8048   31.4617   47.1251 H   0  0  0  0  0  0  0  0  0  0  0  0
   58.2120   29.5890   46.0960 C   0  0  0  0  0  0  0  0  0  0  0  0
   56.9680   29.5240   45.4420 O   0  0  0  0  0  0  0  0  0  0  0  0
   56.7190   29.9270   44.0940 C   0  0  0  0  0  0  0  0  0  0  0  0
   55.6654   29.7352   43.8426 H   0  0  0  0  0  0  0  0  0  0  0  0
   57.3680   29.3551   43.4144 H   0  0  0  0  0  0  0  0  0  0  0  0
   57.0080   31.3850   43.9490 C   0  0  0  0  0  0  0  0  0  0  0  0
   57.5720   31.8140   42.9070 O   0  0  0  0  0  0  0  0  0  0  0  0
   56.6980   32.2800   45.0200 N   0  0  0  0  0  0  0  0  0  0  0  0
   57.1310   33.6730   45.0350 C   0  0  0  0  0  0  0  0  0  0  0  0
   56.3009   34.3140   45.3666 H   0  0  0  0  0  0  0  0  0  0  0  0
   57.4399   33.9778   44.0242 H   0  0  0  0  0  0  0  0  0  0  0  0
   58.2880   33.8140   45.9850 C   0  0  0  0  0  0  0  0  0  0  0  0
   59.6060   33.8180   45.4990 C   0  0  0  0  0  0  0  0  0  0  0  0
   59.7896   33.8053   44.4145 H   0  0  0  0  0  0  0  0  0  0  0  0
   60.6850   33.8380   46.3870 C   0  0  0  0  0  0  0  0  0  0  0  0
   61.7133   33.8436   45.9964 H   0  0  0  0  0  0  0  0  0  0  0  0
   60.4660   33.8510   47.7770 C   0  0  0  0  0  0  0  0  0  0  0  0
   61.6020   33.8550   48.7250 C   0  0  0  0  0  0  0  0  0  0  0  0
   62.1420   34.9460   49.0450 O   0  0  0  0  0  0  0  0  0  0  0  0
   62.0420   32.6260   49.3180 N   0  0  0  0  0  0  0  0  0  0  0  0
   63.3150   32.3460   49.9220 C   0  0  0  0  0  0  0  0  0  0  0  0
   63.4150   31.7420   51.1910 C   0  0  0  0  0  0  0  0  0  0  0  0
   62.5021   31.4814   51.7466 H   0  0  0  0  0  0  0  0  0  0  0  0
   64.6700   31.4720   51.7480 C   0  0  0  0  0  0  0  0  0  0  0  0
   64.7407   31.0014   52.7397 H   0  0  0  0  0  0  0  0  0  0  0  0
   65.8300   31.7980   51.0490 C   0  0  0  0  0  0  0  0  0  0  0  0
   66.8147   31.5538   51.4742 H   0  0  0  0  0  0  0  0  0  0  0  0
   65.7440   32.4350   49.8080 C   0  0  0  0  0  0  0  0  0  0  0  0
   66.6635   32.7060   49.2685 H   0  0  0  0  0  0  0  0  0  0  0  0
   64.4950   32.7310   49.2460 C   0  0  0  0  0  0  0  0  0  0  0  0
   64.4330   33.4120   47.9840 N   0  0  0  0  0  0  0  0  0  0  0  0
   65.0810   33.1540   47.2070 H   0  0  0  0  0  0  0  0  0  0  0  0
   63.7480   34.1800   47.8090 H   0  0  0  0  0  0  0  0  0  0  0  0
   59.1440   33.8420   48.2580 C   0  0  0  0  0  0  0  0  0  0  0  0
   58.9580   33.8532   49.3421 H   0  0  0  0  0  0  0  0  0  0  0  0
   58.0650   33.8190   47.3700 C   0  0  0  0  0  0  0  0  0  0  0  0
   57.0361   33.8048   47.7589 H   0  0  0  0  0  0  0  0  0  0  0  0
  1  2  1  0
  2  3  2  0
  3  4  1  0
  3  5  1  0
  5  6  2  0
  6  7  1  0
  6  8  1  0
  8  9  1  0
  9 10  2  0
  9 11  1  0
 11 12  1  0
 12 13  2  0
  2 14  1  0
 14 15  2  0
 15 16  1  0
 15 17  1  0
 17 18  1  0
 17 19  2  0
 19 20  1  0
 19 21  1  0
 21 22  1  0
 21 23  2  0
 23 24  1  0
 24 25  1  0
 25 26  1  0
 25 27  1  0
 25 28  1  0
 28 29  2  0
 28 30  1  0
 30 31  1  0
 31 32  1  0
 31 33  1  0
 31 34  1  0
 34 35  2  0
 35 36  1  0
 35 37  1  0
 37 38  1  0
 37 39  2  0
 39 40  1  0
 40 41  2  0
 40 42  1  0
 42 43  1  0
 43 44  2  0
 44 45  1  0
 44 46  1  0
 46 47  1  0
 46 48  2  0
 48 49  1  0
 48 50  1  0
 50 51  1  0
 50 52  2  0
 52 53  1  0
 53 54  1  0
 53 55  1  0
 39 56  1  0
 56 57  1  0
 56 58  2  0
 58 59  1  0
 12  5  1  0
 23 14  1  0
 58 34  1  0
 52 43  1  0
M  CHG  4   8  -1  11  -1  30  -1  42  -1
M  END
>  <UniqueID>  (45) 
43

>  <SMILES>  (45) 
Nc1ccccc1[N-]C(=O)c1ccc(C[N-]C(=O)COc2ccccc2/C=C/c2c[n-]c(=O)[n-]c2=S)cc1

>  <Energy>  (45) 
73.51786641205834

>  <Genealogy>  (45) 
Nc1ccccc1[N-]C(=O)c1ccc(C[N-]C(=O)COc2ccccc2C=Cc2c[n-]c(=O)[n-]c2=S)cc1 (protonated)
Nc1ccccc1[N-]C(=O)c1ccc(C[N-]C(=O)COc2ccccc2/C=C/c2c[n-]c(=O)[n-]c2=S)cc1 (cis-trans isomerization)
Nc1ccccc1[N-]C(=O)c1ccc(C[N-]C(=O)COc2ccccc2/C=C/c2c[n-]c(=O)[n-]c2=S)cc1 (3D coordinates assigned)
Nc1ccccc1[N-]C(=O)c1ccc(C[N-]C(=O)COc2ccccc2/C=C/c2c[n-]c(=O)[n-]c2=S)cc1 (optimized conformer: 73.51786641205834 kcal/mol)

>  <smiles>  (45) 
Nc1ccccc1NC(=O)c1ccc(CNC(=O)COc2ccccc2C=Cc2c[nH]c(=O)[nH]c2=S)cc1

>  <score_type>  (45) 
oracle

>  <origin>  (45) 
adg

>  <m_score__min__energy>  (45) 
-15.76

>  <m_primary>  (45) 
energy

$$$$
45:0
     RDKit          3D

 47 49  0  0  1  0  0  0  0  0999 V2000
   58.1440   27.0520   43.7850 C   0  0  0  0  0  0  0  0  0  0  0  0
   57.7760   27.7300   45.0780 C   0  0  0  0  0  0  0  0  0  0  0  0
   57.7430   29.1980   44.9800 C   0  0  0  0  0  0  0  0  0  0  0  0
   58.8650   30.0010   45.0700 C   0  0  0  0  0  0  0  0  0  0  0  0
   60.1800   29.3320   45.2760 C   0  0  0  0  0  0  0  0  0  0  0  0
   58.7820   31.3610   44.9740 N   0  0  0  0  0  0  0  0  0  0  0  0
   57.6070   31.9490   44.7910 C   0  0  0  0  0  0  0  0  0  0  0  0
   57.3670   33.7130   44.6510 S   0  0  0  0  0  0  0  0  0  0  0  0
   58.9110   34.5960   44.9040 C   0  0  0  0  0  0  0  0  0  0  0  0
   59.4670   34.2010   46.2440 C   0  0  0  0  0  0  0  0  0  0  0  0
   60.8420   34.1690   46.4080 C   0  0  0  0  0  0  0  0  0  0  0  0
   61.4400   33.8200   47.6110 C   0  0  0  0  0  0  0  0  0  0  0  0
   60.5880   33.5000   48.6580 C   0  0  0  0  0  0  0  0  0  0  0  0
   61.1390   33.1190   49.9760 C   0  0  0  0  0  0  0  0  0  0  0  0
   62.0620   32.2360   50.0480 O   0  0  0  0  0  0  0  0  0  0  0  0
   60.6890   33.6920   51.1840 N   0  0  0  0  0  0  0  0  0  0  0  0
   59.4800   33.4710   51.6070 C   0  0  0  0  0  0  0  0  0  0  0  0
   58.9430   32.1960   51.6600 C   0  0  0  0  0  0  0  0  0  0  0  0
   57.6600   32.3800   52.1540 C   0  0  0  0  0  0  0  0  0  0  0  0
   56.6780   31.2990   52.3950 C   0  0  0  0  0  0  0  0  0  0  0  0
   57.4890   33.6690   52.3630 O   0  0  0  0  0  0  0  0  0  0  0  0
   58.5530   34.3310   52.0460 N   0  0  0  0  0  0  0  0  0  0  0  0
   59.2090   33.5240   48.5220 C   0  0  0  0  0  0  0  0  0  0  0  0
   58.6310   33.8790   47.2980 C   0  0  0  0  0  0  0  0  0  0  0  0
   56.4850   31.1830   44.6980 N   0  0  0  0  0  0  0  0  0  0  0  0
   56.5370   29.8460   44.7890 C   0  0  0  0  0  0  0  0  0  0  0  0
   55.4530   29.2050   44.6930 O   0  0  0  0  0  0  0  0  0  0  0  0
   58.6585   26.1041   44.0015 H   0  0  0  0  0  0  0  0  0  0  0  0
   57.2318   26.8498   43.2044 H   0  0  0  0  0  0  0  0  0  0  0  0
   58.8106   27.7067   43.2044 H   0  0  0  0  0  0  0  0  0  0  0  0
   56.7797   27.3786   45.3846 H   0  0  0  0  0  0  0  0  0  0  0  0
   58.5527   27.4712   45.8126 H   0  0  0  0  0  0  0  0  0  0  0  0
   60.3758   29.2324   46.3538 H   0  0  0  0  0  0  0  0  0  0  0  0
   60.1603   28.3343   44.8131 H   0  0  0  0  0  0  0  0  0  0  0  0
   60.9748   29.9353   44.8131 H   0  0  0  0  0  0  0  0  0  0  0  0
   59.6430   31.9690   45.0430 H   0  0  0  0  0  0  0  0  0  0  0  0
   59.6259   34.3296   44.1116 H   0  0  0  0  0  0  0  0  0  0  0  0
   58.7364   35.6816   44.8713 H   0  0  0  0  0  0  0  0  0  0  0  0
   61.4837   34.4298   45.5534 H   0  0  0  0  0  0  0  0  0  0  0  0
   62.5335   33.7983   47.7282 H   0  0  0  0  0  0  0  0  0  0  0  0
   59.4255   31.2496   51.3745 H   0  0  0  0  0  0  0  0  0  0  0  0
   56.5483   31.1562   53.4780 H   0  0  0  0  0  0  0  0  0  0  0  0
   55.7132   31.5726   51.9431 H   0  0  0  0  0  0  0  0  0  0  0  0
   57.0428   30.3648   51.9431 H   0  0  0  0  0  0  0  0  0  0  0  0
   58.6650   35.3650   52.1220 H   0  0  0  0  0  0  0  0  0  0  0  0
   58.5680   33.2637   49.3772 H   0  0  0  0  0  0  0  0  0  0  0  0
   57.5379   33.9015   47.1769 H   0  0  0  0  0  0  0  0  0  0  0  0
  1  2  1  0
  2  3  1  0
  3  4  2  0
  4  5  1  0
  4  6  1  0
  6  7  1  0
  7  8  1  0
  8  9  1  0
  9 10  1  0
 10 11  2  0
 11 12  1  0
 12 13  2  0
 13 14  1  0
 14 15  2  0
 14 16  1  0
 16 17  2  0
 17 18  1  0
 18 19  2  0
 19 20  1  0
 19 21  1  0
 21 22  1  0
 13 23  1  0
 23 24  2  0
  7 25  2  0
 25 26  1  0
 26 27  2  0
 26  3  1  0
 24 10  1  0
 22 17  1  0
  1 28  1  0
  1 29  1  0
  1 30  1  0
  2 31  1  0
  2 32  1  0
  5 33  1  0
  5 34  1  0
  5 35  1  0
  6 36  1  0
  9 37  1  0
  9 38  1  0
 11 39  1  0
 12 40  1  0
 18 41  1  0
 20 42  1  0
 20 43  1  0
 20 44  1  0
 22 45  1  0
 23 46  1  0
 24 47  1  0
M  END
>  <smiles>  (46) 
CCc1c(C)[nH]c(SCc2ccc(C(=O)N=c3cc(C)o[nH]3)cc2)nc1=O

>  <score_type>  (46) 
oracle

>  <origin>  (46) 
adg

>  <m_score__min__energy>  (46) 
-9.8699999999999992

>  <m_primary>  (46) 
energy

$$$$
46:0
     RDKit          3D

 39 42  0  0  0  0  0  0  0  0999 V2000
   60.8769   35.0904   46.3587 H   0  0  0  0  0  0  0  0  0  0  0  0
   60.0040   34.4270   46.4480 C   0  0  0  0  0  0  0  0  0  0  0  0
   59.2060   34.1150   45.3920 N   0  0  0  0  0  0  0  0  0  0  0  0
   58.1900   33.2970   45.7470 C   0  0  0  0  0  0  0  0  0  0  0  0
   57.3120   32.8820   44.8820 N   0  0  0  0  0  0  0  0  0  0  0  0
   57.0320   31.5250   44.4970 C   0  0  0  0  0  0  0  0  0  0  0  0
   55.9420   30.9660   44.7970 O   0  0  0  0  0  0  0  0  0  0  0  0
   58.0780   30.7460   43.7660 C   0  0  0  0  0  0  0  0  0  0  0  0
   57.6237   30.2537   42.8935 H   0  0  0  0  0  0  0  0  0  0  0  0
   58.8736   31.4289   43.4333 H   0  0  0  0  0  0  0  0  0  0  0  0
   58.6640   29.7080   44.6740 C   0  0  0  0  0  0  0  0  0  0  0  0
   59.9710   29.6650   45.1500 C   0  0  0  0  0  0  0  0  0  0  0  0
   60.7674   30.3660   44.8597 H   0  0  0  0  0  0  0  0  0  0  0  0
   60.1250   28.6400   46.0200 N   0  0  0  0  0  0  0  0  0  0  0  0
   61.0030   28.3730   46.5220 H   0  0  0  0  0  0  0  0  0  0  0  0
   58.9210   28.0450   46.1110 C   0  0  0  0  0  0  0  0  0  0  0  0
   58.5770   26.9490   46.9010 C   0  0  0  0  0  0  0  0  0  0  0  0
   59.3218   26.4555   47.5427 H   0  0  0  0  0  0  0  0  0  0  0  0
   57.2450   26.4940   46.8510 C   0  0  0  0  0  0  0  0  0  0  0  0
   56.9411   25.6274   47.4565 H   0  0  0  0  0  0  0  0  0  0  0  0
   56.2950   27.1430   46.0280 C   0  0  0  0  0  0  0  0  0  0  0  0
   54.9840   26.6830   45.9890 O   0  0  0  0  0  0  0  0  0  0  0  0
   56.6710   28.2510   45.2450 C   0  0  0  0  0  0  0  0  0  0  0  0
   55.9408   28.7682   44.6052 H   0  0  0  0  0  0  0  0  0  0  0  0
   58.0010   28.6720   45.3070 C   0  0  0  0  0  0  0  0  0  0  0  0
   58.2380   32.9170   47.3930 S   0  0  0  0  0  0  0  0  0  0  0  0
   59.6270   33.8400   47.6470 C   0  0  0  0  0  0  0  0  0  0  0  0
   60.2800   34.0500   48.8680 O   0  0  0  0  0  0  0  0  0  0  0  0
   61.6100   33.6920   49.1290 C   0  0  0  0  0  0  0  0  0  0  0  0
   62.2190   34.1660   50.2970 C   0  0  0  0  0  0  0  0  0  0  0  0
   61.6470   34.7933   50.9965 H   0  0  0  0  0  0  0  0  0  0  0  0
   63.5510   33.8460   50.5790 C   0  0  0  0  0  0  0  0  0  0  0  0
   64.0198   34.2104   51.5050 H   0  0  0  0  0  0  0  0  0  0  0  0
   64.2880   33.0620   49.6830 C   0  0  0  0  0  0  0  0  0  0  0  0
   65.9640   32.6760   50.0280 Cl  0  0  0  0  0  0  0  0  0  0  0  0
   63.6930   32.6000   48.5060 C   0  0  0  0  0  0  0  0  0  0  0  0
   64.2739   31.9889   47.7995 H   0  0  0  0  0  0  0  0  0  0  0  0
   62.3600   32.9140   48.2260 C   0  0  0  0  0  0  0  0  0  0  0  0
   61.8952   32.5521   47.2970 H   0  0  0  0  0  0  0  0  0  0  0  0
  1  2  1  0
  2  3  1  0
  3  4  1  0
  4  5  2  0
  5  6  1  0
  6  7  2  0
  6  8  1  0
  8  9  1  0
  8 10  1  0
  8 11  1  0
 11 12  2  0
 12 13  1  0
 12 14  1  0
 14 15  1  0
 14 16  1  0
 16 17  2  0
 17 18  1  0
 17 19  1  0
 19 20  1  0
 19 21  2  0
 21 22  1  0
 21 23  1  0
 23 24  1  0
 23 25  2  0
  4 26  1  0
 26 27  1  0
 27 28  1  0
 28 29  1  0
 29 30  2  0
 30 31  1  0
 30 32  1  0
 32 33  1  0
 32 34  2  0
 34 35  1  0
 34 36  1  0
 36 37  1  0
 36 38  2  0
 38 39  1  0
 27  2  2  0
 38 29  1  0
 25 11  1  0
 25 16  1  0
M  CHG  2   3  -1  22  -1
M  END
>  <UniqueID>  (47) 
44

>  <SMILES>  (47) 
O=C(Cc1c[nH]c2ccc([O-])cc12)/N=c1\[n-]cc(Oc2ccc(Cl)cc2)s1

>  <Energy>  (47) 
113.79976821775395

>  <Genealogy>  (47) 
O=C(Cc1c[nH]c2ccc([O-])cc12)N=c1[n-]cc(Oc2ccc(Cl)cc2)s1 (protonated)
O=C(Cc1c[nH]c2ccc([O-])cc12)/N=c1\[n-]cc(Oc2ccc(Cl)cc2)s1 (cis-trans isomerization)
O=C(Cc1c[nH]c2ccc([O-])cc12)/N=c1\[n-]cc(Oc2ccc(Cl)cc2)s1 (3D coordinates assigned)
O=C(Cc1c[nH]c2ccc([O-])cc12)/N=c1\[n-]cc(Oc2ccc(Cl)cc2)s1 (optimized conformer: 113.79976821775395 kcal/mol)

>  <smiles>  (47) 
O=C(Cc1c[nH]c2ccc(O)cc12)N=c1[nH]cc(Oc2ccc(Cl)cc2)s1

>  <score_type>  (47) 
oracle

>  <origin>  (47) 
adg

>  <m_score__min__energy>  (47) 
-13.710000000000001

>  <m_primary>  (47) 
energy

$$$$
47:0
     RDKit          3D

 55 58  0  0  0  0  0  0  0  0999 V2000
   58.2690   34.5740   52.3820 N   0  0  0  0  0  0  0  0  0  0  0  0
   59.0210   33.4050   52.0440 C   0  0  0  0  0  0  0  0  0  0  0  0
   58.5430   32.2730   52.3240 O   0  0  0  0  0  0  0  0  0  0  0  0
   60.3370   33.4980   51.3630 C   0  0  0  0  0  0  0  0  0  0  0  0
   61.5390   33.4490   52.0920 C   0  0  0  0  0  0  0  0  0  0  0  0
   62.7700   33.5390   51.4350 C   0  0  0  0  0  0  0  0  0  0  0  0
   62.8170   33.6740   50.0470 C   0  0  0  0  0  0  0  0  0  0  0  0
   61.6310   33.7030   49.3000 C   0  0  0  0  0  0  0  0  0  0  0  0
   61.6780   33.8900   47.8070 C   0  0  0  0  0  0  0  0  0  0  0  0
   60.3360   33.7190   47.2400 N   0  0  0  0  0  0  0  0  0  0  0  0
   59.5860   34.8810   46.7240 C   0  0  0  0  0  0  0  0  0  0  0  0
   58.9710   34.5810   45.3400 C   0  0  0  0  0  0  0  0  0  0  0  0
   58.2920   33.2850   45.3640 N   0  0  0  0  0  0  0  0  0  0  0  0
   57.3340   32.8370   44.5310 C   0  0  0  0  0  0  0  0  0  0  0  0
   57.0750   31.5070   44.8180 C   0  0  0  0  0  0  0  0  0  0  0  0
   56.1410   30.6100   44.0740 C   0  0  0  0  0  0  0  0  0  0  0  0
   56.2060   29.2680   44.6390 N   0  0  0  0  0  0  0  0  0  0  0  0
   57.2770   28.3470   44.4040 C   0  0  0  0  0  0  0  0  0  0  0  0
   57.6000   28.0760   43.2190 O   0  0  0  0  0  0  0  0  0  0  0  0
   58.0010   27.6980   45.5180 C   0  0  0  0  0  0  0  0  0  0  0  0
   59.2220   28.2450   45.9430 C   0  0  0  0  0  0  0  0  0  0  0  0
   59.9480   27.6420   46.9720 C   0  0  0  0  0  0  0  0  0  0  0  0
   59.4690   26.4820   47.5800 C   0  0  0  0  0  0  0  0  0  0  0  0
   58.2570   25.9220   47.1650 C   0  0  0  0  0  0  0  0  0  0  0  0
   57.5040   26.5260   46.1420 C   0  0  0  0  0  0  0  0  0  0  0  0
   56.2050   25.8860   45.7180 C   0  0  0  0  0  0  0  0  0  0  0  0
   55.1420   26.7420   46.0330 O   0  0  0  0  0  0  0  0  0  0  0  0
   57.9340   31.1220   45.8380 C   0  0  0  0  0  0  0  0  0  0  0  0
   58.6650   32.2550   46.1380 C   0  0  0  0  0  0  0  0  0  0  0  0
   59.7550   32.4070   47.0970 C   0  0  0  0  0  0  0  0  0  0  0  0
   60.1920   31.4200   47.7500 O   0  0  0  0  0  0  0  0  0  0  0  0
   60.3960   33.6210   49.9620 C   0  0  0  0  0  0  0  0  0  0  0  0
   58.5440   35.5210   52.0400 H   0  0  0  0  0  0  0  0  0  0  0  0
   57.3710   34.4810   52.9070 H   0  0  0  0  0  0  0  0  0  0  0  0
   61.5104   33.3392   53.1861 H   0  0  0  0  0  0  0  0  0  0  0  0
   63.7044   33.5033   52.0143 H   0  0  0  0  0  0  0  0  0  0  0  0
   63.7881   33.7580   49.5371 H   0  0  0  0  0  0  0  0  0  0  0  0
   62.0448   34.9013   47.5774 H   0  0  0  0  0  0  0  0  0  0  0  0
   62.3543   33.1409   47.3693 H   0  0  0  0  0  0  0  0  0  0  0  0
   58.7787   35.1284   47.4290 H   0  0  0  0  0  0  0  0  0  0  0  0
   60.2828   35.7256   46.6190 H   0  0  0  0  0  0  0  0  0  0  0  0
   58.2454   35.3677   45.0856 H   0  0  0  0  0  0  0  0  0  0  0  0
   59.7724   34.5547   44.5869 H   0  0  0  0  0  0  0  0  0  0  0  0
   56.8375   33.4308   43.7494 H   0  0  0  0  0  0  0  0  0  0  0  0
   55.1145   30.9956   44.1611 H   0  0  0  0  0  0  0  0  0  0  0  0
   56.4304   30.5766   43.0133 H   0  0  0  0  0  0  0  0  0  0  0  0
   59.6096   29.1552   45.4619 H   0  0  0  0  0  0  0  0  0  0  0  0
   60.8997   28.0828   47.3037 H   0  0  0  0  0  0  0  0  0  0  0  0
   60.0456   26.0069   48.3873 H   0  0  0  0  0  0  0  0  0  0  0  0
   57.8894   25.0017   47.6424 H   0  0  0  0  0  0  0  0  0  0  0  0
   56.2217   25.7049   44.6331 H   0  0  0  0  0  0  0  0  0  0  0  0
   56.0763   24.9295   46.2457 H   0  0  0  0  0  0  0  0  0  0  0  0
   55.1650   27.4690   45.3570 H   0  0  0  0  0  0  0  0  0  0  0  0
   58.0151   30.1298   46.3060 H   0  0  0  0  0  0  0  0  0  0  0  0
   59.4636   33.6532   49.3793 H   0  0  0  0  0  0  0  0  0  0  0  0
  1  2  1  0
  2  3  2  0
  2  4  1  0
  4  5  2  0
  5  6  1  0
  6  7  2  0
  7  8  1  0
  8  9  1  0
  9 10  1  0
 10 11  1  0
 11 12  1  0
 12 13  1  0
 13 14  1  0
 14 15  2  0
 15 16  1  0
 16 17  1  0
 17 18  1  0
 18 19  2  0
 18 20  1  0
 20 21  2  0
 21 22  1  0
 22 23  2  0
 23 24  1  0
 24 25  2  0
 25 26  1  0
 26 27  1  0
 15 28  1  0
 28 29  2  0
 29 30  1  0
 30 31  2  0
  8 32  2  0
 32  4  1  0
 30 10  1  0
 29 13  1  0
 25 20  1  0
  1 33  1  0
  1 34  1  0
  5 35  1  0
  6 36  1  0
  7 37  1  0
  9 38  1  0
  9 39  1  0
 11 40  1  0
 11 41  1  0
 12 42  1  0
 12 43  1  0
 14 44  1  0
 16 45  1  0
 16 46  1  0
 21 47  1  0
 22 48  1  0
 23 49  1  0
 24 50  1  0
 26 51  1  0
 26 52  1  0
 27 53  1  0
 28 54  1  0
 32 55  1  0
M  CHG  1  17  -1
M  END
>  <UniqueID>  (48) 
45

>  <SMILES>  (48) 
NC(=O)c1cccc(CN2CCn3cc(C[N-]C(=O)c4ccccc4CO)cc3C2=O)c1

>  <Energy>  (48) 
89.38802048687788

>  <Genealogy>  (48) 
NC(=O)c1cccc(CN2CCn3cc(C[N-]C(=O)c4ccccc4CO)cc3C2=O)c1 (protonated)
NC(=O)c1cccc(CN2CCn3cc(C[N-]C(=O)c4ccccc4CO)cc3C2=O)c1 (3D coordinates assigned)
NC(=O)c1cccc(CN2CCn3cc(C[N-]C(=O)c4ccccc4CO)cc3C2=O)c1 (nonaromatic ring conformer: 89.38802048687788 kcal/mol)

>  <smiles>  (48) 
NC(=O)c1cccc(CN2CCn3cc(CNC(=O)c4ccccc4CO)cc3C2=O)c1

>  <score_type>  (48) 
oracle

>  <origin>  (48) 
adg

>  <m_score__min__energy>  (48) 
-12.359999999999999

>  <m_primary>  (48) 
energy

$$$$
48:0
     RDKit          3D

 39 41  0  0  1  0  0  0  0  0999 V2000
   57.9660   25.7440   45.1540 O   0  0  0  0  0  0  0  0  0  0  0  0
   57.4940   26.8210   45.5650 N   0  0  0  0  0  0  0  0  0  0  0  0
   56.1300   26.8930   45.7430 O   0  0  0  0  0  0  0  0  0  0  0  0
   58.3500   27.8940   45.8250 C   0  0  0  0  0  0  0  0  0  0  0  0
   59.5520   28.0840   45.1810 C   0  0  0  0  0  0  0  0  0  0  0  0
   60.4050   29.1270   45.4200 C   0  0  0  0  0  0  0  0  0  0  0  0
   60.0810   30.1130   46.3880 C   0  0  0  0  0  0  0  0  0  0  0  0
   60.7960   31.1540   46.7160 N   0  0  0  0  0  0  0  0  0  0  0  0
   60.3360   31.9830   47.6540 C   0  0  0  0  0  0  0  0  0  0  0  0
   60.8260   33.0630   48.1600 N   0  0  0  0  0  0  0  0  0  0  0  0
   61.2210   34.1830   47.3110 C   0  0  0  0  0  0  0  0  0  0  0  0
   59.9260   34.9550   47.0650 C   0  0  0  0  0  0  0  0  0  0  0  0
   58.9670   34.1940   46.3190 N   0  0  0  0  0  0  0  0  0  0  0  0
   59.1220   33.5940   45.0890 C   0  0  0  0  0  0  0  0  0  0  0  0
   57.9860   32.9680   44.7100 C   0  0  0  0  0  0  0  0  0  0  0  0
   57.6050   31.0540   43.2020 C   0  0  0  0  0  0  0  0  0  0  0  0
   56.8850   29.9140   43.6700 C   0  0  0  0  0  0  0  0  0  0  0  0
   57.4890   32.2910   43.5480 C   0  0  0  0  0  0  0  0  0  0  0  0
   57.0250   28.5940   43.3560 O   0  0  0  0  0  0  0  0  0  0  0  0
   55.9360   30.1540   44.5370 N   0  0  0  0  0  0  0  0  0  0  0  0
   55.1470   29.2170   45.1060 O   0  0  0  0  0  0  0  0  0  0  0  0
   57.1210   33.2030   45.7590 N   0  0  0  0  0  0  0  0  0  0  0  0
   57.7360   33.9140   46.6570 N   0  0  0  0  0  0  0  0  0  0  0  0
   58.7310   31.2570   48.1510 S   0  0  0  0  0  0  0  0  0  0  0  0
   58.8850   29.9030   47.0120 C   0  0  0  0  0  0  0  0  0  0  0  0
   58.0260   28.8630   46.7800 C   0  0  0  0  0  0  0  0  0  0  0  0
   59.8474   27.3456   44.4211 H   0  0  0  0  0  0  0  0  0  0  0  0
   61.3478   29.2017   44.8583 H   0  0  0  0  0  0  0  0  0  0  0  0
   61.7540   31.3910   46.2690 H   0  0  0  0  0  0  0  0  0  0  0  0
   61.9598   34.8169   47.8232 H   0  0  0  0  0  0  0  0  0  0  0  0
   61.6930   33.8507   46.3746 H   0  0  0  0  0  0  0  0  0  0  0  0
   59.4851   35.2231   48.0364 H   0  0  0  0  0  0  0  0  0  0  0  0
   60.1764   35.8486   46.4744 H   0  0  0  0  0  0  0  0  0  0  0  0
   60.0471   33.6208   44.4945 H   0  0  0  0  0  0  0  0  0  0  0  0
   56.9237   32.9215   42.8459 H   0  0  0  0  0  0  0  0  0  0  0  0
   58.3679   30.8481   42.4368 H   0  0  0  0  0  0  0  0  0  0  0  0
   56.5750   27.8430   43.8710 H   0  0  0  0  0  0  0  0  0  0  0  0
   55.1380   28.2440   44.8930 H   0  0  0  0  0  0  0  0  0  0  0  0
   57.0838   28.7895   47.3429 H   0  0  0  0  0  0  0  0  0  0  0  0
  1  2  2  0
  2  3  1  0
  2  4  1  0
  4  5  2  0
  5  6  1  0
  6  7  2  0
  7  8  1  0
  8  9  1  0
  9 10  2  0
 10 11  1  0
 11 12  1  0
 12 13  1  0
 13 14  1  0
 14 15  2  0
 15 16  1  0
 16 17  2  0
 17 18  1  0
 18 19  1  0
 18 20  2  0
 20 21  1  0
 15 22  1  0
 22 23  2  0
  9 24  1  0
 24 25  1  0
 25 26  2  0
 26  4  1  0
 25  7  1  0
 23 13  1  0
  5 27  1  0
  6 28  1  0
  8 29  1  0
 11 30  1  0
 11 31  1  0
 12 32  1  0
 12 33  1  0
 14 34  1  0
 16 35  1  0
 17 36  1  0
 19 37  1  0
 21 38  1  0
 26 39  1  0
M  CHG  2   2   1   3  -1
M  END
>  <smiles>  (49) 
O=[N+]([O-])c1ccc2[nH]c(=NCCn3cc(C=CC(O)=NO)nn3)sc2c1

>  <score_type>  (49) 
oracle

>  <origin>  (49) 
adg

>  <m_score__min__energy>  (49) 
-9.9499999999999993

>  <m_primary>  (49) 
energy

$$$$
49:0
     RDKit          3D

 57 59  0  0  0  0  0  0  0  0999 V2000
   56.0910   30.4610   53.1000 C   0  0  0  0  0  0  0  0  0  0  0  0
   57.1690   30.9130   52.1690 C   0  0  0  0  0  0  0  0  0  0  0  0
   57.6850   32.2100   52.2520 C   0  0  0  0  0  0  0  0  0  0  0  0
   58.6620   32.6060   51.3320 C   0  0  0  0  0  0  0  0  0  0  0  0
   59.2250   33.9940   51.3900 C   0  0  0  0  0  0  0  0  0  0  0  0
   59.0520   31.7420   50.3530 N   0  0  0  0  0  0  0  0  0  0  0  0
   58.5220   30.4920   50.2750 C   0  0  0  0  0  0  0  0  0  0  0  0
   59.0080   29.3880   48.9500 S   0  0  0  0  0  0  0  0  0  0  0  0
   60.7470   29.2620   49.4950 C   0  0  0  0  0  0  0  0  0  0  0  0
   61.4550   30.5690   49.2880 C   0  0  0  0  0  0  0  0  0  0  0  0
   61.8280   31.3610   50.3180 N   0  0  0  0  0  0  0  0  0  0  0  0
   62.3320   32.4630   49.7260 C   0  0  0  0  0  0  0  0  0  0  0  0
   62.8590   33.6400   50.4810 C   0  0  0  0  0  0  0  0  0  0  0  0
   62.2710   32.3180   48.3570 C   0  0  0  0  0  0  0  0  0  0  0  0
   62.8110   33.5140   47.1250 S   0  0  0  0  0  0  0  0  0  0  0  0
   61.1290   34.0880   46.7060 C   0  0  0  0  0  0  0  0  0  0  0  0
   60.2080   33.8760   47.8620 C   0  0  0  0  0  0  0  0  0  0  0  0
   60.3550   34.5670   48.9070 O   0  0  0  0  0  0  0  0  0  0  0  0
   59.1260   32.9460   47.7480 N   0  0  0  0  0  0  0  0  0  0  0  0
   58.5850   32.4350   46.5190 C   0  0  0  0  0  0  0  0  0  0  0  0
   58.2920   33.3320   45.4910 C   0  0  0  0  0  0  0  0  0  0  0  0
   57.7790   32.8730   44.2770 C   0  0  0  0  0  0  0  0  0  0  0  0
   57.5690   31.5010   44.0610 C   0  0  0  0  0  0  0  0  0  0  0  0
   56.9910   31.0460   42.7470 C   0  0  0  0  0  0  0  0  0  0  0  0
   57.8620   30.5820   45.0980 C   0  0  0  0  0  0  0  0  0  0  0  0
   57.6580   29.1010   44.9170 C   0  0  0  0  0  0  0  0  0  0  0  0
   58.3930   31.0590   46.3080 C   0  0  0  0  0  0  0  0  0  0  0  0
   61.6930   31.1340   48.0820 N   0  0  0  0  0  0  0  0  0  0  0  0
   61.4730   30.5570   46.7550 C   0  0  0  0  0  0  0  0  0  0  0  0
   57.5990   30.0840   51.1830 N   0  0  0  0  0  0  0  0  0  0  0  0
   56.4224   30.5999   54.1397 H   0  0  0  0  0  0  0  0  0  0  0  0
   55.1813   31.0535   52.9228 H   0  0  0  0  0  0  0  0  0  0  0  0
   55.8759   29.3969   52.9228 H   0  0  0  0  0  0  0  0  0  0  0  0
   57.3295   32.9060   53.0261 H   0  0  0  0  0  0  0  0  0  0  0  0
   59.3476   34.2963   52.4405 H   0  0  0  0  0  0  0  0  0  0  0  0
   60.2025   34.0145   50.8860 H   0  0  0  0  0  0  0  0  0  0  0  0
   58.5380   34.6897   50.8860 H   0  0  0  0  0  0  0  0  0  0  0  0
   59.7670   32.0360   49.6500 H   0  0  0  0  0  0  0  0  0  0  0  0
   60.7743   29.0000   50.5630 H   0  0  0  0  0  0  0  0  0  0  0  0
   61.2516   28.4846   48.9026 H   0  0  0  0  0  0  0  0  0  0  0  0
   62.7742   33.4506   51.5612 H   0  0  0  0  0  0  0  0  0  0  0  0
   63.9151   33.8009   50.2188 H   0  0  0  0  0  0  0  0  0  0  0  0
   62.2756   34.5349   50.2188 H   0  0  0  0  0  0  0  0  0  0  0  0
   61.1618   35.1595   46.4595 H   0  0  0  0  0  0  0  0  0  0  0  0
   60.7591   33.5149   45.8431 H   0  0  0  0  0  0  0  0  0  0  0  0
   58.4665   34.4080   45.6385 H   0  0  0  0  0  0  0  0  0  0  0  0
   57.5367   33.5928   43.4813 H   0  0  0  0  0  0  0  0  0  0  0  0
   56.1392   30.3755   42.9337 H   0  0  0  0  0  0  0  0  0  0  0  0
   56.6503   31.9208   42.1738 H   0  0  0  0  0  0  0  0  0  0  0  0
   57.7613   30.5094   42.1738 H   0  0  0  0  0  0  0  0  0  0  0  0
   57.5913   28.6169   45.9025 H   0  0  0  0  0  0  0  0  0  0  0  0
   56.7271   28.9247   44.3581 H   0  0  0  0  0  0  0  0  0  0  0  0
   58.5066   28.6796   44.3581 H   0  0  0  0  0  0  0  0  0  0  0  0
   58.6621   30.3457   47.1010 H   0  0  0  0  0  0  0  0  0  0  0  0
   61.0829   29.5339   46.8601 H   0  0  0  0  0  0  0  0  0  0  0  0
   60.7462   31.1717   46.2038 H   0  0  0  0  0  0  0  0  0  0  0  0
   62.4246   30.5318   46.2038 H   0  0  0  0  0  0  0  0  0  0  0  0
  1  2  1  0
  2  3  2  0
  3  4  1  0
  4  5  1  0
  4  6  2  0
  6  7  1  0
  7  8  1  0
  8  9  1  0
  9 10  1  0
 10 11  2  0
 11 12  1  0
 12 13  1  0
 12 14  2  0
 14 15  1  0
 15 16  1  0
 16 17  1  0
 17 18  2  0
 17 19  1  0
 19 20  1  0
 20 21  2  0
 21 22  1  0
 22 23  2  0
 23 24  1  0
 23 25  1  0
 25 26  1  0
 25 27  2  0
 14 28  1  0
 28 29  1  0
  7 30  2  0
 30  2  1  0
 28 10  1  0
 27 20  1  0
  1 31  1  0
  1 32  1  0
  1 33  1  0
  3 34  1  0
  5 35  1  0
  5 36  1  0
  5 37  1  0
  6 38  1  0
  9 39  1  0
  9 40  1  0
 13 41  1  0
 13 42  1  0
 13 43  1  0
 16 44  1  0
 16 45  1  0
 21 46  1  0
 22 47  1  0
 24 48  1  0
 24 49  1  0
 24 50  1  0
 26 51  1  0
 26 52  1  0
 26 53  1  0
 27 54  1  0
 29 55  1  0
 29 56  1  0
 29 57  1  0
M  CHG  2   6   1  19  -1
M  END
>  <UniqueID>  (50) 
46

>  <SMILES>  (50) 
Cc1cc(C)[nH+]c(SCc2nc(C)c(SCC(=O)[N-]c3ccc(C)c(C)c3)n2C)n1

>  <Energy>  (50) 
77.01524164856569

>  <Genealogy>  (50) 
Cc1cc(C)[nH+]c(SCc2nc(C)c(SCC(=O)[N-]c3ccc(C)c(C)c3)n2C)n1 (protonated)
Cc1cc(C)[nH+]c(SCc2nc(C)c(SCC(=O)[N-]c3ccc(C)c(C)c3)n2C)n1 (3D coordinates assigned)
Cc1cc(C)[nH+]c(SCc2nc(C)c(SCC(=O)[N-]c3ccc(C)c(C)c3)n2C)n1 (optimized conformer: 77.01524164856569 kcal/mol)

>  <smiles>  (50) 
Cc1cc(C)nc(SCc2nc(C)c(SCC(=O)Nc3ccc(C)c(C)c3)n2C)n1

>  <score_type>  (50) 
oracle

>  <origin>  (50) 
adg

>  <m_score__min__energy>  (50) 
-10.27

>  <m_primary>  (50) 
energy

$$$$
50:0
     RDKit          3D

 47 48  0  0  0  0  0  0  0  0999 V2000
   58.9301   34.4263   43.5701 H   0  0  0  0  0  0  0  0  0  0  0  0
   58.5380   33.4900   43.9940 C   0  0  0  0  0  0  0  0  0  0  0  0
   58.4480   33.3240   45.3790 C   0  0  0  0  0  0  0  0  0  0  0  0
   58.8780   34.4200   46.3010 C   0  0  0  0  0  0  0  0  0  0  0  0
   58.7499   34.0935   47.3436 H   0  0  0  0  0  0  0  0  0  0  0  0
   59.9363   34.6583   46.1188 H   0  0  0  0  0  0  0  0  0  0  0  0
   58.2641   35.3144   46.1188 H   0  0  0  0  0  0  0  0  0  0  0  0
   57.9420   32.1690   45.8880 N   0  0  0  0  0  0  0  0  0  0  0  0
   57.5130   31.1440   45.1020 C   0  0  0  0  0  0  0  0  0  0  0  0
   57.0530   30.0730   45.6890 N   0  0  0  0  0  0  0  0  0  0  0  0
   56.2550   29.0050   45.1480 C   0  0  0  0  0  0  0  0  0  0  0  0
   55.3150   29.2380   44.3450 O   0  0  0  0  0  0  0  0  0  0  0  0
   56.4730   27.6600   45.5830 N   0  0  0  0  0  0  0  0  0  0  0  0
   57.7240   26.9370   45.3790 C   0  0  0  0  0  0  0  0  0  0  0  0
   57.5022   25.8770   45.1863 H   0  0  0  0  0  0  0  0  0  0  0  0
   58.2527   27.3759   44.5200 H   0  0  0  0  0  0  0  0  0  0  0  0
   58.6150   27.0480   46.6180 C   0  0  0  0  0  0  0  0  0  0  0  0
   57.9898   26.9751   47.5201 H   0  0  0  0  0  0  0  0  0  0  0  0
   59.3523   26.2319   46.5976 H   0  0  0  0  0  0  0  0  0  0  0  0
   59.3470   28.3600   46.6300 C   0  0  0  0  0  0  0  0  0  0  0  0
   59.5900   29.2140   47.6990 C   0  0  0  0  0  0  0  0  0  0  0  0
   59.1140   28.9720   49.1050 C   0  0  0  0  0  0  0  0  0  0  0  0
   59.8622   29.3524   49.8160 H   0  0  0  0  0  0  0  0  0  0  0  0
   58.1588   29.4939   49.2637 H   0  0  0  0  0  0  0  0  0  0  0  0
   58.9729   27.8927   49.2637 H   0  0  0  0  0  0  0  0  0  0  0  0
   60.3790   30.2420   47.2670 N   0  0  0  0  0  0  0  0  0  0  0  0
   60.8600   31.4370   48.0240 C   0  0  0  0  0  0  0  0  0  0  0  0
   59.6530   32.1860   48.6200 C   0  0  0  0  0  0  0  0  0  0  0  0
   59.7066   32.1527   49.7182 H   0  0  0  0  0  0  0  0  0  0  0  0
   59.6688   33.2332   48.2837 H   0  0  0  0  0  0  0  0  0  0  0  0
   58.7217   31.7069   48.2837 H   0  0  0  0  0  0  0  0  0  0  0  0
   61.8440   31.0320   49.1460 C   0  0  0  0  0  0  0  0  0  0  0  0
   61.3815   31.2224   50.1257 H   0  0  0  0  0  0  0  0  0  0  0  0
   62.0834   29.9622   49.0552 H   0  0  0  0  0  0  0  0  0  0  0  0
   62.7671   31.6233   49.0552 H   0  0  0  0  0  0  0  0  0  0  0  0
   61.6150   32.4170   47.0920 C   0  0  0  0  0  0  0  0  0  0  0  0
   62.1746   33.1433   47.6997 H   0  0  0  0  0  0  0  0  0  0  0  0
   62.3148   31.8537   46.4572 H   0  0  0  0  0  0  0  0  0  0  0  0
   60.8918   32.9500   46.4572 H   0  0  0  0  0  0  0  0  0  0  0  0
   60.5950   30.0540   45.9660 N   0  0  0  0  0  0  0  0  0  0  0  0
   61.1440   30.6760   45.3340 H   0  0  0  0  0  0  0  0  0  0  0  0
   60.0010   28.9230   45.5590 C   0  0  0  0  0  0  0  0  0  0  0  0
   60.0316   28.5136   44.5385 H   0  0  0  0  0  0  0  0  0  0  0  0
   57.6170   31.2740   43.7000 C   0  0  0  0  0  0  0  0  0  0  0  0
   57.3004   30.4515   43.0418 H   0  0  0  0  0  0  0  0  0  0  0  0
   58.1250   32.4550   43.1560 C   0  0  0  0  0  0  0  0  0  0  0  0
   58.1996   32.5692   42.0645 H   0  0  0  0  0  0  0  0  0  0  0  0
  1  2  1  0
  2  3  2  0
  3  4  1  0
  4  5  1  0
  4  6  1  0
  4  7  1  0
  3  8  1  0
  8  9  1  0
  9 10  2  0
 10 11  1  0
 11 12  2  0
 11 13  1  0
 13 14  1  0
 14 15  1  0
 14 16  1  0
 14 17  1  0
 17 18  1  0
 17 19  1  0
 17 20  1  0
 20 21  2  0
 21 22  1  0
 22 23  1  0
 22 24  1  0
 22 25  1  0
 21 26  1  0
 26 27  1  0
 27 28  1  0
 28 29  1  0
 28 30  1  0
 28 31  1  0
 27 32  1  0
 32 33  1  0
 32 34  1  0
 32 35  1  0
 27 36  1  0
 36 37  1  0
 36 38  1  0
 36 39  1  0
 26 40  1  0
 40 41  1  0
 40 42  2  0
 42 43  1  0
  9 44  1  0
 44 45  1  0
 44 46  2  0
 46 47  1  0
 46  2  1  0
 42 20  1  0
M  CHG  3   8  -1  13  -1  40   1
M  END
>  <UniqueID>  (51) 
47

>  <SMILES>  (51) 
Cc1ccc/c(=N\C(=O)[N-]CCc2c[nH+]n(C(C)(C)C)c2C)[n-]1

>  <Energy>  (51) 
81.18396744615357

>  <Genealogy>  (51) 
Cc1cccc(=NC(=O)[N-]CCc2c[nH+]n(C(C)(C)C)c2C)[n-]1 (protonated)
Cc1ccc/c(=N\C(=O)[N-]CCc2c[nH+]n(C(C)(C)C)c2C)[n-]1 (cis-trans isomerization)
Cc1ccc/c(=N\C(=O)[N-]CCc2c[nH+]n(C(C)(C)C)c2C)[n-]1 (3D coordinates assigned)
Cc1ccc/c(=N\C(=O)[N-]CCc2c[nH+]n(C(C)(C)C)c2C)[n-]1 (optimized conformer: 81.18396744615357 kcal/mol)

>  <smiles>  (51) 
Cc1cccc(=NC(=O)NCCc2cnn(C(C)(C)C)c2C)[nH]1

>  <score_type>  (51) 
oracle

>  <origin>  (51) 
adg

>  <m_score__min__energy>  (51) 
-9.1999999999999993

>  <m_primary>  (51) 
energy

$$$$
51:0
     RDKit          3D

 56 59  0  0  0  0  0  0  0  0999 V2000
   63.6044   33.7380   46.4788 H   0  0  0  0  0  0  0  0  0  0  0  0
   62.9800   33.2920   47.2670 C   0  0  0  0  0  0  0  0  0  0  0  0
   61.8010   32.7670   46.8990 C   0  0  0  0  0  0  0  0  0  0  0  0
   61.4051   33.0431   45.9106 H   0  0  0  0  0  0  0  0  0  0  0  0
   60.9930   31.8400   47.7310 C   0  0  0  0  0  0  0  0  0  0  0  0
   60.1020   32.3420   48.7060 C   0  0  0  0  0  0  0  0  0  0  0  0
   59.9450   33.8070   48.8710 C   0  0  0  0  0  0  0  0  0  0  0  0
   60.4034   34.3009   49.7404 H   0  0  0  0  0  0  0  0  0  0  0  0
   59.2590   34.5440   47.9880 C   0  0  0  0  0  0  0  0  0  0  0  0
   59.0985   35.6081   48.2159 H   0  0  0  0  0  0  0  0  0  0  0  0
   58.7030   34.0100   46.7210 C   0  0  0  0  0  0  0  0  0  0  0  0
   57.5620   33.1820   46.6790 C   0  0  0  0  0  0  0  0  0  0  0  0
   57.0442   32.9170   47.6127 H   0  0  0  0  0  0  0  0  0  0  0  0
   57.0850   32.6960   45.4580 C   0  0  0  0  0  0  0  0  0  0  0  0
   56.1917   32.0546   45.4339 H   0  0  0  0  0  0  0  0  0  0  0  0
   57.7400   33.0230   44.2690 C   0  0  0  0  0  0  0  0  0  0  0  0
   57.3581   32.6452   43.3091 H   0  0  0  0  0  0  0  0  0  0  0  0
   58.8790   33.8290   44.2980 C   0  0  0  0  0  0  0  0  0  0  0  0
   59.3976   34.0809   43.3612 H   0  0  0  0  0  0  0  0  0  0  0  0
   59.3620   34.3170   45.5170 C   0  0  0  0  0  0  0  0  0  0  0  0
   60.2644   34.9458   45.5339 H   0  0  0  0  0  0  0  0  0  0  0  0
   59.3230   31.4250   49.4530 C   0  0  0  0  0  0  0  0  0  0  0  0
   58.2780   31.8780   50.4410 C   0  0  0  0  0  0  0  0  0  0  0  0
   58.6474   31.7179   51.4647 H   0  0  0  0  0  0  0  0  0  0  0  0
   58.0693   32.9474   50.2896 H   0  0  0  0  0  0  0  0  0  0  0  0
   57.3549   31.2993   50.2896 H   0  0  0  0  0  0  0  0  0  0  0  0
   59.5220   30.0510   49.2710 C   0  0  0  0  0  0  0  0  0  0  0  0
   58.9380   29.3303   49.8622 H   0  0  0  0  0  0  0  0  0  0  0  0
   60.4630   29.5890   48.3380 C   0  0  0  0  0  0  0  0  0  0  0  0
   60.6870   28.1420   48.1010 C   0  0  0  0  0  0  0  0  0  0  0  0
   61.3701   27.6034   48.7743 H   0  0  0  0  0  0  0  0  0  0  0  0
   60.1000   27.4550   47.1080 C   0  0  0  0  0  0  0  0  0  0  0  0
   60.6344   26.5893   46.6898 H   0  0  0  0  0  0  0  0  0  0  0  0
   58.7750   27.7960   46.5440 C   0  0  0  0  0  0  0  0  0  0  0  0
   58.6210   29.0160   45.9590 N   0  0  0  0  0  0  0  0  0  0  0  0
   57.4460   29.4130   45.4040 C   0  0  0  0  0  0  0  0  0  0  0  0
   57.3630   30.4109   44.9486 H   0  0  0  0  0  0  0  0  0  0  0  0
   56.3440   28.5560   45.4110 C   0  0  0  0  0  0  0  0  0  0  0  0
   55.1410   28.9620   44.8450 O   0  0  0  0  0  0  0  0  0  0  0  0
   56.4690   27.2880   45.9890 C   0  0  0  0  0  0  0  0  0  0  0  0
   55.4900   26.4950   45.9980 O   0  0  0  0  0  0  0  0  0  0  0  0
   57.6870   26.9010   46.5560 C   0  0  0  0  0  0  0  0  0  0  0  0
   57.7951   25.9042   47.0085 H   0  0  0  0  0  0  0  0  0  0  0  0
   61.1600   30.4920   47.5930 N   0  0  0  0  0  0  0  0  0  0  0  0
   61.8670   30.1360   46.9100 H   0  0  0  0  0  0  0  0  0  0  0  0
   63.5060   33.3180   48.6500 C   0  0  0  0  0  0  0  0  0  0  0  0
   64.4780   32.3780   49.0290 C   0  0  0  0  0  0  0  0  0  0  0  0
   64.8430   31.6427   48.2968 H   0  0  0  0  0  0  0  0  0  0  0  0
   64.9840   32.3720   50.3320 C   0  0  0  0  0  0  0  0  0  0  0  0
   65.7538   31.6404   50.6188 H   0  0  0  0  0  0  0  0  0  0  0  0
   64.5140   33.2930   51.2700 C   0  0  0  0  0  0  0  0  0  0  0  0
   64.9217   33.2937   52.2916 H   0  0  0  0  0  0  0  0  0  0  0  0
   63.5260   34.2140   50.9120 C   0  0  0  0  0  0  0  0  0  0  0  0
   63.1499   34.9331   51.6545 H   0  0  0  0  0  0  0  0  0  0  0  0
   63.0150   34.2220   49.6100 C   0  0  0  0  0  0  0  0  0  0  0  0
   62.2262   34.9378   49.3355 H   0  0  0  0  0  0  0  0  0  0  0  0
  1  2  1  0
  2  3  2  3
  3  4  1  0
  3  5  1  0
  5  6  1  0
  6  7  1  0
  7  8  1  0
  7  9  2  0
  9 10  1  0
  9 11  1  0
 11 12  2  0
 12 13  1  0
 12 14  1  0
 14 15  1  0
 14 16  2  0
 16 17  1  0
 16 18  1  0
 18 19  1  0
 18 20  2  0
 20 21  1  0
  6 22  2  0
 22 23  1  0
 23 24  1  0
 23 25  1  0
 23 26  1  0
 22 27  1  0
 27 28  1  0
 27 29  2  0
 29 30  1  0
 30 31  1  0
 30 32  2  0
 32 33  1  0
 32 34  1  0
 34 35  1  0
 35 36  1  0
 36 37  1  0
 36 38  2  0
 38 39  1  0
 38 40  1  0
 40 41  2  0
 40 42  1  0
 42 43  1  0
 29 44  1  0
 44 45  1  0
  2 46  1  0
 46 47  2  0
 47 48  1  0
 47 49  1  0
 49 50  1  0
 49 51  2  0
 51 52  1  0
 51 53  1  0
 53 54  1  0
 53 55  2  0
 55 56  1  0
 44  5  2  0
 55 46  1  0
 20 11  1  0
 42 34  2  0
M  CHG  3  35  -1  39  -1  44   1
M  END
>  <UniqueID>  (52) 
48

>  <SMILES>  (52) 
Cc1cc(/C=C/c2cc(=O)c([O-])c[n-]2)[nH+]c(C=Cc2ccccc2)c1/C=C/c1ccccc1

>  <Energy>  (52) 
85.18258361616743

>  <Genealogy>  (52) 
Cc1cc(C=Cc2cc(=O)c([O-])c[n-]2)[nH+]c(C=Cc2ccccc2)c1C=Cc1ccccc1 (protonated)
Cc1cc(/C=C/c2cc(=O)c([O-])c[n-]2)[nH+]c(C=Cc2ccccc2)c1/C=C/c1ccccc1 (cis-trans isomerization)
Cc1cc(/C=C/c2cc(=O)c([O-])c[n-]2)[nH+]c(C=Cc2ccccc2)c1/C=C/c1ccccc1 (3D coordinates assigned)
Cc1cc(/C=C/c2cc(=O)c([O-])c[n-]2)[nH+]c(C=Cc2ccccc2)c1/C=C/c1ccccc1 (optimized conformer: 85.18258361616743 kcal/mol)

>  <smiles>  (52) 
Cc1cc(C=Cc2cc(=O)c(O)c[nH]2)nc(C=Cc2ccccc2)c1C=Cc1ccccc1

>  <score_type>  (52) 
oracle

>  <origin>  (52) 
adg

>  <m_score__min__energy>  (52) 
-14.85

>  <m_primary>  (52) 
energy

$$$$
52:0
     RDKit          3D

 53 56  0  0  0  0  0  0  0  0999 V2000
   59.4000   34.1490   52.2800 C   0  0  0  0  0  0  0  0  0  0  0  0
   59.7880   33.3550   51.0170 C   0  0  1  0  0  0  0  0  0  0  0  0
   61.1340   32.9440   51.0970 O   0  0  0  0  0  0  0  0  0  0  0  0
   58.8760   32.1290   50.8110 C   0  0  0  0  0  0  0  0  0  0  0  0
   58.7240   31.9930   49.3070 C   0  0  0  0  0  0  0  0  0  0  0  0
   58.9500   33.3280   48.7800 N   0  0  0  0  0  0  0  0  0  0  0  0
   58.8890   33.6110   47.3740 C   0  0  0  0  0  0  0  0  0  0  0  0
   57.6380   33.5630   46.7390 C   0  0  0  0  0  0  0  0  0  0  0  0
   57.4860   34.0340   45.4370 C   0  0  0  0  0  0  0  0  0  0  0  0
   58.5850   34.5760   44.7770 C   0  0  0  0  0  0  0  0  0  0  0  0
   59.7970   34.6050   45.3890 N   0  0  0  0  0  0  0  0  0  0  0  0
   60.0040   34.1200   46.6440 C   0  0  0  0  0  0  0  0  0  0  0  0
   61.2260   34.1560   47.1030 N   0  0  0  0  0  0  0  0  0  0  0  0
   62.1750   33.0870   47.1970 C   0  0  0  0  0  0  0  0  0  0  0  0
   63.3390   33.2530   46.7430 O   0  0  0  0  0  0  0  0  0  0  0  0
   61.8370   31.8080   47.8600 C   0  0  0  0  0  0  0  0  0  0  0  0
   60.9310   30.9950   47.2530 N   0  0  0  0  0  0  0  0  0  0  0  0
   60.5130   29.8220   47.7990 C   0  0  0  0  0  0  0  0  0  0  0  0
   59.5080   28.9910   47.0950 C   0  0  0  0  0  0  0  0  0  0  0  0
   59.4490   27.6000   47.2950 C   0  0  0  0  0  0  0  0  0  0  0  0
   58.4830   26.8490   46.6230 C   0  0  0  0  0  0  0  0  0  0  0  0
   57.5890   27.4770   45.7550 C   0  0  0  0  0  0  0  0  0  0  0  0
   57.6770   28.8610   45.5680 C   0  0  0  0  0  0  0  0  0  0  0  0
   56.5750   29.7050   44.4890 S   0  0  0  0  0  0  0  0  0  0  0  0
   56.8710   29.2120   42.8590 N   0  0  0  0  0  0  0  0  0  0  0  0
   56.7710   31.1900   44.5990 O   0  0  0  0  0  0  0  0  0  0  0  0
   55.1600   29.3710   44.8670 O   0  0  0  0  0  0  0  0  0  0  0  0
   58.6230   29.5740   46.2370 N   0  0  0  0  0  0  0  0  0  0  0  0
   61.0470   29.4330   49.0350 C   0  0  0  0  0  0  0  0  0  0  0  0
   61.9570   30.2300   49.6520 N   0  0  0  0  0  0  0  0  0  0  0  0
   62.3680   31.4060   49.1050 C   0  0  0  0  0  0  0  0  0  0  0  0
   63.2400   32.1290   49.7320 N   0  0  0  0  0  0  0  0  0  0  0  0
   59.6060   34.2020   49.7440 C   0  0  0  0  0  0  0  0  0  0  0  0
   59.6808   33.5744   53.1750 H   0  0  0  0  0  0  0  0  0  0  0  0
   59.9281   35.1139   52.2831 H   0  0  0  0  0  0  0  0  0  0  0  0
   58.3142   34.3253   52.2831 H   0  0  0  0  0  0  0  0  0  0  0  0
   61.2140   32.0730   50.6250 H   0  0  0  0  0  0  0  0  0  0  0  0
   59.3413   31.2268   51.2346 H   0  0  0  0  0  0  0  0  0  0  0  0
   57.9046   32.2508   51.3126 H   0  0  0  0  0  0  0  0  0  0  0  0
   59.4679   31.2888   48.9061 H   0  0  0  0  0  0  0  0  0  0  0  0
   57.7347   31.6021   49.0270 H   0  0  0  0  0  0  0  0  0  0  0  0
   56.7703   33.1499   47.2742 H   0  0  0  0  0  0  0  0  0  0  0  0
   56.5083   33.9782   44.9360 H   0  0  0  0  0  0  0  0  0  0  0  0
   58.4720   34.9806   43.7604 H   0  0  0  0  0  0  0  0  0  0  0  0
   60.1588   27.1076   47.9759 H   0  0  0  0  0  0  0  0  0  0  0  0
   58.4265   25.7614   46.7779 H   0  0  0  0  0  0  0  0  0  0  0  0
   56.8242   26.8911   45.2241 H   0  0  0  0  0  0  0  0  0  0  0  0
   57.8920   29.3460   42.6810 H   0  0  0  0  0  0  0  0  0  0  0  0
   56.6900   28.1840   42.8130 H   0  0  0  0  0  0  0  0  0  0  0  0
   60.7311   28.4885   49.5021 H   0  0  0  0  0  0  0  0  0  0  0  0
   63.0140   33.0930   50.0680 H   0  0  0  0  0  0  0  0  0  0  0  0
   60.5825   34.5322   49.3600 H   0  0  0  0  0  0  0  0  0  0  0  0
   59.0135   35.1078   49.9400 H   0  0  0  0  0  0  0  0  0  0  0  0
  1  2  1  0
  2  3  1  1
  2  4  1  0
  4  5  1  0
  5  6  1  0
  6  7  1  0
  7  8  2  0
  8  9  1  0
  9 10  2  0
 10 11  1  0
 11 12  1  0
 12 13  2  3
 13 14  1  0
 14 15  2  0
 14 16  1  0
 16 17  2  0
 17 18  1  0
 18 19  1  0
 19 20  2  0
 20 21  1  0
 21 22  2  0
 22 23  1  0
 23 24  1  0
 24 25  1  0
 24 26  2  0
 24 27  2  0
 23 28  2  0
 18 29  2  0
 29 30  1  0
 30 31  1  0
 31 32  2  3
  6 33  1  0
 33  2  1  0
 12  7  1  0
 31 16  1  0
 28 19  1  0
  1 34  1  0
  1 35  1  0
  1 36  1  0
  3 37  1  0
  4 38  1  0
  4 39  1  0
  5 40  1  0
  5 41  1  0
  8 42  1  0
  9 43  1  0
 10 44  1  0
 20 45  1  0
 21 46  1  0
 22 47  1  0
 25 48  1  0
 25 49  1  0
 29 50  1  0
 32 51  1  0
 33 52  1  0
 33 53  1  0
M  CHG  2  11  -1  30  -1
M  END
>  <UniqueID>  (53) 
49

>  <SMILES>  (53) 
C[C@@]1(O)CCN(c2ccc[n-]c2=NC(=O)c2nc(-c3cccc(S(N)(=O)=O)n3)c[n-]c2=N)C1

>  <Energy>  (53) 
79.6991027844664

>  <Genealogy>  (53) 
CC1(O)CCN(c2ccc[n-]c2=NC(=O)c2nc(-c3cccc(S(N)(=O)=O)n3)c[n-]c2=N)C1 (protonated)
C[C@@]1(O)CCN(c2ccc[n-]c2=NC(=O)c2nc(-c3cccc(S(N)(=O)=O)n3)c[n-]c2=N)C1 (chirality)
C[C@@]1(O)CCN(c2ccc[n-]c2=NC(=O)c2nc(-c3cccc(S(N)(=O)=O)n3)c[n-]c2=N)C1 (3D coordinates assigned)
C[C@@]1(O)CCN(c2ccc[n-]c2=NC(=O)c2nc(-c3cccc(S(N)(=O)=O)n3)c[n-]c2=N)C1 (nonaromatic ring conformer: 79.6991027844664 kcal/mol)

>  <smiles>  (53) 
CC1(O)CCN(c2ccc[nH]c2=NC(=O)c2nc(-c3cccc(S(N)(=O)=O)n3)c[nH]c2=N)C1

>  <score_type>  (53) 
oracle

>  <origin>  (53) 
adg

>  <m_score__min__energy>  (53) 
-11.48

>  <m_primary>  (53) 
energy

$$$$
53:0
     RDKit          3D

 51 54  0  0  0  0  0  0  0  0999 V2000
   57.0000   29.4710   51.9710 O   0  0  0  0  0  0  0  0  0  0  0  0
   57.3360   30.6830   51.8940 C   0  0  0  0  0  0  0  0  0  0  0  0
   56.3760   31.7420   52.3450 C   0  0  0  0  0  0  0  0  0  0  0  0
   55.0790   31.2940   52.1770 F   0  0  0  0  0  0  0  0  0  0  0  0
   58.6520   31.0110   51.4340 N   0  0  0  0  0  0  0  0  0  0  0  0
   59.1970   30.5640   50.1880 C   0  0  0  0  0  0  0  0  0  0  0  0
   59.2160   29.1930   49.9070 C   0  0  0  0  0  0  0  0  0  0  0  0
   59.7420   28.7170   48.6930 C   0  0  0  0  0  0  0  0  0  0  0  0
   59.7800   27.2660   48.4030 C   0  0  0  0  0  0  0  0  0  0  0  0
   60.8790   26.6460   48.4230 O   0  0  0  0  0  0  0  0  0  0  0  0
   58.5940   26.5830   48.1110 O   0  0  0  0  0  0  0  0  0  0  0  0
   58.2280   26.1790   46.7940 C   0  0  0  0  0  0  0  0  0  0  0  0
   57.8750   27.3490   45.9920 N   0  0  0  0  0  0  0  0  0  0  0  0
   58.7360   28.2190   45.4230 C   0  0  0  0  0  0  0  0  0  0  0  0
   60.1190   28.1450   45.5490 O   0  0  0  0  0  0  0  0  0  0  0  0
   58.0490   29.1730   44.7010 C   0  0  0  0  0  0  0  0  0  0  0  0
   56.7150   28.8730   44.8270 C   0  0  0  0  0  0  0  0  0  0  0  0
   56.6390   27.7460   45.6210 C   0  0  0  0  0  0  0  0  0  0  0  0
   55.4630   27.0990   45.9880 O   0  0  0  0  0  0  0  0  0  0  0  0
   55.6160   29.6450   44.1730 C   0  0  0  0  0  0  0  0  0  0  0  0
   56.1480   30.8400   43.4080 C   0  0  0  0  0  0  0  0  0  0  0  0
   57.4620   31.1370   43.2860 C   0  0  0  0  0  0  0  0  0  0  0  0
   58.5800   30.3160   43.8970 C   0  0  0  0  0  0  0  0  0  0  0  0
   60.2390   29.6380   47.7570 C   0  0  0  0  0  0  0  0  0  0  0  0
   60.2000   31.0080   48.0240 C   0  0  0  0  0  0  0  0  0  0  0  0
   59.6700   31.4800   49.2280 C   0  0  0  0  0  0  0  0  0  0  0  0
   59.5740   33.2560   49.5020 S   0  0  0  0  0  0  0  0  0  0  0  0
   59.0140   33.5840   47.8310 C   0  0  0  0  0  0  0  0  0  0  0  0
   59.8030   34.3500   46.9630 C   0  0  0  0  0  0  0  0  0  0  0  0
   59.3630   34.6100   45.6610 C   0  0  0  0  0  0  0  0  0  0  0  0
   58.1360   34.1020   45.2230 C   0  0  0  0  0  0  0  0  0  0  0  0
   57.3490   33.3310   46.0860 C   0  0  0  0  0  0  0  0  0  0  0  0
   57.7880   33.0700   47.3880 C   0  0  0  0  0  0  0  0  0  0  0  0
   56.5511   31.9664   53.4075 H   0  0  0  0  0  0  0  0  0  0  0  0
   56.5285   32.6522   51.7465 H   0  0  0  0  0  0  0  0  0  0  0  0
   58.8154   28.4807   50.6433 H   0  0  0  0  0  0  0  0  0  0  0  0
   59.0751   25.6575   46.3243 H   0  0  0  0  0  0  0  0  0  0  0  0
   57.3603   25.5053   46.8511 H   0  0  0  0  0  0  0  0  0  0  0  0
   55.0826   28.9835   43.4746 H   0  0  0  0  0  0  0  0  0  0  0  0
   54.9416   30.0143   44.9596 H   0  0  0  0  0  0  0  0  0  0  0  0
   55.4208   31.5070   42.9219 H   0  0  0  0  0  0  0  0  0  0  0  0
   57.7365   32.0309   42.7067 H   0  0  0  0  0  0  0  0  0  0  0  0
   59.2141   29.9203   43.0900 H   0  0  0  0  0  0  0  0  0  0  0  0
   59.1582   30.9685   44.5678 H   0  0  0  0  0  0  0  0  0  0  0  0
   60.6617   29.2780   46.8074 H   0  0  0  0  0  0  0  0  0  0  0  0
   60.5890   31.7205   47.2817 H   0  0  0  0  0  0  0  0  0  0  0  0
   60.7697   34.7474   47.3058 H   0  0  0  0  0  0  0  0  0  0  0  0
   59.9822   35.2141   44.9816 H   0  0  0  0  0  0  0  0  0  0  0  0
   57.7892   34.3085   44.1997 H   0  0  0  0  0  0  0  0  0  0  0  0
   56.3848   32.9301   45.7402 H   0  0  0  0  0  0  0  0  0  0  0  0
   57.1706   32.4609   48.0646 H   0  0  0  0  0  0  0  0  0  0  0  0
  1  2  2  0
  2  3  1  0
  3  4  1  0
  2  5  1  0
  5  6  1  0
  6  7  2  0
  7  8  1  0
  8  9  1  0
  9 10  2  0
  9 11  1  0
 11 12  1  0
 12 13  1  0
 13 14  1  0
 14 15  1  0
 14 16  2  0
 16 17  1  0
 17 18  2  0
 18 19  1  0
 17 20  1  0
 20 21  1  0
 21 22  2  0
 22 23  1  0
  8 24  2  0
 24 25  1  0
 25 26  2  0
 26 27  1  0
 27 28  1  0
 28 29  2  0
 29 30  1  0
 30 31  2  0
 31 32  1  0
 32 33  2  0
 26  6  1  0
 33 28  1  0
 18 13  1  0
 23 16  1  0
  3 34  1  0
  3 35  1  0
  7 36  1  0
 12 37  1  0
 12 38  1  0
 20 39  1  0
 20 40  1  0
 21 41  1  0
 22 42  1  0
 23 43  1  0
 23 44  1  0
 24 45  1  0
 25 46  1  0
 29 47  1  0
 30 48  1  0
 31 49  1  0
 32 50  1  0
 33 51  1  0
M  CHG  3   5  -1  15  -1  19  -1
M  END
>  <UniqueID>  (54) 
50

>  <SMILES>  (54) 
O=C(CF)[N-]c1cc(C(=O)OCn2c([O-])c3c(c2[O-])CC=CC3)ccc1Sc1ccccc1

>  <Energy>  (54) 
87.27985857371839

>  <Genealogy>  (54) 
O=C(CF)[N-]c1cc(C(=O)OCn2c([O-])c3c(c2[O-])CC=CC3)ccc1Sc1ccccc1 (protonated)
O=C(CF)[N-]c1cc(C(=O)OCn2c([O-])c3c(c2[O-])CC=CC3)ccc1Sc1ccccc1 (3D coordinates assigned)
O=C(CF)[N-]c1cc(C(=O)OCn2c([O-])c3c(c2[O-])CC=CC3)ccc1Sc1ccccc1 (nonaromatic ring conformer: 87.27985857371839 kcal/mol)

>  <smiles>  (54) 
O=C(CF)Nc1cc(C(=O)OCn2c(O)c3c(c2O)CC=CC3)ccc1Sc1ccccc1

>  <score_type>  (54) 
oracle

>  <origin>  (54) 
adg

>  <m_score__min__energy>  (54) 
-15.31

>  <m_primary>  (54) 
energy

$$$$
54:0
     RDKit          3D

 34 35  0  0  0  0  0  0  0  0999 V2000
   62.6690   32.9880   47.1220 C   0  0  0  0  0  0  0  0  0  0  0  0
   61.6700   33.8340   47.8520 C   0  0  0  0  0  0  0  0  0  0  0  0
   61.8160   34.0180   49.0890 O   0  0  0  0  0  0  0  0  0  0  0  0
   60.5340   34.4100   47.1940 N   0  0  0  0  0  0  0  0  0  0  0  0
   59.4790   33.7000   46.5310 C   0  0  0  0  0  0  0  0  0  0  0  0
   58.6460   34.3280   45.5900 C   0  0  0  0  0  0  0  0  0  0  0  0
   57.6110   33.6140   44.9790 C   0  0  0  0  0  0  0  0  0  0  0  0
   57.3970   32.2680   45.2940 C   0  0  0  0  0  0  0  0  0  0  0  0
   56.3180   31.5690   44.6590 N   0  0  0  0  0  0  0  0  0  0  0  0
   56.3930   30.3080   43.9820 C   0  0  0  0  0  0  0  0  0  0  0  0
   55.9250   30.2180   42.8160 O   0  0  0  0  0  0  0  0  0  0  0  0
   57.0540   29.1060   44.5980 C   0  0  0  0  0  0  0  0  0  0  0  0
   56.0560   28.2590   45.2530 N   0  0  0  0  0  0  0  0  0  0  0  0
   56.7370   26.7230   45.7010 S   0  0  0  0  0  0  0  0  0  0  0  0
   57.8770   26.3930   44.7780 O   0  0  0  0  0  0  0  0  0  0  0  0
   57.2640   26.8050   47.1050 O   0  0  0  0  0  0  0  0  0  0  0  0
   55.5310   25.4500   45.6210 C   0  0  0  0  0  0  0  0  0  0  0  0
   55.7810   24.1060   45.5030 C   0  0  0  0  0  0  0  0  0  0  0  0
   54.6080   23.4520   45.4590 N   0  0  0  0  0  0  0  0  0  0  0  0
   53.6820   24.4290   45.5510 C   0  0  0  0  0  0  0  0  0  0  0  0
   54.2070   25.6690   45.6510 N   0  0  0  0  0  0  0  0  0  0  0  0
   58.1890   31.6580   46.2820 C   0  0  0  0  0  0  0  0  0  0  0  0
   59.2230   32.3730   46.8950 C   0  0  0  0  0  0  0  0  0  0  0  0
   63.2988   32.4546   47.8492 H   0  0  0  0  0  0  0  0  0  0  0  0
   62.1402   32.2589   46.4905 H   0  0  0  0  0  0  0  0  0  0  0  0
   63.3011   33.6296   46.4905 H   0  0  0  0  0  0  0  0  0  0  0  0
   58.8087   35.3851   45.3331 H   0  0  0  0  0  0  0  0  0  0  0  0
   56.9608   34.1138   44.2459 H   0  0  0  0  0  0  0  0  0  0  0  0
   57.5613   28.5277   43.8117 H   0  0  0  0  0  0  0  0  0  0  0  0
   57.7849   29.4437   45.3475 H   0  0  0  0  0  0  0  0  0  0  0  0
   56.7766   23.6410   45.4527 H   0  0  0  0  0  0  0  0  0  0  0  0
   52.5995   24.2334   45.5451 H   0  0  0  0  0  0  0  0  0  0  0  0
   57.9951   30.6153   46.5739 H   0  0  0  0  0  0  0  0  0  0  0  0
   59.8387   31.8895   47.6678 H   0  0  0  0  0  0  0  0  0  0  0  0
  1  2  1  0
  2  3  2  0
  2  4  1  0
  4  5  1  0
  5  6  2  0
  6  7  1  0
  7  8  2  0
  8  9  1  0
  9 10  1  0
 10 11  2  0
 10 12  1  0
 12 13  1  0
 13 14  1  0
 14 15  2  0
 14 16  2  0
 14 17  1  0
 17 18  2  0
 18 19  1  0
 19 20  1  0
 20 21  2  0
  8 22  1  0
 22 23  2  0
 23  5  1  0
 21 17  1  0
  1 24  1  0
  1 25  1  0
  1 26  1  0
  6 27  1  0
  7 28  1  0
 12 29  1  0
 12 30  1  0
 18 31  1  0
 20 32  1  0
 22 33  1  0
 23 34  1  0
M  CHG  4   4  -1   9  -1  13  -1  19  -1
M  END
>  <UniqueID>  (55) 
51

>  <SMILES>  (55) 
CC(=O)[N-]c1ccc([N-]C(=O)C[N-]S(=O)(=O)c2c[n-]cn2)cc1

>  <Energy>  (55) 
66.48430660553194

>  <Genealogy>  (55) 
CC(=O)[N-]c1ccc([N-]C(=O)C[N-]S(=O)(=O)c2c[n-]cn2)cc1 (protonated)
CC(=O)[N-]c1ccc([N-]C(=O)C[N-]S(=O)(=O)c2c[n-]cn2)cc1 (3D coordinates assigned)
CC(=O)[N-]c1ccc([N-]C(=O)C[N-]S(=O)(=O)c2c[n-]cn2)cc1 (optimized conformer: 66.48430660553194 kcal/mol)

>  <smiles>  (55) 
CC(=O)Nc1ccc(NC(=O)CNS(=O)(=O)c2c[nH]cn2)cc1

>  <score_type>  (55) 
oracle

>  <origin>  (55) 
adg

>  <m_score__min__energy>  (55) 
-12.800000000000001

>  <m_primary>  (55) 
energy

$$$$
55:0
     RDKit          3D

 50 52  0  0  0  0  0  0  0  0999 V2000
   61.1650   28.2760   50.7160 C   0  0  0  0  0  0  0  0  0  0  0  0
   60.2420   29.3580   50.2140 C   0  0  0  0  0  0  0  0  0  0  0  0
   59.7930   30.3380   51.1150 C   0  0  0  0  0  0  0  0  0  0  0  0
   58.9450   31.3580   50.6880 C   0  0  0  0  0  0  0  0  0  0  0  0
   58.5230   31.4070   49.3620 C   0  0  0  0  0  0  0  0  0  0  0  0
   58.9450   30.4370   48.4470 C   0  0  0  0  0  0  0  0  0  0  0  0
   58.4590   30.5070   47.1000 N   0  0  0  0  0  0  0  0  0  0  0  0
   58.5030   31.7140   46.3070 C   0  0  0  0  0  0  0  0  0  0  0  0
   59.4430   32.7270   46.5860 C   0  0  0  0  0  0  0  0  0  0  0  0
   59.4470   33.9150   45.8520 C   0  0  0  0  0  0  0  0  0  0  0  0
   58.5190   34.1110   44.8310 C   0  0  0  0  0  0  0  0  0  0  0  0
   57.5900   33.1130   44.5320 C   0  0  0  0  0  0  0  0  0  0  0  0
   57.5870   31.9090   45.2460 C   0  0  0  0  0  0  0  0  0  0  0  0
   56.6450   30.8970   44.8690 N   0  0  0  0  0  0  0  0  0  0  0  0
   56.8100   30.0190   43.7470 C   0  0  0  0  0  0  0  0  0  0  0  0
   56.4900   30.4280   42.6000 O   0  0  0  0  0  0  0  0  0  0  0  0
   57.3660   28.6340   43.9030 C   0  0  0  0  0  0  0  0  0  0  0  0
   57.9080   28.4690   45.2480 N   0  0  0  0  0  0  0  0  0  0  0  0
   57.5650   27.4120   46.1540 C   0  0  0  0  0  0  0  0  0  0  0  0
   57.6060   27.6390   47.3920 O   0  0  0  0  0  0  0  0  0  0  0  0
   57.1000   26.0910   45.6830 C   0  0  0  0  0  0  0  0  0  0  0  0
   58.0440   25.1500   45.2450 C   0  0  0  0  0  0  0  0  0  0  0  0
   57.6380   23.8800   44.8310 C   0  0  0  0  0  0  0  0  0  0  0  0
   56.2820   23.5450   44.8300 C   0  0  0  0  0  0  0  0  0  0  0  0
   55.3250   24.4850   45.2350 C   0  0  0  0  0  0  0  0  0  0  0  0
   53.9700   24.1590   45.2280 O   0  0  0  0  0  0  0  0  0  0  0  0
   55.7310   25.7610   45.6530 C   0  0  0  0  0  0  0  0  0  0  0  0
   54.7700   26.6990   46.0150 O   0  0  0  0  0  0  0  0  0  0  0  0
   59.8480   29.4240   48.8530 C   0  0  0  0  0  0  0  0  0  0  0  0
   60.3450   28.4000   47.8590 C   0  0  0  0  0  0  0  0  0  0  0  0
   61.1654   28.2756   51.8160 H   0  0  0  0  0  0  0  0  0  0  0  0
   60.8181   27.2987   50.3491 H   0  0  0  0  0  0  0  0  0  0  0  0
   62.1847   28.4645   50.3491 H   0  0  0  0  0  0  0  0  0  0  0  0
   60.1136   30.2998   52.1666 H   0  0  0  0  0  0  0  0  0  0  0  0
   58.6083   32.1260   51.3999 H   0  0  0  0  0  0  0  0  0  0  0  0
   57.8529   32.2144   49.0317 H   0  0  0  0  0  0  0  0  0  0  0  0
   58.1800   29.6040   46.6580 H   0  0  0  0  0  0  0  0  0  0  0  0
   60.1801   32.5802   47.3892 H   0  0  0  0  0  0  0  0  0  0  0  0
   60.1847   34.6983   46.0804 H   0  0  0  0  0  0  0  0  0  0  0  0
   58.5186   35.0518   44.2610 H   0  0  0  0  0  0  0  0  0  0  0  0
   56.8550   33.2738   43.7296 H   0  0  0  0  0  0  0  0  0  0  0  0
   56.5651   27.8981   43.7389 H   0  0  0  0  0  0  0  0  0  0  0  0
   58.1678   28.4787   43.1661 H   0  0  0  0  0  0  0  0  0  0  0  0
   59.1115   25.4147   45.2277 H   0  0  0  0  0  0  0  0  0  0  0  0
   58.3865   23.1427   44.5054 H   0  0  0  0  0  0  0  0  0  0  0  0
   55.9648   22.5413   44.5107 H   0  0  0  0  0  0  0  0  0  0  0  0
   53.2560   24.8600   45.3880 H   0  0  0  0  0  0  0  0  0  0  0  0
   60.7635   27.5378   48.3990 H   0  0  0  0  0  0  0  0  0  0  0  0
   59.5087   28.0662   47.2272 H   0  0  0  0  0  0  0  0  0  0  0  0
   61.1247   28.8506   47.2272 H   0  0  0  0  0  0  0  0  0  0  0  0
  1  2  1  0
  2  3  2  0
  3  4  1  0
  4  5  2  0
  5  6  1  0
  6  7  1  0
  7  8  1  0
  8  9  2  0
  9 10  1  0
 10 11  2  0
 11 12  1  0
 12 13  2  0
 13 14  1  0
 14 15  1  0
 15 16  2  0
 15 17  1  0
 17 18  1  0
 18 19  1  0
 19 20  2  0
 19 21  1  0
 21 22  2  0
 22 23  1  0
 23 24  2  0
 24 25  1  0
 25 26  1  0
 25 27  2  0
 27 28  1  0
  6 29  2  0
 29 30  1  0
 29  2  1  0
 13  8  1  0
 27 21  1  0
  1 31  1  0
  1 32  1  0
  1 33  1  0
  3 34  1  0
  4 35  1  0
  5 36  1  0
  7 37  1  0
  9 38  1  0
 10 39  1  0
 11 40  1  0
 12 41  1  0
 17 42  1  0
 17 43  1  0
 22 44  1  0
 23 45  1  0
 24 46  1  0
 26 47  1  0
 30 48  1  0
 30 49  1  0
 30 50  1  0
M  CHG  3  14  -1  18  -1  28  -1
M  END
>  <UniqueID>  (56) 
52

>  <SMILES>  (56) 
Cc1cccc(Nc2ccccc2[N-]C(=O)C[N-]C(=O)c2cccc(O)c2[O-])c1C

>  <Energy>  (56) 
68.21580889100512

>  <Genealogy>  (56) 
Cc1cccc(Nc2ccccc2[N-]C(=O)C[N-]C(=O)c2cccc(O)c2[O-])c1C (protonated)
Cc1cccc(Nc2ccccc2[N-]C(=O)C[N-]C(=O)c2cccc(O)c2[O-])c1C (3D coordinates assigned)
Cc1cccc(Nc2ccccc2[N-]C(=O)C[N-]C(=O)c2cccc(O)c2[O-])c1C (optimized conformer: 68.21580889100512 kcal/mol)

>  <smiles>  (56) 
Cc1cccc(Nc2ccccc2NC(=O)CNC(=O)c2cccc(O)c2O)c1C

>  <score_type>  (56) 
oracle

>  <origin>  (56) 
adg

>  <m_score__min__energy>  (56) 
-15.82

>  <m_primary>  (56) 
energy

$$$$
56:0
     RDKit          3D

 69 72  0  0  0  0  0  0  0  0999 V2000
   55.2550   29.0560   44.8370 N   0  0  0  0  0  0  0  0  0  0  0  0
   56.6780   29.0320   44.7570 C   0  0  0  0  0  0  0  0  0  0  0  0
   57.2490   28.1660   44.0430 O   0  0  0  0  0  0  0  0  0  0  0  0
   57.4970   30.0180   45.5450 C   0  0  2  0  0  0  0  0  0  0  0  0
   58.3010   30.9340   44.6040 C   0  0  0  0  0  0  0  0  0  0  0  0
   57.8680   32.3660   44.7210 C   0  0  0  0  0  0  0  0  0  0  0  0
   58.5530   33.4610   44.2510 C   0  0  0  0  0  0  0  0  0  0  0  0
   57.8800   34.5720   44.5940 N   0  0  0  0  0  0  0  0  0  0  0  0
   56.8060   34.1120   45.2700 C   0  0  0  0  0  0  0  0  0  0  0  0
   56.7650   32.7670   45.3750 N   0  0  0  0  0  0  0  0  0  0  0  0
   58.4020   29.3010   46.4490 N   0  0  0  0  0  0  0  0  0  0  0  0
   59.5020   28.5180   45.9570 C   0  0  0  0  0  0  0  0  0  0  0  0
   59.8610   28.6220   44.7510 O   0  0  0  0  0  0  0  0  0  0  0  0
   60.1580   27.4790   46.8330 C   0  0  2  0  0  0  0  0  0  0  0  0
   60.0080   26.0670   46.2320 C   0  0  0  0  0  0  0  0  0  0  0  0
   58.5700   25.6680   45.9930 C   0  0  0  0  0  0  0  0  0  0  0  0
   58.1450   25.2680   44.7150 C   0  0  0  0  0  0  0  0  0  0  0  0
   56.8240   24.8510   44.5090 C   0  0  0  0  0  0  0  0  0  0  0  0
   55.9210   24.8330   45.5760 C   0  0  0  0  0  0  0  0  0  0  0  0
   56.3340   25.2360   46.8490 C   0  0  0  0  0  0  0  0  0  0  0  0
   57.6530   25.6470   47.0600 C   0  0  0  0  0  0  0  0  0  0  0  0
   59.5920   27.5160   48.1840 N   0  0  0  0  0  0  0  0  0  0  0  0
   60.3300   27.6590   49.4040 C   0  0  0  0  0  0  0  0  0  0  0  0
   61.1490   26.7540   49.7250 O   0  0  0  0  0  0  0  0  0  0  0  0
   60.1780   28.8670   50.2970 C   0  0  2  0  0  0  0  0  0  0  0  0
   59.0820   29.7990   49.7440 C   0  0  0  0  0  0  0  0  0  0  0  0
   58.2600   30.4170   50.8390 C   0  0  0  0  0  0  0  0  0  0  0  0
   58.2180   31.7520   51.1590 C   0  0  0  0  0  0  0  0  0  0  0  0
   57.3450   31.9300   52.1660 N   0  0  0  0  0  0  0  0  0  0  0  0
   56.8790   30.6880   52.4230 C   0  0  0  0  0  0  0  0  0  0  0  0
   57.4090   29.7360   51.6270 N   0  0  0  0  0  0  0  0  0  0  0  0
   61.4600   29.5640   50.3610 N   0  0  0  0  0  0  0  0  0  0  0  0
   61.7150   30.8090   49.7040 C   0  0  0  0  0  0  0  0  0  0  0  0
   61.4940   31.8900   50.3170 O   0  0  0  0  0  0  0  0  0  0  0  0
   62.2020   30.8210   48.3950 O   0  0  0  0  0  0  0  0  0  0  0  0
   61.3530   30.9000   47.2530 C   0  0  0  0  0  0  0  0  0  0  0  0
   60.6020   32.1990   47.2950 C   0  0  0  0  0  0  0  0  0  0  0  0
   61.1990   33.3610   46.7800 C   0  0  0  0  0  0  0  0  0  0  0  0
   60.5200   34.5800   46.8280 C   0  0  0  0  0  0  0  0  0  0  0  0
   59.2410   34.6500   47.3890 C   0  0  0  0  0  0  0  0  0  0  0  0
   58.6380   33.4970   47.9010 C   0  0  0  0  0  0  0  0  0  0  0  0
   59.3170   32.2750   47.8590 C   0  0  0  0  0  0  0  0  0  0  0  0
   54.7750   29.3430   45.7190 H   0  0  0  0  0  0  0  0  0  0  0  0
   56.8163   30.6465   46.1380 H   0  0  0  0  0  0  0  0  0  0  0  0
   59.3679   30.8618   44.8618 H   0  0  0  0  0  0  0  0  0  0  0  0
   58.1226   30.6049   43.5696 H   0  0  0  0  0  0  0  0  0  0  0  0
   59.4969   33.4324   43.6869 H   0  0  0  0  0  0  0  0  0  0  0  0
   56.0358   34.7719   45.6957 H   0  0  0  0  0  0  0  0  0  0  0  0
   58.1920   29.2850   47.4740 H   0  0  0  0  0  0  0  0  0  0  0  0
   61.2309   27.7150   46.8894 H   0  0  0  0  0  0  0  0  0  0  0  0
   60.5426   26.0381   45.2711 H   0  0  0  0  0  0  0  0  0  0  0  0
   60.4260   25.3569   46.9607 H   0  0  0  0  0  0  0  0  0  0  0  0
   58.8526   25.2824   43.8729 H   0  0  0  0  0  0  0  0  0  0  0  0
   56.4967   24.5374   43.5067 H   0  0  0  0  0  0  0  0  0  0  0  0
   54.8848   24.5015   45.4136 H   0  0  0  0  0  0  0  0  0  0  0  0
   55.6200   25.2297   47.6858 H   0  0  0  0  0  0  0  0  0  0  0  0
   57.9759   25.9556   48.0652 H   0  0  0  0  0  0  0  0  0  0  0  0
   59.8798   28.5526   51.3081 H   0  0  0  0  0  0  0  0  0  0  0  0
   59.5592   30.6017   49.1626 H   0  0  0  0  0  0  0  0  0  0  0  0
   58.4102   29.1960   49.1154 H   0  0  0  0  0  0  0  0  0  0  0  0
   58.8029   32.5457   50.6712 H   0  0  0  0  0  0  0  0  0  0  0  0
   56.1378   30.4733   53.2069 H   0  0  0  0  0  0  0  0  0  0  0  0
   61.9606   30.8541   46.3372 H   0  0  0  0  0  0  0  0  0  0  0  0
   60.6439   30.0590   47.2566 H   0  0  0  0  0  0  0  0  0  0  0  0
   62.2048   33.3107   46.3374 H   0  0  0  0  0  0  0  0  0  0  0  0
   60.9922   35.4874   46.4236 H   0  0  0  0  0  0  0  0  0  0  0  0
   58.7093   35.6122   47.4275 H   0  0  0  0  0  0  0  0  0  0  0  0
   57.6295   33.5511   48.3369 H   0  0  0  0  0  0  0  0  0  0  0  0
   58.8437   31.3705   48.2687 H   0  0  0  0  0  0  0  0  0  0  0  0
  1  2  1  0
  2  3  2  0
  2  4  1  0
  4  5  1  0
  5  6  1  0
  6  7  2  0
  7  8  1  0
  8  9  1  0
  9 10  2  0
  4 11  1  0
 11 12  1  0
 12 13  2  0
 12 14  1  0
 14 15  1  0
 15 16  1  0
 16 17  2  0
 17 18  1  0
 18 19  2  0
 19 20  1  0
 20 21  2  0
 14 22  1  0
 22 23  1  0
 23 24  2  0
 23 25  1  0
 25 26  1  0
 26 27  1  0
 27 28  2  0
 28 29  1  0
 29 30  1  0
 30 31  2  0
 25 32  1  0
 32 33  1  0
 33 34  2  0
 33 35  1  0
 35 36  1  0
 36 37  1  0
 37 38  2  0
 38 39  1  0
 39 40  2  0
 40 41  1  0
 41 42  2  0
 10  6  1  0
 21 16  1  0
 31 27  1  0
 42 37  1  0
  1 43  1  0
  4 44  1  1
  5 45  1  0
  5 46  1  0
  7 47  1  0
  9 48  1  0
 11 49  1  0
 14 50  1  1
 15 51  1  0
 15 52  1  0
 17 53  1  0
 18 54  1  0
 19 55  1  0
 20 56  1  0
 21 57  1  0
 25 58  1  1
 26 59  1  0
 26 60  1  0
 28 61  1  0
 30 62  1  0
 36 63  1  0
 36 64  1  0
 38 65  1  0
 39 66  1  0
 40 67  1  0
 41 68  1  0
 42 69  1  0
M  CHG  5   1  -1   8  -1  22  -1  29  -1  32  -1
M  END
>  <UniqueID>  (57) 
53

>  <SMILES>  (57) 
[NH-]C(=O)[C@H](Cc1c[n-]cn1)NC(=O)[C@H](Cc1ccccc1)[N-]C(=O)C(Cc1c[n-]cn1)[N-]C(=O)OCc1ccccc1

>  <Energy>  (57) 
111.93087445481724

>  <Genealogy>  (57) 
[NH-]C(=O)C(Cc1c[n-]cn1)NC(=O)C(Cc1ccccc1)[N-]C(=O)C(Cc1c[n-]cn1)[N-]C(=O)OCc1ccccc1 (protonated)
[NH-]C(=O)[C@H](Cc1c[n-]cn1)NC(=O)[C@H](Cc1ccccc1)[N-]C(=O)C(Cc1c[n-]cn1)[N-]C(=O)OCc1ccccc1 (chirality)
[NH-]C(=O)[C@H](Cc1c[n-]cn1)NC(=O)[C@H](Cc1ccccc1)[N-]C(=O)C(Cc1c[n-]cn1)[N-]C(=O)OCc1ccccc1 (3D coordinates assigned)
[NH-]C(=O)[C@H](Cc1c[n-]cn1)NC(=O)[C@H](Cc1ccccc1)[N-]C(=O)C(Cc1c[n-]cn1)[N-]C(=O)OCc1ccccc1 (optimized conformer: 111.93087445481724 kcal/mol)

>  <smiles>  (57) 
NC(=O)C(Cc1c[nH]cn1)NC(=O)C(Cc1ccccc1)NC(=O)C(Cc1c[nH]cn1)NC(=O)OCc1ccccc1

>  <score_type>  (57) 
oracle

>  <origin>  (57) 
adg

>  <m_score__min__energy>  (57) 
-17.210000000000001

>  <m_primary>  (57) 
energy

$$$$
57:0
     RDKit          3D

 46 48  0  0  0  0  0  0  0  0999 V2000
   56.0140   24.3560   44.4710 C   0  0  0  0  0  0  0  0  0  0  0  0
   55.1330   25.0800   45.8350 S   0  0  0  0  0  0  0  0  0  0  0  0
   53.6550   24.9270   45.6080 O   0  0  0  0  0  0  0  0  0  0  0  0
   55.5280   24.3820   47.1060 O   0  0  0  0  0  0  0  0  0  0  0  0
   55.5370   26.7600   45.9410 N   0  0  0  0  0  0  0  0  0  0  0  0
   56.8410   27.2600   45.6270 C   0  0  0  0  0  0  0  0  0  0  0  0
   57.8380   26.4910   45.7020 O   0  0  0  0  0  0  0  0  0  0  0  0
   57.0190   28.6720   45.2140 C   0  0  0  0  0  0  0  0  0  0  0  0
   56.4640   29.1370   44.0090 C   0  0  0  0  0  0  0  0  0  0  0  0
   56.6300   30.4670   43.6220 C   0  0  0  0  0  0  0  0  0  0  0  0
   57.3500   31.3510   44.4270 C   0  0  0  0  0  0  0  0  0  0  0  0
   57.9160   30.9110   45.6360 C   0  0  0  0  0  0  0  0  0  0  0  0
   58.6840   31.8490   46.4930 C   0  0  0  0  0  0  0  0  0  0  0  0
   58.8260   33.1990   46.1280 C   0  0  0  0  0  0  0  0  0  0  0  0
   59.5510   34.0800   46.9330 C   0  0  0  0  0  0  0  0  0  0  0  0
   60.1640   33.6280   48.1120 C   0  0  0  0  0  0  0  0  0  0  0  0
   60.9350   34.5890   48.9950 C   0  0  0  0  0  0  0  0  0  0  0  0
   62.3910   34.3410   49.0680 N   0  0  0  0  0  0  0  0  0  0  0  0
   62.8430   33.5700   50.2260 C   0  0  0  0  0  0  0  0  0  0  0  0
   64.2370   33.0690   49.8750 C   0  0  0  0  0  0  0  0  0  0  0  0
   64.3270   33.1500   48.3550 C   0  0  0  0  0  0  0  0  0  0  0  0
   62.9820   33.6950   47.8970 C   0  0  0  0  0  0  0  0  0  0  0  0
   60.0030   32.2860   48.4930 C   0  0  0  0  0  0  0  0  0  0  0  0
   59.2770   31.4040   47.6880 C   0  0  0  0  0  0  0  0  0  0  0  0
   57.7450   29.5680   46.0220 C   0  0  0  0  0  0  0  0  0  0  0  0
   56.8104   23.7015   44.8549 H   0  0  0  0  0  0  0  0  0  0  0  0
   55.3181   23.7654   43.8571 H   0  0  0  0  0  0  0  0  0  0  0  0
   56.4586   25.1532   43.8571 H   0  0  0  0  0  0  0  0  0  0  0  0
   55.8953   28.4479   43.3673 H   0  0  0  0  0  0  0  0  0  0  0  0
   56.1911   30.8208   42.6774 H   0  0  0  0  0  0  0  0  0  0  0  0
   57.4752   32.3979   44.1135 H   0  0  0  0  0  0  0  0  0  0  0  0
   58.3619   33.5646   45.2001 H   0  0  0  0  0  0  0  0  0  0  0  0
   59.6424   35.1366   46.6409 H   0  0  0  0  0  0  0  0  0  0  0  0
   60.7814   35.6067   48.6069 H   0  0  0  0  0  0  0  0  0  0  0  0
   60.5479   34.4468   50.0148 H   0  0  0  0  0  0  0  0  0  0  0  0
   62.8800   34.2092   51.1205 H   0  0  0  0  0  0  0  0  0  0  0  0
   62.1590   32.7379   50.4493 H   0  0  0  0  0  0  0  0  0  0  0  0
   65.0033   33.7065   50.3402 H   0  0  0  0  0  0  0  0  0  0  0  0
   64.4073   32.0455   50.2404 H   0  0  0  0  0  0  0  0  0  0  0  0
   65.1393   33.8277   48.0535 H   0  0  0  0  0  0  0  0  0  0  0  0
   64.5446   32.1696   47.9061 H   0  0  0  0  0  0  0  0  0  0  0  0
   63.1212   34.4256   47.0866 H   0  0  0  0  0  0  0  0  0  0  0  0
   62.3344   32.8960   47.5069 H   0  0  0  0  0  0  0  0  0  0  0  0
   60.4512   31.9267   49.4311 H   0  0  0  0  0  0  0  0  0  0  0  0
   59.1684   30.3524   47.9918 H   0  0  0  0  0  0  0  0  0  0  0  0
   58.1840   29.2142   46.9665 H   0  0  0  0  0  0  0  0  0  0  0  0
  1  2  1  0
  2  3  2  0
  2  4  2  0
  2  5  1  0
  5  6  1  0
  6  7  2  0
  6  8  1  0
  8  9  2  0
  9 10  1  0
 10 11  2  0
 11 12  1  0
 12 13  1  0
 13 14  2  0
 14 15  1  0
 15 16  2  0
 16 17  1  0
 17 18  1  0
 18 19  1  0
 19 20  1  0
 20 21  1  0
 21 22  1  0
 16 23  1  0
 23 24  2  0
 12 25  2  0
 25  8  1  0
 24 13  1  0
 22 18  1  0
  1 26  1  0
  1 27  1  0
  1 28  1  0
  9 29  1  0
 10 30  1  0
 11 31  1  0
 14 32  1  0
 15 33  1  0
 17 34  1  0
 17 35  1  0
 19 36  1  0
 19 37  1  0
 20 38  1  0
 20 39  1  0
 21 40  1  0
 21 41  1  0
 22 42  1  0
 22 43  1  0
 23 44  1  0
 24 45  1  0
 25 46  1  0
M  CHG  1   5  -1
M  END
>  <UniqueID>  (58) 
54

>  <SMILES>  (58) 
CS(=O)(=O)[N-]C(=O)c1cccc(-c2ccc(CN3CCCC3)cc2)c1

>  <Energy>  (58) 
57.14608905029974

>  <Genealogy>  (58) 
CS(=O)(=O)[N-]C(=O)c1cccc(-c2ccc(CN3CCCC3)cc2)c1 (protonated)
CS(=O)(=O)[N-]C(=O)c1cccc(-c2ccc(CN3CCCC3)cc2)c1 (3D coordinates assigned)
CS(=O)(=O)[N-]C(=O)c1cccc(-c2ccc(CN3CCCC3)cc2)c1 (nonaromatic ring conformer: 57.14608905029974 kcal/mol)

>  <smiles>  (58) 
CS(=O)(=O)NC(=O)c1cccc(-c2ccc(CN3CCCC3)cc2)c1

>  <score_type>  (58) 
oracle

>  <origin>  (58) 
adg

>  <m_score__min__energy>  (58) 
-10.630000000000001

>  <m_primary>  (58) 
energy

$$$$
58:0
     RDKit          3D

 40 41  0  0  0  0  0  0  0  0999 V2000
   64.2000   32.2870   49.1360 C   0  0  0  0  0  0  0  0  0  0  0  0
   63.1250   33.3950   48.2500 S   0  0  0  0  0  0  0  0  0  0  0  0
   63.7270   33.7630   46.9230 O   0  0  0  0  0  0  0  0  0  0  0  0
   62.9470   34.6450   49.0630 O   0  0  0  0  0  0  0  0  0  0  0  0
   61.5720   32.6590   48.0140 N   0  0  0  0  0  0  0  0  0  0  0  0
   60.4890   33.1990   47.2410 C   0  0  0  0  0  0  0  0  0  0  0  0
   60.3090   34.5850   47.0870 C   0  0  0  0  0  0  0  0  0  0  0  0
   59.2490   35.0800   46.3270 C   0  0  0  0  0  0  0  0  0  0  0  0
   58.3530   34.2020   45.7180 C   0  0  0  0  0  0  0  0  0  0  0  0
   58.5000   32.8140   45.8710 C   0  0  0  0  0  0  0  0  0  0  0  0
   57.5920   31.9100   45.2170 N   0  0  0  0  0  0  0  0  0  0  0  0
   57.4500   31.8170   43.7930 C   0  0  0  0  0  0  0  0  0  0  0  0
   58.0140   32.6540   43.0350 O   0  0  0  0  0  0  0  0  0  0  0  0
   56.6300   30.7870   43.2380 N   0  0  0  0  0  0  0  0  0  0  0  0
   56.8550   29.3700   43.5000 C   0  0  0  0  0  0  0  0  0  0  0  0
   56.2110   28.9680   44.8290 C   0  0  0  0  0  0  0  0  0  0  0  0
   56.9150   27.7820   45.4450 C   0  0  0  0  0  0  0  0  0  0  0  0
   58.3190   27.7280   45.4360 C   0  0  0  0  0  0  0  0  0  0  0  0
   58.9890   26.6260   45.9740 C   0  0  0  0  0  0  0  0  0  0  0  0
   58.2640   25.5630   46.5170 C   0  0  0  0  0  0  0  0  0  0  0  0
   56.8670   25.6000   46.5220 C   0  0  0  0  0  0  0  0  0  0  0  0
   56.1890   26.7010   45.9850 C   0  0  0  0  0  0  0  0  0  0  0  0
   54.7990   26.7090   45.9910 O   0  0  0  0  0  0  0  0  0  0  0  0
   59.5820   32.3140   46.6260 C   0  0  0  0  0  0  0  0  0  0  0  0
   59.7910   30.5750   46.8390 Cl  0  0  0  0  0  0  0  0  0  0  0  0
   64.0620   32.4293   50.2180 H   0  0  0  0  0  0  0  0  0  0  0  0
   63.9566   31.2481   48.8688 H   0  0  0  0  0  0  0  0  0  0  0  0
   65.2458   32.4989   48.8688 H   0  0  0  0  0  0  0  0  0  0  0  0
   61.0087   35.2837   47.5690 H   0  0  0  0  0  0  0  0  0  0  0  0
   59.1196   36.1658   46.2078 H   0  0  0  0  0  0  0  0  0  0  0  0
   57.5248   34.5998   45.1132 H   0  0  0  0  0  0  0  0  0  0  0  0
   56.9540   31.3260   45.8020 H   0  0  0  0  0  0  0  0  0  0  0  0
   56.4119   28.7757   42.6873 H   0  0  0  0  0  0  0  0  0  0  0  0
   57.9376   29.1833   43.5555 H   0  0  0  0  0  0  0  0  0  0  0  0
   56.2657   29.8180   45.5250 H   0  0  0  0  0  0  0  0  0  0  0  0
   55.1647   28.6884   44.6366 H   0  0  0  0  0  0  0  0  0  0  0  0
   58.8948   28.5590   45.0024 H   0  0  0  0  0  0  0  0  0  0  0  0
   60.0886   26.5958   45.9698 H   0  0  0  0  0  0  0  0  0  0  0  0
   58.7927   24.6965   46.9408 H   0  0  0  0  0  0  0  0  0  0  0  0
   56.2981   24.7611   46.9493 H   0  0  0  0  0  0  0  0  0  0  0  0
  1  2  1  0
  2  3  2  0
  2  4  2  0
  2  5  1  0
  5  6  1  0
  6  7  2  0
  7  8  1  0
  8  9  2  0
  9 10  1  0
 10 11  1  0
 11 12  1  0
 12 13  2  0
 12 14  1  0
 14 15  1  0
 15 16  1  0
 16 17  1  0
 17 18  2  0
 18 19  1  0
 19 20  2  0
 20 21  1  0
 21 22  2  0
 22 23  1  0
 10 24  2  0
 24 25  1  0
 24  6  1  0
 22 17  1  0
  1 26  1  0
  1 27  1  0
  1 28  1  0
  7 29  1  0
  8 30  1  0
  9 31  1  0
 11 32  1  0
 15 33  1  0
 15 34  1  0
 16 35  1  0
 16 36  1  0
 18 37  1  0
 19 38  1  0
 20 39  1  0
 21 40  1  0
M  CHG  3   5  -1  14  -1  23  -1
M  END
>  <UniqueID>  (59) 
55

>  <SMILES>  (59) 
CS(=O)(=O)[N-]c1cccc(NC(=O)[N-]CCc2ccccc2[O-])c1Cl

>  <Energy>  (59) 
40.20435364195992

>  <Genealogy>  (59) 
CS(=O)(=O)[N-]c1cccc(NC(=O)[N-]CCc2ccccc2[O-])c1Cl (protonated)
CS(=O)(=O)[N-]c1cccc(NC(=O)[N-]CCc2ccccc2[O-])c1Cl (3D coordinates assigned)
CS(=O)(=O)[N-]c1cccc(NC(=O)[N-]CCc2ccccc2[O-])c1Cl (optimized conformer: 40.20435364195992 kcal/mol)

>  <smiles>  (59) 
CS(=O)(=O)Nc1cccc(NC(=O)NCCc2ccccc2O)c1Cl

>  <score_type>  (59) 
oracle

>  <origin>  (59) 
adg

>  <m_score__min__energy>  (59) 
-14.16

>  <m_primary>  (59) 
energy

$$$$
59:0
     RDKit          3D

 23 24  0  0  0  0  0  0  0  0999 V2000
   55.5410   26.0180   45.0290 H   0  0  0  0  0  0  0  0  0  0  0  0
   55.4350   25.7460   45.9990 O   0  0  0  0  0  0  0  0  0  0  0  0
   56.2550   24.7710   46.5550 C   0  0  0  0  0  0  0  0  0  0  0  0
   55.8530   23.8980   47.4940 N   0  0  0  0  0  0  0  0  0  0  0  0
   56.9700   23.1790   47.7270 C   0  0  0  0  0  0  0  0  0  0  0  0
   57.0110   22.2400   48.5640 O   0  0  0  0  0  0  0  0  0  0  0  0
   58.0450   23.5480   46.9970 N   0  0  0  0  0  0  0  0  0  0  0  0
   57.5750   24.5580   46.2390 C   0  0  0  0  0  0  0  0  0  0  0  0
   58.3770   25.3670   45.2980 C   0  0  0  0  0  0  0  0  0  0  0  0
   58.5980   24.9274   44.3142 H   0  0  0  0  0  0  0  0  0  0  0  0
   58.8570   26.5940   45.5470 C   0  0  0  0  0  0  0  0  0  0  0  0
   59.8100   26.6627   46.0920 H   0  0  0  0  0  0  0  0  0  0  0  0
   58.2100   27.8610   45.1490 C   0  0  0  0  0  0  0  0  0  0  0  0
   59.0060   28.9690   44.8260 C   0  0  0  0  0  0  0  0  0  0  0  0
   60.1022   28.8781   44.8383 H   0  0  0  0  0  0  0  0  0  0  0  0
   58.4120   30.1900   44.4880 C   0  0  0  0  0  0  0  0  0  0  0  0
   59.0413   31.0511   44.2188 H   0  0  0  0  0  0  0  0  0  0  0  0
   57.0200   30.3170   44.4920 C   0  0  0  0  0  0  0  0  0  0  0  0
   56.5542   31.2747   44.2166 H   0  0  0  0  0  0  0  0  0  0  0  0
   56.2200   29.2270   44.8460 C   0  0  0  0  0  0  0  0  0  0  0  0
   54.8360   29.3590   44.8650 O   0  0  0  0  0  0  0  0  0  0  0  0
   56.8110   28.0050   45.1830 C   0  0  0  0  0  0  0  0  0  0  0  0
   56.1795   27.1532   45.4758 H   0  0  0  0  0  0  0  0  0  0  0  0
  1  2  1  0
  2  3  1  0
  3  4  1  0
  4  5  1  0
  5  6  2  0
  5  7  1  0
  7  8  1  0
  8  9  1  0
  9 10  1  0
  9 11  2  0
 11 12  1  0
 11 13  1  0
 13 14  2  0
 14 15  1  0
 14 16  1  0
 16 17  1  0
 16 18  2  0
 18 19  1  0
 18 20  1  0
 20 21  1  0
 20 22  2  0
 22 23  1  0
  8  3  2  0
 22 13  1  0
M  CHG  3   4  -1   7  -1  21  -1
M  END
>  <UniqueID>  (60) 
56

>  <SMILES>  (60) 
O=c1[n-]c(O)c(/C=C\c2cccc([O-])c2)[n-]1

>  <Energy>  (60) 
59.58885576298551

>  <Genealogy>  (60) 
O=c1[n-]c(O)c(C=Cc2cccc([O-])c2)[n-]1 (protonated)
O=c1[n-]c(O)c(/C=C\c2cccc([O-])c2)[n-]1 (cis-trans isomerization)
O=c1[n-]c(O)c(/C=C\c2cccc([O-])c2)[n-]1 (3D coordinates assigned)
O=c1[n-]c(O)c(/C=C\c2cccc([O-])c2)[n-]1 (optimized conformer: 59.58885576298551 kcal/mol)

>  <smiles>  (60) 
O=c1[nH]c(O)c(C=Cc2cccc(O)c2)[nH]1

>  <score_type>  (60) 
oracle

>  <origin>  (60) 
adg

>  <m_score__min__energy>  (60) 
-12.890000000000001

>  <m_primary>  (60) 
energy

$$$$
60:0
     RDKit          3D

 45 46  0  0  0  0  0  0  0  0999 V2000
   56.9070   30.8070   43.6480 C   0  0  0  0  0  0  0  0  0  0  0  0
   56.8240   31.4850   44.8970 O   0  0  0  0  0  0  0  0  0  0  0  0
   57.6560   32.5470   45.2860 C   0  0  0  0  0  0  0  0  0  0  0  0
   57.7220   33.7470   44.5470 C   0  0  0  0  0  0  0  0  0  0  0  0
   58.5620   34.7830   44.9590 C   0  0  0  0  0  0  0  0  0  0  0  0
   59.3510   34.6360   46.1000 C   0  0  0  0  0  0  0  0  0  0  0  0
   59.2980   33.4530   46.8380 C   0  0  0  0  0  0  0  0  0  0  0  0
   58.4480   32.4060   46.4440 C   0  0  0  0  0  0  0  0  0  0  0  0
   58.4100   31.1260   47.2420 C   0  0  0  0  0  0  0  0  0  0  0  0
   59.5890   30.3610   47.0040 O   0  0  0  0  0  0  0  0  0  0  0  0
   60.7730   30.5380   47.7280 C   0  0  0  0  0  0  0  0  0  0  0  0
   61.6630   31.3220   47.3050 O   0  0  0  0  0  0  0  0  0  0  0  0
   60.9520   29.8020   48.9930 C   0  0  0  0  0  0  0  0  0  0  0  0
   61.8110   30.2180   49.8120 O   0  0  0  0  0  0  0  0  0  0  0  0
   60.1760   28.6460   49.3460 N   0  0  0  0  0  0  0  0  0  0  0  0
   59.7710   27.5550   48.4640 C   0  0  0  0  0  0  0  0  0  0  0  0
   60.5770   27.5760   47.1600 C   0  0  0  0  0  0  0  0  0  0  0  0
   60.0820   26.4990   46.1900 C   0  0  0  0  0  0  0  0  0  0  0  0
   58.5770   26.4700   46.1490 C   0  0  0  0  0  0  0  0  0  0  0  0
   57.8830   25.2980   46.4860 C   0  0  0  0  0  0  0  0  0  0  0  0
   56.4870   25.2650   46.4250 C   0  0  0  0  0  0  0  0  0  0  0  0
   55.7730   26.3940   46.0100 C   0  0  0  0  0  0  0  0  0  0  0  0
   54.3860   26.3420   45.9470 O   0  0  0  0  0  0  0  0  0  0  0  0
   56.4620   27.5680   45.6580 C   0  0  0  0  0  0  0  0  0  0  0  0
   55.7760   28.7060   45.2350 O   0  0  0  0  0  0  0  0  0  0  0  0
   57.8590   27.6000   45.7280 C   0  0  0  0  0  0  0  0  0  0  0  0
   57.0389   29.7292   43.8239 H   0  0  0  0  0  0  0  0  0  0  0  0
   55.9816   30.9748   43.0775 H   0  0  0  0  0  0  0  0  0  0  0  0
   57.7646   31.1931   43.0775 H   0  0  0  0  0  0  0  0  0  0  0  0
   57.1086   33.8668   43.6418 H   0  0  0  0  0  0  0  0  0  0  0  0
   58.6019   35.7186   44.3819 H   0  0  0  0  0  0  0  0  0  0  0  0
   60.0152   35.4531   46.4181 H   0  0  0  0  0  0  0  0  0  0  0  0
   59.9258   33.3394   47.7341 H   0  0  0  0  0  0  0  0  0  0  0  0
   58.3440   31.3677   48.3131 H   0  0  0  0  0  0  0  0  0  0  0  0
   57.5329   30.5378   46.9344 H   0  0  0  0  0  0  0  0  0  0  0  0
   59.9402   26.5964   48.9763 H   0  0  0  0  0  0  0  0  0  0  0  0
   58.7055   27.6782   48.2200 H   0  0  0  0  0  0  0  0  0  0  0  0
   60.4693   28.5631   46.6866 H   0  0  0  0  0  0  0  0  0  0  0  0
   61.6321   27.3749   47.3975 H   0  0  0  0  0  0  0  0  0  0  0  0
   60.4665   26.7163   45.1825 H   0  0  0  0  0  0  0  0  0  0  0  0
   60.4451   25.5194   46.5343 H   0  0  0  0  0  0  0  0  0  0  0  0
   58.4394   24.4023   46.7992 H   0  0  0  0  0  0  0  0  0  0  0  0
   55.9478   24.3478   46.7044 H   0  0  0  0  0  0  0  0  0  0  0  0
   54.7840   28.8270   45.3980 H   0  0  0  0  0  0  0  0  0  0  0  0
   58.3986   28.5177   45.4510 H   0  0  0  0  0  0  0  0  0  0  0  0
  1  2  1  0
  2  3  1  0
  3  4  2  0
  4  5  1  0
  5  6  2  0
  6  7  1  0
  7  8  2  0
  8  9  1  0
  9 10  1  0
 10 11  1  0
 11 12  2  0
 11 13  1  0
 13 14  2  0
 13 15  1  0
 15 16  1  0
 16 17  1  0
 17 18  1  0
 18 19  1  0
 19 20  2  0
 20 21  1  0
 21 22  2  0
 22 23  1  0
 22 24  1  0
 24 25  1  0
 24 26  2  0
  8  3  1  0
 26 19  1  0
  1 27  1  0
  1 28  1  0
  1 29  1  0
  4 30  1  0
  5 31  1  0
  6 32  1  0
  7 33  1  0
  9 34  1  0
  9 35  1  0
 16 36  1  0
 16 37  1  0
 17 38  1  0
 17 39  1  0
 18 40  1  0
 18 41  1  0
 20 42  1  0
 21 43  1  0
 25 44  1  0
 26 45  1  0
M  CHG  2  15  -1  23  -1
M  END
>  <UniqueID>  (61) 
57

>  <SMILES>  (61) 
COc1ccccc1COC(=O)C(=O)[N-]CCCc1ccc([O-])c(O)c1

>  <Energy>  (61) 
35.67099330394357

>  <Genealogy>  (61) 
COc1ccccc1COC(=O)C(=O)[N-]CCCc1ccc([O-])c(O)c1 (protonated)
COc1ccccc1COC(=O)C(=O)[N-]CCCc1ccc([O-])c(O)c1 (3D coordinates assigned)
COc1ccccc1COC(=O)C(=O)[N-]CCCc1ccc([O-])c(O)c1 (optimized conformer: 35.67099330394357 kcal/mol)

>  <smiles>  (61) 
COc1ccccc1COC(=O)C(=O)NCCCc1ccc(O)c(O)c1

>  <score_type>  (61) 
oracle

>  <origin>  (61) 
adg

>  <m_score__min__energy>  (61) 
-12.619999999999999

>  <m_primary>  (61) 
energy

$$$$
61:0
     RDKit          3D

 41 43  0  0  0  0  0  0  0  0999 V2000
   59.2773   29.9478   47.9085 H   0  0  0  0  0  0  0  0  0  0  0  0
   58.9710   29.4530   46.9750 C   0  0  0  0  0  0  0  0  0  0  0  0
   58.7170   28.1180   46.9700 N   0  0  0  0  0  0  0  0  0  0  0  0
   58.3200   27.4630   45.8430 C   0  0  0  0  0  0  0  0  0  0  0  0
   58.0810   26.1850   45.8610 N   0  0  0  0  0  0  0  0  0  0  0  0
   57.4520   25.4650   46.9680 C   0  0  0  0  0  0  0  0  0  0  0  0
   58.1707   24.7444   47.3854 H   0  0  0  0  0  0  0  0  0  0  0  0
   57.1506   26.1910   47.7375 H   0  0  0  0  0  0  0  0  0  0  0  0
   56.2250   24.7230   46.4910 C   0  0  0  0  0  0  0  0  0  0  0  0
   55.1200   25.4280   45.9830 C   0  0  0  0  0  0  0  0  0  0  0  0
   55.1440   26.8150   45.8960 O   0  0  0  0  0  0  0  0  0  0  0  0
   54.0140   24.7560   45.5720 N   0  0  0  0  0  0  0  0  0  0  0  0
   53.9500   23.4020   45.6420 C   0  0  0  0  0  0  0  0  0  0  0  0
   52.9140   22.8010   45.2560 O   0  0  0  0  0  0  0  0  0  0  0  0
   55.0010   22.6960   46.1290 N   0  0  0  0  0  0  0  0  0  0  0  0
   56.1320   23.3190   46.5520 C   0  0  0  0  0  0  0  0  0  0  0  0
   57.0840   22.6270   46.9980 O   0  0  0  0  0  0  0  0  0  0  0  0
   58.1600   28.1760   44.6500 C   0  0  0  0  0  0  0  0  0  0  0  0
   57.8362   27.6597   43.7342 H   0  0  0  0  0  0  0  0  0  0  0  0
   58.4150   29.5490   44.6320 C   0  0  0  0  0  0  0  0  0  0  0  0
   58.2786   30.1199   43.7017 H   0  0  0  0  0  0  0  0  0  0  0  0
   58.8450   30.2030   45.7980 C   0  0  0  0  0  0  0  0  0  0  0  0
   59.0940   31.6190   45.8270 N   0  0  0  0  0  0  0  0  0  0  0  0
   60.0850   31.9450   45.8930 H   0  0  0  0  0  0  0  0  0  0  0  0
   58.0850   32.6230   45.6600 C   0  0  0  0  0  0  0  0  0  0  0  0
   56.9250   32.3110   45.2730 O   0  0  0  0  0  0  0  0  0  0  0  0
   58.4160   33.9620   45.8870 O   0  0  0  0  0  0  0  0  0  0  0  0
   58.8240   34.4480   47.1620 C   0  0  0  0  0  0  0  0  0  0  0  0
   58.7185   35.5426   47.1888 H   0  0  0  0  0  0  0  0  0  0  0  0
   58.1938   34.0013   47.9451 H   0  0  0  0  0  0  0  0  0  0  0  0
   60.2620   34.0760   47.4000 C   0  0  0  0  0  0  0  0  0  0  0  0
   61.1930   34.1920   46.3530 C   0  0  0  0  0  0  0  0  0  0  0  0
   60.8612   34.5370   45.3626 H   0  0  0  0  0  0  0  0  0  0  0  0
   62.5370   33.8720   46.5620 C   0  0  0  0  0  0  0  0  0  0  0  0
   63.2570   33.9589   45.7349 H   0  0  0  0  0  0  0  0  0  0  0  0
   62.9680   33.4420   47.8190 C   0  0  0  0  0  0  0  0  0  0  0  0
   64.0256   33.1860   47.9799 H   0  0  0  0  0  0  0  0  0  0  0  0
   62.0560   33.3370   48.8720 C   0  0  0  0  0  0  0  0  0  0  0  0
   62.3994   33.0020   49.8619 H   0  0  0  0  0  0  0  0  0  0  0  0
   60.7070   33.6560   48.6740 C   0  0  0  0  0  0  0  0  0  0  0  0
   59.6050   33.5280   50.0420 Cl  0  0  0  0  0  0  0  0  0  0  0  0
  1  2  1  0
  2  3  1  0
  3  4  1  0
  4  5  2  0
  5  6  1  0
  6  7  1  0
  6  8  1  0
  6  9  1  0
  9 10  2  0
 10 11  1  0
 10 12  1  0
 12 13  1  0
 13 14  2  0
 13 15  1  0
 15 16  1  0
 16 17  2  0
  4 18  1  0
 18 19  1  0
 18 20  2  0
 20 21  1  0
 20 22  1  0
 22 23  1  0
 23 24  1  0
 23 25  1  0
 25 26  2  0
 25 27  1  0
 27 28  1  0
 28 29  1  0
 28 30  1  0
 28 31  1  0
 31 32  2  0
 32 33  1  0
 32 34  1  0
 34 35  1  0
 34 36  2  0
 36 37  1  0
 36 38  1  0
 38 39  1  0
 38 40  2  0
 40 41  1  0
 22  2  2  0
 40 31  1  0
 16  9  1  0
M  CHG  4   3  -1  11  -1  12  -1  15  -1
M  END
>  <UniqueID>  (62) 
58

>  <SMILES>  (62) 
O=C(Nc1cc/c(=N/Cc2c([O-])[n-]c(=O)[n-]c2=O)[n-]c1)OCc1ccccc1Cl

>  <Energy>  (62) 
48.750465469608336

>  <Genealogy>  (62) 
O=C(Nc1ccc(=NCc2c([O-])[n-]c(=O)[n-]c2=O)[n-]c1)OCc1ccccc1Cl (protonated)
O=C(Nc1cc/c(=N/Cc2c([O-])[n-]c(=O)[n-]c2=O)[n-]c1)OCc1ccccc1Cl (cis-trans isomerization)
O=C(Nc1cc/c(=N/Cc2c([O-])[n-]c(=O)[n-]c2=O)[n-]c1)OCc1ccccc1Cl (3D coordinates assigned)
O=C(Nc1cc/c(=N/Cc2c([O-])[n-]c(=O)[n-]c2=O)[n-]c1)OCc1ccccc1Cl (optimized conformer: 48.750465469608336 kcal/mol)

>  <smiles>  (62) 
O=C(Nc1ccc(=NCc2c(O)[nH]c(=O)[nH]c2=O)[nH]c1)OCc1ccccc1Cl

>  <score_type>  (62) 
oracle

>  <origin>  (62) 
adg

>  <m_score__min__energy>  (62) 
-17.100000000000001

>  <m_primary>  (62) 
energy

$$$$
62:0
     RDKit          3D

 44 46  0  0  0  0  0  0  0  0999 V2000
   55.6000   30.1350   44.8840 O   0  0  0  0  0  0  0  0  0  0  0  0
   56.8110   30.2400   44.5470 C   0  0  0  0  0  0  0  0  0  0  0  0
   57.2590   29.6390   43.2350 C   0  0  0  0  0  0  0  0  0  0  0  0
   57.4260   28.1100   43.3090 C   0  0  0  0  0  0  0  0  0  0  0  0
   57.9270   27.6410   44.6620 C   0  0  0  0  0  0  0  0  0  0  0  0
   59.3190   27.5300   44.8510 C   0  0  0  0  0  0  0  0  0  0  0  0
   59.8460   27.1100   46.0770 C   0  0  0  0  0  0  0  0  0  0  0  0
   58.9900   26.8030   47.1360 C   0  0  0  0  0  0  0  0  0  0  0  0
   57.6050   26.9000   46.9670 C   0  0  0  0  0  0  0  0  0  0  0  0
   57.0590   27.3030   45.7370 C   0  0  0  0  0  0  0  0  0  0  0  0
   55.6640   27.3380   45.6300 O   0  0  0  0  0  0  0  0  0  0  0  0
   57.7240   30.9570   45.4060 N   0  0  0  0  0  0  0  0  0  0  0  0
   58.1920   30.3630   46.6720 C   0  0  0  0  0  0  0  0  0  0  0  0
   59.5650   30.8600   47.0320 C   0  0  0  0  0  0  0  0  0  0  0  0
   59.9230   32.1260   46.7700 C   0  0  0  0  0  0  0  0  0  0  0  0
   61.2490   32.6430   47.1960 C   0  0  0  0  0  0  0  0  0  0  0  0
   61.8410   32.2030   48.3960 C   0  0  0  0  0  0  0  0  0  0  0  0
   63.1080   32.6660   48.7730 C   0  0  0  0  0  0  0  0  0  0  0  0
   63.7930   33.5770   47.9640 C   0  0  0  0  0  0  0  0  0  0  0  0
   63.2090   34.0320   46.7790 C   0  0  0  0  0  0  0  0  0  0  0  0
   61.9470   33.5680   46.3930 C   0  0  0  0  0  0  0  0  0  0  0  0
   58.9130   33.0340   46.1120 C   0  0  0  0  0  0  0  0  0  0  0  0
   58.1840   32.2920   44.9820 C   0  0  0  0  0  0  0  0  0  0  0  0
   56.5090   29.8744   42.4656 H   0  0  0  0  0  0  0  0  0  0  0  0
   58.2412   30.0694   42.9901 H   0  0  0  0  0  0  0  0  0  0  0  0
   56.4514   27.6395   43.1121 H   0  0  0  0  0  0  0  0  0  0  0  0
   58.1761   27.8208   42.5582 H   0  0  0  0  0  0  0  0  0  0  0  0
   60.0004   27.7769   44.0235 H   0  0  0  0  0  0  0  0  0  0  0  0
   60.9348   27.0217   46.2064 H   0  0  0  0  0  0  0  0  0  0  0  0
   59.4049   26.4847   48.1038 H   0  0  0  0  0  0  0  0  0  0  0  0
   56.9362   26.6582   47.8061 H   0  0  0  0  0  0  0  0  0  0  0  0
   55.1040   28.1760   45.7450 H   0  0  0  0  0  0  0  0  0  0  0  0
   57.4908   30.6327   47.4755 H   0  0  0  0  0  0  0  0  0  0  0  0
   58.2387   29.2710   46.5477 H   0  0  0  0  0  0  0  0  0  0  0  0
   60.2820   30.1794   47.5144 H   0  0  0  0  0  0  0  0  0  0  0  0
   61.3049   31.4913   49.0411 H   0  0  0  0  0  0  0  0  0  0  0  0
   63.5653   32.3116   49.7086 H   0  0  0  0  0  0  0  0  0  0  0  0
   64.7901   33.9351   48.2597 H   0  0  0  0  0  0  0  0  0  0  0  0
   63.7432   34.7573   46.1477 H   0  0  0  0  0  0  0  0  0  0  0  0
   61.4960   33.9274   45.4563 H   0  0  0  0  0  0  0  0  0  0  0  0
   58.1790   33.3638   46.8620 H   0  0  0  0  0  0  0  0  0  0  0  0
   59.4368   33.9038   45.6887 H   0  0  0  0  0  0  0  0  0  0  0  0
   57.3120   32.8862   44.6714 H   0  0  0  0  0  0  0  0  0  0  0  0
   58.8914   32.1597   44.1501 H   0  0  0  0  0  0  0  0  0  0  0  0
  1  2  2  0
  2  3  1  0
  3  4  1  0
  4  5  1  0
  5  6  2  0
  6  7  1  0
  7  8  2  0
  8  9  1  0
  9 10  2  0
 10 11  1  0
  2 12  1  0
 12 13  1  0
 13 14  1  0
 14 15  2  0
 15 16  1  0
 16 17  2  0
 17 18  1  0
 18 19  2  0
 19 20  1  0
 20 21  2  0
 15 22  1  0
 22 23  1  0
 10  5  1  0
 23 12  1  0
 21 16  1  0
  3 24  1  0
  3 25  1  0
  4 26  1  0
  4 27  1  0
  6 28  1  0
  7 29  1  0
  8 30  1  0
  9 31  1  0
 11 32  1  0
 13 33  1  0
 13 34  1  0
 14 35  1  0
 17 36  1  0
 18 37  1  0
 19 38  1  0
 20 39  1  0
 21 40  1  0
 22 41  1  0
 22 42  1  0
 23 43  1  0
 23 44  1  0
M  END
>  <UniqueID>  (63) 
59

>  <SMILES>  (63) 
O=C(CCc1ccccc1O)N1CC=C(c2ccccc2)CC1

>  <Energy>  (63) 
54.0829055740809

>  <Genealogy>  (63) 
O=C(CCc1ccccc1O)N1CC=C(c2ccccc2)CC1 (3D coordinates assigned)
O=C(CCc1ccccc1O)N1CC=C(c2ccccc2)CC1 (nonaromatic ring conformer: 54.0829055740809 kcal/mol)

>  <smiles>  (63) 
O=C(CCc1ccccc1O)N1CC=C(c2ccccc2)CC1

>  <score_type>  (63) 
oracle

>  <origin>  (63) 
adg

>  <m_score__min__energy>  (63) 
-9.25

>  <m_primary>  (63) 
energy

$$$$
63:0
     RDKit          3D

 44 48  0  0  0  0  0  0  0  0999 V2000
   55.8980   30.2110   44.4970 O   0  0  0  0  0  0  0  0  0  0  0  0
   56.8810   30.9970   44.5380 C   0  0  0  0  0  0  0  0  0  0  0  0
   58.2060   30.4700   44.1780 C   0  0  0  0  0  0  0  0  0  0  0  0
   58.9760   30.1350   45.3630 N   0  0  0  0  0  0  0  0  0  0  0  0
   59.8660   30.8810   46.0390 C   0  0  0  0  0  0  0  0  0  0  0  0
   60.3430   30.1380   47.1010 C   0  0  0  0  0  0  0  0  0  0  0  0
   61.3210   30.5090   48.1190 C   0  0  0  0  0  0  0  0  0  0  0  0
   61.5180   29.7650   49.1170 O   0  0  0  0  0  0  0  0  0  0  0  0
   62.0910   31.7400   48.0110 C   0  0  0  0  0  0  0  0  0  0  0  0
   63.2260   31.8930   47.2480 C   0  0  0  0  0  0  0  0  0  0  0  0
   63.6410   33.1960   47.4230 C   0  0  0  0  0  0  0  0  0  0  0  0
   62.7220   33.7680   48.2940 C   0  0  0  0  0  0  0  0  0  0  0  0
   61.8080   32.8820   48.6310 O   0  0  0  0  0  0  0  0  0  0  0  0
   59.7180   28.8960   47.0630 C   0  0  0  0  0  0  0  0  0  0  0  0
   59.7720   27.7530   47.8310 C   0  0  0  0  0  0  0  0  0  0  0  0
   59.0230   26.6540   47.5500 C   0  0  0  0  0  0  0  0  0  0  0  0
   58.1720   26.6670   46.4580 C   0  0  0  0  0  0  0  0  0  0  0  0
   58.1230   27.8050   45.6990 C   0  0  0  0  0  0  0  0  0  0  0  0
   58.8750   28.9350   45.9680 C   0  0  0  0  0  0  0  0  0  0  0  0
   56.6390   32.3000   44.9210 O   0  0  0  0  0  0  0  0  0  0  0  0
   57.6460   33.1630   45.3470 C   0  0  0  0  0  0  0  0  0  0  0  0
   58.2100   34.0860   44.4980 C   0  0  0  0  0  0  0  0  0  0  0  0
   59.2180   34.9510   44.9180 C   0  0  0  0  0  0  0  0  0  0  0  0
   59.6660   34.8820   46.2340 C   0  0  0  0  0  0  0  0  0  0  0  0
   59.1130   33.9670   47.0920 C   0  0  0  0  0  0  0  0  0  0  0  0
   59.3800   33.7230   48.3740 N   0  0  0  0  0  0  0  0  0  0  0  0
   58.5620   32.7270   48.7600 C   0  0  0  0  0  0  0  0  0  0  0  0
   57.7850   32.3470   47.7210 N   0  0  0  0  0  0  0  0  0  0  0  0
   58.1220   33.1230   46.6590 C   0  0  0  0  0  0  0  0  0  0  0  0
   58.0783   29.5655   43.5651 H   0  0  0  0  0  0  0  0  0  0  0  0
   58.7489   31.2446   43.6165 H   0  0  0  0  0  0  0  0  0  0  0  0
   60.1643   31.9098   45.7888 H   0  0  0  0  0  0  0  0  0  0  0  0
   63.7071   31.1270   46.6221 H   0  0  0  0  0  0  0  0  0  0  0  0
   64.5169   33.6815   46.9680 H   0  0  0  0  0  0  0  0  0  0  0  0
   62.7533   34.8084   48.6499 H   0  0  0  0  0  0  0  0  0  0  0  0
   60.4443   27.7292   48.7013 H   0  0  0  0  0  0  0  0  0  0  0  0
   59.0926   25.7596   48.1865 H   0  0  0  0  0  0  0  0  0  0  0  0
   57.5552   25.7911   46.2084 H   0  0  0  0  0  0  0  0  0  0  0  0
   57.4501   27.8222   44.8290 H   0  0  0  0  0  0  0  0  0  0  0  0
   57.8554   34.1429   43.4583 H   0  0  0  0  0  0  0  0  0  0  0  0
   59.6543   35.6793   44.2185 H   0  0  0  0  0  0  0  0  0  0  0  0
   60.4599   35.5583   46.5838 H   0  0  0  0  0  0  0  0  0  0  0  0
   60.0790   34.1890   48.9990 H   0  0  0  0  0  0  0  0  0  0  0  0
   58.5302   32.2883   49.7682 H   0  0  0  0  0  0  0  0  0  0  0  0
  1  2  2  0
  2  3  1  0
  3  4  1  0
  4  5  1  0
  5  6  2  0
  6  7  1  0
  7  8  2  0
  7  9  1  0
  9 10  2  0
 10 11  1  0
 11 12  2  0
 12 13  1  0
  6 14  1  0
 14 15  2  0
 15 16  1  0
 16 17  2  0
 17 18  1  0
 18 19  2  0
  2 20  1  0
 20 21  1  0
 21 22  2  0
 22 23  1  0
 23 24  2  0
 24 25  1  0
 25 26  1  0
 26 27  1  0
 27 28  2  0
 28 29  1  0
 19  4  1  0
 29 21  1  0
 13  9  1  0
 19 14  1  0
 29 25  2  0
  3 30  1  0
  3 31  1  0
  5 32  1  0
 10 33  1  0
 11 34  1  0
 12 35  1  0
 15 36  1  0
 16 37  1  0
 17 38  1  0
 18 39  1  0
 22 40  1  0
 23 41  1  0
 24 42  1  0
 26 43  1  0
 27 44  1  0
M  END
>  <smiles>  (64) 
O=C(Cn1cc(C(=O)c2ccco2)c2ccccc21)Oc1cccc2[nH]cnc12

>  <score_type>  (64) 
oracle

>  <origin>  (64) 
adg

>  <m_score__min__energy>  (64) 
-8.9800000000000004

>  <m_primary>  (64) 
energy

$$$$
64:0
     RDKit          3D

 56 58  0  0  0  0  0  0  0  0999 V2000
   57.4950   25.0520   47.5010 C   0  0  0  0  0  0  0  0  0  0  0  0
   57.8180   26.2900   47.1100 C   0  0  0  0  0  0  0  0  0  0  0  0
   59.0370   26.9690   47.6770 C   0  0  0  0  0  0  0  0  0  0  0  0
   59.6890   27.8830   46.6330 C   0  0  0  0  0  0  0  0  0  0  0  0
   58.6930   28.8480   46.0220 C   0  0  0  0  0  0  0  0  0  0  0  0
   59.1160   30.1260   45.5980 C   0  0  0  0  0  0  0  0  0  0  0  0
   60.4460   30.5130   45.7830 O   0  0  0  0  0  0  0  0  0  0  0  0
   60.8760   31.1380   46.9880 C   0  0  0  0  0  0  0  0  0  0  0  0
   59.8330   32.1120   47.4600 C   0  0  0  0  0  0  0  0  0  0  0  0
   59.9970   33.4540   47.4590 C   0  0  0  0  0  0  0  0  0  0  0  0
   60.6700   34.1680   46.3130 C   0  0  0  0  0  0  0  0  0  0  0  0
   59.4900   34.2580   48.6390 C   0  0  0  0  0  0  0  0  0  0  0  0
   59.8390   33.5540   49.9620 C   0  0  0  0  0  0  0  0  0  0  0  0
   58.7550   32.5730   50.4440 C   0  0  2  0  0  0  0  0  0  0  0  0
   58.5920   32.5640   51.9760 C   0  0  0  0  0  0  0  0  0  0  0  0
   57.5470   31.5200   52.3930 C   0  0  1  0  0  0  0  0  0  0  0  0
   56.2970   31.8490   51.8420 O   0  0  0  0  0  0  0  0  0  0  0  0
   57.9790   30.1140   51.9410 C   0  0  0  0  0  0  0  0  0  0  0  0
   58.4850   30.1050   50.5240 C   0  0  0  0  0  0  0  0  0  0  0  0
   58.5300   29.0190   49.8900 O   0  0  0  0  0  0  0  0  0  0  0  0
   59.0150   31.2610   49.9420 O   0  0  0  0  0  0  0  0  0  0  0  0
   58.2010   31.0100   44.9960 C   0  0  0  0  0  0  0  0  0  0  0  0
   58.6320   32.3810   44.5520 C   0  0  0  0  0  0  0  0  0  0  0  0
   56.8860   30.5880   44.7630 C   0  0  0  0  0  0  0  0  0  0  0  0
   56.4650   29.3140   45.1460 C   0  0  0  0  0  0  0  0  0  0  0  0
   55.1450   28.9480   44.9020 O   0  0  0  0  0  0  0  0  0  0  0  0
   57.3630   28.4280   45.7750 C   0  0  0  0  0  0  0  0  0  0  0  0
   56.9440   27.0660   46.1990 C   0  0  0  0  0  0  0  0  0  0  0  0
   55.8620   26.5680   45.7850 O   0  0  0  0  0  0  0  0  0  0  0  0
   56.6041   24.5587   47.0851 H   0  0  0  0  0  0  0  0  0  0  0  0
   58.1203   24.5274   48.2384 H   0  0  0  0  0  0  0  0  0  0  0  0
   58.7411   27.5714   48.5486 H   0  0  0  0  0  0  0  0  0  0  0  0
   59.7638   26.1978   47.9720 H   0  0  0  0  0  0  0  0  0  0  0  0
   60.4910   28.4596   47.1171 H   0  0  0  0  0  0  0  0  0  0  0  0
   60.0860   27.2487   45.8267 H   0  0  0  0  0  0  0  0  0  0  0  0
   61.0346   30.3708   47.7602 H   0  0  0  0  0  0  0  0  0  0  0  0
   61.8163   31.6771   46.8006 H   0  0  0  0  0  0  0  0  0  0  0  0
   58.8784   31.7084   47.8286 H   0  0  0  0  0  0  0  0  0  0  0  0
   61.3739   34.9148   46.7090 H   0  0  0  0  0  0  0  0  0  0  0  0
   61.2170   33.4389   45.6972 H   0  0  0  0  0  0  0  0  0  0  0  0
   59.9098   34.6709   45.6972 H   0  0  0  0  0  0  0  0  0  0  0  0
   59.9564   35.2541   48.6252 H   0  0  0  0  0  0  0  0  0  0  0  0
   58.3965   34.3496   48.5630 H   0  0  0  0  0  0  0  0  0  0  0  0
   60.7760   32.9951   49.8216 H   0  0  0  0  0  0  0  0  0  0  0  0
   59.9291   34.3369   50.7294 H   0  0  0  0  0  0  0  0  0  0  0  0
   57.7954   32.9259   50.0383 H   0  0  0  0  0  0  0  0  0  0  0  0
   59.5573   32.3179   52.4424 H   0  0  0  0  0  0  0  0  0  0  0  0
   58.2571   33.5582   52.3066 H   0  0  0  0  0  0  0  0  0  0  0  0
   57.4646   31.5193   53.4899 H   0  0  0  0  0  0  0  0  0  0  0  0
   56.4390   31.9840   50.8690 H   0  0  0  0  0  0  0  0  0  0  0  0
   58.7799   29.7583   52.6058 H   0  0  0  0  0  0  0  0  0  0  0  0
   57.0981   29.4571   51.9900 H   0  0  0  0  0  0  0  0  0  0  0  0
   58.8289   33.0072   45.4346 H   0  0  0  0  0  0  0  0  0  0  0  0
   59.5480   32.2998   43.9483 H   0  0  0  0  0  0  0  0  0  0  0  0
   57.8344   32.8385   43.9483 H   0  0  0  0  0  0  0  0  0  0  0  0
   56.1760   31.2696   44.2718 H   0  0  0  0  0  0  0  0  0  0  0  0
  1  2  2  0
  2  3  1  0
  3  4  1  0
  4  5  1  0
  5  6  2  0
  6  7  1  0
  7  8  1  0
  8  9  1  0
  9 10  2  3
 10 11  1  0
 10 12  1  0
 12 13  1  0
 13 14  1  0
 14 15  1  0
 15 16  1  0
 16 17  1  0
 16 18  1  0
 18 19  1  0
 19 20  2  0
 19 21  1  0
  6 22  1  0
 22 23  1  0
 22 24  2  0
 24 25  1  0
 25 26  1  0
 25 27  2  0
 27 28  1  0
 28 29  2  0
 28  2  1  0
 27  5  1  0
 21 14  1  0
  1 30  1  0
  1 31  1  0
  3 32  1  0
  3 33  1  0
  4 34  1  0
  4 35  1  0
  8 36  1  0
  8 37  1  0
  9 38  1  0
 11 39  1  0
 11 40  1  0
 11 41  1  0
 12 42  1  0
 12 43  1  0
 13 44  1  0
 13 45  1  0
 14 46  1  6
 15 47  1  0
 15 48  1  0
 16 49  1  1
 17 50  1  0
 18 51  1  0
 18 52  1  0
 23 53  1  0
 23 54  1  0
 23 55  1  0
 24 56  1  0
M  CHG  1  26  -1
M  END
>  <UniqueID>  (65) 
60

>  <SMILES>  (65) 
C=C1CCc2c(OCC=C(C)CC[C@@H]3C[C@@H](O)CC(=O)O3)c(C)cc([O-])c2C1=O

>  <Energy>  (65) 
57.322607994462025

>  <Genealogy>  (65) 
C=C1CCc2c(OCC=C(C)CCC3CC(O)CC(=O)O3)c(C)cc([O-])c2C1=O (protonated)
C=C1CCc2c(OCC=C(C)CC[C@@H]3C[C@@H](O)CC(=O)O3)c(C)cc([O-])c2C1=O (chirality)
C=C1CCc2c(OCC=C(C)CC[C@@H]3C[C@@H](O)CC(=O)O3)c(C)cc([O-])c2C1=O (3D coordinates assigned)
C=C1CCc2c(OCC=C(C)CC[C@@H]3C[C@@H](O)CC(=O)O3)c(C)cc([O-])c2C1=O (nonaromatic ring conformer: 57.322607994462025 kcal/mol)

>  <smiles>  (65) 
C=C1CCc2c(OCC=C(C)CCC3CC(O)CC(=O)O3)c(C)cc(O)c2C1=O

>  <score_type>  (65) 
oracle

>  <origin>  (65) 
adg

>  <m_score__min__energy>  (65) 
-11.66

>  <m_primary>  (65) 
energy

$$$$
65:0
     RDKit          3D

 38 39  0  0  0  0  0  0  0  0999 V2000
   61.6300   32.5670   47.9040 C   0  0  0  0  0  0  0  0  0  0  0  0
   61.4830   31.7630   49.0720 O   0  0  0  0  0  0  0  0  0  0  0  0
   60.4130   31.8650   49.9760 C   0  0  0  0  0  0  0  0  0  0  0  0
   59.6040   30.7620   50.3090 C   0  0  0  0  0  0  0  0  0  0  0  0
   58.5410   30.9060   51.2130 C   0  0  0  0  0  0  0  0  0  0  0  0
   57.7040   29.7120   51.5960 C   0  0  0  0  0  0  0  0  0  0  0  0
   56.7170   30.0810   52.7010 C   0  0  0  0  0  0  0  0  0  0  0  0
   55.5430   30.7140   52.1130 N   0  0  0  0  0  0  0  0  0  0  0  0
   54.2010   30.2200   52.2250 C   0  0  0  0  0  0  0  0  0  0  0  0
   54.0050   28.9760   52.1530 O   0  0  0  0  0  0  0  0  0  0  0  0
   53.0230   31.1270   52.4510 C   0  0  0  0  0  0  0  0  0  0  0  0
   52.2120   31.2420   51.1960 C   0  0  0  0  0  0  0  0  0  0  0  0
   52.2190   30.3220   50.2130 N   0  0  0  0  0  0  0  0  0  0  0  0
   51.3180   30.8060   49.3300 C   0  0  0  0  0  0  0  0  0  0  0  0
   51.0370   30.2120   48.2550 O   0  0  0  0  0  0  0  0  0  0  0  0
   50.7340   31.9700   49.6930 N   0  0  0  0  0  0  0  0  0  0  0  0
   51.3110   32.2320   50.8780 C   0  0  0  0  0  0  0  0  0  0  0  0
   51.0200   33.3530   51.6480 O   0  0  0  0  0  0  0  0  0  0  0  0
   58.2990   32.1550   51.8040 C   0  0  0  0  0  0  0  0  0  0  0  0
   59.0980   33.2670   51.4790 C   0  0  0  0  0  0  0  0  0  0  0  0
   58.8820   34.5350   52.0430 O   0  0  0  0  0  0  0  0  0  0  0  0
   58.8860   34.8060   53.4420 C   0  0  0  0  0  0  0  0  0  0  0  0
   60.1500   33.1120   50.5640 C   0  0  0  0  0  0  0  0  0  0  0  0
   60.9440   34.2080   50.2370 O   0  0  0  0  0  0  0  0  0  0  0  0
   61.8206   33.6096   48.1982 H   0  0  0  0  0  0  0  0  0  0  0  0
   62.4749   32.1943   47.3063 H   0  0  0  0  0  0  0  0  0  0  0  0
   60.7079   32.5174   47.3063 H   0  0  0  0  0  0  0  0  0  0  0  0
   59.8069   29.7799   49.8570 H   0  0  0  0  0  0  0  0  0  0  0  0
   57.1461   29.3636   50.7143 H   0  0  0  0  0  0  0  0  0  0  0  0
   58.3682   28.9163   51.9644 H   0  0  0  0  0  0  0  0  0  0  0  0
   56.4122   29.1713   53.2390 H   0  0  0  0  0  0  0  0  0  0  0  0
   57.1968   30.7790   53.4029 H   0  0  0  0  0  0  0  0  0  0  0  0
   52.3945   30.7136   53.2535 H   0  0  0  0  0  0  0  0  0  0  0  0
   53.3871   32.1249   52.7365 H   0  0  0  0  0  0  0  0  0  0  0  0
   57.4779   32.2662   52.5275 H   0  0  0  0  0  0  0  0  0  0  0  0
   58.8720   33.8577   53.9992 H   0  0  0  0  0  0  0  0  0  0  0  0
   59.7926   35.3715   53.7034 H   0  0  0  0  0  0  0  0  0  0  0  0
   57.9965   35.3980   53.7034 H   0  0  0  0  0  0  0  0  0  0  0  0
  1  2  1  0
  2  3  1  0
  3  4  2  0
  4  5  1  0
  5  6  1  0
  6  7  1  0
  7  8  1  0
  8  9  1  0
  9 10  2  0
  9 11  1  0
 11 12  1  0
 12 13  1  0
 13 14  1  0
 14 15  2  0
 14 16  1  0
 16 17  1  0
 17 18  1  0
  5 19  2  0
 19 20  1  0
 20 21  1  0
 21 22  1  0
 20 23  2  0
 23 24  1  0
 23  3  1  0
 17 12  2  0
  1 25  1  0
  1 26  1  0
  1 27  1  0
  4 28  1  0
  6 29  1  0
  6 30  1  0
  7 31  1  0
  7 32  1  0
 11 33  1  0
 11 34  1  0
 19 35  1  0
 22 36  1  0
 22 37  1  0
 22 38  1  0
M  CHG  5   8  -1  13  -1  16  -1  18  -1  24  -1
M  END
>  <UniqueID>  (66) 
61

>  <SMILES>  (66) 
COc1cc(CC[N-]C(=O)Cc2[n-]c(=O)[n-]c2[O-])cc(OC)c1[O-]

>  <Energy>  (66) 
60.26990896253548

>  <Genealogy>  (66) 
COc1cc(CC[N-]C(=O)Cc2[n-]c(=O)[n-]c2[O-])cc(OC)c1[O-] (protonated)
COc1cc(CC[N-]C(=O)Cc2[n-]c(=O)[n-]c2[O-])cc(OC)c1[O-] (3D coordinates assigned)
COc1cc(CC[N-]C(=O)Cc2[n-]c(=O)[n-]c2[O-])cc(OC)c1[O-] (optimized conformer: 60.26990896253548 kcal/mol)

>  <smiles>  (66) 
COc1cc(CCNC(=O)Cc2[nH]c(=O)[nH]c2O)cc(OC)c1O

>  <score_type>  (66) 
oracle

>  <origin>  (66) 
adg

>  <m_score__min__energy>  (66) 
-16.359999999999999

>  <m_primary>  (66) 
energy

$$$$
66:0
     RDKit          3D

 52 55  0  0  0  0  0  0  0  0999 V2000
   60.3887   26.6732   46.6366 H   0  0  0  0  0  0  0  0  0  0  0  0
   59.2950   26.7190   46.5280 C   0  0  0  0  0  0  0  0  0  0  0  0
   58.6990   27.8770   46.1420 N   0  0  0  0  0  0  0  0  0  0  0  0
   57.3510   27.9980   45.9960 C   0  0  0  0  0  0  0  0  0  0  0  0
   56.8850   29.1590   45.6300 N   0  0  0  0  0  0  0  0  0  0  0  0
   57.4580   30.1120   44.7200 C   0  0  0  0  0  0  0  0  0  0  0  0
   57.5990   29.8060   43.5040 O   0  0  0  0  0  0  0  0  0  0  0  0
   57.7860   31.4810   45.1830 C   0  0  0  0  0  0  0  0  0  0  0  0
   56.9530   32.5680   44.8570 C   0  0  0  0  0  0  0  0  0  0  0  0
   56.0460   32.4008   44.2576 H   0  0  0  0  0  0  0  0  0  0  0  0
   57.2710   33.8580   45.2900 C   0  0  0  0  0  0  0  0  0  0  0  0
   56.6155   34.7016   45.0280 H   0  0  0  0  0  0  0  0  0  0  0  0
   58.4180   34.0790   46.0540 C   0  0  0  0  0  0  0  0  0  0  0  0
   58.6643   35.0961   46.3929 H   0  0  0  0  0  0  0  0  0  0  0  0
   59.2560   33.0080   46.3900 C   0  0  0  0  0  0  0  0  0  0  0  0
   60.6990   33.2740   47.3620 S   0  0  0  0  0  0  0  0  0  0  0  0
   60.6270   34.5950   48.0770 O   0  0  0  0  0  0  0  0  0  0  0  0
   61.9020   33.2710   46.4610 O   0  0  0  0  0  0  0  0  0  0  0  0
   60.8560   32.0010   48.5340 N   0  0  0  0  0  0  0  0  0  0  0  0
   61.7640   31.4860   48.5520 H   0  0  0  0  0  0  0  0  0  0  0  0
   59.7990   31.5880   49.4190 C   0  0  0  0  0  0  0  0  0  0  0  0
   59.0210   32.5120   50.1340 C   0  0  0  0  0  0  0  0  0  0  0  0
   59.2076   33.5894   50.0137 H   0  0  0  0  0  0  0  0  0  0  0  0
   58.0120   32.0770   50.9970 C   0  0  0  0  0  0  0  0  0  0  0  0
   57.4103   32.8194   51.5418 H   0  0  0  0  0  0  0  0  0  0  0  0
   57.7500   30.7000   51.1830 C   0  0  0  0  0  0  0  0  0  0  0  0
   56.7100   30.2440   52.1040 N   0  0  0  0  0  0  0  0  0  0  0  0
   55.3370   30.7770   51.9700 C   0  0  0  0  0  0  0  0  0  0  0  0
   55.3854   31.8754   52.0040 H   0  0  0  0  0  0  0  0  0  0  0  0
   54.9383   30.4055   51.0145 H   0  0  0  0  0  0  0  0  0  0  0  0
   54.3850   30.3000   53.0700 C   0  0  0  0  0  0  0  0  0  0  0  0
   54.5405   30.9116   53.9710 H   0  0  0  0  0  0  0  0  0  0  0  0
   53.3511   30.4034   52.7089 H   0  0  0  0  0  0  0  0  0  0  0  0
   54.6180   28.9480   53.3850 O   0  0  0  0  0  0  0  0  0  0  0  0
   55.8660   28.8500   54.0290 C   0  0  0  0  0  0  0  0  0  0  0  0
   55.9010   29.5719   54.8582 H   0  0  0  0  0  0  0  0  0  0  0  0
   55.9866   27.8241   54.4071 H   0  0  0  0  0  0  0  0  0  0  0  0
   57.0100   29.1500   53.0540 C   0  0  0  0  0  0  0  0  0  0  0  0
   57.8991   29.4308   53.6376 H   0  0  0  0  0  0  0  0  0  0  0  0
   57.1703   28.2403   52.4567 H   0  0  0  0  0  0  0  0  0  0  0  0
   58.5310   29.7830   50.4410 C   0  0  0  0  0  0  0  0  0  0  0  0
   58.3418   28.7044   50.5448 H   0  0  0  0  0  0  0  0  0  0  0  0
   59.5380   30.2230   49.5790 C   0  0  0  0  0  0  0  0  0  0  0  0
   60.1334   29.4869   49.0189 H   0  0  0  0  0  0  0  0  0  0  0  0
   58.9420   31.7170   45.9490 C   0  0  0  0  0  0  0  0  0  0  0  0
   59.6063   30.8782   46.2042 H   0  0  0  0  0  0  0  0  0  0  0  0
   56.5390   26.8540   46.2130 C   0  0  0  0  0  0  0  0  0  0  0  0
   55.1680   26.8590   45.9850 O   0  0  0  0  0  0  0  0  0  0  0  0
   57.1410   25.6610   46.6230 C   0  0  0  0  0  0  0  0  0  0  0  0
   56.5210   24.7735   46.8178 H   0  0  0  0  0  0  0  0  0  0  0  0
   58.5230   25.5910   46.7860 C   0  0  0  0  0  0  0  0  0  0  0  0
   58.9979   24.6549   47.1148 H   0  0  0  0  0  0  0  0  0  0  0  0
  1  2  1  0
  2  3  1  0
  3  4  1  0
  4  5  2  0
  5  6  1  0
  6  7  2  0
  6  8  1  0
  8  9  2  0
  9 10  1  0
  9 11  1  0
 11 12  1  0
 11 13  2  0
 13 14  1  0
 13 15  1  0
 15 16  1  0
 16 17  2  0
 16 18  2  0
 16 19  1  0
 19 20  1  0
 19 21  1  0
 21 22  2  0
 22 23  1  0
 22 24  1  0
 24 25  1  0
 24 26  2  0
 26 27  1  0
 27 28  1  0
 28 29  1  0
 28 30  1  0
 28 31  1  0
 31 32  1  0
 31 33  1  0
 31 34  1  0
 34 35  1  0
 35 36  1  0
 35 37  1  0
 35 38  1  0
 38 39  1  0
 38 40  1  0
 26 41  1  0
 41 42  1  0
 41 43  2  0
 43 44  1  0
 15 45  2  0
 45 46  1  0
  4 47  1  0
 47 48  1  0
 47 49  2  0
 49 50  1  0
 49 51  1  0
 51 52  1  0
 51  2  2  0
 45  8  1  0
 43 21  1  0
 38 27  1  0
M  CHG  2   3  -1  48  -1
M  END
>  <UniqueID>  (67) 
62

>  <SMILES>  (67) 
O=C(/N=c1/[n-]cccc1[O-])c1cccc(S(=O)(=O)Nc2ccc(N3CCOCC3)cc2)c1

>  <Energy>  (67) 
79.63396109922385

>  <Genealogy>  (67) 
O=C(N=c1[n-]cccc1[O-])c1cccc(S(=O)(=O)Nc2ccc(N3CCOCC3)cc2)c1 (protonated)
O=C(/N=c1/[n-]cccc1[O-])c1cccc(S(=O)(=O)Nc2ccc(N3CCOCC3)cc2)c1 (cis-trans isomerization)
O=C(/N=c1/[n-]cccc1[O-])c1cccc(S(=O)(=O)Nc2ccc(N3CCOCC3)cc2)c1 (3D coordinates assigned)
O=C(/N=c1/[n-]cccc1[O-])c1cccc(S(=O)(=O)Nc2ccc(N3CCOCC3)cc2)c1 (nonaromatic ring conformer: 79.63396109922385 kcal/mol)

>  <smiles>  (67) 
O=C(N=c1[nH]cccc1O)c1cccc(S(=O)(=O)Nc2ccc(N3CCOCC3)cc2)c1

>  <score_type>  (67) 
oracle

>  <origin>  (67) 
adg

>  <m_score__min__energy>  (67) 
-15.4

>  <m_primary>  (67) 
energy

$$$$
67:0
     RDKit          3D

 67 70  0  0  0  0  0  0  0  0999 V2000
   58.1380   34.1390   45.5080 C   0  0  0  0  0  0  0  0  0  0  0  0
   58.2670   32.6480   45.6790 C   0  0  0  0  0  0  0  0  0  0  0  0
   58.2060   31.8290   44.5430 C   0  0  0  0  0  0  0  0  0  0  0  0
   58.2660   30.4380   44.6630 C   0  0  0  0  0  0  0  0  0  0  0  0
   58.3860   29.8350   45.9240 C   0  0  0  0  0  0  0  0  0  0  0  0
   58.3700   28.3560   46.0560 C   0  0  0  0  0  0  0  0  0  0  0  0
   59.1660   27.6610   45.3680 O   0  0  0  0  0  0  0  0  0  0  0  0
   57.3910   27.6870   46.8580 N   0  0  0  0  0  0  0  0  0  0  0  0
   56.8980   26.3750   46.5750 C   0  0  0  0  0  0  0  0  0  0  0  0
   55.7450   26.0630   45.8770 C   0  0  0  0  0  0  0  0  0  0  0  0
   55.6550   24.6820   45.9330 C   0  0  0  0  0  0  0  0  0  0  0  0
   54.5220   23.8930   45.4230 C   0  0  0  0  0  0  0  0  0  0  0  0
   53.3930   24.0030   45.9700 O   0  0  0  0  0  0  0  0  0  0  0  0
   54.6790   22.9980   44.3170 N   0  0  0  0  0  0  0  0  0  0  0  0
   55.5470   23.2980   43.1880 C   0  0  0  0  0  0  0  0  0  0  0  0
   56.9860   22.8710   43.4900 C   0  0  0  0  0  0  0  0  0  0  0  0
   57.3010   21.4640   42.9660 C   0  0  0  0  0  0  0  0  0  0  0  0
   56.2530   20.5810   43.2620 O   0  0  0  0  0  0  0  0  0  0  0  0
   56.7110   24.1630   46.6070 N   0  0  0  0  0  0  0  0  0  0  0  0
   56.9420   22.7640   46.9690 C   0  0  0  0  0  0  0  0  0  0  0  0
   57.4560   25.2020   47.0350 C   0  0  0  0  0  0  0  0  0  0  0  0
   58.4570   30.6560   47.0600 C   0  0  0  0  0  0  0  0  0  0  0  0
   58.4560   32.0510   46.9460 C   0  0  0  0  0  0  0  0  0  0  0  0
   58.6540   32.8180   48.1420 N   0  0  0  0  0  0  0  0  0  0  0  0
   59.1440   32.3630   49.4150 C   0  0  0  0  0  0  0  0  0  0  0  0
   60.3460   32.6040   49.6980 O   0  0  0  0  0  0  0  0  0  0  0  0
   58.3000   31.6550   50.4170 C   0  0  0  0  0  0  0  0  0  0  0  0
   58.2610   30.2580   50.5220 C   0  0  0  0  0  0  0  0  0  0  0  0
   57.5160   29.6650   51.4860 N   0  0  0  0  0  0  0  0  0  0  0  0
   56.7500   30.3940   52.3360 C   0  0  0  0  0  0  0  0  0  0  0  0
   56.0260   29.8150   53.2470 N   0  0  0  0  0  0  0  0  0  0  0  0
   54.7980   29.0570   52.9940 C   0  0  0  0  0  0  0  0  0  0  0  0
   53.6550   29.9550   52.5850 C   0  0  0  0  0  0  0  0  0  0  0  0
   52.7050   30.3770   53.5330 C   0  0  0  0  0  0  0  0  0  0  0  0
   51.6710   31.2460   53.1690 C   0  0  0  0  0  0  0  0  0  0  0  0
   51.5830   31.7070   51.8510 C   0  0  0  0  0  0  0  0  0  0  0  0
   52.5230   31.2910   50.8990 C   0  0  0  0  0  0  0  0  0  0  0  0
   53.5510   30.4110   51.2600 C   0  0  0  0  0  0  0  0  0  0  0  0
   56.7340   31.7460   52.2300 N   0  0  0  0  0  0  0  0  0  0  0  0
   57.4880   32.3850   51.2990 C   0  0  0  0  0  0  0  0  0  0  0  0
   58.0965   34.6192   46.4968 H   0  0  0  0  0  0  0  0  0  0  0  0
   59.0065   34.5207   44.9512 H   0  0  0  0  0  0  0  0  0  0  0  0
   57.2169   34.3659   44.9512 H   0  0  0  0  0  0  0  0  0  0  0  0
   58.1099   32.2859   43.5470 H   0  0  0  0  0  0  0  0  0  0  0  0
   58.2187   29.8104   43.7608 H   0  0  0  0  0  0  0  0  0  0  0  0
   55.0508   26.7600   45.3847 H   0  0  0  0  0  0  0  0  0  0  0  0
   55.1873   22.7563   42.3008 H   0  0  0  0  0  0  0  0  0  0  0  0
   55.5288   24.3822   43.0034 H   0  0  0  0  0  0  0  0  0  0  0  0
   57.6737   23.5867   43.0158 H   0  0  0  0  0  0  0  0  0  0  0  0
   57.1092   22.8571   44.5830 H   0  0  0  0  0  0  0  0  0  0  0  0
   57.4403   21.5071   41.8757 H   0  0  0  0  0  0  0  0  0  0  0  0
   58.2183   21.1014   43.4529 H   0  0  0  0  0  0  0  0  0  0  0  0
   56.6540   19.6890   43.3990 H   0  0  0  0  0  0  0  0  0  0  0  0
   56.9581   22.6666   48.0646 H   0  0  0  0  0  0  0  0  0  0  0  0
   56.1346   22.1406   46.5573 H   0  0  0  0  0  0  0  0  0  0  0  0
   57.9069   22.4332   46.5573 H   0  0  0  0  0  0  0  0  0  0  0  0
   58.3634   25.1256   47.6522 H   0  0  0  0  0  0  0  0  0  0  0  0
   58.5144   30.1952   48.0572 H   0  0  0  0  0  0  0  0  0  0  0  0
   58.8380   29.6399   49.8184 H   0  0  0  0  0  0  0  0  0  0  0  0
   54.9870   28.3328   52.1879 H   0  0  0  0  0  0  0  0  0  0  0  0
   54.5140   28.5478   53.9267 H   0  0  0  0  0  0  0  0  0  0  0  0
   52.7760   30.0200   54.5710 H   0  0  0  0  0  0  0  0  0  0  0  0
   50.9298   31.5657   53.9163 H   0  0  0  0  0  0  0  0  0  0  0  0
   50.7757   32.3961   51.5622 H   0  0  0  0  0  0  0  0  0  0  0  0
   52.4533   31.6570   49.8640 H   0  0  0  0  0  0  0  0  0  0  0  0
   54.2779   30.0764   50.5053 H   0  0  0  0  0  0  0  0  0  0  0  0
   57.4623   33.4829   51.2355 H   0  0  0  0  0  0  0  0  0  0  0  0
  1  2  1  0
  2  3  2  0
  3  4  1  0
  4  5  2  0
  5  6  1  0
  6  7  2  0
  6  8  1  0
  8  9  1  0
  9 10  1  0
 10 11  2  0
 11 12  1  0
 12 13  2  0
 12 14  1  0
 14 15  1  0
 15 16  1  0
 16 17  1  0
 17 18  1  0
 11 19  1  0
 19 20  1  0
 19 21  1  0
  5 22  1  0
 22 23  2  0
 23 24  1  0
 24 25  1  0
 25 26  2  0
 25 27  1  0
 27 28  1  0
 28 29  2  0
 29 30  1  0
 30 31  2  3
 31 32  1  0
 32 33  1  0
 33 34  2  0
 34 35  1  0
 35 36  2  0
 36 37  1  0
 37 38  2  0
 30 39  1  0
 39 40  1  0
 23  2  1  0
 40 27  2  0
 21  9  2  0
 38 33  1  0
  1 41  1  0
  1 42  1  0
  1 43  1  0
  3 44  1  0
  4 45  1  0
 10 46  1  0
 15 47  1  0
 15 48  1  0
 16 49  1  0
 16 50  1  0
 17 51  1  0
 17 52  1  0
 18 53  1  0
 20 54  1  0
 20 55  1  0
 20 56  1  0
 21 57  1  0
 22 58  1  0
 28 59  1  0
 32 60  1  0
 32 61  1  0
 34 62  1  0
 35 63  1  0
 36 64  1  0
 37 65  1  0
 38 66  1  0
 40 67  1  0
M  CHG  4   8  -1  14  -1  24  -1  39  -1
M  END
>  <UniqueID>  (68) 
63

>  <SMILES>  (68) 
Cc1ccc(C(=O)[N-]c2cc(C(=O)[N-]CCCO)n(C)c2)cc1[N-]C(=O)c1cnc(=NCc2ccccc2)[n-]c1

>  <Energy>  (68) 
112.3963995714958

>  <Genealogy>  (68) 
Cc1ccc(C(=O)[N-]c2cc(C(=O)[N-]CCCO)n(C)c2)cc1[N-]C(=O)c1cnc(=NCc2ccccc2)[n-]c1 (protonated)
Cc1ccc(C(=O)[N-]c2cc(C(=O)[N-]CCCO)n(C)c2)cc1[N-]C(=O)c1cnc(=NCc2ccccc2)[n-]c1 (3D coordinates assigned)
Cc1ccc(C(=O)[N-]c2cc(C(=O)[N-]CCCO)n(C)c2)cc1[N-]C(=O)c1cnc(=NCc2ccccc2)[n-]c1 (optimized conformer: 112.3963995714958 kcal/mol)

>  <smiles>  (68) 
Cc1ccc(C(=O)Nc2cc(C(=O)NCCCO)n(C)c2)cc1NC(=O)c1cnc(=NCc2ccccc2)[nH]c1

>  <score_type>  (68) 
oracle

>  <origin>  (68) 
adg

>  <m_score__min__energy>  (68) 
-14.94

>  <m_primary>  (68) 
energy

$$$$
68:0
     RDKit          3D

 31 33  0  0  0  0  0  0  0  0999 V2000
   56.5280   24.4580   44.5230 C   0  0  0  0  0  0  0  0  0  0  0  0
   55.6060   24.8030   45.4240 C   0  0  0  0  0  0  0  0  0  0  0  0
   55.9660   25.7580   46.4350 N   0  0  0  0  0  0  0  0  0  0  0  0
   56.5060   26.9230   46.2290 C   0  0  0  0  0  0  0  0  0  0  0  0
   55.8920   27.8580   45.4280 N   0  0  0  0  0  0  0  0  0  0  0  0
   56.4390   29.0920   45.2250 C   0  0  0  0  0  0  0  0  0  0  0  0
   55.8690   29.9350   44.4850 O   0  0  0  0  0  0  0  0  0  0  0  0
   57.6370   29.3840   45.8600 C   0  0  0  0  0  0  0  0  0  0  0  0
   58.3530   30.4800   45.8300 O   0  0  0  0  0  0  0  0  0  0  0  0
   59.4130   30.2820   46.6010 C   0  0  0  0  0  0  0  0  0  0  0  0
   60.4610   31.3080   46.8140 C   0  0  0  0  0  0  0  0  0  0  0  0
   60.1660   32.6610   46.5700 C   0  0  0  0  0  0  0  0  0  0  0  0
   61.1390   33.6450   46.7650 C   0  0  0  0  0  0  0  0  0  0  0  0
   62.4170   33.2930   47.2060 C   0  0  0  0  0  0  0  0  0  0  0  0
   63.3780   34.2790   47.3970 O   0  0  0  0  0  0  0  0  0  0  0  0
   62.7270   31.9510   47.4540 C   0  0  0  0  0  0  0  0  0  0  0  0
   64.0050   31.6070   47.8920 O   0  0  0  0  0  0  0  0  0  0  0  0
   61.7520   30.9620   47.2580 C   0  0  0  0  0  0  0  0  0  0  0  0
   59.3790   28.9950   47.1560 C   0  0  0  0  0  0  0  0  0  0  0  0
   58.2230   28.4550   46.6530 C   0  0  0  0  0  0  0  0  0  0  0  0
   57.6820   27.2300   46.8570 N   0  0  0  0  0  0  0  0  0  0  0  0
   54.2180   24.2980   45.3070 C   0  0  0  0  0  0  0  0  0  0  0  0
   53.2380   25.0300   45.6130 O   0  0  0  0  0  0  0  0  0  0  0  0
   53.9810   22.9960   44.8840 O   0  0  0  0  0  0  0  0  0  0  0  0
   56.2827   23.7292   43.7364 H   0  0  0  0  0  0  0  0  0  0  0  0
   57.5333   24.9024   44.5669 H   0  0  0  0  0  0  0  0  0  0  0  0
   59.1621   32.9470   46.2231 H   0  0  0  0  0  0  0  0  0  0  0  0
   60.8977   34.7005   46.5706 H   0  0  0  0  0  0  0  0  0  0  0  0
   64.7700   32.2690   47.8660 H   0  0  0  0  0  0  0  0  0  0  0  0
   61.9976   29.9076   47.4526 H   0  0  0  0  0  0  0  0  0  0  0  0
   60.1078   28.5283   47.8350 H   0  0  0  0  0  0  0  0  0  0  0  0
  1  2  2  0
  2  3  1  0
  3  4  2  3
  4  5  1  0
  5  6  1  0
  6  7  2  0
  6  8  1  0
  8  9  1  0
  9 10  1  0
 10 11  1  0
 11 12  2  0
 12 13  1  0
 13 14  2  0
 14 15  1  0
 14 16  1  0
 16 17  1  0
 16 18  2  0
 10 19  2  0
 19 20  1  0
 20 21  1  0
  2 22  1  0
 22 23  2  0
 22 24  1  0
 21  4  1  0
 20  8  2  0
 18 11  1  0
  1 25  1  0
  1 26  1  0
 12 27  1  0
 13 28  1  0
 17 29  1  0
 18 30  1  0
 19 31  1  0
M  CHG  4   5  -1  15  -1  21  -1  24  -1
M  END
>  <UniqueID>  (69) 
64

>  <SMILES>  (69) 
C=C(N=c1[n-]c(=O)c2oc(-c3ccc([O-])c(O)c3)cc2[n-]1)C(=O)[O-]

>  <Energy>  (69) 
78.10162591014931

>  <Genealogy>  (69) 
C=C(N=c1[n-]c(=O)c2oc(-c3ccc([O-])c(O)c3)cc2[n-]1)C(=O)[O-] (protonated)
C=C(N=c1[n-]c(=O)c2oc(-c3ccc([O-])c(O)c3)cc2[n-]1)C(=O)[O-] (3D coordinates assigned)
C=C(N=c1[n-]c(=O)c2oc(-c3ccc([O-])c(O)c3)cc2[n-]1)C(=O)[O-] (optimized conformer: 78.10162591014931 kcal/mol)

>  <smiles>  (69) 
C=C(N=c1[nH]c(=O)c2oc(-c3ccc(O)c(O)c3)cc2[nH]1)C(=O)O

>  <score_type>  (69) 
oracle

>  <origin>  (69) 
adg

>  <m_score__min__energy>  (69) 
-12.550000000000001

>  <m_primary>  (69) 
energy

$$$$
69:0
     RDKit          3D

 54 56  0  0  0  0  0  0  0  0999 V2000
   63.8190   33.0080   48.7920 C   0  0  0  0  0  0  0  0  0  0  0  0
   62.5610   33.6240   49.0580 O   0  0  0  0  0  0  0  0  0  0  0  0
   61.4950   33.6810   48.1460 C   0  0  0  0  0  0  0  0  0  0  0  0
   61.7050   33.8230   46.7590 C   0  0  0  0  0  0  0  0  0  0  0  0
   60.6190   33.8790   45.8830 C   0  0  0  0  0  0  0  0  0  0  0  0
   59.3110   33.7960   46.3780 C   0  0  0  0  0  0  0  0  0  0  0  0
   57.9280   33.8730   45.2900 S   0  0  0  0  0  0  0  0  0  0  0  0
   56.6330   33.7750   46.0490 O   0  0  0  0  0  0  0  0  0  0  0  0
   57.9560   35.1880   44.5630 O   0  0  0  0  0  0  0  0  0  0  0  0
   58.0210   32.5840   44.1360 N   0  0  0  0  0  0  0  0  0  0  0  0
   58.0780   31.1860   44.4540 C   0  0  0  0  0  0  0  0  0  0  0  0
   58.9260   30.7680   45.4860 C   0  0  0  0  0  0  0  0  0  0  0  0
   59.0370   29.4120   45.8100 C   0  0  0  0  0  0  0  0  0  0  0  0
   58.2930   28.4470   45.1060 C   0  0  0  0  0  0  0  0  0  0  0  0
   58.4340   27.0090   45.4390 C   0  0  0  0  0  0  0  0  0  0  0  0
   59.3430   26.6470   46.2350 O   0  0  0  0  0  0  0  0  0  0  0  0
   57.5810   26.0230   44.8330 N   0  0  0  0  0  0  0  0  0  0  0  0
   57.4470   24.6540   45.3450 C   0  0  2  0  0  0  0  0  0  0  0  0
   57.0440   23.7020   44.1980 C   0  0  0  0  0  0  0  0  0  0  0  0
   55.7130   22.9500   44.4100 C   0  0  0  0  0  0  0  0  0  0  0  0
   54.4640   23.8450   44.3140 C   0  0  0  0  0  0  0  0  0  0  0  0
   54.0470   24.5670   45.6220 C   0  0  0  0  0  0  0  0  0  0  0  0
   55.1600   25.2130   46.3180 N   0  0  0  0  0  0  0  0  0  0  0  0
   56.4470   24.6070   46.4740 C   0  0  0  0  0  0  0  0  0  0  0  0
   56.7520   24.0880   47.5820 O   0  0  0  0  0  0  0  0  0  0  0  0
   57.4130   28.8740   44.0980 C   0  0  0  0  0  0  0  0  0  0  0  0
   57.3100   30.2290   43.7700 C   0  0  0  0  0  0  0  0  0  0  0  0
   59.0960   33.6560   47.7550 C   0  0  0  0  0  0  0  0  0  0  0  0
   60.1850   33.5950   48.6470 C   0  0  0  0  0  0  0  0  0  0  0  0
   60.0060   33.4510   50.0340 O   0  0  0  0  0  0  0  0  0  0  0  0
   60.2160   32.2380   50.7560 C   0  0  0  0  0  0  0  0  0  0  0  0
   64.3163   32.7645   49.7425 H   0  0  0  0  0  0  0  0  0  0  0  0
   63.6607   32.0855   48.2142 H   0  0  0  0  0  0  0  0  0  0  0  0
   64.4506   33.6988   48.2142 H   0  0  0  0  0  0  0  0  0  0  0  0
   62.7298   33.8900   46.3649 H   0  0  0  0  0  0  0  0  0  0  0  0
   60.7909   33.9885   44.8020 H   0  0  0  0  0  0  0  0  0  0  0  0
   59.5101   31.5123   46.0470 H   0  0  0  0  0  0  0  0  0  0  0  0
   59.7106   29.0976   46.6208 H   0  0  0  0  0  0  0  0  0  0  0  0
   57.0000   26.2930   44.0060 H   0  0  0  0  0  0  0  0  0  0  0  0
   58.4164   24.3220   45.7450 H   0  0  0  0  0  0  0  0  0  0  0  0
   56.9569   24.2962   43.2764 H   0  0  0  0  0  0  0  0  0  0  0  0
   57.8274   22.9314   44.1493 H   0  0  0  0  0  0  0  0  0  0  0  0
   55.6345   22.1639   43.6446 H   0  0  0  0  0  0  0  0  0  0  0  0
   55.7361   22.5458   45.4328 H   0  0  0  0  0  0  0  0  0  0  0  0
   54.6578   24.6138   43.5515 H   0  0  0  0  0  0  0  0  0  0  0  0
   53.6314   23.1695   44.0679 H   0  0  0  0  0  0  0  0  0  0  0  0
   53.3010   25.3356   45.3717 H   0  0  0  0  0  0  0  0  0  0  0  0
   53.6468   23.7985   46.2997 H   0  0  0  0  0  0  0  0  0  0  0  0
   56.7992   28.1354   43.5617 H   0  0  0  0  0  0  0  0  0  0  0  0
   56.6236   30.5477   42.9717 H   0  0  0  0  0  0  0  0  0  0  0  0
   58.0687   33.5932   48.1432 H   0  0  0  0  0  0  0  0  0  0  0  0
   60.1805   32.4433   51.8361 H   0  0  0  0  0  0  0  0  0  0  0  0
   59.4297   31.5147   50.4942 H   0  0  0  0  0  0  0  0  0  0  0  0
   61.1997   31.8211   50.4942 H   0  0  0  0  0  0  0  0  0  0  0  0
  1  2  1  0
  2  3  1  0
  3  4  2  0
  4  5  1  0
  5  6  2  0
  6  7  1  0
  7  8  2  0
  7  9  2  0
  7 10  1  0
 10 11  1  0
 11 12  2  0
 12 13  1  0
 13 14  2  0
 14 15  1  0
 15 16  2  0
 15 17  1  0
 17 18  1  0
 18 19  1  0
 19 20  1  0
 20 21  1  0
 21 22  1  0
 22 23  1  0
 23 24  1  0
 24 25  2  0
 14 26  1  0
 26 27  2  0
  6 28  1  0
 28 29  2  0
 29 30  1  0
 30 31  1  0
 29  3  1  0
 27 11  1  0
 24 18  1  0
  1 32  1  0
  1 33  1  0
  1 34  1  0
  4 35  1  0
  5 36  1  0
 12 37  1  0
 13 38  1  0
 17 39  1  0
 18 40  1  1
 19 41  1  0
 19 42  1  0
 20 43  1  0
 20 44  1  0
 21 45  1  0
 21 46  1  0
 22 47  1  0
 22 48  1  0
 26 49  1  0
 27 50  1  0
 28 51  1  0
 31 52  1  0
 31 53  1  0
 31 54  1  0
M  CHG  2  10  -1  23  -1
M  END
>  <UniqueID>  (70) 
65

>  <SMILES>  (70) 
COc1ccc(S(=O)(=O)[N-]c2ccc(C(=O)N[C@@H]3CCCC[N-]C3=O)cc2)cc1OC

>  <Energy>  (70) 
64.19131344677855

>  <Genealogy>  (70) 
COc1ccc(S(=O)(=O)[N-]c2ccc(C(=O)NC3CCCC[N-]C3=O)cc2)cc1OC (protonated)
COc1ccc(S(=O)(=O)[N-]c2ccc(C(=O)N[C@@H]3CCCC[N-]C3=O)cc2)cc1OC (chirality)
COc1ccc(S(=O)(=O)[N-]c2ccc(C(=O)N[C@@H]3CCCC[N-]C3=O)cc2)cc1OC (3D coordinates assigned)
COc1ccc(S(=O)(=O)[N-]c2ccc(C(=O)N[C@@H]3CCCC[N-]C3=O)cc2)cc1OC (nonaromatic ring conformer: 64.19131344677855 kcal/mol)

>  <smiles>  (70) 
COc1ccc(S(=O)(=O)Nc2ccc(C(=O)NC3CCCCNC3=O)cc2)cc1OC

>  <score_type>  (70) 
oracle

>  <origin>  (70) 
adg

>  <m_score__min__energy>  (70) 
-9.5700000000000003

>  <m_primary>  (70) 
energy

$$$$
70:0
     RDKit          3D

 71 74  0  0  0  0  0  0  0  0999 V2000
   63.4490   32.4640   47.4750 C   0  0  0  0  0  0  0  0  0  0  0  0
   63.0160   33.8010   47.3720 O   0  0  0  0  0  0  0  0  0  0  0  0
   61.6200   33.8560   47.5800 C   0  0  0  0  0  0  0  0  0  0  0  0
   61.2640   33.1860   48.8700 C   0  0  0  0  0  0  0  0  0  0  0  0
   61.9050   33.4540   49.9220 O   0  0  0  0  0  0  0  0  0  0  0  0
   60.1930   32.2340   48.8870 N   0  0  0  0  0  0  0  0  0  0  0  0
   60.1050   31.0320   48.1070 C   0  0  0  0  0  0  0  0  0  0  0  0
   60.4100   31.0950   46.7430 C   0  0  0  0  0  0  0  0  0  0  0  0
   60.3100   29.9560   45.9400 C   0  0  0  0  0  0  0  0  0  0  0  0
   59.8950   28.7330   46.4920 C   0  0  0  0  0  0  0  0  0  0  0  0
   59.7810   27.5030   45.6300 C   0  0  0  0  0  0  0  0  0  0  0  0
   58.4490   26.8270   45.8270 C   0  0  0  0  0  0  0  0  0  0  0  0
   58.2630   25.4660   45.9900 C   0  0  0  0  0  0  0  0  0  0  0  0
   59.2590   24.4980   46.0270 O   0  0  0  0  0  0  0  0  0  0  0  0
   56.9060   25.2370   46.0980 C   0  0  0  0  0  0  0  0  0  0  0  0
   56.2170   23.9100   46.2050 C   0  0  0  0  0  0  0  0  0  0  0  0
   56.4790   23.2860   47.5510 C   0  0  0  0  0  0  0  0  0  0  0  0
   57.3320   23.8140   48.3100 O   0  0  0  0  0  0  0  0  0  0  0  0
   55.7680   22.1340   48.0220 N   0  0  0  0  0  0  0  0  0  0  0  0
   56.4660   20.6040   48.4470 S   0  0  0  0  0  0  0  0  0  0  0  0
   55.4920   19.8560   49.3100 O   0  0  0  0  0  0  0  0  0  0  0  0
   57.7310   20.8180   49.2280 O   0  0  0  0  0  0  0  0  0  0  0  0
   56.7980   19.6350   46.9830 C   0  0  0  0  0  0  0  0  0  0  0  0
   57.0700   20.5340   45.8090 C   0  0  0  0  0  0  0  0  0  0  0  0
   58.3070   21.1870   45.6840 C   0  0  0  0  0  0  0  0  0  0  0  0
   58.5450   22.0460   44.6060 C   0  0  0  0  0  0  0  0  0  0  0  0
   57.5480   22.2640   43.6510 C   0  0  0  0  0  0  0  0  0  0  0  0
   56.3110   21.6240   43.7730 C   0  0  0  0  0  0  0  0  0  0  0  0
   56.0700   20.7630   44.8480 C   0  0  0  0  0  0  0  0  0  0  0  0
   56.3130   26.4790   45.9750 C   0  0  0  0  0  0  0  0  0  0  0  0
   54.9420   26.7150   46.0110 O   0  0  0  0  0  0  0  0  0  0  0  0
   57.2420   27.4440   45.8050 N   0  0  0  0  0  0  0  0  0  0  0  0
   56.9770   28.8790   45.6860 C   0  0  0  0  0  0  0  0  0  0  0  0
   57.0840   29.3210   44.2270 C   0  0  0  0  0  0  0  0  0  0  0  0
   57.4430   30.7800   44.1400 C   0  0  0  0  0  0  0  0  0  0  0  0
   57.4930   31.5630   45.3060 C   0  0  0  0  0  0  0  0  0  0  0  0
   57.8530   32.9130   45.2310 C   0  0  0  0  0  0  0  0  0  0  0  0
   58.1750   33.4850   43.9980 C   0  0  0  0  0  0  0  0  0  0  0  0
   58.1450   32.7080   42.8370 C   0  0  0  0  0  0  0  0  0  0  0  0
   57.7850   31.3570   42.9060 C   0  0  0  0  0  0  0  0  0  0  0  0
   59.5590   28.6760   47.8540 C   0  0  0  0  0  0  0  0  0  0  0  0
   59.6580   29.8180   48.6560 C   0  0  0  0  0  0  0  0  0  0  0  0
   63.5383   32.1882   48.5361 H   0  0  0  0  0  0  0  0  0  0  0  0
   62.7189   31.8033   46.9846 H   0  0  0  0  0  0  0  0  0  0  0  0
   64.4278   32.3568   46.9846 H   0  0  0  0  0  0  0  0  0  0  0  0
   61.2989   34.9075   47.6157 H   0  0  0  0  0  0  0  0  0  0  0  0
   61.1127   33.3369   46.7534 H   0  0  0  0  0  0  0  0  0  0  0  0
   60.7311   32.0489   46.2992 H   0  0  0  0  0  0  0  0  0  0  0  0
   60.5576   30.0174   44.8700 H   0  0  0  0  0  0  0  0  0  0  0  0
   59.8845   27.7930   44.5740 H   0  0  0  0  0  0  0  0  0  0  0  0
   60.5767   26.7995   45.9163 H   0  0  0  0  0  0  0  0  0  0  0  0
   55.1339   24.0532   46.0771 H   0  0  0  0  0  0  0  0  0  0  0  0
   56.6066   23.2429   45.4219 H   0  0  0  0  0  0  0  0  0  0  0  0
   57.6762   18.9973   47.1621 H   0  0  0  0  0  0  0  0  0  0  0  0
   55.9183   19.0135   46.7598 H   0  0  0  0  0  0  0  0  0  0  0  0
   59.0919   21.0223   46.4369 H   0  0  0  0  0  0  0  0  0  0  0  0
   59.5178   22.5504   44.5098 H   0  0  0  0  0  0  0  0  0  0  0  0
   57.7366   22.9392   42.8033 H   0  0  0  0  0  0  0  0  0  0  0  0
   55.5262   21.7981   43.0222 H   0  0  0  0  0  0  0  0  0  0  0  0
   55.0946   20.2632   44.9420 H   0  0  0  0  0  0  0  0  0  0  0  0
   55.9633   29.0923   46.0560 H   0  0  0  0  0  0  0  0  0  0  0  0
   57.7202   29.4298   46.2812 H   0  0  0  0  0  0  0  0  0  0  0  0
   57.8621   28.7268   43.7255 H   0  0  0  0  0  0  0  0  0  0  0  0
   56.1114   29.1655   43.7373 H   0  0  0  0  0  0  0  0  0  0  0  0
   57.2486   31.1135   46.2798 H   0  0  0  0  0  0  0  0  0  0  0  0
   57.8825   33.5249   46.1446 H   0  0  0  0  0  0  0  0  0  0  0  0
   58.4524   34.5479   43.9409 H   0  0  0  0  0  0  0  0  0  0  0  0
   58.4046   33.1585   41.8676 H   0  0  0  0  0  0  0  0  0  0  0  0
   57.7699   30.7458   41.9915 H   0  0  0  0  0  0  0  0  0  0  0  0
   59.2158   27.7277   48.2932 H   0  0  0  0  0  0  0  0  0  0  0  0
   59.3850   29.7655   49.7203 H   0  0  0  0  0  0  0  0  0  0  0  0
  1  2  1  0
  2  3  1  0
  3  4  1  0
  4  5  2  0
  4  6  1  0
  6  7  1  0
  7  8  2  0
  8  9  1  0
  9 10  2  0
 10 11  1  0
 11 12  1  0
 12 13  2  0
 13 14  1  0
 13 15  1  0
 15 16  1  0
 16 17  1  0
 17 18  2  0
 17 19  1  0
 19 20  1  0
 20 21  2  0
 20 22  2  0
 20 23  1  0
 23 24  1  0
 24 25  2  0
 25 26  1  0
 26 27  2  0
 27 28  1  0
 28 29  2  0
 15 30  2  0
 30 31  1  0
 30 32  1  0
 32 33  1  0
 33 34  1  0
 34 35  1  0
 35 36  2  0
 36 37  1  0
 37 38  2  0
 38 39  1  0
 39 40  2  0
 10 41  1  0
 41 42  2  0
 42  7  1  0
 32 12  1  0
 40 35  1  0
 29 24  1  0
  1 43  1  0
  1 44  1  0
  1 45  1  0
  3 46  1  0
  3 47  1  0
  8 48  1  0
  9 49  1  0
 11 50  1  0
 11 51  1  0
 16 52  1  0
 16 53  1  0
 23 54  1  0
 23 55  1  0
 25 56  1  0
 26 57  1  0
 27 58  1  0
 28 59  1  0
 29 60  1  0
 33 61  1  0
 33 62  1  0
 34 63  1  0
 34 64  1  0
 36 65  1  0
 37 66  1  0
 38 67  1  0
 39 68  1  0
 40 69  1  0
 41 70  1  0
 42 71  1  0
M  CHG  4   6  -1  14  -1  19  -1  31  -1
M  END
>  <UniqueID>  (71) 
66

>  <SMILES>  (71) 
COCC(=O)[N-]c1ccc(Cc2c([O-])c(CC(=O)[N-]S(=O)(=O)Cc3ccccc3)c([O-])n2CCc2ccccc2)cc1

>  <Energy>  (71) 
97.93921384556005

>  <Genealogy>  (71) 
COCC(=O)[N-]c1ccc(Cc2c([O-])c(CC(=O)[N-]S(=O)(=O)Cc3ccccc3)c([O-])n2CCc2ccccc2)cc1 (protonated)
COCC(=O)[N-]c1ccc(Cc2c([O-])c(CC(=O)[N-]S(=O)(=O)Cc3ccccc3)c([O-])n2CCc2ccccc2)cc1 (3D coordinates assigned)
COCC(=O)[N-]c1ccc(Cc2c([O-])c(CC(=O)[N-]S(=O)(=O)Cc3ccccc3)c([O-])n2CCc2ccccc2)cc1 (optimized conformer: 97.93921384556005 kcal/mol)

>  <smiles>  (71) 
COCC(=O)Nc1ccc(Cc2c(O)c(CC(=O)NS(=O)(=O)Cc3ccccc3)c(O)n2CCc2ccccc2)cc1

>  <score_type>  (71) 
oracle

>  <origin>  (71) 
adg

>  <m_score__min__energy>  (71) 
-16.16

>  <m_primary>  (71) 
energy

$$$$
71:0
     RDKit          3D

 65 68  0  0  0  0  0  0  0  0999 V2000
   64.2069   33.9230   46.7834 H   0  0  0  0  0  0  0  0  0  0  0  0
   63.2170   33.5390   47.0710 C   0  0  0  0  0  0  0  0  0  0  0  0
   63.1190   32.3800   47.8410 C   0  0  0  0  0  0  0  0  0  0  0  0
   64.0306   31.8694   48.1848 H   0  0  0  0  0  0  0  0  0  0  0  0
   61.8610   31.8670   48.1760 C   0  0  0  0  0  0  0  0  0  0  0  0
   61.7830   30.6940   48.9350 O   0  0  0  0  0  0  0  0  0  0  0  0
   60.9940   29.6090   48.5450 C   0  0  0  0  0  0  0  0  0  0  0  0
   60.9200   28.4730   49.3490 C   0  0  0  0  0  0  0  0  0  0  0  0
   61.5175   28.4105   50.2704 H   0  0  0  0  0  0  0  0  0  0  0  0
   60.0860   27.4140   48.9830 C   0  0  0  0  0  0  0  0  0  0  0  0
   60.0196   26.5218   49.6229 H   0  0  0  0  0  0  0  0  0  0  0  0
   59.3330   27.4850   47.8020 C   0  0  0  0  0  0  0  0  0  0  0  0
   58.5150   26.4590   47.4770 N   0  0  0  0  0  0  0  0  0  0  0  0
   57.7620   26.4600   46.3520 C   0  0  0  0  0  0  0  0  0  0  0  0
   57.0100   25.4130   46.1340 N   0  0  0  0  0  0  0  0  0  0  0  0
   55.5790   25.2820   46.2010 C   0  0  0  0  0  0  0  0  0  0  0  0
   54.8350   26.2780   45.9860 O   0  0  0  0  0  0  0  0  0  0  0  0
   54.9780   23.9950   46.3830 N   0  0  0  0  0  0  0  0  0  0  0  0
   54.8130   23.0240   45.3030 C   0  0  0  0  0  0  0  0  0  0  0  0
   53.7441   22.9245   45.0629 H   0  0  0  0  0  0  0  0  0  0  0  0
   55.2149   22.0526   45.6266 H   0  0  0  0  0  0  0  0  0  0  0  0
   55.5670   23.4890   44.0640 C   0  0  0  0  0  0  0  0  0  0  0  0
   56.4666   24.0438   44.3689 H   0  0  0  0  0  0  0  0  0  0  0  0
   55.8609   22.6151   43.4641 H   0  0  0  0  0  0  0  0  0  0  0  0
   54.9180   24.1440   43.4641 H   0  0  0  0  0  0  0  0  0  0  0  0
   57.8100   27.5990   45.5040 C   0  0  0  0  0  0  0  0  0  0  0  0
   57.0250   27.6890   44.5240 O   0  0  0  0  0  0  0  0  0  0  0  0
   58.6730   28.6380   45.7850 N   0  0  0  0  0  0  0  0  0  0  0  0
   58.7940   29.7590   44.8140 C   0  0  0  0  0  0  0  0  0  0  0  0
   59.4980   30.5036   45.2139 H   0  0  0  0  0  0  0  0  0  0  0  0
   59.1560   29.3502   43.8591 H   0  0  0  0  0  0  0  0  0  0  0  0
   57.4220   30.4460   44.5610 C   0  0  0  0  0  0  0  0  0  0  0  0
   56.6978   29.9469   45.2216 H   0  0  0  0  0  0  0  0  0  0  0  0
   57.4320   31.9400   44.9520 C   0  0  0  0  0  0  0  0  0  0  0  0
   56.3973   32.3130   44.9349 H   0  0  0  0  0  0  0  0  0  0  0  0
   57.8806   32.0132   45.9537 H   0  0  0  0  0  0  0  0  0  0  0  0
   58.2830   32.8100   44.0030 C   0  0  0  0  0  0  0  0  0  0  0  0
   57.8934   33.8383   44.0320 H   0  0  0  0  0  0  0  0  0  0  0  0
   59.3234   32.7446   44.3541 H   0  0  0  0  0  0  0  0  0  0  0  0
   58.2710   32.3260   42.5380 C   0  0  0  0  0  0  0  0  0  0  0  0
   58.3022   33.2019   41.8732 H   0  0  0  0  0  0  0  0  0  0  0  0
   59.1488   31.6813   42.3834 H   0  0  0  0  0  0  0  0  0  0  0  0
   57.0180   31.5080   42.2210 C   0  0  0  0  0  0  0  0  0  0  0  0
   56.1293   32.1296   42.4046 H   0  0  0  0  0  0  0  0  0  0  0  0
   57.0665   31.1962   41.1672 H   0  0  0  0  0  0  0  0  0  0  0  0
   56.9340   30.2450   43.0950 C   0  0  0  0  0  0  0  0  0  0  0  0
   55.8851   29.9148   43.1233 H   0  0  0  0  0  0  0  0  0  0  0  0
   57.6042   29.5014   42.6391 H   0  0  0  0  0  0  0  0  0  0  0  0
   59.4220   28.6090   46.9490 C   0  0  0  0  0  0  0  0  0  0  0  0
   60.2680   29.6740   47.3470 C   0  0  0  0  0  0  0  0  0  0  0  0
   60.3564   30.5643   46.7071 H   0  0  0  0  0  0  0  0  0  0  0  0
   60.6990   32.5490   47.7700 C   0  0  0  0  0  0  0  0  0  0  0  0
   59.7111   32.1440   48.0348 H   0  0  0  0  0  0  0  0  0  0  0  0
   60.7850   33.7450   47.0280 C   0  0  0  0  0  0  0  0  0  0  0  0
   59.5850   34.4750   46.6590 N   0  0  0  0  0  0  0  0  0  0  0  0
   58.2790   34.0760   47.1980 C   0  0  0  0  0  0  0  0  0  0  0  0
   58.3170   34.0876   48.2973 H   0  0  0  0  0  0  0  0  0  0  0  0
   57.5083   34.7797   46.8503 H   0  0  0  0  0  0  0  0  0  0  0  0
   58.0332   33.0618   46.8503 H   0  0  0  0  0  0  0  0  0  0  0  0
   59.6620   35.6250   45.7510 C   0  0  0  0  0  0  0  0  0  0  0  0
   59.7241   36.5527   46.3388 H   0  0  0  0  0  0  0  0  0  0  0  0
   60.5559   35.5322   45.1168 H   0  0  0  0  0  0  0  0  0  0  0  0
   58.7637   35.6522   45.1168 H   0  0  0  0  0  0  0  0  0  0  0  0
   62.0630   34.2150   46.6630 C   0  0  0  0  0  0  0  0  0  0  0  0
   62.1534   35.1240   46.0502 H   0  0  0  0  0  0  0  0  0  0  0  0
  1  2  1  0
  2  3  2  0
  3  4  1  0
  3  5  1  0
  5  6  1  0
  6  7  1  0
  7  8  2  0
  8  9  1  0
  8 10  1  0
 10 11  1  0
 10 12  2  0
 12 13  1  0
 13 14  1  0
 14 15  2  0
 15 16  1  0
 16 17  2  0
 16 18  1  0
 18 19  1  0
 19 20  1  0
 19 21  1  0
 19 22  1  0
 22 23  1  0
 22 24  1  0
 22 25  1  0
 14 26  1  0
 26 27  2  0
 26 28  1  0
 28 29  1  0
 29 30  1  0
 29 31  1  0
 29 32  1  0
 32 33  1  0
 32 34  1  0
 34 35  1  0
 34 36  1  0
 34 37  1  0
 37 38  1  0
 37 39  1  0
 37 40  1  0
 40 41  1  0
 40 42  1  0
 40 43  1  0
 43 44  1  0
 43 45  1  0
 43 46  1  0
 46 47  1  0
 46 48  1  0
 28 49  1  0
 49 50  2  0
 50 51  1  0
  5 52  2  0
 52 53  1  0
 52 54  1  0
 54 55  1  0
 55 56  1  0
 56 57  1  0
 56 58  1  0
 56 59  1  0
 55 60  1  0
 60 61  1  0
 60 62  1  0
 60 63  1  0
 54 64  2  0
 64 65  1  0
 64  2  1  0
 50  7  1  0
 49 12  1  0
 46 32  1  0
M  CHG  2  13  -1  18  -1
M  END
>  <UniqueID>  (72) 
67

>  <SMILES>  (72) 
CC[N-]C(=O)/N=c1/[n-]c2ccc(Oc3cccc(N(C)C)c3)cc2n(CC2CCCCC2)c1=O

>  <Energy>  (72) 
100.86636483237058

>  <Genealogy>  (72) 
CC[N-]C(=O)N=c1[n-]c2ccc(Oc3cccc(N(C)C)c3)cc2n(CC2CCCCC2)c1=O (protonated)
CC[N-]C(=O)/N=c1/[n-]c2ccc(Oc3cccc(N(C)C)c3)cc2n(CC2CCCCC2)c1=O (cis-trans isomerization)
CC[N-]C(=O)/N=c1/[n-]c2ccc(Oc3cccc(N(C)C)c3)cc2n(CC2CCCCC2)c1=O (3D coordinates assigned)
CC[N-]C(=O)/N=c1/[n-]c2ccc(Oc3cccc(N(C)C)c3)cc2n(CC2CCCCC2)c1=O (nonaromatic ring conformer: 100.86636483237058 kcal/mol)

>  <smiles>  (72) 
CCNC(=O)N=c1[nH]c2ccc(Oc3cccc(N(C)C)c3)cc2n(CC2CCCCC2)c1=O

>  <score_type>  (72) 
oracle

>  <origin>  (72) 
adg

>  <m_score__min__energy>  (72) 
-11.699999999999999

>  <m_primary>  (72) 
energy

$$$$
72:0
     RDKit          3D

 41 43  0  0  0  0  0  0  0  0999 V2000
   58.1260   31.5920   50.5080 O   0  0  0  0  0  0  0  0  0  0  0  0
   58.6240   32.4410   49.7200 C   0  0  0  0  0  0  0  0  0  0  0  0
   59.3020   33.5910   50.2340 N   0  0  0  0  0  0  0  0  0  0  0  0
   59.9620   34.5830   49.3920 C   0  0  0  0  0  0  0  0  0  0  0  0
   61.1100   33.9560   48.6480 C   0  0  0  0  0  0  0  0  0  0  0  0
   62.1350   33.2970   49.3470 C   0  0  0  0  0  0  0  0  0  0  0  0
   63.2110   32.7310   48.6570 C   0  0  0  0  0  0  0  0  0  0  0  0
   64.1960   32.0970   49.3390 F   0  0  0  0  0  0  0  0  0  0  0  0
   63.2740   32.8230   47.2640 C   0  0  0  0  0  0  0  0  0  0  0  0
   62.2610   33.4800   46.5600 C   0  0  0  0  0  0  0  0  0  0  0  0
   61.1830   34.0470   47.2450 C   0  0  0  0  0  0  0  0  0  0  0  0
   60.2130   34.6890   46.5450 F   0  0  0  0  0  0  0  0  0  0  0  0
   58.5060   32.2380   48.2700 C   0  0  0  0  0  0  0  0  0  0  0  0
   57.7200   32.9890   47.4680 N   0  0  0  0  0  0  0  0  0  0  0  0
   57.9100   32.4560   46.2410 C   0  0  0  0  0  0  0  0  0  0  0  0
   57.3230   32.8860   45.2120 O   0  0  0  0  0  0  0  0  0  0  0  0
   58.7760   31.4210   46.2270 N   0  0  0  0  0  0  0  0  0  0  0  0
   59.1550   30.5760   45.0930 C   0  0  0  0  0  0  0  0  0  0  0  0
   57.9210   29.9400   44.4420 C   0  0  0  0  0  0  0  0  0  0  0  0
   57.6400   28.5680   45.0040 C   0  0  0  0  0  0  0  0  0  0  0  0
   58.7090   27.7150   45.3260 C   0  0  0  0  0  0  0  0  0  0  0  0
   58.4660   26.4580   45.8880 C   0  0  0  0  0  0  0  0  0  0  0  0
   57.1560   26.0430   46.1380 C   0  0  0  0  0  0  0  0  0  0  0  0
   56.9230   24.7920   46.6970 O   0  0  0  0  0  0  0  0  0  0  0  0
   56.0830   26.8870   45.8280 C   0  0  0  0  0  0  0  0  0  0  0  0
   54.7790   26.4730   46.0810 O   0  0  0  0  0  0  0  0  0  0  0  0
   56.3200   28.1480   45.2650 C   0  0  0  0  0  0  0  0  0  0  0  0
   55.2440   28.9810   44.9720 O   0  0  0  0  0  0  0  0  0  0  0  0
   59.1450   31.2790   47.5100 C   0  0  0  0  0  0  0  0  0  0  0  0
   60.0250   30.3070   47.9730 O   0  0  0  0  0  0  0  0  0  0  0  0
   59.2372   34.9850   48.6688 H   0  0  0  0  0  0  0  0  0  0  0  0
   60.3479   35.3928   50.0286 H   0  0  0  0  0  0  0  0  0  0  0  0
   62.0907   33.2259   50.4438 H   0  0  0  0  0  0  0  0  0  0  0  0
   64.1212   32.3782   46.7214 H   0  0  0  0  0  0  0  0  0  0  0  0
   62.3124   33.5510   45.4635 H   0  0  0  0  0  0  0  0  0  0  0  0
   59.6786   31.1907   44.3461 H   0  0  0  0  0  0  0  0  0  0  0  0
   59.8100   29.7720   45.4598 H   0  0  0  0  0  0  0  0  0  0  0  0
   57.0491   30.5855   44.6239 H   0  0  0  0  0  0  0  0  0  0  0  0
   58.1159   29.8365   43.3644 H   0  0  0  0  0  0  0  0  0  0  0  0
   59.7430   28.0379   45.1349 H   0  0  0  0  0  0  0  0  0  0  0  0
   59.3083   25.7945   46.1338 H   0  0  0  0  0  0  0  0  0  0  0  0
  1  2  2  0
  2  3  1  0
  3  4  1  0
  4  5  1  0
  5  6  2  0
  6  7  1  0
  7  8  1  0
  7  9  2  0
  9 10  1  0
 10 11  2  0
 11 12  1  0
  2 13  1  0
 13 14  1  0
 14 15  1  0
 15 16  2  0
 15 17  1  0
 17 18  1  0
 18 19  1  0
 19 20  1  0
 20 21  2  0
 21 22  1  0
 22 23  2  0
 23 24  1  0
 23 25  1  0
 25 26  1  0
 25 27  2  0
 27 28  1  0
 17 29  1  0
 29 30  1  0
 11  5  1  0
 29 13  2  0
 27 20  1  0
  4 31  1  0
  4 32  1  0
  6 33  1  0
  9 34  1  0
 10 35  1  0
 18 36  1  0
 18 37  1  0
 19 38  1  0
 19 39  1  0
 21 40  1  0
 22 41  1  0
M  CHG  6   3  -1  14  -1  24  -1  26  -1  28  -1  30  -1
M  END
>  <UniqueID>  (73) 
68

>  <SMILES>  (73) 
O=C([N-]Cc1cc(F)ccc1F)c1[n-]c(=O)n(CCc2ccc([O-])c([O-])c2[O-])c1[O-]

>  <Energy>  (73) 
70.61139237965912

>  <Genealogy>  (73) 
O=C([N-]Cc1cc(F)ccc1F)c1[n-]c(=O)n(CCc2ccc([O-])c([O-])c2[O-])c1[O-] (protonated)
O=C([N-]Cc1cc(F)ccc1F)c1[n-]c(=O)n(CCc2ccc([O-])c([O-])c2[O-])c1[O-] (3D coordinates assigned)
O=C([N-]Cc1cc(F)ccc1F)c1[n-]c(=O)n(CCc2ccc([O-])c([O-])c2[O-])c1[O-] (optimized conformer: 70.61139237965912 kcal/mol)

>  <smiles>  (73) 
O=C(NCc1cc(F)ccc1F)c1[nH]c(=O)n(CCc2ccc(O)c(O)c2O)c1O

>  <score_type>  (73) 
oracle

>  <origin>  (73) 
adg

>  <m_score__min__energy>  (73) 
-20.850000000000001

>  <m_primary>  (73) 
energy

$$$$
73:0
     RDKit          3D

 58 61  0  0  0  0  0  0  0  0999 V2000
   63.3990   34.0290   46.4040 C   0  0  0  0  0  0  0  0  0  0  0  0
   62.2250   33.8220   47.2440 N   0  0  0  0  0  0  0  0  0  0  0  0
   62.0710   32.6420   48.0450 C   0  0  0  0  0  0  0  0  0  0  0  0
   62.8530   31.6580   47.8760 O   0  0  0  0  0  0  0  0  0  0  0  0
   61.0110   32.5540   49.0760 C   0  0  0  0  0  0  0  0  0  0  0  0
   61.0570   33.4410   50.1640 C   0  0  0  0  0  0  0  0  0  0  0  0
   60.0970   33.3800   51.1760 C   0  0  0  0  0  0  0  0  0  0  0  0
   60.1660   34.2440   52.2210 F   0  0  0  0  0  0  0  0  0  0  0  0
   59.0850   32.4150   51.1320 C   0  0  0  0  0  0  0  0  0  0  0  0
   58.1210   32.3740   52.1900 N   0  0  0  0  0  0  0  0  0  0  0  0
   57.3490   30.9280   52.7660 S   0  0  0  0  0  0  0  0  0  0  0  0
   58.5450   29.7750   53.4170 C   0  0  0  0  0  0  0  0  0  0  0  0
   56.3330   31.2850   53.8190 O   0  0  0  0  0  0  0  0  0  0  0  0
   56.6320   30.2850   51.6120 O   0  0  0  0  0  0  0  0  0  0  0  0
   59.0170   31.5390   50.0400 C   0  0  0  0  0  0  0  0  0  0  0  0
   59.9550   31.6120   48.9970 C   0  0  0  0  0  0  0  0  0  0  0  0
   59.7380   30.8220   47.8130 N   0  0  0  0  0  0  0  0  0  0  0  0
   58.8750   31.3840   46.7510 C   0  0  0  0  0  0  0  0  0  0  0  0
   58.5440   30.3610   45.6520 C   0  0  0  0  0  0  0  0  0  0  0  0
   58.2140   29.0350   46.2650 C   0  0  0  0  0  0  0  0  0  0  0  0
   57.1680   28.2970   45.8110 N   0  0  0  0  0  0  0  0  0  0  0  0
   56.8650   27.0930   46.3650 C   0  0  0  0  0  0  0  0  0  0  0  0
   55.8470   26.4280   45.9010 N   0  0  0  0  0  0  0  0  0  0  0  0
   55.8310   25.1040   45.3360 C   0  0  0  0  0  0  0  0  0  0  0  0
   54.7090   24.2570   45.4120 C   0  0  0  0  0  0  0  0  0  0  0  0
   54.7320   22.9980   44.8030 C   0  0  0  0  0  0  0  0  0  0  0  0
   55.8650   22.5790   44.0790 C   0  0  0  0  0  0  0  0  0  0  0  0
   55.9290   21.3340   43.4350 O   0  0  0  0  0  0  0  0  0  0  0  0
   57.0510   20.8670   42.6950 C   0  0  0  0  0  0  0  0  0  0  0  0
   56.9710   23.4310   43.9890 C   0  0  0  0  0  0  0  0  0  0  0  0
   56.9490   24.6860   44.6030 C   0  0  0  0  0  0  0  0  0  0  0  0
   57.6470   26.5980   47.3670 N   0  0  0  0  0  0  0  0  0  0  0  0
   58.7090   27.3000   47.8460 C   0  0  0  0  0  0  0  0  0  0  0  0
   59.0070   28.5560   47.3090 C   0  0  0  0  0  0  0  0  0  0  0  0
   60.1460   29.4040   47.7990 C   0  0  0  0  0  0  0  0  0  0  0  0
   64.2825   34.1848   47.0406 H   0  0  0  0  0  0  0  0  0  0  0  0
   63.5560   33.1447   45.7689 H   0  0  0  0  0  0  0  0  0  0  0  0
   63.2441   34.9137   45.7689 H   0  0  0  0  0  0  0  0  0  0  0  0
   61.4850   34.5600   47.2570 H   0  0  0  0  0  0  0  0  0  0  0  0
   61.8585   34.1923   50.2195 H   0  0  0  0  0  0  0  0  0  0  0  0
   58.5184   29.8007   54.5164 H   0  0  0  0  0  0  0  0  0  0  0  0
   58.3036   28.7601   53.0680 H   0  0  0  0  0  0  0  0  0  0  0  0
   59.5503   30.0533   53.0680 H   0  0  0  0  0  0  0  0  0  0  0  0
   58.2181   30.7840   49.9992 H   0  0  0  0  0  0  0  0  0  0  0  0
   57.9346   31.7275   47.2068 H   0  0  0  0  0  0  0  0  0  0  0  0
   59.4248   32.2119   46.2795 H   0  0  0  0  0  0  0  0  0  0  0  0
   57.6810   30.7179   45.0708 H   0  0  0  0  0  0  0  0  0  0  0  0
   59.4173   30.2455   44.9931 H   0  0  0  0  0  0  0  0  0  0  0  0
   53.8098   24.5869   45.9530 H   0  0  0  0  0  0  0  0  0  0  0  0
   53.8609   22.3319   44.8900 H   0  0  0  0  0  0  0  0  0  0  0  0
   57.8381   20.5394   43.3901 H   0  0  0  0  0  0  0  0  0  0  0  0
   56.7460   20.0211   42.0614 H   0  0  0  0  0  0  0  0  0  0  0  0
   57.4363   21.6795   42.0614 H   0  0  0  0  0  0  0  0  0  0  0  0
   57.8635   23.1109   43.4314 H   0  0  0  0  0  0  0  0  0  0  0  0
   57.8189   25.3528   44.5097 H   0  0  0  0  0  0  0  0  0  0  0  0
   59.3302   26.8817   48.6517 H   0  0  0  0  0  0  0  0  0  0  0  0
   60.4224   29.0927   48.8172 H   0  0  0  0  0  0  0  0  0  0  0  0
   61.0089   29.2791   47.1283 H   0  0  0  0  0  0  0  0  0  0  0  0
  1  2  1  0
  2  3  1  0
  3  4  2  0
  3  5  1  0
  5  6  2  0
  6  7  1  0
  7  8  1  0
  7  9  2  0
  9 10  1  0
 10 11  1  0
 11 12  1  0
 11 13  2  0
 11 14  2  0
  9 15  1  0
 15 16  2  0
 16 17  1  0
 17 18  1  0
 18 19  1  0
 19 20  1  0
 20 21  1  0
 21 22  1  0
 22 23  2  3
 23 24  1  0
 24 25  2  0
 25 26  1  0
 26 27  2  0
 27 28  1  0
 28 29  1  0
 27 30  1  0
 30 31  2  0
 22 32  1  0
 32 33  2  0
 33 34  1  0
 34 35  1  0
 16  5  1  0
 35 17  1  0
 34 20  2  0
 31 24  1  0
  1 36  1  0
  1 37  1  0
  1 38  1  0
  2 39  1  0
  6 40  1  0
 12 41  1  0
 12 42  1  0
 12 43  1  0
 15 44  1  0
 18 45  1  0
 18 46  1  0
 19 47  1  0
 19 48  1  0
 25 49  1  0
 26 50  1  0
 29 51  1  0
 29 52  1  0
 29 53  1  0
 30 54  1  0
 31 55  1  0
 33 56  1  0
 35 57  1  0
 35 58  1  0
M  CHG  2  10  -1  21  -1
M  END
>  <UniqueID>  (74) 
69

>  <SMILES>  (74) 
CNC(=O)c1cc(F)c([N-]S(C)(=O)=O)cc1N1CCc2[n-]c(=Nc3ccc(OC)cc3)ncc2C1

>  <Energy>  (74) 
78.81689253599035

>  <Genealogy>  (74) 
CNC(=O)c1cc(F)c([N-]S(C)(=O)=O)cc1N1CCc2[n-]c(=Nc3ccc(OC)cc3)ncc2C1 (protonated)
CNC(=O)c1cc(F)c([N-]S(C)(=O)=O)cc1N1CCc2[n-]c(=Nc3ccc(OC)cc3)ncc2C1 (3D coordinates assigned)
CNC(=O)c1cc(F)c([N-]S(C)(=O)=O)cc1N1CCc2[n-]c(=Nc3ccc(OC)cc3)ncc2C1 (nonaromatic ring conformer: 78.81689253599035 kcal/mol)

>  <smiles>  (74) 
CNC(=O)c1cc(F)c(NS(C)(=O)=O)cc1N1CCc2[nH]c(=Nc3ccc(OC)cc3)ncc2C1

>  <score_type>  (74) 
oracle

>  <origin>  (74) 
adg

>  <m_score__min__energy>  (74) 
-11.210000000000001

>  <m_primary>  (74) 
energy

$$$$
74:0
     RDKit          3D

 49 53  0  0  0  0  0  0  0  0999 V2000
   55.2300   29.5440   44.7750 O   0  0  0  0  0  0  0  0  0  0  0  0
   56.4410   29.6160   44.4280 C   0  0  0  0  0  0  0  0  0  0  0  0
   57.2210   28.4220   44.2410 N   0  0  0  0  0  0  0  0  0  0  0  0
   57.8090   27.7130   45.1620 C   0  0  0  0  0  0  0  0  0  0  0  0
   59.1690   27.6570   45.2530 N   0  0  0  0  0  0  0  0  0  0  0  0
   59.8000   26.9220   46.2070 C   0  0  0  0  0  0  0  0  0  0  0  0
   59.0550   26.1920   47.1320 C   0  0  0  0  0  0  0  0  0  0  0  0
   57.6610   26.2270   47.0660 C   0  0  0  0  0  0  0  0  0  0  0  0
   57.0270   26.9900   46.0780 C   0  0  0  0  0  0  0  0  0  0  0  0
   55.6350   27.0320   46.0020 O   0  0  0  0  0  0  0  0  0  0  0  0
   57.0620   30.9430   44.2060 C   0  0  0  0  0  0  0  0  0  0  0  0
   57.4940   31.3270   42.9220 C   0  0  0  0  0  0  0  0  0  0  0  0
   58.0850   32.5770   42.7160 C   0  0  0  0  0  0  0  0  0  0  0  0
   58.2540   33.4570   43.7850 C   0  0  0  0  0  0  0  0  0  0  0  0
   57.8320   33.0910   45.0680 C   0  0  0  0  0  0  0  0  0  0  0  0
   58.0600   34.2180   46.4420 S   0  0  0  0  0  0  0  0  0  0  0  0
   59.6440   33.5030   46.8810 C   0  0  0  0  0  0  0  0  0  0  0  0
   60.8140   34.2630   46.7630 C   0  0  0  0  0  0  0  0  0  0  0  0
   62.0510   33.7020   47.0940 C   0  0  0  0  0  0  0  0  0  0  0  0
   62.1300   32.3660   47.5340 C   0  0  0  0  0  0  0  0  0  0  0  0
   63.3770   31.7580   47.9110 N   0  0  0  0  0  0  0  0  0  0  0  0
   64.0720   32.0160   48.9800 C   0  0  0  0  0  0  0  0  0  0  0  0
   63.9910   31.2840   50.1250 N   0  0  0  0  0  0  0  0  0  0  0  0
   64.8370   31.9320   50.9380 C   0  0  0  0  0  0  0  0  0  0  0  0
   65.1560   31.6210   52.2590 C   0  0  0  0  0  0  0  0  0  0  0  0
   66.0750   32.4570   52.9210 C   0  0  0  0  0  0  0  0  0  0  0  0
   66.6410   33.5680   52.2560 C   0  0  0  0  0  0  0  0  0  0  0  0
   66.2920   33.8510   50.9210 C   0  0  0  0  0  0  0  0  0  0  0  0
   65.3810   33.0020   50.2980 C   0  0  0  0  0  0  0  0  0  0  0  0
   64.9070   33.0850   49.0450 N   0  0  0  0  0  0  0  0  0  0  0  0
   60.9500   31.6250   47.6830 C   0  0  0  0  0  0  0  0  0  0  0  0
   59.7130   32.1870   47.3500 C   0  0  0  0  0  0  0  0  0  0  0  0
   57.2350   31.8420   45.2770 C   0  0  0  0  0  0  0  0  0  0  0  0
   60.8990   26.9033   46.2490 H   0  0  0  0  0  0  0  0  0  0  0  0
   59.5601   25.5949   47.9055 H   0  0  0  0  0  0  0  0  0  0  0  0
   57.0612   25.6556   47.7897 H   0  0  0  0  0  0  0  0  0  0  0  0
   55.1590   27.5750   45.2910 H   0  0  0  0  0  0  0  0  0  0  0  0
   57.3654   30.6379   42.0743 H   0  0  0  0  0  0  0  0  0  0  0  0
   58.4176   32.8673   41.7085 H   0  0  0  0  0  0  0  0  0  0  0  0
   58.7195   34.4398   43.6193 H   0  0  0  0  0  0  0  0  0  0  0  0
   60.7598   35.3032   46.4093 H   0  0  0  0  0  0  0  0  0  0  0  0
   62.9664   34.3062   47.0105 H   0  0  0  0  0  0  0  0  0  0  0  0
   64.7062   30.7543   52.7654 H   0  0  0  0  0  0  0  0  0  0  0  0
   66.3545   32.2439   53.9633 H   0  0  0  0  0  0  0  0  0  0  0  0
   67.3575   34.2149   52.7834 H   0  0  0  0  0  0  0  0  0  0  0  0
   66.7237   34.7120   50.3896 H   0  0  0  0  0  0  0  0  0  0  0  0
   60.9967   30.5943   48.0644 H   0  0  0  0  0  0  0  0  0  0  0  0
   58.7933   31.5932   47.4571 H   0  0  0  0  0  0  0  0  0  0  0  0
   56.8983   31.5602   46.2856 H   0  0  0  0  0  0  0  0  0  0  0  0
  1  2  2  0
  2  3  1  0
  3  4  2  3
  4  5  1  0
  5  6  1  0
  6  7  2  0
  7  8  1  0
  8  9  2  0
  9 10  1  0
  2 11  1  0
 11 12  2  0
 12 13  1  0
 13 14  2  0
 14 15  1  0
 15 16  1  0
 16 17  1  0
 17 18  2  0
 18 19  1  0
 19 20  2  0
 20 21  1  0
 21 22  2  3
 22 23  1  0
 23 24  1  0
 24 25  2  0
 25 26  1  0
 26 27  2  0
 27 28  1  0
 28 29  2  0
 29 30  1  0
 20 31  1  0
 31 32  2  0
 15 33  2  0
  9  4  1  0
 33 11  1  0
 32 17  1  0
 30 22  1  0
 29 24  1  0
  6 34  1  0
  7 35  1  0
  8 36  1  0
 10 37  1  0
 12 38  1  0
 13 39  1  0
 14 40  1  0
 18 41  1  0
 19 42  1  0
 25 43  1  0
 26 44  1  0
 27 45  1  0
 28 46  1  0
 31 47  1  0
 32 48  1  0
 33 49  1  0
M  CHG  3   5  -1  23  -1  30  -1
M  END
>  <UniqueID>  (75) 
70

>  <SMILES>  (75) 
O=C(N=c1[n-]cccc1O)c1cccc(Sc2ccc(N=c3[n-]c4ccccc4[n-]3)cc2)c1

>  <Energy>  (75) 
96.27506369741182

>  <Genealogy>  (75) 
O=C(N=c1[n-]cccc1O)c1cccc(Sc2ccc(N=c3[n-]c4ccccc4[n-]3)cc2)c1 (protonated)
O=C(N=c1[n-]cccc1O)c1cccc(Sc2ccc(N=c3[n-]c4ccccc4[n-]3)cc2)c1 (3D coordinates assigned)
O=C(N=c1[n-]cccc1O)c1cccc(Sc2ccc(N=c3[n-]c4ccccc4[n-]3)cc2)c1 (optimized conformer: 96.27506369741182 kcal/mol)

>  <smiles>  (75) 
O=C(N=c1[nH]cccc1O)c1cccc(Sc2ccc(N=c3[nH]c4ccccc4[nH]3)cc2)c1

>  <score_type>  (75) 
oracle

>  <origin>  (75) 
adg

>  <m_score__min__energy>  (75) 
-13.26

>  <m_primary>  (75) 
energy

$$$$
75:0
     RDKit          3D

 50 52  0  0  0  0  0  0  0  0999 V2000
   58.9690   29.6430   44.9590 N   0  0  0  0  0  0  0  0  0  0  0  0
   58.9510   29.9290   46.0800 C   0  0  0  0  0  0  0  0  0  0  0  0
   58.9300   30.2890   47.4810 C   0  0  0  0  0  0  0  0  0  0  0  0
   58.8590   31.6350   47.9050 C   0  0  0  0  0  0  0  0  0  0  0  0
   58.8790   32.7750   46.9590 C   0  0  0  0  0  0  0  0  0  0  0  0
   57.7800   32.9990   46.1130 C   0  0  0  0  0  0  0  0  0  0  0  0
   57.7730   34.0870   45.2350 C   0  0  0  0  0  0  0  0  0  0  0  0
   58.8550   34.9690   45.2050 C   0  0  0  0  0  0  0  0  0  0  0  0
   59.9450   34.7680   46.0560 C   0  0  0  0  0  0  0  0  0  0  0  0
   59.9560   33.6810   46.9350 C   0  0  0  0  0  0  0  0  0  0  0  0
   58.7530   31.9060   49.2340 N   0  0  0  0  0  0  0  0  0  0  0  0
   58.7370   30.9150   50.1620 C   0  0  0  0  0  0  0  0  0  0  0  0
   58.5950   31.3200   51.9000 S   0  0  0  0  0  0  0  0  0  0  0  0
   56.9040   32.0000   51.7610 C   0  0  0  0  0  0  0  0  0  0  0  0
   55.9050   31.0980   52.4160 C   0  0  0  0  0  0  0  0  0  0  0  0
   54.6790   31.2200   52.1460 O   0  0  0  0  0  0  0  0  0  0  0  0
   56.3440   30.1060   53.3470 N   0  0  0  0  0  0  0  0  0  0  0  0
   56.2640   28.6790   53.0700 C   0  0  0  0  0  0  0  0  0  0  0  0
   55.3460   28.0090   54.0920 C   0  0  0  0  0  0  0  0  0  0  0  0
   53.9160   27.8220   53.5590 C   0  0  0  0  0  0  0  0  0  0  0  0
   52.8770   28.5320   54.3930 C   0  0  0  0  0  0  0  0  0  0  0  0
   52.9910   28.5390   55.6470 O   0  0  0  0  0  0  0  0  0  0  0  0
   51.6680   29.0400   53.8120 N   0  0  0  0  0  0  0  0  0  0  0  0
   51.5750   30.0460   52.7960 C   0  0  0  0  0  0  0  0  0  0  0  0
   52.0100   29.8010   51.4830 C   0  0  0  0  0  0  0  0  0  0  0  0
   51.9480   30.8130   50.5200 C   0  0  0  0  0  0  0  0  0  0  0  0
   51.4680   32.0800   50.8650 C   0  0  0  0  0  0  0  0  0  0  0  0
   51.4050   33.0840   49.9080 O   0  0  0  0  0  0  0  0  0  0  0  0
   51.0580   32.3370   52.1780 C   0  0  0  0  0  0  0  0  0  0  0  0
   51.1220   31.3260   53.1430 C   0  0  0  0  0  0  0  0  0  0  0  0
   58.8300   29.6190   49.7740 N   0  0  0  0  0  0  0  0  0  0  0  0
   58.9210   29.2840   48.4620 C   0  0  0  0  0  0  0  0  0  0  0  0
   58.9900   28.0680   48.1390 O   0  0  0  0  0  0  0  0  0  0  0  0
   56.9197   32.3141   46.1416 H   0  0  0  0  0  0  0  0  0  0  0  0
   56.9140   34.2484   44.5670 H   0  0  0  0  0  0  0  0  0  0  0  0
   58.8494   35.8225   44.5111 H   0  0  0  0  0  0  0  0  0  0  0  0
   60.7951   35.4657   46.0342 H   0  0  0  0  0  0  0  0  0  0  0  0
   60.8107   33.5329   47.6114 H   0  0  0  0  0  0  0  0  0  0  0  0
   56.8719   32.9856   52.2484 H   0  0  0  0  0  0  0  0  0  0  0  0
   56.6492   32.0876   50.6945 H   0  0  0  0  0  0  0  0  0  0  0  0
   55.8602   28.5245   52.0585 H   0  0  0  0  0  0  0  0  0  0  0  0
   57.2691   28.2370   53.1367 H   0  0  0  0  0  0  0  0  0  0  0  0
   55.7604   27.0223   54.3462 H   0  0  0  0  0  0  0  0  0  0  0  0
   55.2927   28.6625   54.9752 H   0  0  0  0  0  0  0  0  0  0  0  0
   53.8703   28.2156   52.5328 H   0  0  0  0  0  0  0  0  0  0  0  0
   53.6891   26.7463   53.5973 H   0  0  0  0  0  0  0  0  0  0  0  0
   52.4009   28.8093   51.2113 H   0  0  0  0  0  0  0  0  0  0  0  0
   52.2773   30.6120   49.4899 H   0  0  0  0  0  0  0  0  0  0  0  0
   50.6850   33.3350   52.4517 H   0  0  0  0  0  0  0  0  0  0  0  0
   50.8155   31.5367   54.1782 H   0  0  0  0  0  0  0  0  0  0  0  0
  1  2  3  0
  2  3  1  0
  3  4  2  0
  4  5  1  0
  5  6  2  0
  6  7  1  0
  7  8  2  0
  8  9  1  0
  9 10  2  0
  4 11  1  0
 11 12  1  0
 12 13  1  0
 13 14  1  0
 14 15  1  0
 15 16  2  0
 15 17  1  0
 17 18  1  0
 18 19  1  0
 19 20  1  0
 20 21  1  0
 21 22  2  0
 21 23  1  0
 23 24  1  0
 24 25  2  0
 25 26  1  0
 26 27  2  0
 27 28  1  0
 27 29  1  0
 29 30  2  0
 12 31  2  0
 31 32  1  0
 32 33  2  0
 32  3  1  0
 10  5  1  0
 30 24  1  0
  6 34  1  0
  7 35  1  0
  8 36  1  0
  9 37  1  0
 10 38  1  0
 14 39  1  0
 14 40  1  0
 18 41  1  0
 18 42  1  0
 19 43  1  0
 19 44  1  0
 20 45  1  0
 20 46  1  0
 25 47  1  0
 26 48  1  0
 29 49  1  0
 30 50  1  0
M  CHG  4  11  -1  17  -1  23  -1  28  -1
M  END
>  <UniqueID>  (76) 
71

>  <SMILES>  (76) 
N#Cc1c(-c2ccccc2)[n-]c(SCC(=O)[N-]CCCC(=O)[N-]c2ccc([O-])cc2)nc1=O

>  <Energy>  (76) 
54.71888070110256

>  <Genealogy>  (76) 
N#Cc1c(-c2ccccc2)[n-]c(SCC(=O)[N-]CCCC(=O)[N-]c2ccc([O-])cc2)nc1=O (protonated)
N#Cc1c(-c2ccccc2)[n-]c(SCC(=O)[N-]CCCC(=O)[N-]c2ccc([O-])cc2)nc1=O (3D coordinates assigned)
N#Cc1c(-c2ccccc2)[n-]c(SCC(=O)[N-]CCCC(=O)[N-]c2ccc([O-])cc2)nc1=O (optimized conformer: 54.71888070110256 kcal/mol)

>  <smiles>  (76) 
N#Cc1c(-c2ccccc2)[nH]c(SCC(=O)NCCCC(=O)Nc2ccc(O)cc2)nc1=O

>  <score_type>  (76) 
oracle

>  <origin>  (76) 
adg

>  <m_score__min__energy>  (76) 
-15.529999999999999

>  <m_primary>  (76) 
energy

$$$$
76:0
     RDKit          3D

 46 48  0  0  0  0  0  0  0  0999 V2000
   57.5510   31.2320   42.6100 O   0  0  0  0  0  0  0  0  0  0  0  0
   57.3060   30.7370   43.7430 C   0  0  0  0  0  0  0  0  0  0  0  0
   57.3320   29.2710   43.9310 C   0  0  0  0  0  0  0  0  0  0  0  0
   56.6400   28.6670   44.9070 C   0  0  0  0  0  0  0  0  0  0  0  0
   57.0620   27.3910   45.5290 C   0  0  0  0  0  0  0  0  0  0  0  0
   58.4380   27.1430   45.6720 C   0  0  0  0  0  0  0  0  0  0  0  0
   58.8870   25.9550   46.2540 C   0  0  0  0  0  0  0  0  0  0  0  0
   57.9700   25.0070   46.7110 C   0  0  0  0  0  0  0  0  0  0  0  0
   56.5960   25.2500   46.6110 C   0  0  0  0  0  0  0  0  0  0  0  0
   55.7020   24.2980   47.1010 O   0  0  0  0  0  0  0  0  0  0  0  0
   56.1370   26.4480   46.0350 C   0  0  0  0  0  0  0  0  0  0  0  0
   54.7710   26.7120   46.0070 O   0  0  0  0  0  0  0  0  0  0  0  0
   56.9430   31.6200   44.8120 N   0  0  0  0  0  0  0  0  0  0  0  0
   57.7110   32.7170   45.3280 C   0  0  0  0  0  0  0  0  0  0  0  0
   57.8710   33.8490   44.5210 C   0  0  0  0  0  0  0  0  0  0  0  0
   58.6490   34.9230   44.9540 C   0  0  0  0  0  0  0  0  0  0  0  0
   59.2840   34.8730   46.1950 C   0  0  0  0  0  0  0  0  0  0  0  0
   59.1540   33.7430   47.0160 C   0  0  0  0  0  0  0  0  0  0  0  0
   59.9870   33.7350   48.5840 S   0  0  0  0  0  0  0  0  0  0  0  0
   59.6550   34.9800   49.3600 O   0  0  0  0  0  0  0  0  0  0  0  0
   59.4840   32.5540   49.3750 O   0  0  0  0  0  0  0  0  0  0  0  0
   61.7300   33.6590   48.4180 N   0  0  0  0  0  0  0  0  0  0  0  0
   62.1310   33.3070   47.0500 C   0  0  0  0  0  0  0  0  0  0  0  0
   63.6670   33.3750   46.9280 C   0  0  0  0  0  0  0  0  0  0  0  0
   64.3080   33.4740   48.1900 O   0  0  0  0  0  0  0  0  0  0  0  0
   63.8130   32.4810   49.0660 C   0  0  0  0  0  0  0  0  0  0  0  0
   62.3220   32.7150   49.3810 C   0  0  0  0  0  0  0  0  0  0  0  0
   58.3890   32.6440   46.5650 C   0  0  0  0  0  0  0  0  0  0  0  0
   58.3340   31.4730   47.3150 O   0  0  0  0  0  0  0  0  0  0  0  0
   57.9381   28.6568   43.2487 H   0  0  0  0  0  0  0  0  0  0  0  0
   55.7140   29.1419   45.2632 H   0  0  0  0  0  0  0  0  0  0  0  0
   59.1666   27.8896   45.3232 H   0  0  0  0  0  0  0  0  0  0  0  0
   59.9662   25.7661   46.3524 H   0  0  0  0  0  0  0  0  0  0  0  0
   58.3292   24.0652   47.1515 H   0  0  0  0  0  0  0  0  0  0  0  0
   54.7050   24.4680   47.1390 H   0  0  0  0  0  0  0  0  0  0  0  0
   57.3796   33.8923   43.5378 H   0  0  0  0  0  0  0  0  0  0  0  0
   58.7620   35.8114   44.3153 H   0  0  0  0  0  0  0  0  0  0  0  0
   59.8912   35.7260   46.5323 H   0  0  0  0  0  0  0  0  0  0  0  0
   61.7902   32.2868   46.8195 H   0  0  0  0  0  0  0  0  0  0  0  0
   61.6764   34.0156   46.3420 H   0  0  0  0  0  0  0  0  0  0  0  0
   64.0215   32.4645   46.4226 H   0  0  0  0  0  0  0  0  0  0  0  0
   63.9172   34.2794   46.3539 H   0  0  0  0  0  0  0  0  0  0  0  0
   63.9304   31.4943   48.5942 H   0  0  0  0  0  0  0  0  0  0  0  0
   64.3814   32.5287   50.0066 H   0  0  0  0  0  0  0  0  0  0  0  0
   61.7857   31.7563   49.3236 H   0  0  0  0  0  0  0  0  0  0  0  0
   62.2359   33.1396   50.3921 H   0  0  0  0  0  0  0  0  0  0  0  0
  1  2  2  0
  2  3  1  0
  3  4  2  3
  4  5  1  0
  5  6  2  0
  6  7  1  0
  7  8  2  0
  8  9  1  0
  9 10  1  0
  9 11  2  0
 11 12  1  0
  2 13  1  0
 13 14  1  0
 14 15  2  0
 15 16  1  0
 16 17  2  0
 17 18  1  0
 18 19  1  0
 19 20  2  0
 19 21  2  0
 19 22  1  0
 22 23  1  0
 23 24  1  0
 24 25  1  0
 25 26  1  0
 26 27  1  0
 18 28  2  0
 28 29  1  0
 11  5  1  0
 28 14  1  0
 27 22  1  0
  3 30  1  0
  4 31  1  0
  6 32  1  0
  7 33  1  0
  8 34  1  0
 10 35  1  0
 15 36  1  0
 16 37  1  0
 17 38  1  0
 23 39  1  0
 23 40  1  0
 24 41  1  0
 24 42  1  0
 26 43  1  0
 26 44  1  0
 27 45  1  0
 27 46  1  0
M  CHG  3  12  -1  13  -1  29  -1
M  END
>  <UniqueID>  (77) 
72

>  <SMILES>  (77) 
O=C(C=Cc1cccc(O)c1[O-])[N-]c1cccc(S(=O)(=O)N2CCOCC2)c1[O-]

>  <Energy>  (77) 
67.99727963797321

>  <Genealogy>  (77) 
O=C(C=Cc1cccc(O)c1[O-])[N-]c1cccc(S(=O)(=O)N2CCOCC2)c1[O-] (protonated)
O=C(C=Cc1cccc(O)c1[O-])[N-]c1cccc(S(=O)(=O)N2CCOCC2)c1[O-] (3D coordinates assigned)
O=C(C=Cc1cccc(O)c1[O-])[N-]c1cccc(S(=O)(=O)N2CCOCC2)c1[O-] (nonaromatic ring conformer: 67.99727963797321 kcal/mol)

>  <smiles>  (77) 
O=C(C=Cc1cccc(O)c1O)Nc1cccc(S(=O)(=O)N2CCOCC2)c1O

>  <score_type>  (77) 
oracle

>  <origin>  (77) 
adg

>  <m_score__min__energy>  (77) 
-16.52

>  <m_primary>  (77) 
energy

$$$$
77:0
     RDKit          3D

 53 56  0  0  0  0  0  0  0  0999 V2000
   55.1010   19.8300   46.7250 C   0  0  0  0  0  0  0  0  0  0  0  0
   56.1340   19.0080   45.9650 C   0  0  0  0  0  0  0  0  0  0  0  0
   57.0410   19.8600   45.2680 O   0  0  0  0  0  0  0  0  0  0  0  0
   56.6460   20.7570   44.2680 C   0  0  0  0  0  0  0  0  0  0  0  0
   56.2610   20.3250   43.1460 O   0  0  0  0  0  0  0  0  0  0  0  0
   56.6770   22.2130   44.5320 C   0  0  0  0  0  0  0  0  0  0  0  0
   55.8450   23.0830   43.8090 C   0  0  0  0  0  0  0  0  0  0  0  0
   55.8710   24.4590   44.0590 C   0  0  0  0  0  0  0  0  0  0  0  0
   56.7150   24.9890   45.0430 C   0  0  0  0  0  0  0  0  0  0  0  0
   56.7380   26.4100   45.2640 N   0  0  0  0  0  0  0  0  0  0  0  0
   57.7470   27.0880   46.0290 C   0  0  0  0  0  0  0  0  0  0  0  0
   58.5060   26.4310   46.7910 O   0  0  0  0  0  0  0  0  0  0  0  0
   57.8910   28.5550   45.9280 C   0  0  0  0  0  0  0  0  0  0  0  0
   57.2960   29.4620   44.6320 S   0  0  0  0  0  0  0  0  0  0  0  0
   57.9120   30.9270   45.1570 C   0  0  0  0  0  0  0  0  0  0  0  0
   57.7810   32.1620   44.5450 C   0  0  0  0  0  0  0  0  0  0  0  0
   58.3610   33.2650   45.1750 C   0  0  0  0  0  0  0  0  0  0  0  0
   59.0340   33.1290   46.3650 N   0  0  0  0  0  0  0  0  0  0  0  0
   59.5860   34.3360   47.0030 C   0  0  0  0  0  0  0  0  0  0  0  0
   61.0210   34.1100   47.3990 C   0  0  0  0  0  0  0  0  0  0  0  0
   61.4140   34.2170   48.7440 C   0  0  0  0  0  0  0  0  0  0  0  0
   62.7550   34.0380   49.1020 C   0  0  0  0  0  0  0  0  0  0  0  0
   63.7100   33.7600   48.1210 C   0  0  0  0  0  0  0  0  0  0  0  0
   63.3290   33.6610   46.7810 C   0  0  0  0  0  0  0  0  0  0  0  0
   61.9900   33.8380   46.4180 C   0  0  0  0  0  0  0  0  0  0  0  0
   59.1490   31.8970   46.9740 C   0  0  0  0  0  0  0  0  0  0  0  0
   59.7350   31.7920   48.0850 O   0  0  0  0  0  0  0  0  0  0  0  0
   58.5940   30.7600   46.3510 C   0  0  0  0  0  0  0  0  0  0  0  0
   58.5920   29.4140   46.7960 C   0  0  0  0  0  0  0  0  0  0  0  0
   59.2100   28.9680   48.0100 N   0  0  0  0  0  0  0  0  0  0  0  0
   57.5660   24.1240   45.7520 C   0  0  0  0  0  0  0  0  0  0  0  0
   57.5420   22.7480   45.5040 C   0  0  0  0  0  0  0  0  0  0  0  0
   55.2572   19.7057   47.8067 H   0  0  0  0  0  0  0  0  0  0  0  0
   55.2091   20.8917   46.4585 H   0  0  0  0  0  0  0  0  0  0  0  0
   54.0907   19.4862   46.4585 H   0  0  0  0  0  0  0  0  0  0  0  0
   56.6967   18.3869   46.6775 H   0  0  0  0  0  0  0  0  0  0  0  0
   55.6127   18.3723   45.2342 H   0  0  0  0  0  0  0  0  0  0  0  0
   55.1684   22.6798   43.0411 H   0  0  0  0  0  0  0  0  0  0  0  0
   55.2227   25.1309   43.4775 H   0  0  0  0  0  0  0  0  0  0  0  0
   55.9200   26.9670   44.9280 H   0  0  0  0  0  0  0  0  0  0  0  0
   57.2383   32.2707   43.5944 H   0  0  0  0  0  0  0  0  0  0  0  0
   58.2777   34.2589   44.7110 H   0  0  0  0  0  0  0  0  0  0  0  0
   59.5332   35.1765   46.2954 H   0  0  0  0  0  0  0  0  0  0  0  0
   58.9984   34.5639   47.9046 H   0  0  0  0  0  0  0  0  0  0  0  0
   60.6653   34.4421   49.5178 H   0  0  0  0  0  0  0  0  0  0  0  0
   63.0574   34.1163   50.1567 H   0  0  0  0  0  0  0  0  0  0  0  0
   64.7635   33.6189   48.4044 H   0  0  0  0  0  0  0  0  0  0  0  0
   64.0830   33.4435   46.0101 H   0  0  0  0  0  0  0  0  0  0  0  0
   61.6943   33.7641   45.3611 H   0  0  0  0  0  0  0  0  0  0  0  0
   59.6240   29.6470   48.6840 H   0  0  0  0  0  0  0  0  0  0  0  0
   59.2480   27.9610   48.2710 H   0  0  0  0  0  0  0  0  0  0  0  0
   58.2550   24.5317   46.5064 H   0  0  0  0  0  0  0  0  0  0  0  0
   58.2043   22.0790   46.0731 H   0  0  0  0  0  0  0  0  0  0  0  0
  1  2  1  0
  2  3  1  0
  3  4  1  0
  4  5  2  0
  4  6  1  0
  6  7  2  0
  7  8  1  0
  8  9  2  0
  9 10  1  0
 10 11  1  0
 11 12  2  0
 11 13  1  0
 13 14  1  0
 14 15  1  0
 15 16  1  0
 16 17  2  0
 17 18  1  0
 18 19  1  0
 19 20  1  0
 20 21  2  0
 21 22  1  0
 22 23  2  0
 23 24  1  0
 24 25  2  0
 18 26  1  0
 26 27  2  0
 26 28  1  0
 28 29  1  0
 29 30  1  0
  9 31  1  0
 31 32  2  0
 32  6  1  0
 29 13  2  0
 28 15  2  0
 25 20  1  0
  1 33  1  0
  1 34  1  0
  1 35  1  0
  2 36  1  0
  2 37  1  0
  7 38  1  0
  8 39  1  0
 10 40  1  0
 16 41  1  0
 17 42  1  0
 19 43  1  0
 19 44  1  0
 21 45  1  0
 22 46  1  0
 23 47  1  0
 24 48  1  0
 25 49  1  0
 30 50  1  0
 30 51  1  0
 31 52  1  0
 32 53  1  0
M  END
>  <UniqueID>  (78) 
73

>  <SMILES>  (78) 
CCOC(=O)c1ccc(NC(=O)c2sc3ccn(Cc4ccccc4)c(=O)c3c2N)cc1

>  <Energy>  (78) 
95.6381380228377

>  <Genealogy>  (78) 
CCOC(=O)c1ccc(NC(=O)c2sc3ccn(Cc4ccccc4)c(=O)c3c2N)cc1 (3D coordinates assigned)
CCOC(=O)c1ccc(NC(=O)c2sc3ccn(Cc4ccccc4)c(=O)c3c2N)cc1 (optimized conformer: 95.6381380228377 kcal/mol)

>  <smiles>  (78) 
CCOC(=O)c1ccc(NC(=O)c2sc3ccn(Cc4ccccc4)c(=O)c3c2N)cc1

>  <score_type>  (78) 
oracle

>  <origin>  (78) 
adg

>  <m_score__min__energy>  (78) 
-8.6600000000000001

>  <m_primary>  (78) 
energy

$$$$
78:0
     RDKit          3D

 56 58  0  0  0  0  0  0  0  0999 V2000
   63.6810   33.8340   47.7630 C   0  0  0  0  0  0  0  0  0  0  0  0
   62.4540   32.9950   47.9670 C   0  0  0  0  0  0  0  0  0  0  0  0
   62.1950   31.9090   47.1240 C   0  0  0  0  0  0  0  0  0  0  0  0
   61.0420   31.1430   47.2980 C   0  0  0  0  0  0  0  0  0  0  0  0
   60.1140   31.4570   48.3050 C   0  0  0  0  0  0  0  0  0  0  0  0
   58.8980   30.5730   48.4780 C   0  0  0  0  0  0  0  0  0  0  0  0
   58.7130   29.7240   47.3050 N   0  0  0  0  0  0  0  0  0  0  0  0
   59.3880   28.4660   47.1500 C   0  0  0  0  0  0  0  0  0  0  0  0
   60.2580   28.1040   47.9880 O   0  0  0  0  0  0  0  0  0  0  0  0
   59.0450   27.5580   46.0010 C   0  0  1  0  0  0  0  0  0  0  0  0
   59.2500   26.0840   46.3790 C   0  0  0  0  0  0  0  0  0  0  0  0
   57.8960   25.4290   46.1990 C   0  0  0  0  0  0  0  0  0  0  0  0
   57.1210   26.3920   45.3240 C   0  0  0  0  0  0  0  0  0  0  0  0
   57.6300   27.7330   45.6360 N   0  0  0  0  0  0  0  0  0  0  0  0
   57.4580   28.6770   44.5130 C   0  0  0  0  0  0  0  0  0  0  0  0
   56.3940   29.6970   44.8260 C   0  0  0  0  0  0  0  0  0  0  0  0
   55.1860   29.3420   44.8560 O   0  0  0  0  0  0  0  0  0  0  0  0
   56.7200   31.0500   45.1620 N   0  0  0  0  0  0  0  0  0  0  0  0
   57.4170   31.9770   44.2780 C   0  0  0  0  0  0  0  0  0  0  0  0
   58.1010   33.0300   45.1010 C   0  0  0  0  0  0  0  0  0  0  0  0
   59.0170   33.9130   44.5050 C   0  0  0  0  0  0  0  0  0  0  0  0
   59.6270   34.9140   45.2670 C   0  0  0  0  0  0  0  0  0  0  0  0
   59.3220   35.0470   46.6240 C   0  0  0  0  0  0  0  0  0  0  0  0
   58.4000   34.1810   47.2210 C   0  0  0  0  0  0  0  0  0  0  0  0
   57.7870   33.1790   46.4620 C   0  0  0  0  0  0  0  0  0  0  0  0
   60.3550   32.5770   49.1410 C   0  0  0  0  0  0  0  0  0  0  0  0
   59.4100   32.9560   50.2540 C   0  0  0  0  0  0  0  0  0  0  0  0
   61.5280   33.3320   48.9630 C   0  0  0  0  0  0  0  0  0  0  0  0
   64.0973   34.1186   48.7406 H   0  0  0  0  0  0  0  0  0  0  0  0
   64.4296   33.2579   47.1994 H   0  0  0  0  0  0  0  0  0  0  0  0
   63.4157   34.7406   47.1994 H   0  0  0  0  0  0  0  0  0  0  0  0
   62.9033   31.6580   46.3207 H   0  0  0  0  0  0  0  0  0  0  0  0
   60.8572   30.2823   46.6384 H   0  0  0  0  0  0  0  0  0  0  0  0
   59.0348   29.9387   49.3662 H   0  0  0  0  0  0  0  0  0  0  0  0
   58.0094   31.2097   48.6005 H   0  0  0  0  0  0  0  0  0  0  0  0
   58.0570   30.0450   46.5580 H   0  0  0  0  0  0  0  0  0  0  0  0
   59.7059   27.8195   45.1614 H   0  0  0  0  0  0  0  0  0  0  0  0
   59.9942   25.6171   45.7170 H   0  0  0  0  0  0  0  0  0  0  0  0
   59.6233   25.9742   47.4079 H   0  0  0  0  0  0  0  0  0  0  0  0
   57.9996   24.4519   45.7045 H   0  0  0  0  0  0  0  0  0  0  0  0
   57.3929   25.2389   47.1586 H   0  0  0  0  0  0  0  0  0  0  0  0
   57.2868   26.1593   44.2618 H   0  0  0  0  0  0  0  0  0  0  0  0
   56.0395   26.3211   45.5119 H   0  0  0  0  0  0  0  0  0  0  0  0
   58.4107   29.1952   44.3290 H   0  0  0  0  0  0  0  0  0  0  0  0
   57.1504   28.1105   43.6217 H   0  0  0  0  0  0  0  0  0  0  0  0
   58.1657   31.4286   43.6875 H   0  0  0  0  0  0  0  0  0  0  0  0
   56.6936   32.4526   43.5994 H   0  0  0  0  0  0  0  0  0  0  0  0
   59.2550   33.8165   43.4354 H   0  0  0  0  0  0  0  0  0  0  0  0
   60.3487   35.5984   44.7971 H   0  0  0  0  0  0  0  0  0  0  0  0
   59.8067   35.8324   47.2226 H   0  0  0  0  0  0  0  0  0  0  0  0
   58.1569   34.2882   48.2884 H   0  0  0  0  0  0  0  0  0  0  0  0
   57.0561   32.5050   46.9326 H   0  0  0  0  0  0  0  0  0  0  0  0
   59.8905   32.7633   51.2245 H   0  0  0  0  0  0  0  0  0  0  0  0
   59.1595   34.0241   50.1745 H   0  0  0  0  0  0  0  0  0  0  0  0
   58.4909   32.3569   50.1745 H   0  0  0  0  0  0  0  0  0  0  0  0
   61.7209   34.1977   49.6137 H   0  0  0  0  0  0  0  0  0  0  0  0
  1  2  1  0
  2  3  2  0
  3  4  1  0
  4  5  2  0
  5  6  1  0
  6  7  1  0
  7  8  1  0
  8  9  2  0
  8 10  1  0
 10 11  1  0
 11 12  1  0
 12 13  1  0
 13 14  1  0
 14 15  1  0
 15 16  1  0
 16 17  2  0
 16 18  1  0
 18 19  1  0
 19 20  1  0
 20 21  2  0
 21 22  1  0
 22 23  2  0
 23 24  1  0
 24 25  2  0
  5 26  1  0
 26 27  1  0
 26 28  2  0
 28  2  1  0
 14 10  1  0
 25 20  1  0
  1 29  1  0
  1 30  1  0
  1 31  1  0
  3 32  1  0
  4 33  1  0
  6 34  1  0
  6 35  1  0
  7 36  1  0
 10 37  1  6
 11 38  1  0
 11 39  1  0
 12 40  1  0
 12 41  1  0
 13 42  1  0
 13 43  1  0
 15 44  1  0
 15 45  1  0
 19 46  1  0
 19 47  1  0
 21 48  1  0
 22 49  1  0
 23 50  1  0
 24 51  1  0
 25 52  1  0
 27 53  1  0
 27 54  1  0
 27 55  1  0
 28 56  1  0
M  CHG  1  18  -1
M  END
>  <UniqueID>  (79) 
74

>  <SMILES>  (79) 
Cc1ccc(CNC(=O)[C@H]2CCCN2CC(=O)[N-]Cc2ccccc2)c(C)c1

>  <Energy>  (79) 
52.82745339418723

>  <Genealogy>  (79) 
Cc1ccc(CNC(=O)C2CCCN2CC(=O)[N-]Cc2ccccc2)c(C)c1 (protonated)
Cc1ccc(CNC(=O)[C@H]2CCCN2CC(=O)[N-]Cc2ccccc2)c(C)c1 (chirality)
Cc1ccc(CNC(=O)[C@H]2CCCN2CC(=O)[N-]Cc2ccccc2)c(C)c1 (3D coordinates assigned)
Cc1ccc(CNC(=O)[C@H]2CCCN2CC(=O)[N-]Cc2ccccc2)c(C)c1 (nonaromatic ring conformer: 52.82745339418723 kcal/mol)

>  <smiles>  (79) 
Cc1ccc(CNC(=O)C2CCCN2CC(=O)NCc2ccccc2)c(C)c1

>  <score_type>  (79) 
oracle

>  <origin>  (79) 
adg

>  <m_score__min__energy>  (79) 
-11.09

>  <m_primary>  (79) 
energy

$$$$
79:0
     RDKit          3D

 49 52  0  0  0  0  0  0  0  0999 V2000
   59.1781   29.7580   47.6402 H   0  0  0  0  0  0  0  0  0  0  0  0
   58.8660   28.8700   47.0710 C   0  0  0  0  0  0  0  0  0  0  0  0
   58.9238   27.8729   47.5319 H   0  0  0  0  0  0  0  0  0  0  0  0
   58.4150   29.0030   45.8150 C   0  0  0  0  0  0  0  0  0  0  0  0
   57.9800   27.9800   44.9560 C   0  0  0  0  0  0  0  0  0  0  0  0
   58.0920   26.6410   45.0480 C   0  0  0  0  0  0  0  0  0  0  0  0
   58.7606   26.1418   44.3312 H   0  0  0  0  0  0  0  0  0  0  0  0
   57.3960   25.7880   46.0260 C   0  0  0  0  0  0  0  0  0  0  0  0
   57.9400   24.7150   46.6320 N   0  0  0  0  0  0  0  0  0  0  0  0
   56.9020   24.1830   47.3130 C   0  0  0  0  0  0  0  0  0  0  0  0
   57.0170   23.1560   48.0300 O   0  0  0  0  0  0  0  0  0  0  0  0
   55.7280   24.8330   47.1550 N   0  0  0  0  0  0  0  0  0  0  0  0
   56.0570   25.8360   46.3260 C   0  0  0  0  0  0  0  0  0  0  0  0
   55.1510   26.7740   45.8490 O   0  0  0  0  0  0  0  0  0  0  0  0
   57.3750   28.6090   43.8790 C   0  0  0  0  0  0  0  0  0  0  0  0
   56.8716   28.1193   43.0324 H   0  0  0  0  0  0  0  0  0  0  0  0
   57.5250   29.9660   44.0720 C   0  0  0  0  0  0  0  0  0  0  0  0
   57.0350   31.0210   43.1270 C   0  0  0  0  0  0  0  0  0  0  0  0
   56.6397   31.8722   43.7007 H   0  0  0  0  0  0  0  0  0  0  0  0
   57.8674   31.3609   42.4933 H   0  0  0  0  0  0  0  0  0  0  0  0
   56.2383   30.6042   42.4933 H   0  0  0  0  0  0  0  0  0  0  0  0
   58.1500   30.2060   45.2450 N   0  0  0  0  0  0  0  0  0  0  0  0
   58.4460   31.5050   45.7890 C   0  0  0  0  0  0  0  0  0  0  0  0
   59.7000   31.7510   46.3660 C   0  0  0  0  0  0  0  0  0  0  0  0
   60.4478   30.9456   46.4116 H   0  0  0  0  0  0  0  0  0  0  0  0
   60.0070   33.0160   46.8850 C   0  0  0  0  0  0  0  0  0  0  0  0
   61.5960   33.3260   47.5870 S   0  0  0  0  0  0  0  0  0  0  0  0
   62.5950   33.5190   46.4790 O   0  0  0  0  0  0  0  0  0  0  0  0
   61.5420   34.5980   48.3890 O   0  0  0  0  0  0  0  0  0  0  0  0
   62.1190   32.0150   48.6140 N   0  0  0  0  0  0  0  0  0  0  0  0
   61.0500   31.6350   49.5480 C   0  0  0  0  0  0  0  0  0  0  0  0
   60.7962   32.4972   50.1823 H   0  0  0  0  0  0  0  0  0  0  0  0
   60.1644   31.3206   48.9764 H   0  0  0  0  0  0  0  0  0  0  0  0
   61.5220   30.4650   50.4390 C   0  0  0  0  0  0  0  0  0  0  0  0
   61.3635   30.7366   51.4931 H   0  0  0  0  0  0  0  0  0  0  0  0
   60.9390   29.5742   50.1621 H   0  0  0  0  0  0  0  0  0  0  0  0
   62.8940   30.1630   50.2470 O   0  0  0  0  0  0  0  0  0  0  0  0
   63.6710   31.3320   50.4230 C   0  0  0  0  0  0  0  0  0  0  0  0
   63.4709   31.7486   51.4212 H   0  0  0  0  0  0  0  0  0  0  0  0
   64.7326   31.0627   50.3200 H   0  0  0  0  0  0  0  0  0  0  0  0
   63.3320   32.3940   49.3580 C   0  0  0  0  0  0  0  0  0  0  0  0
   63.1644   33.3617   49.8534 H   0  0  0  0  0  0  0  0  0  0  0  0
   64.1720   32.4678   48.6517 H   0  0  0  0  0  0  0  0  0  0  0  0
   59.0450   34.0350   46.8350 C   0  0  0  0  0  0  0  0  0  0  0  0
   59.2783   35.0297   47.2427 H   0  0  0  0  0  0  0  0  0  0  0  0
   57.7910   33.7910   46.2690 C   0  0  0  0  0  0  0  0  0  0  0  0
   57.0398   34.5937   46.2340 H   0  0  0  0  0  0  0  0  0  0  0  0
   57.4880   32.5300   45.7470 C   0  0  0  0  0  0  0  0  0  0  0  0
   56.2590   32.3020   45.2210 F   0  0  0  0  0  0  0  0  0  0  0  0
  1  2  1  0
  2  3  1  0
  2  4  2  0
  4  5  1  0
  5  6  2  0
  6  7  1  0
  6  8  1  0
  8  9  1  0
  9 10  1  0
 10 11  2  0
 10 12  1  0
 12 13  1  0
 13 14  1  0
  5 15  1  0
 15 16  1  0
 15 17  2  0
 17 18  1  0
 18 19  1  0
 18 20  1  0
 18 21  1  0
 17 22  1  0
 22 23  1  0
 23 24  2  0
 24 25  1  0
 24 26  1  0
 26 27  1  0
 27 28  2  0
 27 29  2  0
 27 30  1  0
 30 31  1  0
 31 32  1  0
 31 33  1  0
 31 34  1  0
 34 35  1  0
 34 36  1  0
 34 37  1  0
 37 38  1  0
 38 39  1  0
 38 40  1  0
 38 41  1  0
 41 42  1  0
 41 43  1  0
 26 44  2  0
 44 45  1  0
 44 46  1  0
 46 47  1  0
 46 48  2  0
 48 49  1  0
 22  4  1  0
 48 23  1  0
 13  8  2  0
 41 30  1  0
M  CHG  3   9  -1  12  -1  14  -1
M  END
>  <UniqueID>  (80) 
75

>  <SMILES>  (80) 
C=c1/c(=C\c2[n-]c(=O)[n-]c2[O-])cc(C)n1-c1cc(S(=O)(=O)N2CCOCC2)ccc1F

>  <Energy>  (80) 
133.84070783433629

>  <Genealogy>  (80) 
C=c1c(=Cc2[n-]c(=O)[n-]c2[O-])cc(C)n1-c1cc(S(=O)(=O)N2CCOCC2)ccc1F (protonated)
C=c1/c(=C\c2[n-]c(=O)[n-]c2[O-])cc(C)n1-c1cc(S(=O)(=O)N2CCOCC2)ccc1F (cis-trans isomerization)
C=c1/c(=C\c2[n-]c(=O)[n-]c2[O-])cc(C)n1-c1cc(S(=O)(=O)N2CCOCC2)ccc1F (3D coordinates assigned)
C=c1/c(=C\c2[n-]c(=O)[n-]c2[O-])cc(C)n1-c1cc(S(=O)(=O)N2CCOCC2)ccc1F (nonaromatic ring conformer: 133.84070783433629 kcal/mol)

>  <smiles>  (80) 
C=c1c(=Cc2[nH]c(=O)[nH]c2O)cc(C)n1-c1cc(S(=O)(=O)N2CCOCC2)ccc1F

>  <score_type>  (80) 
oracle

>  <origin>  (80) 
adg

>  <m_score__min__energy>  (80) 
-16.609999999999999

>  <m_primary>  (80) 
energy

$$$$
80:0
     RDKit          3D

 27 27  0  0  0  0  0  0  0  0999 V2000
   57.8610   27.7320   47.3720 O   0  0  0  0  0  0  0  0  0  0  0  0
   57.8230   26.8900   46.4900 C   0  0  0  0  0  0  0  0  0  0  0  0
   56.6840   26.8730   45.5090 C   0  0  2  0  0  0  0  0  0  0  0  0
   56.1760   28.2300   45.2910 N   0  0  0  0  0  0  0  0  0  0  0  0
   57.0270   29.3160   44.9110 C   0  0  0  0  0  0  0  0  0  0  0  0
   58.2750   29.1500   44.8260 O   0  0  0  0  0  0  0  0  0  0  0  0
   56.4600   30.5630   44.6330 O   0  0  0  0  0  0  0  0  0  0  0  0
   57.1040   31.5350   43.8160 C   0  0  0  0  0  0  0  0  0  0  0  0
   57.7430   32.5720   44.6920 C   0  0  0  0  0  0  0  0  0  0  0  0
   57.6630   32.4640   46.0900 C   0  0  0  0  0  0  0  0  0  0  0  0
   58.2900   33.4110   46.9060 C   0  0  0  0  0  0  0  0  0  0  0  0
   59.0100   34.4620   46.3340 C   0  0  0  0  0  0  0  0  0  0  0  0
   59.1080   34.5670   44.9430 C   0  0  0  0  0  0  0  0  0  0  0  0
   58.4820   33.6220   44.1230 C   0  0  0  0  0  0  0  0  0  0  0  0
   55.5810   26.0000   46.0280 C   0  0  0  0  0  0  0  0  0  0  0  0
   54.3780   26.3300   45.8540 O   0  0  0  0  0  0  0  0  0  0  0  0
   55.8790   24.8150   46.6900 O   0  0  0  0  0  0  0  0  0  0  0  0
   58.6247   26.1409   46.4123 H   0  0  0  0  0  0  0  0  0  0  0  0
   57.0497   26.4730   44.5518 H   0  0  0  0  0  0  0  0  0  0  0  0
   55.1430   28.3930   45.2640 H   0  0  0  0  0  0  0  0  0  0  0  0
   57.8750   31.0466   43.2019 H   0  0  0  0  0  0  0  0  0  0  0  0
   56.3635   32.0131   43.1579 H   0  0  0  0  0  0  0  0  0  0  0  0
   57.1054   31.6319   46.5446 H   0  0  0  0  0  0  0  0  0  0  0  0
   58.2159   33.3279   48.0003 H   0  0  0  0  0  0  0  0  0  0  0  0
   59.5001   35.2073   46.9777 H   0  0  0  0  0  0  0  0  0  0  0  0
   59.6778   35.3934   44.4931 H   0  0  0  0  0  0  0  0  0  0  0  0
   58.5689   33.7016   43.0293 H   0  0  0  0  0  0  0  0  0  0  0  0
  1  2  2  0
  2  3  1  0
  3  4  1  0
  4  5  1  0
  5  6  2  0
  5  7  1  0
  7  8  1  0
  8  9  1  0
  9 10  2  0
 10 11  1  0
 11 12  2  0
 12 13  1  0
 13 14  2  0
  3 15  1  0
 15 16  2  0
 15 17  1  0
 14  9  1  0
  2 18  1  0
  3 19  1  6
  4 20  1  0
  8 21  1  0
  8 22  1  0
 10 23  1  0
 11 24  1  0
 12 25  1  0
 13 26  1  0
 14 27  1  0
M  CHG  1  17  -1
M  END
>  <UniqueID>  (81) 
76

>  <SMILES>  (81) 
O=C[C@H](NC(=O)OCc1ccccc1)C(=O)[O-]

>  <Energy>  (81) 
20.123032321697924

>  <Genealogy>  (81) 
O=CC(NC(=O)OCc1ccccc1)C(=O)[O-] (protonated)
O=C[C@H](NC(=O)OCc1ccccc1)C(=O)[O-] (chirality)
O=C[C@H](NC(=O)OCc1ccccc1)C(=O)[O-] (3D coordinates assigned)
O=C[C@H](NC(=O)OCc1ccccc1)C(=O)[O-] (optimized conformer: 20.123032321697924 kcal/mol)

>  <smiles>  (81) 
O=CC(NC(=O)OCc1ccccc1)C(=O)O

>  <score_type>  (81) 
oracle

>  <origin>  (81) 
adg

>  <m_score__min__energy>  (81) 
-9.2899999999999991

>  <m_primary>  (81) 
energy

$$$$
81:0
     RDKit          3D

 40 43  0  0  0  0  0  0  0  0999 V2000
   61.5160   29.7540   50.1410 C   0  0  0  0  0  0  0  0  0  0  0  0
   61.0560   30.5480   49.0050 N   0  0  0  0  0  0  0  0  0  0  0  0
   59.9200   30.3500   48.2960 C   0  0  0  0  0  0  0  0  0  0  0  0
   59.8200   31.2940   47.2790 C   0  0  0  0  0  0  0  0  0  0  0  0
   58.7050   31.4090   46.3180 C   0  0  0  0  0  0  0  0  0  0  0  0
   58.0640   30.4170   45.6940 C   0  0  0  0  0  0  0  0  0  0  0  0
   58.3780   28.9720   45.7400 C   0  0  0  0  0  0  0  0  0  0  0  0
   57.3360   28.0430   45.8940 C   0  0  0  0  0  0  0  0  0  0  0  0
   57.6100   26.6720   45.9740 C   0  0  0  0  0  0  0  0  0  0  0  0
   56.2970   25.5180   46.1820 S   0  0  0  0  0  0  0  0  0  0  0  0
   54.7840   26.3200   45.9580 N   0  0  0  0  0  0  0  0  0  0  0  0
   56.3530   24.9290   47.5630 O   0  0  0  0  0  0  0  0  0  0  0  0
   56.4300   24.4060   45.1790 O   0  0  0  0  0  0  0  0  0  0  0  0
   58.9330   26.2230   45.8690 C   0  0  0  0  0  0  0  0  0  0  0  0
   59.9720   27.1380   45.6910 C   0  0  0  0  0  0  0  0  0  0  0  0
   59.7020   28.5070   45.6230 C   0  0  0  0  0  0  0  0  0  0  0  0
   60.7260   29.3710   45.4050 F   0  0  0  0  0  0  0  0  0  0  0  0
   57.0180   31.0300   44.8730 C   0  0  0  0  0  0  0  0  0  0  0  0
   56.2170   30.3970   44.1360 O   0  0  0  0  0  0  0  0  0  0  0  0
   57.0220   32.4480   44.9760 N   0  0  0  0  0  0  0  0  0  0  0  0
   58.0960   32.6640   45.8840 C   0  0  0  0  0  0  0  0  0  0  0  0
   58.4510   33.8100   46.2670 O   0  0  0  0  0  0  0  0  0  0  0  0
   60.9630   32.0720   47.3700 C   0  0  0  0  0  0  0  0  0  0  0  0
   61.4390   33.1130   46.5710 C   0  0  0  0  0  0  0  0  0  0  0  0
   62.6690   33.7000   46.9150 C   0  0  0  0  0  0  0  0  0  0  0  0
   63.4020   33.2250   48.0240 C   0  0  0  0  0  0  0  0  0  0  0  0
   62.9160   32.1540   48.7940 C   0  0  0  0  0  0  0  0  0  0  0  0
   61.6870   31.5930   48.4350 C   0  0  0  0  0  0  0  0  0  0  0  0
   61.2271   30.2527   51.0779 H   0  0  0  0  0  0  0  0  0  0  0  0
   61.0566   28.7554   50.1004 H   0  0  0  0  0  0  0  0  0  0  0  0
   62.6109   29.6558   50.1004 H   0  0  0  0  0  0  0  0  0  0  0  0
   59.1831   29.5579   48.4950 H   0  0  0  0  0  0  0  0  0  0  0  0
   56.2956   28.3954   45.9523 H   0  0  0  0  0  0  0  0  0  0  0  0
   54.7400   27.0890   46.6640 H   0  0  0  0  0  0  0  0  0  0  0  0
   59.1535   25.1469   45.9270 H   0  0  0  0  0  0  0  0  0  0  0  0
   61.0083   26.7794   45.6039 H   0  0  0  0  0  0  0  0  0  0  0  0
   60.8685   33.4635   45.6982 H   0  0  0  0  0  0  0  0  0  0  0  0
   63.0628   34.5346   46.3164 H   0  0  0  0  0  0  0  0  0  0  0  0
   64.3603   33.6963   48.2875 H   0  0  0  0  0  0  0  0  0  0  0  0
   63.4855   31.7691   49.6528 H   0  0  0  0  0  0  0  0  0  0  0  0
  1  2  1  0
  2  3  1  0
  3  4  2  0
  4  5  1  0
  5  6  2  0
  6  7  1  0
  7  8  2  0
  8  9  1  0
  9 10  1  0
 10 11  1  0
 10 12  2  0
 10 13  2  0
  9 14  2  0
 14 15  1  0
 15 16  2  0
 16 17  1  0
  6 18  1  0
 18 19  2  0
 18 20  1  0
 20 21  1  0
 21 22  2  0
  4 23  1  0
 23 24  2  0
 24 25  1  0
 25 26  2  0
 26 27  1  0
 27 28  2  0
 28  2  1  0
 21  5  1  0
 28 23  1  0
 16  7  1  0
  1 29  1  0
  1 30  1  0
  1 31  1  0
  3 32  1  0
  8 33  1  0
 11 34  1  0
 14 35  1  0
 15 36  1  0
 24 37  1  0
 25 38  1  0
 26 39  1  0
 27 40  1  0
M  CHG  2  11  -1  20  -1
M  END
>  <UniqueID>  (82) 
77

>  <SMILES>  (82) 
Cn1cc(C2=C(c3cc(S([NH-])(=O)=O)ccc3F)C(=O)[N-]C2=O)c2ccccc21

>  <Energy>  (82) 
110.88899420982744

>  <Genealogy>  (82) 
Cn1cc(C2=C(c3cc(S([NH-])(=O)=O)ccc3F)C(=O)[N-]C2=O)c2ccccc21 (protonated)
Cn1cc(C2=C(c3cc(S([NH-])(=O)=O)ccc3F)C(=O)[N-]C2=O)c2ccccc21 (3D coordinates assigned)
Cn1cc(C2=C(c3cc(S([NH-])(=O)=O)ccc3F)C(=O)[N-]C2=O)c2ccccc21 (nonaromatic ring conformer: 110.88899420982744 kcal/mol)

>  <smiles>  (82) 
Cn1cc(C2=C(c3cc(S(N)(=O)=O)ccc3F)C(=O)NC2=O)c2ccccc21

>  <score_type>  (82) 
oracle

>  <origin>  (82) 
adg

>  <m_score__min__energy>  (82) 
-13.609999999999999

>  <m_primary>  (82) 
energy

$$$$
82:0
     RDKit          3D

 22 23  0  0  0  0  0  0  0  0999 V2000
   59.6950   29.0640   45.9130 C   0  0  0  0  0  0  0  0  0  0  0  0
   58.5840   29.6280   45.4190 C   0  0  0  0  0  0  0  0  0  0  0  0
   58.5440   30.9880   45.4290 N   0  0  0  0  0  0  0  0  0  0  0  0
   57.4180   31.6780   45.1400 C   0  0  0  0  0  0  0  0  0  0  0  0
   57.4290   32.9360   45.1550 O   0  0  0  0  0  0  0  0  0  0  0  0
   56.2740   31.0150   44.8590 N   0  0  0  0  0  0  0  0  0  0  0  0
   56.2380   29.6600   44.8020 C   0  0  0  0  0  0  0  0  0  0  0  0
   55.1400   29.1030   44.5240 O   0  0  0  0  0  0  0  0  0  0  0  0
   57.4180   28.8990   45.0100 C   0  0  0  0  0  0  0  0  0  0  0  0
   57.3730   27.5570   44.7780 C   0  0  0  0  0  0  0  0  0  0  0  0
   57.3440   26.4850   45.8010 C   0  0  0  0  0  0  0  0  0  0  0  0
   56.1230   26.0770   46.3560 C   0  0  0  0  0  0  0  0  0  0  0  0
   54.9350   26.7020   45.9940 O   0  0  0  0  0  0  0  0  0  0  0  0
   56.0940   25.0700   47.2670 N   0  0  0  0  0  0  0  0  0  0  0  0
   57.2310   24.4310   47.6430 C   0  0  0  0  0  0  0  0  0  0  0  0
   57.1800   23.5040   48.4920 O   0  0  0  0  0  0  0  0  0  0  0  0
   58.4220   24.7860   47.0980 N   0  0  0  0  0  0  0  0  0  0  0  0
   58.5050   25.7860   46.1820 C   0  0  0  0  0  0  0  0  0  0  0  0
   59.6240   26.0660   45.6750 O   0  0  0  0  0  0  0  0  0  0  0  0
   59.7927   27.9686   45.9348 H   0  0  0  0  0  0  0  0  0  0  0  0
   60.5091   29.6966   46.2967 H   0  0  0  0  0  0  0  0  0  0  0  0
   57.3565   27.2372   43.7257 H   0  0  0  0  0  0  0  0  0  0  0  0
  1  2  2  0
  2  3  1  0
  3  4  1  0
  4  5  2  0
  4  6  1  0
  6  7  1  0
  7  8  2  0
  7  9  1  0
  9 10  2  3
 10 11  1  0
 11 12  2  0
 12 13  1  0
 12 14  1  0
 14 15  1  0
 15 16  2  0
 15 17  1  0
 17 18  1  0
 18 19  2  0
  9  2  1  0
 18 11  1  0
  1 20  1  0
  1 21  1  0
 10 22  1  0
M  CHG  5   3  -1   6  -1  13  -1  14  -1  17  -1
M  END
>  <UniqueID>  (83) 
78

>  <SMILES>  (83) 
C=c1[n-]c(=O)[n-]c(=O)c1=Cc1c([O-])[n-]c(=O)[n-]c1=O

>  <Energy>  (83) 
49.59677275012278

>  <Genealogy>  (83) 
C=c1[n-]c(=O)[n-]c(=O)c1=Cc1c([O-])[n-]c(=O)[n-]c1=O (protonated)
C=c1[n-]c(=O)[n-]c(=O)c1=Cc1c([O-])[n-]c(=O)[n-]c1=O (3D coordinates assigned)
C=c1[n-]c(=O)[n-]c(=O)c1=Cc1c([O-])[n-]c(=O)[n-]c1=O (optimized conformer: 49.59677275012278 kcal/mol)

>  <smiles>  (83) 
C=c1[nH]c(=O)[nH]c(=O)c1=Cc1c(O)[nH]c(=O)[nH]c1=O

>  <score_type>  (83) 
oracle

>  <origin>  (83) 
adg

>  <m_score__min__energy>  (83) 
-16.600000000000001

>  <m_primary>  (83) 
energy

$$$$
83:0
     RDKit          3D

 45 47  0  0  0  0  0  0  0  0999 V2000
   56.4440   20.7620   43.5230 N   0  0  0  0  0  0  0  0  0  0  0  0
   57.0750   21.7300   44.0750 C   0  0  0  0  0  0  0  0  0  0  0  0
   58.3580   21.7280   44.4190 N   0  0  0  0  0  0  0  0  0  0  0  0
   58.9790   22.7940   45.0070 C   0  0  0  0  0  0  0  0  0  0  0  0
   60.2090   22.6510   45.2770 N   0  0  0  0  0  0  0  0  0  0  0  0
   58.2430   23.9310   45.2560 C   0  0  0  0  0  0  0  0  0  0  0  0
   58.8340   25.0160   45.8460 C   0  0  0  0  0  0  0  0  0  0  0  0
   58.0730   26.1220   46.0820 C   0  0  0  0  0  0  0  0  0  0  0  0
   58.5700   27.3780   46.7140 C   0  0  0  0  0  0  0  0  0  0  0  0
   59.3090   28.1240   45.6320 C   0  0  0  0  0  0  0  0  0  0  0  0
   58.6800   29.3440   45.2120 N   0  0  0  0  0  0  0  0  0  0  0  0
   57.7190   29.2870   44.1540 C   0  0  0  0  0  0  0  0  0  0  0  0
   57.3970   28.2240   43.5690 O   0  0  0  0  0  0  0  0  0  0  0  0
   57.0230   30.5580   43.6800 C   0  0  0  0  0  0  0  0  0  0  0  0
   57.3890   31.6490   44.2330 O   0  0  0  0  0  0  0  0  0  0  0  0
   58.0050   32.5790   44.8670 C   0  0  0  0  0  0  0  0  0  0  0  0
   58.4580   33.7380   44.2430 C   0  0  0  0  0  0  0  0  0  0  0  0
   59.1210   34.7370   44.9170 C   0  0  0  0  0  0  0  0  0  0  0  0
   59.3410   34.5740   46.2630 C   0  0  0  0  0  0  0  0  0  0  0  0
   58.9170   33.4520   46.9430 C   0  0  0  0  0  0  0  0  0  0  0  0
   58.2610   32.4720   46.2520 C   0  0  0  0  0  0  0  0  0  0  0  0
   57.7890   31.2890   46.8490 O   0  0  0  0  0  0  0  0  0  0  0  0
   56.7370   26.1180   45.7200 C   0  0  0  0  0  0  0  0  0  0  0  0
   56.1360   25.0330   45.1260 C   0  0  0  0  0  0  0  0  0  0  0  0
   56.9120   23.9210   44.8940 C   0  0  0  0  0  0  0  0  0  0  0  0
   56.3670   22.8520   44.3260 N   0  0  0  0  0  0  0  0  0  0  0  0
   56.7660   19.7900   43.4070 H   0  0  0  0  0  0  0  0  0  0  0  0
   58.9010   20.8580   44.2190 H   0  0  0  0  0  0  0  0  0  0  0  0
   60.9590   22.2670   44.7000 H   0  0  0  0  0  0  0  0  0  0  0  0
   59.8983   24.9957   46.1232 H   0  0  0  0  0  0  0  0  0  0  0  0
   57.7265   27.9789   47.0847 H   0  0  0  0  0  0  0  0  0  0  0  0
   59.2221   27.1654   47.5740 H   0  0  0  0  0  0  0  0  0  0  0  0
   60.3137   28.3675   46.0078 H   0  0  0  0  0  0  0  0  0  0  0  0
   59.3261   27.4630   44.7530 H   0  0  0  0  0  0  0  0  0  0  0  0
   58.8770   30.2920   45.6310 H   0  0  0  0  0  0  0  0  0  0  0  0
   57.2035   30.6544   42.5992 H   0  0  0  0  0  0  0  0  0  0  0  0
   55.9662   30.4316   43.9578 H   0  0  0  0  0  0  0  0  0  0  0  0
   58.2780   33.8601   43.1647 H   0  0  0  0  0  0  0  0  0  0  0  0
   59.4653   35.6408   44.3930 H   0  0  0  0  0  0  0  0  0  0  0  0
   59.8720   35.3631   46.8156 H   0  0  0  0  0  0  0  0  0  0  0  0
   59.1033   33.3474   48.0221 H   0  0  0  0  0  0  0  0  0  0  0  0
   57.0310   30.8470   46.3070 H   0  0  0  0  0  0  0  0  0  0  0  0
   56.1332   27.0166   45.9148 H   0  0  0  0  0  0  0  0  0  0  0  0
   55.0724   25.0536   44.8463 H   0  0  0  0  0  0  0  0  0  0  0  0
   55.3600   22.8980   44.0760 H   0  0  0  0  0  0  0  0  0  0  0  0
  1  2  2  3
  2  3  1  0
  3  4  1  0
  4  5  2  3
  4  6  1  0
  6  7  2  0
  7  8  1  0
  8  9  1  0
  9 10  1  0
 10 11  1  0
 11 12  1  0
 12 13  2  0
 12 14  1  0
 14 15  1  0
 15 16  1  0
 16 17  2  0
 17 18  1  0
 18 19  2  0
 19 20  1  0
 20 21  2  0
 21 22  1  0
  8 23  2  0
 23 24  1  0
 24 25  2  0
 25 26  1  0
 26  2  1  0
 25  6  1  0
 21 16  1  0
  1 27  1  0
  3 28  1  0
  5 29  1  0
  7 30  1  0
  9 31  1  0
  9 32  1  0
 10 33  1  0
 10 34  1  0
 11 35  1  0
 14 36  1  0
 14 37  1  0
 17 38  1  0
 18 39  1  0
 19 40  1  0
 20 41  1  0
 22 42  1  0
 23 43  1  0
 24 44  1  0
 26 45  1  0
M  END
>  <smiles>  (84) 
N=c1[nH]c(=N)c2cc(CCNC(=O)COc3ccccc3O)ccc2[nH]1

>  <score_type>  (84) 
oracle

>  <origin>  (84) 
adg

>  <m_score__min__energy>  (84) 
-8.7699999999999996

>  <m_primary>  (84) 
energy

$$$$
84:0
     RDKit          3D

 53 56  0  0  0  0  0  0  0  0999 V2000
   58.1230   32.3590   42.1990 C   0  0  0  0  0  0  0  0  0  0  0  0
   58.3310   32.7500   43.6280 C   0  0  0  0  0  0  0  0  0  0  0  0
   59.0580   33.8280   44.0050 N   0  0  0  0  0  0  0  0  0  0  0  0
   59.0450   33.8290   45.3490 C   0  0  0  0  0  0  0  0  0  0  0  0
   59.6890   34.7330   46.1930 C   0  0  0  0  0  0  0  0  0  0  0  0
   59.5900   34.5240   47.5800 C   0  0  0  0  0  0  0  0  0  0  0  0
   58.8690   33.4200   48.0870 C   0  0  0  0  0  0  0  0  0  0  0  0
   58.2340   32.5210   47.2130 C   0  0  0  0  0  0  0  0  0  0  0  0
   58.3250   32.7680   45.8400 C   0  0  0  0  0  0  0  0  0  0  0  0
   57.8500   32.0630   44.7450 C   0  0  0  0  0  0  0  0  0  0  0  0
   57.0500   30.8210   44.7430 C   0  0  0  0  0  0  0  0  0  0  0  0
   55.8140   30.8900   44.5040 O   0  0  0  0  0  0  0  0  0  0  0  0
   57.6590   29.5100   45.0420 C   0  0  0  0  0  0  0  0  0  0  0  0
   58.9040   29.3580   44.9070 O   0  0  0  0  0  0  0  0  0  0  0  0
   56.8530   28.4340   45.5480 N   0  0  0  0  0  0  0  0  0  0  0  0
   57.2840   27.0620   45.5920 C   0  0  0  0  0  0  0  0  0  0  0  0
   57.1970   26.3520   46.7980 C   0  0  0  0  0  0  0  0  0  0  0  0
   57.5830   25.0100   46.8600 C   0  0  0  0  0  0  0  0  0  0  0  0
   58.0390   24.3460   45.7090 C   0  0  0  0  0  0  0  0  0  0  0  0
   58.4420   22.8900   45.7810 C   0  0  0  0  0  0  0  0  0  0  0  0
   57.4820   21.9770   45.1230 N   0  0  0  0  0  0  0  0  0  0  0  0
   56.0530   22.2170   45.4140 C   0  0  0  0  0  0  0  0  0  0  0  0
   55.3610   23.1380   44.3850 C   0  0  0  0  0  0  0  0  0  0  0  0
   55.9270   23.0110   42.9620 C   0  0  0  0  0  0  0  0  0  0  0  0
   56.6490   21.6830   42.7610 C   0  0  0  0  0  0  0  0  0  0  0  0
   57.8260   21.5720   43.7380 C   0  0  0  0  0  0  0  0  0  0  0  0
   58.1290   25.0580   44.5030 C   0  0  0  0  0  0  0  0  0  0  0  0
   57.7430   26.4000   44.4400 C   0  0  0  0  0  0  0  0  0  0  0  0
   57.6068   31.3886   42.1558 H   0  0  0  0  0  0  0  0  0  0  0  0
   57.5117   33.1223   41.6953 H   0  0  0  0  0  0  0  0  0  0  0  0
   59.0976   32.2786   41.6953 H   0  0  0  0  0  0  0  0  0  0  0  0
   59.5440   34.5110   43.3810 H   0  0  0  0  0  0  0  0  0  0  0  0
   60.2567   35.5830   45.7865 H   0  0  0  0  0  0  0  0  0  0  0  0
   60.0769   35.2244   48.2745 H   0  0  0  0  0  0  0  0  0  0  0  0
   58.8041   33.2628   49.1738 H   0  0  0  0  0  0  0  0  0  0  0  0
   57.6826   31.6502   47.5973 H   0  0  0  0  0  0  0  0  0  0  0  0
   55.9230   28.6640   45.9660 H   0  0  0  0  0  0  0  0  0  0  0  0
   56.8223   26.8547   47.7018 H   0  0  0  0  0  0  0  0  0  0  0  0
   57.5293   24.4700   47.8168 H   0  0  0  0  0  0  0  0  0  0  0  0
   59.4212   22.7756   45.2931 H   0  0  0  0  0  0  0  0  0  0  0  0
   58.4707   22.6153   46.8458 H   0  0  0  0  0  0  0  0  0  0  0  0
   55.5315   21.2485   45.4205 H   0  0  0  0  0  0  0  0  0  0  0  0
   56.0020   22.7247   46.3885 H   0  0  0  0  0  0  0  0  0  0  0  0
   54.2909   22.8847   44.3568 H   0  0  0  0  0  0  0  0  0  0  0  0
   55.5392   24.1736   44.7102 H   0  0  0  0  0  0  0  0  0  0  0  0
   55.0990   23.0797   42.2411 H   0  0  0  0  0  0  0  0  0  0  0  0
   56.6520   23.8235   42.8065 H   0  0  0  0  0  0  0  0  0  0  0  0
   55.9468   20.8558   42.9414 H   0  0  0  0  0  0  0  0  0  0  0  0
   57.0296   21.6316   41.7302 H   0  0  0  0  0  0  0  0  0  0  0  0
   58.1676   20.5265   43.7551 H   0  0  0  0  0  0  0  0  0  0  0  0
   58.6083   22.2592   43.3835 H   0  0  0  0  0  0  0  0  0  0  0  0
   58.5064   24.5559   43.5999 H   0  0  0  0  0  0  0  0  0  0  0  0
   57.7987   26.9409   43.4838 H   0  0  0  0  0  0  0  0  0  0  0  0
  1  2  1  0
  2  3  1  0
  3  4  1  0
  4  5  2  0
  5  6  1  0
  6  7  2  0
  7  8  1  0
  8  9  2  0
  9 10  1  0
 10 11  1  0
 11 12  2  0
 11 13  1  0
 13 14  2  0
 13 15  1  0
 15 16  1  0
 16 17  2  0
 17 18  1  0
 18 19  2  0
 19 20  1  0
 20 21  1  0
 21 22  1  0
 22 23  1  0
 23 24  1  0
 24 25  1  0
 25 26  1  0
 19 27  1  0
 27 28  2  0
 10  2  2  0
 28 16  1  0
  9  4  1  0
 26 21  1  0
  1 29  1  0
  1 30  1  0
  1 31  1  0
  3 32  1  0
  5 33  1  0
  6 34  1  0
  7 35  1  0
  8 36  1  0
 15 37  1  0
 17 38  1  0
 18 39  1  0
 20 40  1  0
 20 41  1  0
 22 42  1  0
 22 43  1  0
 23 44  1  0
 23 45  1  0
 24 46  1  0
 24 47  1  0
 25 48  1  0
 25 49  1  0
 26 50  1  0
 26 51  1  0
 27 52  1  0
 28 53  1  0
M  END
>  <UniqueID>  (85) 
79

>  <SMILES>  (85) 
Cc1[nH]c2ccccc2c1C(=O)C(=O)Nc1ccc(CN2CCCCC2)cc1

>  <Energy>  (85) 
106.73580466254545

>  <Genealogy>  (85) 
Cc1[nH]c2ccccc2c1C(=O)C(=O)Nc1ccc(CN2CCCCC2)cc1 (3D coordinates assigned)
Cc1[nH]c2ccccc2c1C(=O)C(=O)Nc1ccc(CN2CCCCC2)cc1 (nonaromatic ring conformer: 106.73580466254545 kcal/mol)

>  <smiles>  (85) 
Cc1[nH]c2ccccc2c1C(=O)C(=O)Nc1ccc(CN2CCCCC2)cc1

>  <score_type>  (85) 
oracle

>  <origin>  (85) 
adg

>  <m_score__min__energy>  (85) 
-9.4600000000000009

>  <m_primary>  (85) 
energy

$$$$
85:0
     RDKit          3D

 96100  0  0  0  0  0  0  0  0999 V2000
   56.2880   29.9880   43.1400 C   0  0  0  0  0  0  0  0  0  0  0  0
   56.2800   30.5030   44.4670 O   0  0  0  0  0  0  0  0  0  0  0  0
   57.1470   31.4980   44.9470 C   0  0  0  0  0  0  0  0  0  0  0  0
   56.8140   32.8660   44.8710 C   0  0  0  0  0  0  0  0  0  0  0  0
   57.6600   33.8360   45.4140 C   0  0  0  0  0  0  0  0  0  0  0  0
   58.8500   33.4580   46.0420 C   0  0  0  0  0  0  0  0  0  0  0  0
   59.9190   34.6650   46.7470 S   0  0  0  0  0  0  0  0  0  0  0  0
   59.8450   35.9490   45.9660 O   0  0  0  0  0  0  0  0  0  0  0  0
   59.4900   34.9440   48.1600 O   0  0  0  0  0  0  0  0  0  0  0  0
   61.5480   34.0620   46.7560 N   0  0  0  0  0  0  0  0  0  0  0  0
   61.9370   33.5590   48.0820 C   0  0  1  0  0  0  0  0  0  0  0  0
   61.3840   32.1350   48.2610 C   0  0  0  0  0  0  0  0  0  0  0  0
   60.2820   32.1080   49.2890 C   0  0  0  0  0  0  0  0  0  0  0  0
   59.3000   31.1030   49.2490 C   0  0  0  0  0  0  0  0  0  0  0  0
   58.3200   31.0370   50.2420 C   0  0  0  0  0  0  0  0  0  0  0  0
   58.3180   31.9630   51.2890 C   0  0  0  0  0  0  0  0  0  0  0  0
   59.3090   32.9540   51.3570 C   0  0  0  0  0  0  0  0  0  0  0  0
   59.3080   33.9570   52.4830 C   0  0  0  0  0  0  0  0  0  0  0  0
   58.1780   34.8710   52.3720 N   0  0  0  0  0  0  0  0  0  0  0  0
   60.2760   33.0330   50.3440 C   0  0  0  0  0  0  0  0  0  0  0  0
   63.4440   33.5390   48.2010 C   0  0  0  0  0  0  0  0  0  0  0  0
   64.1450   33.4450   47.1540 O   0  0  0  0  0  0  0  0  0  0  0  0
   64.0980   33.5090   49.4890 N   0  0  0  0  0  0  0  0  0  0  0  0
   65.2940   32.6740   49.6500 C   0  0  0  0  0  0  0  0  0  0  0  0
   65.4660   32.2600   51.1110 C   0  0  0  0  0  0  0  0  0  0  0  0
   65.6290   33.5000   52.0320 C   0  0  0  0  0  0  0  0  0  0  0  0
   66.9930   34.1220   52.0100 N   0  0  0  0  0  0  0  0  0  0  0  0
   67.3850   34.6810   53.3380 C   0  0  0  0  0  0  0  0  0  0  0  0
   68.4550   33.8540   54.0890 C   0  0  0  0  0  0  0  0  0  0  0  0
   68.3260   32.3590   53.7840 C   0  0  0  0  0  0  0  0  0  0  0  0
   68.4270   32.0800   52.2740 C   0  0  0  0  0  0  0  0  0  0  0  0
   68.0910   33.3180   51.4220 C   0  0  0  0  0  0  0  0  0  0  0  0
   64.5620   34.5870   51.6770 C   0  0  0  0  0  0  0  0  0  0  0  0
   63.4870   34.1480   50.6680 C   0  0  0  0  0  0  0  0  0  0  0  0
   59.2070   32.1070   46.0910 C   0  0  0  0  0  0  0  0  0  0  0  0
   58.3730   31.1180   45.5420 C   0  0  0  0  0  0  0  0  0  0  0  0
   58.7840   29.6960   45.6370 C   0  0  0  0  0  0  0  0  0  0  0  0
   60.0870   29.2030   45.6980 C   0  0  0  0  0  0  0  0  0  0  0  0
   60.1530   27.8090   45.8190 C   0  0  0  0  0  0  0  0  0  0  0  0
   58.9050   27.2010   45.8500 C   0  0  0  0  0  0  0  0  0  0  0  0
   58.6330   25.7420   46.0260 C   0  0  0  0  0  0  0  0  0  0  0  0
   57.1980   25.5340   46.2620 N   0  0  0  0  0  0  0  0  0  0  0  0
   56.9420   24.5150   47.2900 C   0  0  0  0  0  0  0  0  0  0  0  0
   55.7210   23.6430   46.9650 C   0  0  0  0  0  0  0  0  0  0  0  0
   54.7460   24.3780   45.6630 S   0  0  0  0  0  0  0  0  0  0  0  0
   54.8000   26.0970   45.8140 N   0  0  0  0  0  0  0  0  0  0  0  0
   55.3110   23.9800   44.3290 O   0  0  0  0  0  0  0  0  0  0  0  0
   53.3230   23.9100   45.7630 O   0  0  0  0  0  0  0  0  0  0  0  0
   57.7240   28.3910   45.7490 S   0  0  0  0  0  0  0  0  0  0  0  0
   56.3051   28.8886   43.1734 H   0  0  0  0  0  0  0  0  0  0  0  0
   55.3845   30.3247   42.6105 H   0  0  0  0  0  0  0  0  0  0  0  0
   57.1806   30.3526   42.6105 H   0  0  0  0  0  0  0  0  0  0  0  0
   55.8789   33.1724   44.3793 H   0  0  0  0  0  0  0  0  0  0  0  0
   57.3889   34.9000   45.3471 H   0  0  0  0  0  0  0  0  0  0  0  0
   61.5259   34.2175   48.8613 H   0  0  0  0  0  0  0  0  0  0  0  0
   60.9868   31.7799   47.2986 H   0  0  0  0  0  0  0  0  0  0  0  0
   62.2003   31.4831   48.6055 H   0  0  0  0  0  0  0  0  0  0  0  0
   59.3034   30.3658   48.4326 H   0  0  0  0  0  0  0  0  0  0  0  0
   57.5480   30.2545   50.2000 H   0  0  0  0  0  0  0  0  0  0  0  0
   57.5370   31.9147   52.0621 H   0  0  0  0  0  0  0  0  0  0  0  0
   59.2434   33.4209   53.4413 H   0  0  0  0  0  0  0  0  0  0  0  0
   60.2373   34.5430   52.4291 H   0  0  0  0  0  0  0  0  0  0  0  0
   58.1970   35.3150   51.4250 H   0  0  0  0  0  0  0  0  0  0  0  0
   58.2910   35.6370   53.0750 H   0  0  0  0  0  0  0  0  0  0  0  0
   61.0364   33.8272   50.3770 H   0  0  0  0  0  0  0  0  0  0  0  0
   65.1923   31.7725   49.0280 H   0  0  0  0  0  0  0  0  0  0  0  0
   66.1761   33.2527   49.3384 H   0  0  0  0  0  0  0  0  0  0  0  0
   64.5800   31.6910   51.4292 H   0  0  0  0  0  0  0  0  0  0  0  0
   66.3735   31.6439   51.1934 H   0  0  0  0  0  0  0  0  0  0  0  0
   65.4790   33.1189   53.0529 H   0  0  0  0  0  0  0  0  0  0  0  0
   67.7816   35.6949   53.1809 H   0  0  0  0  0  0  0  0  0  0  0  0
   66.4806   34.6664   53.9640 H   0  0  0  0  0  0  0  0  0  0  0  0
   69.4535   34.1969   53.7799 H   0  0  0  0  0  0  0  0  0  0  0  0
   68.3076   33.9995   55.1693 H   0  0  0  0  0  0  0  0  0  0  0  0
   69.1315   31.8178   54.3020 H   0  0  0  0  0  0  0  0  0  0  0  0
   67.3391   32.0200   54.1321 H   0  0  0  0  0  0  0  0  0  0  0  0
   69.4537   31.7603   52.0422 H   0  0  0  0  0  0  0  0  0  0  0  0
   67.6945   31.2967   52.0290 H   0  0  0  0  0  0  0  0  0  0  0  0
   68.9890   33.9485   51.3439 H   0  0  0  0  0  0  0  0  0  0  0  0
   67.7604   32.9675   50.4332 H   0  0  0  0  0  0  0  0  0  0  0  0
   64.0546   34.8818   52.6074 H   0  0  0  0  0  0  0  0  0  0  0  0
   65.1131   35.4086   51.1962 H   0  0  0  0  0  0  0  0  0  0  0  0
   62.8086   33.4315   51.1542 H   0  0  0  0  0  0  0  0  0  0  0  0
   62.9336   35.0388   50.3361 H   0  0  0  0  0  0  0  0  0  0  0  0
   60.1547   31.8139   46.5663 H   0  0  0  0  0  0  0  0  0  0  0  0
   60.9777   29.8471   45.6552 H   0  0  0  0  0  0  0  0  0  0  0  0
   61.0991   27.2516   45.8831 H   0  0  0  0  0  0  0  0  0  0  0  0
   58.9371   25.2006   45.1180 H   0  0  0  0  0  0  0  0  0  0  0  0
   59.2037   25.3650   46.8875 H   0  0  0  0  0  0  0  0  0  0  0  0
   56.7350   25.2520   45.3640 H   0  0  0  0  0  0  0  0  0  0  0  0
   57.8267   23.8664   47.3712 H   0  0  0  0  0  0  0  0  0  0  0  0
   56.7354   25.0391   48.2348 H   0  0  0  0  0  0  0  0  0  0  0  0
   56.0635   22.6489   46.6418 H   0  0  0  0  0  0  0  0  0  0  0  0
   55.0978   23.5584   47.8675 H   0  0  0  0  0  0  0  0  0  0  0  0
   55.5270   26.4420   45.1500 H   0  0  0  0  0  0  0  0  0  0  0  0
   55.1420   26.3050   46.7780 H   0  0  0  0  0  0  0  0  0  0  0  0
  1  2  1  0
  2  3  1  0
  3  4  2  0
  4  5  1  0
  5  6  2  0
  6  7  1  0
  7  8  2  0
  7  9  2  0
  7 10  1  0
 10 11  1  0
 11 12  1  0
 12 13  1  0
 13 14  2  0
 14 15  1  0
 15 16  2  0
 16 17  1  0
 17 18  1  0
 18 19  1  0
 17 20  2  0
 11 21  1  0
 21 22  2  0
 21 23  1  0
 23 24  1  0
 24 25  1  0
 25 26  1  0
 26 27  1  0
 27 28  1  0
 28 29  1  0
 29 30  1  0
 30 31  1  0
 31 32  1  0
 26 33  1  0
 33 34  1  0
  6 35  1  0
 35 36  2  0
 36 37  1  0
 37 38  2  0
 38 39  1  0
 39 40  2  0
 40 41  1  0
 41 42  1  0
 42 43  1  0
 43 44  1  0
 44 45  1  0
 45 46  1  0
 45 47  2  0
 45 48  2  0
 40 49  1  0
 36  3  1  0
 49 37  1  0
 20 13  1  0
 34 23  1  0
 32 27  1  0
  1 50  1  0
  1 51  1  0
  1 52  1  0
  4 53  1  0
  5 54  1  0
 11 55  1  1
 12 56  1  0
 12 57  1  0
 14 58  1  0
 15 59  1  0
 16 60  1  0
 18 61  1  0
 18 62  1  0
 19 63  1  0
 19 64  1  0
 20 65  1  0
 24 66  1  0
 24 67  1  0
 25 68  1  0
 25 69  1  0
 26 70  1  0
 28 71  1  0
 28 72  1  0
 29 73  1  0
 29 74  1  0
 30 75  1  0
 30 76  1  0
 31 77  1  0
 31 78  1  0
 32 79  1  0
 32 80  1  0
 33 81  1  0
 33 82  1  0
 34 83  1  0
 34 84  1  0
 35 85  1  0
 38 86  1  0
 39 87  1  0
 41 88  1  0
 41 89  1  0
 42 90  1  0
 43 91  1  0
 43 92  1  0
 44 93  1  0
 44 94  1  0
 46 95  1  0
 46 96  1  0
M  CHG  1  10  -1
M  END
>  <UniqueID>  (86) 
80

>  <SMILES>  (86) 
COc1ccc(S(=O)(=O)[N-][C@@H](Cc2cccc(CN)c2)C(=O)N2CCC(N3CCCCC3)CC2)cc1-c1ccc(CNCCS(N)(=O)=O)s1

>  <Energy>  (86) 
135.36542953816627

>  <Genealogy>  (86) 
COc1ccc(S(=O)(=O)[N-]C(Cc2cccc(CN)c2)C(=O)N2CCC(N3CCCCC3)CC2)cc1-c1ccc(CNCCS(N)(=O)=O)s1 (protonated)
COc1ccc(S(=O)(=O)[N-][C@@H](Cc2cccc(CN)c2)C(=O)N2CCC(N3CCCCC3)CC2)cc1-c1ccc(CNCCS(N)(=O)=O)s1 (chirality)
COc1ccc(S(=O)(=O)[N-][C@@H](Cc2cccc(CN)c2)C(=O)N2CCC(N3CCCCC3)CC2)cc1-c1ccc(CNCCS(N)(=O)=O)s1 (3D coordinates assigned)
COc1ccc(S(=O)(=O)[N-][C@@H](Cc2cccc(CN)c2)C(=O)N2CCC(N3CCCCC3)CC2)cc1-c1ccc(CNCCS(N)(=O)=O)s1 (nonaromatic ring conformer: 135.36542953816627 kcal/mol)

>  <smiles>  (86) 
COc1ccc(S(=O)(=O)NC(Cc2cccc(CN)c2)C(=O)N2CCC(N3CCCCC3)CC2)cc1-c1ccc(CNCCS(N)(=O)=O)s1

>  <score_type>  (86) 
oracle

>  <origin>  (86) 
adg

>  <m_score__min__energy>  (86) 
-13.75

>  <m_primary>  (86) 
energy

$$$$
86:0
     RDKit          3D

 44 46  0  0  0  0  0  0  0  0999 V2000
   59.9740   25.4300   46.0190 N   0  0  0  0  0  0  0  0  0  0  0  0
   60.0440   26.4810   46.4980 C   0  0  0  0  0  0  0  0  0  0  0  0
   60.1300   27.7880   47.0960 C   0  0  0  0  0  0  0  0  0  0  0  0
   59.9470   27.9420   48.4750 C   0  0  0  0  0  0  0  0  0  0  0  0
   60.0300   29.2110   49.0580 C   0  0  0  0  0  0  0  0  0  0  0  0
   60.3000   30.3410   48.2600 C   0  0  0  0  0  0  0  0  0  0  0  0
   60.3980   31.6380   48.7880 O   0  0  0  0  0  0  0  0  0  0  0  0
   61.4020   32.1010   49.6930 C   0  0  1  0  0  0  0  0  0  0  0  0
   62.7890   31.5180   49.3300 C   0  0  0  0  0  0  0  0  0  0  0  0
   63.0580   31.6270   47.9460 O   0  0  0  0  0  0  0  0  0  0  0  0
   63.1180   32.9800   47.5300 C   0  0  0  0  0  0  0  0  0  0  0  0
   61.7500   33.6470   47.2450 C   0  0  0  0  0  0  0  0  0  0  0  0
   61.1520   34.3330   48.4220 N   0  0  1  0  0  0  0  0  0  0  0  0
   59.6970   34.5580   48.2120 C   0  0  0  0  0  0  0  0  0  0  0  0
   59.2000   33.9590   46.9150 C   0  0  0  0  0  0  0  0  0  0  0  0
   59.4310   34.6180   45.6970 C   0  0  0  0  0  0  0  0  0  0  0  0
   58.9890   34.0550   44.4960 C   0  0  0  0  0  0  0  0  0  0  0  0
   58.3140   32.8310   44.5010 C   0  0  0  0  0  0  0  0  0  0  0  0
   57.7120   32.0630   42.8590 Br  0  0  0  0  0  0  0  0  0  0  0  0
   58.0820   32.1670   45.7110 C   0  0  0  0  0  0  0  0  0  0  0  0
   58.5230   32.7270   46.9130 C   0  0  0  0  0  0  0  0  0  0  0  0
   61.3910   33.6520   49.7310 C   0  0  0  0  0  0  0  0  0  0  0  0
   60.4780   30.1760   46.8820 C   0  0  0  0  0  0  0  0  0  0  0  0
   60.3950   28.9080   46.3000 C   0  0  0  0  0  0  0  0  0  0  0  0
   59.7373   27.0629   49.1021 H   0  0  0  0  0  0  0  0  0  0  0  0
   59.8842   29.3272   50.1421 H   0  0  0  0  0  0  0  0  0  0  0  0
   61.1777   31.7413   50.7080 H   0  0  0  0  0  0  0  0  0  0  0  0
   63.5628   32.0662   49.8875 H   0  0  0  0  0  0  0  0  0  0  0  0
   62.7918   30.4507   49.5961 H   0  0  0  0  0  0  0  0  0  0  0  0
   63.6188   33.5568   48.3215 H   0  0  0  0  0  0  0  0  0  0  0  0
   63.6610   32.9798   46.5734 H   0  0  0  0  0  0  0  0  0  0  0  0
   61.8877   34.3897   46.4453 H   0  0  0  0  0  0  0  0  0  0  0  0
   61.0570   32.8412   46.9615 H   0  0  0  0  0  0  0  0  0  0  0  0
   61.6040   35.2760   48.4910 H   0  0  0  0  0  0  0  0  0  0  0  0
   59.1452   34.1004   49.0463 H   0  0  0  0  0  0  0  0  0  0  0  0
   59.5300   35.6442   48.1644 H   0  0  0  0  0  0  0  0  0  0  0  0
   59.9620   35.5813   45.6876 H   0  0  0  0  0  0  0  0  0  0  0  0
   59.1728   34.5764   43.5450 H   0  0  0  0  0  0  0  0  0  0  0  0
   57.5519   31.2032   45.7159 H   0  0  0  0  0  0  0  0  0  0  0  0
   58.3396   32.2015   47.8618 H   0  0  0  0  0  0  0  0  0  0  0  0
   62.3667   33.9872   50.1127 H   0  0  0  0  0  0  0  0  0  0  0  0
   60.5408   33.9292   50.3716 H   0  0  0  0  0  0  0  0  0  0  0  0
   60.6852   31.0526   46.2507 H   0  0  0  0  0  0  0  0  0  0  0  0
   60.5381   28.7904   45.2157 H   0  0  0  0  0  0  0  0  0  0  0  0
  1  2  3  0
  2  3  1  0
  3  4  2  0
  4  5  1  0
  5  6  2  0
  6  7  1  0
  7  8  1  0
  8  9  1  0
  9 10  1  0
 10 11  1  0
 11 12  1  0
 12 13  1  0
 13 14  1  0
 14 15  1  0
 15 16  2  0
 16 17  1  0
 17 18  2  0
 18 19  1  0
 18 20  1  0
 20 21  2  0
 13 22  1  0
  6 23  1  0
 23 24  2  0
 24  3  1  0
 22  8  1  0
 21 15  1  0
  4 25  1  0
  5 26  1  0
  8 27  1  1
  9 28  1  0
  9 29  1  0
 11 30  1  0
 11 31  1  0
 12 32  1  0
 12 33  1  0
 13 34  1  1
 14 35  1  0
 14 36  1  0
 16 37  1  0
 17 38  1  0
 20 39  1  0
 21 40  1  0
 22 41  1  0
 22 42  1  0
 23 43  1  0
 24 44  1  0
M  CHG  1  13   1
M  END
>  <UniqueID>  (87) 
81

>  <SMILES>  (87) 
N#Cc1ccc(O[C@H]2COCC[N@@H+](Cc3ccc(Br)cc3)C2)cc1

>  <Energy>  (87) 
64.76838206954405

>  <Genealogy>  (87) 
N#Cc1ccc(OC2COCC[NH+](Cc3ccc(Br)cc3)C2)cc1 (protonated)
N#Cc1ccc(O[C@H]2COCC[N@@H+](Cc3ccc(Br)cc3)C2)cc1 (chirality)
N#Cc1ccc(O[C@H]2COCC[N@@H+](Cc3ccc(Br)cc3)C2)cc1 (3D coordinates assigned)
N#Cc1ccc(O[C@H]2COCC[N@@H+](Cc3ccc(Br)cc3)C2)cc1 (nonaromatic ring conformer: 64.76838206954405 kcal/mol)

>  <smiles>  (87) 
N#Cc1ccc(OC2COCCN(Cc3ccc(Br)cc3)C2)cc1

>  <score_type>  (87) 
oracle

>  <origin>  (87) 
adg

>  <m_score__min__energy>  (87) 
-3.5299999999999998

>  <m_primary>  (87) 
energy

$$$$
87:0
     RDKit          3D

 48 50  0  0  0  0  0  0  0  0999 V2000
   56.9740   27.3890   47.1030 O   0  0  0  0  0  0  0  0  0  0  0  0
   57.8540   26.4890   47.1840 C   0  0  0  0  0  0  0  0  0  0  0  0
   59.2970   26.8690   47.2040 C   0  0  0  0  0  0  0  0  0  0  0  0
   59.6440   27.4760   45.9630 O   0  0  0  0  0  0  0  0  0  0  0  0
   58.7450   28.1720   45.1420 C   0  0  0  0  0  0  0  0  0  0  0  0
   58.3130   27.5630   43.9580 C   0  0  0  0  0  0  0  0  0  0  0  0
   57.4160   28.2180   43.1110 C   0  0  0  0  0  0  0  0  0  0  0  0
   56.9530   29.4950   43.4330 C   0  0  0  0  0  0  0  0  0  0  0  0
   57.3940   30.1330   44.5990 C   0  0  0  0  0  0  0  0  0  0  0  0
   56.8870   31.4370   44.9130 N   0  0  0  0  0  0  0  0  0  0  0  0
   57.5930   32.6800   44.7870 C   0  0  0  0  0  0  0  0  0  0  0  0
   57.4460   33.3530   43.7320 O   0  0  0  0  0  0  0  0  0  0  0  0
   58.5900   33.1430   45.8270 C   0  0  0  0  0  0  0  0  0  0  0  0
   57.9710   33.1250   47.2360 C   0  0  0  0  0  0  0  0  0  0  0  0
   59.0210   33.4590   48.3170 C   0  0  0  0  0  0  0  0  0  0  0  0
   60.1500   34.3810   47.8130 C   0  0  0  0  0  0  0  0  0  0  0  0
   59.6600   35.3250   46.7070 C   0  0  0  0  0  0  0  0  0  0  0  0
   59.1280   34.5540   45.4800 C   0  0  0  0  0  0  0  0  0  0  0  0
   58.2650   29.4560   45.4680 C   0  0  0  0  0  0  0  0  0  0  0  0
   57.4900   25.1050   47.0860 N   0  0  0  0  0  0  0  0  0  0  0  0
   56.9380   24.4650   46.0920 C   0  0  0  0  0  0  0  0  0  0  0  0
   57.5760   23.3550   45.6270 N   0  0  0  0  0  0  0  0  0  0  0  0
   57.1030   22.6160   44.5900 C   0  0  0  0  0  0  0  0  0  0  0  0
   55.9170   22.9800   43.9570 C   0  0  0  0  0  0  0  0  0  0  0  0
   55.2150   24.0920   44.4180 C   0  0  0  0  0  0  0  0  0  0  0  0
   55.6990   24.8370   45.5020 C   0  0  0  0  0  0  0  0  0  0  0  0
   54.9300   25.8890   45.9970 O   0  0  0  0  0  0  0  0  0  0  0  0
   59.4779   27.5801   48.0235 H   0  0  0  0  0  0  0  0  0  0  0  0
   59.9115   25.9697   47.3575 H   0  0  0  0  0  0  0  0  0  0  0  0
   58.6825   26.5615   43.6927 H   0  0  0  0  0  0  0  0  0  0  0  0
   57.0737   27.7266   42.1883 H   0  0  0  0  0  0  0  0  0  0  0  0
   56.2386   30.0023   42.7679 H   0  0  0  0  0  0  0  0  0  0  0  0
   59.4361   32.4401   45.8219 H   0  0  0  0  0  0  0  0  0  0  0  0
   57.1620   33.8690   47.2810 H   0  0  0  0  0  0  0  0  0  0  0  0
   57.5832   32.1142   47.4308 H   0  0  0  0  0  0  0  0  0  0  0  0
   58.5118   33.9578   49.1548 H   0  0  0  0  0  0  0  0  0  0  0  0
   59.4883   32.5100   48.6188 H   0  0  0  0  0  0  0  0  0  0  0  0
   60.5225   34.9820   48.6557 H   0  0  0  0  0  0  0  0  0  0  0  0
   60.9484   33.7495   47.3962 H   0  0  0  0  0  0  0  0  0  0  0  0
   58.8516   35.9533   47.1091 H   0  0  0  0  0  0  0  0  0  0  0  0
   60.5142   35.9357   46.3794 H   0  0  0  0  0  0  0  0  0  0  0  0
   58.3119   35.1372   45.0284 H   0  0  0  0  0  0  0  0  0  0  0  0
   59.9734   34.4189   44.7893 H   0  0  0  0  0  0  0  0  0  0  0  0
   58.5748   29.9317   46.4102 H   0  0  0  0  0  0  0  0  0  0  0  0
   57.6574   21.7289   44.2498 H   0  0  0  0  0  0  0  0  0  0  0  0
   55.5393   22.3971   43.1040 H   0  0  0  0  0  0  0  0  0  0  0  0
   54.2753   24.3869   43.9281 H   0  0  0  0  0  0  0  0  0  0  0  0
   55.1370   26.3290   46.8860 H   0  0  0  0  0  0  0  0  0  0  0  0
  1  2  2  0
  2  3  1  0
  3  4  1  0
  4  5  1  0
  5  6  2  0
  6  7  1  0
  7  8  2  0
  8  9  1  0
  9 10  1  0
 10 11  1  0
 11 12  2  0
 11 13  1  0
 13 14  1  0
 14 15  1  0
 15 16  1  0
 16 17  1  0
 17 18  1  0
  9 19  2  0
  2 20  1  0
 20 21  2  3
 21 22  1  0
 22 23  1  0
 23 24  2  0
 24 25  1  0
 25 26  2  0
 26 27  1  0
 19  5  1  0
 26 21  1  0
 18 13  1  0
  3 28  1  0
  3 29  1  0
  6 30  1  0
  7 31  1  0
  8 32  1  0
 13 33  1  0
 14 34  1  0
 14 35  1  0
 15 36  1  0
 15 37  1  0
 16 38  1  0
 16 39  1  0
 17 40  1  0
 17 41  1  0
 18 42  1  0
 18 43  1  0
 19 44  1  0
 23 45  1  0
 24 46  1  0
 25 47  1  0
 27 48  1  0
M  CHG  2  10  -1  22  -1
M  END
>  <UniqueID>  (88) 
82

>  <SMILES>  (88) 
O=C(COc1cccc([N-]C(=O)C2CCCCC2)c1)N=c1[n-]cccc1O

>  <Energy>  (88) 
65.5880687937411

>  <Genealogy>  (88) 
O=C(COc1cccc([N-]C(=O)C2CCCCC2)c1)N=c1[n-]cccc1O (protonated)
O=C(COc1cccc([N-]C(=O)C2CCCCC2)c1)N=c1[n-]cccc1O (3D coordinates assigned)
O=C(COc1cccc([N-]C(=O)C2CCCCC2)c1)N=c1[n-]cccc1O (nonaromatic ring conformer: 65.5880687937411 kcal/mol)

>  <smiles>  (88) 
O=C(COc1cccc(NC(=O)C2CCCCC2)c1)N=c1[nH]cccc1O

>  <score_type>  (88) 
oracle

>  <origin>  (88) 
adg

>  <m_score__min__energy>  (88) 
-12.279999999999999

>  <m_primary>  (88) 
energy

$$$$
88:0
     RDKit          3D

 62 65  0  0  0  0  0  0  0  0999 V2000
   60.8733   27.4237   45.9137 H   0  0  0  0  0  0  0  0  0  0  0  0
   59.7740   27.3940   45.8900 C   0  0  0  0  0  0  0  0  0  0  0  0
   59.0720   28.5180   45.5830 N   0  0  0  0  0  0  0  0  0  0  0  0
   57.7140   28.5230   45.5150 C   0  0  0  0  0  0  0  0  0  0  0  0
   57.0350   29.7540   45.2270 N   0  0  0  0  0  0  0  0  0  0  0  0
   57.4770   30.9530   45.4770 C   0  0  0  0  0  0  0  0  0  0  0  0
   56.9030   32.0540   44.9530 N   0  0  0  0  0  0  0  0  0  0  0  0
   57.4960   33.2000   45.3930 C   0  0  0  0  0  0  0  0  0  0  0  0
   57.0240   34.5350   44.9110 C   0  0  0  0  0  0  0  0  0  0  0  0
   56.7969   35.1773   45.7746 H   0  0  0  0  0  0  0  0  0  0  0  0
   57.8108   35.0041   44.3020 H   0  0  0  0  0  0  0  0  0  0  0  0
   56.1172   34.4053   44.3020 H   0  0  0  0  0  0  0  0  0  0  0  0
   58.5470   33.0110   46.3040 C   0  0  0  0  0  0  0  0  0  0  0  0
   59.4050   34.0460   46.9250 C   0  0  0  0  0  0  0  0  0  0  0  0
   59.4200   35.2120   46.4520 O   0  0  0  0  0  0  0  0  0  0  0  0
   60.2610   33.7300   48.0360 N   0  0  0  0  0  0  0  0  0  0  0  0
   61.6430   34.2190   48.0230 C   0  0  0  0  0  0  0  0  0  0  0  0
   61.6763   35.2051   48.5093 H   0  0  0  0  0  0  0  0  0  0  0  0
   61.9730   34.2832   46.9756 H   0  0  0  0  0  0  0  0  0  0  0  0
   62.5990   33.2600   48.7700 C   0  0  0  0  0  0  0  0  0  0  0  0
   63.2997   33.8647   49.3644 H   0  0  0  0  0  0  0  0  0  0  0  0
   63.1044   32.6551   48.0027 H   0  0  0  0  0  0  0  0  0  0  0  0
   61.9150   32.3100   49.6810 N   0  0  0  0  0  0  0  0  0  0  0  0
   61.5790   31.0260   49.0220 C   0  0  0  0  0  0  0  0  0  0  0  0
   60.4957   30.8518   49.1000 H   0  0  0  0  0  0  0  0  0  0  0  0
   62.1306   30.2155   49.5207 H   0  0  0  0  0  0  0  0  0  0  0  0
   61.9770   31.0600   47.5500 C   0  0  0  0  0  0  0  0  0  0  0  0
   63.0699   31.1534   47.4677 H   0  0  0  0  0  0  0  0  0  0  0  0
   61.6505   30.1307   47.0603 H   0  0  0  0  0  0  0  0  0  0  0  0
   61.4976   31.9205   47.0603 H   0  0  0  0  0  0  0  0  0  0  0  0
   60.7470   32.9370   50.3310 C   0  0  0  0  0  0  0  0  0  0  0  0
   61.0751   33.8487   50.8517 H   0  0  0  0  0  0  0  0  0  0  0  0
   60.3176   32.2129   51.0390 H   0  0  0  0  0  0  0  0  0  0  0  0
   59.6620   33.3100   49.3080 C   0  0  0  0  0  0  0  0  0  0  0  0
   59.0566   34.1355   49.7105 H   0  0  0  0  0  0  0  0  0  0  0  0
   59.0341   32.4256   49.1247 H   0  0  0  0  0  0  0  0  0  0  0  0
   58.7320   31.3500   46.5260 S   0  0  0  0  0  0  0  0  0  0  0  0
   57.0040   27.3510   45.8220 C   0  0  0  0  0  0  0  0  0  0  0  0
   55.9045   27.3478   45.7898 H   0  0  0  0  0  0  0  0  0  0  0  0
   57.7010   26.1840   46.1700 C   0  0  0  0  0  0  0  0  0  0  0  0
   56.9710   24.9440   46.5010 C   0  0  0  0  0  0  0  0  0  0  0  0
   57.6040   23.8590   46.5960 O   0  0  0  0  0  0  0  0  0  0  0  0
   55.5520   24.9320   46.6910 N   0  0  0  0  0  0  0  0  0  0  0  0
   54.5680   25.0320   45.6130 C   0  0  0  0  0  0  0  0  0  0  0  0
   53.7099   25.6274   45.9583 H   0  0  0  0  0  0  0  0  0  0  0  0
   55.0358   25.5170   44.7436 H   0  0  0  0  0  0  0  0  0  0  0  0
   54.0860   23.6390   45.2080 C   0  0  0  0  0  0  0  0  0  0  0  0
   53.7591   23.0967   46.1075 H   0  0  0  0  0  0  0  0  0  0  0  0
   53.2526   23.7509   44.4988 H   0  0  0  0  0  0  0  0  0  0  0  0
   55.1840   22.8580   44.5350 C   0  0  0  0  0  0  0  0  0  0  0  0
   55.7490   21.7340   45.1640 C   0  0  0  0  0  0  0  0  0  0  0  0
   55.3997   21.4322   46.1625 H   0  0  0  0  0  0  0  0  0  0  0  0
   56.7530   20.9980   44.5260 C   0  0  0  0  0  0  0  0  0  0  0  0
   57.1931   20.1215   45.0241 H   0  0  0  0  0  0  0  0  0  0  0  0
   57.1970   21.3760   43.2560 C   0  0  0  0  0  0  0  0  0  0  0  0
   57.9953   20.8045   42.7599 H   0  0  0  0  0  0  0  0  0  0  0  0
   56.6270   22.4800   42.6160 C   0  0  0  0  0  0  0  0  0  0  0  0
   56.9719   22.7706   41.6127 H   0  0  0  0  0  0  0  0  0  0  0  0
   55.6200   23.2160   43.2470 C   0  0  0  0  0  0  0  0  0  0  0  0
   55.1674   24.0777   42.7345 H   0  0  0  0  0  0  0  0  0  0  0  0
   59.1040   26.2030   46.1750 C   0  0  0  0  0  0  0  0  0  0  0  0
   59.6707   25.2878   46.4014 H   0  0  0  0  0  0  0  0  0  0  0  0
  1  2  1  0
  2  3  2  0
  3  4  1  0
  4  5  1  0
  5  6  2  0
  6  7  1  0
  7  8  1  0
  8  9  1  0
  9 10  1  0
  9 11  1  0
  9 12  1  0
  8 13  2  0
 13 14  1  0
 14 15  2  0
 14 16  1  0
 16 17  1  0
 17 18  1  0
 17 19  1  0
 17 20  1  0
 20 21  1  0
 20 22  1  0
 20 23  1  0
 23 24  1  0
 24 25  1  0
 24 26  1  0
 24 27  1  0
 27 28  1  0
 27 29  1  0
 27 30  1  0
 23 31  1  0
 31 32  1  0
 31 33  1  0
 31 34  1  0
 34 35  1  0
 34 36  1  0
 13 37  1  0
  4 38  2  0
 38 39  1  0
 38 40  1  0
 40 41  1  0
 41 42  2  0
 41 43  1  0
 43 44  1  0
 44 45  1  0
 44 46  1  0
 44 47  1  0
 47 48  1  0
 47 49  1  0
 47 50  1  0
 50 51  2  0
 51 52  1  0
 51 53  1  0
 53 54  1  0
 53 55  2  0
 55 56  1  0
 55 57  1  0
 57 58  1  0
 57 59  2  0
 59 60  1  0
 40 61  2  0
 61 62  1  0
 61  2  1  0
 37  6  1  0
 59 50  1  0
 34 16  1  0
M  CHG  2   7  -1  43  -1
M  END
>  <UniqueID>  (89) 
83

>  <SMILES>  (89) 
CCN1CCN(C(=O)c2s/c(=N\c3cc(C(=O)[N-]CCc4ccccc4)ccn3)[n-]c2C)CC1

>  <Energy>  (89) 
106.64463298447909

>  <Genealogy>  (89) 
CCN1CCN(C(=O)c2sc(=Nc3cc(C(=O)[N-]CCc4ccccc4)ccn3)[n-]c2C)CC1 (protonated)
CCN1CCN(C(=O)c2s/c(=N\c3cc(C(=O)[N-]CCc4ccccc4)ccn3)[n-]c2C)CC1 (cis-trans isomerization)
CCN1CCN(C(=O)c2s/c(=N\c3cc(C(=O)[N-]CCc4ccccc4)ccn3)[n-]c2C)CC1 (3D coordinates assigned)
CCN1CCN(C(=O)c2s/c(=N\c3cc(C(=O)[N-]CCc4ccccc4)ccn3)[n-]c2C)CC1 (nonaromatic ring conformer: 106.64463298447909 kcal/mol)

>  <smiles>  (89) 
CCN1CCN(C(=O)c2sc(=Nc3cc(C(=O)NCCc4ccccc4)ccn3)[nH]c2C)CC1

>  <score_type>  (89) 
oracle

>  <origin>  (89) 
adg

>  <m_score__min__energy>  (89) 
-12.140000000000001

>  <m_primary>  (89) 
energy

$$$$
89:0
     RDKit          3D

 34 36  0  0  0  0  0  0  0  0999 V2000
   59.7590   34.8240   46.3230 C   0  0  0  0  0  0  0  0  0  0  0  0
   59.0200   33.7290   45.6000 C   0  0  0  0  0  0  0  0  0  0  0  0
   58.5660   32.6490   46.3510 C   0  0  0  0  0  0  0  0  0  0  0  0
   57.8930   31.6700   45.6330 C   0  0  0  0  0  0  0  0  0  0  0  0
   57.4640   30.6680   46.2850 O   0  0  0  0  0  0  0  0  0  0  0  0
   57.7100   31.7880   44.2990 N   0  0  0  0  0  0  0  0  0  0  0  0
   57.0970   30.9840   43.3820 C   0  0  0  0  0  0  0  0  0  0  0  0
   56.3400   29.4380   43.8790 S   0  0  0  0  0  0  0  0  0  0  0  0
   57.5290   28.0940   43.9130 C   0  0  0  0  0  0  0  0  0  0  0  0
   58.3780   28.0670   45.1210 C   0  0  0  0  0  0  0  0  0  0  0  0
   59.6110   28.7320   45.1460 C   0  0  0  0  0  0  0  0  0  0  0  0
   60.4170   28.6910   46.2870 C   0  0  0  0  0  0  0  0  0  0  0  0
   59.9820   27.9880   47.3930 C   0  0  0  0  0  0  0  0  0  0  0  0
   58.7540   27.3190   47.3850 C   0  0  0  0  0  0  0  0  0  0  0  0
   57.9470   27.3590   46.2410 C   0  0  0  0  0  0  0  0  0  0  0  0
   56.6740   26.6540   46.2890 C   0  0  0  0  0  0  0  0  0  0  0  0
   56.5750   25.5420   46.9190 O   0  0  0  0  0  0  0  0  0  0  0  0
   55.5170   27.0980   45.6900 O   0  0  0  0  0  0  0  0  0  0  0  0
   57.1750   31.5360   42.1630 N   0  0  0  0  0  0  0  0  0  0  0  0
   57.8260   32.6710   42.3020 N   0  0  0  0  0  0  0  0  0  0  0  0
   58.1500   32.8290   43.5910 C   0  0  0  0  0  0  0  0  0  0  0  0
   58.8080   33.7980   44.2570 N   0  0  0  0  0  0  0  0  0  0  0  0
   59.6604   34.6779   47.4088 H   0  0  0  0  0  0  0  0  0  0  0  0
   60.8227   34.7945   46.0442 H   0  0  0  0  0  0  0  0  0  0  0  0
   59.3337   35.7994   46.0442 H   0  0  0  0  0  0  0  0  0  0  0  0
   58.7289   32.5763   47.4364 H   0  0  0  0  0  0  0  0  0  0  0  0
   56.9773   27.1439   43.8578 H   0  0  0  0  0  0  0  0  0  0  0  0
   58.2025   28.2462   43.0567 H   0  0  0  0  0  0  0  0  0  0  0  0
   59.9474   29.2909   44.2603 H   0  0  0  0  0  0  0  0  0  0  0  0
   61.3856   29.2121   46.3038 H   0  0  0  0  0  0  0  0  0  0  0  0
   60.6113   27.9537   48.2946 H   0  0  0  0  0  0  0  0  0  0  0  0
   58.4229   26.7630   48.2745 H   0  0  0  0  0  0  0  0  0  0  0  0
   55.1440   28.0000   45.8770 H   0  0  0  0  0  0  0  0  0  0  0  0
   59.1710   34.6250   43.7500 H   0  0  0  0  0  0  0  0  0  0  0  0
  1  2  1  0
  2  3  2  0
  3  4  1  0
  4  5  2  0
  4  6  1  0
  6  7  1  0
  7  8  1  0
  8  9  1  0
  9 10  1  0
 10 11  2  0
 11 12  1  0
 12 13  2  0
 13 14  1  0
 14 15  2  0
 15 16  1  0
 16 17  2  0
 16 18  1  0
  7 19  2  0
 19 20  1  0
 20 21  2  0
 21 22  1  0
 22  2  1  0
 21  6  1  0
 15 10  1  0
  1 23  1  0
  1 24  1  0
  1 25  1  0
  3 26  1  0
  9 27  1  0
  9 28  1  0
 11 29  1  0
 12 30  1  0
 13 31  1  0
 14 32  1  0
 18 33  1  0
 22 34  1  0
M  END
>  <smiles>  (90) 
Cc1cc(=O)n2c(SCc3ccccc3C(=O)O)nnc2[nH]1

>  <score_type>  (90) 
oracle

>  <origin>  (90) 
adg

>  <m_score__min__energy>  (90) 
-8.5600000000000005

>  <m_primary>  (90) 
energy

$$$$
90:0
     RDKit          3D

 53 56  0  0  0  0  0  0  0  0999 V2000
   51.0320   32.3400   50.4110 N   0  0  0  0  0  0  0  0  0  0  0  0
   51.6310   31.0560   50.2480 C   0  0  0  0  0  0  0  0  0  0  0  0
   51.3660   30.3820   49.2160 O   0  0  0  0  0  0  0  0  0  0  0  0
   52.5520   30.5160   51.2770 C   0  0  0  0  0  0  0  0  0  0  0  0
   52.2260   29.3430   51.9810 C   0  0  0  0  0  0  0  0  0  0  0  0
   53.0920   28.8350   52.9510 C   0  0  0  0  0  0  0  0  0  0  0  0
   54.2950   29.4860   53.2280 C   0  0  0  0  0  0  0  0  0  0  0  0
   54.6470   30.6500   52.5310 C   0  0  0  0  0  0  0  0  0  0  0  0
   55.9480   31.3470   52.8350 C   0  0  0  0  0  0  0  0  0  0  0  0
   56.7730   31.4490   51.6300 N   0  0  0  0  0  0  0  0  0  0  0  0
   58.1080   30.9200   51.5090 C   0  0  0  0  0  0  0  0  0  0  0  0
   59.1040   31.1920   52.4640 C   0  0  0  0  0  0  0  0  0  0  0  0
   60.3910   30.6730   52.3080 C   0  0  0  0  0  0  0  0  0  0  0  0
   60.6970   29.8700   51.2080 C   0  0  0  0  0  0  0  0  0  0  0  0
   59.7130   29.5660   50.2520 C   0  0  0  0  0  0  0  0  0  0  0  0
   60.0280   28.7220   49.0720 C   0  0  0  0  0  0  0  0  0  0  0  0
   61.0140   27.9360   49.1270 O   0  0  0  0  0  0  0  0  0  0  0  0
   59.2240   28.7780   47.8240 C   0  0  0  0  0  0  0  0  0  0  0  0
   58.7090   27.5990   47.2770 C   0  0  0  0  0  0  0  0  0  0  0  0
   57.9530   27.6060   46.1360 N   0  0  0  0  0  0  0  0  0  0  0  0
   57.4670   26.3010   45.6420 C   0  0  0  0  0  0  0  0  0  0  0  0
   56.1680   25.9450   46.2980 C   0  0  0  0  0  0  0  0  0  0  0  0
   56.0990   24.9540   47.0720 O   0  0  0  0  0  0  0  0  0  0  0  0
   55.0280   26.6920   46.0330 O   0  0  0  0  0  0  0  0  0  0  0  0
   57.6960   28.7930   45.4760 C   0  0  0  0  0  0  0  0  0  0  0  0
   56.9590   28.8290   44.2670 C   0  0  0  0  0  0  0  0  0  0  0  0
   56.6970   30.0370   43.6220 C   0  0  0  0  0  0  0  0  0  0  0  0
   57.1600   31.2330   44.1570 C   0  0  0  0  0  0  0  0  0  0  0  0
   57.8980   31.2360   45.3390 C   0  0  0  0  0  0  0  0  0  0  0  0
   58.3350   32.4310   45.8150 F   0  0  0  0  0  0  0  0  0  0  0  0
   58.1810   30.0220   46.0100 C   0  0  0  0  0  0  0  0  0  0  0  0
   58.9450   29.9990   47.1950 C   0  0  0  0  0  0  0  0  0  0  0  0
   59.4000   31.0690   47.6860 O   0  0  0  0  0  0  0  0  0  0  0  0
   58.4230   30.1050   50.4080 C   0  0  0  0  0  0  0  0  0  0  0  0
   53.7670   31.1680   51.5640 C   0  0  0  0  0  0  0  0  0  0  0  0
   51.2510   33.1220   49.7550 H   0  0  0  0  0  0  0  0  0  0  0  0
   51.2815   28.8219   51.7657 H   0  0  0  0  0  0  0  0  0  0  0  0
   52.8254   27.9190   53.4986 H   0  0  0  0  0  0  0  0  0  0  0  0
   54.9704   29.0835   53.9973 H   0  0  0  0  0  0  0  0  0  0  0  0
   55.7364   32.3575   53.2146 H   0  0  0  0  0  0  0  0  0  0  0  0
   56.4946   30.7630   53.5901 H   0  0  0  0  0  0  0  0  0  0  0  0
   56.3740   31.9860   50.8270 H   0  0  0  0  0  0  0  0  0  0  0  0
   58.8680   31.8167   53.3381 H   0  0  0  0  0  0  0  0  0  0  0  0
   61.1667   30.8978   53.0549 H   0  0  0  0  0  0  0  0  0  0  0  0
   61.7156   29.4724   51.0887 H   0  0  0  0  0  0  0  0  0  0  0  0
   58.9167   26.6411   47.7764 H   0  0  0  0  0  0  0  0  0  0  0  0
   57.3197   26.3576   44.5534 H   0  0  0  0  0  0  0  0  0  0  0  0
   58.2119   25.5284   45.8830 H   0  0  0  0  0  0  0  0  0  0  0  0
   56.5878   27.8900   43.8305 H   0  0  0  0  0  0  0  0  0  0  0  0
   56.1209   30.0433   42.6849 H   0  0  0  0  0  0  0  0  0  0  0  0
   56.9429   32.1820   43.6449 H   0  0  0  0  0  0  0  0  0  0  0  0
   57.6495   29.8854   49.6574 H   0  0  0  0  0  0  0  0  0  0  0  0
   54.0301   32.0911   51.0267 H   0  0  0  0  0  0  0  0  0  0  0  0
  1  2  1  0
  2  3  2  0
  2  4  1  0
  4  5  2  0
  5  6  1  0
  6  7  2  0
  7  8  1  0
  8  9  1  0
  9 10  1  0
 10 11  1  0
 11 12  2  0
 12 13  1  0
 13 14  2  0
 14 15  1  0
 15 16  1  0
 16 17  2  0
 16 18  1  0
 18 19  2  0
 19 20  1  0
 20 21  1  0
 21 22  1  0
 22 23  2  0
 22 24  1  0
 20 25  1  0
 25 26  2  0
 26 27  1  0
 27 28  2  0
 28 29  1  0
 29 30  1  0
 29 31  2  0
 31 32  1  0
 32 33  2  0
 15 34  2  0
  8 35  2  0
 35  4  1  0
 34 11  1  0
 32 18  1  0
 31 25  1  0
  1 36  1  0
  5 37  1  0
  6 38  1  0
  7 39  1  0
  9 40  1  0
  9 41  1  0
 10 42  1  0
 12 43  1  0
 13 44  1  0
 14 45  1  0
 19 46  1  0
 21 47  1  0
 21 48  1  0
 26 49  1  0
 27 50  1  0
 28 51  1  0
 34 52  1  0
 35 53  1  0
M  CHG  2   1  -1  24  -1
M  END
>  <UniqueID>  (91) 
84

>  <SMILES>  (91) 
[NH-]C(=O)c1cccc(CNc2cccc(C(=O)c3cn(CC(=O)[O-])c4cccc(F)c4c3=O)c2)c1

>  <Energy>  (91) 
74.86936763236729

>  <Genealogy>  (91) 
[NH-]C(=O)c1cccc(CNc2cccc(C(=O)c3cn(CC(=O)[O-])c4cccc(F)c4c3=O)c2)c1 (protonated)
[NH-]C(=O)c1cccc(CNc2cccc(C(=O)c3cn(CC(=O)[O-])c4cccc(F)c4c3=O)c2)c1 (3D coordinates assigned)
[NH-]C(=O)c1cccc(CNc2cccc(C(=O)c3cn(CC(=O)[O-])c4cccc(F)c4c3=O)c2)c1 (optimized conformer: 74.86936763236729 kcal/mol)

>  <smiles>  (91) 
NC(=O)c1cccc(CNc2cccc(C(=O)c3cn(CC(=O)O)c4cccc(F)c4c3=O)c2)c1

>  <score_type>  (91) 
oracle

>  <origin>  (91) 
adg

>  <m_score__min__energy>  (91) 
-16.789999999999999

>  <m_primary>  (91) 
energy

$$$$
91:0
     RDKit          3D

 44 47  0  0  0  0  0  0  0  0999 V2000
   56.8250   32.0570   42.6960 H   0  0  0  0  0  0  0  0  0  0  0  0
   56.2820   31.2040   42.7430 O   0  0  0  0  0  0  0  0  0  0  0  0
   56.3240   30.3930   43.8730 C   0  0  0  0  0  0  0  0  0  0  0  0
   55.5090   29.3300   44.0560 N   0  0  0  0  0  0  0  0  0  0  0  0
   55.9670   28.7370   45.1800 C   0  0  0  0  0  0  0  0  0  0  0  0
   55.5240   27.4980   45.6200 O   0  0  0  0  0  0  0  0  0  0  0  0
   56.9980   29.4660   45.7400 C   0  0  0  0  0  0  0  0  0  0  0  0
   57.2400   30.5000   44.9000 C   0  0  0  0  0  0  0  0  0  0  0  0
   58.6940   30.8670   44.8780 C   0  0  1  0  0  0  0  0  0  0  0  0
   59.1449   30.8152   43.8760 H   0  0  0  0  0  0  0  0  0  0  0  0
   58.8990   32.2920   45.3340 C   0  0  0  0  0  0  0  0  0  0  0  0
   58.4960   33.3560   44.5110 C   0  0  0  0  0  0  0  0  0  0  0  0
   58.0483   33.1483   43.5279 H   0  0  0  0  0  0  0  0  0  0  0  0
   58.6610   34.6780   44.9350 C   0  0  0  0  0  0  0  0  0  0  0  0
   58.3470   35.5066   44.2833 H   0  0  0  0  0  0  0  0  0  0  0  0
   59.2240   34.9490   46.1850 C   0  0  0  0  0  0  0  0  0  0  0  0
   59.3546   35.9900   46.5155 H   0  0  0  0  0  0  0  0  0  0  0  0
   59.6210   33.8970   47.0150 C   0  0  0  0  0  0  0  0  0  0  0  0
   60.0628   34.1105   47.9995 H   0  0  0  0  0  0  0  0  0  0  0  0
   59.4570   32.5730   46.5950 C   0  0  0  0  0  0  0  0  0  0  0  0
   59.7656   31.7476   47.2534 H   0  0  0  0  0  0  0  0  0  0  0  0
   59.2820   29.9130   45.8290 N   0  0  0  0  0  0  0  0  0  0  0  0
   60.2950   29.8600   46.0790 H   0  0  0  0  0  0  0  0  0  0  0  0
   58.2520   29.0750   46.3560 C   0  0  0  0  0  0  0  0  0  0  0  0
   58.4570   28.1330   47.2850 C   0  0  0  0  0  0  0  0  0  0  0  0
   57.6701   27.3850   47.4620 H   0  0  0  0  0  0  0  0  0  0  0  0
   59.6340   28.0630   48.0400 O   0  0  0  0  0  0  0  0  0  0  0  0
   60.0830   29.1140   48.8470 C   0  0  0  0  0  0  0  0  0  0  0  0
   60.1430   28.9740   50.1020 O   0  0  0  0  0  0  0  0  0  0  0  0
   60.4650   30.3190   48.2510 O   0  0  0  0  0  0  0  0  0  0  0  0
   61.7030   30.4890   47.5640 C   0  0  0  0  0  0  0  0  0  0  0  0
   62.2923   29.5634   47.6412 H   0  0  0  0  0  0  0  0  0  0  0  0
   61.5006   30.7159   46.5069 H   0  0  0  0  0  0  0  0  0  0  0  0
   62.4790   31.6260   48.1730 C   0  0  0  0  0  0  0  0  0  0  0  0
   62.6640   31.6840   49.5650 C   0  0  0  0  0  0  0  0  0  0  0  0
   62.2910   30.8681   50.2015 H   0  0  0  0  0  0  0  0  0  0  0  0
   63.3200   32.7740   50.1440 C   0  0  0  0  0  0  0  0  0  0  0  0
   63.4665   32.8117   51.2336 H   0  0  0  0  0  0  0  0  0  0  0  0
   63.7900   33.8160   49.3400 C   0  0  0  0  0  0  0  0  0  0  0  0
   64.3060   34.6731   49.7973 H   0  0  0  0  0  0  0  0  0  0  0  0
   63.6050   33.7700   47.9560 C   0  0  0  0  0  0  0  0  0  0  0  0
   63.9734   34.5922   47.3249 H   0  0  0  0  0  0  0  0  0  0  0  0
   62.9520   32.6800   47.3720 C   0  0  0  0  0  0  0  0  0  0  0  0
   62.8079   32.6472   46.2820 H   0  0  0  0  0  0  0  0  0  0  0  0
  1  2  1  0
  2  3  1  0
  3  4  1  0
  4  5  1  0
  5  6  1  0
  5  7  2  0
  7  8  1  0
  8  9  1  0
  9 10  1  6
  9 11  1  0
 11 12  2  0
 12 13  1  0
 12 14  1  0
 14 15  1  0
 14 16  2  0
 16 17  1  0
 16 18  1  0
 18 19  1  0
 18 20  2  0
 20 21  1  0
  9 22  1  0
 22 23  1  0
 22 24  1  0
 24 25  2  0
 25 26  1  0
 25 27  1  0
 27 28  1  0
 28 29  2  0
 28 30  1  0
 30 31  1  0
 31 32  1  0
 31 33  1  0
 31 34  1  0
 34 35  2  0
 35 36  1  0
 35 37  1  0
 37 38  1  0
 37 39  2  0
 39 40  1  0
 39 41  1  0
 41 42  1  0
 41 43  2  0
 43 44  1  0
  8  3  2  0
 20 11  1  0
 43 34  1  0
 24  7  1  0
M  CHG  2   4  -1   6  -1
M  END
>  <UniqueID>  (92) 
85

>  <SMILES>  (92) 
O=C(O/C=C1/N[C@H](c2ccccc2)c2c(O)[n-]c([O-])c21)OCc1ccccc1

>  <Energy>  (92) 
116.03955991091588

>  <Genealogy>  (92) 
O=C(OC=C1NC(c2ccccc2)c2c(O)[n-]c([O-])c21)OCc1ccccc1 (protonated)
O=C(OC=C1N[C@H](c2ccccc2)c2c(O)[n-]c([O-])c21)OCc1ccccc1 (chirality)
O=C(O/C=C1/N[C@H](c2ccccc2)c2c(O)[n-]c([O-])c21)OCc1ccccc1 (cis-trans isomerization)
O=C(O/C=C1/N[C@H](c2ccccc2)c2c(O)[n-]c([O-])c21)OCc1ccccc1 (3D coordinates assigned)
O=C(O/C=C1/N[C@H](c2ccccc2)c2c(O)[n-]c([O-])c21)OCc1ccccc1 (nonaromatic ring conformer: 116.03955991091588 kcal/mol)

>  <smiles>  (92) 
O=C(OC=C1NC(c2ccccc2)c2c(O)[nH]c(O)c21)OCc1ccccc1

>  <score_type>  (92) 
oracle

>  <origin>  (92) 
adg

>  <m_score__min__energy>  (92) 
-11.789999999999999

>  <m_primary>  (92) 
energy

$$$$
92:0
     RDKit          3D

 48 51  0  0  0  0  0  0  0  0999 V2000
   57.2890   34.3560   44.5100 O   0  0  0  0  0  0  0  0  0  0  0  0
   58.3710   33.7180   44.6160 C   0  0  0  0  0  0  0  0  0  0  0  0
   59.4430   34.2280   45.5230 C   0  0  0  0  0  0  0  0  0  0  0  0
   59.6790   33.2510   46.6410 C   0  0  0  0  0  0  0  0  0  0  0  0
   58.6280   32.8900   47.5010 C   0  0  0  0  0  0  0  0  0  0  0  0
   58.8420   31.9570   48.5210 C   0  0  0  0  0  0  0  0  0  0  0  0
   60.1000   31.3710   48.6820 C   0  0  0  0  0  0  0  0  0  0  0  0
   61.1470   31.7150   47.8220 C   0  0  0  0  0  0  0  0  0  0  0  0
   60.9380   32.6480   46.8020 C   0  0  0  0  0  0  0  0  0  0  0  0
   58.5470   32.4830   43.9790 O   0  0  0  0  0  0  0  0  0  0  0  0
   57.9170   31.2840   44.3420 C   0  0  0  0  0  0  0  0  0  0  0  0
   56.5370   31.1680   44.1320 C   0  0  0  0  0  0  0  0  0  0  0  0
   55.8580   29.9980   44.4880 C   0  0  0  0  0  0  0  0  0  0  0  0
   56.5540   28.9340   45.0690 C   0  0  0  0  0  0  0  0  0  0  0  0
   55.8950   27.8000   45.4220 N   0  0  0  0  0  0  0  0  0  0  0  0
   56.5300   26.7440   45.9960 C   0  0  0  0  0  0  0  0  0  0  0  0
   55.8610   25.7240   46.3100 O   0  0  0  0  0  0  0  0  0  0  0  0
   57.9190   26.7980   46.2340 C   0  0  0  0  0  0  0  0  0  0  0  0
   58.6590   25.6540   46.8900 C   0  0  0  0  0  0  0  0  0  0  0  0
   59.0690   24.6590   45.8960 N   0  0  0  0  0  0  0  0  0  0  0  0
   58.3890   23.4110   45.6660 C   0  0  0  0  0  0  0  0  0  0  0  0
   57.1130   23.2100   46.2100 C   0  0  0  0  0  0  0  0  0  0  0  0
   56.4390   22.0070   45.9980 C   0  0  0  0  0  0  0  0  0  0  0  0
   57.0460   21.0080   45.2380 C   0  0  0  0  0  0  0  0  0  0  0  0
   58.2820   21.2090   44.7090 N   0  0  0  0  0  0  0  0  0  0  0  0
   58.9590   22.3740   44.9020 C   0  0  0  0  0  0  0  0  0  0  0  0
   58.6140   27.9710   45.8970 C   0  0  0  0  0  0  0  0  0  0  0  0
   57.9400   29.0450   45.3020 C   0  0  0  0  0  0  0  0  0  0  0  0
   58.6160   30.2200   44.9440 C   0  0  0  0  0  0  0  0  0  0  0  0
   60.3732   34.3579   44.9504 H   0  0  0  0  0  0  0  0  0  0  0  0
   59.1280   35.1928   45.9473 H   0  0  0  0  0  0  0  0  0  0  0  0
   57.6338   33.3425   47.3717 H   0  0  0  0  0  0  0  0  0  0  0  0
   58.0185   31.6843   49.1974 H   0  0  0  0  0  0  0  0  0  0  0  0
   60.2667   30.6387   49.4857 H   0  0  0  0  0  0  0  0  0  0  0  0
   62.1364   31.2511   47.9480 H   0  0  0  0  0  0  0  0  0  0  0  0
   61.7623   32.9111   46.1228 H   0  0  0  0  0  0  0  0  0  0  0  0
   55.9820   32.0048   43.6829 H   0  0  0  0  0  0  0  0  0  0  0  0
   54.7756   29.9151   44.3106 H   0  0  0  0  0  0  0  0  0  0  0  0
   59.5529   26.0466   47.3967 H   0  0  0  0  0  0  0  0  0  0  0  0
   57.9878   25.1708   47.6152 H   0  0  0  0  0  0  0  0  0  0  0  0
   59.8950   24.8930   45.3010 H   0  0  0  0  0  0  0  0  0  0  0  0
   56.6409   24.0043   46.8068 H   0  0  0  0  0  0  0  0  0  0  0  0
   55.4383   21.8482   46.4263 H   0  0  0  0  0  0  0  0  0  0  0  0
   56.5237   20.0553   45.0661 H   0  0  0  0  0  0  0  0  0  0  0  0
   58.7220   20.4520   44.1400 H   0  0  0  0  0  0  0  0  0  0  0  0
   59.9570   22.5064   44.4588 H   0  0  0  0  0  0  0  0  0  0  0  0
   59.6922   28.0466   46.1012 H   0  0  0  0  0  0  0  0  0  0  0  0
   59.6956   30.3110   45.1339 H   0  0  0  0  0  0  0  0  0  0  0  0
  1  2  2  0
  2  3  1  0
  3  4  1  0
  4  5  2  0
  5  6  1  0
  6  7  2  0
  7  8  1  0
  8  9  2  0
  2 10  1  0
 10 11  1  0
 11 12  2  0
 12 13  1  0
 13 14  2  0
 14 15  1  0
 15 16  1  0
 16 17  2  0
 16 18  1  0
 18 19  1  0
 19 20  1  0
 20 21  1  0
 21 22  2  0
 22 23  1  0
 23 24  2  0
 24 25  1  0
 25 26  2  0
 18 27  2  0
 27 28  1  0
 28 29  2  0
  9  4  1  0
 29 11  1  0
 28 14  1  0
 26 21  1  0
  3 30  1  0
  3 31  1  0
  5 32  1  0
  6 33  1  0
  7 34  1  0
  8 35  1  0
  9 36  1  0
 12 37  1  0
 13 38  1  0
 19 39  1  0
 19 40  1  0
 20 41  1  0
 22 42  1  0
 23 43  1  0
 24 44  1  0
 25 45  1  0
 26 46  1  0
 27 47  1  0
 29 48  1  0
M  CHG  2  15  -1  25   1
M  END
>  <UniqueID>  (93) 
86

>  <SMILES>  (93) 
O=C(Cc1ccccc1)Oc1ccc2[n-]c(=O)c(CNc3ccc[nH+]c3)cc2c1

>  <Energy>  (93) 
58.75734745852233

>  <Genealogy>  (93) 
O=C(Cc1ccccc1)Oc1ccc2[n-]c(=O)c(CNc3ccc[nH+]c3)cc2c1 (protonated)
O=C(Cc1ccccc1)Oc1ccc2[n-]c(=O)c(CNc3ccc[nH+]c3)cc2c1 (3D coordinates assigned)
O=C(Cc1ccccc1)Oc1ccc2[n-]c(=O)c(CNc3ccc[nH+]c3)cc2c1 (optimized conformer: 58.75734745852233 kcal/mol)

>  <smiles>  (93) 
O=C(Cc1ccccc1)Oc1ccc2[nH]c(=O)c(CNc3cccnc3)cc2c1

>  <score_type>  (93) 
oracle

>  <origin>  (93) 
adg

>  <m_score__min__energy>  (93) 
-10.800000000000001

>  <m_primary>  (93) 
energy

$$$$
93:0
     RDKit          3D

 71 75  0  0  0  0  0  0  0  0999 V2000
   55.2015   30.9917   43.9154 H   0  0  0  0  0  0  0  0  0  0  0  0
   55.9810   30.2830   44.2320 C   0  0  0  0  0  0  0  0  0  0  0  0
   55.6330   29.1240   44.8550 N   0  0  0  0  0  0  0  0  0  0  0  0
   56.5650   28.2310   45.2950 C   0  0  0  0  0  0  0  0  0  0  0  0
   56.2050   27.1300   45.8990 N   0  0  0  0  0  0  0  0  0  0  0  0
   56.9630   25.9130   45.9140 C   0  0  0  0  0  0  0  0  0  0  0  0
   58.0670   25.8640   46.5220 O   0  0  0  0  0  0  0  0  0  0  0  0
   56.3530   24.6550   45.3550 C   0  0  0  0  0  0  0  0  0  0  0  0
   56.1551   23.9653   46.1888 H   0  0  0  0  0  0  0  0  0  0  0  0
   55.4347   24.9514   44.8269 H   0  0  0  0  0  0  0  0  0  0  0  0
   57.2130   23.9610   44.3690 N   0  0  0  0  0  0  0  0  0  0  0  0
   57.9330   22.7810   44.8880 C   0  0  0  0  0  0  0  0  0  0  0  0
   58.9089   22.7163   44.3846 H   0  0  0  0  0  0  0  0  0  0  0  0
   58.0399   22.9122   45.9749 H   0  0  0  0  0  0  0  0  0  0  0  0
   57.1680   21.4550   44.6540 C   0  0  0  0  0  0  0  0  0  0  0  0
   57.8807   20.7092   44.2722 H   0  0  0  0  0  0  0  0  0  0  0  0
   56.7280   21.1711   45.6213 H   0  0  0  0  0  0  0  0  0  0  0  0
   56.0930   21.5540   43.7330 O   0  0  0  0  0  0  0  0  0  0  0  0
   56.4740   22.3180   42.6150 C   0  0  0  0  0  0  0  0  0  0  0  0
   57.4343   21.9459   42.2286 H   0  0  0  0  0  0  0  0  0  0  0  0
   55.7021   22.2314   41.8361 H   0  0  0  0  0  0  0  0  0  0  0  0
   56.6240   23.7950   43.0190 C   0  0  0  0  0  0  0  0  0  0  0  0
   57.2746   24.2959   42.2870 H   0  0  0  0  0  0  0  0  0  0  0  0
   55.6175   24.2384   43.0385 H   0  0  0  0  0  0  0  0  0  0  0  0
   57.9250   28.5140   45.1120 C   0  0  0  0  0  0  0  0  0  0  0  0
   58.6901   27.8262   45.5012 H   0  0  0  0  0  0  0  0  0  0  0  0
   58.3050   29.6770   44.4310 C   0  0  0  0  0  0  0  0  0  0  0  0
   59.3685   29.8837   44.2409 H   0  0  0  0  0  0  0  0  0  0  0  0
   57.3260   30.5740   43.9940 C   0  0  0  0  0  0  0  0  0  0  0  0
   57.7670   32.0540   43.0820 S   0  0  0  0  0  0  0  0  0  0  0  0
   58.2070   32.9810   44.5550 C   0  0  0  0  0  0  0  0  0  0  0  0
   58.9020   34.1910   44.4660 C   0  0  0  0  0  0  0  0  0  0  0  0
   59.1569   34.6080   43.4805 H   0  0  0  0  0  0  0  0  0  0  0  0
   59.2730   34.8710   45.6310 C   0  0  0  0  0  0  0  0  0  0  0  0
   59.7989   35.8344   45.5589 H   0  0  0  0  0  0  0  0  0  0  0  0
   58.9780   34.3310   46.8870 C   0  0  0  0  0  0  0  0  0  0  0  0
   59.2923   34.8579   47.8000 H   0  0  0  0  0  0  0  0  0  0  0  0
   58.2810   33.1170   46.9820 C   0  0  0  0  0  0  0  0  0  0  0  0
   58.0120   32.4950   48.2430 N   0  0  0  0  0  0  0  0  0  0  0  0
   58.8780   31.5970   48.9440 C   0  0  0  0  0  0  0  0  0  0  0  0
   59.6460   32.0280   49.8470 O   0  0  0  0  0  0  0  0  0  0  0  0
   58.8810   30.2110   48.5710 N   0  0  0  0  0  0  0  0  0  0  0  0
   58.5320   29.9870   47.6070 H   0  0  0  0  0  0  0  0  0  0  0  0
   59.5420   29.1750   49.3130 C   0  0  0  0  0  0  0  0  0  0  0  0
   60.0540   28.0270   48.6820 C   0  0  0  0  0  0  0  0  0  0  0  0
   59.8951   27.8759   47.6041 H   0  0  0  0  0  0  0  0  0  0  0  0
   60.7650   27.0770   49.4230 C   0  0  0  0  0  0  0  0  0  0  0  0
   61.1576   26.1783   48.9249 H   0  0  0  0  0  0  0  0  0  0  0  0
   60.9820   27.2630   50.8030 C   0  0  0  0  0  0  0  0  0  0  0  0
   61.7760   26.2710   51.5690 C   0  0  0  0  0  0  0  0  0  0  0  0
   61.4310   25.0600   51.5190 O   0  0  0  0  0  0  0  0  0  0  0  0
   62.9320   26.6460   52.3500 N   0  0  0  0  0  0  0  0  0  0  0  0
   63.7100   27.8540   52.0340 C   0  0  0  0  0  0  0  0  0  0  0  0
   63.6059   28.0833   50.9632 H   0  0  0  0  0  0  0  0  0  0  0  0
   63.3309   28.6926   52.6366 H   0  0  0  0  0  0  0  0  0  0  0  0
   65.1890   27.6320   52.3620 C   0  0  0  0  0  0  0  0  0  0  0  0
   65.6068   26.8877   51.6681 H   0  0  0  0  0  0  0  0  0  0  0  0
   65.7255   28.5867   52.2586 H   0  0  0  0  0  0  0  0  0  0  0  0
   65.3330   27.1650   53.6890 O   0  0  0  0  0  0  0  0  0  0  0  0
   64.7660   25.8720   53.7980 C   0  0  0  0  0  0  0  0  0  0  0  0
   65.2159   25.2165   53.0378 H   0  0  0  0  0  0  0  0  0  0  0  0
   64.9669   25.4847   54.8078 H   0  0  0  0  0  0  0  0  0  0  0  0
   63.2470   25.9190   53.5850 C   0  0  0  0  0  0  0  0  0  0  0  0
   62.8582   24.8926   53.5119 H   0  0  0  0  0  0  0  0  0  0  0  0
   62.7805   26.4370   54.4360 H   0  0  0  0  0  0  0  0  0  0  0  0
   60.4290   28.3880   51.4340 C   0  0  0  0  0  0  0  0  0  0  0  0
   60.5403   28.5163   52.5208 H   0  0  0  0  0  0  0  0  0  0  0  0
   59.7390   29.3440   50.6890 C   0  0  0  0  0  0  0  0  0  0  0  0
   59.3449   30.2414   51.1883 H   0  0  0  0  0  0  0  0  0  0  0  0
   57.9000   32.4490   45.8120 C   0  0  0  0  0  0  0  0  0  0  0  0
   57.3540   31.4966   45.8818 H   0  0  0  0  0  0  0  0  0  0  0  0
  1  2  1  0
  2  3  1  0
  3  4  1  0
  4  5  2  0
  5  6  1  0
  6  7  2  0
  6  8  1  0
  8  9  1  0
  8 10  1  0
  8 11  1  0
 11 12  1  0
 12 13  1  0
 12 14  1  0
 12 15  1  0
 15 16  1  0
 15 17  1  0
 15 18  1  0
 18 19  1  0
 19 20  1  0
 19 21  1  0
 19 22  1  0
 22 23  1  0
 22 24  1  0
  4 25  1  0
 25 26  1  0
 25 27  2  0
 27 28  1  0
 27 29  1  0
 29 30  1  0
 30 31  1  0
 31 32  2  0
 32 33  1  0
 32 34  1  0
 34 35  1  0
 34 36  2  0
 36 37  1  0
 36 38  1  0
 38 39  1  0
 39 40  1  0
 40 41  2  0
 40 42  1  0
 42 43  1  0
 42 44  1  0
 44 45  2  0
 45 46  1  0
 45 47  1  0
 47 48  1  0
 47 49  2  0
 49 50  1  0
 50 51  2  0
 50 52  1  0
 52 53  1  0
 53 54  1  0
 53 55  1  0
 53 56  1  0
 56 57  1  0
 56 58  1  0
 56 59  1  0
 59 60  1  0
 60 61  1  0
 60 62  1  0
 60 63  1  0
 63 64  1  0
 63 65  1  0
 49 66  1  0
 66 67  1  0
 66 68  2  0
 68 69  1  0
 38 70  2  0
 70 71  1  0
 29  2  2  0
 70 31  1  0
 22 11  1  0
 68 44  1  0
 63 52  1  0
M  CHG  2   3  -1  39  -1
M  END
>  <UniqueID>  (94) 
87

>  <SMILES>  (94) 
O=C(CN1CCOCC1)/N=c1/ccc(Sc2cccc([N-]C(=O)Nc3ccc(C(=O)N4CCOCC4)cc3)c2)c[n-]1

>  <Energy>  (94) 
109.10224384598752

>  <Genealogy>  (94) 
O=C(CN1CCOCC1)N=c1ccc(Sc2cccc([N-]C(=O)Nc3ccc(C(=O)N4CCOCC4)cc3)c2)c[n-]1 (protonated)
O=C(CN1CCOCC1)/N=c1/ccc(Sc2cccc([N-]C(=O)Nc3ccc(C(=O)N4CCOCC4)cc3)c2)c[n-]1 (cis-trans isomerization)
O=C(CN1CCOCC1)/N=c1/ccc(Sc2cccc([N-]C(=O)Nc3ccc(C(=O)N4CCOCC4)cc3)c2)c[n-]1 (3D coordinates assigned)
O=C(CN1CCOCC1)/N=c1/ccc(Sc2cccc([N-]C(=O)Nc3ccc(C(=O)N4CCOCC4)cc3)c2)c[n-]1 (nonaromatic ring conformer: 109.10224384598752 kcal/mol)

>  <smiles>  (94) 
O=C(CN1CCOCC1)N=c1ccc(Sc2cccc(NC(=O)Nc3ccc(C(=O)N4CCOCC4)cc3)c2)c[nH]1

>  <score_type>  (94) 
oracle

>  <origin>  (94) 
adg

>  <m_score__min__energy>  (94) 
-14.09

>  <m_primary>  (94) 
energy

$$$$
94:0
     RDKit          3D

 45 47  0  0  0  0  0  0  0  0999 V2000
   55.1480   29.2120   44.8600 O   0  0  0  0  0  0  0  0  0  0  0  0
   56.2800   29.7090   44.6190 C   0  0  0  0  0  0  0  0  0  0  0  0
   57.4870   28.8080   44.5340 C   0  0  0  0  0  0  0  0  0  0  0  0
   58.2810   28.8160   45.8180 C   0  0  0  0  0  0  0  0  0  0  0  0
   59.2510   29.8090   46.0360 C   0  0  0  0  0  0  0  0  0  0  0  0
   59.9880   29.8390   47.2290 C   0  0  0  0  0  0  0  0  0  0  0  0
   61.0040   30.8890   47.4300 C   0  0  0  0  0  0  0  0  0  0  0  0
   62.0930   30.8100   46.8000 O   0  0  0  0  0  0  0  0  0  0  0  0
   60.7830   31.9810   48.3400 N   0  0  0  0  0  0  0  0  0  0  0  0
   61.6240   33.1650   48.3670 C   0  0  0  0  0  0  0  0  0  0  0  0
   61.2780   33.8900   49.6610 C   0  0  0  0  0  0  0  0  0  0  0  0
   59.9670   33.2790   50.1490 C   0  0  0  0  0  0  0  0  0  0  0  0
   59.8480   31.9300   49.4520 C   0  0  0  0  0  0  0  0  0  0  0  0
   59.7180   28.8920   48.2330 C   0  0  0  0  0  0  0  0  0  0  0  0
   60.3900   28.9380   49.4510 O   0  0  0  0  0  0  0  0  0  0  0  0
   58.7480   27.9080   48.0240 C   0  0  0  0  0  0  0  0  0  0  0  0
   58.0280   27.8670   46.8260 C   0  0  0  0  0  0  0  0  0  0  0  0
   57.0580   26.8860   46.6480 O   0  0  0  0  0  0  0  0  0  0  0  0
   56.3920   31.1320   44.5080 N   0  0  0  0  0  0  0  0  0  0  0  0
   57.7640   31.9700   43.8600 S   0  0  0  0  0  0  0  0  0  0  0  0
   58.8630   30.9930   43.5500 O   0  0  0  0  0  0  0  0  0  0  0  0
   57.3730   32.6930   42.6020 O   0  0  0  0  0  0  0  0  0  0  0  0
   58.3360   33.1290   45.0550 C   0  0  0  0  0  0  0  0  0  0  0  0
   59.1870   34.1760   44.6730 C   0  0  0  0  0  0  0  0  0  0  0  0
   59.6300   35.1030   45.6220 C   0  0  0  0  0  0  0  0  0  0  0  0
   59.2210   34.9910   46.9550 C   0  0  0  0  0  0  0  0  0  0  0  0
   58.3660   33.9540   47.3380 C   0  0  0  0  0  0  0  0  0  0  0  0
   57.9210   33.0260   46.3910 C   0  0  0  0  0  0  0  0  0  0  0  0
   57.1513   27.7808   44.3288 H   0  0  0  0  0  0  0  0  0  0  0  0
   58.1360   29.1792   43.7271 H   0  0  0  0  0  0  0  0  0  0  0  0
   59.4342   30.5703   45.2634 H   0  0  0  0  0  0  0  0  0  0  0  0
   62.6865   32.8804   48.3596 H   0  0  0  0  0  0  0  0  0  0  0  0
   61.4535   33.8030   47.4873 H   0  0  0  0  0  0  0  0  0  0  0  0
   62.0714   33.7385   50.4077 H   0  0  0  0  0  0  0  0  0  0  0  0
   61.1822   34.9742   49.5018 H   0  0  0  0  0  0  0  0  0  0  0  0
   59.9908   33.1446   51.2405 H   0  0  0  0  0  0  0  0  0  0  0  0
   59.1094   33.9285   49.9193 H   0  0  0  0  0  0  0  0  0  0  0  0
   60.1159   31.1163   50.1420 H   0  0  0  0  0  0  0  0  0  0  0  0
   58.8201   31.7371   49.1111 H   0  0  0  0  0  0  0  0  0  0  0  0
   58.5496   27.1611   48.8068 H   0  0  0  0  0  0  0  0  0  0  0  0
   59.5069   34.2685   43.6246 H   0  0  0  0  0  0  0  0  0  0  0  0
   60.3007   35.9209   45.3199 H   0  0  0  0  0  0  0  0  0  0  0  0
   59.5722   35.7188   47.7014 H   0  0  0  0  0  0  0  0  0  0  0  0
   58.0426   33.8675   48.3858 H   0  0  0  0  0  0  0  0  0  0  0  0
   57.2442   32.2137   46.6944 H   0  0  0  0  0  0  0  0  0  0  0  0
  1  2  2  0
  2  3  1  0
  3  4  1  0
  4  5  2  0
  5  6  1  0
  6  7  1  0
  7  8  2  0
  7  9  1  0
  9 10  1  0
 10 11  1  0
 11 12  1  0
 12 13  1  0
  6 14  2  0
 14 15  1  0
 14 16  1  0
 16 17  2  0
 17 18  1  0
  2 19  1  0
 19 20  1  0
 20 21  2  0
 20 22  2  0
 20 23  1  0
 23 24  2  0
 24 25  1  0
 25 26  2  0
 26 27  1  0
 27 28  2  0
 17  4  1  0
 28 23  1  0
 13  9  1  0
  3 29  1  0
  3 30  1  0
  5 31  1  0
 10 32  1  0
 10 33  1  0
 11 34  1  0
 11 35  1  0
 12 36  1  0
 12 37  1  0
 13 38  1  0
 13 39  1  0
 16 40  1  0
 24 41  1  0
 25 42  1  0
 26 43  1  0
 27 44  1  0
 28 45  1  0
M  CHG  3  15  -1  18  -1  19  -1
M  END
>  <UniqueID>  (95) 
88

>  <SMILES>  (95) 
O=C(Cc1cc(C(=O)N2CCCC2)c([O-])cc1[O-])[N-]S(=O)(=O)c1ccccc1

>  <Energy>  (95) 
55.76179231541841

>  <Genealogy>  (95) 
O=C(Cc1cc(C(=O)N2CCCC2)c([O-])cc1[O-])[N-]S(=O)(=O)c1ccccc1 (protonated)
O=C(Cc1cc(C(=O)N2CCCC2)c([O-])cc1[O-])[N-]S(=O)(=O)c1ccccc1 (3D coordinates assigned)
O=C(Cc1cc(C(=O)N2CCCC2)c([O-])cc1[O-])[N-]S(=O)(=O)c1ccccc1 (nonaromatic ring conformer: 55.76179231541841 kcal/mol)

>  <smiles>  (95) 
O=C(Cc1cc(C(=O)N2CCCC2)c(O)cc1O)NS(=O)(=O)c1ccccc1

>  <score_type>  (95) 
oracle

>  <origin>  (95) 
adg

>  <m_score__min__energy>  (95) 
-13.550000000000001

>  <m_primary>  (95) 
energy

$$$$
