0:0
     RDKit          3D

 45 46  0  0  0  0  0  0  0  0999 V2000
   57.3900   32.9170   43.8210 N   0  0  0  0  0  0  0  0  0  0  0  0
   57.2100   33.9270   44.8620 C   0  0  0  0  0  0  0  0  0  0  0  0
   58.2850   33.8170   45.9120 C   0  0  0  0  0  0  0  0  0  0  0  0
   58.0340   33.1370   47.1130 C   0  0  0  0  0  0  0  0  0  0  0  0
   59.0200   33.0620   48.1020 C   0  0  0  0  0  0  0  0  0  0  0  0
   60.2630   33.6840   47.9110 C   0  0  0  0  0  0  0  0  0  0  0  0
   61.3330   33.5730   48.9570 C   0  0  0  0  0  0  0  0  0  0  0  0
   61.6600   32.1680   49.1660 N   0  0  0  0  0  0  0  0  0  0  0  0
   61.8630   31.2130   48.1170 C   0  0  0  0  0  0  0  0  0  0  0  0
   62.8440   31.3610   47.3420 O   0  0  0  0  0  0  0  0  0  0  0  0
   60.9120   30.0730   47.8800 C   0  0  0  0  0  0  0  0  0  0  0  0
   60.6490   29.8940   46.3810 C   0  0  0  0  0  0  0  0  0  0  0  0
   59.2830   29.2950   46.1440 C   0  0  0  0  0  0  0  0  0  0  0  0
   58.9020   28.1770   46.9030 C   0  0  0  0  0  0  0  0  0  0  0  0
   57.6540   27.5850   46.7220 C   0  0  0  0  0  0  0  0  0  0  0  0
   56.7690   28.0870   45.7690 C   0  0  0  0  0  0  0  0  0  0  0  0
   55.5220   27.4870   45.6240 O   0  0  0  0  0  0  0  0  0  0  0  0
   57.1380   29.1840   44.9670 C   0  0  0  0  0  0  0  0  0  0  0  0
   56.1660   29.7340   43.9440 C   0  0  0  0  0  0  0  0  0  0  0  0
   56.8750   30.3220   42.8090 N   0  0  0  0  0  0  0  0  0  0  0  0
   58.3960   29.7970   45.1580 C   0  0  0  0  0  0  0  0  0  0  0  0
   58.7340   30.8930   44.3570 O   0  0  0  0  0  0  0  0  0  0  0  0
   60.5150   34.3630   46.7080 C   0  0  0  0  0  0  0  0  0  0  0  0
   59.5290   34.4380   45.7210 C   0  0  0  0  0  0  0  0  0  0  0  0
   58.4130   32.7440   43.6910 H   0  0  0  0  0  0  0  0  0  0  0  0
   56.9550   32.0210   44.1410 H   0  0  0  0  0  0  0  0  0  0  0  0
   57.2543   34.9266   44.4050 H   0  0  0  0  0  0  0  0  0  0  0  0
   56.2334   33.7659   45.3418 H   0  0  0  0  0  0  0  0  0  0  0  0
   57.0565   32.6602   47.2778 H   0  0  0  0  0  0  0  0  0  0  0  0
   58.8200   32.5128   49.0339 H   0  0  0  0  0  0  0  0  0  0  0  0
   62.2309   34.1132   48.6226 H   0  0  0  0  0  0  0  0  0  0  0  0
   60.9731   34.0112   49.8996 H   0  0  0  0  0  0  0  0  0  0  0  0
   61.3489   29.1477   48.2836 H   0  0  0  0  0  0  0  0  0  0  0  0
   59.9595   30.2947   48.3836 H   0  0  0  0  0  0  0  0  0  0  0  0
   60.7037   30.8746   45.8856 H   0  0  0  0  0  0  0  0  0  0  0  0
   61.4087   29.2138   45.9685 H   0  0  0  0  0  0  0  0  0  0  0  0
   59.5968   27.7638   47.6490 H   0  0  0  0  0  0  0  0  0  0  0  0
   57.3656   26.7175   47.3338 H   0  0  0  0  0  0  0  0  0  0  0  0
   55.5239   28.9172   43.5827 H   0  0  0  0  0  0  0  0  0  0  0  0
   55.5607   30.5179   44.4226 H   0  0  0  0  0  0  0  0  0  0  0  0
   57.8010   29.8440   42.7070 H   0  0  0  0  0  0  0  0  0  0  0  0
   57.0600   31.3300   43.0130 H   0  0  0  0  0  0  0  0  0  0  0  0
   58.3860   31.0350   43.4190 H   0  0  0  0  0  0  0  0  0  0  0  0
   61.4932   34.8380   46.5419 H   0  0  0  0  0  0  0  0  0  0  0  0
   59.7289   34.9869   44.7889 H   0  0  0  0  0  0  0  0  0  0  0  0
  1  2  1  0
  2  3  1  0
  3  4  2  0
  4  5  1  0
  5  6  2  0
  6  7  1  0
  7  8  1  0
  8  9  1  0
  9 10  2  0
  9 11  1  0
 11 12  1  0
 12 13  1  0
 13 14  2  0
 14 15  1  0
 15 16  2  0
 16 17  1  0
 16 18  1  0
 18 19  1  0
 19 20  1  0
 18 21  2  0
 21 22  1  0
  6 23  1  0
 23 24  2  0
 24  3  1  0
 21 13  1  0
  1 25  1  0
  1 26  1  0
  2 27  1  0
  2 28  1  0
  4 29  1  0
  5 30  1  0
  7 31  1  0
  7 32  1  0
 11 33  1  0
 11 34  1  0
 12 35  1  0
 12 36  1  0
 14 37  1  0
 15 38  1  0
 19 39  1  0
 19 40  1  0
 20 41  1  0
 20 42  1  0
 22 43  1  0
 23 44  1  0
 24 45  1  0
M  CHG  2   8  -1  17  -1
M  END
>  <UniqueID>  (1) 
1

>  <SMILES>  (1) 
NCc1ccc(C[N-]C(=O)CCc2ccc([O-])c(CN)c2O)cc1

>  <Energy>  (1) 
39.530969222456655

>  <Genealogy>  (1) 
NCc1ccc(C[N-]C(=O)CCc2ccc([O-])c(CN)c2O)cc1 (protonated)
NCc1ccc(C[N-]C(=O)CCc2ccc([O-])c(CN)c2O)cc1 (3D coordinates assigned)
NCc1ccc(C[N-]C(=O)CCc2ccc([O-])c(CN)c2O)cc1 (optimized conformer: 39.530969222456655 kcal/mol)

>  <smiles>  (1) 
NCc1ccc(CNC(=O)CCc2ccc(O)c(CN)c2O)cc1

>  <score_type>  (1) 
oracle

>  <origin>  (1) 
adg

>  <m_score__min__energy>  (1) 
-12.199999999999999

>  <m_primary>  (1) 
energy

$$$$
1:0
     RDKit          3D

 34 36  0  0  0  0  0  0  0  0999 V2000
   54.7410   26.3350   45.9740 O   0  0  0  0  0  0  0  0  0  0  0  0
   55.8840   25.9650   46.3500 C   0  0  0  0  0  0  0  0  0  0  0  0
   56.0880   24.6270   46.6670 O   0  0  0  0  0  0  0  0  0  0  0  0
   56.9940   26.9370   46.4540 C   0  0  0  0  0  0  0  0  0  0  0  0
   57.1280   27.9660   45.5050 C   0  0  0  0  0  0  0  0  0  0  0  0
   58.1740   28.8870   45.6020 C   0  0  0  0  0  0  0  0  0  0  0  0
   59.0920   28.8100   46.6550 C   0  0  0  0  0  0  0  0  0  0  0  0
   60.1560   29.7720   46.7180 N   0  0  0  0  0  0  0  0  0  0  0  0
   60.1040   31.0540   47.3560 C   0  0  0  0  0  0  0  0  0  0  0  0
   59.1670   31.2920   48.1620 O   0  0  0  0  0  0  0  0  0  0  0  0
   61.1210   32.0960   47.1170 C   0  0  0  0  0  0  0  0  0  0  0  0
   62.6790   32.0420   47.7480 S   0  0  0  0  0  0  0  0  0  0  0  0
   63.1770   33.5440   47.1810 C   0  0  0  0  0  0  0  0  0  0  0  0
   62.1260   34.1140   46.4780 C   0  0  0  0  0  0  0  0  0  0  0  0
   60.9860   33.3010   46.4150 C   0  0  0  0  0  0  0  0  0  0  0  0
   59.8240   33.7060   45.6810 N   0  0  0  0  0  0  0  0  0  0  0  0
   58.4890   33.2310   45.8930 C   0  0  0  0  0  0  0  0  0  0  0  0
   57.8630   33.6160   46.9160 O   0  0  0  0  0  0  0  0  0  0  0  0
   57.8120   32.3500   44.9240 C   0  0  0  0  0  0  0  0  0  0  0  0
   58.1520   32.2030   43.5930 C   0  0  0  0  0  0  0  0  0  0  0  0
   57.2610   31.2850   43.0800 C   0  0  0  0  0  0  0  0  0  0  0  0
   56.4370   30.9250   44.1270 C   0  0  0  0  0  0  0  0  0  0  0  0
   56.7920   31.5730   45.2110 O   0  0  0  0  0  0  0  0  0  0  0  0
   58.9800   27.7680   47.5900 C   0  0  0  0  0  0  0  0  0  0  0  0
   57.9350   26.8450   47.4950 C   0  0  0  0  0  0  0  0  0  0  0  0
   56.4042   28.0463   44.6806 H   0  0  0  0  0  0  0  0  0  0  0  0
   58.2766   29.6785   44.8450 H   0  0  0  0  0  0  0  0  0  0  0  0
   64.1666   33.9971   47.3402 H   0  0  0  0  0  0  0  0  0  0  0  0
   62.1818   35.1097   46.0139 H   0  0  0  0  0  0  0  0  0  0  0  0
   58.9647   32.7126   43.0547 H   0  0  0  0  0  0  0  0  0  0  0  0
   57.2158   30.9143   42.0453 H   0  0  0  0  0  0  0  0  0  0  0  0
   55.6085   30.2043   44.0624 H   0  0  0  0  0  0  0  0  0  0  0  0
   59.7181   27.6780   48.4006 H   0  0  0  0  0  0  0  0  0  0  0  0
   57.8479   26.0405   48.2401 H   0  0  0  0  0  0  0  0  0  0  0  0
  1  2  2  0
  2  3  1  0
  2  4  1  0
  4  5  2  0
  5  6  1  0
  6  7  2  0
  7  8  1  0
  8  9  1  0
  9 10  2  0
  9 11  1  0
 11 12  1  0
 12 13  1  0
 13 14  2  0
 14 15  1  0
 15 16  1  0
 16 17  1  0
 17 18  2  0
 17 19  1  0
 19 20  2  0
 20 21  1  0
 21 22  2  0
 22 23  1  0
  7 24  1  0
 24 25  2  0
 25  4  1  0
 15 11  2  0
 23 19  1  0
  5 26  1  0
  6 27  1  0
 13 28  1  0
 14 29  1  0
 20 30  1  0
 21 31  1  0
 22 32  1  0
 24 33  1  0
 25 34  1  0
M  CHG  3   3  -1   8  -1  16  -1
M  END
>  <UniqueID>  (2) 
2

>  <SMILES>  (2) 
O=C([O-])c1ccc([N-]C(=O)c2sccc2[N-]C(=O)c2ccco2)cc1

>  <Energy>  (2) 
99.91944672011829

>  <Genealogy>  (2) 
O=C([O-])c1ccc([N-]C(=O)c2sccc2[N-]C(=O)c2ccco2)cc1 (protonated)
O=C([O-])c1ccc([N-]C(=O)c2sccc2[N-]C(=O)c2ccco2)cc1 (3D coordinates assigned)
O=C([O-])c1ccc([N-]C(=O)c2sccc2[N-]C(=O)c2ccco2)cc1 (optimized conformer: 99.91944672011829 kcal/mol)

>  <smiles>  (2) 
O=C(O)c1ccc(NC(=O)c2sccc2NC(=O)c2ccco2)cc1

>  <score_type>  (2) 
oracle

>  <origin>  (2) 
adg

>  <m_score__min__energy>  (2) 
-12.4

>  <m_primary>  (2) 
energy

$$$$
2:0
     RDKit          3D

 33 35  0  0  0  0  0  0  0  0999 V2000
   58.5740   34.4560   44.8640 C   0  0  0  0  0  0  0  0  0  0  0  0
   58.3160   33.4500   43.8890 O   0  0  0  0  0  0  0  0  0  0  0  0
   57.9460   32.1300   44.1930 C   0  0  0  0  0  0  0  0  0  0  0  0
   57.0150   31.4040   43.4060 C   0  0  0  0  0  0  0  0  0  0  0  0
   56.6680   30.0840   43.7430 C   0  0  0  0  0  0  0  0  0  0  0  0
   57.2580   29.4990   44.8640 C   0  0  0  0  0  0  0  0  0  0  0  0
   57.0070   28.2380   45.3040 N   0  0  0  0  0  0  0  0  0  0  0  0
   57.7300   27.9540   46.4190 C   0  0  0  0  0  0  0  0  0  0  0  0
   57.6680   26.8350   47.0780 N   0  0  0  0  0  0  0  0  0  0  0  0
   57.6390   25.5220   46.5030 C   0  0  0  0  0  0  0  0  0  0  0  0
   58.1270   24.5600   47.1530 O   0  0  0  0  0  0  0  0  0  0  0  0
   57.1470   25.2900   45.1010 C   0  0  0  0  0  0  0  0  0  0  0  0
   55.7730   24.6640   45.1240 C   0  0  0  0  0  0  0  0  0  0  0  0
   54.6540   25.3790   45.5860 C   0  0  0  0  0  0  0  0  0  0  0  0
   54.7780   26.6970   46.0130 O   0  0  0  0  0  0  0  0  0  0  0  0
   53.4350   24.7830   45.6210 N   0  0  0  0  0  0  0  0  0  0  0  0
   53.2700   23.4960   45.2260 C   0  0  0  0  0  0  0  0  0  0  0  0
   52.1290   22.9670   45.2650 O   0  0  0  0  0  0  0  0  0  0  0  0
   54.3360   22.7770   44.7910 N   0  0  0  0  0  0  0  0  0  0  0  0
   55.5770   23.3250   44.7360 C   0  0  0  0  0  0  0  0  0  0  0  0
   56.5440   22.6220   44.3370 O   0  0  0  0  0  0  0  0  0  0  0  0
   58.6840   29.2590   46.9130 S   0  0  0  0  0  0  0  0  0  0  0  0
   58.1650   30.2140   45.6300 C   0  0  0  0  0  0  0  0  0  0  0  0
   58.5250   31.5220   45.3210 C   0  0  0  0  0  0  0  0  0  0  0  0
   58.4641   34.0274   45.8711 H   0  0  0  0  0  0  0  0  0  0  0  0
   59.5986   34.8356   44.7369 H   0  0  0  0  0  0  0  0  0  0  0  0
   57.8586   35.2819   44.7369 H   0  0  0  0  0  0  0  0  0  0  0  0
   56.5604   31.8785   42.5238 H   0  0  0  0  0  0  0  0  0  0  0  0
   55.9444   29.5224   43.1339 H   0  0  0  0  0  0  0  0  0  0  0  0
   56.3130   27.6010   44.8530 H   0  0  0  0  0  0  0  0  0  0  0  0
   57.0985   26.2520   44.5697 H   0  0  0  0  0  0  0  0  0  0  0  0
   57.8414   24.6095   44.5864 H   0  0  0  0  0  0  0  0  0  0  0  0
   59.2469   32.0686   45.9456 H   0  0  0  0  0  0  0  0  0  0  0  0
  1  2  1  0
  2  3  1  0
  3  4  2  0
  4  5  1  0
  5  6  2  0
  6  7  1  0
  7  8  1  0
  8  9  2  3
  9 10  1  0
 10 11  2  0
 10 12  1  0
 12 13  1  0
 13 14  2  0
 14 15  1  0
 14 16  1  0
 16 17  1  0
 17 18  2  0
 17 19  1  0
 19 20  1  0
 20 21  2  0
  8 22  1  0
 22 23  1  0
 23 24  2  0
 24  3  1  0
 23  6  1  0
 20 13  1  0
  1 25  1  0
  1 26  1  0
  1 27  1  0
  4 28  1  0
  5 29  1  0
  7 30  1  0
 12 31  1  0
 12 32  1  0
 24 33  1  0
M  CHG  3  15  -1  16  -1  19  -1
M  END
>  <UniqueID>  (3) 
3

>  <SMILES>  (3) 
COc1ccc2[nH]c(=NC(=O)Cc3c([O-])[n-]c(=O)[n-]c3=O)sc2c1

>  <Energy>  (3) 
78.49265799991451

>  <Genealogy>  (3) 
COc1ccc2[nH]c(=NC(=O)Cc3c([O-])[n-]c(=O)[n-]c3=O)sc2c1 (protonated)
COc1ccc2[nH]c(=NC(=O)Cc3c([O-])[n-]c(=O)[n-]c3=O)sc2c1 (3D coordinates assigned)
COc1ccc2[nH]c(=NC(=O)Cc3c([O-])[n-]c(=O)[n-]c3=O)sc2c1 (optimized conformer: 78.49265799991451 kcal/mol)

>  <smiles>  (3) 
COc1ccc2[nH]c(=NC(=O)Cc3c(O)[nH]c(=O)[nH]c3=O)sc2c1

>  <score_type>  (3) 
oracle

>  <origin>  (3) 
adg

>  <m_score__min__energy>  (3) 
-14.67

>  <m_primary>  (3) 
energy

$$$$
3:0
     RDKit          3D

 39 41  0  0  0  0  0  0  0  0999 V2000
   58.7090   30.2890   48.5420 O   0  0  0  0  0  0  0  0  0  0  0  0
   59.0910   31.3150   47.9140 C   0  0  0  0  0  0  0  0  0  0  0  0
   60.1020   32.1780   48.4650 N   0  0  0  0  0  0  0  0  0  0  0  0
   61.2710   32.4440   47.9580 C   0  0  0  0  0  0  0  0  0  0  0  0
   61.4350   33.6070   47.1950 C   0  0  0  0  0  0  0  0  0  0  0  0
   62.6880   33.9050   46.6560 C   0  0  0  0  0  0  0  0  0  0  0  0
   63.7630   33.0440   46.8790 C   0  0  0  0  0  0  0  0  0  0  0  0
   63.5670   31.8910   47.6430 C   0  0  0  0  0  0  0  0  0  0  0  0
   62.3400   31.6200   48.1610 N   0  0  0  0  0  0  0  0  0  0  0  0
   58.4840   31.6430   46.6030 C   0  0  0  0  0  0  0  0  0  0  0  0
   58.6640   32.9120   46.0250 C   0  0  0  0  0  0  0  0  0  0  0  0
   58.1300   33.1980   44.7650 C   0  0  0  0  0  0  0  0  0  0  0  0
   57.4190   32.2210   44.0650 C   0  0  0  0  0  0  0  0  0  0  0  0
   57.2230   30.9530   44.6300 C   0  0  0  0  0  0  0  0  0  0  0  0
   56.3780   29.6870   43.7400 S   0  0  0  0  0  0  0  0  0  0  0  0
   56.1360   30.1350   42.3270 O   0  0  0  0  0  0  0  0  0  0  0  0
   55.0530   29.4030   44.3880 O   0  0  0  0  0  0  0  0  0  0  0  0
   57.3550   28.2560   43.7100 N   0  0  0  0  0  0  0  0  0  0  0  0
   57.8180   27.6410   44.9140 C   0  0  0  0  0  0  0  0  0  0  0  0
   59.1950   27.5560   45.1530 C   0  0  0  0  0  0  0  0  0  0  0  0
   59.6690   27.0170   46.3520 C   0  0  0  0  0  0  0  0  0  0  0  0
   58.7700   26.5480   47.3120 C   0  0  0  0  0  0  0  0  0  0  0  0
   57.3950   26.6060   47.0710 C   0  0  0  0  0  0  0  0  0  0  0  0
   56.9120   27.1480   45.8700 C   0  0  0  0  0  0  0  0  0  0  0  0
   55.5410   27.1930   45.6240 O   0  0  0  0  0  0  0  0  0  0  0  0
   57.7420   30.6760   45.9010 C   0  0  0  0  0  0  0  0  0  0  0  0
   60.5829   34.2807   47.0217 H   0  0  0  0  0  0  0  0  0  0  0  0
   62.8274   34.8168   46.0567 H   0  0  0  0  0  0  0  0  0  0  0  0
   64.7537   33.2705   46.4580 H   0  0  0  0  0  0  0  0  0  0  0  0
   64.4054   31.2027   47.8253 H   0  0  0  0  0  0  0  0  0  0  0  0
   59.2285   33.6846   46.5676 H   0  0  0  0  0  0  0  0  0  0  0  0
   58.2704   34.1958   44.3236 H   0  0  0  0  0  0  0  0  0  0  0  0
   57.0119   32.4467   43.0683 H   0  0  0  0  0  0  0  0  0  0  0  0
   59.9061   27.9147   44.3943 H   0  0  0  0  0  0  0  0  0  0  0  0
   60.7515   26.9621   46.5397 H   0  0  0  0  0  0  0  0  0  0  0  0
   59.1447   26.1324   48.2590 H   0  0  0  0  0  0  0  0  0  0  0  0
   56.6894   26.2259   47.8244 H   0  0  0  0  0  0  0  0  0  0  0  0
   55.1440   27.8420   44.9540 H   0  0  0  0  0  0  0  0  0  0  0  0
   57.5672   29.6899   46.3560 H   0  0  0  0  0  0  0  0  0  0  0  0
  1  2  2  0
  2  3  1  0
  3  4  2  3
  4  5  1  0
  5  6  2  0
  6  7  1  0
  7  8  2  0
  8  9  1  0
  2 10  1  0
 10 11  2  0
 11 12  1  0
 12 13  2  0
 13 14  1  0
 14 15  1  0
 15 16  2  0
 15 17  2  0
 15 18  1  0
 18 19  1  0
 19 20  2  0
 20 21  1  0
 21 22  2  0
 22 23  1  0
 23 24  2  0
 24 25  1  0
 14 26  2  0
  9  4  1  0
 26 10  1  0
 24 19  1  0
  5 27  1  0
  6 28  1  0
  7 29  1  0
  8 30  1  0
 11 31  1  0
 12 32  1  0
 13 33  1  0
 20 34  1  0
 21 35  1  0
 22 36  1  0
 23 37  1  0
 25 38  1  0
 26 39  1  0
M  CHG  2   9  -1  18  -1
M  END
>  <UniqueID>  (4) 
4

>  <SMILES>  (4) 
O=C(N=c1cccc[n-]1)c1cccc(S(=O)(=O)[N-]c2ccccc2O)c1

>  <Energy>  (4) 
53.38245363416963

>  <Genealogy>  (4) 
O=C(N=c1cccc[n-]1)c1cccc(S(=O)(=O)[N-]c2ccccc2O)c1 (protonated)
O=C(N=c1cccc[n-]1)c1cccc(S(=O)(=O)[N-]c2ccccc2O)c1 (3D coordinates assigned)
O=C(N=c1cccc[n-]1)c1cccc(S(=O)(=O)[N-]c2ccccc2O)c1 (optimized conformer: 53.38245363416963 kcal/mol)

>  <smiles>  (4) 
O=C(N=c1cccc[nH]1)c1cccc(S(=O)(=O)Nc2ccccc2O)c1

>  <score_type>  (4) 
oracle

>  <origin>  (4) 
adg

>  <m_score__min__energy>  (4) 
-12.359999999999999

>  <m_primary>  (4) 
energy

$$$$
4:0
     RDKit          3D

 32 33  0  0  0  0  0  0  0  0999 V2000
   63.3100   33.3980   47.3850 C   0  0  0  0  0  0  0  0  0  0  0  0
   61.9570   32.8060   47.6500 C   0  0  0  0  0  0  0  0  0  0  0  0
   61.0300   33.4920   48.4510 C   0  0  0  0  0  0  0  0  0  0  0  0
   59.7830   32.9250   48.7260 C   0  0  0  0  0  0  0  0  0  0  0  0
   59.4590   31.6630   48.2210 C   0  0  0  0  0  0  0  0  0  0  0  0
   60.3870   30.9610   47.4430 C   0  0  0  0  0  0  0  0  0  0  0  0
   59.9810   29.3320   46.8110 S   0  0  0  0  0  0  0  0  0  0  0  0
   58.5940   29.9470   45.8460 C   0  0  0  0  0  0  0  0  0  0  0  0
   58.7010   31.2020   45.2460 C   0  0  0  0  0  0  0  0  0  0  0  0
   57.6350   31.6740   44.4910 C   0  0  0  0  0  0  0  0  0  0  0  0
   57.7000   32.7990   43.9310 O   0  0  0  0  0  0  0  0  0  0  0  0
   56.5180   30.9180   44.3620 N   0  0  0  0  0  0  0  0  0  0  0  0
   56.4130   29.6990   44.9530 C   0  0  0  0  0  0  0  0  0  0  0  0
   55.3430   29.0550   44.8070 O   0  0  0  0  0  0  0  0  0  0  0  0
   57.4570   29.1990   45.6980 N   0  0  0  0  0  0  0  0  0  0  0  0
   57.4330   27.9600   46.3330 O   0  0  0  0  0  0  0  0  0  0  0  0
   57.7220   26.7080   45.7180 C   0  0  0  0  0  0  0  0  0  0  0  0
   56.5030   25.8480   45.7770 C   0  0  0  0  0  0  0  0  0  0  0  0
   55.2260   26.4390   46.0010 N   0  0  0  0  0  0  0  0  0  0  0  0
   56.6070   24.5970   45.6740 O   0  0  0  0  0  0  0  0  0  0  0  0
   61.6340   31.5310   47.1580 C   0  0  0  0  0  0  0  0  0  0  0  0
   63.8084   33.6161   48.3410 H   0  0  0  0  0  0  0  0  0  0  0  0
   63.9168   32.6831   46.8098 H   0  0  0  0  0  0  0  0  0  0  0  0
   63.1967   34.3288   46.8098 H   0  0  0  0  0  0  0  0  0  0  0  0
   61.2864   34.4790   48.8633 H   0  0  0  0  0  0  0  0  0  0  0  0
   59.0546   33.4733   49.3415 H   0  0  0  0  0  0  0  0  0  0  0  0
   58.4746   31.2212   48.4349 H   0  0  0  0  0  0  0  0  0  0  0  0
   59.6121   31.8061   45.3685 H   0  0  0  0  0  0  0  0  0  0  0  0
   58.0096   26.8696   44.6686 H   0  0  0  0  0  0  0  0  0  0  0  0
   58.5517   26.2156   46.2464 H   0  0  0  0  0  0  0  0  0  0  0  0
   55.1370   27.4600   46.2080 H   0  0  0  0  0  0  0  0  0  0  0  0
   62.3627   30.9783   46.5469 H   0  0  0  0  0  0  0  0  0  0  0  0
  1  2  1  0
  2  3  2  0
  3  4  1  0
  4  5  2  0
  5  6  1  0
  6  7  1  0
  7  8  1  0
  8  9  2  0
  9 10  1  0
 10 11  2  0
 10 12  1  0
 12 13  1  0
 13 14  2  0
 13 15  1  0
 15 16  1  0
 16 17  1  0
 17 18  1  0
 18 19  1  0
 18 20  2  0
  6 21  2  0
 21  2  1  0
 15  8  1  0
  1 22  1  0
  1 23  1  0
  1 24  1  0
  3 25  1  0
  4 26  1  0
  5 27  1  0
  9 28  1  0
 17 29  1  0
 17 30  1  0
 19 31  1  0
 21 32  1  0
M  CHG  2  12  -1  19  -1
M  END
>  <UniqueID>  (5) 
5

>  <SMILES>  (5) 
Cc1cccc(Sc2cc(=O)[n-]c(=O)n2OCC([NH-])=O)c1

>  <Energy>  (5) 
29.770073952518878

>  <Genealogy>  (5) 
Cc1cccc(Sc2cc(=O)[n-]c(=O)n2OCC([NH-])=O)c1 (protonated)
Cc1cccc(Sc2cc(=O)[n-]c(=O)n2OCC([NH-])=O)c1 (3D coordinates assigned)
Cc1cccc(Sc2cc(=O)[n-]c(=O)n2OCC([NH-])=O)c1 (optimized conformer: 29.770073952518878 kcal/mol)

>  <smiles>  (5) 
Cc1cccc(Sc2cc(=O)[nH]c(=O)n2OCC(N)=O)c1

>  <score_type>  (5) 
oracle

>  <origin>  (5) 
adg

>  <m_score__min__energy>  (5) 
-11.74

>  <m_primary>  (5) 
energy

$$$$
5:0
     RDKit          3D

 36 38  0  0  0  0  0  0  0  0999 V2000
   56.9240   33.4540   46.9450 N   0  0  0  0  0  0  0  0  0  0  0  0
   58.5840   33.1020   47.2730 S   0  0  0  0  0  0  0  0  0  0  0  0
   59.4500   34.1760   46.6760 O   0  0  0  0  0  0  0  0  0  0  0  0
   58.9550   31.7850   46.6520 O   0  0  0  0  0  0  0  0  0  0  0  0
   58.8340   33.0280   49.0140 C   0  0  0  0  0  0  0  0  0  0  0  0
   59.7510   33.8830   49.6350 C   0  0  0  0  0  0  0  0  0  0  0  0
   59.9360   33.8270   51.0170 C   0  0  0  0  0  0  0  0  0  0  0  0
   59.2030   32.9220   51.7900 C   0  0  0  0  0  0  0  0  0  0  0  0
   58.2650   32.0630   51.1850 C   0  0  0  0  0  0  0  0  0  0  0  0
   57.4680   31.0950   51.9840 C   0  0  0  0  0  0  0  0  0  0  0  0
   57.8390   30.6210   53.2480 C   0  0  0  0  0  0  0  0  0  0  0  0
   56.6350   29.5800   53.7890 S   0  0  0  0  0  0  0  0  0  0  0  0
   55.7050   29.7560   52.4020 C   0  0  0  0  0  0  0  0  0  0  0  0
   54.3580   29.1430   52.1910 C   0  0  0  0  0  0  0  0  0  0  0  0
   53.3080   30.2190   52.1440 C   0  0  0  0  0  0  0  0  0  0  0  0
   52.9700   30.8280   50.9250 C   0  0  0  0  0  0  0  0  0  0  0  0
   51.9670   31.8010   50.8770 C   0  0  0  0  0  0  0  0  0  0  0  0
   51.2890   32.1650   52.0440 C   0  0  0  0  0  0  0  0  0  0  0  0
   50.2920   33.1330   51.9960 O   0  0  0  0  0  0  0  0  0  0  0  0
   51.6110   31.5540   53.2600 C   0  0  0  0  0  0  0  0  0  0  0  0
   52.6130   30.5810   53.3110 C   0  0  0  0  0  0  0  0  0  0  0  0
   56.2760   30.6150   51.5330 N   0  0  0  0  0  0  0  0  0  0  0  0
   58.0910   32.1250   49.7890 C   0  0  0  0  0  0  0  0  0  0  0  0
   56.5210   33.8650   47.8170 H   0  0  0  0  0  0  0  0  0  0  0  0
   56.9090   34.2070   46.2210 H   0  0  0  0  0  0  0  0  0  0  0  0
   60.3272   34.6007   49.0327 H   0  0  0  0  0  0  0  0  0  0  0  0
   60.6617   34.4978   51.5001 H   0  0  0  0  0  0  0  0  0  0  0  0
   59.3598   32.8804   52.8780 H   0  0  0  0  0  0  0  0  0  0  0  0
   58.7581   30.8839   53.7922 H   0  0  0  0  0  0  0  0  0  0  0  0
   54.3545   28.5881   51.2412 H   0  0  0  0  0  0  0  0  0  0  0  0
   54.1375   28.4577   53.0227 H   0  0  0  0  0  0  0  0  0  0  0  0
   53.4966   30.5384   50.0036 H   0  0  0  0  0  0  0  0  0  0  0  0
   51.7113   32.2803   49.9205 H   0  0  0  0  0  0  0  0  0  0  0  0
   51.0751   31.8395   54.1772 H   0  0  0  0  0  0  0  0  0  0  0  0
   52.8586   30.0968   54.2677 H   0  0  0  0  0  0  0  0  0  0  0  0
   57.3648   31.4583   49.3010 H   0  0  0  0  0  0  0  0  0  0  0  0
  1  2  1  0
  2  3  2  0
  2  4  2  0
  2  5  1  0
  5  6  2  0
  6  7  1  0
  7  8  2  0
  8  9  1  0
  9 10  1  0
 10 11  2  0
 11 12  1  0
 12 13  1  0
 13 14  1  0
 14 15  1  0
 15 16  2  0
 16 17  1  0
 17 18  2  0
 18 19  1  0
 18 20  1  0
 20 21  2  0
 13 22  2  0
  9 23  2  0
 23  5  1  0
 22 10  1  0
 21 15  1  0
  1 24  1  0
  1 25  1  0
  6 26  1  0
  7 27  1  0
  8 28  1  0
 11 29  1  0
 14 30  1  0
 14 31  1  0
 16 32  1  0
 17 33  1  0
 20 34  1  0
 21 35  1  0
 23 36  1  0
M  CHG  1  19  -1
M  END
>  <UniqueID>  (6) 
6

>  <SMILES>  (6) 
NS(=O)(=O)c1cccc(-c2csc(Cc3ccc([O-])cc3)n2)c1

>  <Energy>  (6) 
66.73752409351356

>  <Genealogy>  (6) 
NS(=O)(=O)c1cccc(-c2csc(Cc3ccc([O-])cc3)n2)c1 (protonated)
NS(=O)(=O)c1cccc(-c2csc(Cc3ccc([O-])cc3)n2)c1 (3D coordinates assigned)
NS(=O)(=O)c1cccc(-c2csc(Cc3ccc([O-])cc3)n2)c1 (optimized conformer: 66.73752409351356 kcal/mol)

>  <smiles>  (6) 
NS(=O)(=O)c1cccc(-c2csc(Cc3ccc(O)cc3)n2)c1

>  <score_type>  (6) 
oracle

>  <origin>  (6) 
adg

>  <m_score__min__energy>  (6) 
-11.869999999999999

>  <m_primary>  (6) 
energy

$$$$
6:0
     RDKit          3D

 43 45  0  0  0  0  0  0  0  0999 V2000
   54.7970   25.8770   45.2230 H   0  0  0  0  0  0  0  0  0  0  0  0
   55.4990   25.9810   45.9890 N   0  0  0  0  0  0  0  0  0  0  0  0
   56.3790   26.9300   45.9770 C   0  0  0  0  0  0  0  0  0  0  0  0
   57.5910   26.7390   46.5580 N   0  0  0  0  0  0  0  0  0  0  0  0
   58.5220   27.7240   46.5460 C   0  0  0  0  0  0  0  0  0  0  0  0
   59.6690   27.5170   47.1260 N   0  0  0  0  0  0  0  0  0  0  0  0
   60.0310   27.7690   48.4960 C   0  0  0  0  0  0  0  0  0  0  0  0
   60.2090   26.7820   49.2580 O   0  0  0  0  0  0  0  0  0  0  0  0
   60.2150   29.1630   49.0430 C   0  0  0  0  0  0  0  0  0  0  0  0
   59.3687   29.4042   49.7030 H   0  0  0  0  0  0  0  0  0  0  0  0
   61.1628   29.1965   49.6002 H   0  0  0  0  0  0  0  0  0  0  0  0
   60.2760   30.1500   47.9650 N   0  0  0  0  0  0  0  0  0  0  0  0
   59.7820   29.9150   47.0730 H   0  0  0  0  0  0  0  0  0  0  0  0
   60.9900   31.4000   48.0470 C   0  0  0  0  0  0  0  0  0  0  0  0
   62.0510   31.6420   47.1580 C   0  0  0  0  0  0  0  0  0  0  0  0
   62.3237   30.8791   46.4140 H   0  0  0  0  0  0  0  0  0  0  0  0
   62.7630   32.8440   47.2110 C   0  0  0  0  0  0  0  0  0  0  0  0
   63.5914   33.0230   46.5098 H   0  0  0  0  0  0  0  0  0  0  0  0
   62.4240   33.8180   48.1530 C   0  0  0  0  0  0  0  0  0  0  0  0
   62.9853   34.7631   48.1947 H   0  0  0  0  0  0  0  0  0  0  0  0
   61.3710   33.5900   49.0420 C   0  0  0  0  0  0  0  0  0  0  0  0
   61.1035   34.3575   49.7832 H   0  0  0  0  0  0  0  0  0  0  0  0
   60.6560   32.3900   48.9930 C   0  0  0  0  0  0  0  0  0  0  0  0
   59.8282   32.2173   49.6965 H   0  0  0  0  0  0  0  0  0  0  0  0
   58.2260   28.9130   45.9620 N   0  0  0  0  0  0  0  0  0  0  0  0
   57.0190   29.1220   45.3790 C   0  0  0  0  0  0  0  0  0  0  0  0
   56.7840   30.2820   44.8310 N   0  0  0  0  0  0  0  0  0  0  0  0
   57.7310   31.1100   44.0820 C   0  0  0  0  0  0  0  0  0  0  0  0
   58.6320   30.5181   43.8631 H   0  0  0  0  0  0  0  0  0  0  0  0
   57.2496   31.4371   43.1486 H   0  0  0  0  0  0  0  0  0  0  0  0
   58.1230   32.3300   44.8740 C   0  0  0  0  0  0  0  0  0  0  0  0
   58.6470   33.4620   44.2280 C   0  0  0  0  0  0  0  0  0  0  0  0
   58.7653   33.4633   43.1344 H   0  0  0  0  0  0  0  0  0  0  0  0
   59.0190   34.5880   44.9710 C   0  0  0  0  0  0  0  0  0  0  0  0
   59.4218   35.4745   44.4593 H   0  0  0  0  0  0  0  0  0  0  0  0
   58.8800   34.5890   46.3610 C   0  0  0  0  0  0  0  0  0  0  0  0
   59.2420   35.6800   47.0790 F   0  0  0  0  0  0  0  0  0  0  0  0
   58.3720   33.4600   47.0120 C   0  0  0  0  0  0  0  0  0  0  0  0
   58.2660   33.4584   48.1069 H   0  0  0  0  0  0  0  0  0  0  0  0
   57.9990   32.3340   46.2730 C   0  0  0  0  0  0  0  0  0  0  0  0
   57.6061   31.4460   46.7899 H   0  0  0  0  0  0  0  0  0  0  0  0
   56.0900   28.1190   45.3830 N   0  0  0  0  0  0  0  0  0  0  0  0
   55.1550   28.2390   44.9350 H   0  0  0  0  0  0  0  0  0  0  0  0
  1  2  1  0
  2  3  2  3
  3  4  1  0
  4  5  1  0
  5  6  2  0
  6  7  1  0
  7  8  2  0
  7  9  1  0
  9 10  1  0
  9 11  1  0
  9 12  1  0
 12 13  1  0
 12 14  1  0
 14 15  2  0
 15 16  1  0
 15 17  1  0
 17 18  1  0
 17 19  2  0
 19 20  1  0
 19 21  1  0
 21 22  1  0
 21 23  2  0
 23 24  1  0
  5 25  1  0
 25 26  1  0
 26 27  2  0
 27 28  1  0
 28 29  1  0
 28 30  1  0
 28 31  1  0
 31 32  2  0
 32 33  1  0
 32 34  1  0
 34 35  1  0
 34 36  2  0
 36 37  1  0
 36 38  1  0
 38 39  1  0
 38 40  2  0
 40 41  1  0
 26 42  1  0
 42 43  1  0
 42  3  1  0
 23 14  1  0
 40 31  1  0
M  CHG  2   4  -1  25  -1
M  END
>  <UniqueID>  (7) 
7

>  <SMILES>  (7) 
N=c1[n-]/c(=N/C(=O)CNc2ccccc2)[n-]/c(=N/Cc2ccc(F)cc2)[nH]1

>  <Energy>  (7) 
50.90149818096281

>  <Genealogy>  (7) 
N=c1[n-]c(=NC(=O)CNc2ccccc2)[n-]c(=NCc2ccc(F)cc2)[nH]1 (protonated)
N=c1[n-]/c(=N/C(=O)CNc2ccccc2)[n-]/c(=N/Cc2ccc(F)cc2)[nH]1 (cis-trans isomerization)
N=c1[n-]/c(=N/C(=O)CNc2ccccc2)[n-]/c(=N/Cc2ccc(F)cc2)[nH]1 (3D coordinates assigned)
N=c1[n-]/c(=N/C(=O)CNc2ccccc2)[n-]/c(=N/Cc2ccc(F)cc2)[nH]1 (optimized conformer: 50.90149818096281 kcal/mol)

>  <smiles>  (7) 
N=c1[nH]c(=NCc2ccc(F)cc2)[nH]c(=NC(=O)CNc2ccccc2)[nH]1

>  <score_type>  (7) 
oracle

>  <origin>  (7) 
adg

>  <m_score__min__energy>  (7) 
-11.51

>  <m_primary>  (7) 
energy

$$$$
7:0
     RDKit          3D

 41 43  0  0  0  0  0  0  0  0999 V2000
   54.7400   29.7710   43.6140 O   0  0  0  0  0  0  0  0  0  0  0  0
   55.9260   29.6060   44.0130 C   0  0  0  0  0  0  0  0  0  0  0  0
   57.0500   29.8590   43.0630 C   0  0  0  0  0  0  0  0  0  0  0  0
   57.0310   31.5670   42.4050 S   0  0  0  0  0  0  0  0  0  0  0  0
   57.9930   32.2170   43.7800 C   0  0  0  0  0  0  0  0  0  0  0  0
   58.3600   33.5220   43.7680 N   0  0  0  0  0  0  0  0  0  0  0  0
   58.8800   34.1210   44.8750 C   0  0  0  0  0  0  0  0  0  0  0  0
   59.2150   35.3290   44.8060 O   0  0  0  0  0  0  0  0  0  0  0  0
   58.9920   33.3940   46.0900 C   0  0  0  0  0  0  0  0  0  0  0  0
   59.2670   34.0950   47.4050 C   0  0  0  0  0  0  0  0  0  0  0  0
   60.7120   33.8610   47.7970 C   0  0  0  0  0  0  0  0  0  0  0  0
   61.6710   33.5160   46.8160 C   0  0  0  0  0  0  0  0  0  0  0  0
   63.0260   33.4800   47.1300 C   0  0  0  0  0  0  0  0  0  0  0  0
   63.4420   33.7750   48.4300 C   0  0  0  0  0  0  0  0  0  0  0  0
   62.5040   34.1580   49.4010 C   0  0  0  0  0  0  0  0  0  0  0  0
   61.1460   34.1750   49.0960 C   0  0  0  0  0  0  0  0  0  0  0  0
   58.6540   32.0270   46.0630 C   0  0  0  0  0  0  0  0  0  0  0  0
   58.7730   31.2370   47.2160 O   0  0  0  0  0  0  0  0  0  0  0  0
   58.1630   31.4720   44.9150 N   0  0  0  0  0  0  0  0  0  0  0  0
   56.1570   29.0540   45.3200 N   0  0  0  0  0  0  0  0  0  0  0  0
   56.8760   27.8470   45.6090 C   0  0  0  0  0  0  0  0  0  0  0  0
   58.2810   27.8120   45.6140 C   0  0  0  0  0  0  0  0  0  0  0  0
   58.9630   26.6280   45.9120 C   0  0  0  0  0  0  0  0  0  0  0  0
   58.2440   25.4670   46.2290 C   0  0  0  0  0  0  0  0  0  0  0  0
   56.8430   25.5000   46.2690 C   0  0  0  0  0  0  0  0  0  0  0  0
   56.1610   26.6860   45.9640 C   0  0  0  0  0  0  0  0  0  0  0  0
   54.7700   26.6980   46.0130 O   0  0  0  0  0  0  0  0  0  0  0  0
   58.0019   29.6928   43.5887 H   0  0  0  0  0  0  0  0  0  0  0  0
   56.9349   29.1695   42.2137 H   0  0  0  0  0  0  0  0  0  0  0  0
   59.0857   35.1741   47.2925 H   0  0  0  0  0  0  0  0  0  0  0  0
   58.6015   33.6961   48.1847 H   0  0  0  0  0  0  0  0  0  0  0  0
   61.3422   33.2737   45.7946 H   0  0  0  0  0  0  0  0  0  0  0  0
   63.7657   33.2205   46.3583 H   0  0  0  0  0  0  0  0  0  0  0  0
   64.5078   33.7070   48.6936 H   0  0  0  0  0  0  0  0  0  0  0  0
   62.8432   34.4459   50.4070 H   0  0  0  0  0  0  0  0  0  0  0  0
   60.4117   34.4346   49.8728 H   0  0  0  0  0  0  0  0  0  0  0  0
   58.3600   30.3100   47.2550 H   0  0  0  0  0  0  0  0  0  0  0  0
   58.8496   28.7245   45.3813 H   0  0  0  0  0  0  0  0  0  0  0  0
   60.0627   26.6077   45.8977 H   0  0  0  0  0  0  0  0  0  0  0  0
   58.7788   24.5306   46.4462 H   0  0  0  0  0  0  0  0  0  0  0  0
   56.2790   24.5952   46.5397 H   0  0  0  0  0  0  0  0  0  0  0  0
  1  2  2  0
  2  3  1  0
  3  4  1  0
  4  5  1  0
  5  6  2  0
  6  7  1  0
  7  8  2  0
  7  9  1  0
  9 10  1  0
 10 11  1  0
 11 12  2  0
 12 13  1  0
 13 14  2  0
 14 15  1  0
 15 16  2  0
  9 17  2  0
 17 18  1  0
 17 19  1  0
  2 20  1  0
 20 21  1  0
 21 22  2  0
 22 23  1  0
 23 24  2  0
 24 25  1  0
 25 26  2  0
 26 27  1  0
 19  5  1  0
 26 21  1  0
 16 11  1  0
  3 28  1  0
  3 29  1  0
 10 30  1  0
 10 31  1  0
 12 32  1  0
 13 33  1  0
 14 34  1  0
 15 35  1  0
 16 36  1  0
 18 37  1  0
 22 38  1  0
 23 39  1  0
 24 40  1  0
 25 41  1  0
M  CHG  3  19  -1  20  -1  27  -1
M  END
>  <UniqueID>  (8) 
8

>  <SMILES>  (8) 
O=C(CSc1nc(=O)c(Cc2ccccc2)c(O)[n-]1)[N-]c1ccccc1[O-]

>  <Energy>  (8) 
48.14376029266068

>  <Genealogy>  (8) 
O=C(CSc1nc(=O)c(Cc2ccccc2)c(O)[n-]1)[N-]c1ccccc1[O-] (protonated)
O=C(CSc1nc(=O)c(Cc2ccccc2)c(O)[n-]1)[N-]c1ccccc1[O-] (3D coordinates assigned)
O=C(CSc1nc(=O)c(Cc2ccccc2)c(O)[n-]1)[N-]c1ccccc1[O-] (optimized conformer: 48.14376029266068 kcal/mol)

>  <smiles>  (8) 
O=C(CSc1nc(=O)c(Cc2ccccc2)c(O)[nH]1)Nc1ccccc1O

>  <score_type>  (8) 
oracle

>  <origin>  (8) 
adg

>  <m_score__min__energy>  (8) 
-16.23

>  <m_primary>  (8) 
energy

$$$$
8:0
     RDKit          3D

 28 29  0  0  0  0  0  0  0  0999 V2000
   55.1970   29.8850   44.6240 N   0  0  0  0  0  0  0  0  0  0  0  0
   56.5900   30.0520   44.8830 C   0  0  0  0  0  0  0  0  0  0  0  0
   57.0850   31.2110   44.8510 O   0  0  0  0  0  0  0  0  0  0  0  0
   57.4460   28.8810   45.1890 C   0  0  0  0  0  0  0  0  0  0  0  0
   58.8400   28.9550   45.0180 C   0  0  0  0  0  0  0  0  0  0  0  0
   59.6460   27.8480   45.2910 C   0  0  0  0  0  0  0  0  0  0  0  0
   59.0740   26.6590   45.7460 C   0  0  0  0  0  0  0  0  0  0  0  0
   57.6930   26.5700   45.9480 C   0  0  0  0  0  0  0  0  0  0  0  0
   57.1450   25.3220   46.3980 N   0  0  0  0  0  0  0  0  0  0  0  0
   56.8210   24.1910   45.5790 C   0  0  0  0  0  0  0  0  0  0  0  0
   57.2480   24.1050   44.3960 O   0  0  0  0  0  0  0  0  0  0  0  0
   55.9570   23.1050   46.1350 C   0  0  0  0  0  0  0  0  0  0  0  0
   54.5240   23.3750   45.8030 C   0  0  0  0  0  0  0  0  0  0  0  0
   53.6100   22.4160   45.5680 N   0  0  0  0  0  0  0  0  0  0  0  0
   52.4990   23.1180   45.2520 C   0  0  0  0  0  0  0  0  0  0  0  0
   51.4070   22.5630   44.9660 O   0  0  0  0  0  0  0  0  0  0  0  0
   52.6550   24.4590   45.2570 N   0  0  0  0  0  0  0  0  0  0  0  0
   53.9450   24.6050   45.6020 C   0  0  0  0  0  0  0  0  0  0  0  0
   54.5840   25.8330   45.7250 O   0  0  0  0  0  0  0  0  0  0  0  0
   56.8780   27.6770   45.6480 C   0  0  0  0  0  0  0  0  0  0  0  0
   54.5850   29.3610   45.2880 H   0  0  0  0  0  0  0  0  0  0  0  0
   59.2984   29.8912   44.6668 H   0  0  0  0  0  0  0  0  0  0  0  0
   60.7346   27.9132   45.1471 H   0  0  0  0  0  0  0  0  0  0  0  0
   59.7132   25.7866   45.9469 H   0  0  0  0  0  0  0  0  0  0  0  0
   56.2571   22.1408   45.6989 H   0  0  0  0  0  0  0  0  0  0  0  0
   56.0756   23.0715   47.2281 H   0  0  0  0  0  0  0  0  0  0  0  0
   55.4630   26.0070   45.2510 H   0  0  0  0  0  0  0  0  0  0  0  0
   55.7878   27.6013   45.7731 H   0  0  0  0  0  0  0  0  0  0  0  0
  1  2  1  0
  2  3  2  0
  2  4  1  0
  4  5  2  0
  5  6  1  0
  6  7  2  0
  7  8  1  0
  8  9  1  0
  9 10  1  0
 10 11  2  0
 10 12  1  0
 12 13  1  0
 13 14  1  0
 14 15  1  0
 15 16  2  0
 15 17  1  0
 17 18  1  0
 18 19  1  0
  8 20  2  0
 20  4  1  0
 18 13  2  0
  1 21  1  0
  5 22  1  0
  6 23  1  0
  7 24  1  0
 12 25  1  0
 12 26  1  0
 19 27  1  0
 20 28  1  0
M  CHG  4   1  -1   9  -1  14  -1  17  -1
M  END
>  <UniqueID>  (9) 
9

>  <SMILES>  (9) 
[NH-]C(=O)c1cccc([N-]C(=O)Cc2[n-]c(=O)[n-]c2O)c1

>  <Energy>  (9) 
58.2901329522176

>  <Genealogy>  (9) 
[NH-]C(=O)c1cccc([N-]C(=O)Cc2[n-]c(=O)[n-]c2O)c1 (protonated)
[NH-]C(=O)c1cccc([N-]C(=O)Cc2[n-]c(=O)[n-]c2O)c1 (3D coordinates assigned)
[NH-]C(=O)c1cccc([N-]C(=O)Cc2[n-]c(=O)[n-]c2O)c1 (optimized conformer: 58.2901329522176 kcal/mol)

>  <smiles>  (9) 
NC(=O)c1cccc(NC(=O)Cc2[nH]c(=O)[nH]c2O)c1

>  <score_type>  (9) 
oracle

>  <origin>  (9) 
adg

>  <m_score__min__energy>  (9) 
-16.059999999999999

>  <m_primary>  (9) 
energy

$$$$
9:0
     RDKit          3D

 33 35  0  0  0  0  0  0  0  0999 V2000
   59.2790   36.1515   47.2061 H   0  0  0  0  0  0  0  0  0  0  0  0
   59.3280   35.0810   46.9580 C   0  0  0  0  0  0  0  0  0  0  0  0
   60.1470   34.2300   47.7050 C   0  0  0  0  0  0  0  0  0  0  0  0
   60.7399   34.6335   48.5391 H   0  0  0  0  0  0  0  0  0  0  0  0
   60.2160   32.8690   47.3970 C   0  0  0  0  0  0  0  0  0  0  0  0
   60.8632   32.2041   47.9878 H   0  0  0  0  0  0  0  0  0  0  0  0
   59.4600   32.3490   46.3340 C   0  0  0  0  0  0  0  0  0  0  0  0
   59.5200   30.9840   46.0140 C   0  0  0  0  0  0  0  0  0  0  0  0
   60.1648   30.3128   46.6003 H   0  0  0  0  0  0  0  0  0  0  0  0
   58.7620   30.4700   44.9500 C   0  0  0  0  0  0  0  0  0  0  0  0
   58.8550   29.0090   44.5990 C   0  0  0  0  0  0  0  0  0  0  0  0
   59.8313   28.8106   44.1326 H   0  0  0  0  0  0  0  0  0  0  0  0
   58.0424   28.7593   43.9009 H   0  0  0  0  0  0  0  0  0  0  0  0
   58.7180   28.1830   45.7970 N   0  0  0  0  0  0  0  0  0  0  0  0
   57.8100   27.2680   45.9550 C   0  0  0  0  0  0  0  0  0  0  0  0
   56.4830   27.4890   45.8150 N   0  0  0  0  0  0  0  0  0  0  0  0
   55.7710   26.3530   46.0400 C   0  0  0  0  0  0  0  0  0  0  0  0
   54.3850   26.3350   45.9660 O   0  0  0  0  0  0  0  0  0  0  0  0
   56.5310   25.2280   46.3490 C   0  0  0  0  0  0  0  0  0  0  0  0
   56.0060   23.8720   46.7030 C   0  0  0  0  0  0  0  0  0  0  0  0
   55.9311   23.2613   45.7912 H   0  0  0  0  0  0  0  0  0  0  0  0
   55.0130   23.9790   47.1639 H   0  0  0  0  0  0  0  0  0  0  0  0
   56.9260   23.2030   47.6720 C   0  0  0  0  0  0  0  0  0  0  0  0
   57.3110   22.0220   47.4690 O   0  0  0  0  0  0  0  0  0  0  0  0
   57.3990   23.9010   48.7760 O   0  0  0  0  0  0  0  0  0  0  0  0
   58.1560   25.6750   46.3670 S   0  0  0  0  0  0  0  0  0  0  0  0
   57.9440   31.3330   44.2030 C   0  0  0  0  0  0  0  0  0  0  0  0
   57.3513   30.9348   43.3663 H   0  0  0  0  0  0  0  0  0  0  0  0
   57.8770   32.6930   44.5140 C   0  0  0  0  0  0  0  0  0  0  0  0
   57.2315   33.3595   43.9232 H   0  0  0  0  0  0  0  0  0  0  0  0
   58.6300   33.2110   45.5770 C   0  0  0  0  0  0  0  0  0  0  0  0
   58.5710   34.5770   45.8970 C   0  0  0  0  0  0  0  0  0  0  0  0
   57.9282   35.2511   45.3118 H   0  0  0  0  0  0  0  0  0  0  0  0
  1  2  1  0
  2  3  2  0
  3  4  1  0
  3  5  1  0
  5  6  1  0
  5  7  2  0
  7  8  1  0
  8  9  1  0
  8 10  2  0
 10 11  1  0
 11 12  1  0
 11 13  1  0
 11 14  1  0
 14 15  2  0
 15 16  1  0
 16 17  1  0
 17 18  1  0
 17 19  2  0
 19 20  1  0
 20 21  1  0
 20 22  1  0
 20 23  1  0
 23 24  2  0
 23 25  1  0
 19 26  1  0
 10 27  1  0
 27 28  1  0
 27 29  2  0
 29 30  1  0
 29 31  1  0
 31 32  2  0
 32 33  1  0
 32  2  1  0
 31  7  1  0
 26 15  1  0
M  CHG  3  16  -1  18  -1  25  -1
M  END
>  <UniqueID>  (10) 
10

>  <SMILES>  (10) 
O=C([O-])Cc1s/c(=N/Cc2ccc3ccccc3c2)[n-]c1[O-]

>  <Energy>  (10) 
65.58563140254024

>  <Genealogy>  (10) 
O=C([O-])Cc1sc(=NCc2ccc3ccccc3c2)[n-]c1[O-] (protonated)
O=C([O-])Cc1s/c(=N/Cc2ccc3ccccc3c2)[n-]c1[O-] (cis-trans isomerization)
O=C([O-])Cc1s/c(=N/Cc2ccc3ccccc3c2)[n-]c1[O-] (3D coordinates assigned)
O=C([O-])Cc1s/c(=N/Cc2ccc3ccccc3c2)[n-]c1[O-] (optimized conformer: 65.58563140254024 kcal/mol)

>  <smiles>  (10) 
O=C(O)Cc1sc(=NCc2ccc3ccccc3c2)[nH]c1O

>  <score_type>  (10) 
oracle

>  <origin>  (10) 
adg

>  <m_score__min__energy>  (10) 
-16.050000000000001

>  <m_primary>  (10) 
energy

$$$$
10:0
     RDKit          3D

 39 41  0  0  0  0  0  0  0  0999 V2000
   54.6010   23.5830   43.7140 C   0  0  0  0  0  0  0  0  0  0  0  0
   55.9380   22.9140   43.7780 C   0  0  0  0  0  0  0  0  0  0  0  0
   56.9470   23.4260   44.6030 C   0  0  0  0  0  0  0  0  0  0  0  0
   58.1910   22.7780   44.6650 C   0  0  0  0  0  0  0  0  0  0  0  0
   59.2680   23.3150   45.5310 C   0  0  0  0  0  0  0  0  0  0  0  0
   60.3710   22.7090   45.5900 O   0  0  0  0  0  0  0  0  0  0  0  0
   59.0800   24.4780   46.3490 N   0  0  0  0  0  0  0  0  0  0  0  0
   58.4320   25.6950   45.9540 C   0  0  0  0  0  0  0  0  0  0  0  0
   59.1180   26.7040   45.2550 C   0  0  0  0  0  0  0  0  0  0  0  0
   58.4610   27.8840   44.8980 C   0  0  0  0  0  0  0  0  0  0  0  0
   57.1170   28.0890   45.2560 C   0  0  0  0  0  0  0  0  0  0  0  0
   56.4100   29.3350   44.8770 C   0  0  0  0  0  0  0  0  0  0  0  0
   55.1510   29.3660   44.9120 O   0  0  0  0  0  0  0  0  0  0  0  0
   57.1110   30.4990   44.4200 N   0  0  0  0  0  0  0  0  0  0  0  0
   57.5950   31.5740   45.2400 C   0  0  0  0  0  0  0  0  0  0  0  0
   57.3950   32.8940   44.8220 C   0  0  0  0  0  0  0  0  0  0  0  0
   57.8450   33.9530   45.6140 C   0  0  0  0  0  0  0  0  0  0  0  0
   58.4760   33.6790   46.8280 C   0  0  0  0  0  0  0  0  0  0  0  0
   58.6400   32.3920   47.2350 N   0  0  0  0  0  0  0  0  0  0  0  0
   58.2160   31.3440   46.4790 C   0  0  0  0  0  0  0  0  0  0  0  0
   56.4390   27.0810   45.9620 C   0  0  0  0  0  0  0  0  0  0  0  0
   57.0970   25.9000   46.3170 C   0  0  0  0  0  0  0  0  0  0  0  0
   58.4010   21.6360   43.8750 C   0  0  0  0  0  0  0  0  0  0  0  0
   57.3690   21.1570   43.0670 C   0  0  0  0  0  0  0  0  0  0  0  0
   56.1710   21.7960   43.0370 N   0  0  0  0  0  0  0  0  0  0  0  0
   54.2337   23.7668   44.7345 H   0  0  0  0  0  0  0  0  0  0  0  0
   54.6951   24.5402   43.1802 H   0  0  0  0  0  0  0  0  0  0  0  0
   53.8913   22.9338   43.1802 H   0  0  0  0  0  0  0  0  0  0  0  0
   56.7658   24.3320   45.1999 H   0  0  0  0  0  0  0  0  0  0  0  0
   60.1759   26.5636   44.9883 H   0  0  0  0  0  0  0  0  0  0  0  0
   58.9994   28.6587   44.3324 H   0  0  0  0  0  0  0  0  0  0  0  0
   56.8834   33.0979   43.8698 H   0  0  0  0  0  0  0  0  0  0  0  0
   57.7033   34.9927   45.2839 H   0  0  0  0  0  0  0  0  0  0  0  0
   58.8411   34.5048   47.4563 H   0  0  0  0  0  0  0  0  0  0  0  0
   58.3596   30.3143   46.8383 H   0  0  0  0  0  0  0  0  0  0  0  0
   55.3834   27.2222   46.2372 H   0  0  0  0  0  0  0  0  0  0  0  0
   56.5609   25.1262   46.8860 H   0  0  0  0  0  0  0  0  0  0  0  0
   59.3734   21.1221   43.8930 H   0  0  0  0  0  0  0  0  0  0  0  0
   57.5264   20.2586   42.4521 H   0  0  0  0  0  0  0  0  0  0  0  0
  1  2  1  0
  2  3  2  0
  3  4  1  0
  4  5  1  0
  5  6  2  0
  5  7  1  0
  7  8  1  0
  8  9  2  0
  9 10  1  0
 10 11  2  0
 11 12  1  0
 12 13  2  0
 12 14  1  0
 14 15  1  0
 15 16  2  0
 16 17  1  0
 17 18  2  0
 18 19  1  0
 19 20  2  0
 11 21  1  0
 21 22  2  0
  4 23  2  0
 23 24  1  0
 24 25  2  0
 25  2  1  0
 22  8  1  0
 20 15  1  0
  1 26  1  0
  1 27  1  0
  1 28  1  0
  3 29  1  0
  9 30  1  0
 10 31  1  0
 16 32  1  0
 17 33  1  0
 18 34  1  0
 20 35  1  0
 21 36  1  0
 22 37  1  0
 23 38  1  0
 24 39  1  0
M  CHG  2   7  -1  14  -1
M  END
>  <UniqueID>  (11) 
11

>  <SMILES>  (11) 
Cc1cc(C(=O)[N-]c2ccc(C(=O)[N-]c3cccnc3)cc2)ccn1

>  <Energy>  (11) 
56.0320535315634

>  <Genealogy>  (11) 
Cc1cc(C(=O)[N-]c2ccc(C(=O)[N-]c3cccnc3)cc2)ccn1 (protonated)
Cc1cc(C(=O)[N-]c2ccc(C(=O)[N-]c3cccnc3)cc2)ccn1 (3D coordinates assigned)
Cc1cc(C(=O)[N-]c2ccc(C(=O)[N-]c3cccnc3)cc2)ccn1 (optimized conformer: 56.0320535315634 kcal/mol)

>  <smiles>  (11) 
Cc1cc(C(=O)Nc2ccc(C(=O)Nc3cccnc3)cc2)ccn1

>  <score_type>  (11) 
oracle

>  <origin>  (11) 
adg

>  <m_score__min__energy>  (11) 
-10.869999999999999

>  <m_primary>  (11) 
energy

$$$$
11:0
     RDKit          3D

 58 60  0  0  0  0  0  0  0  0999 V2000
   58.9040   32.3920   49.7040 C   0  0  0  0  0  0  0  0  0  0  0  0
   59.7650   32.7940   50.8890 C   0  0  0  0  0  0  0  0  0  0  0  0
   60.7000   33.7910   50.4810 O   0  0  0  0  0  0  0  0  0  0  0  0
   61.9340   33.5320   49.8660 C   0  0  0  0  0  0  0  0  0  0  0  0
   63.0880   33.2310   50.6250 C   0  0  0  0  0  0  0  0  0  0  0  0
   64.3170   33.0290   49.9980 C   0  0  0  0  0  0  0  0  0  0  0  0
   64.4210   33.1190   48.6120 C   0  0  0  0  0  0  0  0  0  0  0  0
   63.2880   33.4080   47.8450 C   0  0  0  0  0  0  0  0  0  0  0  0
   62.0380   33.6130   48.4570 C   0  0  0  0  0  0  0  0  0  0  0  0
   60.8900   34.0280   47.6170 C   0  0  0  0  0  0  0  0  0  0  0  0
   60.1350   34.9430   48.0410 O   0  0  0  0  0  0  0  0  0  0  0  0
   60.5940   33.3570   46.3800 N   0  0  0  0  0  0  0  0  0  0  0  0
   59.2580   33.2040   45.8800 C   0  0  0  0  0  0  0  0  0  0  0  0
   58.3220   34.2520   45.9360 C   0  0  0  0  0  0  0  0  0  0  0  0
   57.0230   34.0660   45.4490 C   0  0  0  0  0  0  0  0  0  0  0  0
   56.6450   32.8320   44.9070 C   0  0  0  0  0  0  0  0  0  0  0  0
   57.5750   31.7960   44.8010 C   0  0  0  0  0  0  0  0  0  0  0  0
   57.1580   30.5300   44.2760 N   0  0  0  0  0  0  0  0  0  0  0  0
   56.6130   29.4970   45.1000 C   0  0  0  0  0  0  0  0  0  0  0  0
   55.3700   29.2870   45.0970 O   0  0  0  0  0  0  0  0  0  0  0  0
   57.4970   28.7010   45.9740 C   0  0  0  0  0  0  0  0  0  0  0  0
   58.6770   29.2750   46.4690 C   0  0  0  0  0  0  0  0  0  0  0  0
   59.5610   28.5350   47.2770 C   0  0  0  0  0  0  0  0  0  0  0  0
   60.7350   29.1090   47.7860 O   0  0  0  0  0  0  0  0  0  0  0  0
   61.1510   30.4510   47.5630 C   0  0  0  0  0  0  0  0  0  0  0  0
   59.2500   27.1910   47.5870 C   0  0  0  0  0  0  0  0  0  0  0  0
   60.1000   26.3600   48.3400 O   0  0  0  0  0  0  0  0  0  0  0  0
   60.7540   26.7710   49.5370 C   0  0  0  0  0  0  0  0  0  0  0  0
   58.0360   26.6460   47.1450 C   0  0  0  0  0  0  0  0  0  0  0  0
   57.1620   27.3830   46.3220 C   0  0  0  0  0  0  0  0  0  0  0  0
   55.9540   26.8490   45.8490 O   0  0  0  0  0  0  0  0  0  0  0  0
   55.7060   25.4610   45.6370 C   0  0  0  0  0  0  0  0  0  0  0  0
   58.8870   31.9920   45.2760 C   0  0  0  0  0  0  0  0  0  0  0  0
   57.9630   31.9527   50.0667 H   0  0  0  0  0  0  0  0  0  0  0  0
   58.6827   33.2799   49.0935 H   0  0  0  0  0  0  0  0  0  0  0  0
   59.4427   31.6523   49.0935 H   0  0  0  0  0  0  0  0  0  0  0  0
   59.1247   33.1967   51.6876 H   0  0  0  0  0  0  0  0  0  0  0  0
   60.3079   31.9135   51.2632 H   0  0  0  0  0  0  0  0  0  0  0  0
   63.0158   33.1555   51.7200 H   0  0  0  0  0  0  0  0  0  0  0  0
   65.2079   32.7977   50.6004 H   0  0  0  0  0  0  0  0  0  0  0  0
   65.3931   32.9630   48.1214 H   0  0  0  0  0  0  0  0  0  0  0  0
   63.3752   33.4758   46.7506 H   0  0  0  0  0  0  0  0  0  0  0  0
   61.3190   32.7170   45.9840 H   0  0  0  0  0  0  0  0  0  0  0  0
   58.6121   35.2226   46.3646 H   0  0  0  0  0  0  0  0  0  0  0  0
   56.2974   34.8916   45.4923 H   0  0  0  0  0  0  0  0  0  0  0  0
   55.6115   32.6779   44.5633 H   0  0  0  0  0  0  0  0  0  0  0  0
   58.9156   30.3200   46.2220 H   0  0  0  0  0  0  0  0  0  0  0  0
   61.3064   30.9522   48.5298 H   0  0  0  0  0  0  0  0  0  0  0  0
   62.0920   30.4533   46.9934 H   0  0  0  0  0  0  0  0  0  0  0  0
   60.3763   30.9852   46.9934 H   0  0  0  0  0  0  0  0  0  0  0  0
   60.1845   26.4131   50.4074 H   0  0  0  0  0  0  0  0  0  0  0  0
   61.7691   26.3482   49.5639 H   0  0  0  0  0  0  0  0  0  0  0  0
   60.8133   27.8691   49.5639 H   0  0  0  0  0  0  0  0  0  0  0  0
   57.7611   25.6244   47.4464 H   0  0  0  0  0  0  0  0  0  0  0  0
   55.6151   24.9523   46.6080 H   0  0  0  0  0  0  0  0  0  0  0  0
   54.7716   25.3379   45.0697 H   0  0  0  0  0  0  0  0  0  0  0  0
   56.5399   25.0220   45.0697 H   0  0  0  0  0  0  0  0  0  0  0  0
   59.6289   31.1865   45.1725 H   0  0  0  0  0  0  0  0  0  0  0  0
  1  2  1  0
  2  3  1  0
  3  4  1  0
  4  5  2  0
  5  6  1  0
  6  7  2  0
  7  8  1  0
  8  9  2  0
  9 10  1  0
 10 11  2  0
 10 12  1  0
 12 13  1  0
 13 14  2  0
 14 15  1  0
 15 16  2  0
 16 17  1  0
 17 18  1  0
 18 19  1  0
 19 20  2  0
 19 21  1  0
 21 22  2  0
 22 23  1  0
 23 24  1  0
 24 25  1  0
 23 26  2  0
 26 27  1  0
 27 28  1  0
 26 29  1  0
 29 30  2  0
 30 31  1  0
 31 32  1  0
 17 33  2  0
  9  4  1  0
 33 13  1  0
 30 21  1  0
  1 34  1  0
  1 35  1  0
  1 36  1  0
  2 37  1  0
  2 38  1  0
  5 39  1  0
  6 40  1  0
  7 41  1  0
  8 42  1  0
 12 43  1  0
 14 44  1  0
 15 45  1  0
 16 46  1  0
 22 47  1  0
 25 48  1  0
 25 49  1  0
 25 50  1  0
 28 51  1  0
 28 52  1  0
 28 53  1  0
 29 54  1  0
 32 55  1  0
 32 56  1  0
 32 57  1  0
 33 58  1  0
M  CHG  1  18  -1
M  END
>  <UniqueID>  (12) 
12

>  <SMILES>  (12) 
CCOc1ccccc1C(=O)Nc1cccc([N-]C(=O)c2cc(OC)c(OC)cc2OC)c1

>  <Energy>  (12) 
81.29305389016795

>  <Genealogy>  (12) 
CCOc1ccccc1C(=O)Nc1cccc([N-]C(=O)c2cc(OC)c(OC)cc2OC)c1 (protonated)
CCOc1ccccc1C(=O)Nc1cccc([N-]C(=O)c2cc(OC)c(OC)cc2OC)c1 (3D coordinates assigned)
CCOc1ccccc1C(=O)Nc1cccc([N-]C(=O)c2cc(OC)c(OC)cc2OC)c1 (optimized conformer: 81.29305389016795 kcal/mol)

>  <smiles>  (12) 
CCOc1ccccc1C(=O)Nc1cccc(NC(=O)c2cc(OC)c(OC)cc2OC)c1

>  <score_type>  (12) 
oracle

>  <origin>  (12) 
adg

>  <m_score__min__energy>  (12) 
-10.369999999999999

>  <m_primary>  (12) 
energy

$$$$
12:0
     RDKit          3D

 41 43  0  0  0  0  0  0  0  0999 V2000
   55.5750   23.3220   43.2170 C   0  0  0  0  0  0  0  0  0  0  0  0
   56.9300   23.9380   43.5800 C   0  0  0  0  0  0  0  0  0  0  0  0
   57.7990   22.9190   44.3240 C   0  0  0  0  0  0  0  0  0  0  0  0
   56.7330   25.1350   44.4040 N   0  0  0  0  0  0  0  0  0  0  0  0
   56.1470   25.0790   45.7130 C   0  0  0  0  0  0  0  0  0  0  0  0
   55.7800   23.9750   46.1990 O   0  0  0  0  0  0  0  0  0  0  0  0
   55.9270   26.3350   46.5000 C   0  0  0  0  0  0  0  0  0  0  0  0
   55.9920   27.4950   45.6210 N   0  0  0  0  0  0  0  0  0  0  0  0
   57.2180   28.0560   45.1360 C   0  0  0  0  0  0  0  0  0  0  0  0
   58.2820   27.3810   45.1680 O   0  0  0  0  0  0  0  0  0  0  0  0
   57.2170   29.3950   44.5290 C   0  0  0  0  0  0  0  0  0  0  0  0
   56.6050   29.5780   43.2700 C   0  0  0  0  0  0  0  0  0  0  0  0
   56.6960   30.8070   42.5930 C   0  0  0  0  0  0  0  0  0  0  0  0
   57.4040   31.8780   43.1560 C   0  0  0  0  0  0  0  0  0  0  0  0
   57.9860   31.6970   44.4080 C   0  0  0  0  0  0  0  0  0  0  0  0
   57.8770   30.4990   45.1050 C   0  0  0  0  0  0  0  0  0  0  0  0
   58.5220   30.6940   46.4220 C   0  0  0  0  0  0  0  0  0  0  0  0
   58.5500   29.8820   47.5640 C   0  0  0  0  0  0  0  0  0  0  0  0
   59.1930   30.3650   48.7160 C   0  0  0  0  0  0  0  0  0  0  0  0
   59.7650   31.6510   48.7310 C   0  0  0  0  0  0  0  0  0  0  0  0
   59.6820   32.4780   47.6010 C   0  0  0  0  0  0  0  0  0  0  0  0
   59.0510   31.9770   46.4630 C   0  0  0  0  0  0  0  0  0  0  0  0
   58.7380   32.6490   45.2130 C   0  0  0  0  0  0  0  0  0  0  0  0
   59.0340   33.8330   44.8990 O   0  0  0  0  0  0  0  0  0  0  0  0
   55.0270   23.0729   44.1377 H   0  0  0  0  0  0  0  0  0  0  0  0
   54.9909   24.0430   42.6263 H   0  0  0  0  0  0  0  0  0  0  0  0
   55.7343   22.4078   42.6263 H   0  0  0  0  0  0  0  0  0  0  0  0
   57.4467   24.2252   42.6524 H   0  0  0  0  0  0  0  0  0  0  0  0
   57.6802   23.0583   45.4087 H   0  0  0  0  0  0  0  0  0  0  0  0
   57.4870   21.9007   44.0488 H   0  0  0  0  0  0  0  0  0  0  0  0
   58.8538   23.0663   44.0488 H   0  0  0  0  0  0  0  0  0  0  0  0
   56.9930   26.0710   44.0160 H   0  0  0  0  0  0  0  0  0  0  0  0
   54.9371   26.2960   46.9781 H   0  0  0  0  0  0  0  0  0  0  0  0
   56.7105   26.4207   47.2674 H   0  0  0  0  0  0  0  0  0  0  0  0
   56.0488   28.7469   42.8119 H   0  0  0  0  0  0  0  0  0  0  0  0
   56.2082   30.9290   41.6147 H   0  0  0  0  0  0  0  0  0  0  0  0
   57.4973   32.8357   42.6230 H   0  0  0  0  0  0  0  0  0  0  0  0
   58.0787   28.8881   47.5585 H   0  0  0  0  0  0  0  0  0  0  0  0
   59.2499   29.7326   49.6142 H   0  0  0  0  0  0  0  0  0  0  0  0
   60.2802   32.0097   49.6343 H   0  0  0  0  0  0  0  0  0  0  0  0
   60.1032   33.4941   47.6123 H   0  0  0  0  0  0  0  0  0  0  0  0
  1  2  1  0
  2  3  1  0
  2  4  1  0
  4  5  1  0
  5  6  2  0
  5  7  1  0
  7  8  1  0
  8  9  1  0
  9 10  2  0
  9 11  1  0
 11 12  2  0
 12 13  1  0
 13 14  2  0
 14 15  1  0
 15 16  2  0
 16 17  1  0
 17 18  2  0
 18 19  1  0
 19 20  2  0
 20 21  1  0
 21 22  2  0
 22 23  1  0
 23 24  2  0
 16 11  1  0
 22 17  1  0
 23 15  1  0
  1 25  1  0
  1 26  1  0
  1 27  1  0
  2 28  1  0
  3 29  1  0
  3 30  1  0
  3 31  1  0
  4 32  1  0
  7 33  1  0
  7 34  1  0
 12 35  1  0
 13 36  1  0
 14 37  1  0
 18 38  1  0
 19 39  1  0
 20 40  1  0
 21 41  1  0
M  CHG  1   8  -1
M  END
>  <UniqueID>  (13) 
13

>  <SMILES>  (13) 
CC(C)NC(=O)C[N-]C(=O)c1cccc2c1-c1ccccc1C2=O

>  <Energy>  (13) 
74.32410662344766

>  <Genealogy>  (13) 
CC(C)NC(=O)C[N-]C(=O)c1cccc2c1-c1ccccc1C2=O (protonated)
CC(C)NC(=O)C[N-]C(=O)c1cccc2c1-c1ccccc1C2=O (3D coordinates assigned)
CC(C)NC(=O)C[N-]C(=O)c1cccc2c1-c1ccccc1C2=O (nonaromatic ring conformer: 74.32410662344766 kcal/mol)

>  <smiles>  (13) 
CC(C)NC(=O)CNC(=O)c1cccc2c1-c1ccccc1C2=O

>  <score_type>  (13) 
oracle

>  <origin>  (13) 
adg

>  <m_score__min__energy>  (13) 
-10.42

>  <m_primary>  (13) 
energy

$$$$
13:0
     RDKit          3D

 38 40  0  0  0  0  0  0  0  0999 V2000
   54.7780   26.3360   45.9720 N   0  0  0  0  0  0  0  0  0  0  0  0
   56.3800   25.7030   46.1050 S   0  0  0  0  0  0  0  0  0  0  0  0
   56.5140   24.4990   45.2160 O   0  0  0  0  0  0  0  0  0  0  0  0
   56.6400   25.2850   47.5260 O   0  0  0  0  0  0  0  0  0  0  0  0
   57.5420   26.9380   45.6290 C   0  0  0  0  0  0  0  0  0  0  0  0
   58.1310   26.9060   44.3580 C   0  0  0  0  0  0  0  0  0  0  0  0
   59.0610   27.8820   43.9930 C   0  0  0  0  0  0  0  0  0  0  0  0
   59.3970   28.9020   44.8880 C   0  0  0  0  0  0  0  0  0  0  0  0
   58.7920   28.9630   46.1510 C   0  0  0  0  0  0  0  0  0  0  0  0
   59.1720   30.0050   47.0670 N   0  0  0  0  0  0  0  0  0  0  0  0
   59.2340   29.8260   48.4880 C   0  0  0  0  0  0  0  0  0  0  0  0
   58.5150   28.9590   49.0540 O   0  0  0  0  0  0  0  0  0  0  0  0
   60.1260   30.7000   49.3200 C   0  0  0  0  0  0  0  0  0  0  0  0
   60.9190   31.5970   48.4560 N   0  0  0  0  0  0  0  0  0  0  0  0
   62.2450   31.3050   48.2810 C   0  0  0  0  0  0  0  0  0  0  0  0
   63.0290   32.0710   47.4860 N   0  0  0  0  0  0  0  0  0  0  0  0
   62.5380   33.1470   46.8290 C   0  0  0  0  0  0  0  0  0  0  0  0
   63.3090   33.8290   46.1020 O   0  0  0  0  0  0  0  0  0  0  0  0
   61.1840   33.4840   46.9640 C   0  0  0  0  0  0  0  0  0  0  0  0
   60.6320   34.5870   46.2860 C   0  0  0  0  0  0  0  0  0  0  0  0
   59.2800   34.8960   46.4270 C   0  0  0  0  0  0  0  0  0  0  0  0
   58.4670   34.1140   47.2420 C   0  0  0  0  0  0  0  0  0  0  0  0
   58.9980   33.0190   47.9260 C   0  0  0  0  0  0  0  0  0  0  0  0
   60.3660   32.6800   47.8010 C   0  0  0  0  0  0  0  0  0  0  0  0
   57.8730   27.9650   46.5220 C   0  0  0  0  0  0  0  0  0  0  0  0
   54.6880   27.0920   46.6870 H   0  0  0  0  0  0  0  0  0  0  0  0
   57.8607   26.1114   43.6470 H   0  0  0  0  0  0  0  0  0  0  0  0
   59.5303   27.8480   42.9987 H   0  0  0  0  0  0  0  0  0  0  0  0
   60.1398   29.6604   44.5997 H   0  0  0  0  0  0  0  0  0  0  0  0
   59.4070   30.9460   46.6780 H   0  0  0  0  0  0  0  0  0  0  0  0
   59.5085   31.3047   50.0004 H   0  0  0  0  0  0  0  0  0  0  0  0
   60.8118   30.0628   49.8976 H   0  0  0  0  0  0  0  0  0  0  0  0
   62.6802   30.4348   48.7941 H   0  0  0  0  0  0  0  0  0  0  0  0
   61.2709   35.2086   45.6414 H   0  0  0  0  0  0  0  0  0  0  0  0
   58.8552   35.7590   45.8934 H   0  0  0  0  0  0  0  0  0  0  0  0
   57.4001   34.3601   47.3478 H   0  0  0  0  0  0  0  0  0  0  0  0
   58.3447   32.4122   48.5702 H   0  0  0  0  0  0  0  0  0  0  0  0
   57.4112   27.9912   47.5200 H   0  0  0  0  0  0  0  0  0  0  0  0
  1  2  1  0
  2  3  2  0
  2  4  2  0
  2  5  1  0
  5  6  2  0
  6  7  1  0
  7  8  2  0
  8  9  1  0
  9 10  1  0
 10 11  1  0
 11 12  2  0
 11 13  1  0
 13 14  1  0
 14 15  1  0
 15 16  2  0
 16 17  1  0
 17 18  2  0
 17 19  1  0
 19 20  2  0
 20 21  1  0
 21 22  2  0
 22 23  1  0
 23 24  2  0
  9 25  2  0
 25  5  1  0
 24 14  1  0
 24 19  1  0
  1 26  1  0
  6 27  1  0
  7 28  1  0
  8 29  1  0
 10 30  1  0
 13 31  1  0
 13 32  1  0
 15 33  1  0
 20 34  1  0
 21 35  1  0
 22 36  1  0
 23 37  1  0
 25 38  1  0
M  CHG  1   1  -1
M  END
>  <UniqueID>  (14) 
14

>  <SMILES>  (14) 
[NH-]S(=O)(=O)c1cccc(NC(=O)Cn2cnc(=O)c3ccccc32)c1

>  <Energy>  (14) 
51.358130118727324

>  <Genealogy>  (14) 
[NH-]S(=O)(=O)c1cccc(NC(=O)Cn2cnc(=O)c3ccccc32)c1 (protonated)
[NH-]S(=O)(=O)c1cccc(NC(=O)Cn2cnc(=O)c3ccccc32)c1 (3D coordinates assigned)
[NH-]S(=O)(=O)c1cccc(NC(=O)Cn2cnc(=O)c3ccccc32)c1 (optimized conformer: 51.358130118727324 kcal/mol)

>  <smiles>  (14) 
NS(=O)(=O)c1cccc(NC(=O)Cn2cnc(=O)c3ccccc32)c1

>  <score_type>  (14) 
oracle

>  <origin>  (14) 
adg

>  <m_score__min__energy>  (14) 
-10.94

>  <m_primary>  (14) 
energy

$$$$
14:0
     RDKit          3D

 30 31  0  0  0  0  0  0  0  0999 V2000
   60.2830   33.6490   50.3530 C   0  0  0  0  0  0  0  0  0  0  0  0
   61.3270   33.4990   49.2820 C   0  0  0  0  0  0  0  0  0  0  0  0
   62.5600   32.8950   49.5830 C   0  0  0  0  0  0  0  0  0  0  0  0
   63.5350   32.7460   48.5950 C   0  0  0  0  0  0  0  0  0  0  0  0
   63.2870   33.1900   47.2970 C   0  0  0  0  0  0  0  0  0  0  0  0
   62.0670   33.7950   46.9820 C   0  0  0  0  0  0  0  0  0  0  0  0
   61.0850   33.9720   47.9740 C   0  0  0  0  0  0  0  0  0  0  0  0
   59.8130   34.5670   47.6650 N   0  0  0  0  0  0  0  0  0  0  0  0
   59.1630   34.5610   46.3890 C   0  0  0  0  0  0  0  0  0  0  0  0
   59.6650   35.1760   45.4090 O   0  0  0  0  0  0  0  0  0  0  0  0
   57.8470   33.8690   46.2320 C   0  0  0  0  0  0  0  0  0  0  0  0
   57.5180   33.4780   44.4770 S   0  0  0  0  0  0  0  0  0  0  0  0
   57.5270   31.7030   44.7150 C   0  0  0  0  0  0  0  0  0  0  0  0
   58.7040   31.0520   44.9100 N   0  0  0  0  0  0  0  0  0  0  0  0
   58.7350   29.7050   45.0810 C   0  0  0  0  0  0  0  0  0  0  0  0
   59.8370   29.1210   45.2570 O   0  0  0  0  0  0  0  0  0  0  0  0
   57.5470   28.9730   45.0610 C   0  0  0  0  0  0  0  0  0  0  0  0
   56.3480   29.6600   44.8650 C   0  0  0  0  0  0  0  0  0  0  0  0
   55.1430   28.9690   44.8400 O   0  0  0  0  0  0  0  0  0  0  0  0
   56.3580   31.0080   44.6950 N   0  0  0  0  0  0  0  0  0  0  0  0
   60.7598   33.5805   51.3419 H   0  0  0  0  0  0  0  0  0  0  0  0
   59.7904   34.6271   50.2504 H   0  0  0  0  0  0  0  0  0  0  0  0
   59.5349   32.8491   50.2504 H   0  0  0  0  0  0  0  0  0  0  0  0
   62.7581   32.5372   50.6042 H   0  0  0  0  0  0  0  0  0  0  0  0
   64.4996   32.2779   48.8409 H   0  0  0  0  0  0  0  0  0  0  0  0
   64.0537   33.0638   46.5184 H   0  0  0  0  0  0  0  0  0  0  0  0
   61.8737   34.1344   45.9537 H   0  0  0  0  0  0  0  0  0  0  0  0
   57.8604   32.9346   46.8123 H   0  0  0  0  0  0  0  0  0  0  0  0
   57.0535   34.5378   46.5968 H   0  0  0  0  0  0  0  0  0  0  0  0
   57.5554   27.8814   45.1964 H   0  0  0  0  0  0  0  0  0  0  0  0
  1  2  1  0
  2  3  2  0
  3  4  1  0
  4  5  2  0
  5  6  1  0
  6  7  2  0
  7  8  1  0
  8  9  1  0
  9 10  2  0
  9 11  1  0
 11 12  1  0
 12 13  1  0
 13 14  2  0
 14 15  1  0
 15 16  2  0
 15 17  1  0
 17 18  2  0
 18 19  1  0
 18 20  1  0
  7  2  1  0
 20 13  1  0
  1 21  1  0
  1 22  1  0
  1 23  1  0
  3 24  1  0
  4 25  1  0
  5 26  1  0
  6 27  1  0
 11 28  1  0
 11 29  1  0
 17 30  1  0
M  CHG  3   8  -1  19  -1  20  -1
M  END
>  <UniqueID>  (15) 
15

>  <SMILES>  (15) 
Cc1ccccc1[N-]C(=O)CSc1nc(=O)cc([O-])[n-]1

>  <Energy>  (15) 
29.68693624526666

>  <Genealogy>  (15) 
Cc1ccccc1[N-]C(=O)CSc1nc(=O)cc([O-])[n-]1 (protonated)
Cc1ccccc1[N-]C(=O)CSc1nc(=O)cc([O-])[n-]1 (3D coordinates assigned)
Cc1ccccc1[N-]C(=O)CSc1nc(=O)cc([O-])[n-]1 (optimized conformer: 29.68693624526666 kcal/mol)

>  <smiles>  (15) 
Cc1ccccc1NC(=O)CSc1nc(=O)cc(O)[nH]1

>  <score_type>  (15) 
oracle

>  <origin>  (15) 
adg

>  <m_score__min__energy>  (15) 
-14.07

>  <m_primary>  (15) 
energy

$$$$
15:0
     RDKit          3D

 41 44  0  0  0  0  0  0  0  0999 V2000
   56.2230   21.5890   42.6330 O   0  0  0  0  0  0  0  0  0  0  0  0
   56.9390   22.2170   43.4570 C   0  0  0  0  0  0  0  0  0  0  0  0
   57.8010   21.5160   44.3040 C   0  0  0  0  0  0  0  0  0  0  0  0
   58.5930   22.2210   45.2090 C   0  0  0  0  0  0  0  0  0  0  0  0
   58.5170   23.6130   45.2610 C   0  0  0  0  0  0  0  0  0  0  0  0
   57.6410   24.2940   44.3990 C   0  0  0  0  0  0  0  0  0  0  0  0
   57.5410   25.7750   44.4470 C   0  0  0  0  0  0  0  0  0  0  0  0
   57.0960   26.4190   45.6160 C   0  0  0  0  0  0  0  0  0  0  0  0
   57.0020   27.8120   45.6640 C   0  0  0  0  0  0  0  0  0  0  0  0
   57.3440   28.5830   44.5470 C   0  0  0  0  0  0  0  0  0  0  0  0
   57.2390   30.3390   44.6340 S   0  0  0  0  0  0  0  0  0  0  0  0
   55.8010   30.7500   44.4810 O   0  0  0  0  0  0  0  0  0  0  0  0
   58.0400   30.9620   43.5230 O   0  0  0  0  0  0  0  0  0  0  0  0
   57.8430   30.8790   46.1810 N   0  0  0  0  0  0  0  0  0  0  0  0
   59.2510   30.4610   46.3810 C   0  0  0  0  0  0  0  0  0  0  0  0
   59.9800   31.6910   46.7500 C   0  0  0  0  0  0  0  0  0  0  0  0
   61.3250   31.8250   47.1010 C   0  0  0  0  0  0  0  0  0  0  0  0
   61.8140   33.1050   47.4050 C   0  0  0  0  0  0  0  0  0  0  0  0
   60.9550   34.2200   47.3510 C   0  0  0  0  0  0  0  0  0  0  0  0
   59.6080   34.0560   46.9920 C   0  0  0  0  0  0  0  0  0  0  0  0
   59.1490   32.7700   46.6970 C   0  0  0  0  0  0  0  0  0  0  0  0
   57.7920   32.3560   46.2900 C   0  0  0  0  0  0  0  0  0  0  0  0
   57.7900   27.9500   43.3810 C   0  0  0  0  0  0  0  0  0  0  0  0
   57.8870   26.5560   43.3300 C   0  0  0  0  0  0  0  0  0  0  0  0
   56.8750   23.5780   43.5210 N   0  0  0  0  0  0  0  0  0  0  0  0
   57.8542   20.4183   44.2572 H   0  0  0  0  0  0  0  0  0  0  0  0
   59.2764   21.6808   45.8807 H   0  0  0  0  0  0  0  0  0  0  0  0
   59.1396   24.1745   45.9731 H   0  0  0  0  0  0  0  0  0  0  0  0
   56.8204   25.8219   46.4978 H   0  0  0  0  0  0  0  0  0  0  0  0
   56.6573   28.3056   46.5846 H   0  0  0  0  0  0  0  0  0  0  0  0
   59.3200   29.7167   47.1880 H   0  0  0  0  0  0  0  0  0  0  0  0
   59.6700   29.9943   45.4774 H   0  0  0  0  0  0  0  0  0  0  0  0
   61.9865   30.9469   47.1384 H   0  0  0  0  0  0  0  0  0  0  0  0
   62.8693   33.2376   47.6857 H   0  0  0  0  0  0  0  0  0  0  0  0
   61.3408   35.2218   47.5908 H   0  0  0  0  0  0  0  0  0  0  0  0
   58.9293   34.9203   46.9440 H   0  0  0  0  0  0  0  0  0  0  0  0
   57.0543   32.6601   47.0472 H   0  0  0  0  0  0  0  0  0  0  0  0
   57.4904   32.8244   45.3415 H   0  0  0  0  0  0  0  0  0  0  0  0
   58.0651   28.5512   42.5018 H   0  0  0  0  0  0  0  0  0  0  0  0
   58.2367   26.0666   42.4090 H   0  0  0  0  0  0  0  0  0  0  0  0
   56.2360   24.0770   42.8610 H   0  0  0  0  0  0  0  0  0  0  0  0
  1  2  2  0
  2  3  1  0
  3  4  2  0
  4  5  1  0
  5  6  2  0
  6  7  1  0
  7  8  2  0
  8  9  1  0
  9 10  2  0
 10 11  1  0
 11 12  2  0
 11 13  2  0
 11 14  1  0
 14 15  1  0
 15 16  1  0
 16 17  2  0
 17 18  1  0
 18 19  2  0
 19 20  1  0
 20 21  2  0
 21 22  1  0
 10 23  1  0
 23 24  2  0
  6 25  1  0
 25  2  1  0
 24  7  1  0
 22 14  1  0
 21 16  1  0
  3 26  1  0
  4 27  1  0
  5 28  1  0
  8 29  1  0
  9 30  1  0
 15 31  1  0
 15 32  1  0
 17 33  1  0
 18 34  1  0
 19 35  1  0
 20 36  1  0
 22 37  1  0
 22 38  1  0
 23 39  1  0
 24 40  1  0
 25 41  1  0
M  END
>  <UniqueID>  (16) 
16

>  <SMILES>  (16) 
O=c1cccc(-c2ccc(S(=O)(=O)N3Cc4ccccc4C3)cc2)[nH]1

>  <Energy>  (16) 
61.87517817945352

>  <Genealogy>  (16) 
O=c1cccc(-c2ccc(S(=O)(=O)N3Cc4ccccc4C3)cc2)[nH]1 (3D coordinates assigned)
O=c1cccc(-c2ccc(S(=O)(=O)N3Cc4ccccc4C3)cc2)[nH]1 (nonaromatic ring conformer: 61.87517817945352 kcal/mol)

>  <smiles>  (16) 
O=c1cccc(-c2ccc(S(=O)(=O)N3Cc4ccccc4C3)cc2)[nH]1

>  <score_type>  (16) 
oracle

>  <origin>  (16) 
adg

>  <m_score__min__energy>  (16) 
-9.5

>  <m_primary>  (16) 
energy

$$$$
16:0
     RDKit          3D

 48 50  0  0  0  0  0  0  0  0999 V2000
   59.7280   27.7594   43.7685 H   0  0  0  0  0  0  0  0  0  0  0  0
   58.9300   28.2490   44.3460 C   0  0  0  0  0  0  0  0  0  0  0  0
   57.7620   28.4850   43.7370 C   0  0  0  0  0  0  0  0  0  0  0  0
   57.4342   27.7821   42.9569 H   0  0  0  0  0  0  0  0  0  0  0  0
   56.7150   29.8580   44.1110 S   0  0  0  0  0  0  0  0  0  0  0  0
   55.5360   29.3640   44.9010 O   0  0  0  0  0  0  0  0  0  0  0  0
   56.2140   30.4850   42.8400 O   0  0  0  0  0  0  0  0  0  0  0  0
   57.5710   31.0340   45.0440 N   0  0  0  0  0  0  0  0  0  0  0  0
   58.3180   31.4250   44.4280 H   0  0  0  0  0  0  0  0  0  0  0  0
   56.9050   31.8130   45.2450 H   0  0  0  0  0  0  0  0  0  0  0  0
   59.2050   28.6090   45.7470 C   0  0  0  0  0  0  0  0  0  0  0  0
   60.3380   29.3630   46.0780 C   0  0  0  0  0  0  0  0  0  0  0  0
   60.9982   29.7389   45.2825 H   0  0  0  0  0  0  0  0  0  0  0  0
   60.6320   29.6390   47.4150 C   0  0  0  0  0  0  0  0  0  0  0  0
   61.5191   30.2379   47.6688 H   0  0  0  0  0  0  0  0  0  0  0  0
   59.7980   29.1540   48.4380 C   0  0  0  0  0  0  0  0  0  0  0  0
   60.1180   29.3030   49.7970 O   0  0  0  0  0  0  0  0  0  0  0  0
   59.4920   30.2410   50.6750 C   0  0  0  0  0  0  0  0  0  0  0  0
   58.4218   30.0016   50.7606 H   0  0  0  0  0  0  0  0  0  0  0  0
   59.9679   30.1821   51.6650 H   0  0  0  0  0  0  0  0  0  0  0  0
   59.6490   31.6390   50.1330 C   0  0  0  0  0  0  0  0  0  0  0  0
   60.4360   32.5660   50.8240 C   0  0  0  0  0  0  0  0  0  0  0  0
   60.8692   32.2987   51.7991 H   0  0  0  0  0  0  0  0  0  0  0  0
   60.6730   33.8270   50.2810 C   0  0  0  0  0  0  0  0  0  0  0  0
   61.2752   34.5590   50.8392 H   0  0  0  0  0  0  0  0  0  0  0  0
   60.1500   34.1660   49.0320 C   0  0  0  0  0  0  0  0  0  0  0  0
   60.3514   35.1633   48.6138 H   0  0  0  0  0  0  0  0  0  0  0  0
   59.3650   33.2480   48.2950 C   0  0  0  0  0  0  0  0  0  0  0  0
   58.8600   33.5800   46.9640 N   0  0  0  0  0  0  0  0  0  0  0  0
   57.4010   33.6000   46.7290 C   0  0  0  0  0  0  0  0  0  0  0  0
   57.0113   32.5808   46.8685 H   0  0  0  0  0  0  0  0  0  0  0  0
   56.9664   34.3129   47.4452 H   0  0  0  0  0  0  0  0  0  0  0  0
   57.0180   34.0780   45.3270 C   0  0  0  0  0  0  0  0  0  0  0  0
   55.9984   33.7365   45.0951 H   0  0  0  0  0  0  0  0  0  0  0  0
   57.0675   35.1766   45.3022 H   0  0  0  0  0  0  0  0  0  0  0  0
   57.9080   33.5630   44.3650 O   0  0  0  0  0  0  0  0  0  0  0  0
   59.1540   34.1930   44.5330 C   0  0  0  0  0  0  0  0  0  0  0  0
   59.8128   33.9119   43.6981 H   0  0  0  0  0  0  0  0  0  0  0  0
   58.9923   35.2809   44.5530 H   0  0  0  0  0  0  0  0  0  0  0  0
   59.8160   33.7790   45.8520 C   0  0  0  0  0  0  0  0  0  0  0  0
   60.3573   32.8357   45.6871 H   0  0  0  0  0  0  0  0  0  0  0  0
   60.4837   34.6018   46.1472 H   0  0  0  0  0  0  0  0  0  0  0  0
   59.1010   31.9900   48.8870 C   0  0  0  0  0  0  0  0  0  0  0  0
   58.4539   31.2723   48.3615 H   0  0  0  0  0  0  0  0  0  0  0  0
   58.6200   28.4790   48.0980 C   0  0  0  0  0  0  0  0  0  0  0  0
   57.9245   28.1605   48.8885 H   0  0  0  0  0  0  0  0  0  0  0  0
   58.3220   28.2070   46.7580 C   0  0  0  0  0  0  0  0  0  0  0  0
   57.3937   27.6771   46.4981 H   0  0  0  0  0  0  0  0  0  0  0  0
  1  2  1  0
  2  3  2  0
  3  4  1  0
  3  5  1  0
  5  6  2  0
  5  7  2  0
  5  8  1  0
  8  9  1  0
  8 10  1  0
  2 11  1  0
 11 12  2  0
 12 13  1  0
 12 14  1  0
 14 15  1  0
 14 16  2  0
 16 17  1  0
 17 18  1  0
 18 19  1  0
 18 20  1  0
 18 21  1  0
 21 22  2  0
 22 23  1  0
 22 24  1  0
 24 25  1  0
 24 26  2  0
 26 27  1  0
 26 28  1  0
 28 29  1  0
 29 30  1  0
 30 31  1  0
 30 32  1  0
 30 33  1  0
 33 34  1  0
 33 35  1  0
 33 36  1  0
 36 37  1  0
 37 38  1  0
 37 39  1  0
 37 40  1  0
 40 41  1  0
 40 42  1  0
 28 43  2  0
 43 44  1  0
 16 45  1  0
 45 46  1  0
 45 47  2  0
 47 48  1  0
 47 11  1  0
 43 21  1  0
 40 29  1  0
M  END
>  <UniqueID>  (17) 
17

>  <SMILES>  (17) 
NS(=O)(=O)/C=C\c1ccc(OCc2cccc(N3CCOCC3)c2)cc1

>  <Energy>  (17) 
60.71868288624981

>  <Genealogy>  (17) 
NS(=O)(=O)/C=C\c1ccc(OCc2cccc(N3CCOCC3)c2)cc1 (cis-trans isomerization)
NS(=O)(=O)/C=C\c1ccc(OCc2cccc(N3CCOCC3)c2)cc1 (3D coordinates assigned)
NS(=O)(=O)/C=C\c1ccc(OCc2cccc(N3CCOCC3)c2)cc1 (nonaromatic ring conformer: 60.71868288624981 kcal/mol)

>  <smiles>  (17) 
NS(=O)(=O)C=Cc1ccc(OCc2cccc(N3CCOCC3)c2)cc1

>  <score_type>  (17) 
oracle

>  <origin>  (17) 
adg

>  <m_score__min__energy>  (17) 
-9.1899999999999995

>  <m_primary>  (17) 
energy

$$$$
17:0
     RDKit          3D

 37 39  0  0  0  0  0  0  0  0999 V2000
   56.2752   20.7985   46.8445 H   0  0  0  0  0  0  0  0  0  0  0  0
   56.2280   21.8970   46.8130 C   0  0  0  0  0  0  0  0  0  0  0  0
   57.0890   22.6360   47.5620 N   0  0  0  0  0  0  0  0  0  0  0  0
   57.0550   23.9950   47.5600 C   0  0  0  0  0  0  0  0  0  0  0  0
   57.7703   24.5632   48.1728 H   0  0  0  0  0  0  0  0  0  0  0  0
   56.1060   24.6760   46.7750 C   0  0  0  0  0  0  0  0  0  0  0  0
   56.0360   26.0770   46.7230 O   0  0  0  0  0  0  0  0  0  0  0  0
   56.6130   26.8790   45.7320 C   0  0  0  0  0  0  0  0  0  0  0  0
   56.2720   28.1890   45.5920 N   0  0  0  0  0  0  0  0  0  0  0  0
   56.8030   28.9730   44.6170 C   0  0  0  0  0  0  0  0  0  0  0  0
   56.4380   30.2230   44.5540 N   0  0  0  0  0  0  0  0  0  0  0  0
   57.1940   31.3330   44.0450 C   0  0  0  0  0  0  0  0  0  0  0  0
   57.3720   31.4190   42.8020 O   0  0  0  0  0  0  0  0  0  0  0  0
   57.8760   32.2920   44.9540 C   0  0  0  0  0  0  0  0  0  0  0  0
   57.5410   33.6560   44.8690 C   0  0  0  0  0  0  0  0  0  0  0  0
   56.7997   33.9889   44.1276 H   0  0  0  0  0  0  0  0  0  0  0  0
   58.1390   34.5910   45.7150 C   0  0  0  0  0  0  0  0  0  0  0  0
   57.8697   35.6546   45.6359 H   0  0  0  0  0  0  0  0  0  0  0  0
   59.0770   34.1790   46.6600 C   0  0  0  0  0  0  0  0  0  0  0  0
   59.5421   34.9173   47.3298 H   0  0  0  0  0  0  0  0  0  0  0  0
   59.4270   32.8330   46.7580 C   0  0  0  0  0  0  0  0  0  0  0  0
   60.1643   32.5152   47.5100 H   0  0  0  0  0  0  0  0  0  0  0  0
   58.8460   31.8770   45.9040 C   0  0  0  0  0  0  0  0  0  0  0  0
   59.2800   30.4400   46.0250 C   0  0  0  0  0  0  0  0  0  0  0  0
   59.3616   30.1699   47.0882 H   0  0  0  0  0  0  0  0  0  0  0  0
   58.5379   29.7906   45.5376 H   0  0  0  0  0  0  0  0  0  0  0  0
   60.2575   30.3099   45.5376 H   0  0  0  0  0  0  0  0  0  0  0  0
   57.7520   28.4050   43.7410 C   0  0  0  0  0  0  0  0  0  0  0  0
   58.2194   29.0193   42.9573 H   0  0  0  0  0  0  0  0  0  0  0  0
   58.0850   27.0930   43.8720 N   0  0  0  0  0  0  0  0  0  0  0  0
   58.7840   26.6730   43.2190 H   0  0  0  0  0  0  0  0  0  0  0  0
   57.5290   26.3190   44.8410 C   0  0  0  0  0  0  0  0  0  0  0  0
   57.7999   25.2560   44.9224 H   0  0  0  0  0  0  0  0  0  0  0  0
   55.2310   23.9270   45.9820 C   0  0  0  0  0  0  0  0  0  0  0  0
   54.4991   24.4382   45.3393 H   0  0  0  0  0  0  0  0  0  0  0  0
   55.2840   22.5320   46.0040 C   0  0  0  0  0  0  0  0  0  0  0  0
   54.4290   21.8020   45.2460 F   0  0  0  0  0  0  0  0  0  0  0  0
  1  2  1  0
  2  3  2  0
  3  4  1  0
  4  5  1  0
  4  6  2  0
  6  7  1  0
  7  8  1  0
  8  9  1  0
  9 10  1  0
 10 11  2  0
 11 12  1  0
 12 13  2  0
 12 14  1  0
 14 15  2  0
 15 16  1  0
 15 17  1  0
 17 18  1  0
 17 19  2  0
 19 20  1  0
 19 21  1  0
 21 22  1  0
 21 23  2  0
 23 24  1  0
 24 25  1  0
 24 26  1  0
 24 27  1  0
 10 28  1  0
 28 29  1  0
 28 30  2  0
 30 31  1  0
 30 32  1  0
 32 33  1  0
  6 34  1  0
 34 35  1  0
 34 36  2  0
 36 37  1  0
 36  2  1  0
 32  8  2  0
 23 14  1  0
M  CHG  2   9  -1  30   1
M  END
>  <UniqueID>  (18) 
18

>  <SMILES>  (18) 
Cc1ccccc1C(=O)/N=c1\c[nH+]cc(Oc2cncc(F)c2)[n-]1

>  <Energy>  (18) 
59.25069958987507

>  <Genealogy>  (18) 
Cc1ccccc1C(=O)N=c1c[nH+]cc(Oc2cncc(F)c2)[n-]1 (protonated)
Cc1ccccc1C(=O)/N=c1\c[nH+]cc(Oc2cncc(F)c2)[n-]1 (cis-trans isomerization)
Cc1ccccc1C(=O)/N=c1\c[nH+]cc(Oc2cncc(F)c2)[n-]1 (3D coordinates assigned)
Cc1ccccc1C(=O)/N=c1\c[nH+]cc(Oc2cncc(F)c2)[n-]1 (optimized conformer: 59.25069958987507 kcal/mol)

>  <smiles>  (18) 
Cc1ccccc1C(=O)N=c1cncc(Oc2cncc(F)c2)[nH]1

>  <score_type>  (18) 
oracle

>  <origin>  (18) 
adg

>  <m_score__min__energy>  (18) 
-8.1400000000000006

>  <m_primary>  (18) 
energy

$$$$
18:0
     RDKit          3D

 29 30  0  0  0  0  0  0  0  0999 V2000
   58.7000   25.1030   46.5910 N   0  0  0  0  0  0  0  0  0  0  0  0
   58.1590   26.2360   46.2640 C   0  0  0  0  0  0  0  0  0  0  0  0
   58.9760   27.3000   46.0540 N   0  0  0  0  0  0  0  0  0  0  0  0
   58.5170   28.5070   45.6360 C   0  0  0  0  0  0  0  0  0  0  0  0
   59.7070   29.8460   45.4900 S   0  0  0  0  0  0  0  0  0  0  0  0
   59.1830   30.6000   47.0300 C   0  0  0  0  0  0  0  0  0  0  0  0
   59.0810   29.8290   48.1940 C   0  0  0  0  0  0  0  0  0  0  0  0
   58.6770   30.4210   49.3940 C   0  0  0  0  0  0  0  0  0  0  0  0
   58.3690   31.7850   49.4370 C   0  0  0  0  0  0  0  0  0  0  0  0
   57.9690   32.3630   50.6400 O   0  0  0  0  0  0  0  0  0  0  0  0
   58.4660   32.5570   48.2710 C   0  0  0  0  0  0  0  0  0  0  0  0
   58.8700   31.9650   47.0700 C   0  0  0  0  0  0  0  0  0  0  0  0
   57.1380   28.6610   45.3790 C   0  0  0  0  0  0  0  0  0  0  0  0
   56.5230   29.9080   44.8720 C   0  0  0  0  0  0  0  0  0  0  0  0
   55.1540   29.9600   44.4800 N   0  0  0  0  0  0  0  0  0  0  0  0
   57.2120   30.9640   44.8330 O   0  0  0  0  0  0  0  0  0  0  0  0
   56.3170   27.6040   45.6220 N   0  0  0  0  0  0  0  0  0  0  0  0
   56.7650   26.4020   46.0720 C   0  0  0  0  0  0  0  0  0  0  0  0
   55.7550   25.3590   46.3500 C   0  0  0  0  0  0  0  0  0  0  0  0
   54.3980   25.5800   45.9710 N   0  0  0  0  0  0  0  0  0  0  0  0
   56.0560   24.3090   46.9780 O   0  0  0  0  0  0  0  0  0  0  0  0
   58.1890   24.2020   46.7020 H   0  0  0  0  0  0  0  0  0  0  0  0
   59.3192   28.7555   48.1642 H   0  0  0  0  0  0  0  0  0  0  0  0
   58.6010   29.8126   50.3073 H   0  0  0  0  0  0  0  0  0  0  0  0
   57.0240   32.7050   50.7750 H   0  0  0  0  0  0  0  0  0  0  0  0
   58.2241   33.6297   48.3006 H   0  0  0  0  0  0  0  0  0  0  0  0
   58.9421   32.5720   46.1555 H   0  0  0  0  0  0  0  0  0  0  0  0
   54.4290   29.4040   44.9840 H   0  0  0  0  0  0  0  0  0  0  0  0
   54.1450   26.3410   45.3030 H   0  0  0  0  0  0  0  0  0  0  0  0
  1  2  2  3
  2  3  1  0
  3  4  1  0
  4  5  1  0
  5  6  1  0
  6  7  2  0
  7  8  1  0
  8  9  2  0
  9 10  1  0
  9 11  1  0
 11 12  2  0
  4 13  2  0
 13 14  1  0
 14 15  1  0
 14 16  2  0
 13 17  1  0
 17 18  2  0
 18 19  1  0
 19 20  1  0
 19 21  2  0
 18  2  1  0
 12  6  1  0
  1 22  1  0
  7 23  1  0
  8 24  1  0
 10 25  1  0
 11 26  1  0
 12 27  1  0
 15 28  1  0
 20 29  1  0
M  CHG  3   3  -1  15  -1  20  -1
M  END
>  <UniqueID>  (19) 
19

>  <SMILES>  (19) 
N=c1[n-]c(Sc2ccc(O)cc2)c(C([NH-])=O)nc1C([NH-])=O

>  <Energy>  (19) 
35.47427061513022

>  <Genealogy>  (19) 
N=c1[n-]c(Sc2ccc(O)cc2)c(C([NH-])=O)nc1C([NH-])=O (protonated)
N=c1[n-]c(Sc2ccc(O)cc2)c(C([NH-])=O)nc1C([NH-])=O (3D coordinates assigned)
N=c1[n-]c(Sc2ccc(O)cc2)c(C([NH-])=O)nc1C([NH-])=O (optimized conformer: 35.47427061513022 kcal/mol)

>  <smiles>  (19) 
N=c1[nH]c(Sc2ccc(O)cc2)c(C(N)=O)nc1C(N)=O

>  <score_type>  (19) 
oracle

>  <origin>  (19) 
adg

>  <m_score__min__energy>  (19) 
-13.279999999999999

>  <m_primary>  (19) 
energy

$$$$
19:0
     RDKit          3D

 62 65  0  0  0  0  0  0  0  0999 V2000
   60.5260   27.0320   47.2560 C   0  0  0  0  0  0  0  0  0  0  0  0
   59.8580   28.3660   47.0490 C   0  0  0  0  0  0  0  0  0  0  0  0
   60.3850   29.4890   47.7110 C   0  0  0  0  0  0  0  0  0  0  0  0
   59.8400   30.7570   47.5100 C   0  0  0  0  0  0  0  0  0  0  0  0
   58.7630   30.9330   46.6370 C   0  0  0  0  0  0  0  0  0  0  0  0
   58.0910   32.5450   46.3630 S   0  0  0  0  0  0  0  0  0  0  0  0
   57.0330   32.4730   45.2960 O   0  0  0  0  0  0  0  0  0  0  0  0
   57.4310   33.0050   47.6330 O   0  0  0  0  0  0  0  0  0  0  0  0
   59.2970   33.7230   45.8900 N   0  0  0  0  0  0  0  0  0  0  0  0
   58.7980   34.6430   44.8620 C   0  0  0  0  0  0  0  0  0  0  0  0
   59.9630   34.3880   47.0300 C   0  0  0  0  0  0  0  0  0  0  0  0
   61.3380   33.8600   47.3570 C   0  0  0  0  0  0  0  0  0  0  0  0
   62.4140   33.8100   46.4730 C   0  0  0  0  0  0  0  0  0  0  0  0
   63.6080   33.3840   47.0710 C   0  0  0  0  0  0  0  0  0  0  0  0
   63.4900   33.1260   48.4300 C   0  0  0  0  0  0  0  0  0  0  0  0
   61.9030   33.4390   48.8880 S   0  0  0  0  0  0  0  0  0  0  0  0
   58.1920   29.8150   46.0180 C   0  0  0  0  0  0  0  0  0  0  0  0
   58.7240   28.5260   46.2090 C   0  0  0  0  0  0  0  0  0  0  0  0
   58.0720   27.3930   45.5050 C   0  0  0  0  0  0  0  0  0  0  0  0
   57.9890   27.4140   44.2460 O   0  0  0  0  0  0  0  0  0  0  0  0
   57.5360   26.2840   46.2370 N   0  0  0  0  0  0  0  0  0  0  0  0
   56.6710   25.2670   45.7080 C   0  0  0  0  0  0  0  0  0  0  0  0
   57.1810   24.0580   45.2040 C   0  0  0  0  0  0  0  0  0  0  0  0
   56.3200   23.0870   44.6780 C   0  0  0  0  0  0  0  0  0  0  0  0
   56.9820   21.5630   44.0880 S   0  0  0  0  0  0  0  0  0  0  0  0
   58.4300   21.7700   43.7460 O   0  0  0  0  0  0  0  0  0  0  0  0
   56.2520   21.1300   42.8460 O   0  0  0  0  0  0  0  0  0  0  0  0
   56.8410   20.3350   45.3250 N   0  0  0  0  0  0  0  0  0  0  0  0
   57.9450   20.4690   46.2960 C   0  0  0  0  0  0  0  0  0  0  0  0
   57.5930   19.7690   47.6170 C   0  0  0  0  0  0  0  0  0  0  0  0
   56.4170   20.2620   48.2490 O   0  0  0  0  0  0  0  0  0  0  0  0
   55.5490   20.9690   47.3770 C   0  0  0  0  0  0  0  0  0  0  0  0
   55.5040   20.3700   45.9590 C   0  0  0  0  0  0  0  0  0  0  0  0
   54.9400   23.3280   44.6490 C   0  0  0  0  0  0  0  0  0  0  0  0
   54.4290   24.5390   45.1230 C   0  0  0  0  0  0  0  0  0  0  0  0
   55.2910   25.5100   45.6430 C   0  0  0  0  0  0  0  0  0  0  0  0
   54.7690   26.7130   46.1060 O   0  0  0  0  0  0  0  0  0  0  0  0
   60.6248   26.8347   48.3336 H   0  0  0  0  0  0  0  0  0  0  0  0
   59.9174   26.2414   46.7928 H   0  0  0  0  0  0  0  0  0  0  0  0
   61.5236   27.0457   46.7928 H   0  0  0  0  0  0  0  0  0  0  0  0
   61.2372   29.3660   48.3955 H   0  0  0  0  0  0  0  0  0  0  0  0
   60.2603   31.6234   48.0416 H   0  0  0  0  0  0  0  0  0  0  0  0
   58.3268   35.5118   45.3450 H   0  0  0  0  0  0  0  0  0  0  0  0
   59.6360   34.9818   44.2351 H   0  0  0  0  0  0  0  0  0  0  0  0
   58.0570   34.1253   44.2351 H   0  0  0  0  0  0  0  0  0  0  0  0
   60.0548   35.4587   46.7952 H   0  0  0  0  0  0  0  0  0  0  0  0
   59.3374   34.1885   47.9125 H   0  0  0  0  0  0  0  0  0  0  0  0
   62.3341   34.0787   45.4093 H   0  0  0  0  0  0  0  0  0  0  0  0
   64.5501   33.2653   46.5156 H   0  0  0  0  0  0  0  0  0  0  0  0
   64.2957   32.7771   49.0926 H   0  0  0  0  0  0  0  0  0  0  0  0
   57.3121   29.9461   45.3710 H   0  0  0  0  0  0  0  0  0  0  0  0
   58.2652   23.8732   45.2229 H   0  0  0  0  0  0  0  0  0  0  0  0
   58.8531   20.0120   45.8758 H   0  0  0  0  0  0  0  0  0  0  0  0
   58.1132   21.5376   46.4955 H   0  0  0  0  0  0  0  0  0  0  0  0
   57.4496   18.6980   47.4111 H   0  0  0  0  0  0  0  0  0  0  0  0
   58.4262   19.9654   48.3078 H   0  0  0  0  0  0  0  0  0  0  0  0
   54.5335   20.9473   47.7993 H   0  0  0  0  0  0  0  0  0  0  0  0
   55.9346   21.9955   47.2891 H   0  0  0  0  0  0  0  0  0  0  0  0
   55.1138   19.3434   46.0202 H   0  0  0  0  0  0  0  0  0  0  0  0
   54.8542   21.0087   45.3427 H   0  0  0  0  0  0  0  0  0  0  0  0
   54.2574   22.5621   44.2522 H   0  0  0  0  0  0  0  0  0  0  0  0
   53.3462   24.7292   45.0871 H   0  0  0  0  0  0  0  0  0  0  0  0
  1  2  1  0
  2  3  2  0
  3  4  1  0
  4  5  2  0
  5  6  1  0
  6  7  2  0
  6  8  2  0
  6  9  1  0
  9 10  1  0
  9 11  1  0
 11 12  1  0
 12 13  2  0
 13 14  1  0
 14 15  2  0
 15 16  1  0
  5 17  1  0
 17 18  2  0
 18 19  1  0
 19 20  2  0
 19 21  1  0
 21 22  1  0
 22 23  2  0
 23 24  1  0
 24 25  1  0
 25 26  2  0
 25 27  2  0
 25 28  1  0
 28 29  1  0
 29 30  1  0
 30 31  1  0
 31 32  1  0
 32 33  1  0
 24 34  2  0
 34 35  1  0
 35 36  2  0
 36 37  1  0
 18  2  1  0
 36 22  1  0
 16 12  1  0
 33 28  1  0
  1 38  1  0
  1 39  1  0
  1 40  1  0
  3 41  1  0
  4 42  1  0
 10 43  1  0
 10 44  1  0
 10 45  1  0
 11 46  1  0
 11 47  1  0
 13 48  1  0
 14 49  1  0
 15 50  1  0
 17 51  1  0
 23 52  1  0
 29 53  1  0
 29 54  1  0
 30 55  1  0
 30 56  1  0
 32 57  1  0
 32 58  1  0
 33 59  1  0
 33 60  1  0
 34 61  1  0
 35 62  1  0
M  CHG  2  21  -1  37  -1
M  END
>  <UniqueID>  (20) 
20

>  <SMILES>  (20) 
Cc1ccc(S(=O)(=O)N(C)Cc2cccs2)cc1C(=O)[N-]c1cc(S(=O)(=O)N2CCOCC2)ccc1[O-]

>  <Energy>  (20) 
112.072335982505

>  <Genealogy>  (20) 
Cc1ccc(S(=O)(=O)N(C)Cc2cccs2)cc1C(=O)[N-]c1cc(S(=O)(=O)N2CCOCC2)ccc1[O-] (protonated)
Cc1ccc(S(=O)(=O)N(C)Cc2cccs2)cc1C(=O)[N-]c1cc(S(=O)(=O)N2CCOCC2)ccc1[O-] (3D coordinates assigned)
Cc1ccc(S(=O)(=O)N(C)Cc2cccs2)cc1C(=O)[N-]c1cc(S(=O)(=O)N2CCOCC2)ccc1[O-] (nonaromatic ring conformer: 112.072335982505 kcal/mol)

>  <smiles>  (20) 
Cc1ccc(S(=O)(=O)N(C)Cc2cccs2)cc1C(=O)Nc1cc(S(=O)(=O)N2CCOCC2)ccc1O

>  <score_type>  (20) 
oracle

>  <origin>  (20) 
adg

>  <m_score__min__energy>  (20) 
-15.74

>  <m_primary>  (20) 
energy

$$$$
20:0
     RDKit          3D

 54 56  0  0  0  0  0  0  0  0999 V2000
   57.4490   23.0540   44.1500 C   0  0  0  0  0  0  0  0  0  0  0  0
   58.3700   22.8010   45.6610 S   0  0  0  0  0  0  0  0  0  0  0  0
   59.8190   22.5730   45.3200 O   0  0  0  0  0  0  0  0  0  0  0  0
   57.8500   21.5950   46.4010 O   0  0  0  0  0  0  0  0  0  0  0  0
   58.2550   24.2030   46.6810 N   0  0  0  0  0  0  0  0  0  0  0  0
   57.6020   25.4320   46.3320 C   0  0  0  0  0  0  0  0  0  0  0  0
   58.3160   26.5640   45.9080 C   0  0  0  0  0  0  0  0  0  0  0  0
   57.6420   27.7440   45.5770 C   0  0  0  0  0  0  0  0  0  0  0  0
   58.4340   28.9170   45.1630 C   0  0  0  0  0  0  0  0  0  0  0  0
   58.8680   29.8890   46.0020 C   0  0  0  0  0  0  0  0  0  0  0  0
   59.7960   29.6360   47.1890 C   0  0  0  0  0  0  0  0  0  0  0  0
   59.1370   28.9760   48.4200 C   0  0  0  0  0  0  0  0  0  0  0  0
   59.1010   29.8110   49.6670 C   0  0  0  0  0  0  0  0  0  0  0  0
   58.1400   29.7350   50.4830 O   0  0  0  0  0  0  0  0  0  0  0  0
   60.1510   30.7540   49.8940 N   0  0  0  0  0  0  0  0  0  0  0  0
   60.0900   32.1480   49.4550 C   0  0  0  0  0  0  0  0  0  0  0  0
   61.2560   32.4940   48.5550 C   0  0  0  0  0  0  0  0  0  0  0  0
   61.1370   33.5180   47.5930 C   0  0  0  0  0  0  0  0  0  0  0  0
   62.1940   33.8020   46.7080 C   0  0  0  0  0  0  0  0  0  0  0  0
   63.3800   33.0770   46.7830 C   0  0  0  0  0  0  0  0  0  0  0  0
   63.5130   32.0630   47.7480 C   0  0  0  0  0  0  0  0  0  0  0  0
   62.4560   31.7730   48.6290 C   0  0  0  0  0  0  0  0  0  0  0  0
   58.4070   31.2790   45.7670 C   0  0  0  0  0  0  0  0  0  0  0  0
   58.1430   32.1400   46.8500 C   0  0  0  0  0  0  0  0  0  0  0  0
   57.6220   33.4100   46.6260 C   0  0  0  0  0  0  0  0  0  0  0  0
   57.3880   33.8430   45.3220 C   0  0  0  0  0  0  0  0  0  0  0  0
   57.6830   33.0140   44.2370 C   0  0  0  0  0  0  0  0  0  0  0  0
   58.1770   31.7300   44.4570 C   0  0  0  0  0  0  0  0  0  0  0  0
   56.2400   27.7560   45.6150 C   0  0  0  0  0  0  0  0  0  0  0  0
   55.5270   28.8730   45.2000 O   0  0  0  0  0  0  0  0  0  0  0  0
   55.5650   26.6540   46.0400 N   0  0  0  0  0  0  0  0  0  0  0  0
   56.2040   25.5120   46.4070 C   0  0  0  0  0  0  0  0  0  0  0  0
   55.5300   24.5210   46.7980 O   0  0  0  0  0  0  0  0  0  0  0  0
   56.4148   23.3381   44.3942 H   0  0  0  0  0  0  0  0  0  0  0  0
   57.9207   23.8559   43.5630 H   0  0  0  0  0  0  0  0  0  0  0  0
   57.4448   22.1237   43.5630 H   0  0  0  0  0  0  0  0  0  0  0  0
   59.4128   26.5226   45.8356 H   0  0  0  0  0  0  0  0  0  0  0  0
   58.6908   29.0097   44.0974 H   0  0  0  0  0  0  0  0  0  0  0  0
   60.6106   28.9800   46.8484 H   0  0  0  0  0  0  0  0  0  0  0  0
   60.1352   30.6275   47.5236 H   0  0  0  0  0  0  0  0  0  0  0  0
   58.1003   28.7230   48.1530 H   0  0  0  0  0  0  0  0  0  0  0  0
   59.7618   28.1036   48.6621 H   0  0  0  0  0  0  0  0  0  0  0  0
   59.1519   32.3090   48.9035 H   0  0  0  0  0  0  0  0  0  0  0  0
   60.1352   32.7937   50.3444 H   0  0  0  0  0  0  0  0  0  0  0  0
   60.2068   34.1020   47.5334 H   0  0  0  0  0  0  0  0  0  0  0  0
   62.0828   34.5975   45.9565 H   0  0  0  0  0  0  0  0  0  0  0  0
   64.2075   33.2959   46.0921 H   0  0  0  0  0  0  0  0  0  0  0  0
   64.4510   31.4922   47.8143 H   0  0  0  0  0  0  0  0  0  0  0  0
   62.5713   30.9770   49.3794 H   0  0  0  0  0  0  0  0  0  0  0  0
   58.3498   31.8065   47.8776 H   0  0  0  0  0  0  0  0  0  0  0  0
   57.3953   34.0709   47.4756 H   0  0  0  0  0  0  0  0  0  0  0  0
   56.9682   34.8444   45.1460 H   0  0  0  0  0  0  0  0  0  0  0  0
   57.5254   33.3747   43.2098 H   0  0  0  0  0  0  0  0  0  0  0  0
   58.3872   31.0686   43.6035 H   0  0  0  0  0  0  0  0  0  0  0  0
  1  2  1  0
  2  3  2  0
  2  4  2  0
  2  5  1  0
  5  6  1  0
  6  7  2  0
  7  8  1  0
  8  9  1  0
  9 10  2  3
 10 11  1  0
 11 12  1  0
 12 13  1  0
 13 14  2  0
 13 15  1  0
 15 16  1  0
 16 17  1  0
 17 18  2  0
 18 19  1  0
 19 20  2  0
 20 21  1  0
 21 22  2  0
 10 23  1  0
 23 24  2  0
 24 25  1  0
 25 26  2  0
 26 27  1  0
 27 28  2  0
  8 29  2  0
 29 30  1  0
 29 31  1  0
 31 32  1  0
 32 33  2  0
 32  6  1  0
 22 17  1  0
 28 23  1  0
  1 34  1  0
  1 35  1  0
  1 36  1  0
  7 37  1  0
  9 38  1  0
 11 39  1  0
 11 40  1  0
 12 41  1  0
 12 42  1  0
 16 43  1  0
 16 44  1  0
 18 45  1  0
 19 46  1  0
 20 47  1  0
 21 48  1  0
 22 49  1  0
 24 50  1  0
 25 51  1  0
 26 52  1  0
 27 53  1  0
 28 54  1  0
M  CHG  4   5  -1  15  -1  30  -1  31  -1
M  END
>  <UniqueID>  (21) 
21

>  <SMILES>  (21) 
CS(=O)(=O)[N-]c1cc(C=C(CCC(=O)[N-]Cc2ccccc2)c2ccccc2)c([O-])[n-]c1=O

>  <Energy>  (21) 
68.30351088928255

>  <Genealogy>  (21) 
CS(=O)(=O)[N-]c1cc(C=C(CCC(=O)[N-]Cc2ccccc2)c2ccccc2)c([O-])[n-]c1=O (protonated)
CS(=O)(=O)[N-]c1cc(C=C(CCC(=O)[N-]Cc2ccccc2)c2ccccc2)c([O-])[n-]c1=O (3D coordinates assigned)
CS(=O)(=O)[N-]c1cc(C=C(CCC(=O)[N-]Cc2ccccc2)c2ccccc2)c([O-])[n-]c1=O (optimized conformer: 68.30351088928255 kcal/mol)

>  <smiles>  (21) 
CS(=O)(=O)Nc1cc(C=C(CCC(=O)NCc2ccccc2)c2ccccc2)c(O)[nH]c1=O

>  <score_type>  (21) 
oracle

>  <origin>  (21) 
adg

>  <m_score__min__energy>  (21) 
-18.739999999999998

>  <m_primary>  (21) 
energy

$$$$
21:0
     RDKit          3D

 37 39  0  0  0  0  0  0  0  0999 V2000
   58.1680   26.3610   44.6660 O   0  0  0  0  0  0  0  0  0  0  0  0
   57.3380   27.1090   45.2500 C   0  0  0  0  0  0  0  0  0  0  0  0
   56.2150   26.5430   45.9490 N   0  0  0  0  0  0  0  0  0  0  0  0
   55.9810   25.1300   46.0800 C   0  0  0  0  0  0  0  0  0  0  0  0
   55.0240   24.4730   45.2840 C   0  0  0  0  0  0  0  0  0  0  0  0
   54.8320   23.0930   45.4080 C   0  0  0  0  0  0  0  0  0  0  0  0
   55.5980   22.3570   46.3140 C   0  0  0  0  0  0  0  0  0  0  0  0
   56.5670   22.9970   47.0910 C   0  0  0  0  0  0  0  0  0  0  0  0
   56.7650   24.3770   46.9710 C   0  0  0  0  0  0  0  0  0  0  0  0
   57.7080   24.9830   47.7350 F   0  0  0  0  0  0  0  0  0  0  0  0
   57.5330   28.5760   45.2000 C   0  0  0  0  0  0  0  0  0  0  0  0
   56.4440   29.4560   45.0590 C   0  0  0  0  0  0  0  0  0  0  0  0
   55.1470   28.9750   44.9270 O   0  0  0  0  0  0  0  0  0  0  0  0
   56.6560   30.7970   45.0190 N   0  0  0  0  0  0  0  0  0  0  0  0
   57.9080   31.3160   45.1100 C   0  0  0  0  0  0  0  0  0  0  0  0
   58.1140   32.7940   45.0190 C   0  0  0  0  0  0  0  0  0  0  0  0
   59.0500   33.2520   46.1040 C   0  0  0  0  0  0  0  0  0  0  0  0
   60.3010   33.8000   45.7770 C   0  0  0  0  0  0  0  0  0  0  0  0
   61.1840   34.1920   46.7890 C   0  0  0  0  0  0  0  0  0  0  0  0
   60.8290   34.0300   48.1320 C   0  0  0  0  0  0  0  0  0  0  0  0
   61.9400   34.5190   49.3980 Cl  0  0  0  0  0  0  0  0  0  0  0  0
   59.5910   33.4710   48.4630 C   0  0  0  0  0  0  0  0  0  0  0  0
   58.7050   33.0780   47.4550 C   0  0  0  0  0  0  0  0  0  0  0  0
   58.9780   30.4860   45.2140 N   0  0  0  0  0  0  0  0  0  0  0  0
   58.8210   29.1380   45.2610 C   0  0  0  0  0  0  0  0  0  0  0  0
   59.8390   28.4040   45.3740 O   0  0  0  0  0  0  0  0  0  0  0  0
   55.4990   27.1890   46.3500 H   0  0  0  0  0  0  0  0  0  0  0  0
   54.4249   25.0469   44.5617 H   0  0  0  0  0  0  0  0  0  0  0  0
   54.0758   22.5865   44.7903 H   0  0  0  0  0  0  0  0  0  0  0  0
   55.4387   21.2734   46.4161 H   0  0  0  0  0  0  0  0  0  0  0  0
   57.1755   22.4147   47.7986 H   0  0  0  0  0  0  0  0  0  0  0  0
   58.5451   33.0418   44.0378 H   0  0  0  0  0  0  0  0  0  0  0  0
   57.1455   33.3012   45.1405 H   0  0  0  0  0  0  0  0  0  0  0  0
   60.5875   33.9214   44.7219 H   0  0  0  0  0  0  0  0  0  0  0  0
   62.1593   34.6285   46.5278 H   0  0  0  0  0  0  0  0  0  0  0  0
   59.3131   33.3400   49.5192 H   0  0  0  0  0  0  0  0  0  0  0  0
   57.7354   32.6314   47.7204 H   0  0  0  0  0  0  0  0  0  0  0  0
  1  2  2  0
  2  3  1  0
  3  4  1  0
  4  5  2  0
  5  6  1  0
  6  7  2  0
  7  8  1  0
  8  9  2  0
  9 10  1  0
  2 11  1  0
 11 12  2  0
 12 13  1  0
 12 14  1  0
 14 15  1  0
 15 16  1  0
 16 17  1  0
 17 18  2  0
 18 19  1  0
 19 20  2  0
 20 21  1  0
 20 22  1  0
 22 23  2  0
 15 24  2  0
 24 25  1  0
 25 26  2  0
  9  4  1  0
 25 11  1  0
 23 17  1  0
  3 27  1  0
  5 28  1  0
  6 29  1  0
  7 30  1  0
  8 31  1  0
 16 32  1  0
 16 33  1  0
 18 34  1  0
 19 35  1  0
 22 36  1  0
 23 37  1  0
M  CHG  2  13  -1  14  -1
M  END
>  <UniqueID>  (22) 
22

>  <SMILES>  (22) 
O=C(Nc1ccccc1F)c1c([O-])[n-]c(Cc2ccc(Cl)cc2)nc1=O

>  <Energy>  (22) 
49.40930975551741

>  <Genealogy>  (22) 
O=C(Nc1ccccc1F)c1c([O-])[n-]c(Cc2ccc(Cl)cc2)nc1=O (protonated)
O=C(Nc1ccccc1F)c1c([O-])[n-]c(Cc2ccc(Cl)cc2)nc1=O (3D coordinates assigned)
O=C(Nc1ccccc1F)c1c([O-])[n-]c(Cc2ccc(Cl)cc2)nc1=O (optimized conformer: 49.40930975551741 kcal/mol)

>  <smiles>  (22) 
O=C(Nc1ccccc1F)c1c(O)[nH]c(Cc2ccc(Cl)cc2)nc1=O

>  <score_type>  (22) 
oracle

>  <origin>  (22) 
adg

>  <m_score__min__energy>  (22) 
-13.130000000000001

>  <m_primary>  (22) 
energy

$$$$
22:0
     RDKit          3D

 54 56  0  0  0  0  0  0  0  0999 V2000
   55.9410   30.1690   44.4770 O   0  0  0  0  0  0  0  0  0  0  0  0
   56.9970   30.7920   44.7800 C   0  0  0  0  0  0  0  0  0  0  0  0
   57.4060   32.0320   44.0310 C   0  0  0  0  0  0  0  0  0  0  0  0
   57.2210   33.3460   44.8170 C   0  0  0  0  0  0  0  0  0  0  0  0
   58.3500   33.5770   45.7900 C   0  0  0  0  0  0  0  0  0  0  0  0
   59.6110   33.9790   45.3210 C   0  0  0  0  0  0  0  0  0  0  0  0
   60.6610   34.1960   46.2160 C   0  0  0  0  0  0  0  0  0  0  0  0
   60.4760   34.0240   47.5920 C   0  0  0  0  0  0  0  0  0  0  0  0
   61.5720   34.2620   48.4400 O   0  0  0  0  0  0  0  0  0  0  0  0
   62.8870   33.8050   48.2540 C   0  0  0  0  0  0  0  0  0  0  0  0
   63.3640   33.6770   47.0940 O   0  0  0  0  0  0  0  0  0  0  0  0
   63.7330   33.5290   49.4360 C   0  0  0  0  0  0  0  0  0  0  0  0
   64.8170   32.6350   49.3420 C   0  0  0  0  0  0  0  0  0  0  0  0
   65.6070   32.3600   50.4620 C   0  0  0  0  0  0  0  0  0  0  0  0
   65.3250   32.9750   51.6850 C   0  0  0  0  0  0  0  0  0  0  0  0
   64.2560   33.8670   51.7870 C   0  0  0  0  0  0  0  0  0  0  0  0
   63.4620   34.1430   50.6700 C   0  0  0  0  0  0  0  0  0  0  0  0
   59.2000   33.6620   48.0680 C   0  0  0  0  0  0  0  0  0  0  0  0
   58.1510   33.4300   47.1710 C   0  0  0  0  0  0  0  0  0  0  0  0
   57.8530   30.3260   45.8350 N   0  0  0  0  0  0  0  0  0  0  0  0
   59.1460   30.4710   45.9440 C   0  0  0  0  0  0  0  0  0  0  0  0
   59.9880   29.7220   46.9510 C   0  0  0  0  0  0  0  0  0  0  0  0
   60.2520   28.2730   46.5200 C   0  0  0  0  0  0  0  0  0  0  0  0
   59.6110   27.2520   47.4760 C   0  0  0  0  0  0  0  0  0  0  0  0
   58.5570   26.4530   46.7650 C   0  0  0  0  0  0  0  0  0  0  0  0
   58.8760   25.2410   46.1400 C   0  0  0  0  0  0  0  0  0  0  0  0
   57.8730   24.5550   45.4530 C   0  0  0  0  0  0  0  0  0  0  0  0
   58.1330   23.4640   44.8760 O   0  0  0  0  0  0  0  0  0  0  0  0
   56.6130   25.0680   45.4030 N   0  0  0  0  0  0  0  0  0  0  0  0
   56.3190   26.2460   46.0220 C   0  0  0  0  0  0  0  0  0  0  0  0
   55.1480   26.7090   45.9780 O   0  0  0  0  0  0  0  0  0  0  0  0
   57.2860   26.9290   46.6900 N   0  0  0  0  0  0  0  0  0  0  0  0
   58.4693   31.9376   43.7655 H   0  0  0  0  0  0  0  0  0  0  0  0
   56.7467   32.0980   43.1529 H   0  0  0  0  0  0  0  0  0  0  0  0
   57.1856   34.1847   44.1062 H   0  0  0  0  0  0  0  0  0  0  0  0
   56.2842   33.2747   45.3891 H   0  0  0  0  0  0  0  0  0  0  0  0
   59.7728   34.1238   44.2426 H   0  0  0  0  0  0  0  0  0  0  0  0
   61.6451   34.5058   45.8345 H   0  0  0  0  0  0  0  0  0  0  0  0
   65.0435   32.1499   48.3811 H   0  0  0  0  0  0  0  0  0  0  0  0
   66.4510   31.6592   50.3808 H   0  0  0  0  0  0  0  0  0  0  0  0
   65.9451   32.7562   52.5668 H   0  0  0  0  0  0  0  0  0  0  0  0
   64.0378   34.3540   52.7489 H   0  0  0  0  0  0  0  0  0  0  0  0
   62.6199   34.8453   50.7579 H   0  0  0  0  0  0  0  0  0  0  0  0
   59.0276   33.5613   49.1497 H   0  0  0  0  0  0  0  0  0  0  0  0
   57.1634   33.1302   47.5515 H   0  0  0  0  0  0  0  0  0  0  0  0
   59.6496   31.1762   45.2665 H   0  0  0  0  0  0  0  0  0  0  0  0
   60.9520   30.2400   47.0624 H   0  0  0  0  0  0  0  0  0  0  0  0
   59.4357   29.6969   47.9020 H   0  0  0  0  0  0  0  0  0  0  0  0
   59.8371   28.1227   45.5124 H   0  0  0  0  0  0  0  0  0  0  0  0
   61.3399   28.1108   46.5355 H   0  0  0  0  0  0  0  0  0  0  0  0
   60.3886   26.5711   47.8523 H   0  0  0  0  0  0  0  0  0  0  0  0
   59.1430   27.7931   48.3115 H   0  0  0  0  0  0  0  0  0  0  0  0
   59.8980   24.8371   46.1895 H   0  0  0  0  0  0  0  0  0  0  0  0
   55.8640   24.5490   44.8900 H   0  0  0  0  0  0  0  0  0  0  0  0
  1  2  2  0
  2  3  1  0
  3  4  1  0
  4  5  1  0
  5  6  2  0
  6  7  1  0
  7  8  2  0
  8  9  1  0
  9 10  1  0
 10 11  2  0
 10 12  1  0
 12 13  2  0
 13 14  1  0
 14 15  2  0
 15 16  1  0
 16 17  2  0
  8 18  1  0
 18 19  2  0
  2 20  1  0
 20 21  2  3
 21 22  1  0
 22 23  1  0
 23 24  1  0
 24 25  1  0
 25 26  2  0
 26 27  1  0
 27 28  2  0
 27 29  1  0
 29 30  1  0
 30 31  2  0
 30 32  1  0
 19  5  1  0
 32 25  1  0
 17 12  1  0
  3 33  1  0
  3 34  1  0
  4 35  1  0
  4 36  1  0
  6 37  1  0
  7 38  1  0
 13 39  1  0
 14 40  1  0
 15 41  1  0
 16 42  1  0
 17 43  1  0
 18 44  1  0
 19 45  1  0
 21 46  1  0
 22 47  1  0
 22 48  1  0
 23 49  1  0
 23 50  1  0
 24 51  1  0
 24 52  1  0
 26 53  1  0
 29 54  1  0
M  CHG  1  32  -1
M  END
>  <UniqueID>  (23) 
23

>  <SMILES>  (23) 
O=C(CCc1ccc(OC(=O)c2ccccc2)cc1)N=CCCCc1cc(=O)[nH]c(=O)[n-]1

>  <Energy>  (23) 
61.24988320179841

>  <Genealogy>  (23) 
O=C(CCc1ccc(OC(=O)c2ccccc2)cc1)N=CCCCc1cc(=O)[nH]c(=O)[n-]1 (protonated)
O=C(CCc1ccc(OC(=O)c2ccccc2)cc1)N=CCCCc1cc(=O)[nH]c(=O)[n-]1 (3D coordinates assigned)
O=C(CCc1ccc(OC(=O)c2ccccc2)cc1)N=CCCCc1cc(=O)[nH]c(=O)[n-]1 (optimized conformer: 61.24988320179841 kcal/mol)

>  <smiles>  (23) 
O=C(CCc1ccc(OC(=O)c2ccccc2)cc1)N=CCCCc1cc(=O)[nH]c(=O)[nH]1

>  <score_type>  (23) 
oracle

>  <origin>  (23) 
adg

>  <m_score__min__energy>  (23) 
-11.529999999999999

>  <m_primary>  (23) 
energy

$$$$
23:0
     RDKit          3D

 52 55  0  0  0  0  0  0  0  0999 V2000
   57.7690   30.4640   50.3380 O   0  0  0  0  0  0  0  0  0  0  0  0
   58.7030   30.3230   49.5030 C   0  0  0  0  0  0  0  0  0  0  0  0
   59.1130   31.4320   48.6890 N   0  0  0  0  0  0  0  0  0  0  0  0
   58.4200   32.7170   48.7090 C   0  0  0  0  0  0  0  0  0  0  0  0
   58.5260   33.3840   47.3660 C   0  0  0  0  0  0  0  0  0  0  0  0
   57.7100   32.9760   46.2970 C   0  0  0  0  0  0  0  0  0  0  0  0
   57.8330   33.5860   45.0450 C   0  0  0  0  0  0  0  0  0  0  0  0
   58.7720   34.6030   44.8500 C   0  0  0  0  0  0  0  0  0  0  0  0
   59.5910   35.0100   45.9070 C   0  0  0  0  0  0  0  0  0  0  0  0
   59.4710   34.4030   47.1600 C   0  0  0  0  0  0  0  0  0  0  0  0
   59.3770   29.0120   49.3720 C   0  0  0  0  0  0  0  0  0  0  0  0
   60.1080   28.5210   50.4690 C   0  0  0  0  0  0  0  0  0  0  0  0
   60.8340   27.3330   50.3650 C   0  0  0  0  0  0  0  0  0  0  0  0
   60.8500   26.6250   49.1640 C   0  0  0  0  0  0  0  0  0  0  0  0
   60.1210   27.0910   48.0680 C   0  0  0  0  0  0  0  0  0  0  0  0
   59.3550   28.2650   48.1640 C   0  0  0  0  0  0  0  0  0  0  0  0
   58.5400   28.6450   46.9840 C   0  0  0  0  0  0  0  0  0  0  0  0
   58.2500   27.8380   45.9500 C   0  0  0  0  0  0  0  0  0  0  0  0
   57.2170   26.7730   45.9620 C   0  0  0  0  0  0  0  0  0  0  0  0
   55.8950   27.0950   45.6370 C   0  0  0  0  0  0  0  0  0  0  0  0
   55.5490   28.3900   45.2690 O   0  0  0  0  0  0  0  0  0  0  0  0
   54.9310   26.1460   45.7020 N   0  0  0  0  0  0  0  0  0  0  0  0
   55.2140   24.8720   46.0710 C   0  0  0  0  0  0  0  0  0  0  0  0
   54.2770   24.0290   46.1280 O   0  0  0  0  0  0  0  0  0  0  0  0
   56.5020   24.5080   46.3620 N   0  0  0  0  0  0  0  0  0  0  0  0
   56.7940   23.1560   46.7690 C   0  0  0  0  0  0  0  0  0  0  0  0
   56.4330   22.7080   48.0500 C   0  0  0  0  0  0  0  0  0  0  0  0
   56.7080   21.3930   48.4370 C   0  0  0  0  0  0  0  0  0  0  0  0
   57.3430   20.5190   47.5480 C   0  0  0  0  0  0  0  0  0  0  0  0
   57.7040   20.9600   46.2710 C   0  0  0  0  0  0  0  0  0  0  0  0
   57.4310   22.2750   45.8810 C   0  0  0  0  0  0  0  0  0  0  0  0
   57.5100   25.4330   46.2810 C   0  0  0  0  0  0  0  0  0  0  0  0
   58.7070   25.0840   46.4860 O   0  0  0  0  0  0  0  0  0  0  0  0
   59.9700   31.3420   48.0960 H   0  0  0  0  0  0  0  0  0  0  0  0
   57.3594   32.5543   48.9514 H   0  0  0  0  0  0  0  0  0  0  0  0
   58.8836   33.3634   49.4688 H   0  0  0  0  0  0  0  0  0  0  0  0
   56.9720   32.1740   46.4458 H   0  0  0  0  0  0  0  0  0  0  0  0
   57.1899   33.2652   44.2122 H   0  0  0  0  0  0  0  0  0  0  0  0
   58.8664   35.0830   43.8647 H   0  0  0  0  0  0  0  0  0  0  0  0
   60.3309   35.8091   45.7524 H   0  0  0  0  0  0  0  0  0  0  0  0
   60.1192   34.7244   47.9886 H   0  0  0  0  0  0  0  0  0  0  0  0
   60.1076   29.0782   51.4175 H   0  0  0  0  0  0  0  0  0  0  0  0
   61.3946   26.9547   51.2325 H   0  0  0  0  0  0  0  0  0  0  0  0
   61.4373   25.6987   49.0798 H   0  0  0  0  0  0  0  0  0  0  0  0
   60.1467   26.5335   47.1201 H   0  0  0  0  0  0  0  0  0  0  0  0
   58.1412   29.6697   46.9533 H   0  0  0  0  0  0  0  0  0  0  0  0
   58.8233   27.9777   45.0217 H   0  0  0  0  0  0  0  0  0  0  0  0
   55.9328   23.3931   48.7504 H   0  0  0  0  0  0  0  0  0  0  0  0
   56.4248   21.0452   49.4414 H   0  0  0  0  0  0  0  0  0  0  0  0
   57.5584   19.4845   47.8537 H   0  0  0  0  0  0  0  0  0  0  0  0
   58.2031   20.2720   45.5727 H   0  0  0  0  0  0  0  0  0  0  0  0
   57.7161   22.6197   44.8761 H   0  0  0  0  0  0  0  0  0  0  0  0
  1  2  2  0
  2  3  1  0
  3  4  1  0
  4  5  1  0
  5  6  2  0
  6  7  1  0
  7  8  2  0
  8  9  1  0
  9 10  2  0
  2 11  1  0
 11 12  2  0
 12 13  1  0
 13 14  2  0
 14 15  1  0
 15 16  2  0
 16 17  1  0
 17 18  2  3
 18 19  1  0
 19 20  2  0
 20 21  1  0
 20 22  1  0
 22 23  1  0
 23 24  2  0
 23 25  1  0
 25 26  1  0
 26 27  2  0
 27 28  1  0
 28 29  2  0
 29 30  1  0
 30 31  2  0
 25 32  1  0
 32 33  2  0
 10  5  1  0
 16 11  1  0
 32 19  1  0
 31 26  1  0
  3 34  1  0
  4 35  1  0
  4 36  1  0
  6 37  1  0
  7 38  1  0
  8 39  1  0
  9 40  1  0
 10 41  1  0
 12 42  1  0
 13 43  1  0
 14 44  1  0
 15 45  1  0
 17 46  1  0
 18 47  1  0
 27 48  1  0
 28 49  1  0
 29 50  1  0
 30 51  1  0
 31 52  1  0
M  CHG  2  21  -1  22  -1
M  END
>  <UniqueID>  (24) 
24

>  <SMILES>  (24) 
O=C(NCc1ccccc1)c1ccccc1C=Cc1c([O-])[n-]c(=O)n(-c2ccccc2)c1=O

>  <Energy>  (24) 
80.39745945367004

>  <Genealogy>  (24) 
O=C(NCc1ccccc1)c1ccccc1C=Cc1c([O-])[n-]c(=O)n(-c2ccccc2)c1=O (protonated)
O=C(NCc1ccccc1)c1ccccc1C=Cc1c([O-])[n-]c(=O)n(-c2ccccc2)c1=O (3D coordinates assigned)
O=C(NCc1ccccc1)c1ccccc1C=Cc1c([O-])[n-]c(=O)n(-c2ccccc2)c1=O (optimized conformer: 80.39745945367004 kcal/mol)

>  <smiles>  (24) 
O=C(NCc1ccccc1)c1ccccc1C=Cc1c(O)[nH]c(=O)n(-c2ccccc2)c1=O

>  <score_type>  (24) 
oracle

>  <origin>  (24) 
adg

>  <m_score__min__energy>  (24) 
-13.609999999999999

>  <m_primary>  (24) 
energy

$$$$
24:0
     RDKit          3D

 61 63  0  0  0  0  0  0  0  0999 V2000
   56.8560   24.6820   46.6820 C   0  0  0  0  0  0  0  0  0  0  0  0
   57.9310   24.0940   45.8610 N   0  0  0  0  0  0  0  0  0  0  0  0
   57.3990   23.7200   44.5430 C   0  0  0  0  0  0  0  0  0  0  0  0
   59.0580   25.0410   45.7150 C   0  0  0  0  0  0  0  0  0  0  0  0
   58.6190   26.4860   45.8890 C   0  0  0  0  0  0  0  0  0  0  0  0
   58.9230   27.1700   47.0810 C   0  0  0  0  0  0  0  0  0  0  0  0
   58.5810   28.5170   47.2530 C   0  0  0  0  0  0  0  0  0  0  0  0
   58.9710   29.2450   48.5140 C   0  0  0  0  0  0  0  0  0  0  0  0
   60.4160   29.4810   48.5770 N   0  0  0  0  0  0  0  0  0  0  0  0
   60.9650   30.5560   47.3180 S   0  0  0  0  0  0  0  0  0  0  0  0
   59.7990   31.3690   46.8320 O   0  0  0  0  0  0  0  0  0  0  0  0
   61.4860   29.7390   46.1690 O   0  0  0  0  0  0  0  0  0  0  0  0
   62.2130   31.6610   47.8930 C   0  0  0  0  0  0  0  0  0  0  0  0
   62.7410   32.6540   47.0490 C   0  0  0  0  0  0  0  0  0  0  0  0
   63.7540   33.4990   47.5080 C   0  0  0  0  0  0  0  0  0  0  0  0
   64.2370   33.3680   48.8130 C   0  0  0  0  0  0  0  0  0  0  0  0
   63.7060   32.3910   49.6600 C   0  0  0  0  0  0  0  0  0  0  0  0
   62.6970   31.5400   49.2020 C   0  0  0  0  0  0  0  0  0  0  0  0
   57.9010   29.1890   46.2330 C   0  0  0  0  0  0  0  0  0  0  0  0
   57.6080   28.5440   45.0220 C   0  0  0  0  0  0  0  0  0  0  0  0
   56.8600   29.3100   43.9610 C   0  0  0  0  0  0  0  0  0  0  0  0
   56.3920   30.5710   44.5290 N   0  0  0  0  0  0  0  0  0  0  0  0
   57.4660   31.8670   44.0920 S   0  0  0  0  0  0  0  0  0  0  0  0
   58.8670   31.4840   44.4760 O   0  0  0  0  0  0  0  0  0  0  0  0
   57.4170   32.1140   42.6090 O   0  0  0  0  0  0  0  0  0  0  0  0
   57.0170   33.3650   44.9580 C   0  0  0  0  0  0  0  0  0  0  0  0
   58.1010   33.7600   45.9230 C   0  0  0  0  0  0  0  0  0  0  0  0
   59.2060   34.5100   45.4830 C   0  0  0  0  0  0  0  0  0  0  0  0
   60.1860   34.9230   46.3910 C   0  0  0  0  0  0  0  0  0  0  0  0
   60.0740   34.5870   47.7430 C   0  0  0  0  0  0  0  0  0  0  0  0
   58.9800   33.8370   48.1890 C   0  0  0  0  0  0  0  0  0  0  0  0
   57.9940   33.4270   47.2840 C   0  0  0  0  0  0  0  0  0  0  0  0
   57.9990   27.1990   44.8310 C   0  0  0  0  0  0  0  0  0  0  0  0
   57.7820   26.6090   43.5820 O   0  0  0  0  0  0  0  0  0  0  0  0
   57.0952   24.5511   47.7477 H   0  0  0  0  0  0  0  0  0  0  0  0
   56.7665   25.7547   46.4553 H   0  0  0  0  0  0  0  0  0  0  0  0
   55.9045   24.1787   46.4553 H   0  0  0  0  0  0  0  0  0  0  0  0
   56.5054   23.0918   44.6731 H   0  0  0  0  0  0  0  0  0  0  0  0
   57.1302   24.6289   43.9847 H   0  0  0  0  0  0  0  0  0  0  0  0
   58.1632   23.1594   43.9847 H   0  0  0  0  0  0  0  0  0  0  0  0
   59.8179   24.8075   46.4753 H   0  0  0  0  0  0  0  0  0  0  0  0
   59.4626   24.9307   44.6981 H   0  0  0  0  0  0  0  0  0  0  0  0
   59.4390   26.6364   47.8928 H   0  0  0  0  0  0  0  0  0  0  0  0
   58.4498   30.2133   48.5427 H   0  0  0  0  0  0  0  0  0  0  0  0
   58.6872   28.6198   49.3734 H   0  0  0  0  0  0  0  0  0  0  0  0
   62.3554   32.7656   46.0249 H   0  0  0  0  0  0  0  0  0  0  0  0
   64.1720   34.2682   46.8419 H   0  0  0  0  0  0  0  0  0  0  0  0
   65.0350   34.0337   49.1735 H   0  0  0  0  0  0  0  0  0  0  0  0
   64.0831   32.2920   50.6886 H   0  0  0  0  0  0  0  0  0  0  0  0
   62.2813   30.7725   49.8714 H   0  0  0  0  0  0  0  0  0  0  0  0
   57.5925   30.2344   46.3814 H   0  0  0  0  0  0  0  0  0  0  0  0
   57.5289   29.5133   43.1117 H   0  0  0  0  0  0  0  0  0  0  0  0
   56.0018   28.7184   43.6097 H   0  0  0  0  0  0  0  0  0  0  0  0
   56.8692   34.1747   44.2282 H   0  0  0  0  0  0  0  0  0  0  0  0
   56.0881   33.1868   45.5196 H   0  0  0  0  0  0  0  0  0  0  0  0
   59.3000   34.7732   44.4191 H   0  0  0  0  0  0  0  0  0  0  0  0
   61.0459   35.5129   46.0408 H   0  0  0  0  0  0  0  0  0  0  0  0
   60.8457   34.9120   48.4564 H   0  0  0  0  0  0  0  0  0  0  0  0
   58.8948   33.5692   49.2525 H   0  0  0  0  0  0  0  0  0  0  0  0
   57.1327   32.8423   47.6393 H   0  0  0  0  0  0  0  0  0  0  0  0
   57.0050   26.8350   42.9760 H   0  0  0  0  0  0  0  0  0  0  0  0
  1  2  1  0
  2  3  1  0
  2  4  1  0
  4  5  1  0
  5  6  2  0
  6  7  1  0
  7  8  1  0
  8  9  1  0
  9 10  1  0
 10 11  2  0
 10 12  2  0
 10 13  1  0
 13 14  2  0
 14 15  1  0
 15 16  2  0
 16 17  1  0
 17 18  2  0
  7 19  2  0
 19 20  1  0
 20 21  1  0
 21 22  1  0
 22 23  1  0
 23 24  2  0
 23 25  2  0
 23 26  1  0
 26 27  1  0
 27 28  2  0
 28 29  1  0
 29 30  2  0
 30 31  1  0
 31 32  2  0
 20 33  2  0
 33 34  1  0
 33  5  1  0
 18 13  1  0
 32 27  1  0
  1 35  1  0
  1 36  1  0
  1 37  1  0
  3 38  1  0
  3 39  1  0
  3 40  1  0
  4 41  1  0
  4 42  1  0
  6 43  1  0
  8 44  1  0
  8 45  1  0
 14 46  1  0
 15 47  1  0
 16 48  1  0
 17 49  1  0
 18 50  1  0
 19 51  1  0
 21 52  1  0
 21 53  1  0
 26 54  1  0
 26 55  1  0
 28 56  1  0
 29 57  1  0
 30 58  1  0
 31 59  1  0
 32 60  1  0
 34 61  1  0
M  CHG  2   9  -1  22  -1
M  END
>  <UniqueID>  (25) 
25

>  <SMILES>  (25) 
CN(C)Cc1cc(C[N-]S(=O)(=O)c2ccccc2)cc(C[N-]S(=O)(=O)Cc2ccccc2)c1O

>  <Energy>  (25) 
56.41712741857564

>  <Genealogy>  (25) 
CN(C)Cc1cc(C[N-]S(=O)(=O)c2ccccc2)cc(C[N-]S(=O)(=O)Cc2ccccc2)c1O (protonated)
CN(C)Cc1cc(C[N-]S(=O)(=O)c2ccccc2)cc(C[N-]S(=O)(=O)Cc2ccccc2)c1O (3D coordinates assigned)
CN(C)Cc1cc(C[N-]S(=O)(=O)c2ccccc2)cc(C[N-]S(=O)(=O)Cc2ccccc2)c1O (optimized conformer: 56.41712741857564 kcal/mol)

>  <smiles>  (25) 
CN(C)Cc1cc(CNS(=O)(=O)c2ccccc2)cc(CNS(=O)(=O)Cc2ccccc2)c1O

>  <score_type>  (25) 
oracle

>  <origin>  (25) 
adg

>  <m_score__min__energy>  (25) 
-13.1

>  <m_primary>  (25) 
energy

$$$$
25:0
     RDKit          3D

 50 53  0  0  0  0  0  0  0  0999 V2000
   60.6890   30.3030   48.9100 C   0  0  0  0  0  0  0  0  0  0  0  0
   59.3920   30.6900   48.4710 O   0  0  0  0  0  0  0  0  0  0  0  0
   58.7040   30.1120   47.3910 C   0  0  0  0  0  0  0  0  0  0  0  0
   58.4470   28.7270   47.3380 C   0  0  0  0  0  0  0  0  0  0  0  0
   57.7760   28.1620   46.2440 C   0  0  0  0  0  0  0  0  0  0  0  0
   57.5030   26.7120   46.2210 C   0  0  0  0  0  0  0  0  0  0  0  0
   58.4700   25.7770   46.2850 N   0  0  0  0  0  0  0  0  0  0  0  0
   57.7880   24.6120   46.2630 C   0  0  0  0  0  0  0  0  0  0  0  0
   58.3570   23.4920   46.3160 O   0  0  0  0  0  0  0  0  0  0  0  0
   56.4480   24.7440   46.1780 N   0  0  0  0  0  0  0  0  0  0  0  0
   56.2770   26.0750   46.1420 C   0  0  0  0  0  0  0  0  0  0  0  0
   55.0280   26.6740   45.9920 O   0  0  0  0  0  0  0  0  0  0  0  0
   57.3240   28.9970   45.2130 C   0  0  0  0  0  0  0  0  0  0  0  0
   57.5710   30.3690   45.2570 C   0  0  0  0  0  0  0  0  0  0  0  0
   58.2640   30.9360   46.3360 C   0  0  0  0  0  0  0  0  0  0  0  0
   58.5680   32.6820   46.3320 S   0  0  0  0  0  0  0  0  0  0  0  0
   58.7380   33.1430   44.9110 O   0  0  0  0  0  0  0  0  0  0  0  0
   57.3920   33.4150   46.9130 O   0  0  0  0  0  0  0  0  0  0  0  0
   60.0090   33.0840   47.2360 N   0  0  0  0  0  0  0  0  0  0  0  0
   61.1810   33.1470   46.3390 C   0  0  0  0  0  0  0  0  0  0  0  0
   62.3870   33.8610   46.9870 C   0  0  0  0  0  0  0  0  0  0  0  0
   62.2190   33.9710   48.4430 N   0  0  0  0  0  0  0  0  0  0  0  0
   63.3080   33.6620   49.3350 C   0  0  0  0  0  0  0  0  0  0  0  0
   64.3330   32.7890   48.9300 C   0  0  0  0  0  0  0  0  0  0  0  0
   65.3830   32.4790   49.7980 C   0  0  0  0  0  0  0  0  0  0  0  0
   65.4190   33.0340   51.0800 C   0  0  0  0  0  0  0  0  0  0  0  0
   66.4380   32.7320   51.9220 F   0  0  0  0  0  0  0  0  0  0  0  0
   64.4010   33.8950   51.4970 C   0  0  0  0  0  0  0  0  0  0  0  0
   63.3480   34.2070   50.6310 C   0  0  0  0  0  0  0  0  0  0  0  0
   60.9600   34.5080   48.9770 C   0  0  0  0  0  0  0  0  0  0  0  0
   59.8250   34.3490   47.9600 C   0  0  0  0  0  0  0  0  0  0  0  0
   60.7166   30.2948   50.0096 H   0  0  0  0  0  0  0  0  0  0  0  0
   60.9197   29.2969   48.5299 H   0  0  0  0  0  0  0  0  0  0  0  0
   61.4333   31.0182   48.5299 H   0  0  0  0  0  0  0  0  0  0  0  0
   58.7770   28.0814   48.1652 H   0  0  0  0  0  0  0  0  0  0  0  0
   54.3550   26.7080   46.7460 H   0  0  0  0  0  0  0  0  0  0  0  0
   56.7713   28.5678   44.3643 H   0  0  0  0  0  0  0  0  0  0  0  0
   57.2187   31.0124   44.4373 H   0  0  0  0  0  0  0  0  0  0  0  0
   61.4787   32.1213   46.0757 H   0  0  0  0  0  0  0  0  0  0  0  0
   60.8895   33.7257   45.4501 H   0  0  0  0  0  0  0  0  0  0  0  0
   63.3010   33.2873   46.7734 H   0  0  0  0  0  0  0  0  0  0  0  0
   62.4589   34.8750   46.5667 H   0  0  0  0  0  0  0  0  0  0  0  0
   64.3081   32.3471   47.9230 H   0  0  0  0  0  0  0  0  0  0  0  0
   66.1823   31.7973   49.4719 H   0  0  0  0  0  0  0  0  0  0  0  0
   64.4276   34.3281   52.5078 H   0  0  0  0  0  0  0  0  0  0  0  0
   62.5467   34.8824   50.9653 H   0  0  0  0  0  0  0  0  0  0  0  0
   60.6981   33.9652   49.8972 H   0  0  0  0  0  0  0  0  0  0  0  0
   61.0956   35.5788   49.1890 H   0  0  0  0  0  0  0  0  0  0  0  0
   58.8582   34.3371   48.4845 H   0  0  0  0  0  0  0  0  0  0  0  0
   59.8392   35.1899   47.2510 H   0  0  0  0  0  0  0  0  0  0  0  0
  1  2  1  0
  2  3  1  0
  3  4  2  0
  4  5  1  0
  5  6  1  0
  6  7  1  0
  7  8  1  0
  8  9  2  0
  8 10  1  0
 10 11  1  0
 11 12  1  0
  5 13  2  0
 13 14  1  0
 14 15  2  0
 15 16  1  0
 16 17  2  0
 16 18  2  0
 16 19  1  0
 19 20  1  0
 20 21  1  0
 21 22  1  0
 22 23  1  0
 23 24  2  0
 24 25  1  0
 25 26  2  0
 26 27  1  0
 26 28  1  0
 28 29  2  0
 22 30  1  0
 30 31  1  0
 15  3  1  0
 31 19  1  0
 11  6  2  0
 29 23  1  0
  1 32  1  0
  1 33  1  0
  1 34  1  0
  4 35  1  0
 12 36  1  0
 13 37  1  0
 14 38  1  0
 20 39  1  0
 20 40  1  0
 21 41  1  0
 21 42  1  0
 24 43  1  0
 25 44  1  0
 28 45  1  0
 29 46  1  0
 30 47  1  0
 30 48  1  0
 31 49  1  0
 31 50  1  0
M  CHG  2   7  -1  10  -1
M  END
>  <UniqueID>  (26) 
26

>  <SMILES>  (26) 
COc1cc(-c2[n-]c(=O)[n-]c2O)ccc1S(=O)(=O)N1CCN(c2ccc(F)cc2)CC1

>  <Energy>  (26) 
95.24156729912481

>  <Genealogy>  (26) 
COc1cc(-c2[n-]c(=O)[n-]c2O)ccc1S(=O)(=O)N1CCN(c2ccc(F)cc2)CC1 (protonated)
COc1cc(-c2[n-]c(=O)[n-]c2O)ccc1S(=O)(=O)N1CCN(c2ccc(F)cc2)CC1 (3D coordinates assigned)
COc1cc(-c2[n-]c(=O)[n-]c2O)ccc1S(=O)(=O)N1CCN(c2ccc(F)cc2)CC1 (nonaromatic ring conformer: 95.24156729912481 kcal/mol)

>  <smiles>  (26) 
COc1cc(-c2[nH]c(=O)[nH]c2O)ccc1S(=O)(=O)N1CCN(c2ccc(F)cc2)CC1

>  <score_type>  (26) 
oracle

>  <origin>  (26) 
adg

>  <m_score__min__energy>  (26) 
-13.07

>  <m_primary>  (26) 
energy

$$$$
26:0
     RDKit          3D

 42 44  0  0  0  0  0  0  0  0999 V2000
   54.9790   26.3310   45.9570 N   0  0  0  0  0  0  0  0  0  0  0  0
   56.4880   25.5450   46.2570 S   0  0  0  0  0  0  0  0  0  0  0  0
   56.4470   24.8660   47.5970 O   0  0  0  0  0  0  0  0  0  0  0  0
   56.7250   24.5070   45.1970 O   0  0  0  0  0  0  0  0  0  0  0  0
   57.7850   26.7360   46.2390 C   0  0  0  0  0  0  0  0  0  0  0  0
   57.4780   28.1020   46.2960 C   0  0  0  0  0  0  0  0  0  0  0  0
   58.5010   29.0550   46.2720 C   0  0  0  0  0  0  0  0  0  0  0  0
   59.8420   28.6510   46.1780 C   0  0  0  0  0  0  0  0  0  0  0  0
   60.9470   29.6750   46.1940 C   0  0  0  0  0  0  0  0  0  0  0  0
   61.1050   30.2380   47.5410 N   0  0  0  0  0  0  0  0  0  0  0  0
   60.3520   31.4620   47.6570 C   0  0  0  0  0  0  0  0  0  0  0  0
   60.1940   32.0850   48.9070 C   0  0  0  0  0  0  0  0  0  0  0  0
   59.4370   33.2550   49.0230 C   0  0  0  0  0  0  0  0  0  0  0  0
   58.8250   33.8090   47.8970 C   0  0  0  0  0  0  0  0  0  0  0  0
   58.9650   33.1930   46.6460 C   0  0  0  0  0  0  0  0  0  0  0  0
   58.1930   33.8790   45.2190 S   0  0  0  0  0  0  0  0  0  0  0  0
   56.7600   34.1940   45.5420 O   0  0  0  0  0  0  0  0  0  0  0  0
   58.8900   35.1430   44.7960 O   0  0  0  0  0  0  0  0  0  0  0  0
   58.2490   32.7400   43.9130 N   0  0  0  0  0  0  0  0  0  0  0  0
   57.4230   31.7460   43.8060 C   0  0  0  0  0  0  0  0  0  0  0  0
   56.7790   31.1820   44.8520 N   0  0  0  0  0  0  0  0  0  0  0  0
   55.9800   30.1590   44.4480 C   0  0  0  0  0  0  0  0  0  0  0  0
   55.9880   29.9080   43.0800 C   0  0  0  0  0  0  0  0  0  0  0  0
   57.0330   31.0100   42.3490 S   0  0  0  0  0  0  0  0  0  0  0  0
   59.7200   32.0180   46.5300 C   0  0  0  0  0  0  0  0  0  0  0  0
   60.1480   27.2810   46.1310 C   0  0  0  0  0  0  0  0  0  0  0  0
   59.1240   26.3290   46.1540 C   0  0  0  0  0  0  0  0  0  0  0  0
   55.1570   27.0700   45.2410 H   0  0  0  0  0  0  0  0  0  0  0  0
   56.4287   28.4258   46.3598 H   0  0  0  0  0  0  0  0  0  0  0  0
   58.2539   30.1255   46.3270 H   0  0  0  0  0  0  0  0  0  0  0  0
   61.8891   29.1962   45.8887 H   0  0  0  0  0  0  0  0  0  0  0  0
   60.6913   30.4862   45.4964 H   0  0  0  0  0  0  0  0  0  0  0  0
   62.1190   30.4300   47.7290 H   0  0  0  0  0  0  0  0  0  0  0  0
   60.7700   29.5490   48.2540 H   0  0  0  0  0  0  0  0  0  0  0  0
   60.6684   31.6498   49.7989 H   0  0  0  0  0  0  0  0  0  0  0  0
   59.3234   33.7401   50.0037 H   0  0  0  0  0  0  0  0  0  0  0  0
   58.2319   34.7305   47.9919 H   0  0  0  0  0  0  0  0  0  0  0  0
   55.3714   29.5724   45.1519 H   0  0  0  0  0  0  0  0  0  0  0  0
   55.4119   29.1256   42.5643 H   0  0  0  0  0  0  0  0  0  0  0  0
   59.8191   31.5270   45.5506 H   0  0  0  0  0  0  0  0  0  0  0  0
   61.1973   26.9556   46.0759 H   0  0  0  0  0  0  0  0  0  0  0  0
   59.3697   25.2579   46.1053 H   0  0  0  0  0  0  0  0  0  0  0  0
  1  2  1  0
  2  3  2  0
  2  4  2  0
  2  5  1  0
  5  6  2  0
  6  7  1  0
  7  8  2  0
  8  9  1  0
  9 10  1  0
 10 11  1  0
 11 12  2  0
 12 13  1  0
 13 14  2  0
 14 15  1  0
 15 16  1  0
 16 17  2  0
 16 18  2  0
 16 19  1  0
 19 20  2  3
 20 21  1  0
 21 22  1  0
 22 23  2  0
 23 24  1  0
 15 25  2  0
  8 26  1  0
 26 27  2  0
 27  5  1  0
 25 11  1  0
 24 20  1  0
  1 28  1  0
  6 29  1  0
  7 30  1  0
  9 31  1  0
  9 32  1  0
 10 33  1  0
 10 34  1  0
 12 35  1  0
 13 36  1  0
 14 37  1  0
 22 38  1  0
 23 39  1  0
 25 40  1  0
 26 41  1  0
 27 42  1  0
M  CHG  3   1  -1  10   1  21  -1
M  END
>  <UniqueID>  (27) 
27

>  <SMILES>  (27) 
[NH-]S(=O)(=O)c1ccc(C[NH2+]c2cccc(S(=O)(=O)N=c3[n-]ccs3)c2)cc1

>  <Energy>  (27) 
76.61682284534193

>  <Genealogy>  (27) 
[NH-]S(=O)(=O)c1ccc(C[NH2+]c2cccc(S(=O)(=O)N=c3[n-]ccs3)c2)cc1 (protonated)
[NH-]S(=O)(=O)c1ccc(C[NH2+]c2cccc(S(=O)(=O)N=c3[n-]ccs3)c2)cc1 (3D coordinates assigned)
[NH-]S(=O)(=O)c1ccc(C[NH2+]c2cccc(S(=O)(=O)N=c3[n-]ccs3)c2)cc1 (optimized conformer: 76.61682284534193 kcal/mol)

>  <smiles>  (27) 
NS(=O)(=O)c1ccc(CNc2cccc(S(=O)(=O)N=c3[nH]ccs3)c2)cc1

>  <score_type>  (27) 
oracle

>  <origin>  (27) 
adg

>  <m_score__min__energy>  (27) 
-12.130000000000001

>  <m_primary>  (27) 
energy

$$$$
27:0
     RDKit          3D

 38 40  0  0  0  0  0  0  0  0999 V2000
   58.8860   33.0060   51.6230 C   0  0  0  0  0  0  0  0  0  0  0  0
   59.2990   33.9950   50.6850 O   0  0  0  0  0  0  0  0  0  0  0  0
   60.4080   33.8720   49.8310 C   0  0  0  0  0  0  0  0  0  0  0  0
   61.7260   33.8640   50.3290 C   0  0  0  0  0  0  0  0  0  0  0  0
   62.8110   33.7470   49.4600 C   0  0  0  0  0  0  0  0  0  0  0  0
   62.6050   33.6360   48.0770 C   0  0  0  0  0  0  0  0  0  0  0  0
   63.7410   33.5150   47.1450 C   0  0  0  0  0  0  0  0  0  0  0  0
   63.6340   33.8650   45.9390 O   0  0  0  0  0  0  0  0  0  0  0  0
   61.2960   33.6430   47.5760 C   0  0  0  0  0  0  0  0  0  0  0  0
   60.1940   33.7570   48.4410 C   0  0  0  0  0  0  0  0  0  0  0  0
   58.8020   33.7980   47.8600 C   0  0  0  0  0  0  0  0  0  0  0  0
   58.6030   32.6890   46.9200 N   0  0  0  0  0  0  0  0  0  0  0  0
   58.8370   31.3230   47.3090 C   0  0  0  0  0  0  0  0  0  0  0  0
   59.3100   31.0700   48.4490 O   0  0  0  0  0  0  0  0  0  0  0  0
   58.5360   30.2240   46.4320 N   0  0  0  0  0  0  0  0  0  0  0  0
   57.8920   30.3210   45.1490 C   0  0  0  0  0  0  0  0  0  0  0  0
   57.4930   29.1420   44.4950 C   0  0  0  0  0  0  0  0  0  0  0  0
   56.8700   29.1960   43.2460 C   0  0  0  0  0  0  0  0  0  0  0  0
   56.6410   30.4280   42.6320 C   0  0  0  0  0  0  0  0  0  0  0  0
   57.0380   31.6070   43.2660 C   0  0  0  0  0  0  0  0  0  0  0  0
   57.6600   31.5580   44.5220 C   0  0  0  0  0  0  0  0  0  0  0  0
   58.1740   33.0410   45.2830 S   0  0  0  0  0  0  0  0  0  0  0  0
   57.0420   34.0300   45.2590 O   0  0  0  0  0  0  0  0  0  0  0  0
   59.3630   33.5940   44.5490 O   0  0  0  0  0  0  0  0  0  0  0  0
   59.0429   33.3817   52.6449 H   0  0  0  0  0  0  0  0  0  0  0  0
   57.8193   32.7823   51.4743 H   0  0  0  0  0  0  0  0  0  0  0  0
   59.4769   32.0902   51.4743 H   0  0  0  0  0  0  0  0  0  0  0  0
   61.9008   33.9507   51.4116 H   0  0  0  0  0  0  0  0  0  0  0  0
   63.8349   33.7418   49.8620 H   0  0  0  0  0  0  0  0  0  0  0  0
   64.6980   33.1125   47.5084 H   0  0  0  0  0  0  0  0  0  0  0  0
   61.1290   33.5582   46.4921 H   0  0  0  0  0  0  0  0  0  0  0  0
   58.0674   33.7177   48.6748 H   0  0  0  0  0  0  0  0  0  0  0  0
   58.6698   34.7480   47.3215 H   0  0  0  0  0  0  0  0  0  0  0  0
   58.7560   29.2670   46.7940 H   0  0  0  0  0  0  0  0  0  0  0  0
   57.6733   28.1672   44.9718 H   0  0  0  0  0  0  0  0  0  0  0  0
   56.5597   28.2666   42.7460 H   0  0  0  0  0  0  0  0  0  0  0  0
   56.1482   30.4703   41.6495 H   0  0  0  0  0  0  0  0  0  0  0  0
   56.8623   32.5774   42.7787 H   0  0  0  0  0  0  0  0  0  0  0  0
  1  2  1  0
  2  3  1  0
  3  4  2  0
  4  5  1  0
  5  6  2  0
  6  7  1  0
  7  8  2  0
  6  9  1  0
  9 10  2  0
 10 11  1  0
 11 12  1  0
 12 13  1  0
 13 14  2  0
 13 15  1  0
 15 16  1  0
 16 17  2  0
 17 18  1  0
 18 19  2  0
 19 20  1  0
 20 21  2  0
 21 22  1  0
 22 23  2  0
 22 24  2  0
 10  3  1  0
 22 12  1  0
 21 16  1  0
  1 25  1  0
  1 26  1  0
  1 27  1  0
  4 28  1  0
  5 29  1  0
  7 30  1  0
  9 31  1  0
 11 32  1  0
 11 33  1  0
 15 34  1  0
 17 35  1  0
 18 36  1  0
 19 37  1  0
 20 38  1  0
M  END
>  <UniqueID>  (28) 
28

>  <SMILES>  (28) 
COc1ccc(C=O)cc1CN1C(=O)Nc2ccccc2S1(=O)=O

>  <Energy>  (28) 
42.97014881469022

>  <Genealogy>  (28) 
COc1ccc(C=O)cc1CN1C(=O)Nc2ccccc2S1(=O)=O (3D coordinates assigned)
COc1ccc(C=O)cc1CN1C(=O)Nc2ccccc2S1(=O)=O (nonaromatic ring conformer: 42.97014881469022 kcal/mol)

>  <smiles>  (28) 
COc1ccc(C=O)cc1CN1C(=O)Nc2ccccc2S1(=O)=O

>  <score_type>  (28) 
oracle

>  <origin>  (28) 
adg

>  <m_score__min__energy>  (28) 
-7.6100000000000003

>  <m_primary>  (28) 
energy

$$$$
28:0
     RDKit          3D

 41 43  0  0  0  0  0  0  0  0999 V2000
   60.6790   34.2370   49.0940 C   0  0  0  0  0  0  0  0  0  0  0  0
   60.0210   33.3000   48.1910 N   0  0  0  0  0  0  0  0  0  0  0  0
   59.3450   33.7470   47.0060 C   0  0  0  0  0  0  0  0  0  0  0  0
   59.2760   34.9820   46.7530 O   0  0  0  0  0  0  0  0  0  0  0  0
   58.7220   32.7700   46.0850 C   0  0  0  0  0  0  0  0  0  0  0  0
   59.1960   31.4490   45.9970 C   0  0  0  0  0  0  0  0  0  0  0  0
   58.5950   30.5510   45.1090 C   0  0  0  0  0  0  0  0  0  0  0  0
   59.0670   29.2300   45.0630 O   0  0  0  0  0  0  0  0  0  0  0  0
   58.4460   28.1310   45.6730 C   0  0  0  0  0  0  0  0  0  0  0  0
   59.1630   27.2110   46.4490 C   0  0  0  0  0  0  0  0  0  0  0  0
   58.5180   26.1710   47.0440 N   0  0  0  0  0  0  0  0  0  0  0  0
   57.1760   25.9770   46.9100 C   0  0  0  0  0  0  0  0  0  0  0  0
   56.5780   24.9670   47.4730 N   0  0  0  0  0  0  0  0  0  0  0  0
   56.7470   23.5720   47.1590 C   0  0  0  0  0  0  0  0  0  0  0  0
   57.0080   22.7380   48.0700 O   0  0  0  0  0  0  0  0  0  0  0  0
   56.6110   23.1080   45.7580 C   0  0  0  0  0  0  0  0  0  0  0  0
   55.7020   23.7310   44.8800 C   0  0  0  0  0  0  0  0  0  0  0  0
   55.5920   23.3030   43.5520 C   0  0  0  0  0  0  0  0  0  0  0  0
   56.3810   22.2470   43.0880 C   0  0  0  0  0  0  0  0  0  0  0  0
   56.2900   21.8430   41.7960 F   0  0  0  0  0  0  0  0  0  0  0  0
   57.2810   21.6190   43.9510 C   0  0  0  0  0  0  0  0  0  0  0  0
   57.4000   22.0430   45.2780 C   0  0  0  0  0  0  0  0  0  0  0  0
   56.4260   26.8810   46.1430 C   0  0  0  0  0  0  0  0  0  0  0  0
   55.0550   26.7110   45.9830 O   0  0  0  0  0  0  0  0  0  0  0  0
   57.0650   27.9660   45.5380 C   0  0  0  0  0  0  0  0  0  0  0  0
   57.5100   30.9820   44.3320 C   0  0  0  0  0  0  0  0  0  0  0  0
   57.0580   32.2960   44.4500 C   0  0  0  0  0  0  0  0  0  0  0  0
   57.6680   33.1500   45.3130 N   0  0  0  0  0  0  0  0  0  0  0  0
   60.4754   33.9470   50.1354 H   0  0  0  0  0  0  0  0  0  0  0  0
   61.7640   34.2192   48.9139 H   0  0  0  0  0  0  0  0  0  0  0  0
   60.2940   35.2516   48.9139 H   0  0  0  0  0  0  0  0  0  0  0  0
   60.0600   32.2820   48.4200 H   0  0  0  0  0  0  0  0  0  0  0  0
   60.0378   31.1226   46.6253 H   0  0  0  0  0  0  0  0  0  0  0  0
   60.2490   27.3295   46.5775 H   0  0  0  0  0  0  0  0  0  0  0  0
   55.0746   24.5594   45.2407 H   0  0  0  0  0  0  0  0  0  0  0  0
   54.8833   23.7987   42.8723 H   0  0  0  0  0  0  0  0  0  0  0  0
   57.8997   20.7863   43.5851 H   0  0  0  0  0  0  0  0  0  0  0  0
   58.1126   21.5432   45.9506 H   0  0  0  0  0  0  0  0  0  0  0  0
   56.4799   28.6918   44.9542 H   0  0  0  0  0  0  0  0  0  0  0  0
   57.0187   30.2881   43.6340 H   0  0  0  0  0  0  0  0  0  0  0  0
   56.2073   32.6412   43.8441 H   0  0  0  0  0  0  0  0  0  0  0  0
  1  2  1  0
  2  3  1  0
  3  4  2  0
  3  5  1  0
  5  6  2  0
  6  7  1  0
  7  8  1  0
  8  9  1  0
  9 10  2  0
 10 11  1  0
 11 12  1  0
 12 13  2  3
 13 14  1  0
 14 15  2  0
 14 16  1  0
 16 17  2  0
 17 18  1  0
 18 19  2  0
 19 20  1  0
 19 21  1  0
 21 22  2  0
 12 23  1  0
 23 24  1  0
 23 25  2  0
  7 26  2  0
 26 27  1  0
 27 28  2  0
 28  5  1  0
 25  9  1  0
 22 16  1  0
  1 29  1  0
  1 30  1  0
  1 31  1  0
  2 32  1  0
  6 33  1  0
 10 34  1  0
 17 35  1  0
 18 36  1  0
 21 37  1  0
 22 38  1  0
 25 39  1  0
 26 40  1  0
 27 41  1  0
M  CHG  2  11  -1  24  -1
M  END
>  <UniqueID>  (29) 
29

>  <SMILES>  (29) 
CNC(=O)c1cc(Oc2c[n-]c(=NC(=O)c3ccc(F)cc3)c([O-])c2)ccn1

>  <Energy>  (29) 
53.388067349996746

>  <Genealogy>  (29) 
CNC(=O)c1cc(Oc2c[n-]c(=NC(=O)c3ccc(F)cc3)c([O-])c2)ccn1 (protonated)
CNC(=O)c1cc(Oc2c[n-]c(=NC(=O)c3ccc(F)cc3)c([O-])c2)ccn1 (3D coordinates assigned)
CNC(=O)c1cc(Oc2c[n-]c(=NC(=O)c3ccc(F)cc3)c([O-])c2)ccn1 (optimized conformer: 53.388067349996746 kcal/mol)

>  <smiles>  (29) 
CNC(=O)c1cc(Oc2c[nH]c(=NC(=O)c3ccc(F)cc3)c(O)c2)ccn1

>  <score_type>  (29) 
oracle

>  <origin>  (29) 
adg

>  <m_score__min__energy>  (29) 
-12.4

>  <m_primary>  (29) 
energy

$$$$
29:0
     RDKit          3D

 45 48  0  0  0  0  0  0  0  0999 V2000
   55.6160   30.5900   44.8060 O   0  0  0  0  0  0  0  0  0  0  0  0
   56.9580   30.2520   44.2200 S   0  0  0  0  0  0  0  0  0  0  0  0
   56.7560   29.2380   43.1300 O   0  0  0  0  0  0  0  0  0  0  0  0
   57.7110   31.7100   43.5120 C   0  0  0  0  0  0  0  0  0  0  0  0
   57.9770   32.7450   44.5690 C   0  0  0  0  0  0  0  0  0  0  0  0
   59.1370   33.5350   44.5130 C   0  0  0  0  0  0  0  0  0  0  0  0
   59.4140   34.4550   45.5290 C   0  0  0  0  0  0  0  0  0  0  0  0
   58.5340   34.5930   46.6060 C   0  0  0  0  0  0  0  0  0  0  0  0
   57.3770   33.8110   46.6700 C   0  0  0  0  0  0  0  0  0  0  0  0
   57.0980   32.8880   45.6570 C   0  0  0  0  0  0  0  0  0  0  0  0
   57.9970   29.5590   45.4300 N   0  0  0  0  0  0  0  0  0  0  0  0
   58.7890   30.2230   46.2170 C   0  0  0  0  0  0  0  0  0  0  0  0
   58.3530   30.7850   47.3630 N   0  0  0  0  0  0  0  0  0  0  0  0
   59.3580   31.3890   48.0570 C   0  0  0  0  0  0  0  0  0  0  0  0
   59.0950   31.9870   49.3840 C   0  0  0  0  0  0  0  0  0  0  0  0
   58.2920   31.3250   50.3300 C   0  0  0  0  0  0  0  0  0  0  0  0
   58.0380   31.9110   51.5730 C   0  0  0  0  0  0  0  0  0  0  0  0
   58.5690   33.1670   51.8770 C   0  0  0  0  0  0  0  0  0  0  0  0
   59.3480   33.8420   50.9340 C   0  0  0  0  0  0  0  0  0  0  0  0
   59.6050   33.2600   49.6900 C   0  0  0  0  0  0  0  0  0  0  0  0
   60.6180   31.3180   47.4380 C   0  0  0  0  0  0  0  0  0  0  0  0
   61.8890   31.9300   47.8770 C   0  0  0  0  0  0  0  0  0  0  0  0
   62.5050   32.9400   47.1160 C   0  0  0  0  0  0  0  0  0  0  0  0
   63.7120   33.5050   47.5390 C   0  0  0  0  0  0  0  0  0  0  0  0
   64.3200   33.0590   48.7150 C   0  0  0  0  0  0  0  0  0  0  0  0
   63.7250   32.0420   49.4670 C   0  0  0  0  0  0  0  0  0  0  0  0
   62.5180   31.4750   49.0490 C   0  0  0  0  0  0  0  0  0  0  0  0
   60.4410   30.4610   45.9990 S   0  0  0  0  0  0  0  0  0  0  0  0
   58.6621   31.4289   43.0361 H   0  0  0  0  0  0  0  0  0  0  0  0
   57.0203   32.1362   42.7695 H   0  0  0  0  0  0  0  0  0  0  0  0
   59.8308   33.4295   43.6659 H   0  0  0  0  0  0  0  0  0  0  0  0
   60.3246   35.0702   45.4806 H   0  0  0  0  0  0  0  0  0  0  0  0
   58.7521   35.3178   47.4042 H   0  0  0  0  0  0  0  0  0  0  0  0
   56.6853   33.9218   47.5181 H   0  0  0  0  0  0  0  0  0  0  0  0
   56.1882   32.2721   45.7116 H   0  0  0  0  0  0  0  0  0  0  0  0
   57.8619   30.3414   50.0904 H   0  0  0  0  0  0  0  0  0  0  0  0
   57.4191   31.3826   52.3131 H   0  0  0  0  0  0  0  0  0  0  0  0
   58.3738   33.6242   52.8583 H   0  0  0  0  0  0  0  0  0  0  0  0
   59.7600   34.8339   51.1714 H   0  0  0  0  0  0  0  0  0  0  0  0
   60.2093   33.8009   48.9468 H   0  0  0  0  0  0  0  0  0  0  0  0
   62.0350   33.2869   46.1839 H   0  0  0  0  0  0  0  0  0  0  0  0
   64.1835   34.3018   46.9450 H   0  0  0  0  0  0  0  0  0  0  0  0
   65.2669   33.5081   49.0492 H   0  0  0  0  0  0  0  0  0  0  0  0
   64.2077   31.6873   50.3896 H   0  0  0  0  0  0  0  0  0  0  0  0
   62.0581   30.6691   49.6397 H   0  0  0  0  0  0  0  0  0  0  0  0
  1  2  2  0
  2  3  2  0
  2  4  1  0
  4  5  1  0
  5  6  2  0
  6  7  1  0
  7  8  2  0
  8  9  1  0
  9 10  2  0
  2 11  1  0
 11 12  2  3
 12 13  1  0
 13 14  1  0
 14 15  1  0
 15 16  2  0
 16 17  1  0
 17 18  2  0
 18 19  1  0
 19 20  2  0
 14 21  2  0
 21 22  1  0
 22 23  2  0
 23 24  1  0
 24 25  2  0
 25 26  1  0
 26 27  2  0
 21 28  1  0
 10  5  1  0
 28 12  1  0
 20 15  1  0
 27 22  1  0
  4 29  1  0
  4 30  1  0
  6 31  1  0
  7 32  1  0
  8 33  1  0
  9 34  1  0
 10 35  1  0
 16 36  1  0
 17 37  1  0
 18 38  1  0
 19 39  1  0
 20 40  1  0
 23 41  1  0
 24 42  1  0
 25 43  1  0
 26 44  1  0
 27 45  1  0
M  CHG  1  13  -1
M  END
>  <UniqueID>  (30) 
30

>  <SMILES>  (30) 
O=S(=O)(Cc1ccccc1)N=c1[n-]c(-c2ccccc2)c(-c2ccccc2)s1

>  <Energy>  (30) 
84.84251980733849

>  <Genealogy>  (30) 
O=S(=O)(Cc1ccccc1)N=c1[n-]c(-c2ccccc2)c(-c2ccccc2)s1 (protonated)
O=S(=O)(Cc1ccccc1)N=c1[n-]c(-c2ccccc2)c(-c2ccccc2)s1 (3D coordinates assigned)
O=S(=O)(Cc1ccccc1)N=c1[n-]c(-c2ccccc2)c(-c2ccccc2)s1 (optimized conformer: 84.84251980733849 kcal/mol)

>  <smiles>  (30) 
O=S(=O)(Cc1ccccc1)N=c1[nH]c(-c2ccccc2)c(-c2ccccc2)s1

>  <score_type>  (30) 
oracle

>  <origin>  (30) 
adg

>  <m_score__min__energy>  (30) 
-10.57

>  <m_primary>  (30) 
energy

$$$$
30:0
     RDKit          3D

 66 69  0  0  0  0  0  0  0  0999 V2000
   59.2880   33.1540   51.5260 C   0  0  0  0  0  0  0  0  0  0  0  0
   58.6660   33.0840   50.2470 O   0  0  0  0  0  0  0  0  0  0  0  0
   58.8750   32.0600   49.3100 C   0  0  0  0  0  0  0  0  0  0  0  0
   59.3910   30.8140   49.6850 C   0  0  0  0  0  0  0  0  0  0  0  0
   59.5890   29.8230   48.7320 C   0  0  0  0  0  0  0  0  0  0  0  0
   59.2170   30.0300   47.3920 C   0  0  0  0  0  0  0  0  0  0  0  0
   59.4070   29.0230   46.4370 C   0  0  0  0  0  0  0  0  0  0  0  0
   59.9170   27.9200   46.7830 O   0  0  0  0  0  0  0  0  0  0  0  0
   59.0470   29.2300   45.1340 N   0  0  0  0  0  0  0  0  0  0  0  0
   59.2870   28.1640   44.1350 C   0  0  0  0  0  0  0  0  0  0  0  0
   58.0320   27.3220   43.8860 C   0  0  0  0  0  0  0  0  0  0  0  0
   57.4160   26.5400   45.4220 S   0  0  0  0  0  0  0  0  0  0  0  0
   57.5210   24.8500   44.8210 C   0  0  0  0  0  0  0  0  0  0  0  0
   56.6460   24.4030   43.8250 C   0  0  0  0  0  0  0  0  0  0  0  0
   56.7200   23.0860   43.3650 C   0  0  0  0  0  0  0  0  0  0  0  0
   57.6710   22.2100   43.8980 C   0  0  0  0  0  0  0  0  0  0  0  0
   58.5360   22.6480   44.9050 C   0  0  0  0  0  0  0  0  0  0  0  0
   58.4550   23.9640   45.3740 C   0  0  0  0  0  0  0  0  0  0  0  0
   58.4370   30.4040   44.7680 C   0  0  0  0  0  0  0  0  0  0  0  0
   58.1230   30.5850   43.5570 O   0  0  0  0  0  0  0  0  0  0  0  0
   58.1670   31.3830   45.6970 N   0  0  0  0  0  0  0  0  0  0  0  0
   57.3340   32.5290   45.2760 C   0  0  0  0  0  0  0  0  0  0  0  0
   58.6370   31.2580   46.9930 C   0  0  0  0  0  0  0  0  0  0  0  0
   58.5610   32.3070   47.9620 C   0  0  0  0  0  0  0  0  0  0  0  0
   58.2170   33.6170   47.6100 O   0  0  0  0  0  0  0  0  0  0  0  0
   59.1780   34.5410   47.1000 C   0  0  0  0  0  0  0  0  0  0  0  0
   60.5670   34.1560   47.5280 C   0  0  0  0  0  0  0  0  0  0  0  0
   61.4260   33.5080   46.6290 C   0  0  0  0  0  0  0  0  0  0  0  0
   62.7380   33.2020   47.0020 C   0  0  0  0  0  0  0  0  0  0  0  0
   63.2160   33.5440   48.2730 C   0  0  0  0  0  0  0  0  0  0  0  0
   64.5460   33.2180   48.5880 O   0  0  0  0  0  0  0  0  0  0  0  0
   64.9760   32.4730   49.7290 C   0  0  0  0  0  0  0  0  0  0  0  0
   63.8340   31.5630   50.1790 C   0  0  0  0  0  0  0  0  0  0  0  0
   65.3740   33.4220   50.8640 C   0  0  0  0  0  0  0  0  0  0  0  0
   62.3570   34.2050   49.1720 C   0  0  0  0  0  0  0  0  0  0  0  0
   61.0450   34.5090   48.8000 C   0  0  0  0  0  0  0  0  0  0  0  0
   58.5225   33.0678   52.3112 H   0  0  0  0  0  0  0  0  0  0  0  0
   60.0114   32.3316   51.6274 H   0  0  0  0  0  0  0  0  0  0  0  0
   59.8106   34.1166   51.6274 H   0  0  0  0  0  0  0  0  0  0  0  0
   59.6406   30.6189   50.7384 H   0  0  0  0  0  0  0  0  0  0  0  0
   60.0419   28.8656   49.0290 H   0  0  0  0  0  0  0  0  0  0  0  0
   59.5978   28.6281   43.1873 H   0  0  0  0  0  0  0  0  0  0  0  0
   60.0712   27.4996   44.5269 H   0  0  0  0  0  0  0  0  0  0  0  0
   57.2439   27.9714   43.4772 H   0  0  0  0  0  0  0  0  0  0  0  0
   58.2944   26.5216   43.1785 H   0  0  0  0  0  0  0  0  0  0  0  0
   55.8979   25.0903   43.4031 H   0  0  0  0  0  0  0  0  0  0  0  0
   56.0295   22.7376   42.5828 H   0  0  0  0  0  0  0  0  0  0  0  0
   57.7383   21.1773   43.5252 H   0  0  0  0  0  0  0  0  0  0  0  0
   59.2805   21.9581   45.3289 H   0  0  0  0  0  0  0  0  0  0  0  0
   59.1252   24.3032   46.1776 H   0  0  0  0  0  0  0  0  0  0  0  0
   56.9537   33.0523   46.1657 H   0  0  0  0  0  0  0  0  0  0  0  0
   57.9407   33.2219   44.6745 H   0  0  0  0  0  0  0  0  0  0  0  0
   56.4877   32.1658   44.6745 H   0  0  0  0  0  0  0  0  0  0  0  0
   59.1271   34.5448   46.0012 H   0  0  0  0  0  0  0  0  0  0  0  0
   58.9509   35.5415   47.4968 H   0  0  0  0  0  0  0  0  0  0  0  0
   61.0657   33.2391   45.6251 H   0  0  0  0  0  0  0  0  0  0  0  0
   63.4010   32.6879   46.2906 H   0  0  0  0  0  0  0  0  0  0  0  0
   65.8544   31.8656   49.4652 H   0  0  0  0  0  0  0  0  0  0  0  0
   63.7988   31.5350   51.2781 H   0  0  0  0  0  0  0  0  0  0  0  0
   62.8808   31.9519   49.7914 H   0  0  0  0  0  0  0  0  0  0  0  0
   64.0002   30.5470   49.7914 H   0  0  0  0  0  0  0  0  0  0  0  0
   65.1721   32.9406   51.8322 H   0  0  0  0  0  0  0  0  0  0  0  0
   66.4461   33.6560   50.7873 H   0  0  0  0  0  0  0  0  0  0  0  0
   64.7896   34.3507   50.7873 H   0  0  0  0  0  0  0  0  0  0  0  0
   62.7207   34.4834   50.1721 H   0  0  0  0  0  0  0  0  0  0  0  0
   60.3824   35.0282   49.5082 H   0  0  0  0  0  0  0  0  0  0  0  0
  1  2  1  0
  2  3  1  0
  3  4  2  0
  4  5  1  0
  5  6  2  0
  6  7  1  0
  7  8  2  0
  7  9  1  0
  9 10  1  0
 10 11  1  0
 11 12  1  0
 12 13  1  0
 13 14  2  0
 14 15  1  0
 15 16  2  0
 16 17  1  0
 17 18  2  0
  9 19  1  0
 19 20  2  0
 19 21  1  0
 21 22  1  0
 21 23  1  0
 23 24  2  0
 24 25  1  0
 25 26  1  0
 26 27  1  0
 27 28  2  0
 28 29  1  0
 29 30  2  0
 30 31  1  0
 31 32  1  0
 32 33  1  0
 32 34  1  0
 30 35  1  0
 35 36  2  0
 24  3  1  0
 36 27  1  0
 23  6  1  0
 18 13  1  0
  1 37  1  0
  1 38  1  0
  1 39  1  0
  4 40  1  0
  5 41  1  0
 10 42  1  0
 10 43  1  0
 11 44  1  0
 11 45  1  0
 14 46  1  0
 15 47  1  0
 16 48  1  0
 17 49  1  0
 18 50  1  0
 22 51  1  0
 22 52  1  0
 22 53  1  0
 26 54  1  0
 26 55  1  0
 28 56  1  0
 29 57  1  0
 32 58  1  0
 33 59  1  0
 33 60  1  0
 33 61  1  0
 34 62  1  0
 34 63  1  0
 34 64  1  0
 35 65  1  0
 36 66  1  0
M  END
>  <UniqueID>  (31) 
31

>  <SMILES>  (31) 
COc1ccc2c(=O)n(CCSc3ccccc3)c(=O)n(C)c2c1OCc1ccc(OC(C)C)cc1

>  <Energy>  (31) 
82.8327999279324

>  <Genealogy>  (31) 
COc1ccc2c(=O)n(CCSc3ccccc3)c(=O)n(C)c2c1OCc1ccc(OC(C)C)cc1 (3D coordinates assigned)
COc1ccc2c(=O)n(CCSc3ccccc3)c(=O)n(C)c2c1OCc1ccc(OC(C)C)cc1 (optimized conformer: 82.8327999279324 kcal/mol)

>  <smiles>  (31) 
COc1ccc2c(=O)n(CCSc3ccccc3)c(=O)n(C)c2c1OCc1ccc(OC(C)C)cc1

>  <score_type>  (31) 
oracle

>  <origin>  (31) 
adg

>  <m_score__min__energy>  (31) 
-8.3000000000000007

>  <m_primary>  (31) 
energy

$$$$
31:0
     RDKit          3D

 33 35  0  0  0  0  0  0  0  0999 V2000
   56.8680   35.1750   45.8980 H   0  0  0  0  0  0  0  0  0  0  0  0
   56.7320   34.3870   45.2280 N   0  0  0  0  0  0  0  0  0  0  0  0
   57.4880   33.3340   45.2180 C   0  0  0  0  0  0  0  0  0  0  0  0
   58.6660   33.2150   45.8650 N   0  0  0  0  0  0  0  0  0  0  0  0
   59.3770   34.1920   46.6390 C   0  0  0  0  0  0  0  0  0  0  0  0
   58.8670   35.3340   46.7940 O   0  0  0  0  0  0  0  0  0  0  0  0
   60.6620   33.8710   47.3050 C   0  0  0  0  0  0  0  0  0  0  0  0
   61.8330   33.7060   46.5430 C   0  0  0  0  0  0  0  0  0  0  0  0
   61.7919   33.8089   45.4486 H   0  0  0  0  0  0  0  0  0  0  0  0
   63.0490   33.4120   47.1680 C   0  0  0  0  0  0  0  0  0  0  0  0
   63.9586   33.2788   46.5639 H   0  0  0  0  0  0  0  0  0  0  0  0
   63.1110   33.2870   48.5590 C   0  0  0  0  0  0  0  0  0  0  0  0
   64.6370   32.9180   49.3410 Cl  0  0  0  0  0  0  0  0  0  0  0  0
   61.9550   33.4600   49.3260 C   0  0  0  0  0  0  0  0  0  0  0  0
   62.0037   33.3646   50.4208 H   0  0  0  0  0  0  0  0  0  0  0  0
   60.7370   33.7540   48.7050 C   0  0  0  0  0  0  0  0  0  0  0  0
   59.8323   33.8946   49.3147 H   0  0  0  0  0  0  0  0  0  0  0  0
   59.0710   31.9630   45.7260 N   0  0  0  0  0  0  0  0  0  0  0  0
   58.1450   31.3470   44.9580 C   0  0  0  0  0  0  0  0  0  0  0  0
   58.2160   29.9130   44.6080 C   0  0  0  0  0  0  0  0  0  0  0  0
   59.1890   29.0530   45.0850 C   0  0  0  0  0  0  0  0  0  0  0  0
   60.0128   29.3070   45.7683 H   0  0  0  0  0  0  0  0  0  0  0  0
   58.9250   27.8150   44.5370 C   0  0  0  0  0  0  0  0  0  0  0  0
   59.4921   26.8876   44.7054 H   0  0  0  0  0  0  0  0  0  0  0  0
   57.8120   27.9660   43.7370 C   0  0  0  0  0  0  0  0  0  0  0  0
   57.3385   27.1599   43.1573 H   0  0  0  0  0  0  0  0  0  0  0  0
   57.3890   29.2450   43.7690 N   0  0  0  0  0  0  0  0  0  0  0  0
   56.2580   29.7670   43.0070 C   0  0  0  0  0  0  0  0  0  0  0  0
   55.4826   30.1249   43.7004 H   0  0  0  0  0  0  0  0  0  0  0  0
   56.5961   30.6002   42.3733 H   0  0  0  0  0  0  0  0  0  0  0  0
   55.8433   28.9692   42.3733 H   0  0  0  0  0  0  0  0  0  0  0  0
   57.1340   32.1810   44.6260 N   0  0  0  0  0  0  0  0  0  0  0  0
   56.2470   31.9780   44.1180 H   0  0  0  0  0  0  0  0  0  0  0  0
  1  2  1  0
  2  3  2  0
  3  4  1  0
  4  5  1  0
  5  6  2  0
  5  7  1  0
  7  8  2  0
  8  9  1  0
  8 10  1  0
 10 11  1  0
 10 12  2  0
 12 13  1  0
 12 14  1  0
 14 15  1  0
 14 16  2  0
 16 17  1  0
  4 18  1  0
 18 19  2  0
 19 20  1  0
 20 21  2  0
 21 22  1  0
 21 23  1  0
 23 24  1  0
 23 25  2  0
 25 26  1  0
 25 27  1  0
 27 28  1  0
 28 29  1  0
 28 30  1  0
 28 31  1  0
 19 32  1  0
 32 33  1  0
 32  3  1  0
 16  7  1  0
 27 20  1  0
M  END
>  <UniqueID>  (32) 
32

>  <SMILES>  (32) 
[H]/N=c1/[nH]c(-c2cccn2C)nn1C(=O)c1ccc(Cl)cc1

>  <Energy>  (32) 
106.32648562436535

>  <Genealogy>  (32) 
[H]/N=c1/[nH]c(-c2cccn2C)nn1C(=O)c1ccc(Cl)cc1 (cis-trans isomerization)
[H]/N=c1/[nH]c(-c2cccn2C)nn1C(=O)c1ccc(Cl)cc1 (3D coordinates assigned)
[H]/N=c1/[nH]c(-c2cccn2C)nn1C(=O)c1ccc(Cl)cc1 (optimized conformer: 106.32648562436535 kcal/mol)

>  <smiles>  (32) 
Cn1cccc1-c1nn(C(=O)c2ccc(Cl)cc2)c(=N)[nH]1

>  <score_type>  (32) 
oracle

>  <origin>  (32) 
adg

>  <m_score__min__energy>  (32) 
-6.8300000000000001

>  <m_primary>  (32) 
energy

$$$$
32:0
     RDKit          3D

 47 48  0  0  0  0  0  0  0  0999 V2000
   53.3930   28.2590   56.0480 C   0  0  0  0  0  0  0  0  0  0  0  0
   53.4040   29.5390   55.2150 C   0  0  0  0  0  0  0  0  0  0  0  0
   53.7160   29.2440   53.7970 N   0  0  0  0  0  0  0  0  0  0  0  0
   54.7990   28.2290   53.6820 C   0  0  0  0  0  0  0  0  0  0  0  0
   56.1490   28.8120   54.1210 C   0  0  0  0  0  0  0  0  0  0  0  0
   56.7500   29.6840   53.0500 C   0  0  0  0  0  0  0  0  0  0  0  0
   56.0980   30.8570   52.6460 C   0  0  0  0  0  0  0  0  0  0  0  0
   56.6400   31.6480   51.6320 C   0  0  0  0  0  0  0  0  0  0  0  0
   57.8300   31.2740   51.0000 C   0  0  0  0  0  0  0  0  0  0  0  0
   58.3370   32.0930   49.9910 O   0  0  0  0  0  0  0  0  0  0  0  0
   58.4880   30.0900   51.3830 C   0  0  0  0  0  0  0  0  0  0  0  0
   59.6960   29.7110   50.7070 N   0  0  0  0  0  0  0  0  0  0  0  0
   61.0260   30.7610   50.3340 S   0  0  0  0  0  0  0  0  0  0  0  0
   62.5590   30.0390   50.8810 C   0  0  0  0  0  0  0  0  0  0  0  0
   61.0670   31.0280   48.8550 O   0  0  0  0  0  0  0  0  0  0  0  0
   60.8260   32.0660   51.0520 O   0  0  0  0  0  0  0  0  0  0  0  0
   57.9400   29.3010   52.4110 C   0  0  0  0  0  0  0  0  0  0  0  0
   52.4890   28.8190   53.0800 C   0  0  0  0  0  0  0  0  0  0  0  0
   52.0150   29.8920   52.1260 C   0  0  0  0  0  0  0  0  0  0  0  0
   52.2140   29.6930   50.7480 C   0  0  0  0  0  0  0  0  0  0  0  0
   51.7630   30.6330   49.8210 C   0  0  0  0  0  0  0  0  0  0  0  0
   51.1100   31.7870   50.2550 C   0  0  0  0  0  0  0  0  0  0  0  0
   50.6610   32.7170   49.3230 O   0  0  0  0  0  0  0  0  0  0  0  0
   50.9110   32.0080   51.6210 C   0  0  0  0  0  0  0  0  0  0  0  0
   50.2630   33.1660   52.0410 O   0  0  0  0  0  0  0  0  0  0  0  0
   51.3620   31.0680   52.5640 C   0  0  0  0  0  0  0  0  0  0  0  0
   51.0950   31.4030   54.2760 Cl  0  0  0  0  0  0  0  0  0  0  0  0
   53.3952   28.5173   57.1172 H   0  0  0  0  0  0  0  0  0  0  0  0
   52.4898   27.6766   55.8134 H   0  0  0  0  0  0  0  0  0  0  0  0
   54.2860   27.6611   55.8134 H   0  0  0  0  0  0  0  0  0  0  0  0
   52.4146   30.0159   55.2744 H   0  0  0  0  0  0  0  0  0  0  0  0
   54.1787   30.2108   55.6130 H   0  0  0  0  0  0  0  0  0  0  0  0
   54.5542   27.3679   54.3213 H   0  0  0  0  0  0  0  0  0  0  0  0
   54.8773   27.9183   52.6297 H   0  0  0  0  0  0  0  0  0  0  0  0
   55.9996   29.4139   55.0295 H   0  0  0  0  0  0  0  0  0  0  0  0
   56.8389   27.9769   54.3126 H   0  0  0  0  0  0  0  0  0  0  0  0
   55.1561   31.1551   53.1297 H   0  0  0  0  0  0  0  0  0  0  0  0
   56.1274   32.5724   51.3277 H   0  0  0  0  0  0  0  0  0  0  0  0
   59.2540   31.9510   49.5850 H   0  0  0  0  0  0  0  0  0  0  0  0
   62.5864   30.0261   51.9806 H   0  0  0  0  0  0  0  0  0  0  0  0
   62.6361   29.0099   50.5002 H   0  0  0  0  0  0  0  0  0  0  0  0
   63.4015   30.6350   50.5002 H   0  0  0  0  0  0  0  0  0  0  0  0
   58.4489   28.3751   52.7170 H   0  0  0  0  0  0  0  0  0  0  0  0
   52.7049   27.9027   52.5110 H   0  0  0  0  0  0  0  0  0  0  0  0
   51.6971   28.6370   53.8215 H   0  0  0  0  0  0  0  0  0  0  0  0
   52.7304   28.7871   50.3977 H   0  0  0  0  0  0  0  0  0  0  0  0
   51.9226   30.4640   48.7458 H   0  0  0  0  0  0  0  0  0  0  0  0
  1  2  1  0
  2  3  1  0
  3  4  1  0
  4  5  1  0
  5  6  1  0
  6  7  2  0
  7  8  1  0
  8  9  2  0
  9 10  1  0
  9 11  1  0
 11 12  1  0
 12 13  1  0
 13 14  1  0
 13 15  2  0
 13 16  2  0
 11 17  2  0
  3 18  1  0
 18 19  1  0
 19 20  2  0
 20 21  1  0
 21 22  2  0
 22 23  1  0
 22 24  1  0
 24 25  1  0
 24 26  2  0
 26 27  1  0
 17  6  1  0
 26 19  1  0
  1 28  1  0
  1 29  1  0
  1 30  1  0
  2 31  1  0
  2 32  1  0
  4 33  1  0
  4 34  1  0
  5 35  1  0
  5 36  1  0
  7 37  1  0
  8 38  1  0
 10 39  1  0
 14 40  1  0
 14 41  1  0
 14 42  1  0
 17 43  1  0
 18 44  1  0
 18 45  1  0
 20 46  1  0
 21 47  1  0
M  CHG  3  12  -1  23  -1  25  -1
M  END
>  <UniqueID>  (33) 
33

>  <SMILES>  (33) 
CCN(CCc1ccc(O)c([N-]S(C)(=O)=O)c1)Cc1ccc([O-])c([O-])c1Cl

>  <Energy>  (33) 
43.80622821113247

>  <Genealogy>  (33) 
CCN(CCc1ccc(O)c([N-]S(C)(=O)=O)c1)Cc1ccc([O-])c([O-])c1Cl (protonated)
CCN(CCc1ccc(O)c([N-]S(C)(=O)=O)c1)Cc1ccc([O-])c([O-])c1Cl (3D coordinates assigned)
CCN(CCc1ccc(O)c([N-]S(C)(=O)=O)c1)Cc1ccc([O-])c([O-])c1Cl (optimized conformer: 43.80622821113247 kcal/mol)

>  <smiles>  (33) 
CCN(CCc1ccc(O)c(NS(C)(=O)=O)c1)Cc1ccc(O)c(O)c1Cl

>  <score_type>  (33) 
oracle

>  <origin>  (33) 
adg

>  <m_score__min__energy>  (33) 
-15.73

>  <m_primary>  (33) 
energy

$$$$
33:0
     RDKit          3D

 49 52  0  0  0  0  0  0  0  0999 V2000
   63.2840   32.7130   46.7620 C   0  0  0  0  0  0  0  0  0  0  0  0
   62.5420   31.7810   47.6030 N   0  0  0  0  0  0  0  0  0  0  0  0
   61.7320   30.8550   47.1140 N   0  0  0  0  0  0  0  0  0  0  0  0
   61.2230   30.1640   48.1520 C   0  0  0  0  0  0  0  0  0  0  0  0
   61.7210   30.6670   49.3360 C   0  0  0  0  0  0  0  0  0  0  0  0
   62.5510   31.7030   48.9530 C   0  0  0  0  0  0  0  0  0  0  0  0
   63.3140   32.5790   49.8710 C   0  0  0  0  0  0  0  0  0  0  0  0
   64.7070   32.4390   49.9740 C   0  0  0  0  0  0  0  0  0  0  0  0
   65.4550   33.2800   50.8150 C   0  0  0  0  0  0  0  0  0  0  0  0
   66.9440   33.0870   50.9580 C   0  0  0  0  0  0  0  0  0  0  0  0
   67.2060   31.7600   51.2410 F   0  0  0  0  0  0  0  0  0  0  0  0
   67.5970   33.4360   49.7880 F   0  0  0  0  0  0  0  0  0  0  0  0
   67.4440   33.8740   51.9810 F   0  0  0  0  0  0  0  0  0  0  0  0
   64.7860   34.2380   51.5900 C   0  0  0  0  0  0  0  0  0  0  0  0
   63.4020   34.3920   51.4850 C   0  0  0  0  0  0  0  0  0  0  0  0
   62.6580   33.5800   50.6150 C   0  0  0  0  0  0  0  0  0  0  0  0
   61.2620   33.7060   50.5240 O   0  0  0  0  0  0  0  0  0  0  0  0
   60.5180   33.6710   49.3350 C   0  0  0  0  0  0  0  0  0  0  0  0
   60.8800   34.4340   48.2110 C   0  0  0  0  0  0  0  0  0  0  0  0
   60.1250   34.3610   47.0360 C   0  0  0  0  0  0  0  0  0  0  0  0
   60.4900   35.1120   45.9650 F   0  0  0  0  0  0  0  0  0  0  0  0
   59.0080   33.5150   46.9660 C   0  0  0  0  0  0  0  0  0  0  0  0
   58.0610   33.4270   45.4830 S   0  0  0  0  0  0  0  0  0  0  0  0
   56.5990   33.5860   45.7950 O   0  0  0  0  0  0  0  0  0  0  0  0
   58.5030   34.5270   44.5580 O   0  0  0  0  0  0  0  0  0  0  0  0
   58.3280   31.8780   44.7440 N   0  0  0  0  0  0  0  0  0  0  0  0
   57.5550   30.8330   44.8320 C   0  0  0  0  0  0  0  0  0  0  0  0
   56.3320   30.8470   44.1490 C   0  0  0  0  0  0  0  0  0  0  0  0
   55.4810   29.7430   44.2240 C   0  0  0  0  0  0  0  0  0  0  0  0
   55.8370   28.6570   44.9580 N   0  0  0  0  0  0  0  0  0  0  0  0
   57.0150   28.6100   45.6330 C   0  0  0  0  0  0  0  0  0  0  0  0
   57.8970   29.6930   45.5860 C   0  0  0  0  0  0  0  0  0  0  0  0
   58.6590   32.7400   48.0820 C   0  0  0  0  0  0  0  0  0  0  0  0
   59.4150   32.8130   49.2560 C   0  0  0  0  0  0  0  0  0  0  0  0
   59.0680   32.0550   50.3250 F   0  0  0  0  0  0  0  0  0  0  0  0
   63.8431   33.4153   47.3978 H   0  0  0  0  0  0  0  0  0  0  0  0
   63.9870   32.1540   46.1269 H   0  0  0  0  0  0  0  0  0  0  0  0
   62.5817   33.2728   46.1269 H   0  0  0  0  0  0  0  0  0  0  0  0
   60.5166   29.3250   48.0682 H   0  0  0  0  0  0  0  0  0  0  0  0
   61.5054   30.3205   50.3575 H   0  0  0  0  0  0  0  0  0  0  0  0
   65.2194   31.6611   49.3889 H   0  0  0  0  0  0  0  0  0  0  0  0
   65.3551   34.8725   52.2854 H   0  0  0  0  0  0  0  0  0  0  0  0
   62.8908   35.1560   52.0891 H   0  0  0  0  0  0  0  0  0  0  0  0
   61.7609   35.0913   48.2559 H   0  0  0  0  0  0  0  0  0  0  0  0
   56.0428   31.7263   43.5547 H   0  0  0  0  0  0  0  0  0  0  0  0
   54.5206   29.7526   43.6878 H   0  0  0  0  0  0  0  0  0  0  0  0
   57.2756   27.7161   46.2188 H   0  0  0  0  0  0  0  0  0  0  0  0
   58.8505   29.6557   46.1332 H   0  0  0  0  0  0  0  0  0  0  0  0
   57.7866   32.0718   48.0333 H   0  0  0  0  0  0  0  0  0  0  0  0
  1  2  1  0
  2  3  1  0
  3  4  2  0
  4  5  1  0
  5  6  2  0
  6  7  1  0
  7  8  2  0
  8  9  1  0
  9 10  1  0
 10 11  1  0
 10 12  1  0
 10 13  1  0
  9 14  2  0
 14 15  1  0
 15 16  2  0
 16 17  1  0
 17 18  1  0
 18 19  2  0
 19 20  1  0
 20 21  1  0
 20 22  2  0
 22 23  1  0
 23 24  2  0
 23 25  2  0
 23 26  1  0
 26 27  2  3
 27 28  1  0
 28 29  2  0
 29 30  1  0
 30 31  1  0
 31 32  2  0
 22 33  1  0
 33 34  2  0
 34 35  1  0
  6  2  1  0
 16  7  1  0
 34 18  1  0
 32 27  1  0
  1 36  1  0
  1 37  1  0
  1 38  1  0
  4 39  1  0
  5 40  1  0
  8 41  1  0
 14 42  1  0
 15 43  1  0
 19 44  1  0
 28 45  1  0
 29 46  1  0
 31 47  1  0
 32 48  1  0
 33 49  1  0
M  CHG  1  30  -1
M  END
>  <UniqueID>  (34) 
34

>  <SMILES>  (34) 
Cn1nccc1-c1cc(C(F)(F)F)ccc1Oc1cc(F)c(S(=O)(=O)N=c2cc[n-]cc2)cc1F

>  <Energy>  (34) 
102.93928942497296

>  <Genealogy>  (34) 
Cn1nccc1-c1cc(C(F)(F)F)ccc1Oc1cc(F)c(S(=O)(=O)N=c2cc[n-]cc2)cc1F (protonated)
Cn1nccc1-c1cc(C(F)(F)F)ccc1Oc1cc(F)c(S(=O)(=O)N=c2cc[n-]cc2)cc1F (3D coordinates assigned)
Cn1nccc1-c1cc(C(F)(F)F)ccc1Oc1cc(F)c(S(=O)(=O)N=c2cc[n-]cc2)cc1F (optimized conformer: 102.93928942497296 kcal/mol)

>  <smiles>  (34) 
Cn1nccc1-c1cc(C(F)(F)F)ccc1Oc1cc(F)c(S(=O)(=O)N=c2cc[nH]cc2)cc1F

>  <score_type>  (34) 
oracle

>  <origin>  (34) 
adg

>  <m_score__min__energy>  (34) 
-10.119999999999999

>  <m_primary>  (34) 
energy

$$$$
34:0
     RDKit          3D

 35 37  0  0  0  0  0  0  0  0999 V2000
   55.0250   30.6410   53.4910 O   0  0  0  0  0  0  0  0  0  0  0  0
   55.2370   30.7570   52.2540 C   0  0  0  0  0  0  0  0  0  0  0  0
   54.1430   30.9220   51.3440 N   0  0  0  0  0  0  0  0  0  0  0  0
   52.7430   30.8720   51.7480 C   0  0  0  0  0  0  0  0  0  0  0  0
   51.8560   31.1080   50.5690 C   0  0  0  0  0  0  0  0  0  0  0  0
   51.5700   30.1620   49.6510 N   0  0  0  0  0  0  0  0  0  0  0  0
   50.7980   30.7370   48.7450 N   0  0  0  0  0  0  0  0  0  0  0  0
   50.6480   32.0130   49.1390 C   0  0  0  0  0  0  0  0  0  0  0  0
   49.9660   32.8560   48.4990 O   0  0  0  0  0  0  0  0  0  0  0  0
   51.2990   32.3020   50.2810 N   0  0  0  0  0  0  0  0  0  0  0  0
   56.6120   30.7170   51.7470 C   0  0  0  0  0  0  0  0  0  0  0  0
   57.2920   31.7680   51.1590 C   0  0  0  0  0  0  0  0  0  0  0  0
   58.5300   31.2540   50.8460 C   0  0  0  0  0  0  0  0  0  0  0  0
   59.8410   32.1000   50.0440 S   0  0  0  0  0  0  0  0  0  0  0  0
   61.1450   31.6250   50.6170 O   0  0  0  0  0  0  0  0  0  0  0  0
   59.7210   33.5820   50.2660 O   0  0  0  0  0  0  0  0  0  0  0  0
   59.8030   31.7660   48.3420 N   0  0  0  0  0  0  0  0  0  0  0  0
   59.3460   32.7040   47.3490 C   0  0  0  0  0  0  0  0  0  0  0  0
   58.1510   32.4980   46.6310 C   0  0  0  0  0  0  0  0  0  0  0  0
   57.7320   33.4250   45.6710 C   0  0  0  0  0  0  0  0  0  0  0  0
   58.4930   34.5680   45.4210 C   0  0  0  0  0  0  0  0  0  0  0  0
   59.6740   34.7880   46.1310 C   0  0  0  0  0  0  0  0  0  0  0  0
   60.1010   33.8640   47.0920 C   0  0  0  0  0  0  0  0  0  0  0  0
   61.2560   34.0970   47.7640 F   0  0  0  0  0  0  0  0  0  0  0  0
   58.5400   29.9370   51.2520 C   0  0  0  0  0  0  0  0  0  0  0  0
   57.3770   29.6470   51.7900 O   0  0  0  0  0  0  0  0  0  0  0  0
   52.5234   29.8825   52.1754 H   0  0  0  0  0  0  0  0  0  0  0  0
   52.5581   31.6550   52.4982 H   0  0  0  0  0  0  0  0  0  0  0  0
   56.9246   32.7894   50.9808 H   0  0  0  0  0  0  0  0  0  0  0  0
   60.0600   30.7970   48.0500 H   0  0  0  0  0  0  0  0  0  0  0  0
   57.5436   31.6021   46.8269 H   0  0  0  0  0  0  0  0  0  0  0  0
   56.8006   33.2528   45.1118 H   0  0  0  0  0  0  0  0  0  0  0  0
   58.1620   35.2950   44.6647 H   0  0  0  0  0  0  0  0  0  0  0  0
   60.2714   35.6905   45.9349 H   0  0  0  0  0  0  0  0  0  0  0  0
   59.3850   29.2412   51.1432 H   0  0  0  0  0  0  0  0  0  0  0  0
  1  2  2  0
  2  3  1  0
  3  4  1  0
  4  5  1  0
  5  6  2  0
  6  7  1  0
  7  8  1  0
  8  9  2  0
  8 10  1  0
  2 11  1  0
 11 12  2  0
 12 13  1  0
 13 14  1  0
 14 15  2  0
 14 16  2  0
 14 17  1  0
 17 18  1  0
 18 19  2  0
 19 20  1  0
 20 21  2  0
 21 22  1  0
 22 23  2  0
 23 24  1  0
 13 25  2  0
 25 26  1  0
 10  5  1  0
 26 11  1  0
 23 18  1  0
  4 27  1  0
  4 28  1  0
 12 29  1  0
 17 30  1  0
 19 31  1  0
 20 32  1  0
 21 33  1  0
 22 34  1  0
 25 35  1  0
M  CHG  3   3  -1   7  -1  10  -1
M  END
>  <UniqueID>  (35) 
35

>  <SMILES>  (35) 
O=C([N-]Cc1n[n-]c(=O)[n-]1)c1cc(S(=O)(=O)Nc2ccccc2F)co1

>  <Energy>  (35) 
95.65916248622774

>  <Genealogy>  (35) 
O=C([N-]Cc1n[n-]c(=O)[n-]1)c1cc(S(=O)(=O)Nc2ccccc2F)co1 (protonated)
O=C([N-]Cc1n[n-]c(=O)[n-]1)c1cc(S(=O)(=O)Nc2ccccc2F)co1 (3D coordinates assigned)
O=C([N-]Cc1n[n-]c(=O)[n-]1)c1cc(S(=O)(=O)Nc2ccccc2F)co1 (optimized conformer: 95.65916248622774 kcal/mol)

>  <smiles>  (35) 
O=C(NCc1n[nH]c(=O)[nH]1)c1cc(S(=O)(=O)Nc2ccccc2F)co1

>  <score_type>  (35) 
oracle

>  <origin>  (35) 
adg

>  <m_score__min__energy>  (35) 
-14.24

>  <m_primary>  (35) 
energy

$$$$
35:0
     RDKit          3D

 26 27  0  0  0  0  0  0  0  0999 V2000
   60.7476   29.0091   44.6094 H   0  0  0  0  0  0  0  0  0  0  0  0
   59.6950   28.7620   44.8120 C   0  0  0  0  0  0  0  0  0  0  0  0
   58.6940   29.7460   44.6290 C   0  0  0  0  0  0  0  0  0  0  0  0
   58.9731   30.7528   44.2849 H   0  0  0  0  0  0  0  0  0  0  0  0
   57.3430   29.4430   44.8850 C   0  0  0  0  0  0  0  0  0  0  0  0
   56.5534   30.1965   44.7478 H   0  0  0  0  0  0  0  0  0  0  0  0
   57.0440   28.1550   45.3180 C   0  0  0  0  0  0  0  0  0  0  0  0
   55.8820   27.6390   45.6160 O   0  0  0  0  0  0  0  0  0  0  0  0
   56.1350   26.3900   45.9700 C   0  0  0  0  0  0  0  0  0  0  0  0
   55.1980   25.5690   46.3380 N   0  0  0  0  0  0  0  0  0  0  0  0
   54.6870   24.4770   45.5090 C   0  0  0  0  0  0  0  0  0  0  0  0
   54.5844   24.8283   44.4717 H   0  0  0  0  0  0  0  0  0  0  0  0
   53.7096   24.1609   45.9024 H   0  0  0  0  0  0  0  0  0  0  0  0
   55.6420   23.2820   45.5430 C   0  0  0  0  0  0  0  0  0  0  0  0
   55.0552   22.3536   45.6044 H   0  0  0  0  0  0  0  0  0  0  0  0
   56.2976   23.3808   46.4207 H   0  0  0  0  0  0  0  0  0  0  0  0
   56.6570   23.2360   44.0750 S   0  0  0  0  0  0  0  0  0  0  0  0
   55.9030   22.5760   42.9560 O   0  0  0  0  0  0  0  0  0  0  0  0
   57.9150   22.4630   44.3530 O   0  0  0  0  0  0  0  0  0  0  0  0
   57.0710   24.8490   43.6100 N   0  0  0  0  0  0  0  0  0  0  0  0
   56.3810   25.4860   44.0680 H   0  0  0  0  0  0  0  0  0  0  0  0
   58.0030   25.0600   44.0320 H   0  0  0  0  0  0  0  0  0  0  0  0
   57.4530   26.0550   45.9160 N   0  0  0  0  0  0  0  0  0  0  0  0
   58.0060   27.2050   45.4950 C   0  0  0  0  0  0  0  0  0  0  0  0
   59.3520   27.4680   45.2520 C   0  0  0  0  0  0  0  0  0  0  0  0
   60.1195   26.6937   45.3983 H   0  0  0  0  0  0  0  0  0  0  0  0
  1  2  1  0
  2  3  2  0
  3  4  1  0
  3  5  1  0
  5  6  1  0
  5  7  2  0
  7  8  1  0
  8  9  1  0
  9 10  2  0
 10 11  1  0
 11 12  1  0
 11 13  1  0
 11 14  1  0
 14 15  1  0
 14 16  1  0
 14 17  1  0
 17 18  2  0
 17 19  2  0
 17 20  1  0
 20 21  1  0
 20 22  1  0
  9 23  1  0
 23 24  1  0
 24 25  2  0
 25 26  1  0
 25  2  1  0
 24  7  1  0
M  CHG  1  23  -1
M  END
>  <UniqueID>  (36) 
36

>  <SMILES>  (36) 
NS(=O)(=O)CC/N=c1\[n-]c2ccccc2o1

>  <Energy>  (36) 
55.26884680671059

>  <Genealogy>  (36) 
NS(=O)(=O)CCN=c1[n-]c2ccccc2o1 (protonated)
NS(=O)(=O)CC/N=c1\[n-]c2ccccc2o1 (cis-trans isomerization)
NS(=O)(=O)CC/N=c1\[n-]c2ccccc2o1 (3D coordinates assigned)
NS(=O)(=O)CC/N=c1\[n-]c2ccccc2o1 (optimized conformer: 55.26884680671059 kcal/mol)

>  <smiles>  (36) 
NS(=O)(=O)CCN=c1[nH]c2ccccc2o1

>  <score_type>  (36) 
oracle

>  <origin>  (36) 
adg

>  <m_score__min__energy>  (36) 
-7.71

>  <m_primary>  (36) 
energy

$$$$
36:0
     RDKit          3D

 48 50  0  0  0  0  0  0  0  0999 V2000
   59.9590   29.4280   44.2120 O   0  0  0  0  0  0  0  0  0  0  0  0
   58.8710   29.5690   44.8280 C   0  0  0  0  0  0  0  0  0  0  0  0
   57.9200   30.5920   44.3340 C   0  0  0  0  0  0  0  0  0  0  0  0
   57.3920   31.5750   45.0750 C   0  0  0  0  0  0  0  0  0  0  0  0
   58.1060   32.8060   45.4740 C   0  0  0  0  0  0  0  0  0  0  0  0
   58.6830   33.6080   44.4800 C   0  0  0  0  0  0  0  0  0  0  0  0
   59.3650   34.7770   44.8260 C   0  0  0  0  0  0  0  0  0  0  0  0
   59.4880   35.1450   46.1660 C   0  0  0  0  0  0  0  0  0  0  0  0
   58.9510   34.3340   47.1650 C   0  0  0  0  0  0  0  0  0  0  0  0
   58.2730   33.1590   46.8280 C   0  0  0  0  0  0  0  0  0  0  0  0
   57.7830   32.3440   47.8400 O   0  0  0  0  0  0  0  0  0  0  0  0
   58.5550   28.6670   45.9690 C   0  0  0  0  0  0  0  0  0  0  0  0
   57.3720   28.0130   45.9610 C   0  0  0  0  0  0  0  0  0  0  0  0
   57.2100   26.5470   45.8650 C   0  0  0  0  0  0  0  0  0  0  0  0
   58.3590   25.7420   45.8230 C   0  0  0  0  0  0  0  0  0  0  0  0
   58.2470   24.3510   45.7530 C   0  0  0  0  0  0  0  0  0  0  0  0
   56.9880   23.7520   45.7460 C   0  0  0  0  0  0  0  0  0  0  0  0
   55.8390   24.5420   45.8190 C   0  0  0  0  0  0  0  0  0  0  0  0
   55.9430   25.9350   45.8920 C   0  0  0  0  0  0  0  0  0  0  0  0
   54.7870   26.6970   46.0140 O   0  0  0  0  0  0  0  0  0  0  0  0
   59.4820   28.6210   47.1370 C   0  0  0  0  0  0  0  0  0  0  0  0
   60.0750   27.5450   47.4220 O   0  0  0  0  0  0  0  0  0  0  0  0
   59.6660   29.7780   48.0400 C   0  0  0  0  0  0  0  0  0  0  0  0
   58.8270   29.9080   49.1540 C   0  0  0  0  0  0  0  0  0  0  0  0
   58.9770   30.9810   50.0480 C   0  0  0  0  0  0  0  0  0  0  0  0
   58.1050   31.1180   51.1850 N   0  0  0  0  0  0  0  0  0  0  0  0
   58.0170   32.2050   51.7930 O   0  0  0  0  0  0  0  0  0  0  0  0
   57.3430   30.0570   51.6150 O   0  0  0  0  0  0  0  0  0  0  0  0
   59.9910   31.9260   49.8150 C   0  0  0  0  0  0  0  0  0  0  0  0
   60.8600   31.8060   48.7160 C   0  0  0  0  0  0  0  0  0  0  0  0
   61.8940   32.7960   48.5170 N   0  0  0  0  0  0  0  0  0  0  0  0
   61.6220   34.0140   48.4780 O   0  0  0  0  0  0  0  0  0  0  0  0
   63.1980   32.4110   48.3170 O   0  0  0  0  0  0  0  0  0  0  0  0
   60.6980   30.7130   47.8320 C   0  0  0  0  0  0  0  0  0  0  0  0
   61.5630   30.5410   46.7550 O   0  0  0  0  0  0  0  0  0  0  0  0
   57.6243   30.5402   43.2757 H   0  0  0  0  0  0  0  0  0  0  0  0
   56.3512   31.4575   45.4110 H   0  0  0  0  0  0  0  0  0  0  0  0
   58.5985   33.3157   43.4229 H   0  0  0  0  0  0  0  0  0  0  0  0
   59.8058   35.4084   44.0405 H   0  0  0  0  0  0  0  0  0  0  0  0
   60.0091   36.0758   46.4347 H   0  0  0  0  0  0  0  0  0  0  0  0
   59.0612   34.6197   48.2215 H   0  0  0  0  0  0  0  0  0  0  0  0
   56.4573   28.6200   46.0315 H   0  0  0  0  0  0  0  0  0  0  0  0
   59.3545   26.2094   45.8454 H   0  0  0  0  0  0  0  0  0  0  0  0
   59.1524   23.7283   45.7034 H   0  0  0  0  0  0  0  0  0  0  0  0
   56.8999   22.6573   45.6830 H   0  0  0  0  0  0  0  0  0  0  0  0
   54.8471   24.0665   45.8191 H   0  0  0  0  0  0  0  0  0  0  0  0
   58.0402   29.1599   49.3311 H   0  0  0  0  0  0  0  0  0  0  0  0
   60.1069   32.7749   50.5049 H   0  0  0  0  0  0  0  0  0  0  0  0
  1  2  2  0
  2  3  1  0
  3  4  2  3
  4  5  1  0
  5  6  2  0
  6  7  1  0
  7  8  2  0
  8  9  1  0
  9 10  2  0
 10 11  1  0
  2 12  1  0
 12 13  2  3
 13 14  1  0
 14 15  2  0
 15 16  1  0
 16 17  2  0
 17 18  1  0
 18 19  2  0
 19 20  1  0
 12 21  1  0
 21 22  2  0
 21 23  1  0
 23 24  2  0
 24 25  1  0
 25 26  1  0
 26 27  2  0
 26 28  1  0
 25 29  2  0
 29 30  1  0
 30 31  1  0
 31 32  2  0
 31 33  1  0
 30 34  2  0
 34 35  1  0
 10  5  1  0
 19 14  1  0
 34 23  1  0
  3 36  1  0
  4 37  1  0
  6 38  1  0
  7 39  1  0
  8 40  1  0
  9 41  1  0
 13 42  1  0
 15 43  1  0
 16 44  1  0
 17 45  1  0
 18 46  1  0
 24 47  1  0
 29 48  1  0
M  CHG  7  11  -1  20  -1  26   1  28  -1  31   1  33  -1  35  -1
M  END
>  <UniqueID>  (37) 
37

>  <SMILES>  (37) 
O=C(C=Cc1ccccc1[O-])C(=Cc1ccccc1[O-])C(=O)c1cc([N+](=O)[O-])cc([N+](=O)[O-])c1[O-]

>  <Energy>  (37) 
83.57022254017522

>  <Genealogy>  (37) 
O=C(C=Cc1ccccc1[O-])C(=Cc1ccccc1[O-])C(=O)c1cc([N+](=O)[O-])cc([N+](=O)[O-])c1[O-] (protonated)
O=C(C=Cc1ccccc1[O-])C(=Cc1ccccc1[O-])C(=O)c1cc([N+](=O)[O-])cc([N+](=O)[O-])c1[O-] (3D coordinates assigned)
O=C(C=Cc1ccccc1[O-])C(=Cc1ccccc1[O-])C(=O)c1cc([N+](=O)[O-])cc([N+](=O)[O-])c1[O-] (optimized conformer: 83.57022254017522 kcal/mol)

>  <smiles>  (37) 
O=C(C=Cc1ccccc1O)C(=Cc1ccccc1O)C(=O)c1cc([N+](=O)[O-])cc([N+](=O)[O-])c1O

>  <score_type>  (37) 
oracle

>  <origin>  (37) 
adg

>  <m_score__min__energy>  (37) 
-17.460000000000001

>  <m_primary>  (37) 
energy

$$$$
37:0
     RDKit          3D

 53 56  0  0  0  0  0  0  0  0999 V2000
   53.4940   23.9700   44.7390 C   0  0  0  0  0  0  0  0  0  0  0  0
   54.4290   24.6110   45.7080 C   0  0  0  0  0  0  0  0  0  0  0  0
   54.3790   25.8580   45.8950 O   0  0  0  0  0  0  0  0  0  0  0  0
   55.4150   23.8160   46.3740 N   0  0  0  0  0  0  0  0  0  0  0  0
   56.7690   24.2740   46.6660 C   0  0  0  0  0  0  0  0  0  0  0  0
   57.0790   25.5250   45.8900 C   0  0  0  0  0  0  0  0  0  0  0  0
   56.9830   26.7780   46.5090 C   0  0  0  0  0  0  0  0  0  0  0  0
   57.2930   27.9410   45.8000 C   0  0  0  0  0  0  0  0  0  0  0  0
   57.7100   27.8730   44.4630 C   0  0  0  0  0  0  0  0  0  0  0  0
   58.0340   29.0880   43.7650 N   0  0  0  0  0  0  0  0  0  0  0  0
   56.9980   30.4790   43.7310 S   0  0  0  0  0  0  0  0  0  0  0  0
   55.6980   30.1420   44.4060 O   0  0  0  0  0  0  0  0  0  0  0  0
   56.7190   30.8480   42.3030 O   0  0  0  0  0  0  0  0  0  0  0  0
   57.7590   31.8030   44.6190 C   0  0  0  0  0  0  0  0  0  0  0  0
   57.9890   33.0100   43.9540 C   0  0  0  0  0  0  0  0  0  0  0  0
   58.5750   34.0860   44.6190 C   0  0  0  0  0  0  0  0  0  0  0  0
   58.9480   33.9690   45.9590 C   0  0  0  0  0  0  0  0  0  0  0  0
   59.6830   35.3650   46.7440 Cl  0  0  0  0  0  0  0  0  0  0  0  0
   58.7340   32.7570   46.6480 C   0  0  0  0  0  0  0  0  0  0  0  0
   59.1240   32.6270   48.0990 C   0  0  0  0  0  0  0  0  0  0  0  0
   58.5240   31.4590   48.6410 O   0  0  0  0  0  0  0  0  0  0  0  0
   59.1580   30.5180   49.4670 C   0  0  0  0  0  0  0  0  0  0  0  0
   59.2810   30.8030   50.8380 C   0  0  0  0  0  0  0  0  0  0  0  0
   59.9290   29.8910   51.6920 C   0  0  0  0  0  0  0  0  0  0  0  0
   60.4470   28.6930   51.1830 C   0  0  0  0  0  0  0  0  0  0  0  0
   60.2900   28.4510   49.8180 C   0  0  0  0  0  0  0  0  0  0  0  0
   60.6920   27.3600   49.0850 C   0  0  0  0  0  0  0  0  0  0  0  0
   60.2600   27.6640   47.8010 C   0  0  0  0  0  0  0  0  0  0  0  0
   60.4740   26.6510   46.3890 Cl  0  0  0  0  0  0  0  0  0  0  0  0
   59.6400   28.8630   47.7750 N   0  0  0  0  0  0  0  0  0  0  0  0
   59.6670   29.3320   49.0130 N   0  0  0  0  0  0  0  0  0  0  0  0
   58.1280   31.6760   45.9700 C   0  0  0  0  0  0  0  0  0  0  0  0
   57.9030   30.5080   46.6250 F   0  0  0  0  0  0  0  0  0  0  0  0
   57.7920   26.6160   43.8390 C   0  0  0  0  0  0  0  0  0  0  0  0
   57.4820   25.4520   44.5480 C   0  0  0  0  0  0  0  0  0  0  0  0
   52.7083   23.4314   45.2891 H   0  0  0  0  0  0  0  0  0  0  0  0
   53.0342   24.7437   44.1066 H   0  0  0  0  0  0  0  0  0  0  0  0
   54.0499   23.2621   44.1066 H   0  0  0  0  0  0  0  0  0  0  0  0
   56.8562   24.4843   47.7422 H   0  0  0  0  0  0  0  0  0  0  0  0
   57.4817   23.4882   46.3751 H   0  0  0  0  0  0  0  0  0  0  0  0
   56.6618   26.8464   47.5588 H   0  0  0  0  0  0  0  0  0  0  0  0
   57.2092   28.9196   46.2953 H   0  0  0  0  0  0  0  0  0  0  0  0
   58.8690   29.1060   43.1360 H   0  0  0  0  0  0  0  0  0  0  0  0
   57.7051   33.1122   42.8962 H   0  0  0  0  0  0  0  0  0  0  0  0
   58.7444   35.0325   44.0848 H   0  0  0  0  0  0  0  0  0  0  0  0
   60.2183   32.5501   48.1804 H   0  0  0  0  0  0  0  0  0  0  0  0
   58.7796   33.5115   48.6550 H   0  0  0  0  0  0  0  0  0  0  0  0
   58.8705   31.7394   51.2437 H   0  0  0  0  0  0  0  0  0  0  0  0
   60.0291   30.1198   52.7633 H   0  0  0  0  0  0  0  0  0  0  0  0
   60.9585   27.9700   51.8354 H   0  0  0  0  0  0  0  0  0  0  0  0
   61.2265   26.4633   49.4317 H   0  0  0  0  0  0  0  0  0  0  0  0
   58.1022   26.5480   42.7858 H   0  0  0  0  0  0  0  0  0  0  0  0
   57.5544   24.4733   44.0511 H   0  0  0  0  0  0  0  0  0  0  0  0
  1  2  1  0
  2  3  2  0
  2  4  1  0
  4  5  1  0
  5  6  1  0
  6  7  2  0
  7  8  1  0
  8  9  2  0
  9 10  1  0
 10 11  1  0
 11 12  2  0
 11 13  2  0
 11 14  1  0
 14 15  2  0
 15 16  1  0
 16 17  2  0
 17 18  1  0
 17 19  1  0
 19 20  1  0
 20 21  1  0
 21 22  1  0
 22 23  2  0
 23 24  1  0
 24 25  2  0
 25 26  1  0
 26 27  2  0
 27 28  1  0
 28 29  1  0
 28 30  2  0
 30 31  1  0
 19 32  2  0
 32 33  1  0
  9 34  1  0
 34 35  2  0
 35  6  1  0
 32 14  1  0
 31 22  1  0
 31 26  1  0
  1 36  1  0
  1 37  1  0
  1 38  1  0
  5 39  1  0
  5 40  1  0
  7 41  1  0
  8 42  1  0
 10 43  1  0
 15 44  1  0
 16 45  1  0
 20 46  1  0
 20 47  1  0
 23 48  1  0
 24 49  1  0
 25 50  1  0
 27 51  1  0
 34 52  1  0
 35 53  1  0
M  CHG  1   4  -1
M  END
>  <UniqueID>  (38) 
38

>  <SMILES>  (38) 
CC(=O)[N-]Cc1ccc(NS(=O)(=O)c2ccc(Cl)c(COc3cccc4cc(Cl)nn34)c2F)cc1

>  <Energy>  (38) 
94.12819318942303

>  <Genealogy>  (38) 
CC(=O)[N-]Cc1ccc(NS(=O)(=O)c2ccc(Cl)c(COc3cccc4cc(Cl)nn34)c2F)cc1 (protonated)
CC(=O)[N-]Cc1ccc(NS(=O)(=O)c2ccc(Cl)c(COc3cccc4cc(Cl)nn34)c2F)cc1 (3D coordinates assigned)
CC(=O)[N-]Cc1ccc(NS(=O)(=O)c2ccc(Cl)c(COc3cccc4cc(Cl)nn34)c2F)cc1 (optimized conformer: 94.12819318942303 kcal/mol)

>  <smiles>  (38) 
CC(=O)NCc1ccc(NS(=O)(=O)c2ccc(Cl)c(COc3cccc4cc(Cl)nn34)c2F)cc1

>  <score_type>  (38) 
oracle

>  <origin>  (38) 
adg

>  <m_score__min__energy>  (38) 
-12.41

>  <m_primary>  (38) 
energy

$$$$
38:0
     RDKit          3D

 31 33  0  0  0  0  0  0  0  0999 V2000
   60.6750   29.0790   44.1250 H   0  0  0  0  0  0  0  0  0  0  0  0
   59.8850   29.6000   44.4820 O   0  0  0  0  0  0  0  0  0  0  0  0
   58.6940   29.0050   44.9110 C   0  0  0  0  0  0  0  0  0  0  0  0
   57.4370   29.6190   44.7000 C   0  0  0  0  0  0  0  0  0  0  0  0
   57.3110   30.9870   44.1450 C   0  0  0  0  0  0  0  0  0  0  0  0
   57.5715   31.1742   43.0928 H   0  0  0  0  0  0  0  0  0  0  0  0
   56.8960   31.9670   44.8890 N   0  0  0  0  0  0  0  0  0  0  0  0
   57.7100   33.0030   45.4680 C   0  0  0  0  0  0  0  0  0  0  0  0
   57.7650   33.1070   46.8630 C   0  0  0  0  0  0  0  0  0  0  0  0
   57.1856   32.4102   47.4866 H   0  0  0  0  0  0  0  0  0  0  0  0
   58.5310   34.0650   47.4520 N   0  0  0  0  0  0  0  0  0  0  0  0
   59.2690   34.9390   46.7210 C   0  0  0  0  0  0  0  0  0  0  0  0
   59.8741   35.7056   47.2271 H   0  0  0  0  0  0  0  0  0  0  0  0
   59.2600   34.8650   45.3270 C   0  0  0  0  0  0  0  0  0  0  0  0
   59.8606   35.5672   44.7302 H   0  0  0  0  0  0  0  0  0  0  0  0
   58.4820   33.8920   44.6970 C   0  0  0  0  0  0  0  0  0  0  0  0
   58.4724   33.8202   43.5994 H   0  0  0  0  0  0  0  0  0  0  0  0
   56.2690   28.9150   45.0500 C   0  0  0  0  0  0  0  0  0  0  0  0
   55.1360   29.4350   44.8460 O   0  0  0  0  0  0  0  0  0  0  0  0
   56.3440   27.6820   45.6260 N   0  0  0  0  0  0  0  0  0  0  0  0
   55.1710   27.0360   45.9570 O   0  0  0  0  0  0  0  0  0  0  0  0
   57.5490   27.0890   45.8890 C   0  0  0  0  0  0  0  0  0  0  0  0
   57.6100   25.8220   46.5030 C   0  0  0  0  0  0  0  0  0  0  0  0
   56.6802   25.3048   46.7824 H   0  0  0  0  0  0  0  0  0  0  0  0
   58.8430   25.2190   46.7590 C   0  0  0  0  0  0  0  0  0  0  0  0
   58.8805   24.2313   47.2418 H   0  0  0  0  0  0  0  0  0  0  0  0
   60.0260   25.8640   46.4050 C   0  0  0  0  0  0  0  0  0  0  0  0
   60.9946   25.3833   46.6066 H   0  0  0  0  0  0  0  0  0  0  0  0
   59.9850   27.1190   45.7950 C   0  0  0  0  0  0  0  0  0  0  0  0
   60.9229   27.6217   45.5162 H   0  0  0  0  0  0  0  0  0  0  0  0
   58.7510   27.7460   45.5340 C   0  0  0  0  0  0  0  0  0  0  0  0
  1  2  1  0
  2  3  1  0
  3  4  2  0
  4  5  1  0
  5  6  1  0
  5  7  2  0
  7  8  1  0
  8  9  2  0
  9 10  1  0
  9 11  1  0
 11 12  2  0
 12 13  1  0
 12 14  1  0
 14 15  1  0
 14 16  2  0
 16 17  1  0
  4 18  1  0
 18 19  2  0
 18 20  1  0
 20 21  1  0
 20 22  1  0
 22 23  2  0
 23 24  1  0
 23 25  1  0
 25 26  1  0
 25 27  2  0
 27 28  1  0
 27 29  1  0
 29 30  1  0
 29 31  2  0
 31  3  1  0
 16  8  1  0
 31 22  1  0
M  CHG  1  21  -1
M  END
>  <UniqueID>  (39) 
39

>  <SMILES>  (39) 
O=c1c(/C=N/c2cccnc2)c(O)c2ccccc2n1[O-]

>  <Energy>  (39) 
50.41557151833422

>  <Genealogy>  (39) 
O=c1c(C=Nc2cccnc2)c(O)c2ccccc2n1[O-] (protonated)
O=c1c(/C=N/c2cccnc2)c(O)c2ccccc2n1[O-] (cis-trans isomerization)
O=c1c(/C=N/c2cccnc2)c(O)c2ccccc2n1[O-] (3D coordinates assigned)
O=c1c(/C=N/c2cccnc2)c(O)c2ccccc2n1[O-] (optimized conformer: 50.41557151833422 kcal/mol)

>  <smiles>  (39) 
O=c1c(C=Nc2cccnc2)c(O)c2ccccc2n1O

>  <score_type>  (39) 
oracle

>  <origin>  (39) 
adg

>  <m_score__min__energy>  (39) 
-11.210000000000001

>  <m_primary>  (39) 
energy

$$$$
39:0
     RDKit          3D

 25 26  0  0  0  0  0  0  0  0999 V2000
   57.2666   32.4247   43.6710 H   0  0  0  0  0  0  0  0  0  0  0  0
   57.8060   32.1520   44.5900 C   0  0  0  0  0  0  0  0  0  0  0  0
   58.5760   33.0450   45.3210 C   0  0  0  0  0  0  0  0  0  0  0  0
   58.8220   34.7350   44.9340 Cl  0  0  0  0  0  0  0  0  0  0  0  0
   59.2340   32.2530   46.6490 S   0  0  0  0  0  0  0  0  0  0  0  0
   58.5460   30.7580   46.3080 C   0  0  0  0  0  0  0  0  0  0  0  0
   58.7620   29.3200   47.2900 Cl  0  0  0  0  0  0  0  0  0  0  0  0
   57.7880   30.8660   45.1460 C   0  0  0  0  0  0  0  0  0  0  0  0
   56.8720   29.5340   44.4500 S   0  0  0  0  0  0  0  0  0  0  0  0
   55.4970   29.4710   45.0540 O   0  0  0  0  0  0  0  0  0  0  0  0
   56.7430   29.7530   42.9700 O   0  0  0  0  0  0  0  0  0  0  0  0
   57.6940   28.0340   44.7380 N   0  0  0  0  0  0  0  0  0  0  0  0
   57.1920   27.0440   45.4150 C   0  0  0  0  0  0  0  0  0  0  0  0
   58.0610   25.7820   46.1270 S   0  0  0  0  0  0  0  0  0  0  0  0
   56.6290   25.0930   46.6970 C   0  0  0  0  0  0  0  0  0  0  0  0
   56.5400   23.7980   47.4380 C   0  0  0  0  0  0  0  0  0  0  0  0
   56.7858   23.9695   48.4964 H   0  0  0  0  0  0  0  0  0  0  0  0
   57.2500   23.0854   46.9930 H   0  0  0  0  0  0  0  0  0  0  0  0
   55.1340   23.2180   47.3380 C   0  0  0  0  0  0  0  0  0  0  0  0
   54.7329   23.0525   48.3488 H   0  0  0  0  0  0  0  0  0  0  0  0
   54.4847   23.9217   46.7965 H   0  0  0  0  0  0  0  0  0  0  0  0
   55.1697   22.2612   46.7965 H   0  0  0  0  0  0  0  0  0  0  0  0
   55.5490   25.8160   46.3230 N   0  0  0  0  0  0  0  0  0  0  0  0
   55.8660   26.9010   45.6200 N   0  0  0  0  0  0  0  0  0  0  0  0
   55.1440   27.5640   45.2590 H   0  0  0  0  0  0  0  0  0  0  0  0
  1  2  1  0
  2  3  2  0
  3  4  1  0
  3  5  1  0
  5  6  1  0
  6  7  1  0
  6  8  2  0
  8  9  1  0
  9 10  2  0
  9 11  2  0
  9 12  1  0
 12 13  2  0
 13 14  1  0
 14 15  1  0
 15 16  1  0
 16 17  1  0
 16 18  1  0
 16 19  1  0
 19 20  1  0
 19 21  1  0
 19 22  1  0
 15 23  2  0
 23 24  1  0
 24 25  1  0
  8  2  1  0
 24 13  1  0
M  END
>  <UniqueID>  (40) 
40

>  <SMILES>  (40) 
CCc1n[nH]/c(=N/S(=O)(=O)c2cc(Cl)sc2Cl)s1

>  <Energy>  (40) 
84.38423576062293

>  <Genealogy>  (40) 
CCc1n[nH]/c(=N/S(=O)(=O)c2cc(Cl)sc2Cl)s1 (cis-trans isomerization)
CCc1n[nH]/c(=N/S(=O)(=O)c2cc(Cl)sc2Cl)s1 (3D coordinates assigned)
CCc1n[nH]/c(=N/S(=O)(=O)c2cc(Cl)sc2Cl)s1 (optimized conformer: 84.38423576062293 kcal/mol)

>  <smiles>  (40) 
CCc1n[nH]c(=NS(=O)(=O)c2cc(Cl)sc2Cl)s1

>  <score_type>  (40) 
oracle

>  <origin>  (40) 
adg

>  <m_score__min__energy>  (40) 
-8.5700000000000003

>  <m_primary>  (40) 
energy

$$$$
40:0
     RDKit          3D

 57 60  0  0  0  0  0  0  0  0999 V2000
   55.1680   26.6910   46.0420 O   0  0  0  0  0  0  0  0  0  0  0  0
   56.4280   26.7060   46.0480 C   0  0  0  0  0  0  0  0  0  0  0  0
   57.1710   27.1700   44.8370 C   0  0  0  0  0  0  0  0  0  0  0  0
   57.4980   28.6300   44.9490 C   0  0  0  0  0  0  0  0  0  0  0  0
   56.6050   29.6760   44.8240 C   0  0  0  0  0  0  0  0  0  0  0  0
   55.2380   29.5620   44.5950 O   0  0  0  0  0  0  0  0  0  0  0  0
   57.2570   30.8450   44.9760 N   0  0  0  0  0  0  0  0  0  0  0  0
   56.6750   32.1840   45.0160 C   0  0  0  0  0  0  0  0  0  0  0  0
   57.6200   33.1320   45.6920 C   0  0  0  0  0  0  0  0  0  0  0  0
   58.2870   34.1240   44.9580 C   0  0  0  0  0  0  0  0  0  0  0  0
   59.1920   34.9650   45.6080 C   0  0  0  0  0  0  0  0  0  0  0  0
   59.4280   34.8070   46.9750 C   0  0  0  0  0  0  0  0  0  0  0  0
   58.7570   33.7990   47.6710 C   0  0  0  0  0  0  0  0  0  0  0  0
   57.8810   32.9890   47.0220 N   0  0  0  0  0  0  0  0  0  0  0  0
   58.5400   30.4910   45.2030 C   0  0  0  0  0  0  0  0  0  0  0  0
   59.4620   31.3210   45.4310 O   0  0  0  0  0  0  0  0  0  0  0  0
   58.7280   29.1520   45.1730 N   0  0  0  0  0  0  0  0  0  0  0  0
   59.9800   28.4320   45.4190 C   0  0  0  0  0  0  0  0  0  0  0  0
   60.1710   28.1970   46.8850 C   0  0  0  0  0  0  0  0  0  0  0  0
   59.8440   29.0910   47.8960 C   0  0  0  0  0  0  0  0  0  0  0  0
   60.1060   28.5920   49.1780 C   0  0  0  0  0  0  0  0  0  0  0  0
   60.6240   27.3020   49.1800 C   0  0  0  0  0  0  0  0  0  0  0  0
   60.7540   26.7840   47.5850 S   0  0  0  0  0  0  0  0  0  0  0  0
   57.1560   26.2810   47.2040 N   0  0  0  0  0  0  0  0  0  0  0  0
   57.6270   24.9160   47.4100 C   0  0  0  0  0  0  0  0  0  0  0  0
   58.6760   24.5210   46.3590 C   0  0  0  0  0  0  0  0  0  0  0  0
   58.0840   24.2820   44.9600 C   0  0  0  0  0  0  0  0  0  0  0  0
   57.5370   22.8870   44.7880 C   0  0  0  0  0  0  0  0  0  0  0  0
   57.1910   22.4120   43.5110 C   0  0  0  0  0  0  0  0  0  0  0  0
   56.6550   21.1300   43.3570 C   0  0  0  0  0  0  0  0  0  0  0  0
   56.4710   20.3080   44.4720 C   0  0  0  0  0  0  0  0  0  0  0  0
   56.8230   20.7690   45.7440 C   0  0  0  0  0  0  0  0  0  0  0  0
   57.3480   22.0540   45.9050 C   0  0  0  0  0  0  0  0  0  0  0  0
   58.1047   26.5960   44.7431 H   0  0  0  0  0  0  0  0  0  0  0  0
   56.5392   27.0138   43.9502 H   0  0  0  0  0  0  0  0  0  0  0  0
   56.4843   32.5295   43.9892 H   0  0  0  0  0  0  0  0  0  0  0  0
   55.7306   32.1514   45.5791 H   0  0  0  0  0  0  0  0  0  0  0  0
   58.0987   34.2382   43.8803 H   0  0  0  0  0  0  0  0  0  0  0  0
   59.7178   35.7500   45.0447 H   0  0  0  0  0  0  0  0  0  0  0  0
   60.1342   35.4687   47.4978 H   0  0  0  0  0  0  0  0  0  0  0  0
   58.9384   33.6608   48.7471 H   0  0  0  0  0  0  0  0  0  0  0  0
   59.9488   27.4635   44.8983 H   0  0  0  0  0  0  0  0  0  0  0  0
   60.8181   29.0378   45.0439 H   0  0  0  0  0  0  0  0  0  0  0  0
   59.4221   30.0895   47.7089 H   0  0  0  0  0  0  0  0  0  0  0  0
   59.9194   29.1668   50.0971 H   0  0  0  0  0  0  0  0  0  0  0  0
   60.9012   26.7201   50.0714 H   0  0  0  0  0  0  0  0  0  0  0  0
   58.0767   24.8397   48.4110 H   0  0  0  0  0  0  0  0  0  0  0  0
   56.7682   24.2351   47.3153 H   0  0  0  0  0  0  0  0  0  0  0  0
   59.4196   25.3285   46.2889 H   0  0  0  0  0  0  0  0  0  0  0  0
   59.1214   23.5706   46.6882 H   0  0  0  0  0  0  0  0  0  0  0  0
   57.2688   25.0020   44.7955 H   0  0  0  0  0  0  0  0  0  0  0  0
   58.8963   24.4119   44.2297 H   0  0  0  0  0  0  0  0  0  0  0  0
   57.3426   23.0517   42.6291 H   0  0  0  0  0  0  0  0  0  0  0  0
   56.3776   20.7676   42.3561 H   0  0  0  0  0  0  0  0  0  0  0  0
   56.0497   19.2994   44.3490 H   0  0  0  0  0  0  0  0  0  0  0  0
   56.6863   20.1185   46.6205 H   0  0  0  0  0  0  0  0  0  0  0  0
   57.6144   22.4152   46.9093 H   0  0  0  0  0  0  0  0  0  0  0  0
  1  2  2  0
  2  3  1  0
  3  4  1  0
  4  5  2  0
  5  6  1  0
  5  7  1  0
  7  8  1  0
  8  9  1  0
  9 10  2  0
 10 11  1  0
 11 12  2  0
 12 13  1  0
 13 14  2  0
  7 15  1  0
 15 16  2  0
 15 17  1  0
 17 18  1  0
 18 19  1  0
 19 20  2  0
 20 21  1  0
 21 22  2  0
 22 23  1  0
  2 24  1  0
 24 25  1  0
 25 26  1  0
 26 27  1  0
 27 28  1  0
 28 29  2  0
 29 30  1  0
 30 31  2  0
 31 32  1  0
 32 33  2  0
 17  4  1  0
 23 19  1  0
 33 28  1  0
 14  9  1  0
  3 34  1  0
  3 35  1  0
  8 36  1  0
  8 37  1  0
 10 38  1  0
 11 39  1  0
 12 40  1  0
 13 41  1  0
 18 42  1  0
 18 43  1  0
 20 44  1  0
 21 45  1  0
 22 46  1  0
 25 47  1  0
 25 48  1  0
 26 49  1  0
 26 50  1  0
 27 51  1  0
 27 52  1  0
 29 53  1  0
 30 54  1  0
 31 55  1  0
 32 56  1  0
 33 57  1  0
M  CHG  2   6  -1  24  -1
M  END
>  <UniqueID>  (41) 
41

>  <SMILES>  (41) 
O=C(Cc1c([O-])n(Cc2ccccn2)c(=O)n1Cc1cccs1)[N-]CCCc1ccccc1

>  <Energy>  (41) 
106.73755810085763

>  <Genealogy>  (41) 
O=C(Cc1c([O-])n(Cc2ccccn2)c(=O)n1Cc1cccs1)[N-]CCCc1ccccc1 (protonated)
O=C(Cc1c([O-])n(Cc2ccccn2)c(=O)n1Cc1cccs1)[N-]CCCc1ccccc1 (3D coordinates assigned)
O=C(Cc1c([O-])n(Cc2ccccn2)c(=O)n1Cc1cccs1)[N-]CCCc1ccccc1 (optimized conformer: 106.73755810085763 kcal/mol)

>  <smiles>  (41) 
O=C(Cc1c(O)n(Cc2ccccn2)c(=O)n1Cc1cccs1)NCCCc1ccccc1

>  <score_type>  (41) 
oracle

>  <origin>  (41) 
adg

>  <m_score__min__energy>  (41) 
-13.529999999999999

>  <m_primary>  (41) 
energy

$$$$
41:0
     RDKit          3D

 51 53  0  0  0  0  0  0  0  0999 V2000
   57.7640   20.0260   46.9540 C   0  0  0  0  0  0  0  0  0  0  0  0
   57.7430   21.4220   46.6600 O   0  0  0  0  0  0  0  0  0  0  0  0
   57.2740   21.9730   45.4530 C   0  0  0  0  0  0  0  0  0  0  0  0
   57.3080   21.2480   44.2430 C   0  0  0  0  0  0  0  0  0  0  0  0
   56.8430   21.8250   43.0580 C   0  0  0  0  0  0  0  0  0  0  0  0
   56.3380   23.1260   43.0650 C   0  0  0  0  0  0  0  0  0  0  0  0
   56.2970   23.8560   44.2560 C   0  0  0  0  0  0  0  0  0  0  0  0
   56.7620   23.2880   45.4560 C   0  0  0  0  0  0  0  0  0  0  0  0
   56.7170   24.0960   46.7300 C   0  0  0  0  0  0  0  0  0  0  0  0
   55.8910   25.2870   46.5570 N   0  0  0  0  0  0  0  0  0  0  0  0
   56.3450   26.4810   45.9130 C   0  0  0  0  0  0  0  0  0  0  0  0
   55.5350   27.4090   45.6400 O   0  0  0  0  0  0  0  0  0  0  0  0
   57.7950   26.6420   45.5880 C   0  0  0  0  0  0  0  0  0  0  0  0
   58.4320   28.2200   46.2540 S   0  0  0  0  0  0  0  0  0  0  0  0
   57.7700   29.2360   44.9220 C   0  0  0  0  0  0  0  0  0  0  0  0
   57.1590   28.6040   43.8300 C   0  0  0  0  0  0  0  0  0  0  0  0
   56.6590   29.3600   42.7660 C   0  0  0  0  0  0  0  0  0  0  0  0
   56.7700   30.7530   42.7840 C   0  0  0  0  0  0  0  0  0  0  0  0
   57.3900   31.3940   43.8620 C   0  0  0  0  0  0  0  0  0  0  0  0
   57.9060   30.6430   44.9350 C   0  0  0  0  0  0  0  0  0  0  0  0
   58.5200   31.3080   46.0530 N   0  0  0  0  0  0  0  0  0  0  0  0
   58.2340   32.6650   46.4180 C   0  0  0  0  0  0  0  0  0  0  0  0
   57.5970   33.4130   45.6270 O   0  0  0  0  0  0  0  0  0  0  0  0
   58.7720   33.1820   47.6420 N   0  0  0  0  0  0  0  0  0  0  0  0
   60.1520   33.4390   47.9440 C   0  0  0  0  0  0  0  0  0  0  0  0
   60.4770   33.9020   49.2280 C   0  0  0  0  0  0  0  0  0  0  0  0
   61.8050   34.1730   49.5680 C   0  0  0  0  0  0  0  0  0  0  0  0
   62.8200   33.9980   48.6240 C   0  0  0  0  0  0  0  0  0  0  0  0
   62.5050   33.5600   47.3340 C   0  0  0  0  0  0  0  0  0  0  0  0
   61.1770   33.2900   46.9870 C   0  0  0  0  0  0  0  0  0  0  0  0
   57.7662   19.8809   48.0444 H   0  0  0  0  0  0  0  0  0  0  0  0
   56.8730   19.5469   46.5221 H   0  0  0  0  0  0  0  0  0  0  0  0
   58.6690   19.5739   46.5221 H   0  0  0  0  0  0  0  0  0  0  0  0
   57.7032   20.2215   44.2323 H   0  0  0  0  0  0  0  0  0  0  0  0
   56.8751   21.2531   42.1189 H   0  0  0  0  0  0  0  0  0  0  0  0
   55.9716   23.5777   42.1313 H   0  0  0  0  0  0  0  0  0  0  0  0
   55.8986   24.8813   44.2551 H   0  0  0  0  0  0  0  0  0  0  0  0
   56.2942   23.4772   47.5352 H   0  0  0  0  0  0  0  0  0  0  0  0
   57.7398   24.4093   46.9863 H   0  0  0  0  0  0  0  0  0  0  0  0
   58.3595   25.8084   46.0312 H   0  0  0  0  0  0  0  0  0  0  0  0
   57.9153   26.6442   44.4946 H   0  0  0  0  0  0  0  0  0  0  0  0
   57.0726   27.5076   43.8104 H   0  0  0  0  0  0  0  0  0  0  0  0
   56.1777   28.8581   41.9137 H   0  0  0  0  0  0  0  0  0  0  0  0
   56.3692   31.3465   41.9491 H   0  0  0  0  0  0  0  0  0  0  0  0
   57.4747   32.4907   43.8712 H   0  0  0  0  0  0  0  0  0  0  0  0
   59.2660   30.8110   46.5900 H   0  0  0  0  0  0  0  0  0  0  0  0
   59.6810   34.0527   49.9721 H   0  0  0  0  0  0  0  0  0  0  0  0
   62.0517   34.5247   50.5806 H   0  0  0  0  0  0  0  0  0  0  0  0
   63.8658   34.2046   48.8953 H   0  0  0  0  0  0  0  0  0  0  0  0
   63.3040   33.4273   46.5897 H   0  0  0  0  0  0  0  0  0  0  0  0
   60.9320   32.9610   45.9663 H   0  0  0  0  0  0  0  0  0  0  0  0
  1  2  1  0
  2  3  1  0
  3  4  2  0
  4  5  1  0
  5  6  2  0
  6  7  1  0
  7  8  2  0
  8  9  1  0
  9 10  1  0
 10 11  1  0
 11 12  2  0
 11 13  1  0
 13 14  1  0
 14 15  1  0
 15 16  2  0
 16 17  1  0
 17 18  2  0
 18 19  1  0
 19 20  2  0
 20 21  1  0
 21 22  1  0
 22 23  2  0
 22 24  1  0
 24 25  1  0
 25 26  2  0
 26 27  1  0
 27 28  2  0
 28 29  1  0
 29 30  2  0
  8  3  1  0
 20 15  1  0
 30 25  1  0
  1 31  1  0
  1 32  1  0
  1 33  1  0
  4 34  1  0
  5 35  1  0
  6 36  1  0
  7 37  1  0
  9 38  1  0
  9 39  1  0
 13 40  1  0
 13 41  1  0
 16 42  1  0
 17 43  1  0
 18 44  1  0
 19 45  1  0
 21 46  1  0
 26 47  1  0
 27 48  1  0
 28 49  1  0
 29 50  1  0
 30 51  1  0
M  CHG  2  10  -1  24  -1
M  END
>  <UniqueID>  (42) 
42

>  <SMILES>  (42) 
COc1ccccc1C[N-]C(=O)CSc1ccccc1NC(=O)[N-]c1ccccc1

>  <Energy>  (42) 
53.29986184938832

>  <Genealogy>  (42) 
COc1ccccc1C[N-]C(=O)CSc1ccccc1NC(=O)[N-]c1ccccc1 (protonated)
COc1ccccc1C[N-]C(=O)CSc1ccccc1NC(=O)[N-]c1ccccc1 (3D coordinates assigned)
COc1ccccc1C[N-]C(=O)CSc1ccccc1NC(=O)[N-]c1ccccc1 (optimized conformer: 53.29986184938832 kcal/mol)

>  <smiles>  (42) 
COc1ccccc1CNC(=O)CSc1ccccc1NC(=O)Nc1ccccc1

>  <score_type>  (42) 
oracle

>  <origin>  (42) 
adg

>  <m_score__min__energy>  (42) 
-11.6

>  <m_primary>  (42) 
energy

$$$$
42:0
     RDKit          3D

 58 62  0  0  0  0  0  0  0  0999 V2000
   58.6783   34.2179   48.5436 H   0  0  0  0  0  0  0  0  0  0  0  0
   58.6040   34.1260   47.4500 C   0  0  0  0  0  0  0  0  0  0  0  0
   57.7880   33.1850   46.9010 N   0  0  0  0  0  0  0  0  0  0  0  0
   57.6750   33.0260   45.5540 C   0  0  0  0  0  0  0  0  0  0  0  0
   56.7690   32.0330   45.0490 N   0  0  0  0  0  0  0  0  0  0  0  0
   57.0350   30.7780   44.8300 C   0  0  0  0  0  0  0  0  0  0  0  0
   57.4250   29.9500   45.8500 N   0  0  0  0  0  0  0  0  0  0  0  0
   57.6640   28.6430   45.5750 C   0  0  0  0  0  0  0  0  0  0  0  0
   57.5150   28.1360   44.3240 C   0  0  0  0  0  0  0  0  0  0  0  0
   57.1110   28.9590   43.2830 C   0  0  0  0  0  0  0  0  0  0  0  0
   56.9851   28.5656   42.2635 H   0  0  0  0  0  0  0  0  0  0  0  0
   56.8750   30.2730   43.5660 N   0  0  0  0  0  0  0  0  0  0  0  0
   57.8130   26.7950   44.3770 C   0  0  0  0  0  0  0  0  0  0  0  0
   57.8002   26.0737   43.5466 H   0  0  0  0  0  0  0  0  0  0  0  0
   58.1360   26.5460   45.7150 C   0  0  0  0  0  0  0  0  0  0  0  0
   58.4910   25.2060   46.2310 C   0  0  0  0  0  0  0  0  0  0  0  0
   59.4500   24.5570   45.7380 O   0  0  0  0  0  0  0  0  0  0  0  0
   57.7440   24.6540   47.3190 N   0  0  0  0  0  0  0  0  0  0  0  0
   56.6430   23.7210   47.1280 C   0  0  0  0  0  0  0  0  0  0  0  0
   56.8331   22.8055   47.7074 H   0  0  0  0  0  0  0  0  0  0  0  0
   55.7058   24.1833   47.4715 H   0  0  0  0  0  0  0  0  0  0  0  0
   56.5280   23.3770   45.6710 C   0  0  0  0  0  0  0  0  0  0  0  0
   57.2920   22.3260   45.1320 C   0  0  0  0  0  0  0  0  0  0  0  0
   57.9932   21.7733   45.7745 H   0  0  0  0  0  0  0  0  0  0  0  0
   57.1640   21.9810   43.7840 C   0  0  0  0  0  0  0  0  0  0  0  0
   57.7711   21.1641   43.3667 H   0  0  0  0  0  0  0  0  0  0  0  0
   56.2670   22.6710   42.9650 C   0  0  0  0  0  0  0  0  0  0  0  0
   56.1704   22.3993   41.9035 H   0  0  0  0  0  0  0  0  0  0  0  0
   55.4920   23.7070   43.4950 C   0  0  0  0  0  0  0  0  0  0  0  0
   54.7838   24.2476   42.8499 H   0  0  0  0  0  0  0  0  0  0  0  0
   55.6150   24.0580   44.8440 C   0  0  0  0  0  0  0  0  0  0  0  0
   54.8420   25.0560   45.3430 F   0  0  0  0  0  0  0  0  0  0  0  0
   58.0490   27.6940   46.4500 N   0  0  0  0  0  0  0  0  0  0  0  0
   58.3490   27.9080   47.8730 C   0  0  0  0  0  0  0  0  0  0  0  0
   58.6181   26.9445   48.3304 H   0  0  0  0  0  0  0  0  0  0  0  0
   57.4560   28.3338   48.3538 H   0  0  0  0  0  0  0  0  0  0  0  0
   59.5200   28.8980   48.0620 C   0  0  0  0  0  0  0  0  0  0  0  0
   60.1833   28.5115   48.8498 H   0  0  0  0  0  0  0  0  0  0  0  0
   60.4100   29.0040   46.7830 C   0  0  0  0  0  0  0  0  0  0  0  0
   59.8856   28.4995   45.9581 H   0  0  0  0  0  0  0  0  0  0  0  0
   61.3728   28.5356   47.0353 H   0  0  0  0  0  0  0  0  0  0  0  0
   60.7300   30.4410   46.3390 C   0  0  0  0  0  0  0  0  0  0  0  0
   59.8688   30.8469   45.7880 H   0  0  0  0  0  0  0  0  0  0  0  0
   61.6233   30.4177   45.6976 H   0  0  0  0  0  0  0  0  0  0  0  0
   61.0150   31.3220   47.5220 C   0  0  0  0  0  0  0  0  0  0  0  0
   61.9540   32.1020   47.4950 O   0  0  0  0  0  0  0  0  0  0  0  0
   60.1200   31.2720   48.7300 C   0  0  0  0  0  0  0  0  0  0  0  0
   59.6930   32.2709   48.9029 H   0  0  0  0  0  0  0  0  0  0  0  0
   60.7183   30.9532   49.5963 H   0  0  0  0  0  0  0  0  0  0  0  0
   58.9790   30.2670   48.5280 C   0  0  0  0  0  0  0  0  0  0  0  0
   58.2868   30.6575   47.7675 H   0  0  0  0  0  0  0  0  0  0  0  0
   58.4607   30.1293   49.4884 H   0  0  0  0  0  0  0  0  0  0  0  0
   58.3850   33.8870   44.6970 C   0  0  0  0  0  0  0  0  0  0  0  0
   58.2750   33.7979   43.6061 H   0  0  0  0  0  0  0  0  0  0  0  0
   59.2300   34.8550   45.2420 C   0  0  0  0  0  0  0  0  0  0  0  0
   59.8026   35.5220   44.5808 H   0  0  0  0  0  0  0  0  0  0  0  0
   59.3470   34.9750   46.6270 C   0  0  0  0  0  0  0  0  0  0  0  0
   60.0166   35.7295   47.0656 H   0  0  0  0  0  0  0  0  0  0  0  0
  1  2  1  0
  2  3  2  0
  3  4  1  0
  4  5  1  0
  5  6  2  0
  6  7  1  0
  7  8  2  0
  8  9  1  0
  9 10  2  0
 10 11  1  0
 10 12  1  0
  9 13  1  0
 13 14  1  0
 13 15  2  0
 15 16  1  0
 16 17  2  0
 16 18  1  0
 18 19  1  0
 19 20  1  0
 19 21  1  0
 19 22  1  0
 22 23  2  0
 23 24  1  0
 23 25  1  0
 25 26  1  0
 25 27  2  0
 27 28  1  0
 27 29  1  0
 29 30  1  0
 29 31  2  0
 31 32  1  0
 15 33  1  0
 33 34  1  0
 34 35  1  0
 34 36  1  0
 34 37  1  0
 37 38  1  0
 37 39  1  0
 39 40  1  0
 39 41  1  0
 39 42  1  0
 42 43  1  0
 42 44  1  0
 42 45  1  0
 45 46  2  0
 45 47  1  0
 47 48  1  0
 47 49  1  0
 47 50  1  0
 50 51  1  0
 50 52  1  0
  4 53  2  0
 53 54  1  0
 53 55  1  0
 55 56  1  0
 55 57  2  0
 57 58  1  0
 57  2  1  0
 12  6  1  0
 31 22  1  0
 50 37  1  0
 33  8  1  0
M  CHG  2  12  -1  18  -1
M  END
>  <UniqueID>  (43) 
43

>  <SMILES>  (43) 
O=C1CCC(Cn2c(C(=O)[N-]Cc3ccccc3F)cc3c[n-]/c(=N/c4ccccn4)nc32)CC1

>  <Energy>  (43) 
103.66159950228696

>  <Genealogy>  (43) 
O=C1CCC(Cn2c(C(=O)[N-]Cc3ccccc3F)cc3c[n-]c(=Nc4ccccn4)nc32)CC1 (protonated)
O=C1CCC(Cn2c(C(=O)[N-]Cc3ccccc3F)cc3c[n-]/c(=N/c4ccccn4)nc32)CC1 (cis-trans isomerization)
O=C1CCC(Cn2c(C(=O)[N-]Cc3ccccc3F)cc3c[n-]/c(=N/c4ccccn4)nc32)CC1 (3D coordinates assigned)
O=C1CCC(Cn2c(C(=O)[N-]Cc3ccccc3F)cc3c[n-]/c(=N/c4ccccn4)nc32)CC1 (nonaromatic ring conformer: 103.66159950228696 kcal/mol)

>  <smiles>  (43) 
O=C1CCC(Cn2c(C(=O)NCc3ccccc3F)cc3c[nH]c(=Nc4ccccn4)nc32)CC1

>  <score_type>  (43) 
oracle

>  <origin>  (43) 
adg

>  <m_score__min__energy>  (43) 
-12.26

>  <m_primary>  (43) 
energy

$$$$
43:0
     RDKit          3D

 59 61  0  0  0  0  0  0  0  0999 V2000
   57.7320   32.4210   42.4510 C   0  0  0  0  0  0  0  0  0  0  0  0
   57.8530   31.8100   43.8230 C   0  0  0  0  0  0  0  0  0  0  0  0
   58.0130   30.4190   43.9250 C   0  0  0  0  0  0  0  0  0  0  0  0
   58.0790   29.8060   45.1890 C   0  0  0  0  0  0  0  0  0  0  0  0
   58.2140   28.5170   45.3420 N   0  0  0  0  0  0  0  0  0  0  0  0
   59.4200   27.7810   45.7250 C   0  0  0  0  0  0  0  0  0  0  0  0
   59.0910   26.3610   46.2150 C   0  0  0  0  0  0  0  0  0  0  0  0
   58.0200   26.3430   47.3140 C   0  0  0  0  0  0  0  0  0  0  0  0
   56.7340   26.8110   46.7910 N   0  0  0  0  0  0  0  0  0  0  0  0
   55.8870   25.4880   46.0510 S   0  0  0  0  0  0  0  0  0  0  0  0
   54.2610   25.9590   45.6970 N   0  0  0  0  0  0  0  0  0  0  0  0
   55.8740   24.3020   46.9730 O   0  0  0  0  0  0  0  0  0  0  0  0
   56.5800   25.1120   44.7720 O   0  0  0  0  0  0  0  0  0  0  0  0
   58.0020   30.5790   46.3010 N   0  0  0  0  0  0  0  0  0  0  0  0
   57.8650   31.9280   46.2430 C   0  0  0  0  0  0  0  0  0  0  0  0
   57.8020   32.5900   45.0060 C   0  0  0  0  0  0  0  0  0  0  0  0
   57.6860   34.0700   45.0020 C   0  0  0  0  0  0  0  0  0  0  0  0
   56.6250   34.6050   44.5790 O   0  0  0  0  0  0  0  0  0  0  0  0
   58.7670   34.8880   45.4700 N   0  0  0  0  0  0  0  0  0  0  0  0
   59.7640   34.5240   46.4360 C   0  0  0  0  0  0  0  0  0  0  0  0
   60.9580   33.9530   45.9830 C   0  0  0  0  0  0  0  0  0  0  0  0
   61.9480   33.5660   46.8910 C   0  0  0  0  0  0  0  0  0  0  0  0
   61.7490   33.7380   48.2670 C   0  0  0  0  0  0  0  0  0  0  0  0
   63.0080   33.2690   49.4130 S   0  0  0  0  0  0  0  0  0  0  0  0
   63.2010   34.3710   50.4180 O   0  0  0  0  0  0  0  0  0  0  0  0
   64.3050   33.0820   48.6750 O   0  0  0  0  0  0  0  0  0  0  0  0
   62.6010   31.7870   50.2470 N   0  0  0  0  0  0  0  0  0  0  0  0
   61.7890   32.0750   51.4440 C   0  0  0  0  0  0  0  0  0  0  0  0
   61.0100   30.8250   51.8840 C   0  0  0  0  0  0  0  0  0  0  0  0
   60.1100   30.3280   50.9000 O   0  0  0  0  0  0  0  0  0  0  0  0
   60.4510   30.6960   49.5710 C   0  0  0  0  0  0  0  0  0  0  0  0
   61.9690   30.8040   49.3390 C   0  0  0  0  0  0  0  0  0  0  0  0
   60.5400   34.2770   48.7270 C   0  0  0  0  0  0  0  0  0  0  0  0
   59.5490   34.6640   47.8180 C   0  0  0  0  0  0  0  0  0  0  0  0
   57.5191   33.4960   42.5458 H   0  0  0  0  0  0  0  0  0  0  0  0
   58.6753   32.2810   41.9028 H   0  0  0  0  0  0  0  0  0  0  0  0
   56.9132   31.9320   41.9028 H   0  0  0  0  0  0  0  0  0  0  0  0
   58.0869   29.8070   43.0140 H   0  0  0  0  0  0  0  0  0  0  0  0
   60.0866   27.7112   44.8527 H   0  0  0  0  0  0  0  0  0  0  0  0
   59.9042   28.3238   46.5502 H   0  0  0  0  0  0  0  0  0  0  0  0
   58.7280   25.7701   45.3611 H   0  0  0  0  0  0  0  0  0  0  0  0
   60.0114   25.9375   46.6433 H   0  0  0  0  0  0  0  0  0  0  0  0
   57.9049   25.3154   47.6893 H   0  0  0  0  0  0  0  0  0  0  0  0
   58.3362   27.0129   48.1272 H   0  0  0  0  0  0  0  0  0  0  0  0
   56.9220   27.5110   46.0370 H   0  0  0  0  0  0  0  0  0  0  0  0
   54.0100   26.7140   46.3760 H   0  0  0  0  0  0  0  0  0  0  0  0
   57.8026   32.5091   47.1749 H   0  0  0  0  0  0  0  0  0  0  0  0
   61.1191   33.8075   44.9046 H   0  0  0  0  0  0  0  0  0  0  0  0
   62.8864   33.1249   46.5238 H   0  0  0  0  0  0  0  0  0  0  0  0
   62.4516   32.3943   52.2619 H   0  0  0  0  0  0  0  0  0  0  0  0
   61.0713   32.8726   51.2017 H   0  0  0  0  0  0  0  0  0  0  0  0
   61.7342   30.0321   52.1224 H   0  0  0  0  0  0  0  0  0  0  0  0
   60.4019   31.1182   52.7525 H   0  0  0  0  0  0  0  0  0  0  0  0
   60.0460   29.9382   48.8842 H   0  0  0  0  0  0  0  0  0  0  0  0
   60.0221   31.6924   49.3889 H   0  0  0  0  0  0  0  0  0  0  0  0
   62.4253   29.8179   49.5104 H   0  0  0  0  0  0  0  0  0  0  0  0
   62.1310   31.1437   48.3054 H   0  0  0  0  0  0  0  0  0  0  0  0
   60.3693   34.3964   49.8071 H   0  0  0  0  0  0  0  0  0  0  0  0
   58.5991   35.0790   48.1860 H   0  0  0  0  0  0  0  0  0  0  0  0
  1  2  1  0
  2  3  2  0
  3  4  1  0
  4  5  2  3
  5  6  1  0
  6  7  1  0
  7  8  1  0
  8  9  1  0
  9 10  1  0
 10 11  1  0
 10 12  2  0
 10 13  2  0
  4 14  1  0
 14 15  1  0
 15 16  2  0
 16 17  1  0
 17 18  2  0
 17 19  1  0
 19 20  1  0
 20 21  2  0
 21 22  1  0
 22 23  2  0
 23 24  1  0
 24 25  2  0
 24 26  2  0
 24 27  1  0
 27 28  1  0
 28 29  1  0
 29 30  1  0
 30 31  1  0
 31 32  1  0
 23 33  1  0
 33 34  2  0
 16  2  1  0
 34 20  1  0
 32 27  1  0
  1 35  1  0
  1 36  1  0
  1 37  1  0
  3 38  1  0
  6 39  1  0
  6 40  1  0
  7 41  1  0
  7 42  1  0
  8 43  1  0
  8 44  1  0
  9 45  1  0
 11 46  1  0
 15 47  1  0
 21 48  1  0
 22 49  1  0
 28 50  1  0
 28 51  1  0
 29 52  1  0
 29 53  1  0
 31 54  1  0
 31 55  1  0
 32 56  1  0
 32 57  1  0
 33 58  1  0
 34 59  1  0
M  CHG  3  11  -1  14  -1  19  -1
M  END
>  <UniqueID>  (44) 
44

>  <SMILES>  (44) 
Cc1cc(=NCCCNS([NH-])(=O)=O)[n-]cc1C(=O)[N-]c1ccc(S(=O)(=O)N2CCOCC2)cc1

>  <Energy>  (44) 
74.3249538657839

>  <Genealogy>  (44) 
Cc1cc(=NCCCNS([NH-])(=O)=O)[n-]cc1C(=O)[N-]c1ccc(S(=O)(=O)N2CCOCC2)cc1 (protonated)
Cc1cc(=NCCCNS([NH-])(=O)=O)[n-]cc1C(=O)[N-]c1ccc(S(=O)(=O)N2CCOCC2)cc1 (3D coordinates assigned)
Cc1cc(=NCCCNS([NH-])(=O)=O)[n-]cc1C(=O)[N-]c1ccc(S(=O)(=O)N2CCOCC2)cc1 (nonaromatic ring conformer: 74.3249538657839 kcal/mol)

>  <smiles>  (44) 
Cc1cc(=NCCCNS(N)(=O)=O)[nH]cc1C(=O)Nc1ccc(S(=O)(=O)N2CCOCC2)cc1

>  <score_type>  (44) 
oracle

>  <origin>  (44) 
adg

>  <m_score__min__energy>  (44) 
-14.279999999999999

>  <m_primary>  (44) 
energy

$$$$
44:0
     RDKit          3D

 33 34  0  0  0  0  0  0  0  0999 V2000
   60.4340   30.7610   47.1560 C   0  0  0  0  0  0  0  0  0  0  0  0
   59.7330   30.0290   48.6200 S   0  0  0  0  0  0  0  0  0  0  0  0
   58.2390   29.9780   48.4630 O   0  0  0  0  0  0  0  0  0  0  0  0
   60.2470   28.6300   48.8050 O   0  0  0  0  0  0  0  0  0  0  0  0
   60.1140   30.9920   50.0110 N   0  0  0  0  0  0  0  0  0  0  0  0
   59.1690   31.5330   50.9470 C   0  0  0  0  0  0  0  0  0  0  0  0
   59.2090   32.8800   51.3460 C   0  0  0  0  0  0  0  0  0  0  0  0
   58.2730   33.3730   52.2540 C   0  0  0  0  0  0  0  0  0  0  0  0
   57.2930   32.5330   52.7780 C   0  0  0  0  0  0  0  0  0  0  0  0
   57.2360   31.1810   52.4020 C   0  0  0  0  0  0  0  0  0  0  0  0
   56.1500   30.3040   52.9780 C   0  0  0  0  0  0  0  0  0  0  0  0
   54.9100   31.0580   53.1210 N   0  0  0  0  0  0  0  0  0  0  0  0
   53.6100   30.4910   52.9220 C   0  0  0  0  0  0  0  0  0  0  0  0
   53.3480   29.3350   53.3530 O   0  0  0  0  0  0  0  0  0  0  0  0
   52.5790   31.2570   52.2090 C   0  0  0  0  0  0  0  0  0  0  0  0
   51.4120   31.7670   52.7490 C   0  0  0  0  0  0  0  0  0  0  0  0
   50.6950   32.4120   51.8070 N   0  0  0  0  0  0  0  0  0  0  0  0
   51.4200   32.3020   50.6770 C   0  0  0  0  0  0  0  0  0  0  0  0
   51.0200   32.8410   49.4620 O   0  0  0  0  0  0  0  0  0  0  0  0
   52.5870   31.5990   50.8740 C   0  0  0  0  0  0  0  0  0  0  0  0
   58.1830   30.6810   51.4750 C   0  0  0  0  0  0  0  0  0  0  0  0
   58.1680   29.3470   51.0570 O   0  0  0  0  0  0  0  0  0  0  0  0
   61.1681   31.5276   47.4448 H   0  0  0  0  0  0  0  0  0  0  0  0
   60.9321   29.9826   46.5594 H   0  0  0  0  0  0  0  0  0  0  0  0
   59.6348   31.2250   46.5594 H   0  0  0  0  0  0  0  0  0  0  0  0
   59.9825   33.5485   50.9399 H   0  0  0  0  0  0  0  0  0  0  0  0
   58.3085   34.4296   52.5579 H   0  0  0  0  0  0  0  0  0  0  0  0
   56.5577   32.9319   53.4922 H   0  0  0  0  0  0  0  0  0  0  0  0
   55.9794   29.4499   52.3061 H   0  0  0  0  0  0  0  0  0  0  0  0
   56.4673   29.9478   53.9692 H   0  0  0  0  0  0  0  0  0  0  0  0
   51.1107   31.6609   53.8016 H   0  0  0  0  0  0  0  0  0  0  0  0
   53.3590   31.3616   50.1273 H   0  0  0  0  0  0  0  0  0  0  0  0
   58.7560   28.9890   50.3160 H   0  0  0  0  0  0  0  0  0  0  0  0
  1  2  1  0
  2  3  2  0
  2  4  2  0
  2  5  1  0
  5  6  1  0
  6  7  2  0
  7  8  1  0
  8  9  2  0
  9 10  1  0
 10 11  1  0
 11 12  1  0
 12 13  1  0
 13 14  2  0
 13 15  1  0
 15 16  2  0
 16 17  1  0
 17 18  1  0
 18 19  1  0
 18 20  2  0
 10 21  2  0
 21 22  1  0
 21  6  1  0
 20 15  1  0
  1 23  1  0
  1 24  1  0
  1 25  1  0
  7 26  1  0
  8 27  1  0
  9 28  1  0
 11 29  1  0
 11 30  1  0
 16 31  1  0
 20 32  1  0
 22 33  1  0
M  CHG  4   5  -1  12  -1  17  -1  19  -1
M  END
>  <UniqueID>  (45) 
45

>  <SMILES>  (45) 
CS(=O)(=O)[N-]c1cccc(C[N-]C(=O)c2c[n-]c([O-])c2)c1O

>  <Energy>  (45) 
56.39376969755222

>  <Genealogy>  (45) 
CS(=O)(=O)[N-]c1cccc(C[N-]C(=O)c2c[n-]c([O-])c2)c1O (protonated)
CS(=O)(=O)[N-]c1cccc(C[N-]C(=O)c2c[n-]c([O-])c2)c1O (3D coordinates assigned)
CS(=O)(=O)[N-]c1cccc(C[N-]C(=O)c2c[n-]c([O-])c2)c1O (optimized conformer: 56.39376969755222 kcal/mol)

>  <smiles>  (45) 
CS(=O)(=O)Nc1cccc(CNC(=O)c2c[nH]c(O)c2)c1O

>  <score_type>  (45) 
oracle

>  <origin>  (45) 
adg

>  <m_score__min__energy>  (45) 
-14.619999999999999

>  <m_primary>  (45) 
energy

$$$$
45:0
     RDKit          3D

 64 66  0  0  0  0  0  0  0  0999 V2000
   55.8040   23.2570   46.4870 C   0  0  0  0  0  0  0  0  0  0  0  0
   56.1980   24.4420   47.1700 O   0  0  0  0  0  0  0  0  0  0  0  0
   57.0270   25.4350   46.6250 C   0  0  0  0  0  0  0  0  0  0  0  0
   58.4310   25.3310   46.6510 C   0  0  0  0  0  0  0  0  0  0  0  0
   59.2250   26.3380   46.0980 C   0  0  0  0  0  0  0  0  0  0  0  0
   58.6340   27.4660   45.5120 C   0  0  0  0  0  0  0  0  0  0  0  0
   59.4980   28.5550   44.9390 C   0  0  0  0  0  0  0  0  0  0  0  0
   60.2360   29.2400   46.0000 N   0  0  0  0  0  0  0  0  0  0  0  0
   59.2540   29.4460   47.4210 S   0  0  0  0  0  0  0  0  0  0  0  0
   57.8270   29.7030   47.0220 O   0  0  0  0  0  0  0  0  0  0  0  0
   59.3100   28.1970   48.2540 O   0  0  0  0  0  0  0  0  0  0  0  0
   59.9200   30.7610   48.3580 N   0  0  0  0  0  0  0  0  0  0  0  0
   58.9080   31.6670   48.9180 C   0  0  2  0  0  0  0  0  0  0  0  0
   59.2790   33.1330   48.6320 C   0  0  0  0  0  0  0  0  0  0  0  0
   59.0030   33.5160   47.2010 C   0  0  0  0  0  0  0  0  0  0  0  0
   59.4870   34.7270   46.6820 C   0  0  0  0  0  0  0  0  0  0  0  0
   59.2770   35.0520   45.3390 C   0  0  0  0  0  0  0  0  0  0  0  0
   58.5880   34.1700   44.5030 C   0  0  0  0  0  0  0  0  0  0  0  0
   58.0830   32.9640   45.0110 C   0  0  0  0  0  0  0  0  0  0  0  0
   57.3780   31.9900   44.1010 C   0  0  0  0  0  0  0  0  0  0  0  0
   57.2130   30.6930   44.7500 N   0  0  0  0  0  0  0  0  0  0  0  0
   58.2960   32.6400   46.3600 C   0  0  0  0  0  0  0  0  0  0  0  0
   58.8380   31.4580   50.4040 C   0  0  0  0  0  0  0  0  0  0  0  0
   58.1640   30.5060   50.8820 O   0  0  0  0  0  0  0  0  0  0  0  0
   59.5770   32.3240   51.2710 N   0  0  0  0  0  0  0  0  0  0  0  0
   61.0150   32.2180   51.4920 C   0  0  0  0  0  0  0  0  0  0  0  0
   61.7320   33.4640   50.9650 C   0  0  0  0  0  0  0  0  0  0  0  0
   62.3540   33.1820   49.6290 C   0  0  0  0  0  0  0  0  0  0  0  0
   62.6190   31.8650   49.2220 C   0  0  0  0  0  0  0  0  0  0  0  0
   63.1570   31.6360   47.9540 C   0  0  0  0  0  0  0  0  0  0  0  0
   63.4160   32.7110   47.1060 C   0  0  0  0  0  0  0  0  0  0  0  0
   63.1300   34.0060   47.5400 C   0  0  0  0  0  0  0  0  0  0  0  0
   62.6050   34.2120   48.7770 N   0  0  0  0  0  0  0  0  0  0  0  0
   57.2370   27.5730   45.4880 C   0  0  0  0  0  0  0  0  0  0  0  0
   56.4350   26.5680   46.0390 C   0  0  0  0  0  0  0  0  0  0  0  0
   55.0500   26.7140   45.9930 O   0  0  0  0  0  0  0  0  0  0  0  0
   55.5455   22.4795   47.2209 H   0  0  0  0  0  0  0  0  0  0  0  0
   54.9287   23.4712   45.8561 H   0  0  0  0  0  0  0  0  0  0  0  0
   56.6333   22.9045   45.8561 H   0  0  0  0  0  0  0  0  0  0  0  0
   58.9054   24.4510   47.1098 H   0  0  0  0  0  0  0  0  0  0  0  0
   60.3208   26.2455   46.1224 H   0  0  0  0  0  0  0  0  0  0  0  0
   60.2127   28.1133   44.2290 H   0  0  0  0  0  0  0  0  0  0  0  0
   58.8542   29.2854   44.4270 H   0  0  0  0  0  0  0  0  0  0  0  0
   57.9350   31.4502   48.4529 H   0  0  0  0  0  0  0  0  0  0  0  0
   58.6894   33.7842   49.2940 H   0  0  0  0  0  0  0  0  0  0  0  0
   60.3573   33.2524   48.8139 H   0  0  0  0  0  0  0  0  0  0  0  0
   60.0338   35.4231   47.3350 H   0  0  0  0  0  0  0  0  0  0  0  0
   59.6551   36.0045   44.9393 H   0  0  0  0  0  0  0  0  0  0  0  0
   58.4410   34.4222   43.4424 H   0  0  0  0  0  0  0  0  0  0  0  0
   56.3870   32.3917   43.8428 H   0  0  0  0  0  0  0  0  0  0  0  0
   57.9866   31.8535   43.1949 H   0  0  0  0  0  0  0  0  0  0  0  0
   58.1510   30.3490   45.0540 H   0  0  0  0  0  0  0  0  0  0  0  0
   56.6270   30.8200   45.6060 H   0  0  0  0  0  0  0  0  0  0  0  0
   57.9065   31.6930   46.7619 H   0  0  0  0  0  0  0  0  0  0  0  0
   61.2091   32.1175   52.5701 H   0  0  0  0  0  0  0  0  0  0  0  0
   61.3934   31.3359   50.9546 H   0  0  0  0  0  0  0  0  0  0  0  0
   61.0058   34.2837   50.8612 H   0  0  0  0  0  0  0  0  0  0  0  0
   62.5229   33.7482   51.6747 H   0  0  0  0  0  0  0  0  0  0  0  0
   62.4050   31.0218   49.8952 H   0  0  0  0  0  0  0  0  0  0  0  0
   63.3759   30.6094   47.6252 H   0  0  0  0  0  0  0  0  0  0  0  0
   63.8411   32.5407   46.1058 H   0  0  0  0  0  0  0  0  0  0  0  0
   63.3299   34.8625   46.8794 H   0  0  0  0  0  0  0  0  0  0  0  0
   56.7663   28.4561   45.0313 H   0  0  0  0  0  0  0  0  0  0  0  0
   54.4200   26.0160   46.3690 H   0  0  0  0  0  0  0  0  0  0  0  0
  1  2  1  0
  2  3  1  0
  3  4  2  0
  4  5  1  0
  5  6  2  0
  6  7  1  0
  7  8  1  0
  8  9  1  0
  9 10  2  0
  9 11  2  0
  9 12  1  0
 12 13  1  0
 13 14  1  0
 14 15  1  0
 15 16  2  0
 16 17  1  0
 17 18  2  0
 18 19  1  0
 19 20  1  0
 20 21  1  0
 19 22  2  0
 13 23  1  0
 23 24  2  0
 23 25  1  0
 25 26  1  0
 26 27  1  0
 27 28  1  0
 28 29  2  0
 29 30  1  0
 30 31  2  0
 31 32  1  0
 32 33  2  0
  6 34  1  0
 34 35  2  0
 35 36  1  0
 35  3  1  0
 22 15  1  0
 33 28  1  0
  1 37  1  0
  1 38  1  0
  1 39  1  0
  4 40  1  0
  5 41  1  0
  7 42  1  0
  7 43  1  0
 13 44  1  6
 14 45  1  0
 14 46  1  0
 16 47  1  0
 17 48  1  0
 18 49  1  0
 20 50  1  0
 20 51  1  0
 21 52  1  0
 21 53  1  0
 22 54  1  0
 26 55  1  0
 26 56  1  0
 27 57  1  0
 27 58  1  0
 29 59  1  0
 30 60  1  0
 31 61  1  0
 32 62  1  0
 34 63  1  0
 36 64  1  0
M  CHG  3   8  -1  12  -1  25  -1
M  END
>  <UniqueID>  (46) 
46

>  <SMILES>  (46) 
COc1ccc(C[N-]S(=O)(=O)[N-][C@H](Cc2cccc(CN)c2)C(=O)[N-]CCc2ccccn2)cc1O

>  <Energy>  (46) 
54.82593121391319

>  <Genealogy>  (46) 
COc1ccc(C[N-]S(=O)(=O)[N-]C(Cc2cccc(CN)c2)C(=O)[N-]CCc2ccccn2)cc1O (protonated)
COc1ccc(C[N-]S(=O)(=O)[N-][C@H](Cc2cccc(CN)c2)C(=O)[N-]CCc2ccccn2)cc1O (chirality)
COc1ccc(C[N-]S(=O)(=O)[N-][C@H](Cc2cccc(CN)c2)C(=O)[N-]CCc2ccccn2)cc1O (3D coordinates assigned)
COc1ccc(C[N-]S(=O)(=O)[N-][C@H](Cc2cccc(CN)c2)C(=O)[N-]CCc2ccccn2)cc1O (optimized conformer: 54.82593121391319 kcal/mol)

>  <smiles>  (46) 
COc1ccc(CNS(=O)(=O)NC(Cc2cccc(CN)c2)C(=O)NCCc2ccccn2)cc1O

>  <score_type>  (46) 
oracle

>  <origin>  (46) 
adg

>  <m_score__min__energy>  (46) 
-12.800000000000001

>  <m_primary>  (46) 
energy

$$$$
46:0
     RDKit          3D

 35 36  0  0  0  0  0  0  0  0999 V2000
   54.7160   26.1520   45.9350 N   0  0  0  0  0  0  0  0  0  0  0  0
   56.3310   25.5500   45.8140 S   0  0  0  0  0  0  0  0  0  0  0  0
   56.8510   25.2430   47.1900 O   0  0  0  0  0  0  0  0  0  0  0  0
   56.3320   24.2920   44.9930 O   0  0  0  0  0  0  0  0  0  0  0  0
   57.3800   26.7650   45.0330 C   0  0  0  0  0  0  0  0  0  0  0  0
   57.1450   28.1490   45.6300 C   0  0  0  0  0  0  0  0  0  0  0  0
   55.8370   28.6420   45.2200 N   0  0  0  0  0  0  0  0  0  0  0  0
   55.5750   29.6060   44.1880 C   0  0  0  0  0  0  0  0  0  0  0  0
   54.5460   29.4490   43.4790 O   0  0  0  0  0  0  0  0  0  0  0  0
   56.4520   30.7720   43.9260 C   0  0  0  0  0  0  0  0  0  0  0  0
   57.0540   30.9990   42.6870 C   0  0  0  0  0  0  0  0  0  0  0  0
   57.9510   32.4180   42.7920 S   0  0  0  0  0  0  0  0  0  0  0  0
   57.5530   32.6770   44.4030 C   0  0  0  0  0  0  0  0  0  0  0  0
   57.9810   33.8600   45.2100 C   0  0  0  0  0  0  0  0  0  0  0  0
   59.4010   33.8710   45.3570 O   0  0  0  0  0  0  0  0  0  0  0  0
   60.0910   33.9390   46.5790 C   0  0  0  0  0  0  0  0  0  0  0  0
   61.4790   33.7440   46.5660 C   0  0  0  0  0  0  0  0  0  0  0  0
   62.2160   33.8120   47.7520 C   0  0  0  0  0  0  0  0  0  0  0  0
   61.5710   34.0710   48.9630 C   0  0  0  0  0  0  0  0  0  0  0  0
   60.1870   34.2590   48.9900 C   0  0  0  0  0  0  0  0  0  0  0  0
   59.4450   34.1890   47.8060 C   0  0  0  0  0  0  0  0  0  0  0  0
   56.7360   31.7100   44.8690 N   0  0  0  0  0  0  0  0  0  0  0  0
   54.7740   27.0890   46.3940 H   0  0  0  0  0  0  0  0  0  0  0  0
   58.4324   26.4820   45.1824 H   0  0  0  0  0  0  0  0  0  0  0  0
   57.1408   26.7991   43.9599 H   0  0  0  0  0  0  0  0  0  0  0  0
   57.1850   28.0860   46.7275 H   0  0  0  0  0  0  0  0  0  0  0  0
   57.9240   28.8384   45.2723 H   0  0  0  0  0  0  0  0  0  0  0  0
   56.9583   30.3605   41.7964 H   0  0  0  0  0  0  0  0  0  0  0  0
   57.6616   34.7814   44.7011 H   0  0  0  0  0  0  0  0  0  0  0  0
   57.5183   33.8004   46.2061 H   0  0  0  0  0  0  0  0  0  0  0  0
   61.9922   33.5359   45.6155 H   0  0  0  0  0  0  0  0  0  0  0  0
   63.3054   33.6613   47.7311 H   0  0  0  0  0  0  0  0  0  0  0  0
   62.1523   34.1270   49.8952 H   0  0  0  0  0  0  0  0  0  0  0  0
   59.6794   34.4625   49.9444 H   0  0  0  0  0  0  0  0  0  0  0  0
   58.3543   34.3295   47.8330 H   0  0  0  0  0  0  0  0  0  0  0  0
  1  2  1  0
  2  3  2  0
  2  4  2  0
  2  5  1  0
  5  6  1  0
  6  7  1  0
  7  8  1  0
  8  9  2  0
  8 10  1  0
 10 11  2  0
 11 12  1  0
 12 13  1  0
 13 14  1  0
 14 15  1  0
 15 16  1  0
 16 17  2  0
 17 18  1  0
 18 19  2  0
 19 20  1  0
 20 21  2  0
 13 22  2  0
 22 10  1  0
 21 16  1  0
  1 23  1  0
  5 24  1  0
  5 25  1  0
  6 26  1  0
  6 27  1  0
 11 28  1  0
 14 29  1  0
 14 30  1  0
 17 31  1  0
 18 32  1  0
 19 33  1  0
 20 34  1  0
 21 35  1  0
M  CHG  2   1  -1   7  -1
M  END
>  <UniqueID>  (47) 
47

>  <SMILES>  (47) 
[NH-]S(=O)(=O)CC[N-]C(=O)c1csc(COc2ccccc2)n1

>  <Energy>  (47) 
54.15365622719967

>  <Genealogy>  (47) 
[NH-]S(=O)(=O)CC[N-]C(=O)c1csc(COc2ccccc2)n1 (protonated)
[NH-]S(=O)(=O)CC[N-]C(=O)c1csc(COc2ccccc2)n1 (3D coordinates assigned)
[NH-]S(=O)(=O)CC[N-]C(=O)c1csc(COc2ccccc2)n1 (optimized conformer: 54.15365622719967 kcal/mol)

>  <smiles>  (47) 
NS(=O)(=O)CCNC(=O)c1csc(COc2ccccc2)n1

>  <score_type>  (47) 
oracle

>  <origin>  (47) 
adg

>  <m_score__min__energy>  (47) 
-13.17

>  <m_primary>  (47) 
energy

$$$$
47:0
     RDKit          3D

 81 85  0  0  1  0  0  0  0  0999 V2000
   58.1730   34.2320   52.3720 C   0  0  0  0  0  0  0  0  0  0  0  0
   59.1790   33.2340   52.2300 N   0  0  0  0  0  0  0  0  0  0  0  0
   60.3490   33.5890   51.5130 C   0  0  0  0  0  0  0  0  0  0  0  0
   60.3970   33.0970   50.1080 C   0  0  0  0  0  0  0  0  0  0  0  0
   59.9700   31.6830   50.0930 N   0  0  0  0  0  0  0  0  0  0  0  0
   60.8010   30.8270   49.3320 C   0  0  0  0  0  0  0  0  0  0  0  0
   61.8060   31.3670   48.7670 O   0  0  0  0  0  0  0  0  0  0  0  0
   60.6200   29.4050   49.1300 C   0  0  0  0  0  0  0  0  0  0  0  0
   60.1470   29.0070   47.9100 C   0  0  0  0  0  0  0  0  0  0  0  0
   59.9830   27.6610   47.6390 C   0  0  0  0  0  0  0  0  0  0  0  0
   59.6000   27.3300   46.3000 C   0  0  0  0  0  0  0  0  0  0  0  0
   59.4340   28.0940   45.2830 C   0  0  0  0  0  0  0  0  0  0  0  0
   58.6520   29.2480   45.0450 C   0  0  0  0  0  0  0  0  0  0  0  0
   57.9450   29.6020   46.0820 O   0  0  0  0  0  0  0  0  0  0  0  0
   58.4430   30.1000   43.9610 N   0  0  0  0  0  0  0  0  0  0  0  0
   57.3900   31.4790   44.0360 S   0  0  0  0  0  0  0  0  0  0  0  0
   57.3280   32.0490   42.6590 O   0  0  0  0  0  0  0  0  0  0  0  0
   56.0410   31.0140   44.4920 O   0  0  0  0  0  0  0  0  0  0  0  0
   58.0760   32.6500   45.1310 C   0  0  0  0  0  0  0  0  0  0  0  0
   58.0060   32.5460   46.5050 C   0  0  0  0  0  0  0  0  0  0  0  0
   58.5750   33.5210   47.2960 C   0  0  0  0  0  0  0  0  0  0  0  0
   59.2270   34.6220   46.7430 C   0  0  0  0  0  0  0  0  0  0  0  0
   59.2930   34.7200   45.3540 C   0  0  0  0  0  0  0  0  0  0  0  0
   58.7240   33.7470   44.5940 C   0  0  0  0  0  0  0  0  0  0  0  0
   60.3250   26.8000   48.6550 C   0  0  0  0  0  0  0  0  0  0  0  0
   60.7970   27.1790   49.8800 C   0  0  0  0  0  0  0  0  0  0  0  0
   60.9600   28.5170   50.1560 C   0  0  0  0  0  0  0  0  0  0  0  0
   61.4380   28.9410   51.4320 C   0  0  0  0  0  0  0  0  0  0  0  0
   60.5220   29.4350   52.2180 O   0  0  0  0  0  0  0  0  0  0  0  0
   62.7120   28.9090   51.9700 N   0  0  0  0  0  0  0  0  0  0  0  0
   63.7460   29.5180   51.6390 C   0  0  0  0  0  0  0  0  0  0  0  0
   64.9760   29.0870   52.0680 C   0  0  0  0  0  0  0  0  0  0  0  0
   66.1470   29.7170   51.7240 C   0  0  0  0  0  0  0  0  0  0  0  0
   66.0410   30.8110   50.9230 N   0  0  0  0  0  0  0  0  0  0  0  0
   67.2280   31.5320   50.5040 C   0  0  0  0  0  0  0  0  0  0  0  0
   67.2770   32.9260   50.9580 C   0  0  0  0  0  0  0  0  0  0  0  0
   67.6280   33.8600   50.2100 O   0  0  0  0  0  0  0  0  0  0  0  0
   66.9030   33.2080   52.3140 N   0  0  0  0  0  0  0  0  0  0  0  0
   65.6810   33.5450   52.5660 C   0  0  0  0  0  0  0  0  0  0  0  0
   64.9510   34.0370   51.5530 N   0  0  0  0  0  0  0  0  0  0  0  0
   63.6590   34.4130   51.6880 C   0  0  0  0  0  0  0  0  0  0  0  0
   63.0090   34.8640   50.7370 O   0  0  0  0  0  0  0  0  0  0  0  0
   63.1080   34.2730   52.9140 N   0  0  0  0  0  0  0  0  0  0  0  0
   63.7870   33.7850   53.9700 C   0  0  0  0  0  0  0  0  0  0  0  0
   65.1050   33.4050   53.8180 C   0  0  0  0  0  0  0  0  0  0  0  0
   65.8240   32.9130   54.8400 F   0  0  0  0  0  0  0  0  0  0  0  0
   64.8340   31.2230   50.5090 C   0  0  0  0  0  0  0  0  0  0  0  0
   64.7340   32.2500   49.7540 O   0  0  0  0  0  0  0  0  0  0  0  0
   63.6770   30.6080   50.8440 N   0  0  0  0  0  0  0  0  0  0  0  0
   58.7850   31.2460   50.7970 C   0  0  0  0  0  0  0  0  0  0  0  0
   58.7310   31.8950   52.1340 C   0  0  0  0  0  0  0  0  0  0  0  0
   57.9874   34.4161   53.4405 H   0  0  0  0  0  0  0  0  0  0  0  0
   58.5098   35.1630   51.8926 H   0  0  0  0  0  0  0  0  0  0  0  0
   57.2447   33.8877   51.8926 H   0  0  0  0  0  0  0  0  0  0  0  0
   60.4178   34.6867   51.4932 H   0  0  0  0  0  0  0  0  0  0  0  0
   61.1891   33.1095   52.0367 H   0  0  0  0  0  0  0  0  0  0  0  0
   59.7197   33.6960   49.4815 H   0  0  0  0  0  0  0  0  0  0  0  0
   61.4191   33.1868   49.7114 H   0  0  0  0  0  0  0  0  0  0  0  0
   59.8973   29.7570   47.1450 H   0  0  0  0  0  0  0  0  0  0  0  0
   59.4213   26.2604   46.1155 H   0  0  0  0  0  0  0  0  0  0  0  0
   60.0267   27.7855   44.4092 H   0  0  0  0  0  0  0  0  0  0  0  0
   58.8710   29.9060   43.0650 H   0  0  0  0  0  0  0  0  0  0  0  0
   57.4975   31.6874   46.9679 H   0  0  0  0  0  0  0  0  0  0  0  0
   58.5131   33.4280   48.3903 H   0  0  0  0  0  0  0  0  0  0  0  0
   59.6774   35.3929   47.3855 H   0  0  0  0  0  0  0  0  0  0  0  0
   59.7989   35.5735   44.8791 H   0  0  0  0  0  0  0  0  0  0  0  0
   58.7819   33.8368   43.4992 H   0  0  0  0  0  0  0  0  0  0  0  0
   60.2097   25.7223   48.4670 H   0  0  0  0  0  0  0  0  0  0  0  0
   61.0443   26.4215   50.6383 H   0  0  0  0  0  0  0  0  0  0  0  0
   65.0264   28.1989   52.7151 H   0  0  0  0  0  0  0  0  0  0  0  0
   67.1230   29.3544   52.0790 H   0  0  0  0  0  0  0  0  0  0  0  0
   68.1088   31.0080   50.9036 H   0  0  0  0  0  0  0  0  0  0  0  0
   67.2099   31.5584   49.4045 H   0  0  0  0  0  0  0  0  0  0  0  0
   65.3540   34.1620   50.5920 H   0  0  0  0  0  0  0  0  0  0  0  0
   62.0970   34.5650   53.0280 H   0  0  0  0  0  0  0  0  0  0  0  0
   63.2935   33.6898   54.9485 H   0  0  0  0  0  0  0  0  0  0  0  0
   62.7510   30.9520   50.5040 H   0  0  0  0  0  0  0  0  0  0  0  0
   57.8919   31.5247   50.2185 H   0  0  0  0  0  0  0  0  0  0  0  0
   58.8166   30.1536   50.9223 H   0  0  0  0  0  0  0  0  0  0  0  0
   57.6833   31.8736   52.4683 H   0  0  0  0  0  0  0  0  0  0  0  0
   59.4350   31.3194   52.7530 H   0  0  0  0  0  0  0  0  0  0  0  0
  1  2  1  0
  2  3  1  0
  3  4  1  0
  4  5  1  0
  5  6  1  0
  6  7  2  0
  6  8  1  0
  8  9  2  0
  9 10  1  0
 10 11  1  0
 11 12  2  0
 12 13  1  0
 13 14  2  0
 13 15  1  0
 15 16  1  0
 16 17  2  0
 16 18  2  0
 16 19  1  0
 19 20  2  0
 20 21  1  0
 21 22  2  0
 22 23  1  0
 23 24  2  0
 10 25  2  0
 25 26  1  0
 26 27  2  0
 27 28  1  0
 28 29  2  0
 28 30  1  0
 30 31  2  0
 31 32  1  0
 32 33  2  0
 33 34  1  0
 34 35  1  0
 35 36  1  0
 36 37  2  0
 36 38  1  0
 38 39  2  0
 39 40  1  0
 40 41  1  0
 41 42  2  0
 41 43  1  0
 43 44  1  0
 44 45  2  0
 45 46  1  0
 34 47  1  0
 47 48  2  0
 47 49  1  0
  5 50  1  0
 50 51  1  0
 51  2  1  0
 27  8  1  0
 49 31  1  0
 24 19  1  0
 45 39  1  0
  1 52  1  0
  1 53  1  0
  1 54  1  0
  3 55  1  0
  3 56  1  0
  4 57  1  0
  4 58  1  0
  9 59  1  0
 11 60  1  0
 12 61  1  0
 15 62  1  0
 20 63  1  0
 21 64  1  0
 22 65  1  0
 23 66  1  0
 24 67  1  0
 25 68  1  0
 26 69  1  0
 32 70  1  0
 33 71  1  0
 35 72  1  0
 35 73  1  0
 40 74  1  0
 43 75  1  0
 44 76  1  0
 49 77  1  0
 50 78  1  0
 50 79  1  0
 51 80  1  0
 51 81  1  0
M  END
>  <smiles>  (48) 
CN1CCN(C(=O)c2cc(C=CC(=O)NS(=O)(=O)c3ccccc3)ccc2C(=O)N=c2ccn(CC(=O)N=c3[nH]c(=O)[nH]cc3F)c(=O)[nH]2)CC1

>  <score_type>  (48) 
oracle

>  <origin>  (48) 
adg

>  <m_score__min__energy>  (48) 
-13.119999999999999

>  <m_primary>  (48) 
energy

$$$$
48:0
     RDKit          3D

 37 39  0  0  0  0  0  0  0  0999 V2000
   57.1420   32.0530   42.6100 H   0  0  0  0  0  0  0  0  0  0  0  0
   57.8730   32.7110   42.8520 O   0  0  0  0  0  0  0  0  0  0  0  0
   58.1460   33.0430   44.1780 C   0  0  0  0  0  0  0  0  0  0  0  0
   59.2060   33.9090   44.4840 C   0  0  0  0  0  0  0  0  0  0  0  0
   59.8248   34.3255   43.6755 H   0  0  0  0  0  0  0  0  0  0  0  0
   59.4780   34.2440   45.8120 C   0  0  0  0  0  0  0  0  0  0  0  0
   60.3089   34.9251   46.0481 H   0  0  0  0  0  0  0  0  0  0  0  0
   58.6960   33.7150   46.8400 C   0  0  0  0  0  0  0  0  0  0  0  0
   58.9122   33.9796   47.8856 H   0  0  0  0  0  0  0  0  0  0  0  0
   57.6390   32.8500   46.5440 C   0  0  0  0  0  0  0  0  0  0  0  0
   57.0275   32.4333   47.3579 H   0  0  0  0  0  0  0  0  0  0  0  0
   57.3540   32.5100   45.2080 C   0  0  0  0  0  0  0  0  0  0  0  0
   56.2710   31.6340   44.8640 N   0  0  0  0  0  0  0  0  0  0  0  0
   56.4410   30.0460   44.1880 S   0  0  0  0  0  0  0  0  0  0  0  0
   55.2100   29.2450   44.5050 O   0  0  0  0  0  0  0  0  0  0  0  0
   56.5830   30.1610   42.6950 O   0  0  0  0  0  0  0  0  0  0  0  0
   57.8410   29.2320   44.8790 C   0  0  0  0  0  0  0  0  0  0  0  0
   59.1350   29.6620   44.5580 C   0  0  0  0  0  0  0  0  0  0  0  0
   59.2776   30.5041   43.8647 H   0  0  0  0  0  0  0  0  0  0  0  0
   60.2450   29.0230   45.1170 C   0  0  0  0  0  0  0  0  0  0  0  0
   61.2596   29.3703   44.8722 H   0  0  0  0  0  0  0  0  0  0  0  0
   60.0680   27.9440   45.9860 C   0  0  0  0  0  0  0  0  0  0  0  0
   60.9450   27.4515   46.4314 H   0  0  0  0  0  0  0  0  0  0  0  0
   58.7810   27.4850   46.2940 C   0  0  0  0  0  0  0  0  0  0  0  0
   58.6390   26.3700   47.1870 N   0  0  0  0  0  0  0  0  0  0  0  0
   57.4480   25.6010   47.4060 C   0  0  0  0  0  0  0  0  0  0  0  0
   57.4840   24.6450   48.2220 O   0  0  0  0  0  0  0  0  0  0  0  0
   56.2130   25.9000   46.7400 N   0  0  0  0  0  0  0  0  0  0  0  0
   55.6160   25.1480   45.8630 C   0  0  0  0  0  0  0  0  0  0  0  0
   54.2830   24.9440   45.8810 N   0  0  0  0  0  0  0  0  0  0  0  0
   53.8890   24.1000   44.8930 C   0  0  0  0  0  0  0  0  0  0  0  0
   52.8357   23.8213   44.7418 H   0  0  0  0  0  0  0  0  0  0  0  0
   54.9110   23.6130   44.0860 C   0  0  0  0  0  0  0  0  0  0  0  0
   54.7917   22.9223   43.2383 H   0  0  0  0  0  0  0  0  0  0  0  0
   56.3620   24.2650   44.6330 S   0  0  0  0  0  0  0  0  0  0  0  0
   57.6670   28.1480   45.7500 C   0  0  0  0  0  0  0  0  0  0  0  0
   56.6518   27.8136   46.0098 H   0  0  0  0  0  0  0  0  0  0  0  0
  1  2  1  0
  2  3  1  0
  3  4  2  0
  4  5  1  0
  4  6  1  0
  6  7  1  0
  6  8  2  0
  8  9  1  0
  8 10  1  0
 10 11  1  0
 10 12  2  0
 12 13  1  0
 13 14  1  0
 14 15  2  0
 14 16  2  0
 14 17  1  0
 17 18  2  0
 18 19  1  0
 18 20  1  0
 20 21  1  0
 20 22  2  0
 22 23  1  0
 22 24  1  0
 24 25  1  0
 25 26  1  0
 26 27  2  0
 26 28  1  0
 28 29  2  0
 29 30  1  0
 30 31  1  0
 31 32  1  0
 31 33  2  0
 33 34  1  0
 33 35  1  0
 24 36  2  0
 36 37  1  0
 12  3  1  0
 36 17  1  0
 35 29  1  0
M  CHG  3  13  -1  25  -1  30  -1
M  END
>  <UniqueID>  (49) 
48

>  <SMILES>  (49) 
O=C(/N=c1/[n-]ccs1)[N-]c1cccc(S(=O)(=O)[N-]c2ccccc2O)c1

>  <Energy>  (49) 
81.34586493958003

>  <Genealogy>  (49) 
O=C(N=c1[n-]ccs1)[N-]c1cccc(S(=O)(=O)[N-]c2ccccc2O)c1 (protonated)
O=C(/N=c1/[n-]ccs1)[N-]c1cccc(S(=O)(=O)[N-]c2ccccc2O)c1 (cis-trans isomerization)
O=C(/N=c1/[n-]ccs1)[N-]c1cccc(S(=O)(=O)[N-]c2ccccc2O)c1 (3D coordinates assigned)
O=C(/N=c1/[n-]ccs1)[N-]c1cccc(S(=O)(=O)[N-]c2ccccc2O)c1 (optimized conformer: 81.34586493958003 kcal/mol)

>  <smiles>  (49) 
O=C(N=c1[nH]ccs1)Nc1cccc(S(=O)(=O)Nc2ccccc2O)c1

>  <score_type>  (49) 
oracle

>  <origin>  (49) 
adg

>  <m_score__min__energy>  (49) 
-12.42

>  <m_primary>  (49) 
energy

$$$$
49:0
     RDKit          3D

 37 39  0  0  0  0  0  0  0  0999 V2000
   59.3410   35.1010   45.5400 C   0  0  0  0  0  0  0  0  0  0  0  0
   59.4070   33.9770   46.5420 C   0  0  0  0  0  0  0  0  0  0  0  0
   60.4830   33.9380   47.4470 C   0  0  0  0  0  0  0  0  0  0  0  0
   60.6090   32.8880   48.3560 C   0  0  0  0  0  0  0  0  0  0  0  0
   59.6730   31.8560   48.3660 C   0  0  0  0  0  0  0  0  0  0  0  0
   58.5930   31.8830   47.4830 C   0  0  0  0  0  0  0  0  0  0  0  0
   58.4180   32.9590   46.5920 C   0  0  0  0  0  0  0  0  0  0  0  0
   57.2270   32.9560   45.6500 C   0  0  0  0  0  0  0  0  0  0  0  0
   57.5690   32.4760   44.3070 N   0  0  0  0  0  0  0  0  0  0  0  0
   56.7920   30.9650   43.9130 S   0  0  0  0  0  0  0  0  0  0  0  0
   55.3920   30.9850   44.4600 O   0  0  0  0  0  0  0  0  0  0  0  0
   56.7050   30.8440   42.4180 O   0  0  0  0  0  0  0  0  0  0  0  0
   57.6350   29.5550   44.5720 C   0  0  0  0  0  0  0  0  0  0  0  0
   59.0340   29.4920   44.5080 C   0  0  0  0  0  0  0  0  0  0  0  0
   59.7170   28.3930   45.0250 C   0  0  0  0  0  0  0  0  0  0  0  0
   59.0140   27.3410   45.6160 C   0  0  0  0  0  0  0  0  0  0  0  0
   59.7000   26.2800   46.1210 N   0  0  0  0  0  0  0  0  0  0  0  0
   59.0680   25.2330   46.7100 C   0  0  0  0  0  0  0  0  0  0  0  0
   57.6780   25.2220   46.8140 C   0  0  0  0  0  0  0  0  0  0  0  0
   56.9360   26.2930   46.3070 C   0  0  0  0  0  0  0  0  0  0  0  0
   55.6800   26.2650   46.4120 O   0  0  0  0  0  0  0  0  0  0  0  0
   57.6000   27.3820   45.6940 C   0  0  0  0  0  0  0  0  0  0  0  0
   56.9140   28.5010   45.1640 C   0  0  0  0  0  0  0  0  0  0  0  0
   55.5250   28.5810   45.2280 O   0  0  0  0  0  0  0  0  0  0  0  0
   59.2845   36.0627   46.0710 H   0  0  0  0  0  0  0  0  0  0  0  0
   60.2418   35.0830   44.9089 H   0  0  0  0  0  0  0  0  0  0  0  0
   58.4486   34.9777   44.9089 H   0  0  0  0  0  0  0  0  0  0  0  0
   61.2322   34.7434   47.4377 H   0  0  0  0  0  0  0  0  0  0  0  0
   61.4488   32.8745   49.0663 H   0  0  0  0  0  0  0  0  0  0  0  0
   59.7856   31.0190   49.0708 H   0  0  0  0  0  0  0  0  0  0  0  0
   57.8699   31.0540   47.4830 H   0  0  0  0  0  0  0  0  0  0  0  0
   56.4481   32.3024   46.0696 H   0  0  0  0  0  0  0  0  0  0  0  0
   56.8776   33.9945   45.5528 H   0  0  0  0  0  0  0  0  0  0  0  0
   59.5969   30.3165   44.0461 H   0  0  0  0  0  0  0  0  0  0  0  0
   60.8148   28.3539   44.9674 H   0  0  0  0  0  0  0  0  0  0  0  0
   59.6544   24.3909   47.1063 H   0  0  0  0  0  0  0  0  0  0  0  0
   57.1669   24.3739   47.2931 H   0  0  0  0  0  0  0  0  0  0  0  0
  1  2  1  0
  2  3  2  0
  3  4  1  0
  4  5  2  0
  5  6  1  0
  6  7  2  0
  7  8  1  0
  8  9  1  0
  9 10  1  0
 10 11  2  0
 10 12  2  0
 10 13  1  0
 13 14  2  0
 14 15  1  0
 15 16  2  0
 16 17  1  0
 17 18  1  0
 18 19  2  0
 19 20  1  0
 20 21  2  0
 20 22  1  0
 22 23  2  0
 23 24  1  0
  7  2  1  0
 23 13  1  0
 22 16  1  0
  1 25  1  0
  1 26  1  0
  1 27  1  0
  3 28  1  0
  4 29  1  0
  5 30  1  0
  6 31  1  0
  8 32  1  0
  8 33  1  0
 14 34  1  0
 15 35  1  0
 18 36  1  0
 19 37  1  0
M  CHG  3   9  -1  17  -1  24  -1
M  END
>  <UniqueID>  (50) 
49

>  <SMILES>  (50) 
Cc1ccccc1C[N-]S(=O)(=O)c1ccc2[n-]ccc(=O)c2c1[O-]

>  <Energy>  (50) 
47.05276589099098

>  <Genealogy>  (50) 
Cc1ccccc1C[N-]S(=O)(=O)c1ccc2[n-]ccc(=O)c2c1[O-] (protonated)
Cc1ccccc1C[N-]S(=O)(=O)c1ccc2[n-]ccc(=O)c2c1[O-] (3D coordinates assigned)
Cc1ccccc1C[N-]S(=O)(=O)c1ccc2[n-]ccc(=O)c2c1[O-] (optimized conformer: 47.05276589099098 kcal/mol)

>  <smiles>  (50) 
Cc1ccccc1CNS(=O)(=O)c1ccc2[nH]ccc(=O)c2c1O

>  <score_type>  (50) 
oracle

>  <origin>  (50) 
adg

>  <m_score__min__energy>  (50) 
-14.960000000000001

>  <m_primary>  (50) 
energy

$$$$
50:0
     RDKit          3D

 51 53  0  0  0  0  0  0  0  0999 V2000
   57.7810   26.9670   47.2570 C   0  0  0  0  0  0  0  0  0  0  0  0
   56.6410   26.6390   46.4700 O   0  0  0  0  0  0  0  0  0  0  0  0
   56.5980   25.6110   45.5120 C   0  0  0  0  0  0  0  0  0  0  0  0
   55.7790   24.4760   45.6770 C   0  0  0  0  0  0  0  0  0  0  0  0
   55.7450   23.4810   44.6980 C   0  0  0  0  0  0  0  0  0  0  0  0
   56.5190   23.6060   43.5450 C   0  0  0  0  0  0  0  0  0  0  0  0
   57.3360   24.7250   43.3670 C   0  0  0  0  0  0  0  0  0  0  0  0
   57.3930   25.7250   44.3520 C   0  0  0  0  0  0  0  0  0  0  0  0
   58.2530   26.9440   44.1300 C   0  0  0  0  0  0  0  0  0  0  0  0
   57.5730   27.8860   43.2340 N   0  0  0  0  0  0  0  0  0  0  0  0
   57.1630   29.3340   44.1050 S   0  0  0  0  0  0  0  0  0  0  0  0
   56.9520   30.4580   43.1290 O   0  0  0  0  0  0  0  0  0  0  0  0
   55.8890   29.1110   44.8700 O   0  0  0  0  0  0  0  0  0  0  0  0
   58.4510   29.7400   45.2390 C   0  0  0  0  0  0  0  0  0  0  0  0
   58.1320   30.3270   46.4700 C   0  0  0  0  0  0  0  0  0  0  0  0
   59.1350   30.5990   47.4040 C   0  0  0  0  0  0  0  0  0  0  0  0
   60.4740   30.2830   47.1170 C   0  0  0  0  0  0  0  0  0  0  0  0
   61.5320   30.5560   48.0470 N   0  0  0  0  0  0  0  0  0  0  0  0
   62.3660   31.7190   48.0410 C   0  0  0  0  0  0  0  0  0  0  0  0
   63.3870   31.7650   47.3010 O   0  0  0  0  0  0  0  0  0  0  0  0
   61.9500   32.8960   48.8260 C   0  0  0  0  0  0  0  0  0  0  0  0
   61.3210   33.9760   48.3360 C   0  0  0  0  0  0  0  0  0  0  0  0
   60.2050   33.9470   47.3670 C   0  0  0  0  0  0  0  0  0  0  0  0
   58.8920   33.7760   47.8370 C   0  0  0  0  0  0  0  0  0  0  0  0
   57.8170   33.7850   46.9440 C   0  0  0  0  0  0  0  0  0  0  0  0
   58.0400   33.9840   45.5790 C   0  0  0  0  0  0  0  0  0  0  0  0
   56.9950   33.9930   44.7140 F   0  0  0  0  0  0  0  0  0  0  0  0
   59.3390   34.1860   45.1060 C   0  0  0  0  0  0  0  0  0  0  0  0
   60.4180   34.1790   45.9960 C   0  0  0  0  0  0  0  0  0  0  0  0
   60.7950   29.7340   45.8690 C   0  0  0  0  0  0  0  0  0  0  0  0
   59.7900   29.4520   44.9390 C   0  0  0  0  0  0  0  0  0  0  0  0
   57.5236   26.8930   48.3239 H   0  0  0  0  0  0  0  0  0  0  0  0
   58.5985   26.2676   47.0276 H   0  0  0  0  0  0  0  0  0  0  0  0
   58.1018   27.9939   47.0276 H   0  0  0  0  0  0  0  0  0  0  0  0
   55.1629   24.3734   46.5824 H   0  0  0  0  0  0  0  0  0  0  0  0
   55.1061   22.5964   44.8367 H   0  0  0  0  0  0  0  0  0  0  0  0
   56.4862   22.8220   42.7741 H   0  0  0  0  0  0  0  0  0  0  0  0
   57.9375   24.8236   42.4513 H   0  0  0  0  0  0  0  0  0  0  0  0
   58.4446   27.4346   45.0957 H   0  0  0  0  0  0  0  0  0  0  0  0
   59.2038   26.6345   43.6716 H   0  0  0  0  0  0  0  0  0  0  0  0
   56.6700   27.4660   42.9150 H   0  0  0  0  0  0  0  0  0  0  0  0
   57.0860   30.5753   46.7028 H   0  0  0  0  0  0  0  0  0  0  0  0
   58.8756   31.0622   48.3674 H   0  0  0  0  0  0  0  0  0  0  0  0
   62.1738   32.8884   49.9030 H   0  0  0  0  0  0  0  0  0  0  0  0
   61.6636   34.9618   48.6835 H   0  0  0  0  0  0  0  0  0  0  0  0
   58.7094   33.6344   48.9125 H   0  0  0  0  0  0  0  0  0  0  0  0
   56.7929   33.6351   47.3165 H   0  0  0  0  0  0  0  0  0  0  0  0
   59.5134   34.3507   44.0325 H   0  0  0  0  0  0  0  0  0  0  0  0
   61.4374   34.3557   45.6223 H   0  0  0  0  0  0  0  0  0  0  0  0
   61.8453   29.5233   45.6189 H   0  0  0  0  0  0  0  0  0  0  0  0
   60.0505   29.0029   43.9692 H   0  0  0  0  0  0  0  0  0  0  0  0
  1  2  1  0
  2  3  1  0
  3  4  2  0
  4  5  1  0
  5  6  2  0
  6  7  1  0
  7  8  2  0
  8  9  1  0
  9 10  1  0
 10 11  1  0
 11 12  2  0
 11 13  2  0
 11 14  1  0
 14 15  2  0
 15 16  1  0
 16 17  2  0
 17 18  1  0
 18 19  1  0
 19 20  2  0
 19 21  1  0
 21 22  2  3
 22 23  1  0
 23 24  2  0
 24 25  1  0
 25 26  2  0
 26 27  1  0
 26 28  1  0
 28 29  2  0
 17 30  1  0
 30 31  2  0
  8  3  1  0
 31 14  1  0
 29 23  1  0
  1 32  1  0
  1 33  1  0
  1 34  1  0
  4 35  1  0
  5 36  1  0
  6 37  1  0
  7 38  1  0
  9 39  1  0
  9 40  1  0
 10 41  1  0
 15 42  1  0
 16 43  1  0
 21 44  1  0
 22 45  1  0
 24 46  1  0
 25 47  1  0
 28 48  1  0
 29 49  1  0
 30 50  1  0
 31 51  1  0
M  CHG  1  18  -1
M  END
>  <UniqueID>  (51) 
50

>  <SMILES>  (51) 
COc1ccccc1CNS(=O)(=O)c1ccc([N-]C(=O)C=Cc2ccc(F)cc2)cc1

>  <Energy>  (51) 
60.34000092387933

>  <Genealogy>  (51) 
COc1ccccc1CNS(=O)(=O)c1ccc([N-]C(=O)C=Cc2ccc(F)cc2)cc1 (protonated)
COc1ccccc1CNS(=O)(=O)c1ccc([N-]C(=O)C=Cc2ccc(F)cc2)cc1 (3D coordinates assigned)
COc1ccccc1CNS(=O)(=O)c1ccc([N-]C(=O)C=Cc2ccc(F)cc2)cc1 (optimized conformer: 60.34000092387933 kcal/mol)

>  <smiles>  (51) 
COc1ccccc1CNS(=O)(=O)c1ccc(NC(=O)C=Cc2ccc(F)cc2)cc1

>  <score_type>  (51) 
oracle

>  <origin>  (51) 
adg

>  <m_score__min__energy>  (51) 
-10.630000000000001

>  <m_primary>  (51) 
energy

$$$$
51:0
     RDKit          3D

 30 32  0  0  0  0  0  0  0  0999 V2000
   60.0970   28.7260   47.1310 H   0  0  0  0  0  0  0  0  0  0  0  0
   59.8360   29.6970   47.0200 O   0  0  0  0  0  0  0  0  0  0  0  0
   58.7360   30.1210   46.2670 C   0  0  0  0  0  0  0  0  0  0  0  0
   57.7050   29.2240   45.8960 C   0  0  0  0  0  0  0  0  0  0  0  0
   57.7910   27.7760   46.2120 C   0  0  0  0  0  0  0  0  0  0  0  0
   58.9070   27.1960   46.1400 O   0  0  0  0  0  0  0  0  0  0  0  0
   56.6190   26.9810   46.4560 N   0  0  0  0  0  0  0  0  0  0  0  0
   56.2120   25.9250   45.8080 C   0  0  0  0  0  0  0  0  0  0  0  0
   54.9260   25.5150   45.9870 N   0  0  0  0  0  0  0  0  0  0  0  0
   54.4130   24.4300   45.3490 C   0  0  0  0  0  0  0  0  0  0  0  0
   53.3697   24.1306   45.5273 H   0  0  0  0  0  0  0  0  0  0  0  0
   55.2070   23.6960   44.4690 C   0  0  0  0  0  0  0  0  0  0  0  0
   54.7998   22.8117   43.9570 H   0  0  0  0  0  0  0  0  0  0  0  0
   56.5240   24.0970   44.2460 C   0  0  0  0  0  0  0  0  0  0  0  0
   57.1606   23.5310   43.5500 H   0  0  0  0  0  0  0  0  0  0  0  0
   57.0350   25.2170   44.9060 C   0  0  0  0  0  0  0  0  0  0  0  0
   58.0694   25.5442   44.7244 H   0  0  0  0  0  0  0  0  0  0  0  0
   56.5930   29.7250   45.1890 C   0  0  0  0  0  0  0  0  0  0  0  0
   55.6570   28.9590   44.8330 O   0  0  0  0  0  0  0  0  0  0  0  0
   56.5230   31.0410   44.8640 N   0  0  0  0  0  0  0  0  0  0  0  0
   57.5030   31.9200   45.1930 C   0  0  0  0  0  0  0  0  0  0  0  0
   57.3810   33.2660   44.8280 C   0  0  0  0  0  0  0  0  0  0  0  0
   56.4933   33.6071   44.2751 H   0  0  0  0  0  0  0  0  0  0  0  0
   58.3850   34.1760   45.1650 C   0  0  0  0  0  0  0  0  0  0  0  0
   58.2874   35.2328   44.8759 H   0  0  0  0  0  0  0  0  0  0  0  0
   59.5140   33.7470   45.8690 C   0  0  0  0  0  0  0  0  0  0  0  0
   60.3022   34.4674   46.1333 H   0  0  0  0  0  0  0  0  0  0  0  0
   59.6440   32.4050   46.2380 C   0  0  0  0  0  0  0  0  0  0  0  0
   60.5338   32.0731   46.7931 H   0  0  0  0  0  0  0  0  0  0  0  0
   58.6410   31.4770   45.9020 C   0  0  0  0  0  0  0  0  0  0  0  0
  1  2  1  0
  2  3  1  0
  3  4  2  0
  4  5  1  0
  5  6  2  0
  5  7  1  0
  7  8  2  0
  8  9  1  0
  9 10  1  0
 10 11  1  0
 10 12  2  0
 12 13  1  0
 12 14  1  0
 14 15  1  0
 14 16  2  0
 16 17  1  0
  4 18  1  0
 18 19  2  0
 18 20  1  0
 20 21  1  0
 21 22  2  0
 22 23  1  0
 22 24  1  0
 24 25  1  0
 24 26  2  0
 26 27  1  0
 26 28  1  0
 28 29  1  0
 28 30  2  0
 30  3  1  0
 16  8  1  0
 30 21  1  0
M  CHG  2   9  -1  20  -1
M  END
>  <UniqueID>  (52) 
51

>  <SMILES>  (52) 
O=C(/N=c1\cccc[n-]1)c1c(O)c2ccccc2[n-]c1=O

>  <Energy>  (52) 
53.32421756306715

>  <Genealogy>  (52) 
O=C(N=c1cccc[n-]1)c1c(O)c2ccccc2[n-]c1=O (protonated)
O=C(/N=c1\cccc[n-]1)c1c(O)c2ccccc2[n-]c1=O (cis-trans isomerization)
O=C(/N=c1\cccc[n-]1)c1c(O)c2ccccc2[n-]c1=O (3D coordinates assigned)
O=C(/N=c1\cccc[n-]1)c1c(O)c2ccccc2[n-]c1=O (optimized conformer: 53.32421756306715 kcal/mol)

>  <smiles>  (52) 
O=C(N=c1cccc[nH]1)c1c(O)c2ccccc2[nH]c1=O

>  <score_type>  (52) 
oracle

>  <origin>  (52) 
adg

>  <m_score__min__energy>  (52) 
-10.26

>  <m_primary>  (52) 
energy

$$$$
52:0
     RDKit          3D

 25 26  0  0  0  0  0  0  0  0999 V2000
   51.0890   30.6970   48.4050 O   0  0  0  0  0  0  0  0  0  0  0  0
   51.3650   30.9050   49.6150 C   0  0  0  0  0  0  0  0  0  0  0  0
   52.0050   29.9200   50.3690 C   0  0  0  0  0  0  0  0  0  0  0  0
   52.3020   30.1900   51.7120 C   0  0  0  0  0  0  0  0  0  0  0  0
   52.9290   29.1970   52.5420 N   0  0  0  0  0  0  0  0  0  0  0  0
   54.2300   29.6660   52.9500 C   0  0  0  0  0  0  0  0  0  0  0  0
   54.6040   29.6310   54.3020 C   0  0  0  0  0  0  0  0  0  0  0  0
   55.8510   30.1130   54.6990 C   0  0  0  0  0  0  0  0  0  0  0  0
   56.7400   30.6450   53.7590 C   0  0  0  0  0  0  0  0  0  0  0  0
   57.9720   31.1140   54.2000 O   0  0  0  0  0  0  0  0  0  0  0  0
   56.3790   30.7010   52.3930 C   0  0  0  0  0  0  0  0  0  0  0  0
   57.2670   31.2490   51.3950 N   0  0  0  0  0  0  0  0  0  0  0  0
   57.4860   32.4750   51.3270 O   0  0  0  0  0  0  0  0  0  0  0  0
   57.8950   30.4200   50.4940 O   0  0  0  0  0  0  0  0  0  0  0  0
   55.1180   30.2090   52.0060 C   0  0  0  0  0  0  0  0  0  0  0  0
   51.9460   31.3900   52.2450 N   0  0  0  0  0  0  0  0  0  0  0  0
   51.3230   32.3360   51.4950 C   0  0  0  0  0  0  0  0  0  0  0  0
   51.0090   33.4400   52.0100 O   0  0  0  0  0  0  0  0  0  0  0  0
   51.0380   32.0920   50.1900 N   0  0  0  0  0  0  0  0  0  0  0  0
   52.2707   28.9522   49.9187 H   0  0  0  0  0  0  0  0  0  0  0  0
   52.3330   28.9940   53.3780 H   0  0  0  0  0  0  0  0  0  0  0  0
   53.0240   28.3030   52.0070 H   0  0  0  0  0  0  0  0  0  0  0  0
   53.9109   29.2218   55.0517 H   0  0  0  0  0  0  0  0  0  0  0  0
   56.1379   30.0745   55.7602 H   0  0  0  0  0  0  0  0  0  0  0  0
   54.8230   30.2503   50.9471 H   0  0  0  0  0  0  0  0  0  0  0  0
  1  2  2  0
  2  3  1  0
  3  4  2  0
  4  5  1  0
  5  6  1  0
  6  7  2  0
  7  8  1  0
  8  9  2  0
  9 10  1  0
  9 11  1  0
 11 12  1  0
 12 13  2  0
 12 14  1  0
 11 15  2  0
  4 16  1  0
 16 17  1  0
 17 18  2  0
 17 19  1  0
 19  2  1  0
 15  6  1  0
  3 20  1  0
  5 21  1  0
  5 22  1  0
  7 23  1  0
  8 24  1  0
 15 25  1  0
M  CHG  6   5   1  10  -1  12   1  14  -1  16  -1  19  -1
M  END
>  <UniqueID>  (53) 
52

>  <SMILES>  (53) 
O=c1cc([NH2+]c2ccc([O-])c([N+](=O)[O-])c2)[n-]c(=O)[n-]1

>  <Energy>  (53) 
31.546423151178764

>  <Genealogy>  (53) 
O=c1cc([NH2+]c2ccc([O-])c([N+](=O)[O-])c2)[n-]c(=O)[n-]1 (protonated)
O=c1cc([NH2+]c2ccc([O-])c([N+](=O)[O-])c2)[n-]c(=O)[n-]1 (3D coordinates assigned)
O=c1cc([NH2+]c2ccc([O-])c([N+](=O)[O-])c2)[n-]c(=O)[n-]1 (optimized conformer: 31.546423151178764 kcal/mol)

>  <smiles>  (53) 
O=c1cc(Nc2ccc(O)c([N+](=O)[O-])c2)[nH]c(=O)[nH]1

>  <score_type>  (53) 
oracle

>  <origin>  (53) 
adg

>  <m_score__min__energy>  (53) 
-12.48

>  <m_primary>  (53) 
energy

$$$$
53:0
     RDKit          3D

 39 41  0  0  0  0  0  0  0  0999 V2000
   57.5180   28.9690   43.5670 N   0  0  0  0  0  0  0  0  0  0  0  0
   56.8890   30.5580   43.8340 S   0  0  0  0  0  0  0  0  0  0  0  0
   56.7150   31.2260   42.4990 O   0  0  0  0  0  0  0  0  0  0  0  0
   55.5500   30.4640   44.5100 O   0  0  0  0  0  0  0  0  0  0  0  0
   58.0010   31.5020   44.8420 C   0  0  0  0  0  0  0  0  0  0  0  0
   58.0240   32.8990   44.6880 C   0  0  0  0  0  0  0  0  0  0  0  0
   58.9230   33.6800   45.4180 C   0  0  0  0  0  0  0  0  0  0  0  0
   59.8080   33.0790   46.3100 C   0  0  0  0  0  0  0  0  0  0  0  0
   59.7890   31.6940   46.4880 C   0  0  0  0  0  0  0  0  0  0  0  0
   58.8820   30.8940   45.7710 C   0  0  0  0  0  0  0  0  0  0  0  0
   58.8890   29.4370   46.0170 C   0  0  0  0  0  0  0  0  0  0  0  0
   57.7510   28.7960   46.5310 C   0  0  0  0  0  0  0  0  0  0  0  0
   57.7630   27.4180   46.7620 C   0  0  0  0  0  0  0  0  0  0  0  0
   58.9230   26.6650   46.5080 C   0  0  0  0  0  0  0  0  0  0  0  0
   58.9670   25.2450   46.7040 N   0  0  0  0  0  0  0  0  0  0  0  0
   58.0560   24.2820   46.1560 C   0  0  0  0  0  0  0  0  0  0  0  0
   57.7850   23.2210   46.7800 O   0  0  0  0  0  0  0  0  0  0  0  0
   57.4550   24.5230   44.8070 C   0  0  0  0  0  0  0  0  0  0  0  0
   55.9590   24.3960   44.8750 C   0  0  0  0  0  0  0  0  0  0  0  0
   55.2490   25.2380   45.6750 N   0  0  0  0  0  0  0  0  0  0  0  0
   53.9230   25.1380   45.7840 N   0  0  0  0  0  0  0  0  0  0  0  0
   53.2400   24.1820   45.1020 C   0  0  0  0  0  0  0  0  0  0  0  0
   51.6170   24.0720   45.2470 S   0  0  0  0  0  0  0  0  0  0  0  0
   53.9120   23.3200   44.2980 N   0  0  0  0  0  0  0  0  0  0  0  0
   55.2610   23.4030   44.1690 C   0  0  0  0  0  0  0  0  0  0  0  0
   55.8680   22.5880   43.4230 O   0  0  0  0  0  0  0  0  0  0  0  0
   60.0560   27.3080   45.9930 C   0  0  0  0  0  0  0  0  0  0  0  0
   60.0450   28.6850   45.7610 C   0  0  0  0  0  0  0  0  0  0  0  0
   58.3810   29.0760   42.9860 H   0  0  0  0  0  0  0  0  0  0  0  0
   57.3278   33.3815   43.9863 H   0  0  0  0  0  0  0  0  0  0  0  0
   58.9321   34.7723   45.2881 H   0  0  0  0  0  0  0  0  0  0  0  0
   60.5225   33.6959   46.8748 H   0  0  0  0  0  0  0  0  0  0  0  0
   60.4893   31.2252   47.1949 H   0  0  0  0  0  0  0  0  0  0  0  0
   56.8461   29.3808   46.7528 H   0  0  0  0  0  0  0  0  0  0  0  0
   56.8601   26.9196   47.1446 H   0  0  0  0  0  0  0  0  0  0  0  0
   57.7186   25.5355   44.4674 H   0  0  0  0  0  0  0  0  0  0  0  0
   57.8469   23.7761   44.1009 H   0  0  0  0  0  0  0  0  0  0  0  0
   60.9610   26.7239   45.7697 H   0  0  0  0  0  0  0  0  0  0  0  0
   60.9473   29.1823   45.3756 H   0  0  0  0  0  0  0  0  0  0  0  0
  1  2  1  0
  2  3  2  0
  2  4  2  0
  2  5  1  0
  5  6  2  0
  6  7  1  0
  7  8  2  0
  8  9  1  0
  9 10  2  0
 10 11  1  0
 11 12  2  0
 12 13  1  0
 13 14  2  0
 14 15  1  0
 15 16  1  0
 16 17  2  0
 16 18  1  0
 18 19  1  0
 19 20  2  0
 20 21  1  0
 21 22  1  0
 22 23  2  0
 22 24  1  0
 24 25  1  0
 25 26  2  0
 14 27  1  0
 27 28  2  0
 10  5  1  0
 28 11  1  0
 25 19  1  0
  1 29  1  0
  6 30  1  0
  7 31  1  0
  8 32  1  0
  9 33  1  0
 12 34  1  0
 13 35  1  0
 18 36  1  0
 18 37  1  0
 27 38  1  0
 28 39  1  0
M  CHG  4   1  -1  15  -1  21  -1  24  -1
M  END
>  <UniqueID>  (54) 
53

>  <SMILES>  (54) 
[NH-]S(=O)(=O)c1ccccc1-c1ccc([N-]C(=O)Cc2n[n-]c(=S)[n-]c2=O)cc1

>  <Energy>  (54) 
53.920310002678306

>  <Genealogy>  (54) 
[NH-]S(=O)(=O)c1ccccc1-c1ccc([N-]C(=O)Cc2n[n-]c(=S)[n-]c2=O)cc1 (protonated)
[NH-]S(=O)(=O)c1ccccc1-c1ccc([N-]C(=O)Cc2n[n-]c(=S)[n-]c2=O)cc1 (3D coordinates assigned)
[NH-]S(=O)(=O)c1ccccc1-c1ccc([N-]C(=O)Cc2n[n-]c(=S)[n-]c2=O)cc1 (optimized conformer: 53.920310002678306 kcal/mol)

>  <smiles>  (54) 
NS(=O)(=O)c1ccccc1-c1ccc(NC(=O)Cc2n[nH]c(=S)[nH]c2=O)cc1

>  <score_type>  (54) 
oracle

>  <origin>  (54) 
adg

>  <m_score__min__energy>  (54) 
-16.329999999999998

>  <m_primary>  (54) 
energy

$$$$
54:0
     RDKit          3D

 52 55  0  0  0  0  0  0  0  0999 V2000
   61.4740   32.6630   47.5670 C   0  0  0  0  0  0  0  0  0  0  0  0
   60.1240   32.0240   47.9920 C   0  0  1  0  0  0  0  0  0  0  0  0
   59.0400   32.3790   46.9520 C   0  0  0  0  0  0  0  0  0  0  0  0
   58.6110   33.7100   46.7680 C   0  0  0  0  0  0  0  0  0  0  0  0
   57.5610   34.0130   45.8930 C   0  0  0  0  0  0  0  0  0  0  0  0
   56.9500   32.9990   45.1510 C   0  0  0  0  0  0  0  0  0  0  0  0
   57.4150   31.6780   45.2490 C   0  0  0  0  0  0  0  0  0  0  0  0
   56.8430   30.6300   44.4520 N   0  0  0  0  0  0  0  0  0  0  0  0
   56.4350   29.3590   44.9680 C   0  0  0  0  0  0  0  0  0  0  0  0
   55.2320   29.0110   44.8570 O   0  0  0  0  0  0  0  0  0  0  0  0
   57.4190   28.4190   45.5390 C   0  0  0  0  0  0  0  0  0  0  0  0
   58.7710   28.7830   45.5910 C   0  0  0  0  0  0  0  0  0  0  0  0
   59.6940   27.9390   46.1160 N   0  0  0  0  0  0  0  0  0  0  0  0
   59.3410   26.7180   46.6070 C   0  0  0  0  0  0  0  0  0  0  0  0
   60.2260   25.9620   47.0850 O   0  0  0  0  0  0  0  0  0  0  0  0
   58.0040   26.3010   46.5750 C   0  0  0  0  0  0  0  0  0  0  0  0
   57.0250   27.1610   46.0420 C   0  0  0  0  0  0  0  0  0  0  0  0
   55.6710   26.8040   45.9910 O   0  0  0  0  0  0  0  0  0  0  0  0
   55.1680   25.4980   45.7120 C   0  0  0  0  0  0  0  0  0  0  0  0
   56.1440   24.7380   44.7980 C   0  0  0  0  0  0  0  0  0  0  0  0
   56.2990   23.2490   45.1010 C   0  0  0  0  0  0  0  0  0  0  0  0
   55.5280   23.7040   43.8690 C   0  0  0  0  0  0  0  0  0  0  0  0
   58.4610   31.3790   46.1310 C   0  0  0  0  0  0  0  0  0  0  0  0
   60.3300   30.5550   48.0310 N   0  0  0  0  0  0  0  0  0  0  0  0
   59.8100   29.7750   48.9390 C   0  0  0  0  0  0  0  0  0  0  0  0
   60.0130   28.3600   48.8770 N   0  0  0  0  0  0  0  0  0  0  0  0
   59.0510   30.3090   49.9880 O   0  0  0  0  0  0  0  0  0  0  0  0
   58.6250   31.6690   49.9910 C   0  0  0  0  0  0  0  0  0  0  0  0
   59.7290   32.5470   49.4070 C   0  0  0  0  0  0  0  0  0  0  0  0
   60.8190   32.4830   50.2540 F   0  0  0  0  0  0  0  0  0  0  0  0
   59.2950   33.8570   49.3590 F   0  0  0  0  0  0  0  0  0  0  0  0
   62.0493   32.9353   48.4641 H   0  0  0  0  0  0  0  0  0  0  0  0
   62.0487   31.9414   46.9679 H   0  0  0  0  0  0  0  0  0  0  0  0
   61.2802   33.5650   46.9679 H   0  0  0  0  0  0  0  0  0  0  0  0
   59.1084   34.5213   47.3197 H   0  0  0  0  0  0  0  0  0  0  0  0
   57.2161   35.0524   45.7894 H   0  0  0  0  0  0  0  0  0  0  0  0
   56.1038   33.2360   44.4894 H   0  0  0  0  0  0  0  0  0  0  0  0
   59.0869   29.7624   45.2024 H   0  0  0  0  0  0  0  0  0  0  0  0
   57.7217   25.3110   46.9626 H   0  0  0  0  0  0  0  0  0  0  0  0
   55.0483   24.9453   46.6555 H   0  0  0  0  0  0  0  0  0  0  0  0
   54.1964   25.5881   45.2042 H   0  0  0  0  0  0  0  0  0  0  0  0
   56.8304   25.5872   44.6651 H   0  0  0  0  0  0  0  0  0  0  0  0
   57.2796   22.7634   44.9886 H   0  0  0  0  0  0  0  0  0  0  0  0
   56.0785   22.6024   45.9631 H   0  0  0  0  0  0  0  0  0  0  0  0
   55.9514   23.5450   42.8663 H   0  0  0  0  0  0  0  0  0  0  0  0
   54.5184   23.5196   43.4730 H   0  0  0  0  0  0  0  0  0  0  0  0
   58.8406   30.3481   46.1877 H   0  0  0  0  0  0  0  0  0  0  0  0
   60.8410   30.1170   47.2350 H   0  0  0  0  0  0  0  0  0  0  0  0
   59.5870   27.7440   49.6040 H   0  0  0  0  0  0  0  0  0  0  0  0
   60.5420   27.9230   48.0880 H   0  0  0  0  0  0  0  0  0  0  0  0
   57.7148   31.7699   49.3816 H   0  0  0  0  0  0  0  0  0  0  0  0
   58.4111   31.9850   51.0227 H   0  0  0  0  0  0  0  0  0  0  0  0
  2  1  1  6
  2  3  1  0
  3  4  2  0
  4  5  1  0
  5  6  2  0
  6  7  1  0
  7  8  1  0
  8  9  1  0
  9 10  2  0
  9 11  1  0
 11 12  2  0
 12 13  1  0
 13 14  1  0
 14 15  2  0
 14 16  1  0
 16 17  2  0
 17 18  1  0
 18 19  1  0
 19 20  1  0
 20 21  1  0
 21 22  1  0
  7 23  2  0
  2 24  1  0
 24 25  2  0
 25 26  1  0
 25 27  1  0
 27 28  1  0
 28 29  1  0
 29 30  1  0
 29 31  1  0
 29  2  1  0
 23  3  1  0
 17 11  1  0
 22 20  1  0
  1 32  1  0
  1 33  1  0
  1 34  1  0
  4 35  1  0
  5 36  1  0
  6 37  1  0
 12 38  1  0
 16 39  1  0
 19 40  1  0
 19 41  1  0
 20 42  1  0
 21 43  1  0
 21 44  1  0
 22 45  1  0
 22 46  1  0
 23 47  1  0
 24 48  1  0
 26 49  1  0
 26 50  1  0
 28 51  1  0
 28 52  1  0
M  CHG  3   8  -1  13  -1  24   1
M  END
>  <UniqueID>  (55) 
54

>  <SMILES>  (55) 
C[C@@]1(c2cccc([N-]C(=O)c3c[n-]c(=O)cc3OCC3CC3)c2)[NH+]=C(N)OCC1(F)F

>  <Energy>  (55) 
333.2474544786326

>  <Genealogy>  (55) 
CC1(c2cccc([N-]C(=O)c3c[n-]c(=O)cc3OCC3CC3)c2)[NH+]=C(N)OCC1(F)F (protonated)
C[C@@]1(c2cccc([N-]C(=O)c3c[n-]c(=O)cc3OCC3CC3)c2)[NH+]=C(N)OCC1(F)F (chirality)
C[C@@]1(c2cccc([N-]C(=O)c3c[n-]c(=O)cc3OCC3CC3)c2)[NH+]=C(N)OCC1(F)F (3D coordinates assigned)
C[C@@]1(c2cccc([N-]C(=O)c3c[n-]c(=O)cc3OCC3CC3)c2)[NH+]=C(N)OCC1(F)F (nonaromatic ring conformer: 333.2474544786326 kcal/mol)

>  <smiles>  (55) 
CC1(c2cccc(NC(=O)c3c[nH]c(=O)cc3OCC3CC3)c2)N=C(N)OCC1(F)F

>  <score_type>  (55) 
oracle

>  <origin>  (55) 
adg

>  <m_score__min__energy>  (55) 
-10.380000000000001

>  <m_primary>  (55) 
energy

$$$$
55:0
     RDKit          3D

 37 39  0  0  0  0  0  0  0  0999 V2000
   55.9527   28.1455   46.0369 H   0  0  0  0  0  0  0  0  0  0  0  0
   56.8210   28.6500   45.5880 C   0  0  0  0  0  0  0  0  0  0  0  0
   56.7210   29.9460   45.1920 N   0  0  0  0  0  0  0  0  0  0  0  0
   57.7730   30.6110   44.6460 C   0  0  0  0  0  0  0  0  0  0  0  0
   57.5590   32.2960   44.0820 S   0  0  0  0  0  0  0  0  0  0  0  0
   58.3250   32.9640   45.5580 C   0  0  0  0  0  0  0  0  0  0  0  0
   58.1850   32.3000   46.7830 C   0  0  0  0  0  0  0  0  0  0  0  0
   57.6216   31.3566   46.8349 H   0  0  0  0  0  0  0  0  0  0  0  0
   58.7600   32.8340   47.9400 C   0  0  0  0  0  0  0  0  0  0  0  0
   58.6555   32.3045   48.8985 H   0  0  0  0  0  0  0  0  0  0  0  0
   59.4700   34.0430   47.8830 C   0  0  0  0  0  0  0  0  0  0  0  0
   60.1140   34.5990   49.1180 C   0  0  0  0  0  0  0  0  0  0  0  0
   59.6250   34.1768   50.0083 H   0  0  0  0  0  0  0  0  0  0  0  0
   61.1816   34.3342   49.1258 H   0  0  0  0  0  0  0  0  0  0  0  0
   60.0077   35.6938   49.1258 H   0  0  0  0  0  0  0  0  0  0  0  0
   59.6280   34.6920   46.6490 C   0  0  0  0  0  0  0  0  0  0  0  0
   60.2072   35.6254   46.5915 H   0  0  0  0  0  0  0  0  0  0  0  0
   59.0530   34.1580   45.4930 C   0  0  0  0  0  0  0  0  0  0  0  0
   59.1725   34.6766   44.5303 H   0  0  0  0  0  0  0  0  0  0  0  0
   59.0040   29.9670   44.4960 C   0  0  0  0  0  0  0  0  0  0  0  0
   59.8633   30.5044   44.0684 H   0  0  0  0  0  0  0  0  0  0  0  0
   59.1330   28.6350   44.8940 C   0  0  0  0  0  0  0  0  0  0  0  0
   60.1001   28.1213   44.7902 H   0  0  0  0  0  0  0  0  0  0  0  0
   58.0300   27.9520   45.4260 C   0  0  0  0  0  0  0  0  0  0  0  0
   58.1450   26.5280   45.8190 C   0  0  0  0  0  0  0  0  0  0  0  0
   59.2060   25.9020   45.5560 O   0  0  0  0  0  0  0  0  0  0  0  0
   57.1050   25.8470   46.5380 N   0  0  0  0  0  0  0  0  0  0  0  0
   56.3760   24.8650   46.0880 C   0  0  0  0  0  0  0  0  0  0  0  0
   56.9050   23.6180   45.9140 N   0  0  0  0  0  0  0  0  0  0  0  0
   56.1620   22.5760   45.4550 C   0  0  0  0  0  0  0  0  0  0  0  0
   56.6251   21.5874   45.3202 H   0  0  0  0  0  0  0  0  0  0  0  0
   54.8120   22.7610   45.1550 C   0  0  0  0  0  0  0  0  0  0  0  0
   54.2055   21.9227   44.7815 H   0  0  0  0  0  0  0  0  0  0  0  0
   54.2390   24.0220   45.3340 C   0  0  0  0  0  0  0  0  0  0  0  0
   53.1751   24.1814   45.1043 H   0  0  0  0  0  0  0  0  0  0  0  0
   55.0190   25.0800   45.8050 C   0  0  0  0  0  0  0  0  0  0  0  0
   54.4460   26.3350   45.9850 O   0  0  0  0  0  0  0  0  0  0  0  0
  1  2  1  0
  2  3  2  0
  3  4  1  0
  4  5  1  0
  5  6  1  0
  6  7  2  0
  7  8  1  0
  7  9  1  0
  9 10  1  0
  9 11  2  0
 11 12  1  0
 12 13  1  0
 12 14  1  0
 12 15  1  0
 11 16  1  0
 16 17  1  0
 16 18  2  0
 18 19  1  0
  4 20  2  0
 20 21  1  0
 20 22  1  0
 22 23  1  0
 22 24  2  0
 24 25  1  0
 25 26  2  0
 25 27  1  0
 27 28  2  0
 28 29  1  0
 29 30  1  0
 30 31  1  0
 30 32  2  0
 32 33  1  0
 32 34  1  0
 34 35  1  0
 34 36  2  0
 36 37  1  0
 24  2  1  0
 36 28  1  0
 18  6  1  0
M  CHG  2  29  -1  37  -1
M  END
>  <UniqueID>  (56) 
55

>  <SMILES>  (56) 
Cc1ccc(Sc2ccc(C(=O)/N=c3\[n-]cccc3[O-])cn2)cc1

>  <Energy>  (56) 
43.981258820736066

>  <Genealogy>  (56) 
Cc1ccc(Sc2ccc(C(=O)N=c3[n-]cccc3[O-])cn2)cc1 (protonated)
Cc1ccc(Sc2ccc(C(=O)/N=c3\[n-]cccc3[O-])cn2)cc1 (cis-trans isomerization)
Cc1ccc(Sc2ccc(C(=O)/N=c3\[n-]cccc3[O-])cn2)cc1 (3D coordinates assigned)
Cc1ccc(Sc2ccc(C(=O)/N=c3\[n-]cccc3[O-])cn2)cc1 (optimized conformer: 43.981258820736066 kcal/mol)

>  <smiles>  (56) 
Cc1ccc(Sc2ccc(C(=O)N=c3[nH]cccc3O)cn2)cc1

>  <score_type>  (56) 
oracle

>  <origin>  (56) 
adg

>  <m_score__min__energy>  (56) 
-14.06

>  <m_primary>  (56) 
energy

$$$$
56:0
     RDKit          3D

 45 47  0  0  0  0  0  0  0  0999 V2000
   55.1390   29.3760   44.8750 N   0  0  0  0  0  0  0  0  0  0  0  0
   56.6090   29.5900   43.9910 S   0  0  0  0  0  0  0  0  0  0  0  0
   57.2790   28.2570   43.8050 O   0  0  0  0  0  0  0  0  0  0  0  0
   56.3020   30.1690   42.6390 O   0  0  0  0  0  0  0  0  0  0  0  0
   57.6710   30.6820   44.8740 C   0  0  0  0  0  0  0  0  0  0  0  0
   58.7840   30.1870   45.5660 C   0  0  0  0  0  0  0  0  0  0  0  0
   59.6210   31.0600   46.2680 C   0  0  0  0  0  0  0  0  0  0  0  0
   59.3440   32.4360   46.3020 C   0  0  0  0  0  0  0  0  0  0  0  0
   60.2410   33.3570   47.0340 C   0  0  0  0  0  0  0  0  0  0  0  0
   60.4700   34.5000   46.5530 O   0  0  0  0  0  0  0  0  0  0  0  0
   60.8700   32.9680   48.2700 N   0  0  0  0  0  0  0  0  0  0  0  0
   61.3990   31.6060   48.4350 C   0  0  0  0  0  0  0  0  0  0  0  0
   62.5170   31.5820   49.4800 C   0  0  0  0  0  0  0  0  0  0  0  0
   63.3320   32.7960   49.3300 N   0  0  0  0  0  0  0  0  0  0  0  0
   64.7990   32.6540   50.2660 S   0  0  0  0  0  0  0  0  0  0  0  0
   65.9750   33.0700   49.4240 O   0  0  0  0  0  0  0  0  0  0  0  0
   64.9870   31.2290   50.7070 O   0  0  0  0  0  0  0  0  0  0  0  0
   64.6940   33.6770   51.6940 C   0  0  0  0  0  0  0  0  0  0  0  0
   65.5830   34.7480   51.8710 C   0  0  0  0  0  0  0  0  0  0  0  0
   65.4940   35.5540   53.0100 C   0  0  0  0  0  0  0  0  0  0  0  0
   64.5210   35.2920   53.9780 C   0  0  0  0  0  0  0  0  0  0  0  0
   63.6360   34.2230   53.8090 C   0  0  0  0  0  0  0  0  0  0  0  0
   63.7230   33.4160   52.6720 C   0  0  0  0  0  0  0  0  0  0  0  0
   62.5850   34.0040   49.7420 C   0  0  0  0  0  0  0  0  0  0  0  0
   61.0960   33.9580   49.3320 C   0  0  0  0  0  0  0  0  0  0  0  0
   58.2330   32.9290   45.5990 C   0  0  0  0  0  0  0  0  0  0  0  0
   57.3980   32.0550   44.8960 C   0  0  0  0  0  0  0  0  0  0  0  0
   55.3180   28.6330   45.5880 H   0  0  0  0  0  0  0  0  0  0  0  0
   59.0001   29.1085   45.5571 H   0  0  0  0  0  0  0  0  0  0  0  0
   60.5016   30.6663   46.7967 H   0  0  0  0  0  0  0  0  0  0  0  0
   60.5862   30.9401   48.7606 H   0  0  0  0  0  0  0  0  0  0  0  0
   61.8082   31.2668   47.4719 H   0  0  0  0  0  0  0  0  0  0  0  0
   62.0795   31.5528   50.4888 H   0  0  0  0  0  0  0  0  0  0  0  0
   63.1447   30.6903   49.3353 H   0  0  0  0  0  0  0  0  0  0  0  0
   66.3519   34.9540   51.1118 H   0  0  0  0  0  0  0  0  0  0  0  0
   66.1904   36.3949   53.1441 H   0  0  0  0  0  0  0  0  0  0  0  0
   64.4513   35.9271   54.8734 H   0  0  0  0  0  0  0  0  0  0  0  0
   62.8707   34.0172   54.5718 H   0  0  0  0  0  0  0  0  0  0  0  0
   63.0279   32.5733   52.5433 H   0  0  0  0  0  0  0  0  0  0  0  0
   62.6452   34.0979   50.8363 H   0  0  0  0  0  0  0  0  0  0  0  0
   63.0418   34.8650   49.2320 H   0  0  0  0  0  0  0  0  0  0  0  0
   60.4899   33.6883   50.2095 H   0  0  0  0  0  0  0  0  0  0  0  0
   60.8073   34.9493   48.9526 H   0  0  0  0  0  0  0  0  0  0  0  0
   58.0185   34.0079   45.6013 H   0  0  0  0  0  0  0  0  0  0  0  0
   56.5228   32.4479   44.3579 H   0  0  0  0  0  0  0  0  0  0  0  0
  1  2  1  0
  2  3  2  0
  2  4  2  0
  2  5  1  0
  5  6  2  0
  6  7  1  0
  7  8  2  0
  8  9  1  0
  9 10  2  0
  9 11  1  0
 11 12  1  0
 12 13  1  0
 13 14  1  0
 14 15  1  0
 15 16  2  0
 15 17  2  0
 15 18  1  0
 18 19  2  0
 19 20  1  0
 20 21  2  0
 21 22  1  0
 22 23  2  0
 14 24  1  0
 24 25  1  0
  8 26  1  0
 26 27  2  0
 27  5  1  0
 25 11  1  0
 23 18  1  0
  1 28  1  0
  6 29  1  0
  7 30  1  0
 12 31  1  0
 12 32  1  0
 13 33  1  0
 13 34  1  0
 19 35  1  0
 20 36  1  0
 21 37  1  0
 22 38  1  0
 23 39  1  0
 24 40  1  0
 24 41  1  0
 25 42  1  0
 25 43  1  0
 26 44  1  0
 27 45  1  0
M  CHG  1   1  -1
M  END
>  <UniqueID>  (57) 
56

>  <SMILES>  (57) 
[NH-]S(=O)(=O)c1ccc(C(=O)N2CCN(S(=O)(=O)c3ccccc3)CC2)cc1

>  <Energy>  (57) 
55.67897683130891

>  <Genealogy>  (57) 
[NH-]S(=O)(=O)c1ccc(C(=O)N2CCN(S(=O)(=O)c3ccccc3)CC2)cc1 (protonated)
[NH-]S(=O)(=O)c1ccc(C(=O)N2CCN(S(=O)(=O)c3ccccc3)CC2)cc1 (3D coordinates assigned)
[NH-]S(=O)(=O)c1ccc(C(=O)N2CCN(S(=O)(=O)c3ccccc3)CC2)cc1 (nonaromatic ring conformer: 55.67897683130891 kcal/mol)

>  <smiles>  (57) 
NS(=O)(=O)c1ccc(C(=O)N2CCN(S(=O)(=O)c3ccccc3)CC2)cc1

>  <score_type>  (57) 
oracle

>  <origin>  (57) 
adg

>  <m_score__min__energy>  (57) 
-10.34

>  <m_primary>  (57) 
energy

$$$$
57:0
     RDKit          3D

 45 46  0  0  0  0  0  0  0  0999 V2000
   50.6280   31.9290   48.7960 C   0  0  0  0  0  0  0  0  0  0  0  0
   51.4770   32.5410   49.7620 O   0  0  0  0  0  0  0  0  0  0  0  0
   51.8410   31.9550   50.9840 C   0  0  0  0  0  0  0  0  0  0  0  0
   52.9780   31.1320   51.1140 C   0  0  0  0  0  0  0  0  0  0  0  0
   53.3080   30.5630   52.3550 C   0  0  0  0  0  0  0  0  0  0  0  0
   54.4940   29.6470   52.4740 C   0  0  0  0  0  0  0  0  0  0  0  0
   55.7540   30.4510   52.4840 C   0  0  0  0  0  0  0  0  0  0  0  0
   56.2580   30.8140   53.5810 O   0  0  0  0  0  0  0  0  0  0  0  0
   56.4090   30.7540   51.2480 N   0  0  0  0  0  0  0  0  0  0  0  0
   57.8540   30.6900   51.0700 C   0  0  0  0  0  0  0  0  0  0  0  0
   58.1960   29.9360   49.7800 C   0  0  0  0  0  0  0  0  0  0  0  0
   58.9340   30.8310   48.7780 C   0  0  0  0  0  0  0  0  0  0  0  0
   58.2720   32.0890   48.6230 O   0  0  0  0  0  0  0  0  0  0  0  0
   58.4620   32.9910   47.5620 C   0  0  0  0  0  0  0  0  0  0  0  0
   57.7980   32.8480   46.3260 C   0  0  0  0  0  0  0  0  0  0  0  0
   58.0210   33.7620   45.2940 C   0  0  0  0  0  0  0  0  0  0  0  0
   58.9030   34.8270   45.4800 C   0  0  0  0  0  0  0  0  0  0  0  0
   59.5630   34.9850   46.7000 C   0  0  0  0  0  0  0  0  0  0  0  0
   59.3430   34.0760   47.7480 C   0  0  0  0  0  0  0  0  0  0  0  0
   60.0730   34.2400   49.0520 C   0  0  0  0  0  0  0  0  0  0  0  0
   52.4860   30.8050   53.4650 C   0  0  0  0  0  0  0  0  0  0  0  0
   51.3620   31.6230   53.3420 C   0  0  0  0  0  0  0  0  0  0  0  0
   51.0390   32.1970   52.1090 C   0  0  0  0  0  0  0  0  0  0  0  0
   49.9160   33.0080   52.0010 O   0  0  0  0  0  0  0  0  0  0  0  0
   49.8388   31.3601   49.3094 H   0  0  0  0  0  0  0  0  0  0  0  0
   50.1695   32.7057   48.1663 H   0  0  0  0  0  0  0  0  0  0  0  0
   51.2199   31.2485   48.1663 H   0  0  0  0  0  0  0  0  0  0  0  0
   53.6116   30.9339   50.2369 H   0  0  0  0  0  0  0  0  0  0  0  0
   54.4197   29.0725   53.4091 H   0  0  0  0  0  0  0  0  0  0  0  0
   54.5089   28.9580   51.6167 H   0  0  0  0  0  0  0  0  0  0  0  0
   58.2585   31.7113   51.0119 H   0  0  0  0  0  0  0  0  0  0  0  0
   58.2975   30.1582   51.9247 H   0  0  0  0  0  0  0  0  0  0  0  0
   58.8358   29.0764   50.0286 H   0  0  0  0  0  0  0  0  0  0  0  0
   57.2547   29.6061   49.3162 H   0  0  0  0  0  0  0  0  0  0  0  0
   59.9578   31.0065   49.1399 H   0  0  0  0  0  0  0  0  0  0  0  0
   58.9492   30.3229   47.8025 H   0  0  0  0  0  0  0  0  0  0  0  0
   57.1002   32.0114   46.1739 H   0  0  0  0  0  0  0  0  0  0  0  0
   57.5003   33.6421   44.3325 H   0  0  0  0  0  0  0  0  0  0  0  0
   59.0786   35.5434   44.6639 H   0  0  0  0  0  0  0  0  0  0  0  0
   60.2586   35.8253   46.8412 H   0  0  0  0  0  0  0  0  0  0  0  0
   59.3734   34.0828   49.8862 H   0  0  0  0  0  0  0  0  0  0  0  0
   60.8867   33.5023   49.1120 H   0  0  0  0  0  0  0  0  0  0  0  0
   60.4930   35.2549   49.1120 H   0  0  0  0  0  0  0  0  0  0  0  0
   52.7280   30.3485   54.4361 H   0  0  0  0  0  0  0  0  0  0  0  0
   50.7274   31.8169   54.2193 H   0  0  0  0  0  0  0  0  0  0  0  0
  1  2  1  0
  2  3  1  0
  3  4  2  0
  4  5  1  0
  5  6  1  0
  6  7  1  0
  7  8  2  0
  7  9  1  0
  9 10  1  0
 10 11  1  0
 11 12  1  0
 12 13  1  0
 13 14  1  0
 14 15  2  0
 15 16  1  0
 16 17  2  0
 17 18  1  0
 18 19  2  0
 19 20  1  0
  5 21  2  0
 21 22  1  0
 22 23  2  0
 23 24  1  0
 23  3  1  0
 19 14  1  0
  1 25  1  0
  1 26  1  0
  1 27  1  0
  4 28  1  0
  6 29  1  0
  6 30  1  0
 10 31  1  0
 10 32  1  0
 11 33  1  0
 11 34  1  0
 12 35  1  0
 12 36  1  0
 15 37  1  0
 16 38  1  0
 17 39  1  0
 18 40  1  0
 20 41  1  0
 20 42  1  0
 20 43  1  0
 21 44  1  0
 22 45  1  0
M  CHG  2   9  -1  24  -1
M  END
>  <UniqueID>  (58) 
57

>  <SMILES>  (58) 
COc1cc(CC(=O)[N-]CCCOc2ccccc2C)ccc1[O-]

>  <Energy>  (58) 
36.202586200620814

>  <Genealogy>  (58) 
COc1cc(CC(=O)[N-]CCCOc2ccccc2C)ccc1[O-] (protonated)
COc1cc(CC(=O)[N-]CCCOc2ccccc2C)ccc1[O-] (3D coordinates assigned)
COc1cc(CC(=O)[N-]CCCOc2ccccc2C)ccc1[O-] (optimized conformer: 36.202586200620814 kcal/mol)

>  <smiles>  (58) 
COc1cc(CC(=O)NCCCOc2ccccc2C)ccc1O

>  <score_type>  (58) 
oracle

>  <origin>  (58) 
adg

>  <m_score__min__energy>  (58) 
-12.83

>  <m_primary>  (58) 
energy

$$$$
58:0
     RDKit          3D

 29 31  0  0  0  0  0  0  0  0999 V2000
   58.4957   33.8430   47.6687 H   0  0  0  0  0  0  0  0  0  0  0  0
   58.3670   33.4810   46.6380 C   0  0  0  0  0  0  0  0  0  0  0  0
   57.6830   32.2860   46.3980 C   0  0  0  0  0  0  0  0  0  0  0  0
   57.2627   31.7173   47.2406 H   0  0  0  0  0  0  0  0  0  0  0  0
   57.5300   31.8090   45.0900 C   0  0  0  0  0  0  0  0  0  0  0  0
   56.8060   30.5890   44.8750 N   0  0  0  0  0  0  0  0  0  0  0  0
   57.1960   29.3960   45.2260 C   0  0  0  0  0  0  0  0  0  0  0  0
   56.2500   28.4340   45.4380 N   0  0  0  0  0  0  0  0  0  0  0  0
   56.5930   27.1700   45.8090 C   0  0  0  0  0  0  0  0  0  0  0  0
   55.7020   26.3010   45.9970 O   0  0  0  0  0  0  0  0  0  0  0  0
   57.9400   26.8640   45.9760 C   0  0  0  0  0  0  0  0  0  0  0  0
   58.8760   27.8340   45.7730 C   0  0  0  0  0  0  0  0  0  0  0  0
   58.5230   29.0940   45.4060 N   0  0  0  0  0  0  0  0  0  0  0  0
   59.2750   29.8080   45.2830 H   0  0  0  0  0  0  0  0  0  0  0  0
   60.2550   27.3510   46.0050 C   0  0  0  0  0  0  0  0  0  0  0  0
   60.7341   27.9101   46.8223 H   0  0  0  0  0  0  0  0  0  0  0  0
   60.9059   27.4828   45.1281 H   0  0  0  0  0  0  0  0  0  0  0  0
   60.0640   25.8700   46.3900 C   0  0  0  0  0  0  0  0  0  0  0  0
   60.4727   25.6883   47.3950 H   0  0  0  0  0  0  0  0  0  0  0  0
   60.5907   25.2159   45.6795 H   0  0  0  0  0  0  0  0  0  0  0  0
   58.5490   25.5740   46.3770 C   0  0  0  0  0  0  0  0  0  0  0  0
   58.2006   25.2697   47.3750 H   0  0  0  0  0  0  0  0  0  0  0  0
   58.2826   24.7492   45.6997 H   0  0  0  0  0  0  0  0  0  0  0  0
   58.0300   32.5650   44.0100 C   0  0  0  0  0  0  0  0  0  0  0  0
   57.7780   32.0620   42.3440 Cl  0  0  0  0  0  0  0  0  0  0  0  0
   58.7160   33.7610   44.2580 C   0  0  0  0  0  0  0  0  0  0  0  0
   59.1212   34.3441   43.4179 H   0  0  0  0  0  0  0  0  0  0  0  0
   58.8880   34.2170   45.5690 C   0  0  0  0  0  0  0  0  0  0  0  0
   59.7450   35.7160   45.8720 Cl  0  0  0  0  0  0  0  0  0  0  0  0
  1  2  1  0
  2  3  2  0
  3  4  1  0
  3  5  1  0
  5  6  1  0
  6  7  2  0
  7  8  1  0
  8  9  1  0
  9 10  2  0
  9 11  1  0
 11 12  2  0
 12 13  1  0
 13 14  1  0
 12 15  1  0
 15 16  1  0
 15 17  1  0
 15 18  1  0
 18 19  1  0
 18 20  1  0
 18 21  1  0
 21 22  1  0
 21 23  1  0
  5 24  2  0
 24 25  1  0
 24 26  1  0
 26 27  1  0
 26 28  2  0
 28 29  1  0
 28  2  1  0
 13  7  1  0
 21 11  1  0
M  CHG  1   8  -1
M  END
>  <UniqueID>  (59) 
58

>  <SMILES>  (59) 
O=c1[n-]/c(=N/c2ccc(Cl)cc2Cl)[nH]c2c1CCC2

>  <Energy>  (59) 
49.89250520078317

>  <Genealogy>  (59) 
O=c1[n-]c(=Nc2ccc(Cl)cc2Cl)[nH]c2c1CCC2 (protonated)
O=c1[n-]/c(=N/c2ccc(Cl)cc2Cl)[nH]c2c1CCC2 (cis-trans isomerization)
O=c1[n-]/c(=N/c2ccc(Cl)cc2Cl)[nH]c2c1CCC2 (3D coordinates assigned)
O=c1[n-]/c(=N/c2ccc(Cl)cc2Cl)[nH]c2c1CCC2 (nonaromatic ring conformer: 49.89250520078317 kcal/mol)

>  <smiles>  (59) 
O=c1[nH]c(=Nc2ccc(Cl)cc2Cl)[nH]c2c1CCC2

>  <score_type>  (59) 
oracle

>  <origin>  (59) 
adg

>  <m_score__min__energy>  (59) 
-9.4299999999999997

>  <m_primary>  (59) 
energy

$$$$
59:0
     RDKit          3D

 50 52  0  0  0  0  0  0  0  0999 V2000
   55.1590   25.5310   46.0680 N   0  0  0  0  0  0  0  0  0  0  0  0
   56.4650   24.9340   46.3240 C   0  0  0  0  0  0  0  0  0  0  0  0
   57.5530   25.8990   45.9420 C   0  0  0  0  0  0  0  0  0  0  0  0
   58.9000   25.5510   46.1210 C   0  0  0  0  0  0  0  0  0  0  0  0
   59.9120   26.4290   45.7250 C   0  0  0  0  0  0  0  0  0  0  0  0
   59.5860   27.6580   45.1480 C   0  0  0  0  0  0  0  0  0  0  0  0
   58.2420   28.0270   44.9670 C   0  0  0  0  0  0  0  0  0  0  0  0
   57.8870   29.2720   44.3420 N   0  0  0  0  0  0  0  0  0  0  0  0
   56.7180   30.0300   44.6960 C   0  0  0  0  0  0  0  0  0  0  0  0
   55.6990   29.4390   45.1420 O   0  0  0  0  0  0  0  0  0  0  0  0
   56.6690   31.4520   44.5250 N   0  0  0  0  0  0  0  0  0  0  0  0
   57.7050   32.2820   43.9110 C   0  0  0  0  0  0  0  0  0  0  0  0
   57.9020   33.6280   44.6380 C   0  0  2  0  0  0  0  0  0  0  0  0
   59.2760   34.2540   44.4900 C   0  0  0  0  0  0  0  0  0  0  0  0
   59.3550   35.1880   45.6820 C   0  0  0  0  0  0  0  0  0  0  0  0
   58.5450   34.5910   46.7570 N   0  0  0  0  0  0  0  0  0  0  0  0
   59.3140   34.1320   47.9390 C   0  0  0  0  0  0  0  0  0  0  0  0
   59.4200   32.6230   48.0910 C   0  0  0  0  0  0  0  0  0  0  0  0
   60.0770   31.8490   47.1160 C   0  0  0  0  0  0  0  0  0  0  0  0
   60.1490   30.4590   47.2440 C   0  0  0  0  0  0  0  0  0  0  0  0
   59.5450   29.8220   48.3310 C   0  0  0  0  0  0  0  0  0  0  0  0
   59.6520   28.0790   48.4990 Cl  0  0  0  0  0  0  0  0  0  0  0  0
   58.8520   30.5750   49.2810 C   0  0  0  0  0  0  0  0  0  0  0  0
   58.7810   31.9650   49.1590 C   0  0  0  0  0  0  0  0  0  0  0  0
   57.6810   33.5650   46.1480 C   0  0  0  0  0  0  0  0  0  0  0  0
   57.2310   27.1300   45.3470 C   0  0  0  0  0  0  0  0  0  0  0  0
   55.1750   25.9560   45.1110 H   0  0  0  0  0  0  0  0  0  0  0  0
   55.0330   26.3230   46.7410 H   0  0  0  0  0  0  0  0  0  0  0  0
   56.5517   24.6913   47.3934 H   0  0  0  0  0  0  0  0  0  0  0  0
   56.5676   24.0172   45.7250 H   0  0  0  0  0  0  0  0  0  0  0  0
   59.1604   24.5834   46.5748 H   0  0  0  0  0  0  0  0  0  0  0  0
   60.9669   26.1518   45.8679 H   0  0  0  0  0  0  0  0  0  0  0  0
   60.3872   28.3426   44.8327 H   0  0  0  0  0  0  0  0  0  0  0  0
   58.4660   29.5940   43.5360 H   0  0  0  0  0  0  0  0  0  0  0  0
   58.6558   31.7293   43.9312 H   0  0  0  0  0  0  0  0  0  0  0  0
   57.3842   32.5051   42.8827 H   0  0  0  0  0  0  0  0  0  0  0  0
   57.1367   34.2338   44.1307 H   0  0  0  0  0  0  0  0  0  0  0  0
   60.0657   33.4895   44.5337 H   0  0  0  0  0  0  0  0  0  0  0  0
   59.4175   34.7668   43.5272 H   0  0  0  0  0  0  0  0  0  0  0  0
   60.3996   35.2922   46.0106 H   0  0  0  0  0  0  0  0  0  0  0  0
   58.9800   36.1883   45.4199 H   0  0  0  0  0  0  0  0  0  0  0  0
   60.3328   34.5395   47.8623 H   0  0  0  0  0  0  0  0  0  0  0  0
   58.7646   34.4917   48.8215 H   0  0  0  0  0  0  0  0  0  0  0  0
   60.5372   32.3417   46.2468 H   0  0  0  0  0  0  0  0  0  0  0  0
   60.6824   29.8652   46.4872 H   0  0  0  0  0  0  0  0  0  0  0  0
   58.3608   30.0727   50.1274 H   0  0  0  0  0  0  0  0  0  0  0  0
   58.2212   32.5500   49.9036 H   0  0  0  0  0  0  0  0  0  0  0  0
   57.9532   32.5691   46.5277 H   0  0  0  0  0  0  0  0  0  0  0  0
   56.6248   33.7459   46.3963 H   0  0  0  0  0  0  0  0  0  0  0  0
   56.1767   27.3937   45.1772 H   0  0  0  0  0  0  0  0  0  0  0  0
  1  2  1  0
  2  3  1  0
  3  4  2  0
  4  5  1  0
  5  6  2  0
  6  7  1  0
  7  8  1  0
  8  9  1  0
  9 10  2  0
  9 11  1  0
 11 12  1  0
 12 13  1  0
 13 14  1  0
 14 15  1  0
 15 16  1  0
 16 17  1  0
 17 18  1  0
 18 19  2  0
 19 20  1  0
 20 21  2  0
 21 22  1  0
 21 23  1  0
 23 24  2  0
 16 25  1  0
  7 26  2  0
 26  3  1  0
 25 13  1  0
 24 18  1  0
  1 27  1  0
  1 28  1  0
  2 29  1  0
  2 30  1  0
  4 31  1  0
  5 32  1  0
  6 33  1  0
  8 34  1  0
 12 35  1  0
 12 36  1  0
 13 37  1  6
 14 38  1  0
 14 39  1  0
 15 40  1  0
 15 41  1  0
 17 42  1  0
 17 43  1  0
 19 44  1  0
 20 45  1  0
 23 46  1  0
 24 47  1  0
 25 48  1  0
 25 49  1  0
 26 50  1  0
M  CHG  1  11  -1
M  END
>  <UniqueID>  (60) 
59

>  <SMILES>  (60) 
NCc1cccc(NC(=O)[N-]C[C@@H]2CCN(Cc3ccc(Cl)cc3)C2)c1

>  <Energy>  (60) 
56.86195185216218

>  <Genealogy>  (60) 
NCc1cccc(NC(=O)[N-]CC2CCN(Cc3ccc(Cl)cc3)C2)c1 (protonated)
NCc1cccc(NC(=O)[N-]C[C@@H]2CCN(Cc3ccc(Cl)cc3)C2)c1 (chirality)
NCc1cccc(NC(=O)[N-]C[C@@H]2CCN(Cc3ccc(Cl)cc3)C2)c1 (3D coordinates assigned)
NCc1cccc(NC(=O)[N-]C[C@@H]2CCN(Cc3ccc(Cl)cc3)C2)c1 (nonaromatic ring conformer: 56.86195185216218 kcal/mol)

>  <smiles>  (60) 
NCc1cccc(NC(=O)NCC2CCN(Cc3ccc(Cl)cc3)C2)c1

>  <score_type>  (60) 
oracle

>  <origin>  (60) 
adg

>  <m_score__min__energy>  (60) 
-11.390000000000001

>  <m_primary>  (60) 
energy

$$$$
60:0
     RDKit          3D

 55 58  0  0  0  0  0  0  0  0999 V2000
   57.6490   34.1053   43.7308 H   0  0  0  0  0  0  0  0  0  0  0  0
   58.1530   34.0730   44.7080 C   0  0  0  0  0  0  0  0  0  0  0  0
   59.5440   34.1810   44.7800 C   0  0  0  0  0  0  0  0  0  0  0  0
   60.1343   34.2961   43.8590 H   0  0  0  0  0  0  0  0  0  0  0  0
   60.1870   34.1430   46.0210 C   0  0  0  0  0  0  0  0  0  0  0  0
   61.2831   34.2197   46.0730 H   0  0  0  0  0  0  0  0  0  0  0  0
   59.4370   34.0070   47.2030 C   0  0  0  0  0  0  0  0  0  0  0  0
   60.1340   33.9610   48.5390 C   0  0  0  0  0  0  0  0  0  0  0  0
   60.3824   34.9861   48.8512 H   0  0  0  0  0  0  0  0  0  0  0  0
   61.0485   33.3581   48.4380 H   0  0  0  0  0  0  0  0  0  0  0  0
   59.2770   33.3450   49.5540 N   0  0  0  0  0  0  0  0  0  0  0  0
   59.0080   32.0770   49.6900 C   0  0  0  0  0  0  0  0  0  0  0  0
   59.6230   31.1920   48.8670 N   0  0  0  0  0  0  0  0  0  0  0  0
   59.3870   29.8620   48.9760 C   0  0  0  0  0  0  0  0  0  0  0  0
   59.9610   29.0470   48.1440 N   0  0  0  0  0  0  0  0  0  0  0  0
   60.4370   29.4020   46.8060 C   0  0  0  0  0  0  0  0  0  0  0  0
   60.9437   30.3770   46.8566 H   0  0  0  0  0  0  0  0  0  0  0  0
   61.1252   28.6123   46.4701 H   0  0  0  0  0  0  0  0  0  0  0  0
   59.3090   29.4910   45.8090 C   0  0  0  0  0  0  0  0  0  0  0  0
   58.9530   28.3540   45.0640 C   0  0  0  0  0  0  0  0  0  0  0  0
   59.5514   27.4349   45.1494 H   0  0  0  0  0  0  0  0  0  0  0  0
   57.8430   28.3840   44.2150 C   0  0  0  0  0  0  0  0  0  0  0  0
   57.5666   27.4870   43.6415 H   0  0  0  0  0  0  0  0  0  0  0  0
   57.0840   29.5500   44.0930 C   0  0  0  0  0  0  0  0  0  0  0  0
   56.2214   29.5769   43.4109 H   0  0  0  0  0  0  0  0  0  0  0  0
   57.4220   30.6830   44.8390 C   0  0  0  0  0  0  0  0  0  0  0  0
   56.8240   31.6014   44.7440 H   0  0  0  0  0  0  0  0  0  0  0  0
   58.5180   30.6510   45.7050 C   0  0  0  0  0  0  0  0  0  0  0  0
   58.7642   31.5369   46.3088 H   0  0  0  0  0  0  0  0  0  0  0  0
   58.5360   29.4090   49.9330 N   0  0  0  0  0  0  0  0  0  0  0  0
   57.9030   30.2830   50.7610 C   0  0  0  0  0  0  0  0  0  0  0  0
   57.0700   29.8610   51.6670 N   0  0  0  0  0  0  0  0  0  0  0  0
   55.9760   30.6390   52.2460 C   0  0  0  0  0  0  0  0  0  0  0  0
   55.7732   31.5148   51.6121 H   0  0  0  0  0  0  0  0  0  0  0  0
   56.2581   30.9745   53.2549 H   0  0  0  0  0  0  0  0  0  0  0  0
   54.7190   29.7670   52.3300 C   0  0  0  0  0  0  0  0  0  0  0  0
   54.7227   29.2274   53.2885 H   0  0  0  0  0  0  0  0  0  0  0  0
   54.7309   29.0653   51.4829 H   0  0  0  0  0  0  0  0  0  0  0  0
   53.4610   30.5930   52.2390 C   0  0  0  0  0  0  0  0  0  0  0  0
   52.6530   30.7780   53.3720 C   0  0  0  0  0  0  0  0  0  0  0  0
   52.9383   30.3167   54.3290 H   0  0  0  0  0  0  0  0  0  0  0  0
   51.4870   31.5460   53.2900 C   0  0  0  0  0  0  0  0  0  0  0  0
   50.8560   31.6827   54.1806 H   0  0  0  0  0  0  0  0  0  0  0  0
   51.1220   32.1400   52.0790 C   0  0  0  0  0  0  0  0  0  0  0  0
   49.9630   32.9000   51.9980 O   0  0  0  0  0  0  0  0  0  0  0  0
   51.9290   31.9720   50.9490 C   0  0  0  0  0  0  0  0  0  0  0  0
   51.6444   32.4425   49.9963 H   0  0  0  0  0  0  0  0  0  0  0  0
   53.0970   31.2070   51.0280 C   0  0  0  0  0  0  0  0  0  0  0  0
   53.7334   31.0853   50.1391 H   0  0  0  0  0  0  0  0  0  0  0  0
   58.1290   31.6180   50.6310 N   0  0  0  0  0  0  0  0  0  0  0  0
   57.6220   32.2710   51.2660 H   0  0  0  0  0  0  0  0  0  0  0  0
   58.0410   33.8860   47.1210 C   0  0  0  0  0  0  0  0  0  0  0  0
   57.4469   33.7609   48.0383 H   0  0  0  0  0  0  0  0  0  0  0  0
   57.4020   33.9240   45.8760 C   0  0  0  0  0  0  0  0  0  0  0  0
   56.3070   33.8364   45.8176 H   0  0  0  0  0  0  0  0  0  0  0  0
  1  2  1  0
  2  3  2  0
  3  4  1  0
  3  5  1  0
  5  6  1  0
  5  7  2  0
  7  8  1  0
  8  9  1  0
  8 10  1  0
  8 11  1  0
 11 12  2  3
 12 13  1  0
 13 14  1  0
 14 15  2  0
 15 16  1  0
 16 17  1  0
 16 18  1  0
 16 19  1  0
 19 20  2  0
 20 21  1  0
 20 22  1  0
 22 23  1  0
 22 24  2  0
 24 25  1  0
 24 26  1  0
 26 27  1  0
 26 28  2  0
 28 29  1  0
 14 30  1  0
 30 31  1  0
 31 32  2  0
 32 33  1  0
 33 34  1  0
 33 35  1  0
 33 36  1  0
 36 37  1  0
 36 38  1  0
 36 39  1  0
 39 40  2  0
 40 41  1  0
 40 42  1  0
 42 43  1  0
 42 44  2  0
 44 45  1  0
 44 46  1  0
 46 47  1  0
 46 48  2  0
 48 49  1  0
 31 50  1  0
 50 51  1  0
  7 52  1  0
 52 53  1  0
 52 54  2  0
 54 55  1  0
 54  2  1  0
 50 12  1  0
 28 19  1  0
 48 39  1  0
M  CHG  3  13  -1  30  -1  45  -1
M  END
>  <UniqueID>  (61) 
60

>  <SMILES>  (61) 
[O-]c1ccc(CC/N=c2\[n-]/c(=N\Cc3ccccc3)[n-]c(=NCc3ccccc3)[nH]2)cc1

>  <Energy>  (61) 
58.034296003490084

>  <Genealogy>  (61) 
[O-]c1ccc(CCN=c2[n-]c(=NCc3ccccc3)[n-]c(=NCc3ccccc3)[nH]2)cc1 (protonated)
[O-]c1ccc(CC/N=c2\[n-]/c(=N\Cc3ccccc3)[n-]c(=NCc3ccccc3)[nH]2)cc1 (cis-trans isomerization)
[O-]c1ccc(CC/N=c2\[n-]/c(=N\Cc3ccccc3)[n-]c(=NCc3ccccc3)[nH]2)cc1 (3D coordinates assigned)
[O-]c1ccc(CC/N=c2\[n-]/c(=N\Cc3ccccc3)[n-]c(=NCc3ccccc3)[nH]2)cc1 (optimized conformer: 58.034296003490084 kcal/mol)

>  <smiles>  (61) 
Oc1ccc(CCN=c2[nH]c(=NCc3ccccc3)[nH]c(=NCc3ccccc3)[nH]2)cc1

>  <score_type>  (61) 
oracle

>  <origin>  (61) 
adg

>  <m_score__min__energy>  (61) 
-15.640000000000001

>  <m_primary>  (61) 
energy

$$$$
61:0
     RDKit          3D

 54 56  0  0  0  0  0  0  0  0999 V2000
   57.0300   19.6040   43.8370 H   0  0  0  0  0  0  0  0  0  0  0  0
   56.3770   20.3580   43.5200 N   0  0  0  0  0  0  0  0  0  0  0  0
   56.6260   21.6150   43.7090 C   0  0  0  0  0  0  0  0  0  0  0  0
   55.7060   22.5450   43.3410 N   0  0  0  0  0  0  0  0  0  0  0  0
   55.9300   23.8720   43.5210 C   0  0  0  0  0  0  0  0  0  0  0  0
   55.1728   24.6071   43.2109 H   0  0  0  0  0  0  0  0  0  0  0  0
   57.1330   24.3020   44.1050 C   0  0  0  0  0  0  0  0  0  0  0  0
   57.3950   25.7460   44.3160 C   0  0  0  0  0  0  0  0  0  0  0  0
   58.1320   26.4760   43.3670 C   0  0  0  0  0  0  0  0  0  0  0  0
   58.5095   25.9727   42.4647 H   0  0  0  0  0  0  0  0  0  0  0  0
   58.3890   27.8370   43.5610 C   0  0  0  0  0  0  0  0  0  0  0  0
   58.9732   28.3971   42.8160 H   0  0  0  0  0  0  0  0  0  0  0  0
   57.9040   28.4880   44.7020 C   0  0  0  0  0  0  0  0  0  0  0  0
   58.1740   29.9220   44.9060 C   0  0  0  0  0  0  0  0  0  0  0  0
   57.5800   30.8460   44.0330 C   0  0  0  0  0  0  0  0  0  0  0  0
   56.9159   30.4909   43.2312 H   0  0  0  0  0  0  0  0  0  0  0  0
   57.8260   32.2130   44.1750 C   0  0  0  0  0  0  0  0  0  0  0  0
   57.3573   32.9306   43.4855 H   0  0  0  0  0  0  0  0  0  0  0  0
   58.6660   32.6690   45.1910 C   0  0  0  0  0  0  0  0  0  0  0  0
   58.8648   33.7457   45.2968 H   0  0  0  0  0  0  0  0  0  0  0  0
   59.2550   31.7620   46.0740 C   0  0  0  0  0  0  0  0  0  0  0  0
   59.9146   32.1293   46.8740 H   0  0  0  0  0  0  0  0  0  0  0  0
   59.0120   30.3840   45.9490 C   0  0  0  0  0  0  0  0  0  0  0  0
   59.7540   29.2690   47.1060 S   0  0  0  0  0  0  0  0  0  0  0  0
   61.0240   29.8730   47.6340 O   0  0  0  0  0  0  0  0  0  0  0  0
   60.0890   27.9610   46.4450 O   0  0  0  0  0  0  0  0  0  0  0  0
   58.6710   28.9740   48.4230 N   0  0  0  0  0  0  0  0  0  0  0  0
   58.9910   29.3140   49.7700 C   0  0  0  0  0  0  0  0  0  0  0  0
   60.0130   28.8250   50.3250 O   0  0  0  0  0  0  0  0  0  0  0  0
   58.1520   30.1830   50.4690 O   0  0  0  0  0  0  0  0  0  0  0  0
   58.4650   31.5570   50.6780 C   0  0  0  0  0  0  0  0  0  0  0  0
   57.6921   32.0129   51.3143 H   0  0  0  0  0  0  0  0  0  0  0  0
   59.4470   31.6306   51.1682 H   0  0  0  0  0  0  0  0  0  0  0  0
   58.5190   32.2990   49.3360 C   0  0  0  0  0  0  0  0  0  0  0  0
   58.4161   31.5551   48.5322 H   0  0  0  0  0  0  0  0  0  0  0  0
   57.7022   33.0353   49.3629 H   0  0  0  0  0  0  0  0  0  0  0  0
   59.8150   33.1070   49.0770 C   0  0  0  0  0  0  0  0  0  0  0  0
   60.4721   32.4306   48.5106 H   0  0  0  0  0  0  0  0  0  0  0  0
   59.5820   34.3460   48.2050 C   0  0  0  0  0  0  0  0  0  0  0  0
   59.4172   35.2222   48.8494 H   0  0  0  0  0  0  0  0  0  0  0  0
   60.4635   34.5185   47.5699 H   0  0  0  0  0  0  0  0  0  0  0  0
   58.6981   34.1865   47.5699 H   0  0  0  0  0  0  0  0  0  0  0  0
   60.5400   33.4830   50.3770 C   0  0  0  0  0  0  0  0  0  0  0  0
   59.9336   33.1685   51.2392 H   0  0  0  0  0  0  0  0  0  0  0  0
   61.5164   32.9777   50.4116 H   0  0  0  0  0  0  0  0  0  0  0  0
   60.6894   34.5723   50.4116 H   0  0  0  0  0  0  0  0  0  0  0  0
   57.1780   27.7650   45.6570 C   0  0  0  0  0  0  0  0  0  0  0  0
   56.8111   28.2700   46.5628 H   0  0  0  0  0  0  0  0  0  0  0  0
   56.9170   26.4040   45.4650 C   0  0  0  0  0  0  0  0  0  0  0  0
   56.1660   25.7440   46.3820 F   0  0  0  0  0  0  0  0  0  0  0  0
   58.0590   23.3660   44.4690 N   0  0  0  0  0  0  0  0  0  0  0  0
   58.9750   23.6610   44.8750 H   0  0  0  0  0  0  0  0  0  0  0  0
   57.8320   22.0380   44.2850 C   0  0  0  0  0  0  0  0  0  0  0  0
   58.5901   21.3001   44.5863 H   0  0  0  0  0  0  0  0  0  0  0  0
  1  2  1  0
  2  3  2  0
  3  4  1  0
  4  5  1  0
  5  6  1  0
  5  7  2  0
  7  8  1  0
  8  9  2  0
  9 10  1  0
  9 11  1  0
 11 12  1  0
 11 13  2  0
 13 14  1  0
 14 15  2  0
 15 16  1  0
 15 17  1  0
 17 18  1  0
 17 19  2  0
 19 20  1  0
 19 21  1  0
 21 22  1  0
 21 23  2  0
 23 24  1  0
 24 25  2  0
 24 26  2  0
 24 27  1  0
 27 28  1  0
 28 29  2  0
 28 30  1  0
 30 31  1  0
 31 32  1  0
 31 33  1  0
 31 34  1  0
 34 35  1  0
 34 36  1  0
 34 37  1  0
 37 38  1  0
 37 39  1  0
 39 40  1  0
 39 41  1  0
 39 42  1  0
 37 43  1  0
 43 44  1  0
 43 45  1  0
 43 46  1  0
 13 47  1  0
 47 48  1  0
 47 49  2  0
 49 50  1  0
  7 51  1  0
 51 52  1  0
 51 53  2  0
 53 54  1  0
 53  3  1  0
 49  8  1  0
 23 14  1  0
M  CHG  3   4  -1  27  -1  51   1
M  END
>  <UniqueID>  (62) 
61

>  <SMILES>  (62) 
[H]/N=c1\c[nH+]c(-c2ccc(-c3ccccc3S(=O)(=O)[N-]C(=O)OCCC(C)C)cc2F)c[n-]1

>  <Energy>  (62) 
64.9090057203331

>  <Genealogy>  (62) 
CC(C)CCOC(=O)[N-]S(=O)(=O)c1ccccc1-c1ccc(-c2c[n-]c(=N)c[nH+]2)c(F)c1 (protonated)
[H]/N=c1\c[nH+]c(-c2ccc(-c3ccccc3S(=O)(=O)[N-]C(=O)OCCC(C)C)cc2F)c[n-]1 (cis-trans isomerization)
[H]/N=c1\c[nH+]c(-c2ccc(-c3ccccc3S(=O)(=O)[N-]C(=O)OCCC(C)C)cc2F)c[n-]1 (3D coordinates assigned)
[H]/N=c1\c[nH+]c(-c2ccc(-c3ccccc3S(=O)(=O)[N-]C(=O)OCCC(C)C)cc2F)c[n-]1 (optimized conformer: 64.9090057203331 kcal/mol)

>  <smiles>  (62) 
CC(C)CCOC(=O)NS(=O)(=O)c1ccccc1-c1ccc(-c2c[nH]c(=N)cn2)c(F)c1

>  <score_type>  (62) 
oracle

>  <origin>  (62) 
adg

>  <m_score__min__energy>  (62) 
-10.050000000000001

>  <m_primary>  (62) 
energy

$$$$
62:0
     RDKit          3D

 58 61  0  0  0  0  0  0  0  0999 V2000
   61.1830   33.9187   49.9058 H   0  0  0  0  0  0  0  0  0  0  0  0
   60.3660   33.6860   49.2070 C   0  0  0  0  0  0  0  0  0  0  0  0
   59.5980   32.4500   49.4330 C   0  0  0  0  0  0  0  0  0  0  0  0
   58.9950   32.3030   50.5300 O   0  0  0  0  0  0  0  0  0  0  0  0
   59.5490   31.4040   48.4360 N   0  0  0  0  0  0  0  0  0  0  0  0
   58.6940   30.2300   48.6850 C   0  0  0  0  0  0  0  0  0  0  0  0
   57.6403   30.5395   48.6227 H   0  0  0  0  0  0  0  0  0  0  0  0
   58.9381   29.8401   49.6842 H   0  0  0  0  0  0  0  0  0  0  0  0
   58.9400   29.1100   47.6700 C   0  0  0  0  0  0  0  0  0  0  0  0
   58.1524   28.3497   47.7779 H   0  0  0  0  0  0  0  0  0  0  0  0
   59.9312   28.6756   47.8670 H   0  0  0  0  0  0  0  0  0  0  0  0
   58.9240   29.6470   46.2260 C   0  0  0  0  0  0  0  0  0  0  0  0
   59.2526   28.8261   45.5717 H   0  0  0  0  0  0  0  0  0  0  0  0
   57.5650   30.0760   45.8640 N   0  0  0  0  0  0  0  0  0  0  0  0
   56.7600   28.9230   44.8400 S   0  0  0  0  0  0  0  0  0  0  0  0
   55.2870   29.2190   44.8390 O   0  0  0  0  0  0  0  0  0  0  0  0
   57.2640   29.0400   43.4270 O   0  0  0  0  0  0  0  0  0  0  0  0
   57.0160   27.2890   45.4440 C   0  0  0  0  0  0  0  0  0  0  0  0
   58.2710   26.6730   45.3330 C   0  0  0  0  0  0  0  0  0  0  0  0
   59.0929   27.1936   44.8197 H   0  0  0  0  0  0  0  0  0  0  0  0
   58.4820   25.4020   45.8710 C   0  0  0  0  0  0  0  0  0  0  0  0
   59.4651   24.9195   45.7677 H   0  0  0  0  0  0  0  0  0  0  0  0
   57.4430   24.7370   46.5440 C   0  0  0  0  0  0  0  0  0  0  0  0
   57.6320   23.4380   47.1200 N   0  0  0  0  0  0  0  0  0  0  0  0
   57.3300   22.1970   46.4780 C   0  0  0  0  0  0  0  0  0  0  0  0
   57.3730   21.1360   47.1510 O   0  0  0  0  0  0  0  0  0  0  0  0
   57.0280   22.1220   45.0290 C   0  0  0  0  0  0  0  0  0  0  0  0
   56.2820   23.0310   44.3000 C   0  0  0  0  0  0  0  0  0  0  0  0
   55.7699   23.9243   44.6869 H   0  0  0  0  0  0  0  0  0  0  0  0
   56.3080   22.5940   42.9900 C   0  0  0  0  0  0  0  0  0  0  0  0
   55.8121   23.0669   42.1295 H   0  0  0  0  0  0  0  0  0  0  0  0
   57.0770   21.4490   42.9710 C   0  0  0  0  0  0  0  0  0  0  0  0
   57.2997   20.8546   42.0727 H   0  0  0  0  0  0  0  0  0  0  0  0
   57.5150   21.1650   44.2110 N   0  0  0  0  0  0  0  0  0  0  0  0
   58.1230   20.3620   44.4800 H   0  0  0  0  0  0  0  0  0  0  0  0
   56.1840   25.3430   46.6290 C   0  0  0  0  0  0  0  0  0  0  0  0
   55.3547   24.8137   47.1210 H   0  0  0  0  0  0  0  0  0  0  0  0
   55.9740   26.6180   46.0920 C   0  0  0  0  0  0  0  0  0  0  0  0
   54.9862   27.0940   46.1798 H   0  0  0  0  0  0  0  0  0  0  0  0
   59.8990   30.8340   46.0320 C   0  0  0  0  0  0  0  0  0  0  0  0
   59.3465   31.6580   45.5568 H   0  0  0  0  0  0  0  0  0  0  0  0
   60.7286   30.4591   45.4146 H   0  0  0  0  0  0  0  0  0  0  0  0
   60.5270   31.3640   47.3320 C   0  0  0  0  0  0  0  0  0  0  0  0
   60.9064   32.3813   47.1553 H   0  0  0  0  0  0  0  0  0  0  0  0
   61.3413   30.6832   47.6209 H   0  0  0  0  0  0  0  0  0  0  0  0
   60.1340   34.5470   48.2040 C   0  0  0  0  0  0  0  0  0  0  0  0
   60.6032   35.5386   48.2857 H   0  0  0  0  0  0  0  0  0  0  0  0
   59.3070   34.2970   46.9930 C   0  0  0  0  0  0  0  0  0  0  0  0
   59.7920   34.4930   45.6800 C   0  0  0  0  0  0  0  0  0  0  0  0
   60.8176   34.8588   45.5244 H   0  0  0  0  0  0  0  0  0  0  0  0
   58.9740   34.2240   44.5770 C   0  0  0  0  0  0  0  0  0  0  0  0
   59.3480   34.4062   43.5587 H   0  0  0  0  0  0  0  0  0  0  0  0
   57.6820   33.7240   44.7670 C   0  0  0  0  0  0  0  0  0  0  0  0
   57.0378   33.5194   43.8991 H   0  0  0  0  0  0  0  0  0  0  0  0
   57.2110   33.4850   46.0570 C   0  0  0  0  0  0  0  0  0  0  0  0
   56.2002   33.0771   46.2051 H   0  0  0  0  0  0  0  0  0  0  0  0
   58.0190   33.7620   47.1620 C   0  0  0  0  0  0  0  0  0  0  0  0
   57.6428   33.5591   48.1756 H   0  0  0  0  0  0  0  0  0  0  0  0
  1  2  1  0
  2  3  1  0
  3  4  2  0
  3  5  1  0
  5  6  1  0
  6  7  1  0
  6  8  1  0
  6  9  1  0
  9 10  1  0
  9 11  1  0
  9 12  1  0
 12 13  1  0
 12 14  1  0
 14 15  1  0
 15 16  2  0
 15 17  2  0
 15 18  1  0
 18 19  2  0
 19 20  1  0
 19 21  1  0
 21 22  1  0
 21 23  2  0
 23 24  1  0
 24 25  1  0
 25 26  2  0
 25 27  1  0
 27 28  2  0
 28 29  1  0
 28 30  1  0
 30 31  1  0
 30 32  2  0
 32 33  1  0
 32 34  1  0
 34 35  1  0
 23 36  1  0
 36 37  1  0
 36 38  2  0
 38 39  1  0
 12 40  1  0
 40 41  1  0
 40 42  1  0
 40 43  1  0
 43 44  1  0
 43 45  1  0
  2 46  2  0
 46 47  1  0
 46 48  1  0
 48 49  2  0
 49 50  1  0
 49 51  1  0
 51 52  1  0
 51 53  2  0
 53 54  1  0
 53 55  1  0
 55 56  1  0
 55 57  2  0
 57 58  1  0
 43  5  1  0
 57 48  1  0
 38 18  1  0
 34 27  1  0
M  CHG  2  14  -1  24  -1
M  END
>  <UniqueID>  (63) 
62

>  <SMILES>  (63) 
O=C([N-]c1ccc(S(=O)(=O)[N-]C2CCN(C(=O)/C=C\c3ccccc3)CC2)cc1)c1ccc[nH]1

>  <Energy>  (63) 
106.02101582189084

>  <Genealogy>  (63) 
O=C([N-]c1ccc(S(=O)(=O)[N-]C2CCN(C(=O)C=Cc3ccccc3)CC2)cc1)c1ccc[nH]1 (protonated)
O=C([N-]c1ccc(S(=O)(=O)[N-]C2CCN(C(=O)/C=C\c3ccccc3)CC2)cc1)c1ccc[nH]1 (cis-trans isomerization)
O=C([N-]c1ccc(S(=O)(=O)[N-]C2CCN(C(=O)/C=C\c3ccccc3)CC2)cc1)c1ccc[nH]1 (3D coordinates assigned)
O=C([N-]c1ccc(S(=O)(=O)[N-]C2CCN(C(=O)/C=C\c3ccccc3)CC2)cc1)c1ccc[nH]1 (nonaromatic ring conformer: 106.02101582189084 kcal/mol)

>  <smiles>  (63) 
O=C(Nc1ccc(S(=O)(=O)NC2CCN(C(=O)C=Cc3ccccc3)CC2)cc1)c1ccc[nH]1

>  <score_type>  (63) 
oracle

>  <origin>  (63) 
adg

>  <m_score__min__energy>  (63) 
-12.99

>  <m_primary>  (63) 
energy

$$$$
63:0
     RDKit          3D

 52 54  0  0  0  0  0  0  0  0999 V2000
   66.3770   31.9580   50.5510 C   0  0  0  0  0  0  0  0  0  0  0  0
   65.1150   32.1120   51.1890 O   0  0  0  0  0  0  0  0  0  0  0  0
   64.4020   33.3150   51.1720 C   0  0  0  0  0  0  0  0  0  0  0  0
   64.7930   34.2940   51.8680 O   0  0  0  0  0  0  0  0  0  0  0  0
   63.2260   33.4450   50.3440 N   0  0  0  0  0  0  0  0  0  0  0  0
   61.9700   33.4800   50.9110 C   0  0  0  0  0  0  0  0  0  0  0  0
   61.7660   33.4290   52.4060 C   0  0  0  0  0  0  0  0  0  0  0  0
   60.8360   33.5670   50.0910 C   0  0  0  0  0  0  0  0  0  0  0  0
   60.9770   33.6580   48.7070 C   0  0  0  0  0  0  0  0  0  0  0  0
   59.8130   33.7720   47.8770 N   0  0  0  0  0  0  0  0  0  0  0  0
   58.7300   32.7970   48.0150 C   0  0  0  0  0  0  0  0  0  0  0  0
   57.7330   32.9310   46.8560 C   0  0  0  0  0  0  0  0  0  0  0  0
   58.4520   33.2340   45.5980 N   0  0  0  0  0  0  0  0  0  0  0  0
   57.5270   33.1050   44.4430 C   0  0  0  0  0  0  0  0  0  0  0  0
   57.8350   31.8870   43.5460 C   0  0  0  0  0  0  0  0  0  0  0  0
   57.8340   30.5910   44.3240 C   0  0  0  0  0  0  0  0  0  0  0  0
   59.0410   30.0890   44.8420 C   0  0  0  0  0  0  0  0  0  0  0  0
   59.0630   28.8750   45.5350 C   0  0  0  0  0  0  0  0  0  0  0  0
   57.8830   28.1510   45.7170 C   0  0  0  0  0  0  0  0  0  0  0  0
   56.6770   28.6410   45.2100 C   0  0  0  0  0  0  0  0  0  0  0  0
   56.6460   29.8570   44.5180 C   0  0  0  0  0  0  0  0  0  0  0  0
   55.4590   30.3150   44.0470 F   0  0  0  0  0  0  0  0  0  0  0  0
   59.0650   34.5900   45.6530 C   0  0  0  0  0  0  0  0  0  0  0  0
   59.6250   34.9620   47.0440 C   0  0  0  0  0  0  0  0  0  0  0  0
   62.2560   33.6390   48.1430 C   0  0  0  0  0  0  0  0  0  0  0  0
   62.4610   33.7060   46.3920 Cl  0  0  0  0  0  0  0  0  0  0  0  0
   63.3760   33.5270   48.9790 C   0  0  0  0  0  0  0  0  0  0  0  0
   64.5250   33.4820   48.4570 O   0  0  0  0  0  0  0  0  0  0  0  0
   67.1640   31.8620   51.3135 H   0  0  0  0  0  0  0  0  0  0  0  0
   66.3626   31.0549   49.9231 H   0  0  0  0  0  0  0  0  0  0  0  0
   66.5802   32.8380   49.9231 H   0  0  0  0  0  0  0  0  0  0  0  0
   62.7128   33.6657   52.9135 H   0  0  0  0  0  0  0  0  0  0  0  0
   61.0005   34.1634   52.6969 H   0  0  0  0  0  0  0  0  0  0  0  0
   61.4361   32.4207   52.6969 H   0  0  0  0  0  0  0  0  0  0  0  0
   59.8322   33.5634   50.5410 H   0  0  0  0  0  0  0  0  0  0  0  0
   59.1544   31.7822   48.0116 H   0  0  0  0  0  0  0  0  0  0  0  0
   58.2017   32.9848   48.9614 H   0  0  0  0  0  0  0  0  0  0  0  0
   57.1803   31.9869   46.7407 H   0  0  0  0  0  0  0  0  0  0  0  0
   57.0330   33.7504   47.0766 H   0  0  0  0  0  0  0  0  0  0  0  0
   59.2150   32.5250   45.4920 H   0  0  0  0  0  0  0  0  0  0  0  0
   56.5011   33.0051   44.8270 H   0  0  0  0  0  0  0  0  0  0  0  0
   57.6523   34.0053   43.8236 H   0  0  0  0  0  0  0  0  0  0  0  0
   57.0719   31.8267   42.7560 H   0  0  0  0  0  0  0  0  0  0  0  0
   58.8402   32.0255   43.1214 H   0  0  0  0  0  0  0  0  0  0  0  0
   59.9737   30.6550   44.7011 H   0  0  0  0  0  0  0  0  0  0  0  0
   60.0114   28.4896   45.9375 H   0  0  0  0  0  0  0  0  0  0  0  0
   57.9030   27.1945   46.2598 H   0  0  0  0  0  0  0  0  0  0  0  0
   55.7486   28.0691   45.3552 H   0  0  0  0  0  0  0  0  0  0  0  0
   59.8889   34.6285   44.9252 H   0  0  0  0  0  0  0  0  0  0  0  0
   58.2682   35.3127   45.4233 H   0  0  0  0  0  0  0  0  0  0  0  0
   60.5938   35.4673   46.9169 H   0  0  0  0  0  0  0  0  0  0  0  0
   58.9031   35.6251   47.5432 H   0  0  0  0  0  0  0  0  0  0  0  0
  1  2  1  0
  2  3  1  0
  3  4  2  0
  3  5  1  0
  5  6  1  0
  6  7  1  0
  6  8  2  0
  8  9  1  0
  9 10  1  0
 10 11  1  0
 11 12  1  0
 12 13  1  0
 13 14  1  0
 14 15  1  0
 15 16  1  0
 16 17  2  0
 17 18  1  0
 18 19  2  0
 19 20  1  0
 20 21  2  0
 21 22  1  0
 13 23  1  0
 23 24  1  0
  9 25  2  0
 25 26  1  0
 25 27  1  0
 27 28  2  0
 27  5  1  0
 24 10  1  0
 21 16  1  0
  1 29  1  0
  1 30  1  0
  1 31  1  0
  7 32  1  0
  7 33  1  0
  7 34  1  0
  8 35  1  0
 11 36  1  0
 11 37  1  0
 12 38  1  0
 12 39  1  0
 13 40  1  0
 14 41  1  0
 14 42  1  0
 15 43  1  0
 15 44  1  0
 17 45  1  0
 18 46  1  0
 19 47  1  0
 20 48  1  0
 23 49  1  0
 23 50  1  0
 24 51  1  0
 24 52  1  0
M  CHG  1  13   1
M  END
>  <UniqueID>  (64) 
63

>  <SMILES>  (64) 
COC(=O)n1c(C)cc(N2CC[NH+](CCc3ccccc3F)CC2)c(Cl)c1=O

>  <Energy>  (64) 
71.36446145992383

>  <Genealogy>  (64) 
COC(=O)n1c(C)cc(N2CC[NH+](CCc3ccccc3F)CC2)c(Cl)c1=O (protonated)
COC(=O)n1c(C)cc(N2CC[NH+](CCc3ccccc3F)CC2)c(Cl)c1=O (3D coordinates assigned)
COC(=O)n1c(C)cc(N2CC[NH+](CCc3ccccc3F)CC2)c(Cl)c1=O (nonaromatic ring conformer: 71.36446145992383 kcal/mol)

>  <smiles>  (64) 
COC(=O)n1c(C)cc(N2CCN(CCc3ccccc3F)CC2)c(Cl)c1=O

>  <score_type>  (64) 
oracle

>  <origin>  (64) 
adg

>  <m_score__min__energy>  (64) 
-6.3300000000000001

>  <m_primary>  (64) 
energy

$$$$
64:0
     RDKit          3D

 63 66  0  0  0  0  0  0  0  0999 V2000
   59.0590   30.1460   49.4630 C   0  0  0  0  0  0  0  0  0  0  0  0
   60.4990   29.7370   49.7470 C   0  0  0  0  0  0  0  0  0  0  0  0
   60.8650   28.6350   48.9380 O   0  0  0  0  0  0  0  0  0  0  0  0
   59.7350   27.8730   48.5580 C   0  0  0  0  0  0  0  0  0  0  0  0
   60.1580   26.7320   47.6290 C   0  0  0  0  0  0  0  0  0  0  0  0
   60.2990   27.2170   46.1830 C   0  0  0  0  0  0  0  0  0  0  0  0
   59.2090   28.1440   45.8520 N   0  0  0  0  0  0  0  0  0  0  0  0
   57.9370   27.8440   45.4560 C   0  0  0  0  0  0  0  0  0  0  0  0
   57.3800   26.4820   45.2810 C   0  0  0  0  0  0  0  0  0  0  0  0
   56.2150   26.2160   45.6830 O   0  0  0  0  0  0  0  0  0  0  0  0
   58.1610   25.4570   44.6480 N   0  0  0  0  0  0  0  0  0  0  0  0
   57.6000   24.1910   44.2690 C   0  0  0  0  0  0  0  0  0  0  0  0
   56.3380   24.1660   43.6580 C   0  0  0  0  0  0  0  0  0  0  0  0
   55.7720   22.9560   43.2500 C   0  0  0  0  0  0  0  0  0  0  0  0
   56.4570   21.7580   43.4580 C   0  0  0  0  0  0  0  0  0  0  0  0
   55.8960   20.5570   43.0410 O   0  0  0  0  0  0  0  0  0  0  0  0
   57.7030   21.7650   44.0920 C   0  0  0  0  0  0  0  0  0  0  0  0
   58.2760   22.9730   44.5260 C   0  0  0  0  0  0  0  0  0  0  0  0
   59.5980   22.9330   45.2450 C   0  0  0  0  0  0  0  0  0  0  0  0
   57.1970   29.0110   45.2740 C   0  0  0  0  0  0  0  0  0  0  0  0
   58.0540   30.0420   45.5840 C   0  0  0  0  0  0  0  0  0  0  0  0
   57.8320   31.4160   45.6010 C   0  0  0  0  0  0  0  0  0  0  0  0
   58.9050   32.2560   45.9680 C   0  0  0  0  0  0  0  0  0  0  0  0
   58.7510   33.6780   46.0000 N   0  0  0  0  0  0  0  0  0  0  0  0
   59.7040   34.7370   46.9900 S   0  0  0  0  0  0  0  0  0  0  0  0
   58.9580   35.0170   48.2650 O   0  0  0  0  0  0  0  0  0  0  0  0
   59.9050   36.0370   46.2610 O   0  0  0  0  0  0  0  0  0  0  0  0
   61.2760   34.0460   47.3850 C   0  0  0  0  0  0  0  0  0  0  0  0
   62.2450   33.8910   46.3820 C   0  0  0  0  0  0  0  0  0  0  0  0
   63.5090   33.3800   46.6990 C   0  0  0  0  0  0  0  0  0  0  0  0
   63.8090   33.0240   48.0160 C   0  0  0  0  0  0  0  0  0  0  0  0
   62.8480   33.1740   49.0190 C   0  0  0  0  0  0  0  0  0  0  0  0
   61.5830   33.6820   48.7050 C   0  0  0  0  0  0  0  0  0  0  0  0
   60.1370   31.6910   46.3660 C   0  0  0  0  0  0  0  0  0  0  0  0
   60.3260   30.2970   46.3480 C   0  0  0  0  0  0  0  0  0  0  0  0
   59.2580   29.4920   45.9370 C   0  0  0  0  0  0  0  0  0  0  0  0
   58.5265   30.2972   50.4136 H   0  0  0  0  0  0  0  0  0  0  0  0
   59.0508   31.0820   48.8852 H   0  0  0  0  0  0  0  0  0  0  0  0
   58.5600   29.3540   48.8852 H   0  0  0  0  0  0  0  0  0  0  0  0
   61.1664   30.5840   49.5300 H   0  0  0  0  0  0  0  0  0  0  0  0
   60.5873   29.4493   50.8050 H   0  0  0  0  0  0  0  0  0  0  0  0
   59.2603   27.4531   49.4571 H   0  0  0  0  0  0  0  0  0  0  0  0
   59.0236   28.5236   48.0282 H   0  0  0  0  0  0  0  0  0  0  0  0
   61.1248   26.3323   47.9691 H   0  0  0  0  0  0  0  0  0  0  0  0
   59.3827   25.9523   47.6604 H   0  0  0  0  0  0  0  0  0  0  0  0
   61.2634   27.7327   46.0648 H   0  0  0  0  0  0  0  0  0  0  0  0
   60.2520   26.3506   45.5069 H   0  0  0  0  0  0  0  0  0  0  0  0
   59.2010   25.5490   44.6490 H   0  0  0  0  0  0  0  0  0  0  0  0
   55.7898   25.1063   43.4989 H   0  0  0  0  0  0  0  0  0  0  0  0
   54.7851   22.9473   42.7642 H   0  0  0  0  0  0  0  0  0  0  0  0
   58.2391   20.8180   44.2524 H   0  0  0  0  0  0  0  0  0  0  0  0
   59.4249   22.9382   46.3313 H   0  0  0  0  0  0  0  0  0  0  0  0
   60.1404   22.0180   44.9645 H   0  0  0  0  0  0  0  0  0  0  0  0
   60.1947   23.8135   44.9645 H   0  0  0  0  0  0  0  0  0  0  0  0
   56.1486   29.0910   44.9506 H   0  0  0  0  0  0  0  0  0  0  0  0
   56.8498   31.8345   45.3363 H   0  0  0  0  0  0  0  0  0  0  0  0
   62.0108   34.1716   45.3445 H   0  0  0  0  0  0  0  0  0  0  0  0
   64.2665   33.2587   45.9106 H   0  0  0  0  0  0  0  0  0  0  0  0
   64.8036   32.6249   48.2639 H   0  0  0  0  0  0  0  0  0  0  0  0
   63.0861   32.8927   50.0554 H   0  0  0  0  0  0  0  0  0  0  0  0
   60.8265   33.7965   49.4953 H   0  0  0  0  0  0  0  0  0  0  0  0
   60.9567   32.3475   46.6932 H   0  0  0  0  0  0  0  0  0  0  0  0
   61.2863   29.8525   46.6485 H   0  0  0  0  0  0  0  0  0  0  0  0
  1  2  1  0
  2  3  1  0
  3  4  1  0
  4  5  1  0
  5  6  1  0
  6  7  1  0
  7  8  1  0
  8  9  1  0
  9 10  2  0
  9 11  1  0
 11 12  1  0
 12 13  2  0
 13 14  1  0
 14 15  2  0
 15 16  1  0
 15 17  1  0
 17 18  2  0
 18 19  1  0
  8 20  2  0
 20 21  1  0
 21 22  2  0
 22 23  1  0
 23 24  1  0
 24 25  1  0
 25 26  2  0
 25 27  2  0
 25 28  1  0
 28 29  2  0
 29 30  1  0
 30 31  2  0
 31 32  1  0
 32 33  2  0
 23 34  2  0
 34 35  1  0
 35 36  2  0
 36  7  1  0
 18 12  1  0
 36 21  1  0
 33 28  1  0
  1 37  1  0
  1 38  1  0
  1 39  1  0
  2 40  1  0
  2 41  1  0
  4 42  1  0
  4 43  1  0
  5 44  1  0
  5 45  1  0
  6 46  1  0
  6 47  1  0
 11 48  1  0
 13 49  1  0
 14 50  1  0
 17 51  1  0
 19 52  1  0
 19 53  1  0
 19 54  1  0
 20 55  1  0
 22 56  1  0
 29 57  1  0
 30 58  1  0
 31 59  1  0
 32 60  1  0
 33 61  1  0
 34 62  1  0
 35 63  1  0
M  CHG  2  16  -1  24  -1
M  END
>  <UniqueID>  (65) 
64

>  <SMILES>  (65) 
CCOCCCn1c(C(=O)Nc2ccc([O-])cc2C)cc2cc([N-]S(=O)(=O)c3ccccc3)ccc21

>  <Energy>  (65) 
112.30967232213129

>  <Genealogy>  (65) 
CCOCCCn1c(C(=O)Nc2ccc([O-])cc2C)cc2cc([N-]S(=O)(=O)c3ccccc3)ccc21 (protonated)
CCOCCCn1c(C(=O)Nc2ccc([O-])cc2C)cc2cc([N-]S(=O)(=O)c3ccccc3)ccc21 (3D coordinates assigned)
CCOCCCn1c(C(=O)Nc2ccc([O-])cc2C)cc2cc([N-]S(=O)(=O)c3ccccc3)ccc21 (optimized conformer: 112.30967232213129 kcal/mol)

>  <smiles>  (65) 
CCOCCCn1c(C(=O)Nc2ccc(O)cc2C)cc2cc(NS(=O)(=O)c3ccccc3)ccc21

>  <score_type>  (65) 
oracle

>  <origin>  (65) 
adg

>  <m_score__min__energy>  (65) 
-12

>  <m_primary>  (65) 
energy

$$$$
65:0
     RDKit          3D

 55 58  0  0  0  0  0  0  0  0999 V2000
   57.7250   28.5920   43.7580 O   0  0  0  0  0  0  0  0  0  0  0  0
   57.2510   29.1740   44.7720 C   0  0  0  0  0  0  0  0  0  0  0  0
   57.2740   28.4860   46.1010 C   0  0  0  0  0  0  0  0  0  0  0  0
   57.2720   27.0320   45.9200 N   0  0  0  0  0  0  0  0  0  0  0  0
   56.1770   26.2400   45.8600 C   0  0  0  0  0  0  0  0  0  0  0  0
   54.8720   26.6970   45.9990 O   0  0  0  0  0  0  0  0  0  0  0  0
   56.5410   24.9300   45.6210 C   0  0  0  0  0  0  0  0  0  0  0  0
   57.9100   24.9250   45.4800 C   0  0  0  0  0  0  0  0  0  0  0  0
   58.3350   26.2240   45.6790 C   0  0  0  0  0  0  0  0  0  0  0  0
   59.6640   26.6420   45.6240 O   0  0  0  0  0  0  0  0  0  0  0  0
   58.7250   23.6910   45.2360 C   0  0  0  0  0  0  0  0  0  0  0  0
   57.8310   22.5640   44.6790 C   0  0  0  0  0  0  0  0  0  0  0  0
   56.5080   22.4380   45.4670 C   0  0  0  0  0  0  0  0  0  0  0  0
   55.6700   23.7310   45.3940 C   0  0  0  0  0  0  0  0  0  0  0  0
   56.7680   30.5200   44.6820 N   0  0  0  0  0  0  0  0  0  0  0  0
   57.4530   31.6890   45.1540 C   0  0  0  0  0  0  0  0  0  0  0  0
   57.3960   32.9120   44.4590 C   0  0  0  0  0  0  0  0  0  0  0  0
   58.0570   34.0360   44.9620 C   0  0  0  0  0  0  0  0  0  0  0  0
   58.7690   33.9540   46.1610 C   0  0  0  0  0  0  0  0  0  0  0  0
   58.8120   32.7470   46.8730 C   0  0  0  0  0  0  0  0  0  0  0  0
   59.7350   32.6270   48.3710 S   0  0  0  0  0  0  0  0  0  0  0  0
   60.1280   31.1910   48.5830 O   0  0  0  0  0  0  0  0  0  0  0  0
   58.8840   33.0670   49.5300 O   0  0  0  0  0  0  0  0  0  0  0  0
   61.1690   33.6200   48.2700 N   0  0  0  0  0  0  0  0  0  0  0  0
   62.0030   33.4260   49.4760 C   0  0  0  0  0  0  0  0  0  0  0  0
   63.4400   33.9030   49.2480 C   0  0  0  0  0  0  0  0  0  0  0  0
   64.1210   33.0920   48.1320 C   0  0  0  0  0  0  0  0  0  0  0  0
   63.1150   32.5000   47.1280 C   0  0  0  0  0  0  0  0  0  0  0  0
   61.8800   33.4000   46.9840 C   0  0  0  0  0  0  0  0  0  0  0  0
   58.1490   31.6210   46.3680 C   0  0  0  0  0  0  0  0  0  0  0  0
   58.1813   28.7825   46.6477 H   0  0  0  0  0  0  0  0  0  0  0  0
   56.3792   28.7773   46.6707 H   0  0  0  0  0  0  0  0  0  0  0  0
   59.9450   27.5770   45.8890 H   0  0  0  0  0  0  0  0  0  0  0  0
   59.5190   23.9177   44.5093 H   0  0  0  0  0  0  0  0  0  0  0  0
   59.1692   23.3603   46.1864 H   0  0  0  0  0  0  0  0  0  0  0  0
   57.5988   22.7814   43.6260 H   0  0  0  0  0  0  0  0  0  0  0  0
   58.3780   21.6146   44.7757 H   0  0  0  0  0  0  0  0  0  0  0  0
   55.9205   21.6091   45.0454 H   0  0  0  0  0  0  0  0  0  0  0  0
   56.7561   22.2515   46.5223 H   0  0  0  0  0  0  0  0  0  0  0  0
   55.2028   23.8049   44.4009 H   0  0  0  0  0  0  0  0  0  0  0  0
   54.8951   23.6993   46.1740 H   0  0  0  0  0  0  0  0  0  0  0  0
   56.8302   32.9831   43.5184 H   0  0  0  0  0  0  0  0  0  0  0  0
   58.0165   34.9879   44.4122 H   0  0  0  0  0  0  0  0  0  0  0  0
   59.2970   34.8383   46.5473 H   0  0  0  0  0  0  0  0  0  0  0  0
   61.5652   33.9960   50.3087 H   0  0  0  0  0  0  0  0  0  0  0  0
   62.0292   32.3510   49.7079 H   0  0  0  0  0  0  0  0  0  0  0  0
   63.4252   34.9652   48.9626 H   0  0  0  0  0  0  0  0  0  0  0  0
   64.0076   33.7615   50.1796 H   0  0  0  0  0  0  0  0  0  0  0  0
   64.8125   33.7529   47.5888 H   0  0  0  0  0  0  0  0  0  0  0  0
   64.6490   32.2521   48.6071 H   0  0  0  0  0  0  0  0  0  0  0  0
   63.6030   32.4008   46.1472 H   0  0  0  0  0  0  0  0  0  0  0  0
   62.7887   31.5175   47.4999 H   0  0  0  0  0  0  0  0  0  0  0  0
   62.2011   34.3754   46.5896 H   0  0  0  0  0  0  0  0  0  0  0  0
   61.1803   32.8923   46.3038 H   0  0  0  0  0  0  0  0  0  0  0  0
   58.1751   30.6754   46.9294 H   0  0  0  0  0  0  0  0  0  0  0  0
  1  2  2  0
  2  3  1  0
  3  4  1  0
  4  5  1  0
  5  6  1  0
  5  7  2  0
  7  8  1  0
  8  9  2  0
  9 10  1  0
  8 11  1  0
 11 12  1  0
 12 13  1  0
 13 14  1  0
  2 15  1  0
 15 16  1  0
 16 17  2  0
 17 18  1  0
 18 19  2  0
 19 20  1  0
 20 21  1  0
 21 22  2  0
 21 23  2  0
 21 24  1  0
 24 25  1  0
 25 26  1  0
 26 27  1  0
 27 28  1  0
 28 29  1  0
 20 30  2  0
  9  4  1  0
 30 16  1  0
 14  7  1  0
 29 24  1  0
  3 31  1  0
  3 32  1  0
 10 33  1  0
 11 34  1  0
 11 35  1  0
 12 36  1  0
 12 37  1  0
 13 38  1  0
 13 39  1  0
 14 40  1  0
 14 41  1  0
 17 42  1  0
 18 43  1  0
 19 44  1  0
 25 45  1  0
 25 46  1  0
 26 47  1  0
 26 48  1  0
 27 49  1  0
 27 50  1  0
 28 51  1  0
 28 52  1  0
 29 53  1  0
 29 54  1  0
 30 55  1  0
M  CHG  2   6  -1  15  -1
M  END
>  <UniqueID>  (66) 
65

>  <SMILES>  (66) 
O=C(Cn1c([O-])c2c(c1O)CCCC2)[N-]c1cccc(S(=O)(=O)N2CCCCC2)c1

>  <Energy>  (66) 
92.3467862645838

>  <Genealogy>  (66) 
O=C(Cn1c([O-])c2c(c1O)CCCC2)[N-]c1cccc(S(=O)(=O)N2CCCCC2)c1 (protonated)
O=C(Cn1c([O-])c2c(c1O)CCCC2)[N-]c1cccc(S(=O)(=O)N2CCCCC2)c1 (3D coordinates assigned)
O=C(Cn1c([O-])c2c(c1O)CCCC2)[N-]c1cccc(S(=O)(=O)N2CCCCC2)c1 (nonaromatic ring conformer: 92.3467862645838 kcal/mol)

>  <smiles>  (66) 
O=C(Cn1c(O)c2c(c1O)CCCC2)Nc1cccc(S(=O)(=O)N2CCCCC2)c1

>  <score_type>  (66) 
oracle

>  <origin>  (66) 
adg

>  <m_score__min__energy>  (66) 
-14.51

>  <m_primary>  (66) 
energy

$$$$
66:0
     RDKit          3D

 44 46  0  0  0  0  0  0  0  0999 V2000
   56.2650   29.1810   42.4010 N   0  0  0  0  0  0  0  0  0  0  0  0
   56.8130   30.4020   42.9100 C   0  0  0  0  0  0  0  0  0  0  0  0
   57.1960   31.4130   42.0140 C   0  0  0  0  0  0  0  0  0  0  0  0
   57.7270   32.6130   42.4890 C   0  0  0  0  0  0  0  0  0  0  0  0
   57.8800   32.8160   43.8600 C   0  0  0  0  0  0  0  0  0  0  0  0
   57.5150   31.8150   44.7610 C   0  0  0  0  0  0  0  0  0  0  0  0
   56.9880   30.5960   44.2960 C   0  0  0  0  0  0  0  0  0  0  0  0
   56.5750   29.5760   45.2180 N   0  0  0  0  0  0  0  0  0  0  0  0
   57.4520   28.7980   46.0430 C   0  0  0  0  0  0  0  0  0  0  0  0
   57.2330   27.5630   46.1630 O   0  0  0  0  0  0  0  0  0  0  0  0
   58.6310   29.3980   46.7100 C   0  0  0  0  0  0  0  0  0  0  0  0
   59.7520   29.7810   45.9550 C   0  0  0  0  0  0  0  0  0  0  0  0
   60.8570   30.3690   46.5770 C   0  0  0  0  0  0  0  0  0  0  0  0
   60.8520   30.6040   47.9630 C   0  0  0  0  0  0  0  0  0  0  0  0
   61.9950   31.2110   48.6050 N   0  0  0  0  0  0  0  0  0  0  0  0
   63.0700   31.4880   47.6400 C   0  0  0  0  0  0  0  0  0  0  0  0
   63.1830   32.9550   47.3380 C   0  0  0  0  0  0  0  0  0  0  0  0
   64.1140   33.3630   46.5910 O   0  0  0  0  0  0  0  0  0  0  0  0
   62.2280   33.8660   47.9040 N   0  0  0  0  0  0  0  0  0  0  0  0
   60.9650   33.9570   47.6040 C   0  0  0  0  0  0  0  0  0  0  0  0
   60.0470   33.3910   48.4300 N   0  0  0  0  0  0  0  0  0  0  0  0
   58.7180   33.4540   48.1530 C   0  0  0  0  0  0  0  0  0  0  0  0
   58.2790   34.1030   47.0000 C   0  0  0  0  0  0  0  0  0  0  0  0
   59.2300   34.6780   46.1590 C   0  0  0  0  0  0  0  0  0  0  0  0
   60.5480   34.5980   46.4760 N   0  0  0  0  0  0  0  0  0  0  0  0
   59.7320   30.2200   48.7180 C   0  0  0  0  0  0  0  0  0  0  0  0
   58.6310   29.6230   48.0970 C   0  0  0  0  0  0  0  0  0  0  0  0
   55.7460   29.1480   41.4960 H   0  0  0  0  0  0  0  0  0  0  0  0
   56.3700   28.2900   42.9340 H   0  0  0  0  0  0  0  0  0  0  0  0
   57.0768   31.2583   40.9315 H   0  0  0  0  0  0  0  0  0  0  0  0
   58.0253   33.4000   41.7807 H   0  0  0  0  0  0  0  0  0  0  0  0
   58.2892   33.7669   44.2319 H   0  0  0  0  0  0  0  0  0  0  0  0
   57.6400   31.9798   45.8414 H   0  0  0  0  0  0  0  0  0  0  0  0
   59.7602   29.6171   44.8673 H   0  0  0  0  0  0  0  0  0  0  0  0
   61.7360   30.6496   45.9782 H   0  0  0  0  0  0  0  0  0  0  0  0
   62.3500   30.5970   49.3750 H   0  0  0  0  0  0  0  0  0  0  0  0
   61.7020   32.1140   49.0460 H   0  0  0  0  0  0  0  0  0  0  0  0
   64.0242   31.1360   48.0590 H   0  0  0  0  0  0  0  0  0  0  0  0
   62.8325   30.9630   46.7030 H   0  0  0  0  0  0  0  0  0  0  0  0
   57.9901   32.9937   48.8373 H   0  0  0  0  0  0  0  0  0  0  0  0
   57.2071   34.1599   46.7596 H   0  0  0  0  0  0  0  0  0  0  0  0
   58.9139   35.1952   45.2411 H   0  0  0  0  0  0  0  0  0  0  0  0
   59.7209   30.3900   49.8047 H   0  0  0  0  0  0  0  0  0  0  0  0
   57.7586   29.3273   48.6983 H   0  0  0  0  0  0  0  0  0  0  0  0
  1  2  1  0
  2  3  2  0
  3  4  1  0
  4  5  2  0
  5  6  1  0
  6  7  2  0
  7  8  1  0
  8  9  1  0
  9 10  2  0
  9 11  1  0
 11 12  2  0
 12 13  1  0
 13 14  2  0
 14 15  1  0
 15 16  1  0
 16 17  1  0
 17 18  2  0
 17 19  1  0
 19 20  2  3
 20 21  1  0
 21 22  2  0
 22 23  1  0
 23 24  2  0
 24 25  1  0
 14 26  1  0
 26 27  2  0
  7  2  1  0
 27 11  1  0
 25 20  1  0
  1 28  1  0
  1 29  1  0
  3 30  1  0
  4 31  1  0
  5 32  1  0
  6 33  1  0
 12 34  1  0
 13 35  1  0
 15 36  1  0
 15 37  1  0
 16 38  1  0
 16 39  1  0
 22 40  1  0
 23 41  1  0
 24 42  1  0
 26 43  1  0
 27 44  1  0
M  CHG  3   8  -1  15   1  25  -1
M  END
>  <UniqueID>  (67) 
66

>  <SMILES>  (67) 
Nc1ccccc1[N-]C(=O)c1ccc([NH2+]CC(=O)N=c2nccc[n-]2)cc1

>  <Energy>  (67) 
54.65916474327315

>  <Genealogy>  (67) 
Nc1ccccc1[N-]C(=O)c1ccc([NH2+]CC(=O)N=c2nccc[n-]2)cc1 (protonated)
Nc1ccccc1[N-]C(=O)c1ccc([NH2+]CC(=O)N=c2nccc[n-]2)cc1 (3D coordinates assigned)
Nc1ccccc1[N-]C(=O)c1ccc([NH2+]CC(=O)N=c2nccc[n-]2)cc1 (optimized conformer: 54.65916474327315 kcal/mol)

>  <smiles>  (67) 
Nc1ccccc1NC(=O)c1ccc(NCC(=O)N=c2nccc[nH]2)cc1

>  <score_type>  (67) 
oracle

>  <origin>  (67) 
adg

>  <m_score__min__energy>  (67) 
-8.4900000000000002

>  <m_primary>  (67) 
energy

$$$$
67:0
     RDKit          3D

 48 52  0  0  0  0  0  0  0  0999 V2000
   49.9019   22.6519   50.1396 H   0  0  0  0  0  0  0  0  0  0  0  0
   50.5700   22.5000   49.2790 C   0  0  0  0  0  0  0  0  0  0  0  0
   50.0630   22.5720   47.9790 C   0  0  0  0  0  0  0  0  0  0  0  0
   48.9971   22.7894   47.8162 H   0  0  0  0  0  0  0  0  0  0  0  0
   50.9090   22.3680   46.8850 C   0  0  0  0  0  0  0  0  0  0  0  0
   50.5085   22.4417   45.8632 H   0  0  0  0  0  0  0  0  0  0  0  0
   52.2650   22.0700   47.0820 C   0  0  0  0  0  0  0  0  0  0  0  0
   53.1070   21.9010   45.9290 N   0  0  0  0  0  0  0  0  0  0  0  0
   54.1300   22.6340   45.5970 C   0  0  0  0  0  0  0  0  0  0  0  0
   54.2940   23.8970   46.1030 N   0  0  0  0  0  0  0  0  0  0  0  0
   55.3920   24.6030   45.7430 C   0  0  0  0  0  0  0  0  0  0  0  0
   56.3310   24.0970   44.9030 C   0  0  0  0  0  0  0  0  0  0  0  0
   56.1870   22.8170   44.3920 C   0  0  0  0  0  0  0  0  0  0  0  0
   56.9398   22.3874   43.7147 H   0  0  0  0  0  0  0  0  0  0  0  0
   55.0800   22.1070   44.7570 N   0  0  0  0  0  0  0  0  0  0  0  0
   57.3050   25.0560   44.7400 C   0  0  0  0  0  0  0  0  0  0  0  0
   58.2163   24.9897   44.1275 H   0  0  0  0  0  0  0  0  0  0  0  0
   56.8800   26.1350   45.5260 C   0  0  0  0  0  0  0  0  0  0  0  0
   57.6020   27.4240   45.6790 C   0  0  0  0  0  0  0  0  0  0  0  0
   58.8330   27.4750   46.3550 C   0  0  0  0  0  0  0  0  0  0  0  0
   59.2638   26.5542   46.7752 H   0  0  0  0  0  0  0  0  0  0  0  0
   59.5130   28.6860   46.4970 C   0  0  0  0  0  0  0  0  0  0  0  0
   60.4768   28.7142   47.0264 H   0  0  0  0  0  0  0  0  0  0  0  0
   58.9750   29.8610   45.9700 C   0  0  0  0  0  0  0  0  0  0  0  0
   59.5181   30.8107   46.0850 H   0  0  0  0  0  0  0  0  0  0  0  0
   57.7430   29.8380   45.2930 C   0  0  0  0  0  0  0  0  0  0  0  0
   57.1680   31.0870   44.7350 C   0  0  0  0  0  0  0  0  0  0  0  0
   55.9260   31.1700   44.5340 O   0  0  0  0  0  0  0  0  0  0  0  0
   58.0150   32.2130   44.4740 N   0  0  0  0  0  0  0  0  0  0  0  0
   58.5070   33.1560   45.4380 C   0  0  0  0  0  0  0  0  0  0  0  0
   58.3600   32.8630   46.8010 C   0  0  0  0  0  0  0  0  0  0  0  0
   57.8613   31.9322   47.1092 H   0  0  0  0  0  0  0  0  0  0  0  0
   58.8430   33.7460   47.7710 C   0  0  0  0  0  0  0  0  0  0  0  0
   58.7116   33.5148   48.8384 H   0  0  0  0  0  0  0  0  0  0  0  0
   59.4920   34.9210   47.3870 C   0  0  0  0  0  0  0  0  0  0  0  0
   59.8670   35.6175   48.1514 H   0  0  0  0  0  0  0  0  0  0  0  0
   59.6650   35.2120   46.0310 C   0  0  0  0  0  0  0  0  0  0  0  0
   60.1814   36.1352   45.7293 H   0  0  0  0  0  0  0  0  0  0  0  0
   59.1830   34.3320   45.0570 C   0  0  0  0  0  0  0  0  0  0  0  0
   59.3320   34.5584   43.9909 H   0  0  0  0  0  0  0  0  0  0  0  0
   57.0640   28.6120   45.1520 C   0  0  0  0  0  0  0  0  0  0  0  0
   56.1001   28.5832   44.6227 H   0  0  0  0  0  0  0  0  0  0  0  0
   55.7030   25.8460   46.1390 N   0  0  0  0  0  0  0  0  0  0  0  0
   55.1330   26.4550   46.7670 H   0  0  0  0  0  0  0  0  0  0  0  0
   52.7750   22.0300   48.3940 C   0  0  0  0  0  0  0  0  0  0  0  0
   53.8450   21.8368   48.5607 H   0  0  0  0  0  0  0  0  0  0  0  0
   51.9260   22.2350   49.4850 C   0  0  0  0  0  0  0  0  0  0  0  0
   52.3265   22.1876   50.5084 H   0  0  0  0  0  0  0  0  0  0  0  0
  1  2  1  0
  2  3  2  0
  3  4  1  0
  3  5  1  0
  5  6  1  0
  5  7  2  0
  7  8  1  0
  8  9  2  0
  9 10  1  0
 10 11  2  0
 11 12  1  0
 12 13  2  0
 13 14  1  0
 13 15  1  0
 12 16  1  0
 16 17  1  0
 16 18  2  0
 18 19  1  0
 19 20  2  0
 20 21  1  0
 20 22  1  0
 22 23  1  0
 22 24  2  0
 24 25  1  0
 24 26  1  0
 26 27  1  0
 27 28  2  0
 27 29  1  0
 29 30  1  0
 30 31  2  0
 31 32  1  0
 31 33  1  0
 33 34  1  0
 33 35  2  0
 35 36  1  0
 35 37  1  0
 37 38  1  0
 37 39  2  0
 39 40  1  0
 26 41  2  0
 41 42  1  0
 18 43  1  0
 43 44  1  0
  7 45  1  0
 45 46  1  0
 45 47  2  0
 47 48  1  0
 47  2  1  0
 15  9  1  0
 41 19  1  0
 43 11  1  0
 39 30  1  0
M  CHG  2  15  -1  29  -1
M  END
>  <UniqueID>  (68) 
67

>  <SMILES>  (68) 
O=C([N-]c1ccccc1)c1cccc(-c2cc3c[n-]/c(=N/c4ccccc4)nc3[nH]2)c1

>  <Energy>  (68) 
104.29527004816248

>  <Genealogy>  (68) 
O=C([N-]c1ccccc1)c1cccc(-c2cc3c[n-]c(=Nc4ccccc4)nc3[nH]2)c1 (protonated)
O=C([N-]c1ccccc1)c1cccc(-c2cc3c[n-]/c(=N/c4ccccc4)nc3[nH]2)c1 (cis-trans isomerization)
O=C([N-]c1ccccc1)c1cccc(-c2cc3c[n-]/c(=N/c4ccccc4)nc3[nH]2)c1 (3D coordinates assigned)
O=C([N-]c1ccccc1)c1cccc(-c2cc3c[n-]/c(=N/c4ccccc4)nc3[nH]2)c1 (optimized conformer: 104.29527004816248 kcal/mol)

>  <smiles>  (68) 
O=C(Nc1ccccc1)c1cccc(-c2cc3c[nH]c(=Nc4ccccc4)nc3[nH]2)c1

>  <score_type>  (68) 
oracle

>  <origin>  (68) 
adg

>  <m_score__min__energy>  (68) 
-12.59

>  <m_primary>  (68) 
energy

$$$$
68:0
     RDKit          3D

 46 48  0  0  0  0  0  0  0  0999 V2000
   56.0100   23.6120   41.9410 H   0  0  0  0  0  0  0  0  0  0  0  0
   55.5080   23.1760   42.7440 N   0  0  0  0  0  0  0  0  0  0  0  0
   56.0840   22.4640   43.6630 C   0  0  0  0  0  0  0  0  0  0  0  0
   56.0390   21.1090   43.5560 N   0  0  0  0  0  0  0  0  0  0  0  0
   56.6470   20.2880   44.4540 C   0  0  0  0  0  0  0  0  0  0  0  0
   56.5806   19.1966   44.3339 H   0  0  0  0  0  0  0  0  0  0  0  0
   57.3540   20.8290   45.5260 C   0  0  0  0  0  0  0  0  0  0  0  0
   57.8563   20.1694   46.2490 H   0  0  0  0  0  0  0  0  0  0  0  0
   57.4190   22.2140   45.6740 C   0  0  0  0  0  0  0  0  0  0  0  0
   57.9745   22.6494   46.5177 H   0  0  0  0  0  0  0  0  0  0  0  0
   56.7780   23.0550   44.7500 C   0  0  0  0  0  0  0  0  0  0  0  0
   56.8400   24.5220   44.9570 C   0  0  0  0  0  0  0  0  0  0  0  0
   57.7240   25.2920   44.1900 C   0  0  0  0  0  0  0  0  0  0  0  0
   58.3705   24.8022   43.4469 H   0  0  0  0  0  0  0  0  0  0  0  0
   57.7910   26.6750   44.3610 C   0  0  0  0  0  0  0  0  0  0  0  0
   58.4969   27.2659   43.7590 H   0  0  0  0  0  0  0  0  0  0  0  0
   56.9630   27.3190   45.2970 C   0  0  0  0  0  0  0  0  0  0  0  0
   57.0320   28.7880   45.4710 C   0  0  0  0  0  0  0  0  0  0  0  0
   57.9630   29.3020   46.1490 O   0  0  0  0  0  0  0  0  0  0  0  0
   56.0390   29.6330   44.8720 N   0  0  0  0  0  0  0  0  0  0  0  0
   56.2800   30.4550   43.6930 C   0  0  0  0  0  0  0  0  0  0  0  0
   56.7518   29.8397   42.9128 H   0  0  0  0  0  0  0  0  0  0  0  0
   55.3193   30.8518   43.3330 H   0  0  0  0  0  0  0  0  0  0  0  0
   57.1830   31.6020   44.0300 C   0  0  0  0  0  0  0  0  0  0  0  0
   57.7750   32.2100   43.0980 O   0  0  0  0  0  0  0  0  0  0  0  0
   57.4050   31.9660   45.4020 N   0  0  0  0  0  0  0  0  0  0  0  0
   57.1000   31.2920   46.1400 H   0  0  0  0  0  0  0  0  0  0  0  0
   58.1500   33.1220   45.8200 C   0  0  0  0  0  0  0  0  0  0  0  0
   58.5410   34.0720   44.8610 C   0  0  0  0  0  0  0  0  0  0  0  0
   58.2701   33.9253   43.8050 H   0  0  0  0  0  0  0  0  0  0  0  0
   59.2710   35.2010   45.2390 C   0  0  0  0  0  0  0  0  0  0  0  0
   59.5607   35.9468   44.4841 H   0  0  0  0  0  0  0  0  0  0  0  0
   59.6330   35.3830   46.5750 C   0  0  0  0  0  0  0  0  0  0  0  0
   60.2015   36.2762   46.8735 H   0  0  0  0  0  0  0  0  0  0  0  0
   59.2740   34.4320   47.5330 C   0  0  0  0  0  0  0  0  0  0  0  0
   59.6430   34.6010   48.8270 F   0  0  0  0  0  0  0  0  0  0  0  0
   58.5430   33.3010   47.1600 C   0  0  0  0  0  0  0  0  0  0  0  0
   58.2738   32.5483   47.9156 H   0  0  0  0  0  0  0  0  0  0  0  0
   56.0700   26.5480   46.0610 C   0  0  0  0  0  0  0  0  0  0  0  0
   55.4145   27.0424   46.7930 H   0  0  0  0  0  0  0  0  0  0  0  0
   56.0040   25.1500   45.9010 C   0  0  0  0  0  0  0  0  0  0  0  0
   55.1300   24.3570   46.6630 O   0  0  0  0  0  0  0  0  0  0  0  0
   55.5080   23.6140   47.8180 C   0  0  0  0  0  0  0  0  0  0  0  0
   55.2240   24.1723   48.7223 H   0  0  0  0  0  0  0  0  0  0  0  0
   54.9955   22.6407   47.8118 H   0  0  0  0  0  0  0  0  0  0  0  0
   56.5965   23.4552   47.8118 H   0  0  0  0  0  0  0  0  0  0  0  0
  1  2  1  0
  2  3  2  0
  3  4  1  0
  4  5  1  0
  5  6  1  0
  5  7  2  0
  7  8  1  0
  7  9  1  0
  9 10  1  0
  9 11  2  0
 11 12  1  0
 12 13  2  0
 13 14  1  0
 13 15  1  0
 15 16  1  0
 15 17  2  0
 17 18  1  0
 18 19  2  0
 18 20  1  0
 20 21  1  0
 21 22  1  0
 21 23  1  0
 21 24  1  0
 24 25  2  0
 24 26  1  0
 26 27  1  0
 26 28  1  0
 28 29  2  0
 29 30  1  0
 29 31  1  0
 31 32  1  0
 31 33  2  0
 33 34  1  0
 33 35  1  0
 35 36  1  0
 35 37  2  0
 37 38  1  0
 17 39  1  0
 39 40  1  0
 39 41  2  0
 41 42  1  0
 42 43  1  0
 43 44  1  0
 43 45  1  0
 43 46  1  0
 11  3  1  0
 41 12  1  0
 37 28  1  0
M  CHG  2   4  -1  20  -1
M  END
>  <UniqueID>  (69) 
68

>  <SMILES>  (69) 
[H]/N=c1/[n-]cccc1-c1ccc(C(=O)[N-]CC(=O)Nc2cccc(F)c2)cc1OC

>  <Energy>  (69) 
59.83967036852298

>  <Genealogy>  (69) 
COc1cc(C(=O)[N-]CC(=O)Nc2cccc(F)c2)ccc1-c1ccc[n-]c1=N (protonated)
[H]/N=c1/[n-]cccc1-c1ccc(C(=O)[N-]CC(=O)Nc2cccc(F)c2)cc1OC (cis-trans isomerization)
[H]/N=c1/[n-]cccc1-c1ccc(C(=O)[N-]CC(=O)Nc2cccc(F)c2)cc1OC (3D coordinates assigned)
[H]/N=c1/[n-]cccc1-c1ccc(C(=O)[N-]CC(=O)Nc2cccc(F)c2)cc1OC (optimized conformer: 59.83967036852298 kcal/mol)

>  <smiles>  (69) 
COc1cc(C(=O)NCC(=O)Nc2cccc(F)c2)ccc1-c1ccc[nH]c1=N

>  <score_type>  (69) 
oracle

>  <origin>  (69) 
adg

>  <m_score__min__energy>  (69) 
-11.66

>  <m_primary>  (69) 
energy

$$$$
69:0
     RDKit          3D

 25 26  0  0  0  0  0  0  0  0999 V2000
   58.4770   27.1125   44.4732 H   0  0  0  0  0  0  0  0  0  0  0  0
   57.7970   27.3300   45.3100 C   0  0  0  0  0  0  0  0  0  0  0  0
   57.5540   28.6130   45.6030 C   0  0  0  0  0  0  0  0  0  0  0  0
   57.1194   28.8709   46.5800 H   0  0  0  0  0  0  0  0  0  0  0  0
   57.8640   29.7070   44.6220 C   0  0  0  0  0  0  0  0  0  0  0  0
   58.8400   29.5079   44.1554 H   0  0  0  0  0  0  0  0  0  0  0  0
   57.0737   29.7312   43.8572 H   0  0  0  0  0  0  0  0  0  0  0  0
   57.9100   31.0440   45.3140 C   0  0  0  0  0  0  0  0  0  0  0  0
   58.4800   31.1660   46.5920 C   0  0  0  0  0  0  0  0  0  0  0  0
   58.8767   30.2759   47.1023 H   0  0  0  0  0  0  0  0  0  0  0  0
   58.5450   32.4150   47.2180 C   0  0  0  0  0  0  0  0  0  0  0  0
   59.0940   32.5250   48.4530 F   0  0  0  0  0  0  0  0  0  0  0  0
   58.0500   33.5500   46.5700 C   0  0  0  0  0  0  0  0  0  0  0  0
   58.1007   34.5315   47.0641 H   0  0  0  0  0  0  0  0  0  0  0  0
   57.4900   33.4380   45.2930 C   0  0  0  0  0  0  0  0  0  0  0  0
   57.0150   34.5410   44.6640 F   0  0  0  0  0  0  0  0  0  0  0  0
   57.4230   32.1910   44.6650 C   0  0  0  0  0  0  0  0  0  0  0  0
   56.9872   32.1074   43.6585 H   0  0  0  0  0  0  0  0  0  0  0  0
   57.2100   26.1880   46.0390 C   0  0  0  0  0  0  0  0  0  0  0  0
   57.9660   25.2010   46.5550 N   0  0  0  0  0  0  0  0  0  0  0  0
   57.0690   24.3790   47.1390 C   0  0  0  0  0  0  0  0  0  0  0  0
   57.4040   23.3220   47.7340 O   0  0  0  0  0  0  0  0  0  0  0  0
   55.7860   24.7800   47.0370 N   0  0  0  0  0  0  0  0  0  0  0  0
   55.8860   25.9260   46.3430 C   0  0  0  0  0  0  0  0  0  0  0  0
   54.7870   26.7130   46.0200 O   0  0  0  0  0  0  0  0  0  0  0  0
  1  2  1  0
  2  3  2  0
  3  4  1  0
  3  5  1  0
  5  6  1  0
  5  7  1  0
  5  8  1  0
  8  9  2  0
  9 10  1  0
  9 11  1  0
 11 12  1  0
 11 13  2  0
 13 14  1  0
 13 15  1  0
 15 16  1  0
 15 17  2  0
 17 18  1  0
  2 19  1  0
 19 20  1  0
 20 21  1  0
 21 22  2  0
 21 23  1  0
 23 24  1  0
 24 25  1  0
 17  8  1  0
 24 19  2  0
M  CHG  3  20  -1  23  -1  25  -1
M  END
>  <UniqueID>  (70) 
69

>  <SMILES>  (70) 
O=c1[n-]c([O-])c(/C=C/Cc2cc(F)cc(F)c2)[n-]1

>  <Energy>  (70) 
53.93425951767375

>  <Genealogy>  (70) 
O=c1[n-]c([O-])c(C=CCc2cc(F)cc(F)c2)[n-]1 (protonated)
O=c1[n-]c([O-])c(/C=C/Cc2cc(F)cc(F)c2)[n-]1 (cis-trans isomerization)
O=c1[n-]c([O-])c(/C=C/Cc2cc(F)cc(F)c2)[n-]1 (3D coordinates assigned)
O=c1[n-]c([O-])c(/C=C/Cc2cc(F)cc(F)c2)[n-]1 (optimized conformer: 53.93425951767375 kcal/mol)

>  <smiles>  (70) 
O=c1[nH]c(O)c(C=CCc2cc(F)cc(F)c2)[nH]1

>  <score_type>  (70) 
oracle

>  <origin>  (70) 
adg

>  <m_score__min__energy>  (70) 
-14.83

>  <m_primary>  (70) 
energy

$$$$
70:0
     RDKit          3D

 25 26  0  0  0  0  0  0  0  0999 V2000
   58.3600   27.1965   44.1218 H   0  0  0  0  0  0  0  0  0  0  0  0
   57.7700   27.6740   44.9180 C   0  0  0  0  0  0  0  0  0  0  0  0
   57.2470   26.9000   45.8780 C   0  0  0  0  0  0  0  0  0  0  0  0
   57.2431   27.2750   46.9121 H   0  0  0  0  0  0  0  0  0  0  0  0
   56.6740   25.5620   45.6080 C   0  0  0  0  0  0  0  0  0  0  0  0
   57.5450   24.5330   45.2170 C   0  0  0  0  0  0  0  0  0  0  0  0
   58.6214   24.7376   45.1199 H   0  0  0  0  0  0  0  0  0  0  0  0
   57.0570   23.2510   44.9500 C   0  0  0  0  0  0  0  0  0  0  0  0
   57.7502   22.4494   44.6553 H   0  0  0  0  0  0  0  0  0  0  0  0
   55.6910   22.9870   45.0570 C   0  0  0  0  0  0  0  0  0  0  0  0
   55.3104   21.9741   44.8591 H   0  0  0  0  0  0  0  0  0  0  0  0
   54.8060   24.0070   45.4150 C   0  0  0  0  0  0  0  0  0  0  0  0
   53.4440   23.7410   45.4990 O   0  0  0  0  0  0  0  0  0  0  0  0
   55.2880   25.2980   45.6800 C   0  0  0  0  0  0  0  0  0  0  0  0
   54.3800   26.3090   45.9800 O   0  0  0  0  0  0  0  0  0  0  0  0
   57.5900   29.1420   44.8800 C   0  0  0  0  0  0  0  0  0  0  0  0
   56.3210   29.7630   44.8740 C   0  0  0  0  0  0  0  0  0  0  0  0
   55.1530   29.0090   44.8680 O   0  0  0  0  0  0  0  0  0  0  0  0
   56.2290   31.1190   44.8390 N   0  0  0  0  0  0  0  0  0  0  0  0
   57.3290   31.9150   44.7900 C   0  0  0  0  0  0  0  0  0  0  0  0
   57.1950   33.1670   44.7630 O   0  0  0  0  0  0  0  0  0  0  0  0
   58.6030   31.3450   44.7620 C   0  0  0  0  0  0  0  0  0  0  0  0
   59.4972   31.9837   44.7121 H   0  0  0  0  0  0  0  0  0  0  0  0
   58.7290   29.9570   44.7980 C   0  0  0  0  0  0  0  0  0  0  0  0
   59.7280   29.4979   44.7619 H   0  0  0  0  0  0  0  0  0  0  0  0
  1  2  1  0
  2  3  2  0
  3  4  1  0
  3  5  1  0
  5  6  2  0
  6  7  1  0
  6  8  1  0
  8  9  1  0
  8 10  2  0
 10 11  1  0
 10 12  1  0
 12 13  1  0
 12 14  2  0
 14 15  1  0
  2 16  1  0
 16 17  2  0
 17 18  1  0
 17 19  1  0
 19 20  1  0
 20 21  2  0
 20 22  1  0
 22 23  1  0
 22 24  2  0
 24 25  1  0
 14  5  1  0
 24 16  1  0
M  CHG  4  13  -1  15  -1  18  -1  19  -1
M  END
>  <UniqueID>  (71) 
70

>  <SMILES>  (71) 
O=c1ccc(/C=C/c2cccc([O-])c2[O-])c([O-])[n-]1

>  <Energy>  (71) 
36.86155797800281

>  <Genealogy>  (71) 
O=c1ccc(C=Cc2cccc([O-])c2[O-])c([O-])[n-]1 (protonated)
O=c1ccc(/C=C/c2cccc([O-])c2[O-])c([O-])[n-]1 (cis-trans isomerization)
O=c1ccc(/C=C/c2cccc([O-])c2[O-])c([O-])[n-]1 (3D coordinates assigned)
O=c1ccc(/C=C/c2cccc([O-])c2[O-])c([O-])[n-]1 (optimized conformer: 36.86155797800281 kcal/mol)

>  <smiles>  (71) 
O=c1ccc(C=Cc2cccc(O)c2O)c(O)[nH]1

>  <score_type>  (71) 
oracle

>  <origin>  (71) 
adg

>  <m_score__min__energy>  (71) 
-17.43

>  <m_primary>  (71) 
energy

$$$$
71:0
     RDKit          3D

 37 39  0  0  0  0  0  0  0  0999 V2000
   59.9251   35.7786   46.4315 H   0  0  0  0  0  0  0  0  0  0  0  0
   59.2460   34.9550   46.1660 C   0  0  0  0  0  0  0  0  0  0  0  0
   58.8660   34.7770   44.8730 N   0  0  0  0  0  0  0  0  0  0  0  0
   58.0190   33.7790   44.5060 C   0  0  0  0  0  0  0  0  0  0  0  0
   57.7353   33.6594   43.4500 H   0  0  0  0  0  0  0  0  0  0  0  0
   57.5050   32.8990   45.4760 C   0  0  0  0  0  0  0  0  0  0  0  0
   56.6450   31.8410   45.1460 O   0  0  0  0  0  0  0  0  0  0  0  0
   57.0440   30.5280   44.8560 C   0  0  0  0  0  0  0  0  0  0  0  0
   56.3330   29.4950   45.3760 N   0  0  0  0  0  0  0  0  0  0  0  0
   56.6560   28.1980   45.1170 C   0  0  0  0  0  0  0  0  0  0  0  0
   55.9740   27.2110   45.6240 N   0  0  0  0  0  0  0  0  0  0  0  0
   56.5000   25.9840   46.1580 C   0  0  0  0  0  0  0  0  0  0  0  0
   55.8800   25.3360   47.0450 O   0  0  0  0  0  0  0  0  0  0  0  0
   57.7830   25.4430   45.6150 C   0  0  0  0  0  0  0  0  0  0  0  0
   58.2602   26.2050   44.9813 H   0  0  0  0  0  0  0  0  0  0  0  0
   58.4478   25.1834   46.4520 H   0  0  0  0  0  0  0  0  0  0  0  0
   57.5170   24.2100   44.7960 C   0  0  0  0  0  0  0  0  0  0  0  0
   58.1920   23.0120   45.0780 C   0  0  0  0  0  0  0  0  0  0  0  0
   58.9392   22.9807   45.8847 H   0  0  0  0  0  0  0  0  0  0  0  0
   57.9180   21.8580   44.3370 C   0  0  0  0  0  0  0  0  0  0  0  0
   58.4557   20.9238   44.5565 H   0  0  0  0  0  0  0  0  0  0  0  0
   56.9620   21.8900   43.3180 C   0  0  0  0  0  0  0  0  0  0  0  0
   56.6960   20.7690   42.6030 F   0  0  0  0  0  0  0  0  0  0  0  0
   56.2750   23.0760   43.0410 C   0  0  0  0  0  0  0  0  0  0  0  0
   55.5197   23.0995   42.2416 H   0  0  0  0  0  0  0  0  0  0  0  0
   56.5470   24.2320   43.7790 C   0  0  0  0  0  0  0  0  0  0  0  0
   56.0001   25.1617   43.5630 H   0  0  0  0  0  0  0  0  0  0  0  0
   57.7460   27.9250   44.2850 C   0  0  0  0  0  0  0  0  0  0  0  0
   58.0298   26.8845   44.0686 H   0  0  0  0  0  0  0  0  0  0  0  0
   58.4530   28.9530   43.7450 N   0  0  0  0  0  0  0  0  0  0  0  0
   59.2580   28.7450   43.1130 H   0  0  0  0  0  0  0  0  0  0  0  0
   58.1250   30.2460   44.0050 C   0  0  0  0  0  0  0  0  0  0  0  0
   58.7021   31.0657   43.5522 H   0  0  0  0  0  0  0  0  0  0  0  0
   57.9060   33.0570   46.8060 C   0  0  0  0  0  0  0  0  0  0  0  0
   57.5368   32.3646   47.5769 H   0  0  0  0  0  0  0  0  0  0  0  0
   58.7740   34.0920   47.1570 C   0  0  0  0  0  0  0  0  0  0  0  0
   59.0832   34.2265   48.2040 H   0  0  0  0  0  0  0  0  0  0  0  0
  1  2  1  0
  2  3  2  0
  3  4  1  0
  4  5  1  0
  4  6  2  0
  6  7  1  0
  7  8  1  0
  8  9  1  0
  9 10  1  0
 10 11  2  0
 11 12  1  0
 12 13  2  0
 12 14  1  0
 14 15  1  0
 14 16  1  0
 14 17  1  0
 17 18  2  0
 18 19  1  0
 18 20  1  0
 20 21  1  0
 20 22  2  0
 22 23  1  0
 22 24  1  0
 24 25  1  0
 24 26  2  0
 26 27  1  0
 10 28  1  0
 28 29  1  0
 28 30  2  0
 30 31  1  0
 30 32  1  0
 32 33  1  0
  6 34  1  0
 34 35  1  0
 34 36  2  0
 36 37  1  0
 36  2  1  0
 32  8  2  0
 26 17  1  0
M  CHG  2   9  -1  30   1
M  END
>  <UniqueID>  (72) 
71

>  <SMILES>  (72) 
O=C(Cc1ccc(F)cc1)/N=c1/c[nH+]cc(Oc2cccnc2)[n-]1

>  <Energy>  (72) 
48.763705701155956

>  <Genealogy>  (72) 
O=C(Cc1ccc(F)cc1)N=c1c[nH+]cc(Oc2cccnc2)[n-]1 (protonated)
O=C(Cc1ccc(F)cc1)/N=c1/c[nH+]cc(Oc2cccnc2)[n-]1 (cis-trans isomerization)
O=C(Cc1ccc(F)cc1)/N=c1/c[nH+]cc(Oc2cccnc2)[n-]1 (3D coordinates assigned)
O=C(Cc1ccc(F)cc1)/N=c1/c[nH+]cc(Oc2cccnc2)[n-]1 (optimized conformer: 48.763705701155956 kcal/mol)

>  <smiles>  (72) 
O=C(Cc1ccc(F)cc1)N=c1cncc(Oc2cccnc2)[nH]1

>  <score_type>  (72) 
oracle

>  <origin>  (72) 
adg

>  <m_score__min__energy>  (72) 
-8.2699999999999996

>  <m_primary>  (72) 
energy

$$$$
72:0
     RDKit          3D

 70 73  0  0  0  0  0  0  0  0999 V2000
   57.9558   32.3696   50.3649 H   0  0  0  0  0  0  0  0  0  0  0  0
   58.8030   32.5260   49.6810 C   0  0  0  0  0  0  0  0  0  0  0  0
   60.0750   32.5620   50.1680 N   0  0  0  0  0  0  0  0  0  0  0  0
   61.1450   32.7310   49.3440 C   0  0  0  0  0  0  0  0  0  0  0  0
   62.4410   32.7260   49.8910 C   0  0  0  0  0  0  0  0  0  0  0  0
   62.5747   32.6866   50.9821 H   0  0  0  0  0  0  0  0  0  0  0  0
   63.5610   32.7710   49.0530 C   0  0  0  0  0  0  0  0  0  0  0  0
   65.3130   32.7320   49.8120 Br  0  0  0  0  0  0  0  0  0  0  0  0
   63.3950   32.8100   47.6670 C   0  0  0  0  0  0  0  0  0  0  0  0
   64.2805   32.8070   47.0145 H   0  0  0  0  0  0  0  0  0  0  0  0
   62.1120   32.8530   47.0940 C   0  0  0  0  0  0  0  0  0  0  0  0
   61.9983   32.8780   46.0002 H   0  0  0  0  0  0  0  0  0  0  0  0
   60.9770   32.8640   47.9180 C   0  0  0  0  0  0  0  0  0  0  0  0
   59.6130   32.9610   47.4410 C   0  0  0  0  0  0  0  0  0  0  0  0
   59.2020   33.4090   46.2720 N   0  0  0  0  0  0  0  0  0  0  0  0
   58.4720   34.5300   45.6730 C   0  0  0  0  0  0  0  0  0  0  0  0
   59.1530   35.1315   45.0529 H   0  0  0  0  0  0  0  0  0  0  0  0
   58.0529   35.1784   46.4565 H   0  0  0  0  0  0  0  0  0  0  0  0
   57.3500   33.9470   44.8020 C   0  0  0  0  0  0  0  0  0  0  0  0
   57.6683   33.9486   43.7490 H   0  0  0  0  0  0  0  0  0  0  0  0
   56.4455   34.5618   44.9196 H   0  0  0  0  0  0  0  0  0  0  0  0
   57.0400   32.5050   45.2380 C   0  0  0  0  0  0  0  0  0  0  0  0
   56.0647   32.4875   45.7465 H   0  0  0  0  0  0  0  0  0  0  0  0
   57.8408   32.1698   45.9135 H   0  0  0  0  0  0  0  0  0  0  0  0
   56.9950   31.5890   44.0860 N   0  0  0  0  0  0  0  0  0  0  0  0
   56.0780   30.4570   44.3440 C   0  0  0  0  0  0  0  0  0  0  0  0
   55.7884   30.0111   43.3810 H   0  0  0  0  0  0  0  0  0  0  0  0
   55.2056   30.8505   44.8862 H   0  0  0  0  0  0  0  0  0  0  0  0
   56.7200   29.3660   45.2200 C   0  0  0  0  0  0  0  0  0  0  0  0
   56.0467   28.4975   45.2696 H   0  0  0  0  0  0  0  0  0  0  0  0
   56.8884   29.7703   46.2291 H   0  0  0  0  0  0  0  0  0  0  0  0
   58.0160   28.9460   44.6480 N   0  0  0  0  0  0  0  0  0  0  0  0
   58.6070   27.7680   45.3290 C   0  0  0  0  0  0  0  0  0  0  0  0
   58.5499   26.9099   44.6432 H   0  0  0  0  0  0  0  0  0  0  0  0
   58.0299   27.6181   46.2534 H   0  0  0  0  0  0  0  0  0  0  0  0
   60.0680   27.9470   45.7510 C   0  0  0  0  0  0  0  0  0  0  0  0
   60.2283   28.9888   46.0657 H   0  0  0  0  0  0  0  0  0  0  0  0
   60.7163   27.7035   44.8963 H   0  0  0  0  0  0  0  0  0  0  0  0
   60.3890   27.0740   46.8360 O   0  0  0  0  0  0  0  0  0  0  0  0
   60.2140   27.5100   48.1390 C   0  0  0  0  0  0  0  0  0  0  0  0
   60.7270   26.7610   49.2040 C   0  0  0  0  0  0  0  0  0  0  0  0
   60.8706   25.6754   49.1003 H   0  0  0  0  0  0  0  0  0  0  0  0
   61.0540   27.4020   50.3960 C   0  0  0  0  0  0  0  0  0  0  0  0
   61.5028   26.8315   51.2225 H   0  0  0  0  0  0  0  0  0  0  0  0
   60.8110   28.7740   50.5420 C   0  0  0  0  0  0  0  0  0  0  0  0
   61.8380   29.7010   51.6140 S   0  0  0  0  0  0  0  0  0  0  0  0
   63.0970   30.0900   50.8890 O   0  0  0  0  0  0  0  0  0  0  0  0
   62.2190   28.8210   52.7800 O   0  0  0  0  0  0  0  0  0  0  0  0
   61.0030   31.1160   52.1850 N   0  0  0  0  0  0  0  0  0  0  0  0
   60.7200   31.6930   51.3660 H   0  0  0  0  0  0  0  0  0  0  0  0
   61.8930   31.9130   53.0490 C   0  0  0  0  0  0  0  0  0  0  0  0
   61.6616   31.7058   54.1042 H   0  0  0  0  0  0  0  0  0  0  0  0
   62.9399   31.6448   52.8437 H   0  0  0  0  0  0  0  0  0  0  0  0
   61.7415   32.9830   52.8437 H   0  0  0  0  0  0  0  0  0  0  0  0
   59.8020   30.7010   52.9300 C   0  0  0  0  0  0  0  0  0  0  0  0
   59.9988   30.7690   54.0101 H   0  0  0  0  0  0  0  0  0  0  0  0
   58.9618   31.3609   52.6681 H   0  0  0  0  0  0  0  0  0  0  0  0
   59.5485   29.6631   52.6681 H   0  0  0  0  0  0  0  0  0  0  0  0
   60.0190   29.4330   49.5940 C   0  0  0  0  0  0  0  0  0  0  0  0
   59.6424   30.4460   49.7990 H   0  0  0  0  0  0  0  0  0  0  0  0
   59.7070   28.8000   48.3840 C   0  0  0  0  0  0  0  0  0  0  0  0
   59.0756   29.3032   47.6369 H   0  0  0  0  0  0  0  0  0  0  0  0
   58.9320   30.0860   44.5880 C   0  0  0  0  0  0  0  0  0  0  0  0
   59.9139   29.7572   44.2169 H   0  0  0  0  0  0  0  0  0  0  0  0
   59.0663   30.5225   45.5887 H   0  0  0  0  0  0  0  0  0  0  0  0
   58.3310   31.1260   43.6260 C   0  0  0  0  0  0  0  0  0  0  0  0
   58.2280   30.6726   42.6291 H   0  0  0  0  0  0  0  0  0  0  0  0
   59.0044   31.9952   43.5944 H   0  0  0  0  0  0  0  0  0  0  0  0
   58.5760   32.6880   48.3120 C   0  0  0  0  0  0  0  0  0  0  0  0
   57.5522   32.5964   47.9202 H   0  0  0  0  0  0  0  0  0  0  0  0
  1  2  1  0
  2  3  1  0
  3  4  1  0
  4  5  2  0
  5  6  1  0
  5  7  1  0
  7  8  1  0
  7  9  2  0
  9 10  1  0
  9 11  1  0
 11 12  1  0
 11 13  2  0
 13 14  1  0
 14 15  2  0
 15 16  1  0
 16 17  1  0
 16 18  1  0
 16 19  1  0
 19 20  1  0
 19 21  1  0
 19 22  1  0
 22 23  1  0
 22 24  1  0
 22 25  1  0
 25 26  1  0
 26 27  1  0
 26 28  1  0
 26 29  1  0
 29 30  1  0
 29 31  1  0
 29 32  1  0
 32 33  1  0
 33 34  1  0
 33 35  1  0
 33 36  1  0
 36 37  1  0
 36 38  1  0
 36 39  1  0
 39 40  1  0
 40 41  2  0
 41 42  1  0
 41 43  1  0
 43 44  1  0
 43 45  2  0
 45 46  1  0
 46 47  2  0
 46 48  2  0
 46 49  1  0
 49 50  1  0
 49 51  1  0
 51 52  1  0
 51 53  1  0
 51 54  1  0
 49 55  1  0
 55 56  1  0
 55 57  1  0
 55 58  1  0
 45 59  1  0
 59 60  1  0
 59 61  2  0
 61 62  1  0
 32 63  1  0
 63 64  1  0
 63 65  1  0
 63 66  1  0
 66 67  1  0
 66 68  1  0
 14 69  1  0
 69 70  1  0
 69  2  2  0
 13  4  1  0
 66 25  1  0
 61 40  1  0
M  CHG  2   3  -1  49   1
M  END
>  <UniqueID>  (73) 
72

>  <SMILES>  (73) 
C[NH+](C)S(=O)(=O)c1ccc(OCCN2CCN(CCC/N=c3/cc[n-]c4cc(Br)ccc34)CC2)cc1

>  <Energy>  (73) 
127.08621894354106

>  <Genealogy>  (73) 
C[NH+](C)S(=O)(=O)c1ccc(OCCN2CCN(CCCN=c3cc[n-]c4cc(Br)ccc34)CC2)cc1 (protonated)
C[NH+](C)S(=O)(=O)c1ccc(OCCN2CCN(CCC/N=c3/cc[n-]c4cc(Br)ccc34)CC2)cc1 (cis-trans isomerization)
C[NH+](C)S(=O)(=O)c1ccc(OCCN2CCN(CCC/N=c3/cc[n-]c4cc(Br)ccc34)CC2)cc1 (3D coordinates assigned)
C[NH+](C)S(=O)(=O)c1ccc(OCCN2CCN(CCC/N=c3/cc[n-]c4cc(Br)ccc34)CC2)cc1 (nonaromatic ring conformer: 127.08621894354106 kcal/mol)

>  <smiles>  (73) 
CN(C)S(=O)(=O)c1ccc(OCCN2CCN(CCCN=c3cc[nH]c4cc(Br)ccc34)CC2)cc1

>  <score_type>  (73) 
oracle

>  <origin>  (73) 
adg

>  <m_score__min__energy>  (73) 
-9.5800000000000001

>  <m_primary>  (73) 
energy

$$$$
73:0
     RDKit          3D

 43 45  0  0  0  0  0  0  0  0999 V2000
   59.6420   34.8390   48.9430 C   0  0  0  0  0  0  0  0  0  0  0  0
   59.5490   33.3400   48.8750 C   0  0  0  0  0  0  0  0  0  0  0  0
   58.7920   32.7160   49.8230 N   0  0  0  0  0  0  0  0  0  0  0  0
   58.7100   31.3690   49.8380 C   0  0  0  0  0  0  0  0  0  0  0  0
   59.3800   30.5820   48.9510 C   0  0  0  0  0  0  0  0  0  0  0  0
   60.1940   31.1380   47.9520 C   0  0  0  0  0  0  0  0  0  0  0  0
   60.9990   30.2610   47.0220 C   0  0  0  0  0  0  0  0  0  0  0  0
   60.2470   32.5690   47.8820 C   0  0  0  0  0  0  0  0  0  0  0  0
   60.9670   33.2710   46.7340 C   0  0  0  0  0  0  0  0  0  0  0  0
   60.0500   34.2260   45.9480 C   0  0  0  0  0  0  0  0  0  0  0  0
   58.8420   33.5290   45.3960 C   0  0  0  0  0  0  0  0  0  0  0  0
   57.8160   34.2070   45.1150 O   0  0  0  0  0  0  0  0  0  0  0  0
   58.8940   32.1200   45.1190 N   0  0  0  0  0  0  0  0  0  0  0  0
   57.8930   31.4110   44.3730 C   0  0  0  0  0  0  0  0  0  0  0  0
   57.8390   31.5660   42.9780 C   0  0  0  0  0  0  0  0  0  0  0  0
   56.8780   30.8830   42.2270 C   0  0  0  0  0  0  0  0  0  0  0  0
   55.9740   30.0260   42.8600 C   0  0  0  0  0  0  0  0  0  0  0  0
   56.0360   29.8450   44.2450 C   0  0  0  0  0  0  0  0  0  0  0  0
   55.1490   28.9780   44.8710 O   0  0  0  0  0  0  0  0  0  0  0  0
   56.9940   30.5310   45.0010 C   0  0  0  0  0  0  0  0  0  0  0  0
   59.0040   29.2960   49.3210 C   0  0  0  0  0  0  0  0  0  0  0  0
   59.3570   28.2230   48.7680 O   0  0  0  0  0  0  0  0  0  0  0  0
   58.1570   29.3410   50.3760 N   0  0  0  0  0  0  0  0  0  0  0  0
   57.9920   30.6180   50.6910 N   0  0  0  0  0  0  0  0  0  0  0  0
   57.1070   31.0990   51.7440 C   0  0  0  0  0  0  0  0  0  0  0  0
   59.6618   35.1578   49.9956 H   0  0  0  0  0  0  0  0  0  0  0  0
   60.5626   35.1724   48.4416 H   0  0  0  0  0  0  0  0  0  0  0  0
   58.7697   35.2836   48.4416 H   0  0  0  0  0  0  0  0  0  0  0  0
   61.6261   29.5778   47.6135 H   0  0  0  0  0  0  0  0  0  0  0  0
   60.3169   29.6760   46.3876 H   0  0  0  0  0  0  0  0  0  0  0  0
   61.6402   30.8907   46.3876 H   0  0  0  0  0  0  0  0  0  0  0  0
   61.8057   33.8503   47.1474 H   0  0  0  0  0  0  0  0  0  0  0  0
   61.3117   32.4942   46.0356 H   0  0  0  0  0  0  0  0  0  0  0  0
   59.7178   35.0307   46.6203 H   0  0  0  0  0  0  0  0  0  0  0  0
   60.6262   34.6238   45.0996 H   0  0  0  0  0  0  0  0  0  0  0  0
   59.7980   31.6240   45.3030 H   0  0  0  0  0  0  0  0  0  0  0  0
   58.5573   32.2289   42.4734 H   0  0  0  0  0  0  0  0  0  0  0  0
   56.8334   31.0204   41.1365 H   0  0  0  0  0  0  0  0  0  0  0  0
   55.2139   29.4940   42.2690 H   0  0  0  0  0  0  0  0  0  0  0  0
   57.0436   30.3811   46.0896 H   0  0  0  0  0  0  0  0  0  0  0  0
   57.5428   30.8622   52.7258 H   0  0  0  0  0  0  0  0  0  0  0  0
   56.9840   32.1881   51.6505 H   0  0  0  0  0  0  0  0  0  0  0  0
   56.1262   30.6098   51.6505 H   0  0  0  0  0  0  0  0  0  0  0  0
  1  2  1  0
  2  3  2  0
  3  4  1  0
  4  5  2  0
  5  6  1  0
  6  7  1  0
  6  8  2  0
  8  9  1  0
  9 10  1  0
 10 11  1  0
 11 12  2  0
 11 13  1  0
 13 14  1  0
 14 15  2  0
 15 16  1  0
 16 17  2  0
 17 18  1  0
 18 19  1  0
 18 20  2  0
  5 21  1  0
 21 22  2  0
 21 23  1  0
 23 24  1  0
 24 25  1  0
  8  2  1  0
 20 14  1  0
 24  4  1  0
  1 26  1  0
  1 27  1  0
  1 28  1  0
  7 29  1  0
  7 30  1  0
  7 31  1  0
  9 32  1  0
  9 33  1  0
 10 34  1  0
 10 35  1  0
 13 36  1  0
 15 37  1  0
 16 38  1  0
 17 39  1  0
 20 40  1  0
 25 41  1  0
 25 42  1  0
 25 43  1  0
M  CHG  2  19  -1  23  -1
M  END
>  <UniqueID>  (74) 
73

>  <SMILES>  (74) 
Cc1nc2c(c(C)c1CCC(=O)Nc1cccc([O-])c1)c(=O)[n-]n2C

>  <Energy>  (74) 
89.44385259096278

>  <Genealogy>  (74) 
Cc1nc2c(c(C)c1CCC(=O)Nc1cccc([O-])c1)c(=O)[n-]n2C (protonated)
Cc1nc2c(c(C)c1CCC(=O)Nc1cccc([O-])c1)c(=O)[n-]n2C (3D coordinates assigned)
Cc1nc2c(c(C)c1CCC(=O)Nc1cccc([O-])c1)c(=O)[n-]n2C (optimized conformer: 89.44385259096278 kcal/mol)

>  <smiles>  (74) 
Cc1nc2c(c(C)c1CCC(=O)Nc1cccc(O)c1)c(=O)[nH]n2C

>  <score_type>  (74) 
oracle

>  <origin>  (74) 
adg

>  <m_score__min__energy>  (74) 
-12.119999999999999

>  <m_primary>  (74) 
energy

$$$$
74:0
     RDKit          3D

 26 27  0  0  0  0  0  0  0  0999 V2000
   54.7020   26.7150   47.1000 H   0  0  0  0  0  0  0  0  0  0  0  0
   55.1270   26.6730   46.1820 O   0  0  0  0  0  0  0  0  0  0  0  0
   56.4930   26.8760   45.9780 C   0  0  0  0  0  0  0  0  0  0  0  0
   57.4080   25.9350   46.4750 C   0  0  0  0  0  0  0  0  0  0  0  0
   56.8430   24.5160   47.3450 Cl  0  0  0  0  0  0  0  0  0  0  0  0
   58.7800   26.1190   46.2820 C   0  0  0  0  0  0  0  0  0  0  0  0
   59.4938   25.3827   46.6800 H   0  0  0  0  0  0  0  0  0  0  0  0
   59.2460   27.2340   45.5860 C   0  0  0  0  0  0  0  0  0  0  0  0
   60.3262   27.3720   45.4308 H   0  0  0  0  0  0  0  0  0  0  0  0
   58.3450   28.1750   45.0860 C   0  0  0  0  0  0  0  0  0  0  0  0
   58.7179   29.0462   44.5275 H   0  0  0  0  0  0  0  0  0  0  0  0
   56.9630   28.0160   45.2920 C   0  0  0  0  0  0  0  0  0  0  0  0
   56.0220   28.9720   44.7800 N   0  0  0  0  0  0  0  0  0  0  0  0
   56.3450   30.2280   44.1670 C   0  0  0  0  0  0  0  0  0  0  0  0
   56.7950   30.2340   42.9920 O   0  0  0  0  0  0  0  0  0  0  0  0
   56.1990   31.4740   44.8650 N   0  0  0  0  0  0  0  0  0  0  0  0
   57.1300   32.3490   45.1280 C   0  0  0  0  0  0  0  0  0  0  0  0
   57.3510   32.6860   46.4280 N   0  0  0  0  0  0  0  0  0  0  0  0
   58.3000   33.5900   46.7940 C   0  0  0  0  0  0  0  0  0  0  0  0
   58.4417   33.8389   47.8561 H   0  0  0  0  0  0  0  0  0  0  0  0
   59.0930   34.2010   45.8230 C   0  0  0  0  0  0  0  0  0  0  0  0
   59.8551   34.9398   46.1115 H   0  0  0  0  0  0  0  0  0  0  0  0
   58.9090   33.8650   44.4830 C   0  0  0  0  0  0  0  0  0  0  0  0
   59.5319   34.3348   43.7076 H   0  0  0  0  0  0  0  0  0  0  0  0
   57.9340   32.9320   44.1250 C   0  0  0  0  0  0  0  0  0  0  0  0
   57.7936   32.6536   43.0701 H   0  0  0  0  0  0  0  0  0  0  0  0
  1  2  1  0
  2  3  1  0
  3  4  2  0
  4  5  1  0
  4  6  1  0
  6  7  1  0
  6  8  2  0
  8  9  1  0
  8 10  1  0
 10 11  1  0
 10 12  2  0
 12 13  1  0
 13 14  1  0
 14 15  2  0
 14 16  1  0
 16 17  2  0
 17 18  1  0
 18 19  1  0
 19 20  1  0
 19 21  2  0
 21 22  1  0
 21 23  1  0
 23 24  1  0
 23 25  2  0
 25 26  1  0
 12  3  1  0
 25 17  1  0
M  CHG  2  13  -1  18  -1
M  END
>  <UniqueID>  (75) 
74

>  <SMILES>  (75) 
O=C(/N=c1\cccc[n-]1)[N-]c1cccc(Cl)c1O

>  <Energy>  (75) 
39.51100390580166

>  <Genealogy>  (75) 
O=C(N=c1cccc[n-]1)[N-]c1cccc(Cl)c1O (protonated)
O=C(/N=c1\cccc[n-]1)[N-]c1cccc(Cl)c1O (cis-trans isomerization)
O=C(/N=c1\cccc[n-]1)[N-]c1cccc(Cl)c1O (3D coordinates assigned)
O=C(/N=c1\cccc[n-]1)[N-]c1cccc(Cl)c1O (optimized conformer: 39.51100390580166 kcal/mol)

>  <smiles>  (75) 
O=C(N=c1cccc[nH]1)Nc1cccc(Cl)c1O

>  <score_type>  (75) 
oracle

>  <origin>  (75) 
adg

>  <m_score__min__energy>  (75) 
-10.199999999999999

>  <m_primary>  (75) 
energy

$$$$
75:0
     RDKit          3D

 44 46  0  0  1  0  0  0  0  0999 V2000
   56.8610   23.5720   48.2540 C   0  0  0  0  0  0  0  0  0  0  0  0
   56.5210   23.5380   46.7860 C   0  0  0  0  0  0  0  0  0  0  0  0
   56.3250   24.9680   46.3760 C   0  0  0  0  0  0  0  0  0  0  0  0
   55.6610   25.9210   46.3970 N   0  0  0  0  0  0  0  0  0  0  0  0
   55.8520   27.0900   45.8660 N   0  0  0  0  0  0  0  0  0  0  0  0
   56.9630   27.2380   45.1970 C   0  0  0  0  0  0  0  0  0  0  0  0
   57.5030   28.2460   44.5320 N   0  0  0  0  0  0  0  0  0  0  0  0
   56.7530   29.4500   44.5300 C   0  0  0  0  0  0  0  0  0  0  0  0
   55.5390   29.3690   44.8730 O   0  0  0  0  0  0  0  0  0  0  0  0
   57.2880   30.7410   44.1640 C   0  0  0  0  0  0  0  0  0  0  0  0
   57.2930   31.1340   42.8410 C   0  0  0  0  0  0  0  0  0  0  0  0
   57.7870   32.3480   42.4380 C   0  0  0  0  0  0  0  0  0  0  0  0
   58.3030   33.2200   43.3740 C   0  0  0  0  0  0  0  0  0  0  0  0
   58.2940   32.8220   44.6870 C   0  0  0  0  0  0  0  0  0  0  0  0
   57.8010   31.6050   45.1090 C   0  0  0  0  0  0  0  0  0  0  0  0
   57.8240   31.2620   46.4720 O   0  0  0  0  0  0  0  0  0  0  0  0
   59.0760   30.9850   47.0910 C   0  0  0  0  0  0  0  0  0  0  0  0
   59.5750   29.6320   46.8420 C   0  0  0  0  0  0  0  0  0  0  0  0
   60.1220   29.3000   45.6020 C   0  0  0  0  0  0  0  0  0  0  0  0
   60.6020   28.0230   45.3400 C   0  0  0  0  0  0  0  0  0  0  0  0
   60.5150   27.0940   46.3590 C   0  0  0  0  0  0  0  0  0  0  0  0
   59.9790   27.4010   47.5900 C   0  0  0  0  0  0  0  0  0  0  0  0
   59.5070   28.6740   47.8320 C   0  0  0  0  0  0  0  0  0  0  0  0
   58.9240   29.0280   49.1540 C   0  0  0  0  0  0  0  0  0  0  0  0
   57.8090   25.5990   45.3240 S   0  0  0  0  0  0  0  0  0  0  0  0
   55.9386   23.4798   48.8462 H   0  0  0  0  0  0  0  0  0  0  0  0
   57.5356   22.7368   48.4936 H   0  0  0  0  0  0  0  0  0  0  0  0
   57.3569   24.5242   48.4936 H   0  0  0  0  0  0  0  0  0  0  0  0
   57.3436   23.0850   46.2131 H   0  0  0  0  0  0  0  0  0  0  0  0
   55.6208   22.9358   46.5938 H   0  0  0  0  0  0  0  0  0  0  0  0
   55.1360   27.8770   45.9770 H   0  0  0  0  0  0  0  0  0  0  0  0
   56.8861   30.4488   42.0827 H   0  0  0  0  0  0  0  0  0  0  0  0
   57.7719   32.6251   41.3736 H   0  0  0  0  0  0  0  0  0  0  0  0
   58.7072   34.1994   43.0783 H   0  0  0  0  0  0  0  0  0  0  0  0
   58.7014   33.5096   45.4428 H   0  0  0  0  0  0  0  0  0  0  0  0
   59.8171   31.7029   46.7097 H   0  0  0  0  0  0  0  0  0  0  0  0
   58.9215   31.0732   48.1765 H   0  0  0  0  0  0  0  0  0  0  0  0
   60.1743   30.0663   44.8146 H   0  0  0  0  0  0  0  0  0  0  0  0
   61.0333   27.7624   44.3622 H   0  0  0  0  0  0  0  0  0  0  0  0
   60.8866   26.0741   46.1810 H   0  0  0  0  0  0  0  0  0  0  0  0
   59.9276   26.6340   48.3768 H   0  0  0  0  0  0  0  0  0  0  0  0
   59.5681   28.6369   49.9554 H   0  0  0  0  0  0  0  0  0  0  0  0
   58.8526   30.1221   49.2421 H   0  0  0  0  0  0  0  0  0  0  0  0
   57.9202   28.5867   49.2421 H   0  0  0  0  0  0  0  0  0  0  0  0
  1  2  1  0
  2  3  1  0
  3  4  2  0
  4  5  1  0
  5  6  1  0
  6  7  2  0
  7  8  1  0
  8  9  2  0
  8 10  1  0
 10 11  2  0
 11 12  1  0
 12 13  2  0
 13 14  1  0
 14 15  2  0
 15 16  1  0
 16 17  1  0
 17 18  1  0
 18 19  2  0
 19 20  1  0
 20 21  2  0
 21 22  1  0
 22 23  2  0
 23 24  1  0
  6 25  1  0
 25  3  1  0
 15 10  1  0
 23 18  1  0
  1 26  1  0
  1 27  1  0
  1 28  1  0
  2 29  1  0
  2 30  1  0
  5 31  1  0
 11 32  1  0
 12 33  1  0
 13 34  1  0
 14 35  1  0
 17 36  1  0
 17 37  1  0
 19 38  1  0
 20 39  1  0
 21 40  1  0
 22 41  1  0
 24 42  1  0
 24 43  1  0
 24 44  1  0
M  END
>  <smiles>  (76) 
CCc1n[nH]c(=NC(=O)c2ccccc2OCc2ccccc2C)s1

>  <score_type>  (76) 
oracle

>  <origin>  (76) 
adg

>  <m_score__min__energy>  (76) 
-9.6999999999999993

>  <m_primary>  (76) 
energy

$$$$
76:0
     RDKit          3D

 34 35  0  0  0  0  0  0  0  0999 V2000
   55.9490   24.7900   46.9640 O   0  0  0  0  0  0  0  0  0  0  0  0
   56.0560   25.6590   46.0590 C   0  0  0  0  0  0  0  0  0  0  0  0
   55.1540   26.7140   46.0130 O   0  0  0  0  0  0  0  0  0  0  0  0
   57.1760   25.5800   45.0600 C   0  0  0  0  0  0  0  0  0  0  0  0
   57.3910   26.8630   44.3590 N   0  0  0  0  0  0  0  0  0  0  0  0
   58.7710   27.3710   44.4760 C   0  0  0  0  0  0  0  0  0  0  0  0
   59.0710   27.9270   45.8500 C   0  0  0  0  0  0  0  0  0  0  0  0
   60.1490   27.4130   46.5910 C   0  0  0  0  0  0  0  0  0  0  0  0
   60.4270   27.9020   47.8690 C   0  0  0  0  0  0  0  0  0  0  0  0
   59.6390   28.9140   48.4170 C   0  0  0  0  0  0  0  0  0  0  0  0
   58.5680   29.4380   47.6900 C   0  0  0  0  0  0  0  0  0  0  0  0
   58.2670   28.9430   46.4080 C   0  0  0  0  0  0  0  0  0  0  0  0
   57.2090   29.4780   45.6580 O   0  0  0  0  0  0  0  0  0  0  0  0
   57.3400   30.4210   44.6290 C   0  0  0  0  0  0  0  0  0  0  0  0
   56.8670   30.1750   43.3260 C   0  0  0  0  0  0  0  0  0  0  0  0
   57.0360   31.1350   42.3240 C   0  0  0  0  0  0  0  0  0  0  0  0
   57.6850   32.3390   42.6090 C   0  0  0  0  0  0  0  0  0  0  0  0
   58.1720   32.5830   43.8970 C   0  0  0  0  0  0  0  0  0  0  0  0
   58.8100   33.7470   44.1720 F   0  0  0  0  0  0  0  0  0  0  0  0
   58.0050   31.6230   44.9010 C   0  0  0  0  0  0  0  0  0  0  0  0
   58.1016   25.3048   45.5868 H   0  0  0  0  0  0  0  0  0  0  0  0
   56.9040   24.8256   44.3071 H   0  0  0  0  0  0  0  0  0  0  0  0
   57.2080   26.7010   43.3410 H   0  0  0  0  0  0  0  0  0  0  0  0
   56.7030   27.5850   44.6760 H   0  0  0  0  0  0  0  0  0  0  0  0
   59.4688   26.5461   44.2696 H   0  0  0  0  0  0  0  0  0  0  0  0
   58.8869   28.1910   43.7520 H   0  0  0  0  0  0  0  0  0  0  0  0
   60.7782   26.6198   46.1611 H   0  0  0  0  0  0  0  0  0  0  0  0
   61.2685   27.4886   48.4443 H   0  0  0  0  0  0  0  0  0  0  0  0
   59.8614   29.2998   49.4229 H   0  0  0  0  0  0  0  0  0  0  0  0
   57.9558   30.2430   48.1226 H   0  0  0  0  0  0  0  0  0  0  0  0
   56.3630   29.2247   43.0957 H   0  0  0  0  0  0  0  0  0  0  0  0
   56.6574   30.9422   41.3094 H   0  0  0  0  0  0  0  0  0  0  0  0
   57.8129   33.0950   41.8203 H   0  0  0  0  0  0  0  0  0  0  0  0
   58.3985   31.8136   45.9104 H   0  0  0  0  0  0  0  0  0  0  0  0
  1  2  2  0
  2  3  1  0
  2  4  1  0
  4  5  1  0
  5  6  1  0
  6  7  1  0
  7  8  2  0
  8  9  1  0
  9 10  2  0
 10 11  1  0
 11 12  2  0
 12 13  1  0
 13 14  1  0
 14 15  2  0
 15 16  1  0
 16 17  2  0
 17 18  1  0
 18 19  1  0
 18 20  2  0
 12  7  1  0
 20 14  1  0
  4 21  1  0
  4 22  1  0
  5 23  1  0
  5 24  1  0
  6 25  1  0
  6 26  1  0
  8 27  1  0
  9 28  1  0
 10 29  1  0
 11 30  1  0
 15 31  1  0
 16 32  1  0
 17 33  1  0
 20 34  1  0
M  CHG  2   3  -1   5   1
M  END
>  <UniqueID>  (77) 
75

>  <SMILES>  (77) 
O=C([O-])C[NH2+]Cc1ccccc1Oc1cccc(F)c1

>  <Energy>  (77) 
40.99908412013627

>  <Genealogy>  (77) 
O=C([O-])C[NH2+]Cc1ccccc1Oc1cccc(F)c1 (protonated)
O=C([O-])C[NH2+]Cc1ccccc1Oc1cccc(F)c1 (3D coordinates assigned)
O=C([O-])C[NH2+]Cc1ccccc1Oc1cccc(F)c1 (optimized conformer: 40.99908412013627 kcal/mol)

>  <smiles>  (77) 
O=C(O)CNCc1ccccc1Oc1cccc(F)c1

>  <score_type>  (77) 
oracle

>  <origin>  (77) 
adg

>  <m_score__min__energy>  (77) 
-7.9900000000000002

>  <m_primary>  (77) 
energy

$$$$
77:0
     RDKit          3D

 52 55  0  0  0  0  0  0  0  0999 V2000
   55.2030   28.2900   44.8400 H   0  0  0  0  0  0  0  0  0  0  0  0
   55.1430   29.3080   44.6130 N   0  0  0  0  0  0  0  0  0  0  0  0
   56.2090   30.0190   44.4400 C   0  0  0  0  0  0  0  0  0  0  0  0
   57.1070   30.2400   45.4190 N   0  0  0  0  0  0  0  0  0  0  0  0
   58.1470   31.0020   44.9820 C   0  0  0  0  0  0  0  0  0  0  0  0
   59.2660   31.4060   45.8710 C   0  0  0  0  0  0  0  0  0  0  0  0
   59.2840   32.7290   46.3490 C   0  0  0  0  0  0  0  0  0  0  0  0
   58.5052   33.4334   46.0216 H   0  0  0  0  0  0  0  0  0  0  0  0
   60.2720   33.1610   47.2300 C   0  0  0  0  0  0  0  0  0  0  0  0
   60.2597   34.1967   47.6005 H   0  0  0  0  0  0  0  0  0  0  0  0
   61.2790   32.2860   47.6460 C   0  0  0  0  0  0  0  0  0  0  0  0
   62.2770   32.7360   48.6400 C   0  0  0  0  0  0  0  0  0  0  0  0
   63.6380   32.5940   48.3210 C   0  0  0  0  0  0  0  0  0  0  0  0
   63.9272   32.1411   47.3612 H   0  0  0  0  0  0  0  0  0  0  0  0
   64.6270   33.0210   49.2080 C   0  0  0  0  0  0  0  0  0  0  0  0
   65.6890   32.9055   48.9455 H   0  0  0  0  0  0  0  0  0  0  0  0
   64.2680   33.5940   50.4270 C   0  0  0  0  0  0  0  0  0  0  0  0
   65.0478   33.9375   51.1227 H   0  0  0  0  0  0  0  0  0  0  0  0
   62.9210   33.7330   50.7670 C   0  0  0  0  0  0  0  0  0  0  0  0
   62.6464   34.1863   51.7309 H   0  0  0  0  0  0  0  0  0  0  0  0
   61.9120   33.2990   49.8890 C   0  0  0  0  0  0  0  0  0  0  0  0
   60.2250   33.4620   50.4020 S   0  0  0  0  0  0  0  0  0  0  0  0
   59.4820   32.1970   50.0790 O   0  0  0  0  0  0  0  0  0  0  0  0
   59.5810   34.6070   49.6700 O   0  0  0  0  0  0  0  0  0  0  0  0
   60.1250   33.7820   52.0990 N   0  0  0  0  0  0  0  0  0  0  0  0
   59.1590   33.5220   52.4010 H   0  0  0  0  0  0  0  0  0  0  0  0
   61.2880   30.9690   47.1690 C   0  0  0  0  0  0  0  0  0  0  0  0
   62.0804   30.2804   47.4976 H   0  0  0  0  0  0  0  0  0  0  0  0
   60.2990   30.5110   46.2750 C   0  0  0  0  0  0  0  0  0  0  0  0
   60.3780   29.0680   45.8020 C   0  0  0  0  0  0  0  0  0  0  0  0
   59.6626   28.9335   44.9773 H   0  0  0  0  0  0  0  0  0  0  0  0
   61.4176   28.8890   45.4901 H   0  0  0  0  0  0  0  0  0  0  0  0
   60.0540   28.0360   46.9000 C   0  0  0  0  0  0  0  0  0  0  0  0
   60.2725   27.0325   46.5060 H   0  0  0  0  0  0  0  0  0  0  0  0
   60.6737   28.2951   47.7711 H   0  0  0  0  0  0  0  0  0  0  0  0
   58.6190   28.0600   47.3650 C   0  0  0  0  0  0  0  0  0  0  0  0
   58.1620   29.0770   47.9460 O   0  0  0  0  0  0  0  0  0  0  0  0
   57.7690   26.9160   47.2260 N   0  0  0  0  0  0  0  0  0  0  0  0
   56.9250   26.4750   45.7770 S   0  0  0  0  0  0  0  0  0  0  0  0
   55.4450   26.5110   46.0360 O   0  0  0  0  0  0  0  0  0  0  0  0
   57.2530   27.4610   44.6900 O   0  0  0  0  0  0  0  0  0  0  0  0
   57.3710   24.8540   45.2800 C   0  0  0  0  0  0  0  0  0  0  0  0
   56.4890   23.8850   44.2280 S   0  0  0  0  0  0  0  0  0  0  0  0
   57.5580   22.5880   44.2520 C   0  0  0  0  0  0  0  0  0  0  0  0
   57.4349   21.6432   43.7022 H   0  0  0  0  0  0  0  0  0  0  0  0
   58.6240   22.9110   45.0840 C   0  0  0  0  0  0  0  0  0  0  0  0
   59.4685   22.2316   45.2717 H   0  0  0  0  0  0  0  0  0  0  0  0
   58.5210   24.1820   45.6600 C   0  0  0  0  0  0  0  0  0  0  0  0
   59.2739   24.6031   46.3426 H   0  0  0  0  0  0  0  0  0  0  0  0
   58.0570   31.3950   43.6440 C   0  0  0  0  0  0  0  0  0  0  0  0
   58.7889   32.0144   43.1050 H   0  0  0  0  0  0  0  0  0  0  0  0
   56.6390   30.7600   42.9970 S   0  0  0  0  0  0  0  0  0  0  0  0
  1  2  1  0
  2  3  2  0
  3  4  1  0
  4  5  1  0
  5  6  1  0
  6  7  2  0
  7  8  1  0
  7  9  1  0
  9 10  1  0
  9 11  2  0
 11 12  1  0
 12 13  2  0
 13 14  1  0
 13 15  1  0
 15 16  1  0
 15 17  2  0
 17 18  1  0
 17 19  1  0
 19 20  1  0
 19 21  2  0
 21 22  1  0
 22 23  2  0
 22 24  2  0
 22 25  1  0
 25 26  1  0
 11 27  1  0
 27 28  1  0
 27 29  2  0
 29 30  1  0
 30 31  1  0
 30 32  1  0
 30 33  1  0
 33 34  1  0
 33 35  1  0
 33 36  1  0
 36 37  2  0
 36 38  1  0
 38 39  1  0
 39 40  2  0
 39 41  2  0
 39 42  1  0
 42 43  1  0
 43 44  1  0
 44 45  1  0
 44 46  2  0
 46 47  1  0
 46 48  1  0
 48 49  1  0
  5 50  2  0
 50 51  1  0
 50 52  1  0
 52  3  1  0
 29  6  1  0
 48 42  2  0
 21 12  1  0
M  CHG  3   4  -1  25  -1  38  -1
M  END
>  <UniqueID>  (78) 
76

>  <SMILES>  (78) 
[H]/N=c1/[n-]c(-c2ccc(-c3ccccc3S([NH-])(=O)=O)cc2CCC(=O)[N-]S(=O)(=O)c2cccs2)cs1

>  <Energy>  (78) 
125.09595531325031

>  <Genealogy>  (78) 
N=c1[n-]c(-c2ccc(-c3ccccc3S([NH-])(=O)=O)cc2CCC(=O)[N-]S(=O)(=O)c2cccs2)cs1 (protonated)
[H]/N=c1/[n-]c(-c2ccc(-c3ccccc3S([NH-])(=O)=O)cc2CCC(=O)[N-]S(=O)(=O)c2cccs2)cs1 (cis-trans isomerization)
[H]/N=c1/[n-]c(-c2ccc(-c3ccccc3S([NH-])(=O)=O)cc2CCC(=O)[N-]S(=O)(=O)c2cccs2)cs1 (3D coordinates assigned)
[H]/N=c1/[n-]c(-c2ccc(-c3ccccc3S([NH-])(=O)=O)cc2CCC(=O)[N-]S(=O)(=O)c2cccs2)cs1 (optimized conformer: 125.09595531325031 kcal/mol)

>  <smiles>  (78) 
N=c1[nH]c(-c2ccc(-c3ccccc3S(N)(=O)=O)cc2CCC(=O)NS(=O)(=O)c2cccs2)cs1

>  <score_type>  (78) 
oracle

>  <origin>  (78) 
adg

>  <m_score__min__energy>  (78) 
-15.029999999999999

>  <m_primary>  (78) 
energy

$$$$
78:0
     RDKit          3D

 38 40  0  0  0  0  0  0  0  0999 V2000
   57.5220   31.9640   41.9010 C   0  0  0  0  0  0  0  0  0  0  0  0
   57.7530   32.3010   43.3390 C   0  0  0  0  0  0  0  0  0  0  0  0
   58.1300   33.4810   43.7650 O   0  0  0  0  0  0  0  0  0  0  0  0
   58.2270   33.4010   45.0720 C   0  0  0  0  0  0  0  0  0  0  0  0
   58.6030   34.5540   45.9440 C   0  0  0  0  0  0  0  0  0  0  0  0
   59.7630   34.1750   46.8210 C   0  0  0  0  0  0  0  0  0  0  0  0
   59.6480   34.2470   48.2190 C   0  0  0  0  0  0  0  0  0  0  0  0
   60.7390   33.9290   49.0330 C   0  0  0  0  0  0  0  0  0  0  0  0
   61.9550   33.5470   48.4580 C   0  0  0  0  0  0  0  0  0  0  0  0
   62.0820   33.4870   47.0670 C   0  0  0  0  0  0  0  0  0  0  0  0
   60.9920   33.8040   46.2500 C   0  0  0  0  0  0  0  0  0  0  0  0
   57.9130   32.1780   45.5510 N   0  0  0  0  0  0  0  0  0  0  0  0
   57.6130   31.4750   44.4410 C   0  0  0  0  0  0  0  0  0  0  0  0
   57.1960   30.0600   44.4610 C   0  0  0  0  0  0  0  0  0  0  0  0
   56.0360   29.7530   44.8480 O   0  0  0  0  0  0  0  0  0  0  0  0
   58.0970   29.0380   44.0030 N   0  0  0  0  0  0  0  0  0  0  0  0
   57.8930   27.6310   44.2170 C   0  0  0  0  0  0  0  0  0  0  0  0
   57.8310   27.0860   45.5130 C   0  0  0  0  0  0  0  0  0  0  0  0
   57.6550   25.7100   45.6920 C   0  0  0  0  0  0  0  0  0  0  0  0
   57.5540   24.8660   44.5830 C   0  0  0  0  0  0  0  0  0  0  0  0
   57.6350   25.3950   43.2930 C   0  0  0  0  0  0  0  0  0  0  0  0
   57.8120   26.7710   43.1100 C   0  0  0  0  0  0  0  0  0  0  0  0
   56.9013   31.0585   41.8317 H   0  0  0  0  0  0  0  0  0  0  0  0
   57.0065   32.8006   41.4066 H   0  0  0  0  0  0  0  0  0  0  0  0
   58.4882   31.7850   41.4066 H   0  0  0  0  0  0  0  0  0  0  0  0
   58.8863   35.4103   45.3144 H   0  0  0  0  0  0  0  0  0  0  0  0
   57.7445   34.8251   46.5761 H   0  0  0  0  0  0  0  0  0  0  0  0
   58.6956   34.5549   48.6751 H   0  0  0  0  0  0  0  0  0  0  0  0
   60.6408   33.9793   50.1275 H   0  0  0  0  0  0  0  0  0  0  0  0
   62.8116   33.2937   49.1000 H   0  0  0  0  0  0  0  0  0  0  0  0
   63.0399   33.1903   46.6148 H   0  0  0  0  0  0  0  0  0  0  0  0
   61.0973   33.7627   45.1558 H   0  0  0  0  0  0  0  0  0  0  0  0
   58.9050   29.3270   43.4060 H   0  0  0  0  0  0  0  0  0  0  0  0
   57.9214   27.7450   46.3891 H   0  0  0  0  0  0  0  0  0  0  0  0
   57.5960   25.2916   46.7076 H   0  0  0  0  0  0  0  0  0  0  0  0
   57.4107   23.7848   44.7260 H   0  0  0  0  0  0  0  0  0  0  0  0
   57.5596   24.7296   42.4203 H   0  0  0  0  0  0  0  0  0  0  0  0
   57.8882   27.1816   42.0923 H   0  0  0  0  0  0  0  0  0  0  0  0
  1  2  1  0
  2  3  1  0
  3  4  1  0
  4  5  1  0
  5  6  1  0
  6  7  2  0
  7  8  1  0
  8  9  2  0
  9 10  1  0
 10 11  2  0
  4 12  2  0
 12 13  1  0
 13 14  1  0
 14 15  2  0
 14 16  1  0
 16 17  1  0
 17 18  2  0
 18 19  1  0
 19 20  2  0
 20 21  1  0
 21 22  2  0
 13  2  2  0
 22 17  1  0
 11  6  1  0
  1 23  1  0
  1 24  1  0
  1 25  1  0
  5 26  1  0
  5 27  1  0
  7 28  1  0
  8 29  1  0
  9 30  1  0
 10 31  1  0
 11 32  1  0
 16 33  1  0
 18 34  1  0
 19 35  1  0
 20 36  1  0
 21 37  1  0
 22 38  1  0
M  END
>  <UniqueID>  (79) 
77

>  <SMILES>  (79) 
Cc1oc(Cc2ccccc2)nc1C(=O)Nc1ccccc1

>  <Energy>  (79) 
70.35261449724884

>  <Genealogy>  (79) 
Cc1oc(Cc2ccccc2)nc1C(=O)Nc1ccccc1 (3D coordinates assigned)
Cc1oc(Cc2ccccc2)nc1C(=O)Nc1ccccc1 (optimized conformer: 70.35261449724884 kcal/mol)

>  <smiles>  (79) 
Cc1oc(Cc2ccccc2)nc1C(=O)Nc1ccccc1

>  <score_type>  (79) 
oracle

>  <origin>  (79) 
adg

>  <m_score__min__energy>  (79) 
-8.3100000000000005

>  <m_primary>  (79) 
energy

$$$$
79:0
     RDKit          3D

 28 29  0  0  0  0  0  0  0  0999 V2000
   56.1990   29.4020   42.8720 O   0  0  0  0  0  0  0  0  0  0  0  0
   56.2660   30.0460   43.9710 C   0  0  0  0  0  0  0  0  0  0  0  0
   55.4870   29.6020   45.0170 O   0  0  0  0  0  0  0  0  0  0  0  0
   57.1570   31.2230   44.0980 C   0  0  0  0  0  0  0  0  0  0  0  0
   57.4320   31.9220   42.9280 C   0  0  0  0  0  0  0  0  0  0  0  0
   58.2420   32.9910   43.0280 N   0  0  0  0  0  0  0  0  0  0  0  0
   58.7570   33.3610   44.2120 C   0  0  0  0  0  0  0  0  0  0  0  0
   58.5100   32.6960   45.3960 C   0  0  0  0  0  0  0  0  0  0  0  0
   59.1270   33.2030   46.6220 C   0  0  0  0  0  0  0  0  0  0  0  0
   60.2710   34.1680   46.3640 C   0  0  0  0  0  0  0  0  0  0  0  0
   61.5260   33.4830   46.7440 C   0  0  0  0  0  0  0  0  0  0  0  0
   62.8400   33.8230   46.5350 C   0  0  0  0  0  0  0  0  0  0  0  0
   63.6040   32.8520   47.0830 N   0  0  0  0  0  0  0  0  0  0  0  0
   62.7890   31.9050   47.6320 C   0  0  0  0  0  0  0  0  0  0  0  0
   61.5190   32.2980   47.4210 N   0  0  0  0  0  0  0  0  0  0  0  0
   57.6830   31.5940   45.3220 C   0  0  0  0  0  0  0  0  0  0  0  0
   57.4230   30.9470   46.3800 O   0  0  0  0  0  0  0  0  0  0  0  0
   55.6320   29.7530   45.9910 H   0  0  0  0  0  0  0  0  0  0  0  0
   57.0054   31.6139   41.9620 H   0  0  0  0  0  0  0  0  0  0  0  0
   58.4680   33.5370   42.1680 H   0  0  0  0  0  0  0  0  0  0  0  0
   59.4126   34.2438   44.2396 H   0  0  0  0  0  0  0  0  0  0  0  0
   58.3573   33.7234   47.2109 H   0  0  0  0  0  0  0  0  0  0  0  0
   59.5448   32.3382   47.1582 H   0  0  0  0  0  0  0  0  0  0  0  0
   60.2996   34.4401   45.2986 H   0  0  0  0  0  0  0  0  0  0  0  0
   60.1400   35.0893   46.9505 H   0  0  0  0  0  0  0  0  0  0  0  0
   63.2044   34.7219   46.0161 H   0  0  0  0  0  0  0  0  0  0  0  0
   64.6460   32.7630   47.1230 H   0  0  0  0  0  0  0  0  0  0  0  0
   63.1104   30.9899   48.1509 H   0  0  0  0  0  0  0  0  0  0  0  0
  1  2  2  0
  2  3  1  0
  2  4  1  0
  4  5  2  0
  5  6  1  0
  6  7  1  0
  7  8  2  0
  8  9  1  0
  9 10  1  0
 10 11  1  0
 11 12  2  0
 12 13  1  0
 13 14  1  0
 14 15  2  0
  8 16  1  0
 16 17  2  0
 16  4  1  0
 15 11  1  0
  3 18  1  0
  5 19  1  0
  6 20  1  0
  7 21  1  0
  9 22  1  0
  9 23  1  0
 10 24  1  0
 10 25  1  0
 12 26  1  0
 13 27  1  0
 14 28  1  0
M  END
>  <smiles>  (80) 
O=C(O)c1c[nH]cc(CCc2c[nH]cn2)c1=O

>  <score_type>  (80) 
oracle

>  <origin>  (80) 
adg

>  <m_score__min__energy>  (80) 
-7.25

>  <m_primary>  (80) 
energy

$$$$
80:0
     RDKit          3D

 41 44  0  0  0  0  0  0  0  0999 V2000
   54.6930   28.5670   44.4950 H   0  0  0  0  0  0  0  0  0  0  0  0
   55.5920   28.8870   44.8320 O   0  0  0  0  0  0  0  0  0  0  0  0
   56.4190   28.0750   45.6060 C   0  0  0  0  0  0  0  0  0  0  0  0
   56.0330   26.7730   45.9960 C   0  0  0  0  0  0  0  0  0  0  0  0
   54.7990   26.2620   45.6100 O   0  0  0  0  0  0  0  0  0  0  0  0
   56.8980   25.9780   46.7800 C   0  0  0  0  0  0  0  0  0  0  0  0
   56.5886   24.9652   47.0775 H   0  0  0  0  0  0  0  0  0  0  0  0
   58.1510   26.4710   47.1830 C   0  0  0  0  0  0  0  0  0  0  0  0
   58.8310   25.8594   47.7941 H   0  0  0  0  0  0  0  0  0  0  0  0
   58.5050   27.7570   46.7850 C   0  0  0  0  0  0  0  0  0  0  0  0
   57.6670   28.5400   46.0180 C   0  0  0  0  0  0  0  0  0  0  0  0
   58.2300   29.7850   45.7420 O   0  0  0  0  0  0  0  0  0  0  0  0
   59.4850   29.8130   46.3560 C   0  0  0  0  0  0  0  0  0  0  0  0
   60.3480   30.8320   46.3040 C   0  0  0  0  0  0  0  0  0  0  0  0
   61.4208   30.6060   46.2139 H   0  0  0  0  0  0  0  0  0  0  0  0
   59.9280   32.2530   46.3620 C   0  0  0  0  0  0  0  0  0  0  0  0
   58.7850   32.6790   45.6580 C   0  0  0  0  0  0  0  0  0  0  0  0
   58.2430   31.9671   45.0181 H   0  0  0  0  0  0  0  0  0  0  0  0
   58.3330   33.9950   45.7640 C   0  0  0  0  0  0  0  0  0  0  0  0
   57.4456   34.3177   45.1997 H   0  0  0  0  0  0  0  0  0  0  0  0
   59.0040   34.9020   46.5840 C   0  0  0  0  0  0  0  0  0  0  0  0
   58.6451   35.9386   46.6655 H   0  0  0  0  0  0  0  0  0  0  0  0
   60.1300   34.4960   47.3010 C   0  0  0  0  0  0  0  0  0  0  0  0
   60.6487   35.2141   47.9531 H   0  0  0  0  0  0  0  0  0  0  0  0
   60.6080   33.1780   47.1980 C   0  0  0  0  0  0  0  0  0  0  0  0
   61.8310   32.8040   47.9500 C   0  0  0  0  0  0  0  0  0  0  0  0
   63.0600   33.4210   47.6640 C   0  0  0  0  0  0  0  0  0  0  0  0
   63.1208   34.1764   46.8667 H   0  0  0  0  0  0  0  0  0  0  0  0
   64.2050   33.0800   48.3870 C   0  0  0  0  0  0  0  0  0  0  0  0
   65.1646   33.5655   48.1558 H   0  0  0  0  0  0  0  0  0  0  0  0
   64.1350   32.1240   49.4030 C   0  0  0  0  0  0  0  0  0  0  0  0
   65.0381   31.8646   49.9750 H   0  0  0  0  0  0  0  0  0  0  0  0
   62.9170   31.4940   49.6960 C   0  0  0  0  0  0  0  0  0  0  0  0
   62.8320   30.4980   50.8150 C   0  0  0  0  0  0  0  0  0  0  0  0
   62.8770   31.0252   51.7794 H   0  0  0  0  0  0  0  0  0  0  0  0
   61.8835   29.9457   50.7430 H   0  0  0  0  0  0  0  0  0  0  0  0
   63.6732   29.7929   50.7430 H   0  0  0  0  0  0  0  0  0  0  0  0
   61.7630   31.8500   48.9800 C   0  0  0  0  0  0  0  0  0  0  0  0
   60.7998   31.3795   49.2266 H   0  0  0  0  0  0  0  0  0  0  0  0
   59.7030   28.5350   47.0330 C   0  0  0  0  0  0  0  0  0  0  0  0
   60.7170   28.1790   47.6890 O   0  0  0  0  0  0  0  0  0  0  0  0
  1  2  1  0
  2  3  1  0
  3  4  2  0
  4  5  1  0
  4  6  1  0
  6  7  1  0
  6  8  2  0
  8  9  1  0
  8 10  1  0
 10 11  2  0
 11 12  1  0
 12 13  1  0
 13 14  2  0
 14 15  1  0
 14 16  1  0
 16 17  2  0
 17 18  1  0
 17 19  1  0
 19 20  1  0
 19 21  2  0
 21 22  1  0
 21 23  1  0
 23 24  1  0
 23 25  2  0
 25 26  1  0
 26 27  2  0
 27 28  1  0
 27 29  1  0
 29 30  1  0
 29 31  2  0
 31 32  1  0
 31 33  1  0
 33 34  1  0
 34 35  1  0
 34 36  1  0
 34 37  1  0
 33 38  2  0
 38 39  1  0
 13 40  1  0
 40 41  2  0
 11  3  1  0
 25 16  1  0
 38 26  1  0
 40 10  1  0
M  CHG  1   5  -1
M  END
>  <UniqueID>  (81) 
78

>  <SMILES>  (81) 
Cc1cccc(-c2ccccc2/C=C2\Oc3c(ccc([O-])c3O)C2=O)c1

>  <Energy>  (81) 
87.6389690826491

>  <Genealogy>  (81) 
Cc1cccc(-c2ccccc2C=C2Oc3c(ccc([O-])c3O)C2=O)c1 (protonated)
Cc1cccc(-c2ccccc2/C=C2\Oc3c(ccc([O-])c3O)C2=O)c1 (cis-trans isomerization)
Cc1cccc(-c2ccccc2/C=C2\Oc3c(ccc([O-])c3O)C2=O)c1 (3D coordinates assigned)
Cc1cccc(-c2ccccc2/C=C2\Oc3c(ccc([O-])c3O)C2=O)c1 (nonaromatic ring conformer: 87.6389690826491 kcal/mol)

>  <smiles>  (81) 
Cc1cccc(-c2ccccc2C=C2Oc3c(ccc(O)c3O)C2=O)c1

>  <score_type>  (81) 
oracle

>  <origin>  (81) 
adg

>  <m_score__min__energy>  (81) 
-12.51

>  <m_primary>  (81) 
energy

$$$$
81:0
     RDKit          3D

 41 42  0  0  0  0  0  0  0  0999 V2000
   54.7920   26.3760   45.9950 O   0  0  0  0  0  0  0  0  0  0  0  0
   55.8900   25.9300   46.4210 C   0  0  0  0  0  0  0  0  0  0  0  0
   55.9450   24.6610   46.9850 O   0  0  0  0  0  0  0  0  0  0  0  0
   57.1240   26.7710   46.3520 C   0  0  0  0  0  0  0  0  0  0  0  0
   57.2210   27.4150   45.0820 O   0  0  0  0  0  0  0  0  0  0  0  0
   57.3380   28.8020   44.8830 C   0  0  0  0  0  0  0  0  0  0  0  0
   56.2580   29.4810   44.3080 C   0  0  0  0  0  0  0  0  0  0  0  0
   56.3230   30.8580   44.0800 C   0  0  0  0  0  0  0  0  0  0  0  0
   57.4730   31.5800   44.4320 C   0  0  0  0  0  0  0  0  0  0  0  0
   57.5650   33.0540   44.1330 C   0  0  0  0  0  0  0  0  0  0  0  0
   57.1490   33.9000   45.3410 C   0  0  0  0  0  0  0  0  0  0  0  0
   57.9750   33.5860   46.5060 N   0  0  0  0  0  0  0  0  0  0  0  0
   59.2120   34.2590   46.7830 C   0  0  0  0  0  0  0  0  0  0  0  0
   59.5630   35.2570   46.0980 O   0  0  0  0  0  0  0  0  0  0  0  0
   60.0820   33.8060   47.9170 C   0  0  0  0  0  0  0  0  0  0  0  0
   60.0600   32.3390   48.0160 N   0  0  0  0  0  0  0  0  0  0  0  0
   61.1030   31.6280   47.4850 C   0  0  0  0  0  0  0  0  0  0  0  0
   61.1400   30.2360   47.5820 C   0  0  0  0  0  0  0  0  0  0  0  0
   60.1060   29.5660   48.2350 C   0  0  0  0  0  0  0  0  0  0  0  0
   60.1390   27.6620   48.3800 Br  0  0  0  0  0  0  0  0  0  0  0  0
   59.0530   30.2940   48.7850 C   0  0  0  0  0  0  0  0  0  0  0  0
   59.0430   31.6890   48.6730 C   0  0  0  0  0  0  0  0  0  0  0  0
   58.0880   32.3350   49.1840 O   0  0  0  0  0  0  0  0  0  0  0  0
   58.5610   30.9030   45.0040 C   0  0  0  0  0  0  0  0  0  0  0  0
   58.4960   29.5250   45.2300 C   0  0  0  0  0  0  0  0  0  0  0  0
   57.0861   27.5346   47.1429 H   0  0  0  0  0  0  0  0  0  0  0  0
   58.0029   26.1242   46.4904 H   0  0  0  0  0  0  0  0  0  0  0  0
   55.3493   28.9255   44.0329 H   0  0  0  0  0  0  0  0  0  0  0  0
   55.4686   31.3782   43.6224 H   0  0  0  0  0  0  0  0  0  0  0  0
   58.6031   33.3001   43.8650 H   0  0  0  0  0  0  0  0  0  0  0  0
   56.8812   33.2805   43.3016 H   0  0  0  0  0  0  0  0  0  0  0  0
   57.2664   34.9651   45.0926 H   0  0  0  0  0  0  0  0  0  0  0  0
   56.0996   33.6759   45.5830 H   0  0  0  0  0  0  0  0  0  0  0  0
   57.7140   32.7530   47.0790 H   0  0  0  0  0  0  0  0  0  0  0  0
   61.1141   34.1433   47.7410 H   0  0  0  0  0  0  0  0  0  0  0  0
   59.7027   34.2359   48.8558 H   0  0  0  0  0  0  0  0  0  0  0  0
   61.9207   32.1597   46.9764 H   0  0  0  0  0  0  0  0  0  0  0  0
   61.9782   29.6720   47.1468 H   0  0  0  0  0  0  0  0  0  0  0  0
   58.2339   29.7751   49.3045 H   0  0  0  0  0  0  0  0  0  0  0  0
   59.4699   31.4597   45.2760 H   0  0  0  0  0  0  0  0  0  0  0  0
   59.3529   29.0030   45.6808 H   0  0  0  0  0  0  0  0  0  0  0  0
  1  2  2  0
  2  3  1  0
  2  4  1  0
  4  5  1  0
  5  6  1  0
  6  7  2  0
  7  8  1  0
  8  9  2  0
  9 10  1  0
 10 11  1  0
 11 12  1  0
 12 13  1  0
 13 14  2  0
 13 15  1  0
 15 16  1  0
 16 17  1  0
 17 18  2  0
 18 19  1  0
 19 20  1  0
 19 21  2  0
 21 22  1  0
 22 23  2  0
  9 24  1  0
 24 25  2  0
 25  6  1  0
 22 16  1  0
  4 26  1  0
  4 27  1  0
  7 28  1  0
  8 29  1  0
 10 30  1  0
 10 31  1  0
 11 32  1  0
 11 33  1  0
 12 34  1  0
 15 35  1  0
 15 36  1  0
 17 37  1  0
 18 38  1  0
 21 39  1  0
 24 40  1  0
 25 41  1  0
M  CHG  1   3  -1
M  END
>  <UniqueID>  (82) 
79

>  <SMILES>  (82) 
O=C([O-])COc1ccc(CCNC(=O)Cn2ccc(Br)cc2=O)cc1

>  <Energy>  (82) 
36.352415225922215

>  <Genealogy>  (82) 
O=C([O-])COc1ccc(CCNC(=O)Cn2ccc(Br)cc2=O)cc1 (protonated)
O=C([O-])COc1ccc(CCNC(=O)Cn2ccc(Br)cc2=O)cc1 (3D coordinates assigned)
O=C([O-])COc1ccc(CCNC(=O)Cn2ccc(Br)cc2=O)cc1 (optimized conformer: 36.352415225922215 kcal/mol)

>  <smiles>  (82) 
O=C(O)COc1ccc(CCNC(=O)Cn2ccc(Br)cc2=O)cc1

>  <score_type>  (82) 
oracle

>  <origin>  (82) 
adg

>  <m_score__min__energy>  (82) 
-10.1

>  <m_primary>  (82) 
energy

$$$$
82:0
     RDKit          3D

 38 40  0  0  0  0  0  0  0  0999 V2000
   58.6600   28.0550   44.3490 O   0  0  0  0  0  0  0  0  0  0  0  0
   57.9000   28.7590   45.0700 C   0  0  0  0  0  0  0  0  0  0  0  0
   56.9410   28.1190   45.9270 N   0  0  0  0  0  0  0  0  0  0  0  0
   57.0250   26.7360   46.3090 C   0  0  0  0  0  0  0  0  0  0  0  0
   58.2700   26.1740   46.6160 C   0  0  0  0  0  0  0  0  0  0  0  0
   58.3610   24.8660   46.9680 N   0  0  0  0  0  0  0  0  0  0  0  0
   57.2570   24.0770   47.0120 C   0  0  0  0  0  0  0  0  0  0  0  0
   57.3620   22.8680   47.3460 O   0  0  0  0  0  0  0  0  0  0  0  0
   56.0410   24.5890   46.6910 N   0  0  0  0  0  0  0  0  0  0  0  0
   55.8990   25.8910   46.3340 C   0  0  0  0  0  0  0  0  0  0  0  0
   54.7620   26.3200   46.0030 O   0  0  0  0  0  0  0  0  0  0  0  0
   57.9780   30.2380   44.9850 C   0  0  0  0  0  0  0  0  0  0  0  0
   58.0250   30.8730   43.7320 C   0  0  0  0  0  0  0  0  0  0  0  0
   58.1030   32.2660   43.6450 C   0  0  0  0  0  0  0  0  0  0  0  0
   58.1410   33.0520   44.8010 C   0  0  0  0  0  0  0  0  0  0  0  0
   58.2130   34.4470   44.6540 O   0  0  0  0  0  0  0  0  0  0  0  0
   59.3230   35.2600   45.0350 C   0  0  0  0  0  0  0  0  0  0  0  0
   59.9360   34.7660   46.3190 C   0  0  0  0  0  0  0  0  0  0  0  0
   61.1510   34.0610   46.2930 C   0  0  0  0  0  0  0  0  0  0  0  0
   61.7190   33.5920   47.4810 C   0  0  0  0  0  0  0  0  0  0  0  0
   61.0740   33.8150   48.7010 C   0  0  0  0  0  0  0  0  0  0  0  0
   59.8600   34.5040   48.7340 C   0  0  0  0  0  0  0  0  0  0  0  0
   59.2880   34.9750   47.5470 C   0  0  0  0  0  0  0  0  0  0  0  0
   58.1100   32.4200   46.0580 C   0  0  0  0  0  0  0  0  0  0  0  0
   58.0300   31.0280   46.1470 C   0  0  0  0  0  0  0  0  0  0  0  0
   56.0530   28.6280   46.1380 H   0  0  0  0  0  0  0  0  0  0  0  0
   59.1774   26.7943   46.5719 H   0  0  0  0  0  0  0  0  0  0  0  0
   58.0002   30.2692   42.8128 H   0  0  0  0  0  0  0  0  0  0  0  0
   58.1348   32.7488   42.6571 H   0  0  0  0  0  0  0  0  0  0  0  0
   60.0815   35.2298   44.2389 H   0  0  0  0  0  0  0  0  0  0  0  0
   58.9678   36.2897   45.1887 H   0  0  0  0  0  0  0  0  0  0  0  0
   61.6573   33.8774   45.3339 H   0  0  0  0  0  0  0  0  0  0  0  0
   62.6742   33.0471   47.4559 H   0  0  0  0  0  0  0  0  0  0  0  0
   61.5231   33.4475   49.6355 H   0  0  0  0  0  0  0  0  0  0  0  0
   59.3525   34.6768   49.6945 H   0  0  0  0  0  0  0  0  0  0  0  0
   58.3277   35.5107   47.5760 H   0  0  0  0  0  0  0  0  0  0  0  0
   58.1490   33.0254   46.9756 H   0  0  0  0  0  0  0  0  0  0  0  0
   58.0075   30.5456   47.1353 H   0  0  0  0  0  0  0  0  0  0  0  0
  1  2  2  0
  2  3  1  0
  3  4  1  0
  4  5  2  0
  5  6  1  0
  6  7  1  0
  7  8  2  0
  7  9  1  0
  9 10  1  0
 10 11  2  0
  2 12  1  0
 12 13  2  0
 13 14  1  0
 14 15  2  0
 15 16  1  0
 16 17  1  0
 17 18  1  0
 18 19  2  0
 19 20  1  0
 20 21  2  0
 21 22  1  0
 22 23  2  0
 15 24  1  0
 24 25  2  0
 10  4  1  0
 25 12  1  0
 23 18  1  0
  3 26  1  0
  5 27  1  0
 13 28  1  0
 14 29  1  0
 17 30  1  0
 17 31  1  0
 19 32  1  0
 20 33  1  0
 21 34  1  0
 22 35  1  0
 23 36  1  0
 24 37  1  0
 25 38  1  0
M  CHG  2   6  -1   9  -1
M  END
>  <UniqueID>  (83) 
80

>  <SMILES>  (83) 
O=C(Nc1c[n-]c(=O)[n-]c1=O)c1ccc(OCc2ccccc2)cc1

>  <Energy>  (83) 
49.26926916532784

>  <Genealogy>  (83) 
O=C(Nc1c[n-]c(=O)[n-]c1=O)c1ccc(OCc2ccccc2)cc1 (protonated)
O=C(Nc1c[n-]c(=O)[n-]c1=O)c1ccc(OCc2ccccc2)cc1 (3D coordinates assigned)
O=C(Nc1c[n-]c(=O)[n-]c1=O)c1ccc(OCc2ccccc2)cc1 (optimized conformer: 49.26926916532784 kcal/mol)

>  <smiles>  (83) 
O=C(Nc1c[nH]c(=O)[nH]c1=O)c1ccc(OCc2ccccc2)cc1

>  <score_type>  (83) 
oracle

>  <origin>  (83) 
adg

>  <m_score__min__energy>  (83) 
-11.609999999999999

>  <m_primary>  (83) 
energy

$$$$
83:0
     RDKit          3D

 43 45  0  0  0  0  0  0  0  0999 V2000
   57.8370   22.0600   45.6400 C   0  0  0  0  0  0  0  0  0  0  0  0
   57.6930   22.5590   46.9640 O   0  0  0  0  0  0  0  0  0  0  0  0
   56.4540   22.9140   47.5080 C   0  0  0  0  0  0  0  0  0  0  0  0
   55.8960   22.1570   48.3460 O   0  0  0  0  0  0  0  0  0  0  0  0
   55.8230   24.1590   47.1790 N   0  0  0  0  0  0  0  0  0  0  0  0
   56.3430   25.1920   46.5780 C   0  0  0  0  0  0  0  0  0  0  0  0
   55.6140   26.3160   46.3530 N   0  0  0  0  0  0  0  0  0  0  0  0
   56.4870   27.1130   45.7130 C   0  0  0  0  0  0  0  0  0  0  0  0
   56.2710   28.4040   45.2380 C   0  0  0  0  0  0  0  0  0  0  0  0
   57.3380   29.0520   44.5790 C   0  0  0  0  0  0  0  0  0  0  0  0
   57.1200   30.6820   43.9370 S   0  0  0  0  0  0  0  0  0  0  0  0
   55.9070   31.3040   44.5720 O   0  0  0  0  0  0  0  0  0  0  0  0
   56.8800   30.6010   42.4550 O   0  0  0  0  0  0  0  0  0  0  0  0
   58.5140   31.6880   44.2520 N   0  0  0  0  0  0  0  0  0  0  0  0
   58.3120   33.0730   43.7580 C   0  0  0  0  0  0  0  0  0  0  0  0
   57.9750   34.0660   44.8800 C   0  0  0  0  0  0  0  0  0  0  0  0
   59.1010   34.1110   45.9400 C   0  0  0  0  0  0  0  0  0  0  0  0
   58.5450   34.5920   47.2860 C   0  0  0  0  0  0  0  0  0  0  0  0
   59.8230   32.7490   46.0840 C   0  0  0  0  0  0  0  0  0  0  0  0
   58.9080   31.5900   45.6750 C   0  0  0  0  0  0  0  0  0  0  0  0
   58.5810   28.3870   44.4260 C   0  0  0  0  0  0  0  0  0  0  0  0
   58.7620   27.0820   44.9180 C   0  0  0  0  0  0  0  0  0  0  0  0
   57.6830   26.4810   45.5600 C   0  0  0  0  0  0  0  0  0  0  0  0
   57.6150   25.2570   46.0990 N   0  0  0  0  0  0  0  0  0  0  0  0
   58.1418   21.0037   45.6774 H   0  0  0  0  0  0  0  0  0  0  0  0
   56.8774   22.1461   45.1093 H   0  0  0  0  0  0  0  0  0  0  0  0
   58.6032   22.6442   45.1093 H   0  0  0  0  0  0  0  0  0  0  0  0
   55.2999   28.9030   45.3720 H   0  0  0  0  0  0  0  0  0  0  0  0
   59.2348   33.4060   43.2604 H   0  0  0  0  0  0  0  0  0  0  0  0
   57.4568   33.0547   43.0664 H   0  0  0  0  0  0  0  0  0  0  0  0
   57.8494   35.0691   44.4464 H   0  0  0  0  0  0  0  0  0  0  0  0
   57.0465   33.7379   45.3700 H   0  0  0  0  0  0  0  0  0  0  0  0
   59.8567   34.8317   45.5943 H   0  0  0  0  0  0  0  0  0  0  0  0
   59.1004   34.1115   48.1049 H   0  0  0  0  0  0  0  0  0  0  0  0
   58.6555   35.6840   47.3592 H   0  0  0  0  0  0  0  0  0  0  0  0
   57.4803   34.3255   47.3592 H   0  0  0  0  0  0  0  0  0  0  0  0
   60.7150   32.7461   45.4403 H   0  0  0  0  0  0  0  0  0  0  0  0
   60.1049   32.6143   47.1387 H   0  0  0  0  0  0  0  0  0  0  0  0
   59.4404   30.6407   45.8342 H   0  0  0  0  0  0  0  0  0  0  0  0
   57.9970   31.6352   46.2899 H   0  0  0  0  0  0  0  0  0  0  0  0
   59.4122   28.8971   43.9172 H   0  0  0  0  0  0  0  0  0  0  0  0
   59.7207   26.5557   44.7999 H   0  0  0  0  0  0  0  0  0  0  0  0
   58.3710   24.5410   46.0930 H   0  0  0  0  0  0  0  0  0  0  0  0
  1  2  1  0
  2  3  1  0
  3  4  2  0
  3  5  1  0
  5  6  2  3
  6  7  1  0
  7  8  1  0
  8  9  2  0
  9 10  1  0
 10 11  1  0
 11 12  2  0
 11 13  2  0
 11 14  1  0
 14 15  1  0
 15 16  1  0
 16 17  1  0
 17 18  1  0
 17 19  1  0
 19 20  1  0
 10 21  2  0
 21 22  1  0
 22 23  2  0
 23 24  1  0
 24  6  1  0
 23  8  1  0
 20 14  1  0
  1 25  1  0
  1 26  1  0
  1 27  1  0
  9 28  1  0
 15 29  1  0
 15 30  1  0
 16 31  1  0
 16 32  1  0
 17 33  1  0
 18 34  1  0
 18 35  1  0
 18 36  1  0
 19 37  1  0
 19 38  1  0
 20 39  1  0
 20 40  1  0
 21 41  1  0
 22 42  1  0
 24 43  1  0
M  CHG  1   7  -1
M  END
>  <UniqueID>  (84) 
81

>  <SMILES>  (84) 
COC(=O)N=c1[n-]c2cc(S(=O)(=O)N3CCC(C)CC3)ccc2[nH]1

>  <Energy>  (84) 
85.61191803378183

>  <Genealogy>  (84) 
COC(=O)N=c1[n-]c2cc(S(=O)(=O)N3CCC(C)CC3)ccc2[nH]1 (protonated)
COC(=O)N=c1[n-]c2cc(S(=O)(=O)N3CCC(C)CC3)ccc2[nH]1 (3D coordinates assigned)
COC(=O)N=c1[n-]c2cc(S(=O)(=O)N3CCC(C)CC3)ccc2[nH]1 (nonaromatic ring conformer: 85.61191803378183 kcal/mol)

>  <smiles>  (84) 
COC(=O)N=c1[nH]c2ccc(S(=O)(=O)N3CCC(C)CC3)cc2[nH]1

>  <score_type>  (84) 
oracle

>  <origin>  (84) 
adg

>  <m_score__min__energy>  (84) 
-9.7300000000000004

>  <m_primary>  (84) 
energy

$$$$
84:0
     RDKit          3D

 34 35  0  0  0  0  0  0  0  0999 V2000
   59.3190   34.5700   47.5890 C   0  0  0  0  0  0  0  0  0  0  0  0
   58.6960   33.6640   46.5710 C   0  0  0  0  0  0  0  0  0  0  0  0
   57.9550   34.2040   45.5080 C   0  0  0  0  0  0  0  0  0  0  0  0
   57.4160   33.3650   44.5260 C   0  0  0  0  0  0  0  0  0  0  0  0
   57.6380   31.9840   44.5840 C   0  0  0  0  0  0  0  0  0  0  0  0
   56.9900   30.9080   43.2980 S   0  0  0  0  0  0  0  0  0  0  0  0
   57.4570   29.3470   44.1250 C   0  0  0  0  0  0  0  0  0  0  0  0
   56.3370   28.8240   44.9680 C   0  0  0  0  0  0  0  0  0  0  0  0
   55.1680   29.2670   44.8080 O   0  0  0  0  0  0  0  0  0  0  0  0
   56.6150   27.8560   45.9810 N   0  0  0  0  0  0  0  0  0  0  0  0
   57.2120   26.5570   45.7070 C   0  0  0  0  0  0  0  0  0  0  0  0
   56.1210   25.5640   45.4520 C   0  0  0  0  0  0  0  0  0  0  0  0
   56.3700   24.3960   44.7160 C   0  0  0  0  0  0  0  0  0  0  0  0
   55.3150   23.5240   44.4350 C   0  0  0  0  0  0  0  0  0  0  0  0
   55.5250   22.4750   43.7700 O   0  0  0  0  0  0  0  0  0  0  0  0
   54.0260   23.8240   44.8910 C   0  0  0  0  0  0  0  0  0  0  0  0
   52.9620   22.9700   44.6220 O   0  0  0  0  0  0  0  0  0  0  0  0
   53.8160   24.9980   45.6210 C   0  0  0  0  0  0  0  0  0  0  0  0
   54.8550   25.8350   45.8770 N   0  0  0  0  0  0  0  0  0  0  0  0
   58.3730   31.4410   45.6440 C   0  0  0  0  0  0  0  0  0  0  0  0
   58.9020   32.2760   46.6310 C   0  0  0  0  0  0  0  0  0  0  0  0
   59.0722   34.2111   48.5991 H   0  0  0  0  0  0  0  0  0  0  0  0
   60.4111   34.5731   47.4576 H   0  0  0  0  0  0  0  0  0  0  0  0
   58.9310   35.5909   47.4576 H   0  0  0  0  0  0  0  0  0  0  0  0
   57.7974   35.2909   45.4466 H   0  0  0  0  0  0  0  0  0  0  0  0
   56.8172   33.7912   43.7076 H   0  0  0  0  0  0  0  0  0  0  0  0
   57.7103   28.5979   43.3603 H   0  0  0  0  0  0  0  0  0  0  0  0
   58.3207   29.5437   44.7772 H   0  0  0  0  0  0  0  0  0  0  0  0
   57.8603   26.6284   44.8212 H   0  0  0  0  0  0  0  0  0  0  0  0
   57.8139   26.2349   46.5695 H   0  0  0  0  0  0  0  0  0  0  0  0
   57.3868   24.1686   44.3632 H   0  0  0  0  0  0  0  0  0  0  0  0
   52.8087   25.2440   45.9883 H   0  0  0  0  0  0  0  0  0  0  0  0
   58.5345   30.3544   45.7000 H   0  0  0  0  0  0  0  0  0  0  0  0
   59.4828   31.8443   47.4594 H   0  0  0  0  0  0  0  0  0  0  0  0
  1  2  1  0
  2  3  2  0
  3  4  1  0
  4  5  2  0
  5  6  1  0
  6  7  1  0
  7  8  1  0
  8  9  2  0
  8 10  1  0
 10 11  1  0
 11 12  1  0
 12 13  2  0
 13 14  1  0
 14 15  2  0
 14 16  1  0
 16 17  1  0
 16 18  2  0
 18 19  1  0
  5 20  1  0
 20 21  2  0
 21  2  1  0
 19 12  1  0
  1 22  1  0
  1 23  1  0
  1 24  1  0
  3 25  1  0
  4 26  1  0
  7 27  1  0
  7 28  1  0
 11 29  1  0
 11 30  1  0
 13 31  1  0
 18 32  1  0
 20 33  1  0
 21 34  1  0
M  CHG  3  10  -1  17  -1  19  -1
M  END
>  <UniqueID>  (85) 
82

>  <SMILES>  (85) 
Cc1ccc(SCC(=O)[N-]Cc2cc(=O)c([O-])c[n-]2)cc1

>  <Energy>  (85) 
23.702267182130274

>  <Genealogy>  (85) 
Cc1ccc(SCC(=O)[N-]Cc2cc(=O)c([O-])c[n-]2)cc1 (protonated)
Cc1ccc(SCC(=O)[N-]Cc2cc(=O)c([O-])c[n-]2)cc1 (3D coordinates assigned)
Cc1ccc(SCC(=O)[N-]Cc2cc(=O)c([O-])c[n-]2)cc1 (optimized conformer: 23.702267182130274 kcal/mol)

>  <smiles>  (85) 
Cc1ccc(SCC(=O)NCc2cc(=O)c(O)c[nH]2)cc1

>  <score_type>  (85) 
oracle

>  <origin>  (85) 
adg

>  <m_score__min__energy>  (85) 
-14.09

>  <m_primary>  (85) 
energy

$$$$
85:0
     RDKit          3D

 53 56  0  0  0  0  0  0  0  0999 V2000
   52.1250   23.4780   44.6520 O   0  0  0  0  0  0  0  0  0  0  0  0
   53.3180   23.8090   44.8780 C   0  0  0  0  0  0  0  0  0  0  0  0
   53.5970   25.0390   45.3800 N   0  0  0  0  0  0  0  0  0  0  0  0
   54.8750   25.4210   45.6320 C   0  0  0  0  0  0  0  0  0  0  0  0
   55.1130   26.6900   46.1480 O   0  0  0  0  0  0  0  0  0  0  0  0
   55.9390   24.5400   45.3680 C   0  0  0  0  0  0  0  0  0  0  0  0
   57.3690   24.9280   45.6750 C   0  0  0  0  0  0  0  0  0  0  0  0
   57.5670   26.4100   45.4920 C   0  0  0  0  0  0  0  0  0  0  0  0
   57.6210   27.2610   46.6060 C   0  0  0  0  0  0  0  0  0  0  0  0
   57.7760   28.6400   46.4340 C   0  0  0  0  0  0  0  0  0  0  0  0
   57.8760   29.1850   45.1480 C   0  0  0  0  0  0  0  0  0  0  0  0
   58.0830   30.9250   44.9370 S   0  0  0  0  0  0  0  0  0  0  0  0
   56.7670   31.6110   45.1760 O   0  0  0  0  0  0  0  0  0  0  0  0
   58.5070   31.2100   43.5220 O   0  0  0  0  0  0  0  0  0  0  0  0
   59.2760   31.5660   46.0410 N   0  0  0  0  0  0  0  0  0  0  0  0
   59.4850   32.9980   45.7960 C   0  0  0  0  0  0  0  0  0  0  0  0
   60.7480   33.4310   46.5340 C   0  0  0  0  0  0  0  0  0  0  0  0
   60.7880   32.8680   47.8930 N   0  0  0  0  0  0  0  0  0  0  0  0
   61.9010   33.1940   48.7510 C   0  0  0  0  0  0  0  0  0  0  0  0
   63.2090   32.8260   48.3920 C   0  0  0  0  0  0  0  0  0  0  0  0
   64.2890   33.1440   49.2200 C   0  0  0  0  0  0  0  0  0  0  0  0
   64.0850   33.8530   50.4170 C   0  0  0  0  0  0  0  0  0  0  0  0
   65.2440   34.1510   51.3330 C   0  0  0  0  0  0  0  0  0  0  0  0
   65.0880   35.3890   51.9320 F   0  0  0  0  0  0  0  0  0  0  0  0
   65.3090   33.1800   52.3160 F   0  0  0  0  0  0  0  0  0  0  0  0
   66.4350   34.1600   50.6290 F   0  0  0  0  0  0  0  0  0  0  0  0
   62.7760   34.1960   50.7900 C   0  0  0  0  0  0  0  0  0  0  0  0
   61.6950   33.8790   49.9620 C   0  0  0  0  0  0  0  0  0  0  0  0
   59.5940   32.2220   48.4600 C   0  0  0  0  0  0  0  0  0  0  0  0
   58.8740   31.3110   47.4390 C   0  0  0  0  0  0  0  0  0  0  0  0
   57.8120   28.3380   44.0330 C   0  0  0  0  0  0  0  0  0  0  0  0
   57.6580   26.9600   44.2030 C   0  0  0  0  0  0  0  0  0  0  0  0
   55.6200   23.2680   44.8550 C   0  0  0  0  0  0  0  0  0  0  0  0
   56.5250   22.4290   44.6040 O   0  0  0  0  0  0  0  0  0  0  0  0
   54.3240   22.9370   44.6200 N   0  0  0  0  0  0  0  0  0  0  0  0
   57.6014   24.6580   46.7157 H   0  0  0  0  0  0  0  0  0  0  0  0
   58.0377   24.3929   44.9847 H   0  0  0  0  0  0  0  0  0  0  0  0
   57.5410   26.8414   47.6197 H   0  0  0  0  0  0  0  0  0  0  0  0
   57.8196   29.2998   47.3131 H   0  0  0  0  0  0  0  0  0  0  0  0
   59.6046   33.1772   44.7173 H   0  0  0  0  0  0  0  0  0  0  0  0
   58.6197   33.5742   46.1555 H   0  0  0  0  0  0  0  0  0  0  0  0
   61.6284   33.0817   45.9746 H   0  0  0  0  0  0  0  0  0  0  0  0
   60.7484   34.5283   46.6107 H   0  0  0  0  0  0  0  0  0  0  0  0
   63.3842   32.2831   47.4515 H   0  0  0  0  0  0  0  0  0  0  0  0
   65.3058   32.8375   48.9333 H   0  0  0  0  0  0  0  0  0  0  0  0
   62.5992   34.7185   51.7417 H   0  0  0  0  0  0  0  0  0  0  0  0
   60.6761   34.1674   50.2598 H   0  0  0  0  0  0  0  0  0  0  0  0
   59.8989   31.6125   49.3234 H   0  0  0  0  0  0  0  0  0  0  0  0
   58.8916   33.0159   48.7540 H   0  0  0  0  0  0  0  0  0  0  0  0
   59.1047   30.2634   47.6828 H   0  0  0  0  0  0  0  0  0  0  0  0
   57.7980   31.5273   47.5125 H   0  0  0  0  0  0  0  0  0  0  0  0
   57.8833   28.7602   43.0198 H   0  0  0  0  0  0  0  0  0  0  0  0
   57.6078   26.3023   43.3227 H   0  0  0  0  0  0  0  0  0  0  0  0
  1  2  2  0
  2  3  1  0
  3  4  1  0
  4  5  1  0
  4  6  2  0
  6  7  1  0
  7  8  1  0
  8  9  2  0
  9 10  1  0
 10 11  2  0
 11 12  1  0
 12 13  2  0
 12 14  2  0
 12 15  1  0
 15 16  1  0
 16 17  1  0
 17 18  1  0
 18 19  1  0
 19 20  2  0
 20 21  1  0
 21 22  2  0
 22 23  1  0
 23 24  1  0
 23 25  1  0
 23 26  1  0
 22 27  1  0
 27 28  2  0
 18 29  1  0
 29 30  1  0
 11 31  1  0
 31 32  2  0
  6 33  1  0
 33 34  2  0
 33 35  1  0
 35  2  1  0
 32  8  1  0
 30 15  1  0
 28 19  1  0
  7 36  1  0
  7 37  1  0
  9 38  1  0
 10 39  1  0
 16 40  1  0
 16 41  1  0
 17 42  1  0
 17 43  1  0
 20 44  1  0
 21 45  1  0
 27 46  1  0
 28 47  1  0
 29 48  1  0
 29 49  1  0
 30 50  1  0
 30 51  1  0
 31 52  1  0
 32 53  1  0
M  CHG  3   3  -1   5  -1  35  -1
M  END
>  <UniqueID>  (86) 
83

>  <SMILES>  (86) 
O=c1[n-]c([O-])c(Cc2ccc(S(=O)(=O)N3CCN(c4ccc(C(F)(F)F)cc4)CC3)cc2)c(=O)[n-]1

>  <Energy>  (86) 
66.40144306459298

>  <Genealogy>  (86) 
O=c1[n-]c([O-])c(Cc2ccc(S(=O)(=O)N3CCN(c4ccc(C(F)(F)F)cc4)CC3)cc2)c(=O)[n-]1 (protonated)
O=c1[n-]c([O-])c(Cc2ccc(S(=O)(=O)N3CCN(c4ccc(C(F)(F)F)cc4)CC3)cc2)c(=O)[n-]1 (3D coordinates assigned)
O=c1[n-]c([O-])c(Cc2ccc(S(=O)(=O)N3CCN(c4ccc(C(F)(F)F)cc4)CC3)cc2)c(=O)[n-]1 (nonaromatic ring conformer: 66.40144306459298 kcal/mol)

>  <smiles>  (86) 
O=c1[nH]c(O)c(Cc2ccc(S(=O)(=O)N3CCN(c4ccc(C(F)(F)F)cc4)CC3)cc2)c(=O)[nH]1

>  <score_type>  (86) 
oracle

>  <origin>  (86) 
adg

>  <m_score__min__energy>  (86) 
-16.059999999999999

>  <m_primary>  (86) 
energy

$$$$
86:0
     RDKit          3D

 59 62  0  0  1  0  0  0  0  0999 V2000
   55.9860   31.1020   44.8460 O   0  0  0  0  0  0  0  0  0  0  0  0
   57.0310   31.2390   44.1800 C   0  0  0  0  0  0  0  0  0  0  0  0
   57.5260   30.0200   43.5700 N   0  0  0  0  0  0  0  0  0  0  0  0
   57.3280   28.9160   44.2140 C   0  0  0  0  0  0  0  0  0  0  0  0
   57.7690   27.6360   43.8830 C   0  0  0  0  0  0  0  0  0  0  0  0
   57.3130   26.7630   44.8770 C   0  0  0  0  0  0  0  0  0  0  0  0
   57.5670   25.3410   44.8900 C   0  0  0  0  0  0  0  0  0  0  0  0
   58.5600   24.7330   45.6290 C   0  0  0  0  0  0  0  0  0  0  0  0
   58.7790   23.3800   45.6220 C   0  0  0  0  0  0  0  0  0  0  0  0
   57.9750   22.5740   44.8430 C   0  0  0  0  0  0  0  0  0  0  0  0
   56.9740   23.1400   44.0940 C   0  0  0  0  0  0  0  0  0  0  0  0
   56.7560   24.5130   44.1040 C   0  0  0  0  0  0  0  0  0  0  0  0
   56.6370   27.5380   45.7350 N   0  0  0  0  0  0  0  0  0  0  0  0
   56.6400   28.7900   45.3590 N   0  0  0  0  0  0  0  0  0  0  0  0
   57.7220   32.4340   43.9920 N   0  0  0  0  0  0  0  0  0  0  0  0
   57.4160   33.7410   44.4950 C   0  0  0  0  0  0  0  0  0  0  0  0
   57.1000   33.8430   45.9260 C   0  0  0  0  0  0  0  0  0  0  0  0
   58.1600   33.8240   46.8880 N   0  0  0  0  0  0  0  0  0  0  0  0
   59.4540   33.6060   46.2610 C   0  0  0  0  0  0  0  0  0  0  0  0
   60.4960   33.4480   47.3410 C   0  0  0  0  0  0  0  0  0  0  0  0
   60.2060   32.1720   48.0810 C   0  0  0  0  0  0  0  0  0  0  0  0
   61.2550   31.1250   48.0010 C   0  0  0  0  0  0  0  0  0  0  0  0
   60.8790   29.8490   47.4070 C   0  0  0  0  0  0  0  0  0  0  0  0
   60.6380   28.7780   48.2620 C   0  0  0  0  0  0  0  0  0  0  0  0
   60.2900   27.5260   47.7980 C   0  0  0  0  0  0  0  0  0  0  0  0
   60.1660   27.2860   46.4440 C   0  0  0  0  0  0  0  0  0  0  0  0
   60.4040   28.3400   45.5870 C   0  0  0  0  0  0  0  0  0  0  0  0
   60.7520   29.5900   46.0590 C   0  0  0  0  0  0  0  0  0  0  0  0
   58.8020   31.6760   47.7430 C   0  0  0  0  0  0  0  0  0  0  0  0
   57.9130   32.8680   47.9550 C   0  0  0  0  0  0  0  0  0  0  0  0
   58.3666   27.3620   43.0011 H   0  0  0  0  0  0  0  0  0  0  0  0
   59.2079   25.3647   46.2545 H   0  0  0  0  0  0  0  0  0  0  0  0
   59.5851   22.9427   46.2294 H   0  0  0  0  0  0  0  0  0  0  0  0
   58.1350   21.4859   44.8223 H   0  0  0  0  0  0  0  0  0  0  0  0
   56.3326   22.4958   43.4746 H   0  0  0  0  0  0  0  0  0  0  0  0
   55.9488   24.9477   43.4962 H   0  0  0  0  0  0  0  0  0  0  0  0
   56.1770   27.1680   46.5880 H   0  0  0  0  0  0  0  0  0  0  0  0
   56.1740   29.5660   45.8790 H   0  0  0  0  0  0  0  0  0  0  0  0
   58.6090   32.3590   43.3840 H   0  0  0  0  0  0  0  0  0  0  0  0
   58.2863   34.3848   44.2997 H   0  0  0  0  0  0  0  0  0  0  0  0
   56.4944   34.0410   43.9747 H   0  0  0  0  0  0  0  0  0  0  0  0
   56.5581   34.7899   46.0666 H   0  0  0  0  0  0  0  0  0  0  0  0
   56.5477   32.9147   46.1339 H   0  0  0  0  0  0  0  0  0  0  0  0
   59.4180   32.6950   45.6456 H   0  0  0  0  0  0  0  0  0  0  0  0
   59.7076   34.4622   45.6187 H   0  0  0  0  0  0  0  0  0  0  0  0
   61.4977   33.3985   46.8892 H   0  0  0  0  0  0  0  0  0  0  0  0
   60.4664   34.3051   48.0298 H   0  0  0  0  0  0  0  0  0  0  0  0
   60.2337   32.4250   49.1512 H   0  0  0  0  0  0  0  0  0  0  0  0
   62.0860   31.5340   47.4076 H   0  0  0  0  0  0  0  0  0  0  0  0
   61.5002   30.8892   49.0471 H   0  0  0  0  0  0  0  0  0  0  0  0
   60.7282   28.9351   49.3470 H   0  0  0  0  0  0  0  0  0  0  0  0
   60.1095   26.7108   48.5141 H   0  0  0  0  0  0  0  0  0  0  0  0
   59.8880   26.2921   46.0634 H   0  0  0  0  0  0  0  0  0  0  0  0
   60.3145   28.1811   44.5022 H   0  0  0  0  0  0  0  0  0  0  0  0
   60.9330   30.4019   45.3392 H   0  0  0  0  0  0  0  0  0  0  0  0
   58.7521   31.3363   46.6980 H   0  0  0  0  0  0  0  0  0  0  0  0
   58.5033   30.8192   48.3648 H   0  0  0  0  0  0  0  0  0  0  0  0
   56.8592   32.5532   47.9344 H   0  0  0  0  0  0  0  0  0  0  0  0
   58.1272   33.3288   48.9306 H   0  0  0  0  0  0  0  0  0  0  0  0
  1  2  2  0
  2  3  1  0
  3  4  2  0
  4  5  1  0
  5  6  2  0
  6  7  1  0
  7  8  2  0
  8  9  1  0
  9 10  2  0
 10 11  1  0
 11 12  2  0
  6 13  1  0
 13 14  1  0
  2 15  1  0
 15 16  1  0
 16 17  1  0
 17 18  1  0
 18 19  1  0
 19 20  1  0
 20 21  1  0
 21 22  1  0
 22 23  1  0
 23 24  2  0
 24 25  1  0
 25 26  2  0
 26 27  1  0
 27 28  2  0
 21 29  1  0
 29 30  1  0
 14  4  1  0
 30 18  1  0
 12  7  1  0
 28 23  1  0
  5 31  1  0
  8 32  1  0
  9 33  1  0
 10 34  1  0
 11 35  1  0
 12 36  1  0
 13 37  1  0
 14 38  1  0
 15 39  1  0
 16 40  1  0
 16 41  1  0
 17 42  1  0
 17 43  1  0
 19 44  1  0
 19 45  1  0
 20 46  1  0
 20 47  1  0
 21 48  1  0
 22 49  1  0
 22 50  1  0
 24 51  1  0
 25 52  1  0
 26 53  1  0
 27 54  1  0
 28 55  1  0
 29 56  1  0
 29 57  1  0
 30 58  1  0
 30 59  1  0
M  END
>  <smiles>  (87) 
O=C(N=c1cc(-c2ccccc2)[nH][nH]1)NCCN1CCC(Cc2ccccc2)CC1

>  <score_type>  (87) 
oracle

>  <origin>  (87) 
adg

>  <m_score__min__energy>  (87) 
-10.029999999999999

>  <m_primary>  (87) 
energy

$$$$
87:0
     RDKit          3D

 43 45  0  0  0  0  0  0  0  0999 V2000
   56.6420   30.3960   43.1900 C   0  0  0  0  0  0  0  0  0  0  0  0
   56.5140   30.9320   44.5030 O   0  0  0  0  0  0  0  0  0  0  0  0
   57.3950   31.8630   45.0770 C   0  0  0  0  0  0  0  0  0  0  0  0
   57.4340   33.2040   44.6440 C   0  0  0  0  0  0  0  0  0  0  0  0
   58.3510   34.1020   45.1940 C   0  0  0  0  0  0  0  0  0  0  0  0
   59.2410   33.6760   46.1790 C   0  0  0  0  0  0  0  0  0  0  0  0
   59.2120   32.3540   46.6250 C   0  0  0  0  0  0  0  0  0  0  0  0
   58.2840   31.4400   46.0940 C   0  0  0  0  0  0  0  0  0  0  0  0
   58.2710   30.0470   46.5990 C   0  0  0  0  0  0  0  0  0  0  0  0
   58.8690   29.7720   47.6750 O   0  0  0  0  0  0  0  0  0  0  0  0
   57.5380   29.0230   45.9080 N   0  0  0  0  0  0  0  0  0  0  0  0
   57.7530   27.6180   46.1230 C   0  0  0  0  0  0  0  0  0  0  0  0
   59.0070   27.1800   46.5530 C   0  0  0  0  0  0  0  0  0  0  0  0
   59.2360   25.8250   46.7670 C   0  0  0  0  0  0  0  0  0  0  0  0
   58.1980   24.9160   46.5780 C   0  0  0  0  0  0  0  0  0  0  0  0
   56.9500   25.3390   46.2080 N   0  0  0  0  0  0  0  0  0  0  0  0
   55.8850   24.3290   46.0470 C   0  0  0  0  0  0  0  0  0  0  0  0
   56.2570   23.3070   44.9950 C   0  0  0  0  0  0  0  0  0  0  0  0
   56.2210   23.6740   43.6360 C   0  0  0  0  0  0  0  0  0  0  0  0
   56.5830   22.7610   42.6430 C   0  0  0  0  0  0  0  0  0  0  0  0
   56.9870   21.4720   42.9930 C   0  0  0  0  0  0  0  0  0  0  0  0
   57.0300   21.0930   44.3360 C   0  0  0  0  0  0  0  0  0  0  0  0
   56.6700   21.9990   45.3400 C   0  0  0  0  0  0  0  0  0  0  0  0
   56.7400   21.4540   47.0100 Cl  0  0  0  0  0  0  0  0  0  0  0  0
   56.7150   26.6750   45.9680 C   0  0  0  0  0  0  0  0  0  0  0  0
   55.5670   27.0700   45.6270 O   0  0  0  0  0  0  0  0  0  0  0  0
   56.8971   29.3279   43.2533 H   0  0  0  0  0  0  0  0  0  0  0  0
   55.6903   30.5144   42.6512 H   0  0  0  0  0  0  0  0  0  0  0  0
   57.4375   30.9317   42.6512 H   0  0  0  0  0  0  0  0  0  0  0  0
   56.7358   33.5460   43.8659 H   0  0  0  0  0  0  0  0  0  0  0  0
   58.3712   35.1466   44.8498 H   0  0  0  0  0  0  0  0  0  0  0  0
   59.9675   34.3834   46.6054 H   0  0  0  0  0  0  0  0  0  0  0  0
   59.9210   32.0239   47.3985 H   0  0  0  0  0  0  0  0  0  0  0  0
   56.7060   29.3120   45.3450 H   0  0  0  0  0  0  0  0  0  0  0  0
   59.8146   27.9073   46.7227 H   0  0  0  0  0  0  0  0  0  0  0  0
   60.2294   25.4740   47.0831 H   0  0  0  0  0  0  0  0  0  0  0  0
   58.3838   23.8423   46.7283 H   0  0  0  0  0  0  0  0  0  0  0  0
   55.7289   23.8155   47.0072 H   0  0  0  0  0  0  0  0  0  0  0  0
   54.9648   24.8399   45.7273 H   0  0  0  0  0  0  0  0  0  0  0  0
   55.9049   24.6891   43.3539 H   0  0  0  0  0  0  0  0  0  0  0  0
   56.5496   23.0582   41.5844 H   0  0  0  0  0  0  0  0  0  0  0  0
   57.2719   20.7538   42.2100 H   0  0  0  0  0  0  0  0  0  0  0  0
   57.3489   20.0757   44.6067 H   0  0  0  0  0  0  0  0  0  0  0  0
  1  2  1  0
  2  3  1  0
  3  4  2  0
  4  5  1  0
  5  6  2  0
  6  7  1  0
  7  8  2  0
  8  9  1  0
  9 10  2  0
  9 11  1  0
 11 12  1  0
 12 13  2  0
 13 14  1  0
 14 15  2  0
 15 16  1  0
 16 17  1  0
 17 18  1  0
 18 19  2  0
 19 20  1  0
 20 21  2  0
 21 22  1  0
 22 23  2  0
 23 24  1  0
 16 25  1  0
 25 26  2  0
  8  3  1  0
 25 12  1  0
 23 18  1  0
  1 27  1  0
  1 28  1  0
  1 29  1  0
  4 30  1  0
  5 31  1  0
  6 32  1  0
  7 33  1  0
 11 34  1  0
 13 35  1  0
 14 36  1  0
 15 37  1  0
 17 38  1  0
 17 39  1  0
 19 40  1  0
 20 41  1  0
 21 42  1  0
 22 43  1  0
M  END
>  <UniqueID>  (88) 
84

>  <SMILES>  (88) 
COc1ccccc1C(=O)Nc1cccn(Cc2ccccc2Cl)c1=O

>  <Energy>  (88) 
58.193077294281686

>  <Genealogy>  (88) 
COc1ccccc1C(=O)Nc1cccn(Cc2ccccc2Cl)c1=O (3D coordinates assigned)
COc1ccccc1C(=O)Nc1cccn(Cc2ccccc2Cl)c1=O (optimized conformer: 58.193077294281686 kcal/mol)

>  <smiles>  (88) 
COc1ccccc1C(=O)Nc1cccn(Cc2ccccc2Cl)c1=O

>  <score_type>  (88) 
oracle

>  <origin>  (88) 
adg

>  <m_score__min__energy>  (88) 
-8.3399999999999999

>  <m_primary>  (88) 
energy

$$$$
88:0
     RDKit          3D

 41 43  0  0  1  0  0  0  0  0999 V2000
   62.6710   33.3600   47.0920 C   0  0  0  0  0  0  0  0  0  0  0  0
   61.2750   33.4980   47.0630 O   0  0  0  0  0  0  0  0  0  0  0  0
   60.4540   32.4550   47.4740 C   0  0  0  0  0  0  0  0  0  0  0  0
   59.9760   32.3410   48.7400 C   0  0  0  0  0  0  0  0  0  0  0  0
   59.1690   31.2650   49.0380 C   0  0  0  0  0  0  0  0  0  0  0  0
   58.8450   30.3210   48.0930 C   0  0  0  0  0  0  0  0  0  0  0  0
   59.3320   30.4190   46.7660 C   0  0  0  0  0  0  0  0  0  0  0  0
   58.8530   29.4580   45.8110 C   0  0  0  0  0  0  0  0  0  0  0  0
   59.6730   28.3340   45.6050 C   0  0  0  0  0  0  0  0  0  0  0  0
   59.3020   27.3430   44.7850 N   0  0  0  0  0  0  0  0  0  0  0  0
   58.1110   27.4250   44.1390 C   0  0  0  0  0  0  0  0  0  0  0  0
   57.7870   26.4770   43.3750 O   0  0  0  0  0  0  0  0  0  0  0  0
   57.2850   28.4680   44.2900 N   0  0  0  0  0  0  0  0  0  0  0  0
   57.6800   29.4710   45.1300 C   0  0  0  0  0  0  0  0  0  0  0  0
   56.9320   30.4790   45.2170 N   0  0  0  0  0  0  0  0  0  0  0  0
   56.6590   31.4590   44.1890 C   0  0  0  0  0  0  0  0  0  0  0  0
   57.4950   32.6110   44.7540 C   0  0  0  0  0  0  0  0  0  0  0  0
   58.5120   33.1810   44.0200 C   0  0  0  0  0  0  0  0  0  0  0  0
   59.2310   34.2360   44.5490 C   0  0  0  0  0  0  0  0  0  0  0  0
   58.8640   34.6510   45.8120 C   0  0  0  0  0  0  0  0  0  0  0  0
   59.5690   35.7030   46.3610 O   0  0  0  0  0  0  0  0  0  0  0  0
   57.8530   34.0850   46.5430 C   0  0  0  0  0  0  0  0  0  0  0  0
   57.1390   33.0330   46.0100 C   0  0  0  0  0  0  0  0  0  0  0  0
   60.1310   31.5110   46.5220 C   0  0  0  0  0  0  0  0  0  0  0  0
   63.0145   33.3260   48.1364 H   0  0  0  0  0  0  0  0  0  0  0  0
   62.9581   32.4291   46.5811 H   0  0  0  0  0  0  0  0  0  0  0  0
   63.1348   34.2167   46.5811 H   0  0  0  0  0  0  0  0  0  0  0  0
   60.2266   33.0882   49.5074 H   0  0  0  0  0  0  0  0  0  0  0  0
   58.7736   31.1585   50.0589 H   0  0  0  0  0  0  0  0  0  0  0  0
   58.1976   29.4763   48.3712 H   0  0  0  0  0  0  0  0  0  0  0  0
   60.6384   28.2679   46.1281 H   0  0  0  0  0  0  0  0  0  0  0  0
   59.9220   26.5340   44.6540 H   0  0  0  0  0  0  0  0  0  0  0  0
   56.3760   28.5150   43.7870 H   0  0  0  0  0  0  0  0  0  0  0  0
   57.0146   31.1338   43.2002 H   0  0  0  0  0  0  0  0  0  0  0  0
   55.5970   31.6809   44.0075 H   0  0  0  0  0  0  0  0  0  0  0  0
   58.7508   32.7979   43.0169 H   0  0  0  0  0  0  0  0  0  0  0  0
   60.0497   34.7175   43.9941 H   0  0  0  0  0  0  0  0  0  0  0  0
   60.4010   35.5070   46.8980 H   0  0  0  0  0  0  0  0  0  0  0  0
   57.6130   34.4666   47.5464 H   0  0  0  0  0  0  0  0  0  0  0  0
   56.3205   32.5534   46.5668 H   0  0  0  0  0  0  0  0  0  0  0  0
   60.5365   31.6392   45.5076 H   0  0  0  0  0  0  0  0  0  0  0  0
  1  2  1  0
  2  3  1  0
  3  4  2  0
  4  5  1  0
  5  6  2  0
  6  7  1  0
  7  8  1  0
  8  9  2  0
  9 10  1  0
 10 11  1  0
 11 12  2  0
 11 13  1  0
 13 14  1  0
 14 15  2  0
 15 16  1  0
 16 17  1  0
 17 18  2  0
 18 19  1  0
 19 20  2  0
 20 21  1  0
 20 22  1  0
 22 23  2  0
  7 24  2  0
 24  3  1  0
 14  8  1  0
 23 17  1  0
  1 25  1  0
  1 26  1  0
  1 27  1  0
  4 28  1  0
  5 29  1  0
  6 30  1  0
  9 31  1  0
 10 32  1  0
 13 33  1  0
 16 34  1  0
 16 35  1  0
 18 36  1  0
 19 37  1  0
 21 38  1  0
 22 39  1  0
 23 40  1  0
 24 41  1  0
M  END
>  <smiles>  (89) 
COc1cccc(-c2c[nH]c(=O)[nH]c2=NCc2ccc(O)cc2)c1

>  <score_type>  (89) 
oracle

>  <origin>  (89) 
adg

>  <m_score__min__energy>  (89) 
-7.9000000000000004

>  <m_primary>  (89) 
energy

$$$$
89:0
     RDKit          3D

 56 59  0  0  0  0  0  0  0  0999 V2000
   55.2960   29.8520   43.3840 O   0  0  0  0  0  0  0  0  0  0  0  0
   56.3420   29.6690   44.0580 C   0  0  0  0  0  0  0  0  0  0  0  0
   57.6410   30.2360   43.5640 C   0  0  0  0  0  0  0  0  0  0  0  0
   57.3770   31.9030   42.8730 S   0  0  0  0  0  0  0  0  0  0  0  0
   58.0740   32.7200   44.3030 C   0  0  0  0  0  0  0  0  0  0  0  0
   57.8670   32.2110   45.5440 N   0  0  0  0  0  0  0  0  0  0  0  0
   58.3800   32.8180   46.6460 C   0  0  0  0  0  0  0  0  0  0  0  0
   58.1740   32.3120   47.7810 O   0  0  0  0  0  0  0  0  0  0  0  0
   59.1330   33.9960   46.5090 C   0  0  0  0  0  0  0  0  0  0  0  0
   59.7480   34.6950   47.6950 C   0  0  0  0  0  0  0  0  0  0  0  0
   61.1510   34.1990   47.9270 C   0  0  0  0  0  0  0  0  0  0  0  0
   61.6890   34.1700   49.2250 C   0  0  0  0  0  0  0  0  0  0  0  0
   62.9760   33.6660   49.4430 C   0  0  0  0  0  0  0  0  0  0  0  0
   63.7300   33.1820   48.3700 C   0  0  0  0  0  0  0  0  0  0  0  0
   63.2000   33.2040   47.0780 C   0  0  0  0  0  0  0  0  0  0  0  0
   61.9140   33.7060   46.8550 C   0  0  0  0  0  0  0  0  0  0  0  0
   59.3440   34.4910   45.2140 C   0  0  0  0  0  0  0  0  0  0  0  0
   58.8110   33.8490   44.1450 N   0  0  0  0  0  0  0  0  0  0  0  0
   56.2620   28.8970   45.2650 N   0  0  0  0  0  0  0  0  0  0  0  0
   57.3650   28.4110   46.0480 C   0  0  0  0  0  0  0  0  0  0  0  0
   58.1730   29.3090   46.7690 C   0  0  0  0  0  0  0  0  0  0  0  0
   59.2020   28.8390   47.5840 C   0  0  0  0  0  0  0  0  0  0  0  0
   59.4210   27.4690   47.7140 C   0  0  0  0  0  0  0  0  0  0  0  0
   58.6080   26.5620   47.0320 C   0  0  0  0  0  0  0  0  0  0  0  0
   57.5740   27.0170   46.1920 C   0  0  0  0  0  0  0  0  0  0  0  0
   56.7460   26.0270   45.4650 C   0  0  0  0  0  0  0  0  0  0  0  0
   57.1220   25.5850   44.3450 O   0  0  0  0  0  0  0  0  0  0  0  0
   55.5210   25.5570   46.0440 N   0  0  0  0  0  0  0  0  0  0  0  0
   55.1750   24.1450   46.1750 C   0  0  0  0  0  0  0  0  0  0  0  0
   55.8500   23.3330   45.1030 C   0  0  0  0  0  0  0  0  0  0  0  0
   55.4230   23.4180   43.7670 C   0  0  0  0  0  0  0  0  0  0  0  0
   56.0300   22.6340   42.7820 C   0  0  0  0  0  0  0  0  0  0  0  0
   57.0630   21.7580   43.1230 C   0  0  0  0  0  0  0  0  0  0  0  0
   57.4950   21.6680   44.4490 C   0  0  0  0  0  0  0  0  0  0  0  0
   56.8920   22.4510   45.4380 C   0  0  0  0  0  0  0  0  0  0  0  0
   58.3523   30.2978   44.4008 H   0  0  0  0  0  0  0  0  0  0  0  0
   58.0432   29.5805   42.7775 H   0  0  0  0  0  0  0  0  0  0  0  0
   59.7733   35.7781   47.5044 H   0  0  0  0  0  0  0  0  0  0  0  0
   59.1421   34.4826   48.5882 H   0  0  0  0  0  0  0  0  0  0  0  0
   61.0963   34.5448   50.0725 H   0  0  0  0  0  0  0  0  0  0  0  0
   63.3950   33.6506   50.4600 H   0  0  0  0  0  0  0  0  0  0  0  0
   64.7407   32.7838   48.5432 H   0  0  0  0  0  0  0  0  0  0  0  0
   63.7954   32.8256   46.2340 H   0  0  0  0  0  0  0  0  0  0  0  0
   61.4982   33.7150   45.8367 H   0  0  0  0  0  0  0  0  0  0  0  0
   59.9429   35.4016   45.0651 H   0  0  0  0  0  0  0  0  0  0  0  0
   57.9914   30.3910   46.6891 H   0  0  0  0  0  0  0  0  0  0  0  0
   59.8422   29.5511   48.1254 H   0  0  0  0  0  0  0  0  0  0  0  0
   60.2359   27.1016   48.3551 H   0  0  0  0  0  0  0  0  0  0  0  0
   58.7769   25.4817   47.1521 H   0  0  0  0  0  0  0  0  0  0  0  0
   55.5003   23.7830   47.1615 H   0  0  0  0  0  0  0  0  0  0  0  0
   54.0855   24.0355   46.0699 H   0  0  0  0  0  0  0  0  0  0  0  0
   54.6076   24.1045   43.4952 H   0  0  0  0  0  0  0  0  0  0  0  0
   55.6938   22.7069   41.7372 H   0  0  0  0  0  0  0  0  0  0  0  0
   57.5369   21.1385   42.3473 H   0  0  0  0  0  0  0  0  0  0  0  0
   58.3109   20.9799   44.7151 H   0  0  0  0  0  0  0  0  0  0  0  0
   57.2339   22.3766   46.4809 H   0  0  0  0  0  0  0  0  0  0  0  0
  1  2  2  0
  2  3  1  0
  3  4  1  0
  4  5  1  0
  5  6  2  0
  6  7  1  0
  7  8  2  0
  7  9  1  0
  9 10  1  0
 10 11  1  0
 11 12  2  0
 12 13  1  0
 13 14  2  0
 14 15  1  0
 15 16  2  0
  9 17  2  0
 17 18  1  0
  2 19  1  0
 19 20  1  0
 20 21  2  0
 21 22  1  0
 22 23  2  0
 23 24  1  0
 24 25  2  0
 25 26  1  0
 26 27  2  0
 26 28  1  0
 28 29  1  0
 29 30  1  0
 30 31  2  0
 31 32  1  0
 32 33  2  0
 33 34  1  0
 34 35  2  0
 18  5  1  0
 25 20  1  0
 35 30  1  0
 16 11  1  0
  3 36  1  0
  3 37  1  0
 10 38  1  0
 10 39  1  0
 12 40  1  0
 13 41  1  0
 14 42  1  0
 15 43  1  0
 16 44  1  0
 17 45  1  0
 21 46  1  0
 22 47  1  0
 23 48  1  0
 24 49  1  0
 29 50  1  0
 29 51  1  0
 31 52  1  0
 32 53  1  0
 33 54  1  0
 34 55  1  0
 35 56  1  0
M  CHG  3  18  -1  19  -1  28  -1
M  END
>  <UniqueID>  (90) 
85

>  <SMILES>  (90) 
O=C(CSc1nc(=O)c(Cc2ccccc2)c[n-]1)[N-]c1ccccc1C(=O)[N-]Cc1ccccc1

>  <Energy>  (90) 
63.05724535676224

>  <Genealogy>  (90) 
O=C(CSc1nc(=O)c(Cc2ccccc2)c[n-]1)[N-]c1ccccc1C(=O)[N-]Cc1ccccc1 (protonated)
O=C(CSc1nc(=O)c(Cc2ccccc2)c[n-]1)[N-]c1ccccc1C(=O)[N-]Cc1ccccc1 (3D coordinates assigned)
O=C(CSc1nc(=O)c(Cc2ccccc2)c[n-]1)[N-]c1ccccc1C(=O)[N-]Cc1ccccc1 (optimized conformer: 63.05724535676224 kcal/mol)

>  <smiles>  (90) 
O=C(CSc1nc(=O)c(Cc2ccccc2)c[nH]1)Nc1ccccc1C(=O)NCc1ccccc1

>  <score_type>  (90) 
oracle

>  <origin>  (90) 
adg

>  <m_score__min__energy>  (90) 
-16.309999999999999

>  <m_primary>  (90) 
energy

$$$$
90:0
     RDKit          3D

 42 44  0  0  0  0  0  0  0  0999 V2000
   55.1660   29.6740   44.8550 O   0  0  0  0  0  0  0  0  0  0  0  0
   56.3890   29.3680   44.8430 C   0  0  0  0  0  0  0  0  0  0  0  0
   57.3590   30.2640   44.2760 N   0  0  0  0  0  0  0  0  0  0  0  0
   57.6160   31.4830   44.6520 C   0  0  0  0  0  0  0  0  0  0  0  0
   58.1510   32.3850   43.7230 C   0  0  0  0  0  0  0  0  0  0  0  0
   58.4370   33.6930   44.1210 C   0  0  0  0  0  0  0  0  0  0  0  0
   58.1910   34.0890   45.4360 C   0  0  0  0  0  0  0  0  0  0  0  0
   57.6610   33.1640   46.3390 C   0  0  0  0  0  0  0  0  0  0  0  0
   57.3880   31.8950   45.9320 N   0  0  0  0  0  0  0  0  0  0  0  0
   56.7940   28.0380   45.3460 C   0  0  0  0  0  0  0  0  0  0  0  0
   55.7930   27.1610   45.6330 N   0  0  0  0  0  0  0  0  0  0  0  0
   56.0430   25.9020   46.0620 C   0  0  0  0  0  0  0  0  0  0  0  0
   55.0890   25.1230   46.3150 O   0  0  0  0  0  0  0  0  0  0  0  0
   57.3190   25.4790   46.2100 N   0  0  0  0  0  0  0  0  0  0  0  0
   58.3680   26.3020   45.9590 C   0  0  0  0  0  0  0  0  0  0  0  0
   59.5360   25.8540   46.1000 O   0  0  0  0  0  0  0  0  0  0  0  0
   58.1450   27.6340   45.5420 C   0  0  0  0  0  0  0  0  0  0  0  0
   59.3280   28.5800   45.3710 C   0  0  0  0  0  0  0  0  0  0  0  0
   59.8990   29.0930   46.7080 C   0  0  0  0  0  0  0  0  0  0  0  0
   60.9620   30.1950   46.5540 C   0  0  0  0  0  0  0  0  0  0  0  0
   60.6190   31.4520   47.3150 C   0  0  0  0  0  0  0  0  0  0  0  0
   59.7050   31.4110   48.3810 C   0  0  0  0  0  0  0  0  0  0  0  0
   59.3860   32.5760   49.0830 C   0  0  0  0  0  0  0  0  0  0  0  0
   59.9690   33.7980   48.7230 C   0  0  0  0  0  0  0  0  0  0  0  0
   59.6610   34.9650   49.4180 O   0  0  0  0  0  0  0  0  0  0  0  0
   60.8670   33.8480   47.6520 C   0  0  0  0  0  0  0  0  0  0  0  0
   61.1880   32.6840   46.9470 C   0  0  0  0  0  0  0  0  0  0  0  0
   58.3443   32.0656   42.6883 H   0  0  0  0  0  0  0  0  0  0  0  0
   58.8554   34.4096   43.3989 H   0  0  0  0  0  0  0  0  0  0  0  0
   58.4117   35.1174   45.7580 H   0  0  0  0  0  0  0  0  0  0  0  0
   57.4644   33.4620   47.3795 H   0  0  0  0  0  0  0  0  0  0  0  0
   60.1256   28.0473   44.8325 H   0  0  0  0  0  0  0  0  0  0  0  0
   58.9652   29.4569   44.8147 H   0  0  0  0  0  0  0  0  0  0  0  0
   59.0686   29.4950   47.3071 H   0  0  0  0  0  0  0  0  0  0  0  0
   60.3951   28.2381   47.1906 H   0  0  0  0  0  0  0  0  0  0  0  0
   61.9229   29.8103   46.9265 H   0  0  0  0  0  0  0  0  0  0  0  0
   61.0124   30.4583   45.4872 H   0  0  0  0  0  0  0  0  0  0  0  0
   59.2379   30.4563   48.6646 H   0  0  0  0  0  0  0  0  0  0  0  0
   58.6748   32.5337   49.9211 H   0  0  0  0  0  0  0  0  0  0  0  0
   59.0710   35.6830   49.0110 H   0  0  0  0  0  0  0  0  0  0  0  0
   61.3225   34.8067   47.3632 H   0  0  0  0  0  0  0  0  0  0  0  0
   61.8889   32.7323   46.1006 H   0  0  0  0  0  0  0  0  0  0  0  0
  1  2  2  0
  2  3  1  0
  3  4  2  3
  4  5  1  0
  5  6  2  0
  6  7  1  0
  7  8  2  0
  8  9  1  0
  2 10  1  0
 10 11  1  0
 11 12  1  0
 12 13  2  0
 12 14  1  0
 14 15  1  0
 15 16  2  0
 15 17  1  0
 17 18  1  0
 18 19  1  0
 19 20  1  0
 20 21  1  0
 21 22  2  0
 22 23  1  0
 23 24  2  0
 24 25  1  0
 24 26  1  0
 26 27  2  0
  9  4  1  0
 17 10  2  0
 27 21  1  0
  5 28  1  0
  6 29  1  0
  7 30  1  0
  8 31  1  0
 18 32  1  0
 18 33  1  0
 19 34  1  0
 19 35  1  0
 20 36  1  0
 20 37  1  0
 22 38  1  0
 23 39  1  0
 25 40  1  0
 26 41  1  0
 27 42  1  0
M  CHG  3   9  -1  11  -1  14  -1
M  END
>  <UniqueID>  (91) 
86

>  <SMILES>  (91) 
O=C(N=c1cccc[n-]1)c1[n-]c(=O)[n-]c(=O)c1CCCc1ccc(O)cc1

>  <Energy>  (91) 
52.044709603663314

>  <Genealogy>  (91) 
O=C(N=c1cccc[n-]1)c1[n-]c(=O)[n-]c(=O)c1CCCc1ccc(O)cc1 (protonated)
O=C(N=c1cccc[n-]1)c1[n-]c(=O)[n-]c(=O)c1CCCc1ccc(O)cc1 (3D coordinates assigned)
O=C(N=c1cccc[n-]1)c1[n-]c(=O)[n-]c(=O)c1CCCc1ccc(O)cc1 (optimized conformer: 52.044709603663314 kcal/mol)

>  <smiles>  (91) 
O=C(N=c1cccc[nH]1)c1[nH]c(=O)[nH]c(=O)c1CCCc1ccc(O)cc1

>  <score_type>  (91) 
oracle

>  <origin>  (91) 
adg

>  <m_score__min__energy>  (91) 
-13.84

>  <m_primary>  (91) 
energy

$$$$
91:0
     RDKit          3D

 49 51  0  0  0  0  0  0  0  0999 V2000
   55.8980   25.4400   46.5430 N   0  0  0  0  0  0  0  0  0  0  0  0
   56.7340   26.2270   46.3970 C   0  0  0  0  0  0  0  0  0  0  0  0
   57.7760   27.2080   46.2140 C   0  0  0  0  0  0  0  0  0  0  0  0
   57.7730   27.9430   45.0860 C   0  0  0  0  0  0  0  0  0  0  0  0
   57.5000   29.3980   45.0370 C   0  0  0  0  0  0  0  0  0  0  0  0
   56.1930   29.8560   44.8560 C   0  0  0  0  0  0  0  0  0  0  0  0
   55.1420   28.9600   44.7000 O   0  0  0  0  0  0  0  0  0  0  0  0
   55.9400   31.1860   44.8450 N   0  0  0  0  0  0  0  0  0  0  0  0
   56.9290   32.1000   45.0030 C   0  0  0  0  0  0  0  0  0  0  0  0
   56.6330   33.3260   44.9920 O   0  0  0  0  0  0  0  0  0  0  0  0
   58.2300   31.6930   45.1650 N   0  0  0  0  0  0  0  0  0  0  0  0
   59.3030   32.6970   45.3250 C   0  0  0  0  0  0  0  0  0  0  0  0
   59.2860   33.3210   46.7270 C   0  0  0  0  0  0  0  0  0  0  0  0
   60.6830   33.5020   47.2740 C   0  0  0  0  0  0  0  0  0  0  0  0
   61.7630   33.5270   46.3740 C   0  0  0  0  0  0  0  0  0  0  0  0
   63.0660   33.7420   46.8320 C   0  0  0  0  0  0  0  0  0  0  0  0
   63.3040   33.9400   48.1930 C   0  0  0  0  0  0  0  0  0  0  0  0
   62.2420   33.9230   49.0990 C   0  0  0  0  0  0  0  0  0  0  0  0
   60.9320   33.7070   48.6530 C   0  0  0  0  0  0  0  0  0  0  0  0
   59.6410   33.7140   49.8490 Cl  0  0  0  0  0  0  0  0  0  0  0  0
   58.5270   30.3520   45.1500 C   0  0  0  0  0  0  0  0  0  0  0  0
   59.7260   29.9630   45.2310 O   0  0  0  0  0  0  0  0  0  0  0  0
   58.7840   27.3640   47.2910 C   0  0  0  0  0  0  0  0  0  0  0  0
   59.7170   26.5220   47.3920 O   0  0  0  0  0  0  0  0  0  0  0  0
   58.6610   28.4120   48.2640 N   0  0  0  0  0  0  0  0  0  0  0  0
   59.7720   29.1450   48.8130 C   0  0  0  0  0  0  0  0  0  0  0  0
   60.5770   29.9080   47.9550 C   0  0  0  0  0  0  0  0  0  0  0  0
   61.6910   30.5900   48.4480 C   0  0  0  0  0  0  0  0  0  0  0  0
   62.0300   30.4990   49.7990 C   0  0  0  0  0  0  0  0  0  0  0  0
   61.2650   29.7060   50.6700 C   0  0  0  0  0  0  0  0  0  0  0  0
   61.6150   29.6230   52.1350 C   0  0  0  0  0  0  0  0  0  0  0  0
   62.4230   28.5260   52.3840 F   0  0  0  0  0  0  0  0  0  0  0  0
   60.4720   29.5000   52.9060 F   0  0  0  0  0  0  0  0  0  0  0  0
   62.2870   30.7720   52.5080 F   0  0  0  0  0  0  0  0  0  0  0  0
   60.1210   29.0530   50.1750 C   0  0  0  0  0  0  0  0  0  0  0  0
   57.9876   27.4287   44.1376 H   0  0  0  0  0  0  0  0  0  0  0  0
   60.2756   32.2094   45.1627 H   0  0  0  0  0  0  0  0  0  0  0  0
   59.1383   33.4979   44.5891 H   0  0  0  0  0  0  0  0  0  0  0  0
   58.7935   34.3032   46.6743 H   0  0  0  0  0  0  0  0  0  0  0  0
   58.7396   32.6422   47.3984 H   0  0  0  0  0  0  0  0  0  0  0  0
   61.5809   33.3760   45.2997 H   0  0  0  0  0  0  0  0  0  0  0  0
   63.9041   33.7552   46.1196 H   0  0  0  0  0  0  0  0  0  0  0  0
   64.3298   34.1097   48.5522 H   0  0  0  0  0  0  0  0  0  0  0  0
   62.4354   34.0803   50.1704 H   0  0  0  0  0  0  0  0  0  0  0  0
   57.6960   28.6910   48.5510 H   0  0  0  0  0  0  0  0  0  0  0  0
   60.3288   29.9697   46.8851 H   0  0  0  0  0  0  0  0  0  0  0  0
   62.3038   31.2013   47.7693 H   0  0  0  0  0  0  0  0  0  0  0  0
   62.9004   31.0510   50.1833 H   0  0  0  0  0  0  0  0  0  0  0  0
   59.4922   28.4642   50.8590 H   0  0  0  0  0  0  0  0  0  0  0  0
  1  2  3  0
  2  3  1  0
  3  4  2  3
  4  5  1  0
  5  6  2  0
  6  7  1  0
  6  8  1  0
  8  9  1  0
  9 10  2  0
  9 11  1  0
 11 12  1  0
 12 13  1  0
 13 14  1  0
 14 15  2  0
 15 16  1  0
 16 17  2  0
 17 18  1  0
 18 19  2  0
 19 20  1  0
 11 21  1  0
 21 22  2  0
  3 23  1  0
 23 24  2  0
 23 25  1  0
 25 26  1  0
 26 27  2  0
 27 28  1  0
 28 29  2  0
 29 30  1  0
 30 31  1  0
 31 32  1  0
 31 33  1  0
 31 34  1  0
 30 35  2  0
 21  5  1  0
 35 26  1  0
 19 14  1  0
  4 36  1  0
 12 37  1  0
 12 38  1  0
 13 39  1  0
 13 40  1  0
 15 41  1  0
 16 42  1  0
 17 43  1  0
 18 44  1  0
 25 45  1  0
 27 46  1  0
 28 47  1  0
 29 48  1  0
 35 49  1  0
M  CHG  2   7  -1   8  -1
M  END
>  <UniqueID>  (92) 
87

>  <SMILES>  (92) 
N#CC(=Cc1c([O-])[n-]c(=O)n(CCc2ccccc2Cl)c1=O)C(=O)Nc1cccc(C(F)(F)F)c1

>  <Energy>  (92) 
64.31555713037743

>  <Genealogy>  (92) 
N#CC(=Cc1c([O-])[n-]c(=O)n(CCc2ccccc2Cl)c1=O)C(=O)Nc1cccc(C(F)(F)F)c1 (protonated)
N#CC(=Cc1c([O-])[n-]c(=O)n(CCc2ccccc2Cl)c1=O)C(=O)Nc1cccc(C(F)(F)F)c1 (3D coordinates assigned)
N#CC(=Cc1c([O-])[n-]c(=O)n(CCc2ccccc2Cl)c1=O)C(=O)Nc1cccc(C(F)(F)F)c1 (optimized conformer: 64.31555713037743 kcal/mol)

>  <smiles>  (92) 
N#CC(=Cc1c(O)[nH]c(=O)n(CCc2ccccc2Cl)c1=O)C(=O)Nc1cccc(C(F)(F)F)c1

>  <score_type>  (92) 
oracle

>  <origin>  (92) 
adg

>  <m_score__min__energy>  (92) 
-13.51

>  <m_primary>  (92) 
energy

$$$$
