0:0
     RDKit          3D

 47 49  0  0  0  0  0  0  0  0999 V2000
   62.7480   31.2470   50.1020 C   0  0  0  0  0  0  0  0  0  0  0  0
   62.9360   31.9120   48.8040 N   0  0  0  0  0  0  0  0  0  0  0  0
   61.7960   31.6170   47.9080 C   0  0  0  0  0  0  0  0  0  0  0  0
   61.7250   32.6230   46.7500 C   0  0  0  0  0  0  0  0  0  0  0  0
   61.5760   34.0210   47.2200 N   0  0  0  0  0  0  0  0  0  0  0  0
   59.9400   34.5910   46.9920 S   0  0  0  0  0  0  0  0  0  0  0  0
   59.9470   35.8690   46.2000 O   0  0  0  0  0  0  0  0  0  0  0  0
   59.3060   34.8460   48.3320 O   0  0  0  0  0  0  0  0  0  0  0  0
   59.0130   33.3830   46.1060 C   0  0  0  0  0  0  0  0  0  0  0  0
   58.5120   32.2480   46.7560 C   0  0  0  0  0  0  0  0  0  0  0  0
   57.7880   31.2890   46.0410 C   0  0  0  0  0  0  0  0  0  0  0  0
   57.5550   31.4630   44.6690 C   0  0  0  0  0  0  0  0  0  0  0  0
   56.6780   30.2440   43.7450 S   0  0  0  0  0  0  0  0  0  0  0  0
   56.2690   30.8320   42.4250 O   0  0  0  0  0  0  0  0  0  0  0  0
   55.4370   29.8260   44.4850 O   0  0  0  0  0  0  0  0  0  0  0  0
   57.6850   28.8550   43.4680 N   0  0  0  0  0  0  0  0  0  0  0  0
   57.7110   28.0160   44.6660 C   0  0  0  0  0  0  0  0  0  0  0  0
   58.8920   28.3780   45.5080 C   0  0  0  0  0  0  0  0  0  0  0  0
   59.1280   27.9450   46.7970 C   0  0  0  0  0  0  0  0  0  0  0  0
   60.3370   28.5010   47.1570 C   0  0  0  0  0  0  0  0  0  0  0  0
   60.7630   29.2310   46.0650 C   0  0  0  0  0  0  0  0  0  0  0  0
   59.8820   29.1360   45.0970 O   0  0  0  0  0  0  0  0  0  0  0  0
   58.0560   32.5990   44.0200 C   0  0  0  0  0  0  0  0  0  0  0  0
   58.7790   33.5560   44.7360 C   0  0  0  0  0  0  0  0  0  0  0  0
   61.9850   34.2270   48.6240 C   0  0  0  0  0  0  0  0  0  0  0  0
   63.2040   33.3630   48.9740 C   0  0  0  0  0  0  0  0  0  0  0  0
   62.9502   31.9621   50.9130 H   0  0  0  0  0  0  0  0  0  0  0  0
   61.7123   30.8851   50.1820 H   0  0  0  0  0  0  0  0  0  0  0  0
   63.4409   30.3964   50.1820 H   0  0  0  0  0  0  0  0  0  0  0  0
   61.9159   30.6040   47.4964 H   0  0  0  0  0  0  0  0  0  0  0  0
   60.8663   31.6911   48.4913 H   0  0  0  0  0  0  0  0  0  0  0  0
   62.6496   32.5463   46.1590 H   0  0  0  0  0  0  0  0  0  0  0  0
   60.8381   32.3769   46.1477 H   0  0  0  0  0  0  0  0  0  0  0  0
   58.6888   32.1105   47.8330 H   0  0  0  0  0  0  0  0  0  0  0  0
   57.4007   30.3970   46.5552 H   0  0  0  0  0  0  0  0  0  0  0  0
   58.6540   29.2140   43.3010 H   0  0  0  0  0  0  0  0  0  0  0  0
   56.7880   28.1738   45.2432 H   0  0  0  0  0  0  0  0  0  0  0  0
   57.7846   26.9592   44.3696 H   0  0  0  0  0  0  0  0  0  0  0  0
   58.4864   27.2934   47.4084 H   0  0  0  0  0  0  0  0  0  0  0  0
   60.8571   28.3863   48.1194 H   0  0  0  0  0  0  0  0  0  0  0  0
   61.6996   29.8056   46.0142 H   0  0  0  0  0  0  0  0  0  0  0  0
   57.8795   32.7378   42.9432 H   0  0  0  0  0  0  0  0  0  0  0  0
   59.1658   34.4484   44.2222 H   0  0  0  0  0  0  0  0  0  0  0  0
   62.2405   35.2866   48.7725 H   0  0  0  0  0  0  0  0  0  0  0  0
   61.1500   33.9366   49.2785 H   0  0  0  0  0  0  0  0  0  0  0  0
   64.0392   33.6475   48.3171 H   0  0  0  0  0  0  0  0  0  0  0  0
   63.4468   33.5379   50.0325 H   0  0  0  0  0  0  0  0  0  0  0  0
  1  2  1  0
  2  3  1  0
  3  4  1  0
  4  5  1  0
  5  6  1  0
  6  7  2  0
  6  8  2  0
  6  9  1  0
  9 10  2  0
 10 11  1  0
 11 12  2  0
 12 13  1  0
 13 14  2  0
 13 15  2  0
 13 16  1  0
 16 17  1  0
 17 18  1  0
 18 19  2  0
 19 20  1  0
 20 21  2  0
 21 22  1  0
 12 23  1  0
 23 24  2  0
  5 25  1  0
 25 26  1  0
 26  2  1  0
 24  9  1  0
 22 18  1  0
  1 27  1  0
  1 28  1  0
  1 29  1  0
  3 30  1  0
  3 31  1  0
  4 32  1  0
  4 33  1  0
 10 34  1  0
 11 35  1  0
 16 36  1  0
 17 37  1  0
 17 38  1  0
 19 39  1  0
 20 40  1  0
 21 41  1  0
 23 42  1  0
 24 43  1  0
 25 44  1  0
 25 45  1  0
 26 46  1  0
 26 47  1  0
M  END
>  <UniqueID>  (1) 
1

>  <SMILES>  (1) 
CN1CCN(S(=O)(=O)c2ccc(S(=O)(=O)NCc3ccco3)cc2)CC1

>  <Energy>  (1) 
80.09129388663467

>  <Genealogy>  (1) 
CN1CCN(S(=O)(=O)c2ccc(S(=O)(=O)NCc3ccco3)cc2)CC1 (3D coordinates assigned)
CN1CCN(S(=O)(=O)c2ccc(S(=O)(=O)NCc3ccco3)cc2)CC1 (nonaromatic ring conformer: 80.09129388663467 kcal/mol)

>  <smiles>  (1) 
CN1CCN(S(=O)(=O)c2ccc(S(=O)(=O)NCc3ccco3)cc2)CC1

>  <score_type>  (1) 
oracle

>  <origin>  (1) 
adg

>  <m_score__min__energy>  (1) 
-8.9800000000000004

>  <m_primary>  (1) 
energy

$$$$
1:0
     RDKit          3D

 31 33  0  0  0  0  0  0  0  0999 V2000
   54.8280   23.9880   46.6110 H   0  0  0  0  0  0  0  0  0  0  0  0
   55.8380   24.0520   46.6400 O   0  0  0  0  0  0  0  0  0  0  0  0
   56.5030   25.2350   46.3220 C   0  0  0  0  0  0  0  0  0  0  0  0
   57.9040   25.2920   46.3420 C   0  0  0  0  0  0  0  0  0  0  0  0
   58.4856   24.3982   46.6119 H   0  0  0  0  0  0  0  0  0  0  0  0
   58.5630   26.4810   46.0200 C   0  0  0  0  0  0  0  0  0  0  0  0
   59.6616   26.5246   46.0546 H   0  0  0  0  0  0  0  0  0  0  0  0
   57.8290   27.6220   45.6520 C   0  0  0  0  0  0  0  0  0  0  0  0
   58.5040   28.9050   45.3580 C   0  0  0  0  0  0  0  0  0  0  0  0
   59.5939   28.9476   45.5008 H   0  0  0  0  0  0  0  0  0  0  0  0
   57.8890   30.0290   44.9280 C   0  0  0  0  0  0  0  0  0  0  0  0
   56.7160   30.0090   44.0200 C   0  0  0  0  0  0  0  0  0  0  0  0
   56.8761   29.8728   42.9403 H   0  0  0  0  0  0  0  0  0  0  0  0
   55.5420   30.1440   44.4540 O   0  0  0  0  0  0  0  0  0  0  0  0
   58.3610   31.3500   45.4120 C   0  0  0  0  0  0  0  0  0  0  0  0
   58.4240   32.4480   44.6110 N   0  0  0  0  0  0  0  0  0  0  0  0
   58.8950   33.3920   45.4370 C   0  0  0  0  0  0  0  0  0  0  0  0
   59.1590   34.7290   45.1450 C   0  0  0  0  0  0  0  0  0  0  0  0
   58.9852   35.1370   44.1384 H   0  0  0  0  0  0  0  0  0  0  0  0
   59.6560   35.5390   46.1840 C   0  0  0  0  0  0  0  0  0  0  0  0
   59.8765   36.5997   45.9932 H   0  0  0  0  0  0  0  0  0  0  0  0
   59.8730   34.9960   47.4710 C   0  0  0  0  0  0  0  0  0  0  0  0
   60.2627   35.6362   48.2762 H   0  0  0  0  0  0  0  0  0  0  0  0
   59.5930   33.6400   47.7280 C   0  0  0  0  0  0  0  0  0  0  0  0
   59.7557   33.2039   48.7247 H   0  0  0  0  0  0  0  0  0  0  0  0
   59.1030   32.8710   46.6760 C   0  0  0  0  0  0  0  0  0  0  0  0
   58.7730   31.5720   46.6920 N   0  0  0  0  0  0  0  0  0  0  0  0
   56.4270   27.5680   45.6620 C   0  0  0  0  0  0  0  0  0  0  0  0
   55.8437   28.4672   45.4148 H   0  0  0  0  0  0  0  0  0  0  0  0
   55.7670   26.3790   45.9840 C   0  0  0  0  0  0  0  0  0  0  0  0
   54.3780   26.3350   45.9720 O   0  0  0  0  0  0  0  0  0  0  0  0
  1  2  1  0
  2  3  1  0
  3  4  2  0
  4  5  1  0
  4  6  1  0
  6  7  1  0
  6  8  2  0
  8  9  1  0
  9 10  1  0
  9 11  2  0
 11 12  1  0
 12 13  1  0
 12 14  2  0
 11 15  1  0
 15 16  2  0
 16 17  1  0
 17 18  2  0
 18 19  1  0
 18 20  1  0
 20 21  1  0
 20 22  2  0
 22 23  1  0
 22 24  1  0
 24 25  1  0
 24 26  2  0
 26 27  1  0
  8 28  1  0
 28 29  1  0
 28 30  2  0
 30 31  1  0
 30  3  1  0
 27 15  1  0
 26 17  1  0
M  CHG  2  27  -1  31  -1
M  END
>  <UniqueID>  (2) 
2

>  <SMILES>  (2) 
O=C/C(=C\c1ccc(O)c([O-])c1)c1nc2ccccc2[n-]1

>  <Energy>  (2) 
78.03214642008189

>  <Genealogy>  (2) 
O=CC(=Cc1ccc(O)c([O-])c1)c1nc2ccccc2[n-]1 (protonated)
O=C/C(=C\c1ccc(O)c([O-])c1)c1nc2ccccc2[n-]1 (cis-trans isomerization)
O=C/C(=C\c1ccc(O)c([O-])c1)c1nc2ccccc2[n-]1 (3D coordinates assigned)
O=C/C(=C\c1ccc(O)c([O-])c1)c1nc2ccccc2[n-]1 (optimized conformer: 78.03214642008189 kcal/mol)

>  <smiles>  (2) 
O=CC(=Cc1ccc(O)c(O)c1)c1nc2ccccc2[nH]1

>  <score_type>  (2) 
oracle

>  <origin>  (2) 
adg

>  <m_score__min__energy>  (2) 
-12.59

>  <m_primary>  (2) 
energy

$$$$
2:0
     RDKit          3D

 48 50  0  0  0  0  0  0  0  0999 V2000
   55.5340   29.6360   44.6590 O   0  0  0  0  0  0  0  0  0  0  0  0
   56.7730   29.3990   44.6770 C   0  0  0  0  0  0  0  0  0  0  0  0
   57.2560   28.4020   45.5850 N   0  0  0  0  0  0  0  0  0  0  0  0
   58.9240   28.0600   45.9220 S   0  0  0  0  0  0  0  0  0  0  0  0
   59.7810   28.7080   44.8710 O   0  0  0  0  0  0  0  0  0  0  0  0
   59.1340   26.5710   45.8840 O   0  0  0  0  0  0  0  0  0  0  0  0
   59.3840   28.6870   47.4930 C   0  0  0  0  0  0  0  0  0  0  0  0
   58.8970   29.8500   48.0760 C   0  0  0  0  0  0  0  0  0  0  0  0
   59.3940   30.0610   49.3670 C   0  0  0  0  0  0  0  0  0  0  0  0
   60.2640   29.0610   49.7840 C   0  0  0  0  0  0  0  0  0  0  0  0
   61.0560   28.9800   51.3440 Cl  0  0  0  0  0  0  0  0  0  0  0  0
   60.4270   27.9160   48.5640 S   0  0  0  0  0  0  0  0  0  0  0  0
   57.6470   30.0410   43.7250 N   0  0  0  0  0  0  0  0  0  0  0  0
   57.0210   31.2310   43.1210 C   0  0  0  0  0  0  0  0  0  0  0  0
   58.0060   32.4080   43.0300 C   0  0  0  0  0  0  0  0  0  0  0  0
   58.3280   32.9880   44.3840 C   0  0  0  0  0  0  0  0  0  0  0  0
   57.6470   32.5430   45.5270 C   0  0  0  0  0  0  0  0  0  0  0  0
   57.9370   33.0920   46.7800 C   0  0  0  0  0  0  0  0  0  0  0  0
   58.9080   34.1010   46.9070 C   0  0  0  0  0  0  0  0  0  0  0  0
   59.2440   34.6760   48.1430 O   0  0  0  0  0  0  0  0  0  0  0  0
   60.0440   34.0560   49.1510 C   0  0  0  0  0  0  0  0  0  0  0  0
   61.3110   33.4930   48.5630 C   0  0  0  0  0  0  0  0  0  0  0  0
   62.5180   34.2060   48.6540 C   0  0  0  0  0  0  0  0  0  0  0  0
   63.6920   33.6750   48.1100 C   0  0  0  0  0  0  0  0  0  0  0  0
   63.6680   32.4360   47.4640 C   0  0  0  0  0  0  0  0  0  0  0  0
   62.4690   31.7270   47.3560 C   0  0  0  0  0  0  0  0  0  0  0  0
   61.2920   32.2550   47.8970 C   0  0  0  0  0  0  0  0  0  0  0  0
   59.5730   34.5550   45.7600 C   0  0  0  0  0  0  0  0  0  0  0  0
   59.2860   34.0040   44.5080 C   0  0  0  0  0  0  0  0  0  0  0  0
   58.1948   30.5330   47.5756 H   0  0  0  0  0  0  0  0  0  0  0  0
   59.1240   30.9284   49.9873 H   0  0  0  0  0  0  0  0  0  0  0  0
   58.5200   30.3490   44.2050 H   0  0  0  0  0  0  0  0  0  0  0  0
   57.8850   29.3450   42.9810 H   0  0  0  0  0  0  0  0  0  0  0  0
   56.6752   30.9765   42.1082 H   0  0  0  0  0  0  0  0  0  0  0  0
   56.1794   31.5370   43.7599 H   0  0  0  0  0  0  0  0  0  0  0  0
   58.9383   32.0545   42.5654 H   0  0  0  0  0  0  0  0  0  0  0  0
   57.5330   33.1981   42.4283 H   0  0  0  0  0  0  0  0  0  0  0  0
   56.8812   31.7584   45.4371 H   0  0  0  0  0  0  0  0  0  0  0  0
   57.4023   32.7324   47.6715 H   0  0  0  0  0  0  0  0  0  0  0  0
   60.3031   34.8036   49.9151 H   0  0  0  0  0  0  0  0  0  0  0  0
   59.4684   33.2321   49.5981 H   0  0  0  0  0  0  0  0  0  0  0  0
   62.5399   35.1852   49.1548 H   0  0  0  0  0  0  0  0  0  0  0  0
   64.6361   34.2337   48.1908 H   0  0  0  0  0  0  0  0  0  0  0  0
   64.5935   32.0188   47.0404 H   0  0  0  0  0  0  0  0  0  0  0  0
   62.4505   30.7530   46.8452 H   0  0  0  0  0  0  0  0  0  0  0  0
   60.3476   31.6992   47.8009 H   0  0  0  0  0  0  0  0  0  0  0  0
   60.3269   35.3514   45.8457 H   0  0  0  0  0  0  0  0  0  0  0  0
   59.8146   34.3695   43.6152 H   0  0  0  0  0  0  0  0  0  0  0  0
  1  2  2  0
  2  3  1  0
  3  4  1  0
  4  5  2  0
  4  6  2  0
  4  7  1  0
  7  8  2  0
  8  9  1  0
  9 10  2  0
 10 11  1  0
 10 12  1  0
  2 13  1  0
 13 14  1  0
 14 15  1  0
 15 16  1  0
 16 17  2  0
 17 18  1  0
 18 19  2  0
 19 20  1  0
 20 21  1  0
 21 22  1  0
 22 23  2  0
 23 24  1  0
 24 25  2  0
 25 26  1  0
 26 27  2  0
 19 28  1  0
 28 29  2  0
 12  7  1  0
 29 16  1  0
 27 22  1  0
  8 30  1  0
  9 31  1  0
 13 32  1  0
 13 33  1  0
 14 34  1  0
 14 35  1  0
 15 36  1  0
 15 37  1  0
 17 38  1  0
 18 39  1  0
 21 40  1  0
 21 41  1  0
 23 42  1  0
 24 43  1  0
 25 44  1  0
 26 45  1  0
 27 46  1  0
 28 47  1  0
 29 48  1  0
M  CHG  2   3  -1  13   1
M  END
>  <UniqueID>  (3) 
3

>  <SMILES>  (3) 
O=C([N-]S(=O)(=O)c1ccc(Cl)s1)[NH2+]CCc1ccc(OCc2ccccc2)cc1

>  <Energy>  (3) 
74.46568019340833

>  <Genealogy>  (3) 
O=C([N-]S(=O)(=O)c1ccc(Cl)s1)[NH2+]CCc1ccc(OCc2ccccc2)cc1 (protonated)
O=C([N-]S(=O)(=O)c1ccc(Cl)s1)[NH2+]CCc1ccc(OCc2ccccc2)cc1 (3D coordinates assigned)
O=C([N-]S(=O)(=O)c1ccc(Cl)s1)[NH2+]CCc1ccc(OCc2ccccc2)cc1 (optimized conformer: 74.46568019340833 kcal/mol)

>  <smiles>  (3) 
O=C(NCCc1ccc(OCc2ccccc2)cc1)NS(=O)(=O)c1ccc(Cl)s1

>  <score_type>  (3) 
oracle

>  <origin>  (3) 
adg

>  <m_score__min__energy>  (3) 
-8.9900000000000002

>  <m_primary>  (3) 
energy

$$$$
3:0
     RDKit          3D

 47 49  0  0  0  0  0  0  0  0999 V2000
   63.3450   34.0830   46.3450 C   0  0  0  0  0  0  0  0  0  0  0  0
   62.3070   33.1340   46.8540 C   0  0  0  0  0  0  0  0  0  0  0  0
   62.6220   31.9790   47.4850 N   0  0  0  0  0  0  0  0  0  0  0  0
   61.4570   31.4530   47.9020 C   0  0  0  0  0  0  0  0  0  0  0  0
   61.2720   30.2720   48.6200 C   0  0  0  0  0  0  0  0  0  0  0  0
   59.9580   29.9160   48.9760 C   0  0  0  0  0  0  0  0  0  0  0  0
   58.8710   30.7430   48.6140 C   0  0  0  0  0  0  0  0  0  0  0  0
   59.0880   31.9320   47.8920 C   0  0  0  0  0  0  0  0  0  0  0  0
   60.4020   32.2560   47.5520 C   0  0  0  0  0  0  0  0  0  0  0  0
   60.9210   33.3320   46.8620 C   0  0  0  0  0  0  0  0  0  0  0  0
   60.1560   34.4800   46.3350 C   0  0  0  0  0  0  0  0  0  0  0  0
   58.8180   34.5420   46.2840 C   0  0  0  0  0  0  0  0  0  0  0  0
   57.9730   33.7960   45.3270 C   0  0  0  0  0  0  0  0  0  0  0  0
   56.7220   33.7450   45.4790 O   0  0  0  0  0  0  0  0  0  0  0  0
   58.5840   33.1480   44.2040 N   0  0  0  0  0  0  0  0  0  0  0  0
   57.8540   32.2060   43.3550 C   0  0  0  0  0  0  0  0  0  0  0  0
   57.6640   30.9010   44.0820 C   0  0  0  0  0  0  0  0  0  0  0  0
   56.4130   30.2660   44.0930 C   0  0  0  0  0  0  0  0  0  0  0  0
   56.2200   29.1040   44.8450 C   0  0  0  0  0  0  0  0  0  0  0  0
   57.2720   28.5710   45.6130 C   0  0  0  0  0  0  0  0  0  0  0  0
   57.0930   27.4240   46.4550 N   0  0  0  0  0  0  0  0  0  0  0  0
   56.2660   25.9680   46.0120 S   0  0  0  0  0  0  0  0  0  0  0  0
   57.0300   25.2430   44.5740 C   0  0  0  0  0  0  0  0  0  0  0  0
   56.2790   25.0040   47.1620 O   0  0  0  0  0  0  0  0  0  0  0  0
   54.8410   26.3040   45.6760 O   0  0  0  0  0  0  0  0  0  0  0  0
   58.5290   29.1910   45.5760 C   0  0  0  0  0  0  0  0  0  0  0  0
   59.5600   28.6870   46.3010 F   0  0  0  0  0  0  0  0  0  0  0  0
   58.7240   30.3500   44.8180 C   0  0  0  0  0  0  0  0  0  0  0  0
   63.8599   34.5538   47.1954 H   0  0  0  0  0  0  0  0  0  0  0  0
   64.0753   33.5337   45.7326 H   0  0  0  0  0  0  0  0  0  0  0  0
   62.8632   34.8594   45.7326 H   0  0  0  0  0  0  0  0  0  0  0  0
   63.5790   31.5920   47.6470 H   0  0  0  0  0  0  0  0  0  0  0  0
   62.1267   29.6384   48.8994 H   0  0  0  0  0  0  0  0  0  0  0  0
   59.7760   28.9888   49.5392 H   0  0  0  0  0  0  0  0  0  0  0  0
   57.8479   30.4558   48.8983 H   0  0  0  0  0  0  0  0  0  0  0  0
   58.2496   32.5839   47.6054 H   0  0  0  0  0  0  0  0  0  0  0  0
   60.7234   35.3438   45.9583 H   0  0  0  0  0  0  0  0  0  0  0  0
   58.3108   35.1966   47.0080 H   0  0  0  0  0  0  0  0  0  0  0  0
   59.6030   33.2910   44.0230 H   0  0  0  0  0  0  0  0  0  0  0  0
   56.8706   32.6293   43.1025 H   0  0  0  0  0  0  0  0  0  0  0  0
   58.4295   32.0272   42.4348 H   0  0  0  0  0  0  0  0  0  0  0  0
   55.5810   30.6843   43.5075 H   0  0  0  0  0  0  0  0  0  0  0  0
   55.2406   28.6033   44.8366 H   0  0  0  0  0  0  0  0  0  0  0  0
   57.7941   24.5179   44.8910 H   0  0  0  0  0  0  0  0  0  0  0  0
   56.2655   24.7303   43.9718 H   0  0  0  0  0  0  0  0  0  0  0  0
   57.5019   26.0333   43.9718 H   0  0  0  0  0  0  0  0  0  0  0  0
   59.7127   30.8318   44.7987 H   0  0  0  0  0  0  0  0  0  0  0  0
  1  2  1  0
  2  3  1  0
  3  4  1  0
  4  5  2  0
  5  6  1  0
  6  7  2  0
  7  8  1  0
  8  9  2  0
  9 10  1  0
 10 11  1  0
 11 12  2  3
 12 13  1  0
 13 14  2  0
 13 15  1  0
 15 16  1  0
 16 17  1  0
 17 18  2  0
 18 19  1  0
 19 20  2  0
 20 21  1  0
 21 22  1  0
 22 23  1  0
 22 24  2  0
 22 25  2  0
 20 26  1  0
 26 27  1  0
 26 28  2  0
 10  2  2  0
 28 17  1  0
  9  4  1  0
  1 29  1  0
  1 30  1  0
  1 31  1  0
  3 32  1  0
  5 33  1  0
  6 34  1  0
  7 35  1  0
  8 36  1  0
 11 37  1  0
 12 38  1  0
 15 39  1  0
 16 40  1  0
 16 41  1  0
 18 42  1  0
 19 43  1  0
 23 44  1  0
 23 45  1  0
 23 46  1  0
 28 47  1  0
M  CHG  1  21  -1
M  END
>  <UniqueID>  (4) 
4

>  <SMILES>  (4) 
Cc1[nH]c2ccccc2c1C=CC(=O)NCc1ccc([N-]S(C)(=O)=O)c(F)c1

>  <Energy>  (4) 
82.59712601393326

>  <Genealogy>  (4) 
Cc1[nH]c2ccccc2c1C=CC(=O)NCc1ccc([N-]S(C)(=O)=O)c(F)c1 (protonated)
Cc1[nH]c2ccccc2c1C=CC(=O)NCc1ccc([N-]S(C)(=O)=O)c(F)c1 (3D coordinates assigned)
Cc1[nH]c2ccccc2c1C=CC(=O)NCc1ccc([N-]S(C)(=O)=O)c(F)c1 (optimized conformer: 82.59712601393326 kcal/mol)

>  <smiles>  (4) 
Cc1[nH]c2ccccc2c1C=CC(=O)NCc1ccc(NS(C)(=O)=O)c(F)c1

>  <score_type>  (4) 
oracle

>  <origin>  (4) 
adg

>  <m_score__min__energy>  (4) 
-10.98

>  <m_primary>  (4) 
energy

$$$$
4:0
     RDKit          3D

 56 59  0  0  1  0  0  0  0  0999 V2000
   64.9030   32.9770   49.5700 C   0  0  0  0  0  0  0  0  0  0  0  0
   63.6540   33.4070   48.8930 C   0  0  0  0  0  0  0  0  0  0  0  0
   63.5640   33.3500   47.5180 C   0  0  0  0  0  0  0  0  0  0  0  0
   62.4070   33.7520   46.8930 C   0  0  0  0  0  0  0  0  0  0  0  0
   61.3110   34.2170   47.5770 C   0  0  0  0  0  0  0  0  0  0  0  0
   60.2400   34.5970   46.9850 N   0  0  0  0  0  0  0  0  0  0  0  0
   58.9240   34.1690   47.3450 C   0  0  0  0  0  0  0  0  0  0  0  0
   58.1150   34.1980   46.0630 C   0  0  0  0  0  0  0  0  0  0  0  0
   58.6810   33.2870   44.9870 C   0  0  0  0  0  0  0  0  0  0  0  0
   58.8370   31.9330   45.5540 N   0  0  0  0  0  0  0  0  0  0  0  0
   58.2410   30.7860   45.0180 C   0  0  0  0  0  0  0  0  0  0  0  0
   58.8720   29.5470   45.0240 C   0  0  0  0  0  0  0  0  0  0  0  0
   58.2860   28.4160   44.4910 C   0  0  0  0  0  0  0  0  0  0  0  0
   58.8830   27.2820   44.5220 N   0  0  0  0  0  0  0  0  0  0  0  0
   58.7400   26.3200   45.5800 C   0  0  0  0  0  0  0  0  0  0  0  0
   57.5020   25.5250   45.2290 C   0  0  0  0  0  0  0  0  0  0  0  0
   56.3510   25.6090   45.9720 C   0  0  0  0  0  0  0  0  0  0  0  0
   55.2250   24.8700   45.6220 C   0  0  0  0  0  0  0  0  0  0  0  0
   55.3060   24.0470   44.5000 C   0  0  0  0  0  0  0  0  0  0  0  0
   56.4640   23.9560   43.7470 C   0  0  0  0  0  0  0  0  0  0  0  0
   57.5540   24.6940   44.1140 C   0  0  0  0  0  0  0  0  0  0  0  0
   57.0710   28.4790   43.9420 N   0  0  0  0  0  0  0  0  0  0  0  0
   56.4530   29.6710   43.9310 C   0  0  0  0  0  0  0  0  0  0  0  0
   55.2880   29.7240   43.3990 N   0  0  0  0  0  0  0  0  0  0  0  0
   57.0120   30.7940   44.4500 N   0  0  0  0  0  0  0  0  0  0  0  0
   59.6920   31.9100   46.7480 C   0  0  0  0  0  0  0  0  0  0  0  0
   58.9440   32.6990   47.8000 C   0  0  0  0  0  0  0  0  0  0  0  0
   61.4180   34.2640   48.9260 N   0  0  0  0  0  0  0  0  0  0  0  0
   62.5450   33.8760   49.5690 C   0  0  0  0  0  0  0  0  0  0  0  0
   64.7643   33.0248   50.6602 H   0  0  0  0  0  0  0  0  0  0  0  0
   65.1428   31.9446   49.2758 H   0  0  0  0  0  0  0  0  0  0  0  0
   65.7275   33.6430   49.2758 H   0  0  0  0  0  0  0  0  0  0  0  0
   64.4143   32.9844   46.9236 H   0  0  0  0  0  0  0  0  0  0  0  0
   62.3573   33.6986   45.7954 H   0  0  0  0  0  0  0  0  0  0  0  0
   58.5239   34.8063   48.1473 H   0  0  0  0  0  0  0  0  0  0  0  0
   57.0872   33.8780   46.2891 H   0  0  0  0  0  0  0  0  0  0  0  0
   58.1470   35.2269   45.6753 H   0  0  0  0  0  0  0  0  0  0  0  0
   57.9927   33.2532   44.1297 H   0  0  0  0  0  0  0  0  0  0  0  0
   59.6551   33.6671   44.6455 H   0  0  0  0  0  0  0  0  0  0  0  0
   59.8744   29.4648   45.4695 H   0  0  0  0  0  0  0  0  0  0  0  0
   59.6207   25.6625   45.6250 H   0  0  0  0  0  0  0  0  0  0  0  0
   58.6533   26.8021   46.5649 H   0  0  0  0  0  0  0  0  0  0  0  0
   56.3183   26.2670   46.8529 H   0  0  0  0  0  0  0  0  0  0  0  0
   54.2993   24.9334   46.2128 H   0  0  0  0  0  0  0  0  0  0  0  0
   54.4272   23.4546   44.2053 H   0  0  0  0  0  0  0  0  0  0  0  0
   56.5062   23.2990   42.8658 H   0  0  0  0  0  0  0  0  0  0  0  0
   58.4798   24.6307   43.5234 H   0  0  0  0  0  0  0  0  0  0  0  0
   56.6510   27.6080   43.5450 H   0  0  0  0  0  0  0  0  0  0  0  0
   55.0240   29.3370   42.4870 H   0  0  0  0  0  0  0  0  0  0  0  0
   56.4340   31.6530   44.3790 H   0  0  0  0  0  0  0  0  0  0  0  0
   59.8520   30.8754   47.0857 H   0  0  0  0  0  0  0  0  0  0  0  0
   60.6842   32.3398   46.5462 H   0  0  0  0  0  0  0  0  0  0  0  0
   57.9155   32.3203   47.8934 H   0  0  0  0  0  0  0  0  0  0  0  0
   59.4345   32.6023   48.7798 H   0  0  0  0  0  0  0  0  0  0  0  0
   60.6210   34.6090   49.5370 H   0  0  0  0  0  0  0  0  0  0  0  0
   62.5781   33.9365   50.6668 H   0  0  0  0  0  0  0  0  0  0  0  0
  1  2  1  0
  2  3  1  0
  3  4  2  0
  4  5  1  0
  5  6  2  0
  6  7  1  0
  7  8  1  0
  8  9  1  0
  9 10  1  0
 10 11  1  0
 11 12  2  0
 12 13  1  0
 13 14  2  0
 14 15  1  0
 15 16  1  0
 16 17  2  0
 17 18  1  0
 18 19  2  0
 19 20  1  0
 20 21  2  0
 13 22  1  0
 22 23  1  0
 23 24  2  3
 23 25  1  0
 10 26  1  0
 26 27  1  0
  5 28  1  0
 28 29  1  0
 29  2  2  0
 27  7  1  0
 25 11  1  0
 21 16  1  0
  1 30  1  0
  1 31  1  0
  1 32  1  0
  3 33  1  0
  4 34  1  0
  7 35  1  0
  8 36  1  0
  8 37  1  0
  9 38  1  0
  9 39  1  0
 12 40  1  0
 15 41  1  0
 15 42  1  0
 17 43  1  0
 18 44  1  0
 19 45  1  0
 20 46  1  0
 21 47  1  0
 22 48  1  0
 24 49  1  0
 25 50  1  0
 26 51  1  0
 26 52  1  0
 27 53  1  0
 27 54  1  0
 28 55  1  0
 29 56  1  0
M  END
>  <smiles>  (5) 
Cc1ccc(=NC2CCN(c3cc(=NCc4ccccc4)[nH]c(=N)[nH]3)CC2)[nH]c1

>  <score_type>  (5) 
oracle

>  <origin>  (5) 
adg

>  <m_score__min__energy>  (5) 
-8.7200000000000006

>  <m_primary>  (5) 
energy

$$$$
5:0
     RDKit          3D

 72 76  0  0  0  0  0  0  0  0999 V2000
   68.4720   34.5160   50.8080 C   0  0  0  0  0  0  0  0  0  0  0  0
   67.9180   33.0940   50.8670 C   0  0  0  0  0  0  0  0  0  0  0  0
   66.7690   32.9500   51.8750 C   0  0  0  0  0  0  0  0  0  0  0  0
   65.6860   32.0440   51.3620 C   0  0  0  0  0  0  0  0  0  0  0  0
   65.3400   30.8970   51.9870 N   0  0  0  0  0  0  0  0  0  0  0  0
   64.3240   30.3930   51.3040 N   0  0  0  0  0  0  0  0  0  0  0  0
   63.6840   29.1450   51.6140 C   0  0  0  0  0  0  0  0  0  0  0  0
   64.4570   28.0640   52.0670 C   0  0  0  0  0  0  0  0  0  0  0  0
   63.8480   26.8760   52.4700 C   0  0  0  0  0  0  0  0  0  0  0  0
   62.4600   26.7480   52.4130 C   0  0  0  0  0  0  0  0  0  0  0  0
   61.6780   27.8110   51.9620 C   0  0  0  0  0  0  0  0  0  0  0  0
   62.2770   29.0150   51.5610 C   0  0  0  0  0  0  0  0  0  0  0  0
   61.4690   30.0940   51.0740 N   0  0  0  0  0  0  0  0  0  0  0  0
   61.0000   31.4180   52.0890 S   0  0  0  0  0  0  0  0  0  0  0  0
   59.2620   31.7490   51.8930 C   0  0  0  0  0  0  0  0  0  0  0  0
   61.2570   31.0520   53.5260 O   0  0  0  0  0  0  0  0  0  0  0  0
   61.8020   32.6400   51.7360 O   0  0  0  0  0  0  0  0  0  0  0  0
   64.0620   31.2270   50.2800 C   0  0  0  0  0  0  0  0  0  0  0  0
   63.1470   31.0470   49.4310 O   0  0  0  0  0  0  0  0  0  0  0  0
   64.8910   32.2890   50.2880 N   0  0  0  0  0  0  0  0  0  0  0  0
   64.9280   33.3960   49.3310 C   0  0  0  0  0  0  0  0  0  0  0  0
   63.5860   33.5530   48.6600 C   0  0  0  0  0  0  0  0  0  0  0  0
   63.3830   33.0750   47.3550 C   0  0  0  0  0  0  0  0  0  0  0  0
   62.1270   33.1800   46.7530 C   0  0  0  0  0  0  0  0  0  0  0  0
   61.0570   33.7630   47.4450 C   0  0  0  0  0  0  0  0  0  0  0  0
   59.7360   33.8760   46.7930 C   0  0  0  0  0  0  0  0  0  0  0  0
   59.6420   34.6470   45.6260 C   0  0  0  0  0  0  0  0  0  0  0  0
   58.4410   34.7190   44.9200 C   0  0  0  0  0  0  0  0  0  0  0  0
   57.3270   34.0090   45.3600 C   0  0  0  0  0  0  0  0  0  0  0  0
   57.4070   33.2250   46.5120 C   0  0  0  0  0  0  0  0  0  0  0  0
   58.6010   33.1560   47.2490 C   0  0  0  0  0  0  0  0  0  0  0  0
   58.6190   32.3290   48.4750 C   0  0  0  0  0  0  0  0  0  0  0  0
   57.6300   32.3510   49.2610 O   0  0  0  0  0  0  0  0  0  0  0  0
   59.7760   31.5560   48.8020 N   0  0  0  0  0  0  0  0  0  0  0  0
   59.9930   29.9220   48.2780 S   0  0  0  0  0  0  0  0  0  0  0  0
   61.4380   29.6900   47.9400 O   0  0  0  0  0  0  0  0  0  0  0  0
   59.6010   28.9990   49.3930 O   0  0  0  0  0  0  0  0  0  0  0  0
   58.9750   29.6020   46.8840 C   0  0  0  0  0  0  0  0  0  0  0  0
   58.1130   28.5230   46.7480 C   0  0  0  0  0  0  0  0  0  0  0  0
   57.3930   28.5470   45.5480 C   0  0  0  0  0  0  0  0  0  0  0  0
   57.6980   29.6430   44.7530 C   0  0  0  0  0  0  0  0  0  0  0  0
   56.9700   30.0150   43.2030 Cl  0  0  0  0  0  0  0  0  0  0  0  0
   58.8460   30.5930   45.5290 S   0  0  0  0  0  0  0  0  0  0  0  0
   61.2640   34.2750   48.7340 C   0  0  0  0  0  0  0  0  0  0  0  0
   62.5170   34.1530   49.3470 C   0  0  0  0  0  0  0  0  0  0  0  0
   68.6195   34.8947   51.8302 H   0  0  0  0  0  0  0  0  0  0  0  0
   69.4346   34.5127   50.2757 H   0  0  0  0  0  0  0  0  0  0  0  0
   67.7609   35.1648   50.2757 H   0  0  0  0  0  0  0  0  0  0  0  0
   67.5475   32.8184   49.8686 H   0  0  0  0  0  0  0  0  0  0  0  0
   68.7333   32.4319   51.1939 H   0  0  0  0  0  0  0  0  0  0  0  0
   67.1675   32.5334   52.8118 H   0  0  0  0  0  0  0  0  0  0  0  0
   66.3318   33.9460   52.0392 H   0  0  0  0  0  0  0  0  0  0  0  0
   65.5526   28.1550   52.1043 H   0  0  0  0  0  0  0  0  0  0  0  0
   64.4626   26.0391   52.8332 H   0  0  0  0  0  0  0  0  0  0  0  0
   61.9818   25.8075   52.7241 H   0  0  0  0  0  0  0  0  0  0  0  0
   60.5839   27.7049   51.9203 H   0  0  0  0  0  0  0  0  0  0  0  0
   61.2830   30.1740   50.0520 H   0  0  0  0  0  0  0  0  0  0  0  0
   58.7918   31.8385   52.8834 H   0  0  0  0  0  0  0  0  0  0  0  0
   59.1281   32.6888   51.3372 H   0  0  0  0  0  0  0  0  0  0  0  0
   58.7921   30.9242   51.3372 H   0  0  0  0  0  0  0  0  0  0  0  0
   65.1794   34.3262   49.8616 H   0  0  0  0  0  0  0  0  0  0  0  0
   65.6881   33.1818   48.5652 H   0  0  0  0  0  0  0  0  0  0  0  0
   64.2172   32.6157   46.8044 H   0  0  0  0  0  0  0  0  0  0  0  0
   61.9770   32.8031   45.7305 H   0  0  0  0  0  0  0  0  0  0  0  0
   60.5218   35.1993   45.2643 H   0  0  0  0  0  0  0  0  0  0  0  0
   58.3739   35.3383   44.0134 H   0  0  0  0  0  0  0  0  0  0  0  0
   56.3826   34.0660   44.7989 H   0  0  0  0  0  0  0  0  0  0  0  0
   56.5269   32.6558   46.8459 H   0  0  0  0  0  0  0  0  0  0  0  0
   58.0067   27.7314   47.5044 H   0  0  0  0  0  0  0  0  0  0  0  0
   56.6609   27.7766   45.2642 H   0  0  0  0  0  0  0  0  0  0  0  0
   60.4398   34.7738   49.2650 H   0  0  0  0  0  0  0  0  0  0  0  0
   62.6651   34.5283   50.3703 H   0  0  0  0  0  0  0  0  0  0  0  0
  1  2  1  0
  2  3  1  0
  3  4  1  0
  4  5  2  0
  5  6  1  0
  6  7  1  0
  7  8  2  0
  8  9  1  0
  9 10  2  0
 10 11  1  0
 11 12  2  0
 12 13  1  0
 13 14  1  0
 14 15  1  0
 14 16  2  0
 14 17  2  0
  6 18  1  0
 18 19  2  0
 18 20  1  0
 20 21  1  0
 21 22  1  0
 22 23  2  0
 23 24  1  0
 24 25  2  0
 25 26  1  0
 26 27  2  0
 27 28  1  0
 28 29  2  0
 29 30  1  0
 30 31  2  0
 31 32  1  0
 32 33  2  0
 32 34  1  0
 34 35  1  0
 35 36  2  0
 35 37  2  0
 35 38  1  0
 38 39  2  0
 39 40  1  0
 40 41  2  0
 41 42  1  0
 41 43  1  0
 25 44  1  0
 44 45  2  0
 20  4  1  0
 45 22  1  0
 12  7  1  0
 31 26  1  0
 43 38  1  0
  1 46  1  0
  1 47  1  0
  1 48  1  0
  2 49  1  0
  2 50  1  0
  3 51  1  0
  3 52  1  0
  8 53  1  0
  9 54  1  0
 10 55  1  0
 11 56  1  0
 13 57  1  0
 15 58  1  0
 15 59  1  0
 15 60  1  0
 21 61  1  0
 21 62  1  0
 23 63  1  0
 24 64  1  0
 27 65  1  0
 28 66  1  0
 29 67  1  0
 30 68  1  0
 39 69  1  0
 40 70  1  0
 44 71  1  0
 45 72  1  0
M  CHG  1  34  -1
M  END
>  <UniqueID>  (6) 
5

>  <SMILES>  (6) 
CCCc1nn(-c2ccccc2NS(C)(=O)=O)c(=O)n1Cc1ccc(-c2ccccc2C(=O)[N-]S(=O)(=O)c2ccc(Cl)s2)cc1

>  <Energy>  (6) 
153.57893367491707

>  <Genealogy>  (6) 
CCCc1nn(-c2ccccc2NS(C)(=O)=O)c(=O)n1Cc1ccc(-c2ccccc2C(=O)[N-]S(=O)(=O)c2ccc(Cl)s2)cc1 (protonated)
CCCc1nn(-c2ccccc2NS(C)(=O)=O)c(=O)n1Cc1ccc(-c2ccccc2C(=O)[N-]S(=O)(=O)c2ccc(Cl)s2)cc1 (3D coordinates assigned)
CCCc1nn(-c2ccccc2NS(C)(=O)=O)c(=O)n1Cc1ccc(-c2ccccc2C(=O)[N-]S(=O)(=O)c2ccc(Cl)s2)cc1 (optimized conformer: 153.57893367491707 kcal/mol)

>  <smiles>  (6) 
CCCc1nn(-c2ccccc2NS(C)(=O)=O)c(=O)n1Cc1ccc(-c2ccccc2C(=O)NS(=O)(=O)c2ccc(Cl)s2)cc1

>  <score_type>  (6) 
oracle

>  <origin>  (6) 
adg

>  <m_score__min__energy>  (6) 
-13.210000000000001

>  <m_primary>  (6) 
energy

$$$$
6:0
     RDKit          3D

 34 36  0  0  0  0  0  0  0  0999 V2000
   55.4630   29.7020   43.1010 O   0  0  0  0  0  0  0  0  0  0  0  0
   56.1110   29.7060   44.1830 C   0  0  0  0  0  0  0  0  0  0  0  0
   57.2480   30.6590   44.3620 C   0  0  0  0  0  0  0  0  0  0  0  0
   57.9220   30.5510   46.0560 S   0  0  0  0  0  0  0  0  0  0  0  0
   58.6860   32.1820   46.0300 C   0  0  0  0  0  0  0  0  0  0  0  0
   57.9620   33.2700   45.5240 C   0  0  0  0  0  0  0  0  0  0  0  0
   58.5250   34.5490   45.5150 C   0  0  0  0  0  0  0  0  0  0  0  0
   59.8160   34.7550   46.0070 C   0  0  0  0  0  0  0  0  0  0  0  0
   60.5570   33.6750   46.5050 C   0  0  0  0  0  0  0  0  0  0  0  0
   61.8530   33.8530   47.0050 C   0  0  0  0  0  0  0  0  0  0  0  0
   62.5670   32.7560   47.4920 C   0  0  0  0  0  0  0  0  0  0  0  0
   61.9800   31.4900   47.4720 C   0  0  0  0  0  0  0  0  0  0  0  0
   60.7210   31.3300   46.9870 N   0  0  0  0  0  0  0  0  0  0  0  0
   59.9930   32.3760   46.5080 C   0  0  0  0  0  0  0  0  0  0  0  0
   55.7990   28.7700   45.2200 N   0  0  0  0  0  0  0  0  0  0  0  0
   56.7210   27.7420   45.6820 C   0  0  0  0  0  0  0  0  0  0  0  0
   56.0690   26.3980   45.6270 C   0  0  0  0  0  0  0  0  0  0  0  0
   56.7260   25.1860   45.5490 C   0  0  0  0  0  0  0  0  0  0  0  0
   55.7340   24.2280   45.5460 C   0  0  0  0  0  0  0  0  0  0  0  0
   54.5390   24.9150   45.6240 C   0  0  0  0  0  0  0  0  0  0  0  0
   54.7710   26.2060   45.6720 O   0  0  0  0  0  0  0  0  0  0  0  0
   58.0419   30.4131   43.6414 H   0  0  0  0  0  0  0  0  0  0  0  0
   56.8813   31.6821   44.1923 H   0  0  0  0  0  0  0  0  0  0  0  0
   56.9457   33.1165   45.1320 H   0  0  0  0  0  0  0  0  0  0  0  0
   57.9486   35.3978   45.1185 H   0  0  0  0  0  0  0  0  0  0  0  0
   60.2511   35.7653   46.0035 H   0  0  0  0  0  0  0  0  0  0  0  0
   62.3076   34.8546   47.0141 H   0  0  0  0  0  0  0  0  0  0  0  0
   63.5845   32.8888   47.8884 H   0  0  0  0  0  0  0  0  0  0  0  0
   62.5376   30.6202   47.8496 H   0  0  0  0  0  0  0  0  0  0  0  0
   57.6133   27.7391   45.0387 H   0  0  0  0  0  0  0  0  0  0  0  0
   57.0070   27.9588   46.7218 H   0  0  0  0  0  0  0  0  0  0  0  0
   57.8122   25.0196   45.4996 H   0  0  0  0  0  0  0  0  0  0  0  0
   55.8678   23.1375   45.4923 H   0  0  0  0  0  0  0  0  0  0  0  0
   53.5422   24.4502   45.6431 H   0  0  0  0  0  0  0  0  0  0  0  0
  1  2  2  0
  2  3  1  0
  3  4  1  0
  4  5  1  0
  5  6  2  0
  6  7  1  0
  7  8  2  0
  8  9  1  0
  9 10  2  0
 10 11  1  0
 11 12  2  0
 12 13  1  0
 13 14  2  0
  2 15  1  0
 15 16  1  0
 16 17  1  0
 17 18  2  0
 18 19  1  0
 19 20  2  0
 20 21  1  0
 14  5  1  0
 21 17  1  0
 14  9  1  0
  3 22  1  0
  3 23  1  0
  6 24  1  0
  7 25  1  0
  8 26  1  0
 10 27  1  0
 11 28  1  0
 12 29  1  0
 16 30  1  0
 16 31  1  0
 18 32  1  0
 19 33  1  0
 20 34  1  0
M  CHG  1  15  -1
M  END
>  <UniqueID>  (7) 
6

>  <SMILES>  (7) 
O=C(CSc1cccc2cccnc12)[N-]Cc1ccco1

>  <Energy>  (7) 
56.317822058751325

>  <Genealogy>  (7) 
O=C(CSc1cccc2cccnc12)[N-]Cc1ccco1 (protonated)
O=C(CSc1cccc2cccnc12)[N-]Cc1ccco1 (3D coordinates assigned)
O=C(CSc1cccc2cccnc12)[N-]Cc1ccco1 (optimized conformer: 56.317822058751325 kcal/mol)

>  <smiles>  (7) 
O=C(CSc1cccc2cccnc12)NCc1ccco1

>  <score_type>  (7) 
oracle

>  <origin>  (7) 
adg

>  <m_score__min__energy>  (7) 
-10.15

>  <m_primary>  (7) 
energy

$$$$
7:0
     RDKit          3D

 29 31  0  0  0  0  0  0  0  0999 V2000
   57.2100   27.5110   54.2240 C   0  0  0  0  0  0  0  0  0  0  0  0
   57.4050   29.3080   54.0140 S   0  0  0  0  0  0  0  0  0  0  0  0
   55.6660   29.5770   53.6640 C   0  0  0  0  0  0  0  0  0  0  0  0
   54.9320   30.4960   54.4200 C   0  0  0  0  0  0  0  0  0  0  0  0
   53.5770   30.7030   54.1510 C   0  0  0  0  0  0  0  0  0  0  0  0
   52.9370   29.9930   53.1160 C   0  0  0  0  0  0  0  0  0  0  0  0
   51.4630   30.1950   52.8180 C   0  0  1  0  0  0  0  0  0  0  0  0
   50.8060   31.1690   53.8410 C   0  0  0  0  0  0  0  0  0  0  0  0
   50.8970   32.6310   53.4430 C   0  0  0  0  0  0  0  0  0  0  0  0
   50.8970   33.5230   54.3290 O   0  0  0  0  0  0  0  0  0  0  0  0
   50.8990   33.0080   52.0590 N   0  0  0  0  0  0  0  0  0  0  0  0
   51.0350   31.9800   51.0870 C   0  0  0  0  0  0  0  0  0  0  0  0
   51.0130   32.1500   49.7570 N   0  0  0  0  0  0  0  0  0  0  0  0
   51.2430   30.8910   49.3130 C   0  0  0  0  0  0  0  0  0  0  0  0
   51.3020   30.6070   48.0880 O   0  0  0  0  0  0  0  0  0  0  0  0
   51.4160   29.9590   50.2840 N   0  0  0  0  0  0  0  0  0  0  0  0
   51.2670   30.6790   51.4080 C   0  0  0  0  0  0  0  0  0  0  0  0
   53.6830   29.0630   52.3700 C   0  0  0  0  0  0  0  0  0  0  0  0
   55.0380   28.8570   52.6420 C   0  0  0  0  0  0  0  0  0  0  0  0
   57.1836   27.2679   55.2965 H   0  0  0  0  0  0  0  0  0  0  0  0
   56.2713   27.1863   53.7512 H   0  0  0  0  0  0  0  0  0  0  0  0
   58.0572   26.9925   53.7512 H   0  0  0  0  0  0  0  0  0  0  0  0
   55.4228   31.0574   55.2286 H   0  0  0  0  0  0  0  0  0  0  0  0
   53.0054   31.4257   54.7517 H   0  0  0  0  0  0  0  0  0  0  0  0
   50.9614   29.2213   52.9193 H   0  0  0  0  0  0  0  0  0  0  0  0
   49.7434   30.9024   53.9401 H   0  0  0  0  0  0  0  0  0  0  0  0
   51.3582   31.0601   54.7861 H   0  0  0  0  0  0  0  0  0  0  0  0
   53.1956   28.4928   51.5654 H   0  0  0  0  0  0  0  0  0  0  0  0
   55.6119   28.1275   52.0516 H   0  0  0  0  0  0  0  0  0  0  0  0
  1  2  1  0
  2  3  1  0
  3  4  2  0
  4  5  1  0
  5  6  2  0
  6  7  1  0
  7  8  1  0
  8  9  1  0
  9 10  2  0
  9 11  1  0
 11 12  1  0
 12 13  1  0
 13 14  1  0
 14 15  2  0
 14 16  1  0
 16 17  1  0
  6 18  1  0
 18 19  2  0
 19  3  1  0
 17  7  1  0
 17 12  2  0
  1 20  1  0
  1 21  1  0
  1 22  1  0
  4 23  1  0
  5 24  1  0
  7 25  1  6
  8 26  1  0
  8 27  1  0
 18 28  1  0
 19 29  1  0
M  CHG  3  11  -1  13  -1  16  -1
M  END
>  <UniqueID>  (8) 
7

>  <SMILES>  (8) 
CSc1ccc([C@H]2CC(=O)[N-]c3[n-]c(=O)[n-]c32)cc1

>  <Energy>  (8) 
60.3743328040928

>  <Genealogy>  (8) 
CSc1ccc(C2CC(=O)[N-]c3[n-]c(=O)[n-]c32)cc1 (protonated)
CSc1ccc([C@H]2CC(=O)[N-]c3[n-]c(=O)[n-]c32)cc1 (chirality)
CSc1ccc([C@H]2CC(=O)[N-]c3[n-]c(=O)[n-]c32)cc1 (3D coordinates assigned)
CSc1ccc([C@H]2CC(=O)[N-]c3[n-]c(=O)[n-]c32)cc1 (nonaromatic ring conformer: 60.3743328040928 kcal/mol)

>  <smiles>  (8) 
CSc1ccc(C2CC(=O)Nc3[nH]c(=O)[nH]c32)cc1

>  <score_type>  (8) 
oracle

>  <origin>  (8) 
adg

>  <m_score__min__energy>  (8) 
-13.85

>  <m_primary>  (8) 
energy

$$$$
8:0
     RDKit          3D

 47 49  0  0  0  0  0  0  0  0999 V2000
   56.7870   28.2367   42.5236 H   0  0  0  0  0  0  0  0  0  0  0  0
   57.3900   28.5570   43.3860 C   0  0  0  0  0  0  0  0  0  0  0  0
   57.1100   29.8930   43.9490 C   0  0  0  0  0  0  0  0  0  0  0  0
   55.9940   30.0950   44.4970 O   0  0  0  0  0  0  0  0  0  0  0  0
   58.0250   30.9830   43.7520 N   0  0  0  0  0  0  0  0  0  0  0  0
   58.6460   30.9390   42.9120 H   0  0  0  0  0  0  0  0  0  0  0  0
   58.1730   32.1070   44.6410 C   0  0  0  0  0  0  0  0  0  0  0  0
   58.2760   33.4290   44.1650 C   0  0  0  0  0  0  0  0  0  0  0  0
   58.2777   33.6231   43.0823 H   0  0  0  0  0  0  0  0  0  0  0  0
   58.3760   34.4940   45.0630 C   0  0  0  0  0  0  0  0  0  0  0  0
   58.4836   35.5213   44.6847 H   0  0  0  0  0  0  0  0  0  0  0  0
   58.3400   34.2600   46.4390 C   0  0  0  0  0  0  0  0  0  0  0  0
   58.4303   35.1034   47.1394 H   0  0  0  0  0  0  0  0  0  0  0  0
   58.1900   32.9610   46.9320 C   0  0  0  0  0  0  0  0  0  0  0  0
   58.0940   32.7830   48.3210 O   0  0  0  0  0  0  0  0  0  0  0  0
   58.8920   31.8810   49.0890 C   0  0  0  0  0  0  0  0  0  0  0  0
   58.7618   30.8617   48.6966 H   0  0  0  0  0  0  0  0  0  0  0  0
   58.5687   31.9332   50.1391 H   0  0  0  0  0  0  0  0  0  0  0  0
   60.3610   32.2580   49.0150 C   0  0  0  0  0  0  0  0  0  0  0  0
   61.1490   31.6420   48.0390 C   0  0  0  0  0  0  0  0  0  0  0  0
   60.6974   30.9334   47.3292 H   0  0  0  0  0  0  0  0  0  0  0  0
   62.5050   31.9300   47.9710 C   0  0  0  0  0  0  0  0  0  0  0  0
   63.2070   31.3510   47.0970 O   0  0  0  0  0  0  0  0  0  0  0  0
   63.0630   32.8220   48.8450 N   0  0  0  0  0  0  0  0  0  0  0  0
   64.5060   33.1210   48.7950 C   0  0  0  0  0  0  0  0  0  0  0  0
   64.8993   33.2025   49.8191 H   0  0  0  0  0  0  0  0  0  0  0  0
   65.0298   32.3123   48.2643 H   0  0  0  0  0  0  0  0  0  0  0  0
   64.6654   34.0712   48.2643 H   0  0  0  0  0  0  0  0  0  0  0  0
   62.2880   33.4120   49.8110 C   0  0  0  0  0  0  0  0  0  0  0  0
   62.8260   34.1860   50.6520 O   0  0  0  0  0  0  0  0  0  0  0  0
   60.9340   33.1660   49.8750 N   0  0  0  0  0  0  0  0  0  0  0  0
   60.1320   33.8250   50.9250 C   0  0  0  0  0  0  0  0  0  0  0  0
   60.5027   33.5204   51.9149 H   0  0  0  0  0  0  0  0  0  0  0  0
   60.2181   34.9167   50.8212 H   0  0  0  0  0  0  0  0  0  0  0  0
   59.0777   33.5288   50.8212 H   0  0  0  0  0  0  0  0  0  0  0  0
   58.1250   31.8850   46.0260 C   0  0  0  0  0  0  0  0  0  0  0  0
   58.0355   30.8576   46.4086 H   0  0  0  0  0  0  0  0  0  0  0  0
   58.3190   27.7010   43.8390 C   0  0  0  0  0  0  0  0  0  0  0  0
   58.5853   26.8548   43.1886 H   0  0  0  0  0  0  0  0  0  0  0  0
   59.0120   27.8010   45.1360 C   0  0  0  0  0  0  0  0  0  0  0  0
   60.3120   28.8080   45.5090 S   0  0  0  0  0  0  0  0  0  0  0  0
   60.3860   28.4240   47.1430 C   0  0  0  0  0  0  0  0  0  0  0  0
   61.1156   28.8177   47.8659 H   0  0  0  0  0  0  0  0  0  0  0  0
   59.3660   27.5230   47.4230 C   0  0  0  0  0  0  0  0  0  0  0  0
   59.1858   27.1120   48.4273 H   0  0  0  0  0  0  0  0  0  0  0  0
   58.5890   27.1870   46.3080 C   0  0  0  0  0  0  0  0  0  0  0  0
   57.7281   26.5039   46.3553 H   0  0  0  0  0  0  0  0  0  0  0  0
  1  2  1  0
  2  3  1  0
  3  4  2  0
  3  5  1  0
  5  6  1  0
  5  7  1  0
  7  8  2  0
  8  9  1  0
  8 10  1  0
 10 11  1  0
 10 12  2  0
 12 13  1  0
 12 14  1  0
 14 15  1  0
 15 16  1  0
 16 17  1  0
 16 18  1  0
 16 19  1  0
 19 20  2  0
 20 21  1  0
 20 22  1  0
 22 23  2  0
 22 24  1  0
 24 25  1  0
 25 26  1  0
 25 27  1  0
 25 28  1  0
 24 29  1  0
 29 30  2  0
 29 31  1  0
 31 32  1  0
 32 33  1  0
 32 34  1  0
 32 35  1  0
 14 36  2  0
 36 37  1  0
  2 38  2  0
 38 39  1  0
 38 40  1  0
 40 41  1  0
 41 42  1  0
 42 43  1  0
 42 44  2  0
 44 45  1  0
 44 46  1  0
 46 47  1  0
 36  7  1  0
 46 40  2  0
 31 19  1  0
M  END
>  <UniqueID>  (9) 
8

>  <SMILES>  (9) 
Cn1c(COc2cccc(NC(=O)/C=C\c3cccs3)c2)cc(=O)n(C)c1=O

>  <Energy>  (9) 
90.8945257347887

>  <Genealogy>  (9) 
Cn1c(COc2cccc(NC(=O)/C=C\c3cccs3)c2)cc(=O)n(C)c1=O (cis-trans isomerization)
Cn1c(COc2cccc(NC(=O)/C=C\c3cccs3)c2)cc(=O)n(C)c1=O (3D coordinates assigned)
Cn1c(COc2cccc(NC(=O)/C=C\c3cccs3)c2)cc(=O)n(C)c1=O (optimized conformer: 90.8945257347887 kcal/mol)

>  <smiles>  (9) 
Cn1c(COc2cccc(NC(=O)C=Cc3cccs3)c2)cc(=O)n(C)c1=O

>  <score_type>  (9) 
oracle

>  <origin>  (9) 
adg

>  <m_score__min__energy>  (9) 
-9.1199999999999992

>  <m_primary>  (9) 
energy

$$$$
9:0
     RDKit          3D

 41 43  0  0  0  0  0  0  0  0999 V2000
   60.4530   29.0780   45.9120 C   0  0  0  0  0  0  0  0  0  0  0  0
   59.2700   28.6990   47.1900 S   0  0  0  0  0  0  0  0  0  0  0  0
   60.0460   28.3800   48.4390 O   0  0  0  0  0  0  0  0  0  0  0  0
   58.4120   29.9100   47.4260 O   0  0  0  0  0  0  0  0  0  0  0  0
   58.2390   27.3180   46.7620 C   0  0  0  0  0  0  0  0  0  0  0  0
   58.5120   26.0640   47.3340 C   0  0  0  0  0  0  0  0  0  0  0  0
   57.6810   24.9700   47.0870 C   0  0  0  0  0  0  0  0  0  0  0  0
   56.5640   25.1120   46.2670 C   0  0  0  0  0  0  0  0  0  0  0  0
   56.2840   26.3450   45.6770 C   0  0  0  0  0  0  0  0  0  0  0  0
   57.1190   27.4540   45.8980 C   0  0  0  0  0  0  0  0  0  0  0  0
   56.7980   28.7220   45.2050 C   0  0  0  0  0  0  0  0  0  0  0  0
   57.7000   29.5360   44.5510 C   0  0  0  0  0  0  0  0  0  0  0  0
   56.9290   30.5910   44.1030 C   0  0  0  0  0  0  0  0  0  0  0  0
   57.3960   31.7570   43.3310 C   0  0  0  0  0  0  0  0  0  0  0  0
   57.7410   31.5950   42.1310 O   0  0  0  0  0  0  0  0  0  0  0  0
   57.4250   33.0770   43.8880 N   0  0  0  0  0  0  0  0  0  0  0  0
   58.0720   33.4620   45.1100 C   0  0  0  0  0  0  0  0  0  0  0  0
   59.0170   34.4930   45.0820 C   0  0  0  0  0  0  0  0  0  0  0  0
   59.6640   34.8880   46.2550 C   0  0  0  0  0  0  0  0  0  0  0  0
   59.3820   34.2470   47.4640 C   0  0  0  0  0  0  0  0  0  0  0  0
   58.4530   33.1890   47.5040 C   0  0  0  0  0  0  0  0  0  0  0  0
   58.1370   32.5060   48.6880 O   0  0  0  0  0  0  0  0  0  0  0  0
   59.0930   32.0330   49.6330 C   0  0  0  0  0  0  0  0  0  0  0  0
   58.6270   30.8800   50.2390 F   0  0  0  0  0  0  0  0  0  0  0  0
   59.2900   33.0000   50.5990 F   0  0  0  0  0  0  0  0  0  0  0  0
   57.8130   32.7970   46.3220 C   0  0  0  0  0  0  0  0  0  0  0  0
   55.6540   30.4220   44.4990 N   0  0  0  0  0  0  0  0  0  0  0  0
   55.5730   29.2830   45.1700 N   0  0  0  0  0  0  0  0  0  0  0  0
   61.4046   29.3829   46.3719 H   0  0  0  0  0  0  0  0  0  0  0  0
   60.6163   28.1872   45.2876 H   0  0  0  0  0  0  0  0  0  0  0  0
   60.0683   29.8978   45.2876 H   0  0  0  0  0  0  0  0  0  0  0  0
   59.3910   25.9430   47.9842 H   0  0  0  0  0  0  0  0  0  0  0  0
   57.9086   23.9941   47.5407 H   0  0  0  0  0  0  0  0  0  0  0  0
   55.9027   24.2521   46.0846 H   0  0  0  0  0  0  0  0  0  0  0  0
   55.3996   26.4505   45.0314 H   0  0  0  0  0  0  0  0  0  0  0  0
   58.7808   29.3810   44.4175 H   0  0  0  0  0  0  0  0  0  0  0  0
   59.2516   34.9949   44.1317 H   0  0  0  0  0  0  0  0  0  0  0  0
   60.3982   35.7066   46.2269 H   0  0  0  0  0  0  0  0  0  0  0  0
   59.8866   34.5693   48.3867 H   0  0  0  0  0  0  0  0  0  0  0  0
   60.0385   31.8158   49.1145 H   0  0  0  0  0  0  0  0  0  0  0  0
   57.0998   31.9598   46.3415 H   0  0  0  0  0  0  0  0  0  0  0  0
  1  2  1  0
  2  3  2  0
  2  4  2  0
  2  5  1  0
  5  6  2  0
  6  7  1  0
  7  8  2  0
  8  9  1  0
  9 10  2  0
 10 11  1  0
 11 12  2  0
 12 13  1  0
 13 14  1  0
 14 15  2  0
 14 16  1  0
 16 17  1  0
 17 18  2  0
 18 19  1  0
 19 20  2  0
 20 21  1  0
 21 22  1  0
 22 23  1  0
 23 24  1  0
 23 25  1  0
 21 26  2  0
 13 27  2  0
 27 28  1  0
 10  5  1  0
 28 11  1  0
 26 17  1  0
  1 29  1  0
  1 30  1  0
  1 31  1  0
  6 32  1  0
  7 33  1  0
  8 34  1  0
  9 35  1  0
 12 36  1  0
 18 37  1  0
 19 38  1  0
 20 39  1  0
 23 40  1  0
 26 41  1  0
M  CHG  2  16  -1  28  -1
M  END
>  <UniqueID>  (10) 
9

>  <SMILES>  (10) 
CS(=O)(=O)c1ccccc1-c1cc(C(=O)[N-]c2cccc(OC(F)F)c2)n[n-]1

>  <Energy>  (10) 
81.69824433126104

>  <Genealogy>  (10) 
CS(=O)(=O)c1ccccc1-c1cc(C(=O)[N-]c2cccc(OC(F)F)c2)n[n-]1 (protonated)
CS(=O)(=O)c1ccccc1-c1cc(C(=O)[N-]c2cccc(OC(F)F)c2)n[n-]1 (3D coordinates assigned)
CS(=O)(=O)c1ccccc1-c1cc(C(=O)[N-]c2cccc(OC(F)F)c2)n[n-]1 (optimized conformer: 81.69824433126104 kcal/mol)

>  <smiles>  (10) 
CS(=O)(=O)c1ccccc1-c1cc(C(=O)Nc2cccc(OC(F)F)c2)n[nH]1

>  <score_type>  (10) 
oracle

>  <origin>  (10) 
adg

>  <m_score__min__energy>  (10) 
-11.93

>  <m_primary>  (10) 
energy

$$$$
10:0
     RDKit          3D

 68 72  0  0  0  0  0  0  0  0999 V2000
   55.7400   30.1460   44.6960 O   0  0  0  0  0  0  0  0  0  0  0  0
   56.8280   29.7340   44.2050 C   0  0  0  0  0  0  0  0  0  0  0  0
   57.6360   30.6210   43.4210 N   0  0  0  0  0  0  0  0  0  0  0  0
   57.4040   32.0570   43.3210 C   0  0  0  0  0  0  0  0  0  0  0  0
   57.8370   32.7400   44.5860 C   0  0  0  0  0  0  0  0  0  0  0  0
   58.6620   33.8750   44.5470 C   0  0  0  0  0  0  0  0  0  0  0  0
   59.0260   34.4950   45.7420 C   0  0  0  0  0  0  0  0  0  0  0  0
   58.5670   33.9880   46.9580 C   0  0  0  0  0  0  0  0  0  0  0  0
   57.7430   32.8610   46.9590 C   0  0  0  0  0  0  0  0  0  0  0  0
   57.3980   32.2680   45.7860 N   0  0  0  0  0  0  0  0  0  0  0  0
   57.2500   28.3030   44.4650 C   0  0  1  0  0  0  0  0  0  0  0  0
   58.7760   28.1500   44.4190 C   0  0  0  0  0  0  0  0  0  0  0  0
   59.1260   27.1500   45.4300 N   0  0  0  0  0  0  0  0  0  0  0  0
   60.5190   27.3020   45.8970 C   0  0  0  0  0  0  0  0  0  0  0  0
   60.6700   28.5790   46.6850 C   0  0  0  0  0  0  0  0  0  0  0  0
   60.5940   28.5550   48.0850 C   0  0  0  0  0  0  0  0  0  0  0  0
   60.6250   29.7480   48.8130 C   0  0  0  0  0  0  0  0  0  0  0  0
   60.7200   30.9880   48.1530 C   0  0  0  0  0  0  0  0  0  0  0  0
   60.7220   32.2210   48.9010 N   0  0  0  0  0  0  0  0  0  0  0  0
   59.8210   32.5990   49.8330 C   0  0  0  0  0  0  0  0  0  0  0  0
   60.1550   33.8390   50.3370 C   0  0  0  0  0  0  0  0  0  0  0  0
   61.3060   34.2320   49.6870 C   0  0  0  0  0  0  0  0  0  0  0  0
   61.6300   33.2170   48.8110 C   0  0  0  0  0  0  0  0  0  0  0  0
   60.7980   31.0030   46.7490 C   0  0  0  0  0  0  0  0  0  0  0  0
   60.7730   29.8110   46.0230 C   0  0  0  0  0  0  0  0  0  0  0  0
   58.1550   27.3600   46.5050 C   0  0  0  0  0  0  0  0  0  0  0  0
   56.8290   27.7290   45.8340 C   0  0  2  0  0  0  0  0  0  0  0  0
   55.9680   26.5450   45.6270 N   0  0  0  0  0  0  0  0  0  0  0  0
   56.5820   25.1630   46.4880 S   0  0  0  0  0  0  0  0  0  0  0  0
   57.0330   25.5840   47.8590 O   0  0  0  0  0  0  0  0  0  0  0  0
   55.4770   24.1530   46.6310 O   0  0  0  0  0  0  0  0  0  0  0  0
   57.9560   24.3970   45.6240 C   0  0  0  0  0  0  0  0  0  0  0  0
   57.4740   23.4020   44.6020 C   0  0  0  0  0  0  0  0  0  0  0  0
   56.4310   23.7380   43.7230 C   0  0  0  0  0  0  0  0  0  0  0  0
   56.0280   22.8400   42.7300 C   0  0  0  0  0  0  0  0  0  0  0  0
   56.6620   21.5990   42.6080 C   0  0  0  0  0  0  0  0  0  0  0  0
   57.6910   21.2510   43.4850 C   0  0  0  0  0  0  0  0  0  0  0  0
   58.0940   22.1450   44.4820 C   0  0  0  0  0  0  0  0  0  0  0  0
   57.9795   32.4602   42.4747 H   0  0  0  0  0  0  0  0  0  0  0  0
   56.3303   32.2377   43.1642 H   0  0  0  0  0  0  0  0  0  0  0  0
   59.0175   34.2711   43.5843 H   0  0  0  0  0  0  0  0  0  0  0  0
   59.6746   35.3833   45.7258 H   0  0  0  0  0  0  0  0  0  0  0  0
   58.8510   34.4705   47.9048 H   0  0  0  0  0  0  0  0  0  0  0  0
   57.3725   32.4524   47.9107 H   0  0  0  0  0  0  0  0  0  0  0  0
   56.7335   27.7513   43.6657 H   0  0  0  0  0  0  0  0  0  0  0  0
   59.0936   27.8096   43.4224 H   0  0  0  0  0  0  0  0  0  0  0  0
   59.2774   29.1086   44.6184 H   0  0  0  0  0  0  0  0  0  0  0  0
   60.7825   26.4472   46.5372 H   0  0  0  0  0  0  0  0  0  0  0  0
   61.1872   27.3389   45.0240 H   0  0  0  0  0  0  0  0  0  0  0  0
   60.5096   27.5935   48.6126 H   0  0  0  0  0  0  0  0  0  0  0  0
   60.5747   29.7177   49.9114 H   0  0  0  0  0  0  0  0  0  0  0  0
   58.9489   32.0054   50.1446 H   0  0  0  0  0  0  0  0  0  0  0  0
   59.6096   34.4041   51.1072 H   0  0  0  0  0  0  0  0  0  0  0  0
   61.8580   35.1715   49.8377 H   0  0  0  0  0  0  0  0  0  0  0  0
   62.5001   33.2184   48.1379 H   0  0  0  0  0  0  0  0  0  0  0  0
   60.8795   31.9629   46.2180 H   0  0  0  0  0  0  0  0  0  0  0  0
   60.8345   29.8382   44.9251 H   0  0  0  0  0  0  0  0  0  0  0  0
   58.0379   26.4392   47.0953 H   0  0  0  0  0  0  0  0  0  0  0  0
   58.4873   28.1551   47.1887 H   0  0  0  0  0  0  0  0  0  0  0  0
   56.2467   28.4298   46.4503 H   0  0  0  0  0  0  0  0  0  0  0  0
   55.9020   26.2700   44.6210 H   0  0  0  0  0  0  0  0  0  0  0  0
   58.5398   25.1784   45.1156 H   0  0  0  0  0  0  0  0  0  0  0  0
   58.5758   23.8650   46.3607 H   0  0  0  0  0  0  0  0  0  0  0  0
   55.9289   24.7123   43.8164 H   0  0  0  0  0  0  0  0  0  0  0  0
   55.2115   23.1096   42.0439 H   0  0  0  0  0  0  0  0  0  0  0  0
   56.3496   20.8971   41.8208 H   0  0  0  0  0  0  0  0  0  0  0  0
   58.1852   20.2727   43.3917 H   0  0  0  0  0  0  0  0  0  0  0  0
   58.8999   21.8639   45.1759 H   0  0  0  0  0  0  0  0  0  0  0  0
  1  2  2  0
  2  3  1  0
  3  4  1  0
  4  5  1  0
  5  6  2  0
  6  7  1  0
  7  8  2  0
  8  9  1  0
  9 10  2  0
  2 11  1  0
 11 12  1  0
 12 13  1  0
 13 14  1  0
 14 15  1  0
 15 16  2  0
 16 17  1  0
 17 18  2  0
 18 19  1  0
 19 20  1  0
 20 21  2  0
 21 22  1  0
 22 23  2  0
 18 24  1  0
 24 25  2  0
 13 26  1  0
 26 27  1  0
 27 28  1  0
 28 29  1  0
 29 30  2  0
 29 31  2  0
 29 32  1  0
 32 33  1  0
 33 34  2  0
 34 35  1  0
 35 36  2  0
 36 37  1  0
 37 38  2  0
 10  5  1  0
 27 11  1  0
 38 33  1  0
 25 15  1  0
 23 19  1  0
  4 39  1  0
  4 40  1  0
  6 41  1  0
  7 42  1  0
  8 43  1  0
  9 44  1  0
 11 45  1  6
 12 46  1  0
 12 47  1  0
 14 48  1  0
 14 49  1  0
 16 50  1  0
 17 51  1  0
 20 52  1  0
 21 53  1  0
 22 54  1  0
 23 55  1  0
 24 56  1  0
 25 57  1  0
 26 58  1  0
 26 59  1  0
 27 60  1  1
 28 61  1  0
 32 62  1  0
 32 63  1  0
 34 64  1  0
 35 65  1  0
 36 66  1  0
 37 67  1  0
 38 68  1  0
M  CHG  1   3  -1
M  END
>  <UniqueID>  (11) 
10

>  <SMILES>  (11) 
O=C([N-]Cc1ccccn1)[C@H]1CN(Cc2ccc(-n3cccc3)cc2)C[C@@H]1NS(=O)(=O)Cc1ccccc1

>  <Energy>  (11) 
99.36943403243194

>  <Genealogy>  (11) 
O=C([N-]Cc1ccccn1)C1CN(Cc2ccc(-n3cccc3)cc2)CC1NS(=O)(=O)Cc1ccccc1 (protonated)
O=C([N-]Cc1ccccn1)[C@H]1CN(Cc2ccc(-n3cccc3)cc2)C[C@@H]1NS(=O)(=O)Cc1ccccc1 (chirality)
O=C([N-]Cc1ccccn1)[C@H]1CN(Cc2ccc(-n3cccc3)cc2)C[C@@H]1NS(=O)(=O)Cc1ccccc1 (3D coordinates assigned)
O=C([N-]Cc1ccccn1)[C@H]1CN(Cc2ccc(-n3cccc3)cc2)C[C@@H]1NS(=O)(=O)Cc1ccccc1 (nonaromatic ring conformer: 99.36943403243194 kcal/mol)

>  <smiles>  (11) 
O=C(NCc1ccccn1)C1CN(Cc2ccc(-n3cccc3)cc2)CC1NS(=O)(=O)Cc1ccccc1

>  <score_type>  (11) 
oracle

>  <origin>  (11) 
adg

>  <m_score__min__energy>  (11) 
-13.49

>  <m_primary>  (11) 
energy

$$$$
11:0
     RDKit          3D

 38 40  0  0  0  0  0  0  0  0999 V2000
   64.1470   33.0640   48.8940 C   0  0  0  0  0  0  0  0  0  0  0  0
   63.1270   32.8610   47.4520 S   0  0  0  0  0  0  0  0  0  0  0  0
   63.7510   33.5990   46.3010 O   0  0  0  0  0  0  0  0  0  0  0  0
   63.0220   31.3980   47.1260 O   0  0  0  0  0  0  0  0  0  0  0  0
   61.5530   33.5060   47.7840 N   0  0  0  0  0  0  0  0  0  0  0  0
   60.5400   33.7810   46.8030 C   0  0  0  0  0  0  0  0  0  0  0  0
   60.2460   35.0960   46.4050 C   0  0  0  0  0  0  0  0  0  0  0  0
   59.2600   35.3400   45.4520 C   0  0  0  0  0  0  0  0  0  0  0  0
   58.5520   34.2800   44.8860 C   0  0  0  0  0  0  0  0  0  0  0  0
   58.8250   32.9560   45.2640 C   0  0  0  0  0  0  0  0  0  0  0  0
   58.0470   31.8610   44.6370 C   0  0  0  0  0  0  0  0  0  0  0  0
   57.9650   31.6290   43.3120 N   0  0  0  0  0  0  0  0  0  0  0  0
   57.1870   30.5700   43.1600 N   0  0  0  0  0  0  0  0  0  0  0  0
   56.8180   30.1970   44.3990 C   0  0  0  0  0  0  0  0  0  0  0  0
   55.9560   29.0150   44.7000 C   0  0  0  0  0  0  0  0  0  0  0  0
   56.7870   27.9140   45.3030 C   0  0  0  0  0  0  0  0  0  0  0  0
   58.1900   28.0090   45.2890 C   0  0  0  0  0  0  0  0  0  0  0  0
   58.9710   27.0100   45.8740 C   0  0  0  0  0  0  0  0  0  0  0  0
   58.3630   25.9130   46.4860 C   0  0  0  0  0  0  0  0  0  0  0  0
   56.9700   25.8140   46.5210 C   0  0  0  0  0  0  0  0  0  0  0  0
   56.1790   26.8110   45.9370 C   0  0  0  0  0  0  0  0  0  0  0  0
   54.7930   26.7000   45.9940 O   0  0  0  0  0  0  0  0  0  0  0  0
   57.3440   30.9790   45.3090 O   0  0  0  0  0  0  0  0  0  0  0  0
   59.8250   32.7060   46.2310 C   0  0  0  0  0  0  0  0  0  0  0  0
   60.1060   31.3920   46.6170 O   0  0  0  0  0  0  0  0  0  0  0  0
   63.5324   32.9417   49.7980 H   0  0  0  0  0  0  0  0  0  0  0  0
   64.9452   32.3071   48.8881 H   0  0  0  0  0  0  0  0  0  0  0  0
   64.5945   34.0688   48.8881 H   0  0  0  0  0  0  0  0  0  0  0  0
   60.7978   35.9378   46.8487 H   0  0  0  0  0  0  0  0  0  0  0  0
   59.0388   36.3727   45.1446 H   0  0  0  0  0  0  0  0  0  0  0  0
   57.7727   34.4833   44.1367 H   0  0  0  0  0  0  0  0  0  0  0  0
   55.1694   29.3089   45.4105 H   0  0  0  0  0  0  0  0  0  0  0  0
   55.4988   28.6537   43.7670 H   0  0  0  0  0  0  0  0  0  0  0  0
   58.6749   28.8750   44.8147 H   0  0  0  0  0  0  0  0  0  0  0  0
   60.0680   27.0879   45.8524 H   0  0  0  0  0  0  0  0  0  0  0  0
   58.9814   25.1254   46.9413 H   0  0  0  0  0  0  0  0  0  0  0  0
   56.4934   24.9508   47.0085 H   0  0  0  0  0  0  0  0  0  0  0  0
   60.8950   31.1490   47.2040 H   0  0  0  0  0  0  0  0  0  0  0  0
  1  2  1  0
  2  3  2  0
  2  4  2  0
  2  5  1  0
  5  6  1  0
  6  7  2  0
  7  8  1  0
  8  9  2  0
  9 10  1  0
 10 11  1  0
 11 12  2  0
 12 13  1  0
 13 14  2  0
 14 15  1  0
 15 16  1  0
 16 17  2  0
 17 18  1  0
 18 19  2  0
 19 20  1  0
 20 21  2  0
 21 22  1  0
 14 23  1  0
 10 24  2  0
 24 25  1  0
 24  6  1  0
 23 11  1  0
 21 16  1  0
  1 26  1  0
  1 27  1  0
  1 28  1  0
  7 29  1  0
  8 30  1  0
  9 31  1  0
 15 32  1  0
 15 33  1  0
 17 34  1  0
 18 35  1  0
 19 36  1  0
 20 37  1  0
 25 38  1  0
M  CHG  2   5  -1  22  -1
M  END
>  <UniqueID>  (12) 
11

>  <SMILES>  (12) 
CS(=O)(=O)[N-]c1cccc(-c2nnc(Cc3ccccc3[O-])o2)c1O

>  <Energy>  (12) 
75.05094881079977

>  <Genealogy>  (12) 
CS(=O)(=O)[N-]c1cccc(-c2nnc(Cc3ccccc3[O-])o2)c1O (protonated)
CS(=O)(=O)[N-]c1cccc(-c2nnc(Cc3ccccc3[O-])o2)c1O (3D coordinates assigned)
CS(=O)(=O)[N-]c1cccc(-c2nnc(Cc3ccccc3[O-])o2)c1O (optimized conformer: 75.05094881079977 kcal/mol)

>  <smiles>  (12) 
CS(=O)(=O)Nc1cccc(-c2nnc(Cc3ccccc3O)o2)c1O

>  <score_type>  (12) 
oracle

>  <origin>  (12) 
adg

>  <m_score__min__energy>  (12) 
-12.949999999999999

>  <m_primary>  (12) 
energy

$$$$
12:0
     RDKit          3D

 48 50  0  0  1  0  0  0  0  0999 V2000
   59.3170   32.8310   50.3980 C   0  0  0  0  0  0  0  0  0  0  0  0
   60.1000   31.8320   49.6790 N   0  0  0  0  0  0  0  0  0  0  0  0
   59.6940   30.4900   49.7770 C   0  0  0  0  0  0  0  0  0  0  0  0
   58.5100   30.0750   49.6370 O   0  0  0  0  0  0  0  0  0  0  0  0
   60.7010   29.4250   50.0720 C   0  0  0  0  0  0  0  0  0  0  0  0
   60.4190   27.9710   49.0720 S   0  0  0  0  0  0  0  0  0  0  0  0
   60.0010   28.5580   47.4310 C   0  0  0  0  0  0  0  0  0  0  0  0
   60.3180   29.0920   46.4810 N   0  0  0  0  0  0  0  0  0  0  0  0
   59.6920   29.3710   45.3640 N   0  0  0  0  0  0  0  0  0  0  0  0
   58.4810   28.9660   45.3250 C   0  0  0  0  0  0  0  0  0  0  0  0
   57.4730   29.0320   44.3810 N   0  0  0  0  0  0  0  0  0  0  0  0
   57.0150   30.3730   44.1050 C   0  0  0  0  0  0  0  0  0  0  0  0
   55.8600   30.6380   44.5010 O   0  0  0  0  0  0  0  0  0  0  0  0
   57.9370   31.2590   43.4070 C   0  0  0  0  0  0  0  0  0  0  0  0
   57.7670   32.7220   43.5840 C   0  0  0  0  0  0  0  0  0  0  0  0
   58.2090   33.2530   44.8850 C   0  0  0  0  0  0  0  0  0  0  0  0
   59.1100   34.3140   44.8690 C   0  0  0  0  0  0  0  0  0  0  0  0
   59.5830   34.9080   46.0130 C   0  0  0  0  0  0  0  0  0  0  0  0
   59.1530   34.4420   47.2230 C   0  0  0  0  0  0  0  0  0  0  0  0
   58.2580   33.3910   47.2760 C   0  0  0  0  0  0  0  0  0  0  0  0
   57.7980   32.8100   46.1100 C   0  0  0  0  0  0  0  0  0  0  0  0
   58.1740   28.1390   46.9400 S   0  0  0  0  0  0  0  0  0  0  0  0
   61.2090   32.3160   48.9410 C   0  0  0  0  0  0  0  0  0  0  0  0
   61.7110   31.7170   47.8070 C   0  0  0  0  0  0  0  0  0  0  0  0
   62.8120   32.2590   47.1320 C   0  0  0  0  0  0  0  0  0  0  0  0
   63.4260   33.3990   47.5710 C   0  0  0  0  0  0  0  0  0  0  0  0
   62.9390   34.0060   48.6960 C   0  0  0  0  0  0  0  0  0  0  0  0
   61.8670   33.4700   49.3480 C   0  0  0  0  0  0  0  0  0  0  0  0
   59.4355   32.6798   51.4811 H   0  0  0  0  0  0  0  0  0  0  0  0
   59.6694   33.8373   50.1275 H   0  0  0  0  0  0  0  0  0  0  0  0
   58.2556   32.7292   50.1275 H   0  0  0  0  0  0  0  0  0  0  0  0
   61.7076   29.8152   49.8613 H   0  0  0  0  0  0  0  0  0  0  0  0
   60.6075   29.1420   51.1309 H   0  0  0  0  0  0  0  0  0  0  0  0
   60.1750   29.8970   44.5610 H   0  0  0  0  0  0  0  0  0  0  0  0
   58.9528   31.0048   43.7439 H   0  0  0  0  0  0  0  0  0  0  0  0
   57.7296   31.0858   42.3407 H   0  0  0  0  0  0  0  0  0  0  0  0
   58.3433   33.2291   42.7962 H   0  0  0  0  0  0  0  0  0  0  0  0
   56.6849   32.9119   43.5291 H   0  0  0  0  0  0  0  0  0  0  0  0
   59.4584   34.6933   43.8970 H   0  0  0  0  0  0  0  0  0  0  0  0
   60.2955   35.7442   45.9562 H   0  0  0  0  0  0  0  0  0  0  0  0
   59.5185   34.9025   48.1527 H   0  0  0  0  0  0  0  0  0  0  0  0
   57.9105   33.0155   48.2498 H   0  0  0  0  0  0  0  0  0  0  0  0
   57.0862   31.9735   46.1694 H   0  0  0  0  0  0  0  0  0  0  0  0
   61.2401   30.7990   47.4256 H   0  0  0  0  0  0  0  0  0  0  0  0
   63.1908   31.7569   46.2296 H   0  0  0  0  0  0  0  0  0  0  0  0
   64.2896   33.8174   47.0333 H   0  0  0  0  0  0  0  0  0  0  0  0
   63.4109   34.9248   49.0744 H   0  0  0  0  0  0  0  0  0  0  0  0
   61.5017   33.9824   50.2502 H   0  0  0  0  0  0  0  0  0  0  0  0
  1  2  1  0
  2  3  1  0
  3  4  2  0
  3  5  1  0
  5  6  1  0
  6  7  1  0
  7  8  2  0
  8  9  1  0
  9 10  1  0
 10 11  2  0
 11 12  1  0
 12 13  2  0
 12 14  1  0
 14 15  1  0
 15 16  1  0
 16 17  2  0
 17 18  1  0
 18 19  2  0
 19 20  1  0
 20 21  2  0
 10 22  1  0
  2 23  1  0
 23 24  2  0
 24 25  1  0
 25 26  2  0
 26 27  1  0
 27 28  2  0
 22  7  1  0
 28 23  1  0
 21 16  1  0
  1 29  1  0
  1 30  1  0
  1 31  1  0
  5 32  1  0
  5 33  1  0
  9 34  1  0
 14 35  1  0
 14 36  1  0
 15 37  1  0
 15 38  1  0
 17 39  1  0
 18 40  1  0
 19 41  1  0
 20 42  1  0
 21 43  1  0
 24 44  1  0
 25 45  1  0
 26 46  1  0
 27 47  1  0
 28 48  1  0
M  END
>  <smiles>  (13) 
CN(C(=O)CSc1n[nH]c(=NC(=O)CCc2ccccc2)s1)c1ccccc1

>  <score_type>  (13) 
oracle

>  <origin>  (13) 
adg

>  <m_score__min__energy>  (13) 
-10.220000000000001

>  <m_primary>  (13) 
energy

$$$$
13:0
     RDKit          3D

 34 36  0  0  0  0  0  0  0  0999 V2000
   64.8770   31.9970   46.3060 H   0  0  0  0  0  0  0  0  0  0  0  0
   64.1870   32.7360   46.3730 O   0  0  0  0  0  0  0  0  0  0  0  0
   63.4940   32.9770   47.5570 C   0  0  0  0  0  0  0  0  0  0  0  0
   64.1470   32.8660   48.8050 C   0  0  0  0  0  0  0  0  0  0  0  0
   65.2168   32.6125   48.8413 H   0  0  0  0  0  0  0  0  0  0  0  0
   63.4400   33.0770   49.9980 C   0  0  0  0  0  0  0  0  0  0  0  0
   63.9379   32.9739   50.9734 H   0  0  0  0  0  0  0  0  0  0  0  0
   62.0930   33.4200   49.9180 C   0  0  0  0  0  0  0  0  0  0  0  0
   61.4570   33.5840   48.6980 C   0  0  0  0  0  0  0  0  0  0  0  0
   62.1330   33.3260   47.5010 C   0  0  0  0  0  0  0  0  0  0  0  0
   61.6106   33.3947   46.5354 H   0  0  0  0  0  0  0  0  0  0  0  0
   60.0500   33.9160   48.9800 C   0  0  0  0  0  0  0  0  0  0  0  0
   59.0340   34.2130   48.1570 C   0  0  0  0  0  0  0  0  0  0  0  0
   58.6063   35.2249   48.2139 H   0  0  0  0  0  0  0  0  0  0  0  0
   58.4530   33.2760   47.1830 C   0  0  0  0  0  0  0  0  0  0  0  0
   57.6730   33.7640   46.1280 C   0  0  0  0  0  0  0  0  0  0  0  0
   57.4723   34.8426   46.0485 H   0  0  0  0  0  0  0  0  0  0  0  0
   57.1480   32.8860   45.1750 C   0  0  0  0  0  0  0  0  0  0  0  0
   56.5166   33.2731   44.3616 H   0  0  0  0  0  0  0  0  0  0  0  0
   57.4240   31.5130   45.2530 C   0  0  0  0  0  0  0  0  0  0  0  0
   56.7430   30.4040   44.0680 S   0  0  0  0  0  0  0  0  0  0  0  0
   55.3460   30.0240   44.4660 O   0  0  0  0  0  0  0  0  0  0  0  0
   56.6970   31.0670   42.7190 O   0  0  0  0  0  0  0  0  0  0  0  0
   57.7550   28.9440   43.9790 C   0  0  0  0  0  0  0  0  0  0  0  0
   57.9932   28.6004   44.9964 H   0  0  0  0  0  0  0  0  0  0  0  0
   57.2107   28.1527   43.4428 H   0  0  0  0  0  0  0  0  0  0  0  0
   58.6870   29.1760   43.4428 H   0  0  0  0  0  0  0  0  0  0  0  0
   58.2260   31.0270   46.2940 C   0  0  0  0  0  0  0  0  0  0  0  0
   58.4436   29.9509   46.3616 H   0  0  0  0  0  0  0  0  0  0  0  0
   58.7500   31.9040   47.2460 C   0  0  0  0  0  0  0  0  0  0  0  0
   59.3974   31.5195   48.0479 H   0  0  0  0  0  0  0  0  0  0  0  0
   59.9810   33.8780   50.4420 C   0  0  0  0  0  0  0  0  0  0  0  0
   58.9480   34.0880   51.1320 O   0  0  0  0  0  0  0  0  0  0  0  0
   61.2270   33.5980   50.9900 O   0  0  0  0  0  0  0  0  0  0  0  0
  1  2  1  0
  2  3  1  0
  3  4  2  0
  4  5  1  0
  4  6  1  0
  6  7  1  0
  6  8  2  0
  8  9  1  0
  9 10  2  0
 10 11  1  0
  9 12  1  0
 12 13  2  0
 13 14  1  0
 13 15  1  0
 15 16  2  0
 16 17  1  0
 16 18  1  0
 18 19  1  0
 18 20  2  0
 20 21  1  0
 21 22  2  0
 21 23  2  0
 21 24  1  0
 24 25  1  0
 24 26  1  0
 24 27  1  0
 20 28  1  0
 28 29  1  0
 28 30  2  0
 30 31  1  0
 12 32  1  0
 32 33  2  0
 32 34  1  0
 10  3  1  0
 30 15  1  0
 34  8  1  0
M  END
>  <UniqueID>  (14) 
12

>  <SMILES>  (14) 
CS(=O)(=O)c1ccc(/C=C2/C(=O)Oc3ccc(O)cc32)cc1

>  <Energy>  (14) 
72.50764904061089

>  <Genealogy>  (14) 
CS(=O)(=O)c1ccc(/C=C2/C(=O)Oc3ccc(O)cc32)cc1 (cis-trans isomerization)
CS(=O)(=O)c1ccc(/C=C2/C(=O)Oc3ccc(O)cc32)cc1 (3D coordinates assigned)
CS(=O)(=O)c1ccc(/C=C2/C(=O)Oc3ccc(O)cc32)cc1 (nonaromatic ring conformer: 72.50764904061089 kcal/mol)

>  <smiles>  (14) 
CS(=O)(=O)c1ccc(C=C2C(=O)Oc3ccc(O)cc32)cc1

>  <score_type>  (14) 
oracle

>  <origin>  (14) 
adg

>  <m_score__min__energy>  (14) 
-8.2699999999999996

>  <m_primary>  (14) 
energy

$$$$
14:0
     RDKit          3D

 30 31  0  0  0  0  0  0  0  0999 V2000
   55.1460   29.3260   44.8810 N   0  0  0  0  0  0  0  0  0  0  0  0
   56.6980   29.4350   44.1300 S   0  0  0  0  0  0  0  0  0  0  0  0
   57.5240   28.2400   44.5160 O   0  0  0  0  0  0  0  0  0  0  0  0
   56.5350   29.4450   42.6360 O   0  0  0  0  0  0  0  0  0  0  0  0
   57.5030   30.9100   44.6520 C   0  0  0  0  0  0  0  0  0  0  0  0
   57.7460   31.9420   43.7350 C   0  0  0  0  0  0  0  0  0  0  0  0
   58.3760   33.1180   44.1500 C   0  0  0  0  0  0  0  0  0  0  0  0
   58.7670   33.2750   45.4870 C   0  0  0  0  0  0  0  0  0  0  0  0
   59.5710   34.7520   46.0090 S   0  0  0  0  0  0  0  0  0  0  0  0
   58.9040   35.2330   47.2670 O   0  0  0  0  0  0  0  0  0  0  0  0
   59.4570   35.8280   44.9640 O   0  0  0  0  0  0  0  0  0  0  0  0
   61.2490   34.4530   46.3510 N   0  0  0  0  0  0  0  0  0  0  0  0
   61.7950   33.6700   47.2410 C   0  0  0  0  0  0  0  0  0  0  0  0
   62.7740   32.8250   46.8100 N   0  0  0  0  0  0  0  0  0  0  0  0
   63.4250   31.9690   47.6380 C   0  0  0  0  0  0  0  0  0  0  0  0
   63.1020   31.9280   48.9910 C   0  0  0  0  0  0  0  0  0  0  0  0
   62.1070   32.7720   49.4780 C   0  0  0  0  0  0  0  0  0  0  0  0
   61.4360   33.6510   48.6160 C   0  0  0  0  0  0  0  0  0  0  0  0
   60.4410   34.4720   49.1380 O   0  0  0  0  0  0  0  0  0  0  0  0
   58.5100   32.2500   46.4080 C   0  0  0  0  0  0  0  0  0  0  0  0
   57.8810   31.0730   45.9930 C   0  0  0  0  0  0  0  0  0  0  0  0
   55.2260   28.6140   45.6420 H   0  0  0  0  0  0  0  0  0  0  0  0
   57.4396   31.8256   42.6850 H   0  0  0  0  0  0  0  0  0  0  0  0
   58.5658   33.9234   43.4252 H   0  0  0  0  0  0  0  0  0  0  0  0
   64.2082   31.3074   47.2394 H   0  0  0  0  0  0  0  0  0  0  0  0
   63.6263   31.2372   49.6677 H   0  0  0  0  0  0  0  0  0  0  0  0
   61.8457   32.7489   50.5463 H   0  0  0  0  0  0  0  0  0  0  0  0
   59.9100   35.1090   48.5530 H   0  0  0  0  0  0  0  0  0  0  0  0
   58.8043   32.3724   47.4608 H   0  0  0  0  0  0  0  0  0  0  0  0
   57.6817   30.2720   46.7201 H   0  0  0  0  0  0  0  0  0  0  0  0
  1  2  1  0
  2  3  2  0
  2  4  2  0
  2  5  1  0
  5  6  2  0
  6  7  1  0
  7  8  2  0
  8  9  1  0
  9 10  2  0
  9 11  2  0
  9 12  1  0
 12 13  2  3
 13 14  1  0
 14 15  1  0
 15 16  2  0
 16 17  1  0
 17 18  2  0
 18 19  1  0
  8 20  1  0
 20 21  2  0
 21  5  1  0
 18 13  1  0
  1 22  1  0
  6 23  1  0
  7 24  1  0
 15 25  1  0
 16 26  1  0
 17 27  1  0
 19 28  1  0
 20 29  1  0
 21 30  1  0
M  CHG  2   1  -1  14  -1
M  END
>  <UniqueID>  (15) 
13

>  <SMILES>  (15) 
[NH-]S(=O)(=O)c1ccc(S(=O)(=O)N=c2[n-]cccc2O)cc1

>  <Energy>  (15) 
40.5255822115528

>  <Genealogy>  (15) 
[NH-]S(=O)(=O)c1ccc(S(=O)(=O)N=c2[n-]cccc2O)cc1 (protonated)
[NH-]S(=O)(=O)c1ccc(S(=O)(=O)N=c2[n-]cccc2O)cc1 (3D coordinates assigned)
[NH-]S(=O)(=O)c1ccc(S(=O)(=O)N=c2[n-]cccc2O)cc1 (optimized conformer: 40.5255822115528 kcal/mol)

>  <smiles>  (15) 
NS(=O)(=O)c1ccc(S(=O)(=O)N=c2[nH]cccc2O)cc1

>  <score_type>  (15) 
oracle

>  <origin>  (15) 
adg

>  <m_score__min__energy>  (15) 
-10.83

>  <m_primary>  (15) 
energy

$$$$
15:0
     RDKit          3D

 40 41  0  0  0  0  0  0  0  0999 V2000
   59.3260   29.8140   47.4000 C   0  0  0  0  0  0  0  0  0  0  0  0
   58.1730   30.5870   47.0880 O   0  0  0  0  0  0  0  0  0  0  0  0
   58.1930   31.7900   46.3650 C   0  0  0  0  0  0  0  0  0  0  0  0
   58.9850   32.8860   46.7610 C   0  0  0  0  0  0  0  0  0  0  0  0
   58.9700   34.0710   46.0190 C   0  0  0  0  0  0  0  0  0  0  0  0
   58.1800   34.1690   44.8740 C   0  0  0  0  0  0  0  0  0  0  0  0
   57.3940   33.0890   44.4700 C   0  0  0  0  0  0  0  0  0  0  0  0
   57.3810   31.8990   45.2230 C   0  0  0  0  0  0  0  0  0  0  0  0
   56.5750   30.7760   44.8400 N   0  0  0  0  0  0  0  0  0  0  0  0
   57.0450   29.4580   44.5310 C   0  0  0  0  0  0  0  0  0  0  0  0
   57.3040   29.1320   43.3410 O   0  0  0  0  0  0  0  0  0  0  0  0
   57.1450   28.4870   45.5780 N   0  0  0  0  0  0  0  0  0  0  0  0
   57.1580   27.0510   45.3060 C   0  0  0  0  0  0  0  0  0  0  0  0
   56.2220   26.3580   46.2430 C   0  0  0  0  0  0  0  0  0  0  0  0
   56.6580   25.8860   47.3280 O   0  0  0  0  0  0  0  0  0  0  0  0
   54.8230   26.3180   45.9450 N   0  0  0  0  0  0  0  0  0  0  0  0
   54.1080   25.0880   45.6270 C   0  0  0  0  0  0  0  0  0  0  0  0
   55.0910   24.0220   45.2180 C   0  0  0  0  0  0  0  0  0  0  0  0
   55.5260   23.9550   43.8830 C   0  0  0  0  0  0  0  0  0  0  0  0
   56.3980   22.9430   43.4720 C   0  0  0  0  0  0  0  0  0  0  0  0
   56.8410   21.9880   44.3890 C   0  0  0  0  0  0  0  0  0  0  0  0
   56.4040   22.0360   45.7150 C   0  0  0  0  0  0  0  0  0  0  0  0
   55.5310   23.0460   46.1330 C   0  0  0  0  0  0  0  0  0  0  0  0
   55.1180   23.0690   47.4260 F   0  0  0  0  0  0  0  0  0  0  0  0
   59.4342   29.7414   48.4923 H   0  0  0  0  0  0  0  0  0  0  0  0
   59.2175   28.8055   46.9745 H   0  0  0  0  0  0  0  0  0  0  0  0
   60.2177   30.2975   46.9745 H   0  0  0  0  0  0  0  0  0  0  0  0
   59.6177   32.8091   47.6575 H   0  0  0  0  0  0  0  0  0  0  0  0
   59.5822   34.9271   46.3389 H   0  0  0  0  0  0  0  0  0  0  0  0
   58.1764   35.0998   44.2879 H   0  0  0  0  0  0  0  0  0  0  0  0
   56.7819   33.1675   43.5594 H   0  0  0  0  0  0  0  0  0  0  0  0
   57.0680   28.8080   46.5690 H   0  0  0  0  0  0  0  0  0  0  0  0
   56.8384   26.8713   44.2689 H   0  0  0  0  0  0  0  0  0  0  0  0
   58.1762   26.6599   45.4488 H   0  0  0  0  0  0  0  0  0  0  0  0
   53.5493   24.7502   46.5123 H   0  0  0  0  0  0  0  0  0  0  0  0
   53.4085   25.2762   44.7992 H   0  0  0  0  0  0  0  0  0  0  0  0
   55.1777   24.7042   43.1568 H   0  0  0  0  0  0  0  0  0  0  0  0
   56.7353   22.8990   42.4259 H   0  0  0  0  0  0  0  0  0  0  0  0
   57.5346   21.1972   44.0672 H   0  0  0  0  0  0  0  0  0  0  0  0
   56.7476   21.2768   46.4330 H   0  0  0  0  0  0  0  0  0  0  0  0
  1  2  1  0
  2  3  1  0
  3  4  2  0
  4  5  1  0
  5  6  2  0
  6  7  1  0
  7  8  2  0
  8  9  1  0
  9 10  1  0
 10 11  2  0
 10 12  1  0
 12 13  1  0
 13 14  1  0
 14 15  2  0
 14 16  1  0
 16 17  1  0
 17 18  1  0
 18 19  2  0
 19 20  1  0
 20 21  2  0
 21 22  1  0
 22 23  2  0
 23 24  1  0
  8  3  1  0
 23 18  1  0
  1 25  1  0
  1 26  1  0
  1 27  1  0
  4 28  1  0
  5 29  1  0
  6 30  1  0
  7 31  1  0
 12 32  1  0
 13 33  1  0
 13 34  1  0
 17 35  1  0
 17 36  1  0
 19 37  1  0
 20 38  1  0
 21 39  1  0
 22 40  1  0
M  CHG  2   9  -1  16  -1
M  END
>  <UniqueID>  (16) 
14

>  <SMILES>  (16) 
COc1ccccc1[N-]C(=O)NCC(=O)[N-]Cc1ccccc1F

>  <Energy>  (16) 
34.745208421377015

>  <Genealogy>  (16) 
COc1ccccc1[N-]C(=O)NCC(=O)[N-]Cc1ccccc1F (protonated)
COc1ccccc1[N-]C(=O)NCC(=O)[N-]Cc1ccccc1F (3D coordinates assigned)
COc1ccccc1[N-]C(=O)NCC(=O)[N-]Cc1ccccc1F (optimized conformer: 34.745208421377015 kcal/mol)

>  <smiles>  (16) 
COc1ccccc1NC(=O)NCC(=O)NCc1ccccc1F

>  <score_type>  (16) 
oracle

>  <origin>  (16) 
adg

>  <m_score__min__energy>  (16) 
-11.07

>  <m_primary>  (16) 
energy

$$$$
16:0
     RDKit          3D

 41 43  0  0  0  0  0  0  0  0999 V2000
   57.4808   33.7280   47.6279 H   0  0  0  0  0  0  0  0  0  0  0  0
   57.6820   33.4730   46.5770 C   0  0  0  0  0  0  0  0  0  0  0  0
   57.0450   32.4190   46.0000 N   0  0  0  0  0  0  0  0  0  0  0  0
   57.2500   32.0670   44.7020 C   0  0  0  0  0  0  0  0  0  0  0  0
   56.5890   31.0480   44.2230 N   0  0  0  0  0  0  0  0  0  0  0  0
   56.3300   29.7920   44.8730 C   0  0  0  0  0  0  0  0  0  0  0  0
   55.1550   29.3390   44.8660 O   0  0  0  0  0  0  0  0  0  0  0  0
   57.4190   28.9900   45.4790 C   0  0  0  0  0  0  0  0  0  0  0  0
   57.4000   27.5930   45.4130 C   0  0  0  0  0  0  0  0  0  0  0  0
   56.6050   27.0805   44.8515 H   0  0  0  0  0  0  0  0  0  0  0  0
   58.3860   26.8500   46.0570 C   0  0  0  0  0  0  0  0  0  0  0  0
   58.3742   25.7514   46.0026 H   0  0  0  0  0  0  0  0  0  0  0  0
   59.3910   27.5070   46.7730 C   0  0  0  0  0  0  0  0  0  0  0  0
   60.2570   26.8170   47.3780 O   0  0  0  0  0  0  0  0  0  0  0  0
   59.4270   28.8790   46.8150 N   0  0  0  0  0  0  0  0  0  0  0  0
   60.4370   29.6010   47.6080 C   0  0  0  0  0  0  0  0  0  0  0  0
   61.0236   30.2531   46.9441 H   0  0  0  0  0  0  0  0  0  0  0  0
   61.1007   28.8727   48.0969 H   0  0  0  0  0  0  0  0  0  0  0  0
   59.7610   30.4400   48.6620 C   0  0  0  0  0  0  0  0  0  0  0  0
   59.9000   31.8370   48.6570 C   0  0  0  0  0  0  0  0  0  0  0  0
   60.5423   32.3211   47.9066 H   0  0  0  0  0  0  0  0  0  0  0  0
   59.2260   32.6140   49.6010 C   0  0  0  0  0  0  0  0  0  0  0  0
   59.3471   33.7073   49.5984 H   0  0  0  0  0  0  0  0  0  0  0  0
   58.3990   32.0080   50.5480 C   0  0  0  0  0  0  0  0  0  0  0  0
   57.8721   32.6266   51.2894 H   0  0  0  0  0  0  0  0  0  0  0  0
   58.2360   30.6170   50.5600 C   0  0  0  0  0  0  0  0  0  0  0  0
   57.3830   30.0570   51.5220 O   0  0  0  0  0  0  0  0  0  0  0  0
   56.4810   30.8060   52.3310 C   0  0  0  0  0  0  0  0  0  0  0  0
   56.7020   30.6225   53.3928 H   0  0  0  0  0  0  0  0  0  0  0  0
   56.5960   31.8779   52.1124 H   0  0  0  0  0  0  0  0  0  0  0  0
   55.4485   30.4960   52.1124 H   0  0  0  0  0  0  0  0  0  0  0  0
   58.9230   29.8340   49.6130 C   0  0  0  0  0  0  0  0  0  0  0  0
   58.8029   28.7406   49.6177 H   0  0  0  0  0  0  0  0  0  0  0  0
   58.4760   29.6140   46.1610 C   0  0  0  0  0  0  0  0  0  0  0  0
   58.5406   30.7121   46.1697 H   0  0  0  0  0  0  0  0  0  0  0  0
   58.1830   32.8000   43.9350 C   0  0  0  0  0  0  0  0  0  0  0  0
   58.3882   32.5154   42.8925 H   0  0  0  0  0  0  0  0  0  0  0  0
   58.8420   33.8870   44.5090 C   0  0  0  0  0  0  0  0  0  0  0  0
   59.5594   34.4724   43.9151 H   0  0  0  0  0  0  0  0  0  0  0  0
   58.5900   34.2310   45.8380 C   0  0  0  0  0  0  0  0  0  0  0  0
   59.1015   35.0898   46.2971 H   0  0  0  0  0  0  0  0  0  0  0  0
  1  2  1  0
  2  3  1  0
  3  4  1  0
  4  5  2  0
  5  6  1  0
  6  7  2  0
  6  8  1  0
  8  9  1  0
  9 10  1  0
  9 11  2  0
 11 12  1  0
 11 13  1  0
 13 14  2  0
 13 15  1  0
 15 16  1  0
 16 17  1  0
 16 18  1  0
 16 19  1  0
 19 20  2  0
 20 21  1  0
 20 22  1  0
 22 23  1  0
 22 24  2  0
 24 25  1  0
 24 26  1  0
 26 27  1  0
 27 28  1  0
 28 29  1  0
 28 30  1  0
 28 31  1  0
 26 32  2  0
 32 33  1  0
 15 34  1  0
 34 35  1  0
  4 36  1  0
 36 37  1  0
 36 38  2  0
 38 39  1  0
 38 40  1  0
 40 41  1  0
 40  2  2  0
 34  8  2  0
 32 19  1  0
M  CHG  1   3  -1
M  END
>  <UniqueID>  (17) 
15

>  <SMILES>  (17) 
COc1cccc(Cn2cc(C(=O)/N=c3\cccc[n-]3)ccc2=O)c1

>  <Energy>  (17) 
53.03739646368896

>  <Genealogy>  (17) 
COc1cccc(Cn2cc(C(=O)N=c3cccc[n-]3)ccc2=O)c1 (protonated)
COc1cccc(Cn2cc(C(=O)/N=c3\cccc[n-]3)ccc2=O)c1 (cis-trans isomerization)
COc1cccc(Cn2cc(C(=O)/N=c3\cccc[n-]3)ccc2=O)c1 (3D coordinates assigned)
COc1cccc(Cn2cc(C(=O)/N=c3\cccc[n-]3)ccc2=O)c1 (optimized conformer: 53.03739646368896 kcal/mol)

>  <smiles>  (17) 
COc1cccc(Cn2cc(C(=O)N=c3cccc[nH]3)ccc2=O)c1

>  <score_type>  (17) 
oracle

>  <origin>  (17) 
adg

>  <m_score__min__energy>  (17) 
-9.7300000000000004

>  <m_primary>  (17) 
energy

$$$$
17:0
     RDKit          3D

 50 52  0  0  0  0  0  0  0  0999 V2000
   59.7350   26.1580   46.9890 O   0  0  0  0  0  0  0  0  0  0  0  0
   58.7670   26.9260   46.7370 C   0  0  0  0  0  0  0  0  0  0  0  0
   59.0100   28.4010   46.6570 C   0  0  0  0  0  0  0  0  0  0  0  0
   57.7650   29.0910   46.7020 O   0  0  0  0  0  0  0  0  0  0  0  0
   57.0520   29.4440   45.5520 C   0  0  0  0  0  0  0  0  0  0  0  0
   56.0950   28.7240   45.1570 O   0  0  0  0  0  0  0  0  0  0  0  0
   57.4260   30.6630   44.8000 C   0  0  0  0  0  0  0  0  0  0  0  0
   57.3120   30.7040   43.3990 C   0  0  0  0  0  0  0  0  0  0  0  0
   57.6720   31.8560   42.6970 C   0  0  0  0  0  0  0  0  0  0  0  0
   58.1460   32.9780   43.3790 C   0  0  0  0  0  0  0  0  0  0  0  0
   58.2590   32.9570   44.7800 C   0  0  0  0  0  0  0  0  0  0  0  0
   58.7260   34.0900   45.5260 N   0  0  0  0  0  0  0  0  0  0  0  0
   60.0310   34.0700   46.6690 S   0  0  0  0  0  0  0  0  0  0  0  0
   61.3350   34.0230   45.9250 O   0  0  0  0  0  0  0  0  0  0  0  0
   59.9800   35.3290   47.4900 O   0  0  0  0  0  0  0  0  0  0  0  0
   59.9170   32.6520   47.7080 C   0  0  0  0  0  0  0  0  0  0  0  0
   60.7670   31.5580   47.5000 C   0  0  0  0  0  0  0  0  0  0  0  0
   60.6880   30.4390   48.3320 C   0  0  0  0  0  0  0  0  0  0  0  0
   59.7590   30.4040   49.3750 C   0  0  0  0  0  0  0  0  0  0  0  0
   58.8940   31.4920   49.5960 C   0  0  0  0  0  0  0  0  0  0  0  0
   57.9400   31.4510   50.6740 N   0  0  0  0  0  0  0  0  0  0  0  0
   57.4020   30.3750   51.0080 O   0  0  0  0  0  0  0  0  0  0  0  0
   57.5950   32.6020   51.3460 O   0  0  0  0  0  0  0  0  0  0  0  0
   58.9790   32.6140   48.7500 C   0  0  0  0  0  0  0  0  0  0  0  0
   57.9010   31.7980   45.4810 C   0  0  0  0  0  0  0  0  0  0  0  0
   57.4600   26.3910   46.4740 N   0  0  0  0  0  0  0  0  0  0  0  0
   57.1180   25.0070   46.6580 C   0  0  0  0  0  0  0  0  0  0  0  0
   57.8610   24.2600   47.3520 O   0  0  0  0  0  0  0  0  0  0  0  0
   55.8710   24.4500   46.0840 C   0  0  0  0  0  0  0  0  0  0  0  0
   55.7990   23.0770   45.7890 C   0  0  0  0  0  0  0  0  0  0  0  0
   54.6320   22.5250   45.2510 C   0  0  0  0  0  0  0  0  0  0  0  0
   53.5300   23.3400   44.9900 C   0  0  0  0  0  0  0  0  0  0  0  0
   53.5940   24.7090   45.2580 C   0  0  0  0  0  0  0  0  0  0  0  0
   54.7580   25.2700   45.7940 C   0  0  0  0  0  0  0  0  0  0  0  0
   54.8050   26.6450   46.0030 O   0  0  0  0  0  0  0  0  0  0  0  0
   59.6346   28.7161   47.5058 H   0  0  0  0  0  0  0  0  0  0  0  0
   59.5257   28.6368   45.7144 H   0  0  0  0  0  0  0  0  0  0  0  0
   56.9377   29.8249   42.8539 H   0  0  0  0  0  0  0  0  0  0  0  0
   57.5817   31.8796   41.6010 H   0  0  0  0  0  0  0  0  0  0  0  0
   58.4317   33.8806   42.8189 H   0  0  0  0  0  0  0  0  0  0  0  0
   61.4988   31.5804   46.6790 H   0  0  0  0  0  0  0  0  0  0  0  0
   61.3588   29.5832   48.1657 H   0  0  0  0  0  0  0  0  0  0  0  0
   59.7033   29.5203   50.0277 H   0  0  0  0  0  0  0  0  0  0  0  0
   58.3040   33.4681   48.9075 H   0  0  0  0  0  0  0  0  0  0  0  0
   57.9925   31.7756   46.5770 H   0  0  0  0  0  0  0  0  0  0  0  0
   56.7100   27.0510   46.1680 H   0  0  0  0  0  0  0  0  0  0  0  0
   56.6682   22.4314   45.9831 H   0  0  0  0  0  0  0  0  0  0  0  0
   54.5829   21.4478   45.0335 H   0  0  0  0  0  0  0  0  0  0  0  0
   52.6103   22.9039   44.5729 H   0  0  0  0  0  0  0  0  0  0  0  0
   52.7249   25.3493   45.0466 H   0  0  0  0  0  0  0  0  0  0  0  0
  1  2  2  0
  2  3  1  0
  3  4  1  0
  4  5  1  0
  5  6  2  0
  5  7  1  0
  7  8  2  0
  8  9  1  0
  9 10  2  0
 10 11  1  0
 11 12  1  0
 12 13  1  0
 13 14  2  0
 13 15  2  0
 13 16  1  0
 16 17  2  0
 17 18  1  0
 18 19  2  0
 19 20  1  0
 20 21  1  0
 21 22  2  0
 21 23  1  0
 20 24  2  0
 11 25  2  0
  2 26  1  0
 26 27  1  0
 27 28  2  0
 27 29  1  0
 29 30  2  0
 30 31  1  0
 31 32  2  0
 32 33  1  0
 33 34  2  0
 34 35  1  0
 25  7  1  0
 34 29  1  0
 24 16  1  0
  3 36  1  0
  3 37  1  0
  8 38  1  0
  9 39  1  0
 10 40  1  0
 17 41  1  0
 18 42  1  0
 19 43  1  0
 24 44  1  0
 25 45  1  0
 26 46  1  0
 30 47  1  0
 31 48  1  0
 32 49  1  0
 33 50  1  0
M  CHG  4  12  -1  21   1  23  -1  35  -1
M  END
>  <UniqueID>  (18) 
16

>  <SMILES>  (18) 
O=C(COC(=O)c1cccc([N-]S(=O)(=O)c2cccc([N+](=O)[O-])c2)c1)NC(=O)c1ccccc1[O-]

>  <Energy>  (18) 
59.43945785725387

>  <Genealogy>  (18) 
O=C(COC(=O)c1cccc([N-]S(=O)(=O)c2cccc([N+](=O)[O-])c2)c1)NC(=O)c1ccccc1[O-] (protonated)
O=C(COC(=O)c1cccc([N-]S(=O)(=O)c2cccc([N+](=O)[O-])c2)c1)NC(=O)c1ccccc1[O-] (3D coordinates assigned)
O=C(COC(=O)c1cccc([N-]S(=O)(=O)c2cccc([N+](=O)[O-])c2)c1)NC(=O)c1ccccc1[O-] (optimized conformer: 59.43945785725387 kcal/mol)

>  <smiles>  (18) 
O=C(COC(=O)c1cccc(NS(=O)(=O)c2cccc([N+](=O)[O-])c2)c1)NC(=O)c1ccccc1O

>  <score_type>  (18) 
oracle

>  <origin>  (18) 
adg

>  <m_score__min__energy>  (18) 
-14.68

>  <m_primary>  (18) 
energy

$$$$
18:0
     RDKit          3D

 42 44  0  0  0  0  0  0  0  0999 V2000
   61.9030   30.5150   49.4410 N   0  0  0  0  0  0  0  0  0  0  0  0
   61.6440   31.0720   47.8250 S   0  0  0  0  0  0  0  0  0  0  0  0
   62.9000   30.8870   47.0190 O   0  0  0  0  0  0  0  0  0  0  0  0
   61.2970   32.5340   47.8490 O   0  0  0  0  0  0  0  0  0  0  0  0
   60.3290   30.1580   47.0940 C   0  0  0  0  0  0  0  0  0  0  0  0
   59.2760   29.6790   47.8860 C   0  0  0  0  0  0  0  0  0  0  0  0
   58.2400   28.9410   47.3070 C   0  0  0  0  0  0  0  0  0  0  0  0
   58.2470   28.6710   45.9290 C   0  0  0  0  0  0  0  0  0  0  0  0
   57.1500   27.8530   45.3030 C   0  0  0  0  0  0  0  0  0  0  0  0
   55.9080   28.6170   45.2660 N   0  0  0  0  0  0  0  0  0  0  0  0
   55.5540   29.5010   44.1970 C   0  0  0  0  0  0  0  0  0  0  0  0
   54.4800   29.3250   43.5600 O   0  0  0  0  0  0  0  0  0  0  0  0
   56.4520   30.6170   43.8490 C   0  0  0  0  0  0  0  0  0  0  0  0
   56.7690   30.9110   42.5140 C   0  0  0  0  0  0  0  0  0  0  0  0
   57.6350   31.9700   42.2330 C   0  0  0  0  0  0  0  0  0  0  0  0
   57.9340   32.2380   41.0400 O   0  0  0  0  0  0  0  0  0  0  0  0
   58.1730   32.7280   43.2770 C   0  0  0  0  0  0  0  0  0  0  0  0
   57.8310   32.4180   44.6050 C   0  0  0  0  0  0  0  0  0  0  0  0
   58.3790   33.1870   45.7530 C   0  0  0  0  0  0  0  0  0  0  0  0
   59.1340   34.3610   45.5590 C   0  0  0  0  0  0  0  0  0  0  0  0
   59.6320   35.0720   46.6560 C   0  0  0  0  0  0  0  0  0  0  0  0
   59.3760   34.6280   47.9550 C   0  0  0  0  0  0  0  0  0  0  0  0
   58.6190   33.4740   48.1610 C   0  0  0  0  0  0  0  0  0  0  0  0
   58.1190   32.7580   47.0690 C   0  0  0  0  0  0  0  0  0  0  0  0
   56.9910   31.3730   44.8450 N   0  0  0  0  0  0  0  0  0  0  0  0
   59.3090   29.1400   45.1410 C   0  0  0  0  0  0  0  0  0  0  0  0
   60.3450   29.8790   45.7220 C   0  0  0  0  0  0  0  0  0  0  0  0
   61.2580   31.0600   50.0570 H   0  0  0  0  0  0  0  0  0  0  0  0
   61.5870   29.5210   49.4760 H   0  0  0  0  0  0  0  0  0  0  0  0
   59.2652   29.8847   48.9665 H   0  0  0  0  0  0  0  0  0  0  0  0
   57.4155   28.5700   47.9335 H   0  0  0  0  0  0  0  0  0  0  0  0
   57.4399   27.5815   44.2772 H   0  0  0  0  0  0  0  0  0  0  0  0
   56.9938   26.9444   45.9031 H   0  0  0  0  0  0  0  0  0  0  0  0
   56.3395   30.3131   41.6967 H   0  0  0  0  0  0  0  0  0  0  0  0
   58.8587   33.5606   43.0612 H   0  0  0  0  0  0  0  0  0  0  0  0
   59.3330   34.7205   44.5386 H   0  0  0  0  0  0  0  0  0  0  0  0
   60.2268   35.9832   46.4949 H   0  0  0  0  0  0  0  0  0  0  0  0
   59.7710   35.1878   48.8156 H   0  0  0  0  0  0  0  0  0  0  0  0
   58.4152   33.1268   49.1847 H   0  0  0  0  0  0  0  0  0  0  0  0
   57.5179   31.8526   47.2391 H   0  0  0  0  0  0  0  0  0  0  0  0
   59.3270   28.9258   44.0622 H   0  0  0  0  0  0  0  0  0  0  0  0
   61.1753   30.2423   45.0986 H   0  0  0  0  0  0  0  0  0  0  0  0
  1  2  1  0
  2  3  2  0
  2  4  2  0
  2  5  1  0
  5  6  2  0
  6  7  1  0
  7  8  2  0
  8  9  1  0
  9 10  1  0
 10 11  1  0
 11 12  2  0
 11 13  1  0
 13 14  2  0
 14 15  1  0
 15 16  2  0
 15 17  1  0
 17 18  2  0
 18 19  1  0
 19 20  2  0
 20 21  1  0
 21 22  2  0
 22 23  1  0
 23 24  2  0
 18 25  1  0
  8 26  1  0
 26 27  2  0
 27  5  1  0
 25 13  1  0
 24 19  1  0
  1 28  1  0
  1 29  1  0
  6 30  1  0
  7 31  1  0
  9 32  1  0
  9 33  1  0
 14 34  1  0
 17 35  1  0
 20 36  1  0
 21 37  1  0
 22 38  1  0
 23 39  1  0
 24 40  1  0
 26 41  1  0
 27 42  1  0
M  CHG  2  10  -1  25  -1
M  END
>  <UniqueID>  (19) 
17

>  <SMILES>  (19) 
NS(=O)(=O)c1ccc(C[N-]C(=O)c2cc(=O)cc(-c3ccccc3)[n-]2)cc1

>  <Energy>  (19) 
45.52881721478618

>  <Genealogy>  (19) 
NS(=O)(=O)c1ccc(C[N-]C(=O)c2cc(=O)cc(-c3ccccc3)[n-]2)cc1 (protonated)
NS(=O)(=O)c1ccc(C[N-]C(=O)c2cc(=O)cc(-c3ccccc3)[n-]2)cc1 (3D coordinates assigned)
NS(=O)(=O)c1ccc(C[N-]C(=O)c2cc(=O)cc(-c3ccccc3)[n-]2)cc1 (optimized conformer: 45.52881721478618 kcal/mol)

>  <smiles>  (19) 
NS(=O)(=O)c1ccc(CNC(=O)c2cc(=O)cc(-c3ccccc3)[nH]2)cc1

>  <score_type>  (19) 
oracle

>  <origin>  (19) 
adg

>  <m_score__min__energy>  (19) 
-13.17

>  <m_primary>  (19) 
energy

$$$$
19:0
     RDKit          3D

 43 45  0  0  0  0  0  0  0  0999 V2000
   64.6930   31.5840   51.2750 C   0  0  0  0  0  0  0  0  0  0  0  0
   64.6210   33.0360   50.2450 S   0  0  0  0  0  0  0  0  0  0  0  0
   65.8510   33.0910   49.3820 O   0  0  0  0  0  0  0  0  0  0  0  0
   64.5890   34.2480   51.1340 O   0  0  0  0  0  0  0  0  0  0  0  0
   63.1860   33.0020   49.2490 N   0  0  0  0  0  0  0  0  0  0  0  0
   63.5590   32.9740   47.8130 C   0  0  0  0  0  0  0  0  0  0  0  0
   62.4420   33.4940   46.8830 C   0  0  0  0  0  0  0  0  0  0  0  0
   61.1330   33.4070   47.5400 N   0  0  0  0  0  0  0  0  0  0  0  0
   60.0060   32.8010   46.8740 C   0  0  0  0  0  0  0  0  0  0  0  0
   59.2980   33.5100   45.8890 C   0  0  0  0  0  0  0  0  0  0  0  0
   58.2150   32.9170   45.2310 C   0  0  0  0  0  0  0  0  0  0  0  0
   57.8380   31.6040   45.5320 C   0  0  0  0  0  0  0  0  0  0  0  0
   56.7120   31.0320   44.8510 N   0  0  0  0  0  0  0  0  0  0  0  0
   56.3340   29.6490   44.8610 C   0  0  0  0  0  0  0  0  0  0  0  0
   55.1330   29.3450   44.6370 O   0  0  0  0  0  0  0  0  0  0  0  0
   57.3160   28.5690   45.0640 C   0  0  0  0  0  0  0  0  0  0  0  0
   58.4690   28.3520   44.3330 C   0  0  0  0  0  0  0  0  0  0  0  0
   59.0460   27.2240   44.8750 C   0  0  0  0  0  0  0  0  0  0  0  0
   58.2110   26.8180   45.8950 C   0  0  0  0  0  0  0  0  0  0  0  0
   57.1880   27.6370   45.9810 O   0  0  0  0  0  0  0  0  0  0  0  0
   58.5320   30.8980   46.5280 C   0  0  0  0  0  0  0  0  0  0  0  0
   59.6150   31.4890   47.1850 C   0  0  0  0  0  0  0  0  0  0  0  0
   60.9670   34.0080   48.8690 C   0  0  0  0  0  0  0  0  0  0  0  0
   62.3250   34.1540   49.5730 C   0  0  0  0  0  0  0  0  0  0  0  0
   64.6781   31.8840   52.3332 H   0  0  0  0  0  0  0  0  0  0  0  0
   63.8256   30.9413   51.0639 H   0  0  0  0  0  0  0  0  0  0  0  0
   65.6197   31.0303   51.0639 H   0  0  0  0  0  0  0  0  0  0  0  0
   62.6740   32.1190   49.4840 H   0  0  0  0  0  0  0  0  0  0  0  0
   64.4515   33.6012   47.6716 H   0  0  0  0  0  0  0  0  0  0  0  0
   63.7445   31.9235   47.5445 H   0  0  0  0  0  0  0  0  0  0  0  0
   62.6470   34.5436   46.6254 H   0  0  0  0  0  0  0  0  0  0  0  0
   62.4223   32.8732   45.9751 H   0  0  0  0  0  0  0  0  0  0  0  0
   59.5969   34.5373   45.6337 H   0  0  0  0  0  0  0  0  0  0  0  0
   57.6571   33.4863   44.4730 H   0  0  0  0  0  0  0  0  0  0  0  0
   58.8471   28.9542   43.4937 H   0  0  0  0  0  0  0  0  0  0  0  0
   59.9836   26.7441   44.5580 H   0  0  0  0  0  0  0  0  0  0  0  0
   58.3767   25.9415   46.5386 H   0  0  0  0  0  0  0  0  0  0  0  0
   58.2222   29.8761   46.7921 H   0  0  0  0  0  0  0  0  0  0  0  0
   60.1647   30.9222   47.9509 H   0  0  0  0  0  0  0  0  0  0  0  0
   60.5076   35.0017   48.7610 H   0  0  0  0  0  0  0  0  0  0  0  0
   60.3233   33.3535   49.4750 H   0  0  0  0  0  0  0  0  0  0  0  0
   62.8130   35.0802   49.2352 H   0  0  0  0  0  0  0  0  0  0  0  0
   62.1661   34.1921   50.6608 H   0  0  0  0  0  0  0  0  0  0  0  0
  1  2  1  0
  2  3  2  0
  2  4  2  0
  2  5  1  0
  5  6  1  0
  6  7  1  0
  7  8  1  0
  8  9  1  0
  9 10  2  0
 10 11  1  0
 11 12  2  0
 12 13  1  0
 13 14  1  0
 14 15  2  0
 14 16  1  0
 16 17  2  0
 17 18  1  0
 18 19  2  0
 19 20  1  0
 12 21  1  0
 21 22  2  0
  8 23  1  0
 23 24  1  0
 24  5  1  0
 22  9  1  0
 20 16  1  0
  1 25  1  0
  1 26  1  0
  1 27  1  0
  5 28  1  0
  6 29  1  0
  6 30  1  0
  7 31  1  0
  7 32  1  0
 10 33  1  0
 11 34  1  0
 17 35  1  0
 18 36  1  0
 19 37  1  0
 21 38  1  0
 22 39  1  0
 23 40  1  0
 23 41  1  0
 24 42  1  0
 24 43  1  0
M  CHG  2   5   1  13  -1
M  END
>  <UniqueID>  (20) 
18

>  <SMILES>  (20) 
CS(=O)(=O)[NH+]1CCN(c2ccc([N-]C(=O)c3ccco3)cc2)CC1

>  <Energy>  (20) 
78.51680855176727

>  <Genealogy>  (20) 
CS(=O)(=O)[NH+]1CCN(c2ccc([N-]C(=O)c3ccco3)cc2)CC1 (protonated)
CS(=O)(=O)[NH+]1CCN(c2ccc([N-]C(=O)c3ccco3)cc2)CC1 (3D coordinates assigned)
CS(=O)(=O)[NH+]1CCN(c2ccc([N-]C(=O)c3ccco3)cc2)CC1 (nonaromatic ring conformer: 78.51680855176727 kcal/mol)

>  <smiles>  (20) 
CS(=O)(=O)N1CCN(c2ccc(NC(=O)c3ccco3)cc2)CC1

>  <score_type>  (20) 
oracle

>  <origin>  (20) 
adg

>  <m_score__min__energy>  (20) 
-7.9000000000000004

>  <m_primary>  (20) 
energy

$$$$
20:0
     RDKit          3D

 59 62  0  0  0  0  0  0  0  0999 V2000
   53.5330   24.7730   45.8530 O   0  0  0  0  0  0  0  0  0  0  0  0
   54.7390   25.0590   45.6300 C   0  0  0  0  0  0  0  0  0  0  0  0
   55.2090   26.3670   45.9850 N   0  0  0  0  0  0  0  0  0  0  0  0
   56.5800   26.7610   46.1440 C   0  0  0  0  0  0  0  0  0  0  0  0
   57.4620   26.0500   46.9770 C   0  0  0  0  0  0  0  0  0  0  0  0
   58.7950   26.4490   47.0920 C   0  0  0  0  0  0  0  0  0  0  0  0
   59.2640   27.5500   46.3710 C   0  0  0  0  0  0  0  0  0  0  0  0
   58.3990   28.2560   45.5200 C   0  0  0  0  0  0  0  0  0  0  0  0
   58.9030   29.4240   44.7140 C   0  0  0  0  0  0  0  0  0  0  0  0
   58.0430   30.6120   44.9080 N   0  0  0  0  0  0  0  0  0  0  0  0
   58.2930   31.6900   43.9200 C   0  0  0  0  0  0  0  0  0  0  0  0
   57.4630   32.9710   44.1330 C   0  0  0  0  0  0  0  0  0  0  0  0
   57.6980   33.7010   45.4650 C   0  0  0  0  0  0  0  0  0  0  0  0
   58.9740   33.3580   46.1360 N   0  0  0  0  0  0  0  0  0  0  0  0
   59.4540   34.4450   47.0150 C   0  0  0  0  0  0  0  0  0  0  0  0
   60.7710   34.0710   47.6450 C   0  0  0  0  0  0  0  0  0  0  0  0
   60.9560   34.1820   49.0320 C   0  0  0  0  0  0  0  0  0  0  0  0
   62.1730   33.8080   49.6110 C   0  0  0  0  0  0  0  0  0  0  0  0
   63.2090   33.3190   48.8110 C   0  0  0  0  0  0  0  0  0  0  0  0
   63.0320   33.1970   47.4290 C   0  0  0  0  0  0  0  0  0  0  0  0
   64.0710   32.7040   46.6430 O   0  0  0  0  0  0  0  0  0  0  0  0
   61.8120   33.5720   46.8470 C   0  0  0  0  0  0  0  0  0  0  0  0
   59.0480   32.0230   46.7920 C   0  0  0  0  0  0  0  0  0  0  0  0
   57.9710   31.0110   46.3390 C   0  0  0  0  0  0  0  0  0  0  0  0
   57.0610   27.8480   45.4040 C   0  0  0  0  0  0  0  0  0  0  0  0
   55.6430   24.0250   45.0710 C   0  0  0  0  0  0  0  0  0  0  0  0
   55.7600   23.8610   43.6790 C   0  0  0  0  0  0  0  0  0  0  0  0
   56.6150   22.8930   43.1480 C   0  0  0  0  0  0  0  0  0  0  0  0
   57.3710   22.0840   43.9990 C   0  0  0  0  0  0  0  0  0  0  0  0
   57.2740   22.2440   45.3820 C   0  0  0  0  0  0  0  0  0  0  0  0
   56.4190   23.2120   45.9210 C   0  0  0  0  0  0  0  0  0  0  0  0
   56.3320   23.3340   47.2700 F   0  0  0  0  0  0  0  0  0  0  0  0
   57.1006   25.1767   47.5398 H   0  0  0  0  0  0  0  0  0  0  0  0
   59.4782   25.8947   47.7524 H   0  0  0  0  0  0  0  0  0  0  0  0
   60.3134   27.8644   46.4704 H   0  0  0  0  0  0  0  0  0  0  0  0
   59.9277   29.6657   45.0327 H   0  0  0  0  0  0  0  0  0  0  0  0
   58.8857   29.1487   43.6491 H   0  0  0  0  0  0  0  0  0  0  0  0
   59.3580   31.9604   43.9715 H   0  0  0  0  0  0  0  0  0  0  0  0
   57.9928   31.2872   42.9414 H   0  0  0  0  0  0  0  0  0  0  0  0
   57.7030   33.6692   43.3176 H   0  0  0  0  0  0  0  0  0  0  0  0
   56.4113   32.6490   44.1479 H   0  0  0  0  0  0  0  0  0  0  0  0
   57.6927   34.7834   45.2693 H   0  0  0  0  0  0  0  0  0  0  0  0
   56.8922   33.3829   46.1429 H   0  0  0  0  0  0  0  0  0  0  0  0
   59.5844   35.3609   46.4200 H   0  0  0  0  0  0  0  0  0  0  0  0
   58.7134   34.6124   47.8110 H   0  0  0  0  0  0  0  0  0  0  0  0
   60.1417   34.5641   49.6652 H   0  0  0  0  0  0  0  0  0  0  0  0
   62.3148   33.8990   50.6980 H   0  0  0  0  0  0  0  0  0  0  0  0
   64.1661   33.0293   49.2693 H   0  0  0  0  0  0  0  0  0  0  0  0
   65.0150   33.0600   46.7290 H   0  0  0  0  0  0  0  0  0  0  0  0
   61.6707   33.4745   45.7605 H   0  0  0  0  0  0  0  0  0  0  0  0
   60.0356   31.5903   46.5744 H   0  0  0  0  0  0  0  0  0  0  0  0
   58.8737   32.1976   47.8640 H   0  0  0  0  0  0  0  0  0  0  0  0
   58.0768   30.1035   46.9516 H   0  0  0  0  0  0  0  0  0  0  0  0
   57.0023   31.5159   46.4681 H   0  0  0  0  0  0  0  0  0  0  0  0
   56.3839   28.3873   44.7253 H   0  0  0  0  0  0  0  0  0  0  0  0
   55.1732   24.5005   43.0031 H   0  0  0  0  0  0  0  0  0  0  0  0
   56.6931   22.7676   42.0580 H   0  0  0  0  0  0  0  0  0  0  0  0
   58.0428   21.3208   43.5793 H   0  0  0  0  0  0  0  0  0  0  0  0
   57.8716   21.6071   46.0507 H   0  0  0  0  0  0  0  0  0  0  0  0
  1  2  2  0
  2  3  1  0
  3  4  1  0
  4  5  2  0
  5  6  1  0
  6  7  2  0
  7  8  1  0
  8  9  1  0
  9 10  1  0
 10 11  1  0
 11 12  1  0
 12 13  1  0
 13 14  1  0
 14 15  1  0
 15 16  1  0
 16 17  2  0
 17 18  1  0
 18 19  2  0
 19 20  1  0
 20 21  1  0
 20 22  2  0
 14 23  1  0
 23 24  1  0
  8 25  2  0
  2 26  1  0
 26 27  2  0
 27 28  1  0
 28 29  2  0
 29 30  1  0
 30 31  2  0
 31 32  1  0
 25  4  1  0
 31 26  1  0
 24 10  1  0
 22 16  1  0
  5 33  1  0
  6 34  1  0
  7 35  1  0
  9 36  1  0
  9 37  1  0
 11 38  1  0
 11 39  1  0
 12 40  1  0
 12 41  1  0
 13 42  1  0
 13 43  1  0
 15 44  1  0
 15 45  1  0
 17 46  1  0
 18 47  1  0
 19 48  1  0
 21 49  1  0
 22 50  1  0
 23 51  1  0
 23 52  1  0
 24 53  1  0
 24 54  1  0
 25 55  1  0
 27 56  1  0
 28 57  1  0
 29 58  1  0
 30 59  1  0
M  CHG  1   3  -1
M  END
>  <UniqueID>  (21) 
19

>  <SMILES>  (21) 
O=C([N-]c1cccc(CN2CCCN(Cc3cccc(O)c3)CC2)c1)c1ccccc1F

>  <Energy>  (21) 
91.8708971274142

>  <Genealogy>  (21) 
O=C([N-]c1cccc(CN2CCCN(Cc3cccc(O)c3)CC2)c1)c1ccccc1F (protonated)
O=C([N-]c1cccc(CN2CCCN(Cc3cccc(O)c3)CC2)c1)c1ccccc1F (3D coordinates assigned)
O=C([N-]c1cccc(CN2CCCN(Cc3cccc(O)c3)CC2)c1)c1ccccc1F (nonaromatic ring conformer: 91.8708971274142 kcal/mol)

>  <smiles>  (21) 
O=C(Nc1cccc(CN2CCCN(Cc3cccc(O)c3)CC2)c1)c1ccccc1F

>  <score_type>  (21) 
oracle

>  <origin>  (21) 
adg

>  <m_score__min__energy>  (21) 
-10.15

>  <m_primary>  (21) 
energy

$$$$
21:0
     RDKit          3D

 43 46  0  0  0  0  0  0  0  0999 V2000
   59.1180   32.0910   53.1180 C   0  0  0  0  0  0  0  0  0  0  0  0
   59.2610   33.1730   51.7130 S   0  0  0  0  0  0  0  0  0  0  0  0
   58.6430   34.5090   52.0200 O   0  0  0  0  0  0  0  0  0  0  0  0
   58.5250   32.5630   50.5540 O   0  0  0  0  0  0  0  0  0  0  0  0
   60.9300   33.3720   51.2770 N   0  0  0  0  0  0  0  0  0  0  0  0
   61.4110   33.4190   49.9210 C   0  0  0  0  0  0  0  0  0  0  0  0
   62.7610   33.1350   49.6640 C   0  0  0  0  0  0  0  0  0  0  0  0
   63.2580   33.1760   48.3600 C   0  0  0  0  0  0  0  0  0  0  0  0
   62.4110   33.4940   47.2960 C   0  0  0  0  0  0  0  0  0  0  0  0
   61.0590   33.7700   47.5260 C   0  0  0  0  0  0  0  0  0  0  0  0
   60.2450   34.0880   46.4290 O   0  0  0  0  0  0  0  0  0  0  0  0
   59.2470   33.2610   45.8940 C   0  0  0  0  0  0  0  0  0  0  0  0
   58.4120   33.7570   44.8710 C   0  0  0  0  0  0  0  0  0  0  0  0
   57.4130   32.9370   44.3220 C   0  0  0  0  0  0  0  0  0  0  0  0
   57.3050   31.6450   44.8210 C   0  0  0  0  0  0  0  0  0  0  0  0
   56.4030   30.7120   44.4570 N   0  0  0  0  0  0  0  0  0  0  0  0
   56.7240   29.6540   45.2460 C   0  0  0  0  0  0  0  0  0  0  0  0
   55.9630   28.4400   45.2410 N   0  0  0  0  0  0  0  0  0  0  0  0
   56.3810   27.1340   45.6600 C   0  0  0  0  0  0  0  0  0  0  0  0
   55.5590   26.4180   46.2910 O   0  0  0  0  0  0  0  0  0  0  0  0
   57.7360   26.5800   45.2960 C   0  0  0  0  0  0  0  0  0  0  0  0
   57.7080   25.5520   44.1730 C   0  0  0  0  0  0  0  0  0  0  0  0
   58.2780   26.9350   43.9140 C   0  0  0  0  0  0  0  0  0  0  0  0
   57.7920   29.9670   46.0820 C   0  0  0  0  0  0  0  0  0  0  0  0
   58.1350   31.2220   45.7800 N   0  0  0  0  0  0  0  0  0  0  0  0
   59.0870   31.9750   46.3230 N   0  0  0  0  0  0  0  0  0  0  0  0
   60.5690   33.7610   48.8460 C   0  0  0  0  0  0  0  0  0  0  0  0
   59.1958   32.6800   54.0438 H   0  0  0  0  0  0  0  0  0  0  0  0
   58.1445   31.5797   53.0895 H   0  0  0  0  0  0  0  0  0  0  0  0
   59.9253   31.3443   53.0895 H   0  0  0  0  0  0  0  0  0  0  0  0
   61.6240   33.3450   52.0570 H   0  0  0  0  0  0  0  0  0  0  0  0
   63.4328   32.8781   50.4963 H   0  0  0  0  0  0  0  0  0  0  0  0
   64.3192   32.9573   48.1701 H   0  0  0  0  0  0  0  0  0  0  0  0
   62.8093   33.5276   46.2712 H   0  0  0  0  0  0  0  0  0  0  0  0
   58.5433   34.7855   44.5036 H   0  0  0  0  0  0  0  0  0  0  0  0
   56.7435   33.3026   43.5295 H   0  0  0  0  0  0  0  0  0  0  0  0
   58.1446   26.6348   46.3158 H   0  0  0  0  0  0  0  0  0  0  0  0
   58.3775   24.6800   44.2097 H   0  0  0  0  0  0  0  0  0  0  0  0
   56.9272   24.9341   43.7055 H   0  0  0  0  0  0  0  0  0  0  0  0
   59.3600   27.0647   43.7643 H   0  0  0  0  0  0  0  0  0  0  0  0
   58.0811   27.7329   43.1828 H   0  0  0  0  0  0  0  0  0  0  0  0
   58.2575   29.3152   46.8359 H   0  0  0  0  0  0  0  0  0  0  0  0
   59.5184   34.0237   49.0390 H   0  0  0  0  0  0  0  0  0  0  0  0
  1  2  1  0
  2  3  2  0
  2  4  2  0
  2  5  1  0
  5  6  1  0
  6  7  2  0
  7  8  1  0
  8  9  2  0
  9 10  1  0
 10 11  1  0
 11 12  1  0
 12 13  1  0
 13 14  2  0
 14 15  1  0
 15 16  2  0
 16 17  1  0
 17 18  1  0
 18 19  1  0
 19 20  2  0
 19 21  1  0
 21 22  1  0
 22 23  1  0
 17 24  2  0
 24 25  1  0
 25 26  1  0
 10 27  2  0
 27  6  1  0
 26 12  2  0
 25 15  1  0
 23 21  1  0
  1 28  1  0
  1 29  1  0
  1 30  1  0
  5 31  1  0
  7 32  1  0
  8 33  1  0
  9 34  1  0
 13 35  1  0
 14 36  1  0
 21 37  1  0
 22 38  1  0
 22 39  1  0
 23 40  1  0
 23 41  1  0
 24 42  1  0
 27 43  1  0
M  CHG  1  18  -1
M  END
>  <UniqueID>  (22) 
20

>  <SMILES>  (22) 
CS(=O)(=O)Nc1cccc(Oc2ccc3nc([N-]C(=O)C4CC4)cn3n2)c1

>  <Energy>  (22) 
352.92488826054256

>  <Genealogy>  (22) 
CS(=O)(=O)Nc1cccc(Oc2ccc3nc([N-]C(=O)C4CC4)cn3n2)c1 (protonated)
CS(=O)(=O)Nc1cccc(Oc2ccc3nc([N-]C(=O)C4CC4)cn3n2)c1 (3D coordinates assigned)
CS(=O)(=O)Nc1cccc(Oc2ccc3nc([N-]C(=O)C4CC4)cn3n2)c1 (nonaromatic ring conformer: 352.92488826054256 kcal/mol)

>  <smiles>  (22) 
CS(=O)(=O)Nc1cccc(Oc2ccc3nc(NC(=O)C4CC4)cn3n2)c1

>  <score_type>  (22) 
oracle

>  <origin>  (22) 
adg

>  <m_score__min__energy>  (22) 
-10.43

>  <m_primary>  (22) 
energy

$$$$
22:0
     RDKit          3D

 40 42  0  0  0  0  0  0  0  0999 V2000
   56.5950   32.5900   51.0970 H   0  0  0  0  0  0  0  0  0  0  0  0
   57.5670   32.4000   51.4240 N   0  0  0  0  0  0  0  0  0  0  0  0
   58.2930   31.4770   50.8810 C   0  0  0  0  0  0  0  0  0  0  0  0
   58.5680   31.3410   49.2340 S   0  0  0  0  0  0  0  0  0  0  0  0
   59.5420   29.9700   49.4080 C   0  0  0  0  0  0  0  0  0  0  0  0
   60.1470   29.2250   48.2820 C   0  0  0  0  0  0  0  0  0  0  0  0
   61.1430   28.4820   48.4910 O   0  0  0  0  0  0  0  0  0  0  0  0
   59.5910   29.3120   46.9550 N   0  0  0  0  0  0  0  0  0  0  0  0
   58.4170   28.5440   46.6160 C   0  0  0  0  0  0  0  0  0  0  0  0
   58.1260   27.3410   47.2850 C   0  0  0  0  0  0  0  0  0  0  0  0
   58.8030   26.9746   48.0708 H   0  0  0  0  0  0  0  0  0  0  0  0
   56.9820   26.6090   46.9570 C   0  0  0  0  0  0  0  0  0  0  0  0
   56.7625   25.6689   47.4842 H   0  0  0  0  0  0  0  0  0  0  0  0
   56.1160   27.0680   45.9610 C   0  0  0  0  0  0  0  0  0  0  0  0
   54.9790   26.3380   45.6360 O   0  0  0  0  0  0  0  0  0  0  0  0
   56.3940   28.2630   45.2920 C   0  0  0  0  0  0  0  0  0  0  0  0
   55.7127   28.6250   44.5079 H   0  0  0  0  0  0  0  0  0  0  0  0
   57.5370   28.9990   45.6180 C   0  0  0  0  0  0  0  0  0  0  0  0
   57.7494   29.9405   45.0902 H   0  0  0  0  0  0  0  0  0  0  0  0
   60.1440   30.2780   45.9910 C   0  0  0  0  0  0  0  0  0  0  0  0
   61.2425   30.2433   46.0374 H   0  0  0  0  0  0  0  0  0  0  0  0
   59.7911   30.0086   44.9846 H   0  0  0  0  0  0  0  0  0  0  0  0
   59.6800   31.6850   46.3030 C   0  0  0  0  0  0  0  0  0  0  0  0
   58.3870   32.0770   45.9090 C   0  0  0  0  0  0  0  0  0  0  0  0
   57.7387   31.3616   45.3818 H   0  0  0  0  0  0  0  0  0  0  0  0
   57.9180   33.3640   46.1800 C   0  0  0  0  0  0  0  0  0  0  0  0
   56.9013   33.6537   45.8761 H   0  0  0  0  0  0  0  0  0  0  0  0
   58.7380   34.2830   46.8360 C   0  0  0  0  0  0  0  0  0  0  0  0
   58.3658   35.2949   47.0542 H   0  0  0  0  0  0  0  0  0  0  0  0
   60.0300   33.9180   47.2150 C   0  0  0  0  0  0  0  0  0  0  0  0
   60.6753   34.6476   47.7261 H   0  0  0  0  0  0  0  0  0  0  0  0
   60.5120   32.6300   46.9500 C   0  0  0  0  0  0  0  0  0  0  0  0
   62.1610   32.2570   47.4490 Cl  0  0  0  0  0  0  0  0  0  0  0  0
   59.6160   29.6590   50.7750 C   0  0  0  0  0  0  0  0  0  0  0  0
   60.3860   28.5000   51.3340 C   0  0  0  0  0  0  0  0  0  0  0  0
   60.3603   28.5386   52.4330 H   0  0  0  0  0  0  0  0  0  0  0  0
   59.9332   27.5586   50.9895 H   0  0  0  0  0  0  0  0  0  0  0  0
   61.4293   28.5526   50.9895 H   0  0  0  0  0  0  0  0  0  0  0  0
   58.9160   30.5050   51.5810 N   0  0  0  0  0  0  0  0  0  0  0  0
   58.8660   30.4130   52.6210 H   0  0  0  0  0  0  0  0  0  0  0  0
  1  2  1  0
  2  3  2  0
  3  4  1  0
  4  5  1  0
  5  6  1  0
  6  7  2  0
  6  8  1  0
  8  9  1  0
  9 10  2  0
 10 11  1  0
 10 12  1  0
 12 13  1  0
 12 14  2  0
 14 15  1  0
 14 16  1  0
 16 17  1  0
 16 18  2  0
 18 19  1  0
  8 20  1  0
 20 21  1  0
 20 22  1  0
 20 23  1  0
 23 24  2  0
 24 25  1  0
 24 26  1  0
 26 27  1  0
 26 28  2  0
 28 29  1  0
 28 30  1  0
 30 31  1  0
 30 32  2  0
 32 33  1  0
  5 34  2  0
 34 35  1  0
 35 36  1  0
 35 37  1  0
 35 38  1  0
 34 39  1  0
 39 40  1  0
 39  3  1  0
 18  9  1  0
 32 23  1  0
M  CHG  1  15  -1
M  END
>  <UniqueID>  (23) 
21

>  <SMILES>  (23) 
[H]/N=c1\[nH]c(C)c(C(=O)N(Cc2ccccc2Cl)c2ccc([O-])cc2)s1

>  <Energy>  (23) 
81.03189403663526

>  <Genealogy>  (23) 
Cc1[nH]c(=N)sc1C(=O)N(Cc1ccccc1Cl)c1ccc([O-])cc1 (protonated)
[H]/N=c1\[nH]c(C)c(C(=O)N(Cc2ccccc2Cl)c2ccc([O-])cc2)s1 (cis-trans isomerization)
[H]/N=c1\[nH]c(C)c(C(=O)N(Cc2ccccc2Cl)c2ccc([O-])cc2)s1 (3D coordinates assigned)
[H]/N=c1\[nH]c(C)c(C(=O)N(Cc2ccccc2Cl)c2ccc([O-])cc2)s1 (optimized conformer: 81.03189403663526 kcal/mol)

>  <smiles>  (23) 
Cc1[nH]c(=N)sc1C(=O)N(Cc1ccccc1Cl)c1ccc(O)cc1

>  <score_type>  (23) 
oracle

>  <origin>  (23) 
adg

>  <m_score__min__energy>  (23) 
-9.6999999999999993

>  <m_primary>  (23) 
energy

$$$$
23:0
     RDKit          3D

 38 40  0  0  0  0  0  0  0  0999 V2000
   60.6461   34.0227   49.7888 H   0  0  0  0  0  0  0  0  0  0  0  0
   60.8830   33.9380   48.7180 C   0  0  0  0  0  0  0  0  0  0  0  0
   59.8960   34.0670   47.7960 N   0  0  0  0  0  0  0  0  0  0  0  0
   60.1530   33.9640   46.4650 C   0  0  0  0  0  0  0  0  0  0  0  0
   59.2100   34.1070   45.5800 N   0  0  0  0  0  0  0  0  0  0  0  0
   58.4950   33.0570   44.9070 C   0  0  0  0  0  0  0  0  0  0  0  0
   58.4250   33.0790   43.5100 C   0  0  0  0  0  0  0  0  0  0  0  0
   58.8968   33.9011   42.9519 H   0  0  0  0  0  0  0  0  0  0  0  0
   57.7600   32.0640   42.8200 C   0  0  0  0  0  0  0  0  0  0  0  0
   57.6996   32.0971   41.7222 H   0  0  0  0  0  0  0  0  0  0  0  0
   57.1700   31.0050   43.5180 C   0  0  0  0  0  0  0  0  0  0  0  0
   56.3340   29.7500   42.6140 Cl  0  0  0  0  0  0  0  0  0  0  0  0
   57.2550   30.9500   44.9190 C   0  0  0  0  0  0  0  0  0  0  0  0
   56.6500   29.8450   45.6090 N   0  0  0  0  0  0  0  0  0  0  0  0
   57.2870   28.2340   45.7060 S   0  0  0  0  0  0  0  0  0  0  0  0
   56.1660   27.2330   45.6650 O   0  0  0  0  0  0  0  0  0  0  0  0
   58.0210   28.0840   47.0080 O   0  0  0  0  0  0  0  0  0  0  0  0
   58.4300   27.9420   44.3720 C   0  0  0  0  0  0  0  0  0  0  0  0
   59.4181   27.6896   44.7844 H   0  0  0  0  0  0  0  0  0  0  0  0
   58.0667   27.1078   43.7538 H   0  0  0  0  0  0  0  0  0  0  0  0
   58.5113   28.8482   43.7538 H   0  0  0  0  0  0  0  0  0  0  0  0
   57.9370   31.9710   45.6070 C   0  0  0  0  0  0  0  0  0  0  0  0
   58.0348   31.9197   46.7014 H   0  0  0  0  0  0  0  0  0  0  0  0
   61.4270   33.7470   46.0460 N   0  0  0  0  0  0  0  0  0  0  0  0
   62.4510   33.6110   46.9280 C   0  0  0  0  0  0  0  0  0  0  0  0
   63.6150   33.4240   46.4840 O   0  0  0  0  0  0  0  0  0  0  0  0
   62.2050   33.6970   48.3120 C   0  0  0  0  0  0  0  0  0  0  0  0
   63.2790   33.5420   49.3250 C   0  0  0  0  0  0  0  0  0  0  0  0
   63.1630   33.9610   50.9550 S   0  0  0  0  0  0  0  0  0  0  0  0
   64.7400   33.5060   51.3220 C   0  0  0  0  0  0  0  0  0  0  0  0
   65.2193   33.5619   52.3105 H   0  0  0  0  0  0  0  0  0  0  0  0
   65.3280   33.0460   50.1480 C   0  0  0  0  0  0  0  0  0  0  0  0
   66.7190   32.4980   50.0990 C   0  0  0  0  0  0  0  0  0  0  0  0
   67.0916   32.3512   51.1235 H   0  0  0  0  0  0  0  0  0  0  0  0
   66.7150   31.5343   49.5687 H   0  0  0  0  0  0  0  0  0  0  0  0
   67.3734   33.2055   49.5687 H   0  0  0  0  0  0  0  0  0  0  0  0
   64.5150   33.0590   49.0560 N   0  0  0  0  0  0  0  0  0  0  0  0
   64.8150   32.7090   48.1190 H   0  0  0  0  0  0  0  0  0  0  0  0
  1  2  1  0
  2  3  1  0
  3  4  1  0
  4  5  2  0
  5  6  1  0
  6  7  2  0
  7  8  1  0
  7  9  1  0
  9 10  1  0
  9 11  2  0
 11 12  1  0
 11 13  1  0
 13 14  1  0
 14 15  1  0
 15 16  2  0
 15 17  2  0
 15 18  1  0
 18 19  1  0
 18 20  1  0
 18 21  1  0
 13 22  2  0
 22 23  1  0
  4 24  1  0
 24 25  1  0
 25 26  2  0
 25 27  1  0
 27 28  1  0
 28 29  1  0
 29 30  1  0
 30 31  1  0
 30 32  2  0
 32 33  1  0
 33 34  1  0
 33 35  1  0
 33 36  1  0
 32 37  1  0
 37 38  1  0
 27  2  2  0
 37 28  2  0
 22  6  1  0
M  CHG  4   3  -1  14  -1  24  -1  37   1
M  END
>  <UniqueID>  (24) 
22

>  <SMILES>  (24) 
Cc1csc(-c2c[n-]/c(=N\c3ccc(Cl)c([N-]S(C)(=O)=O)c3)[n-]c2=O)[nH+]1

>  <Energy>  (24) 
78.83508608897125

>  <Genealogy>  (24) 
Cc1csc(-c2c[n-]c(=Nc3ccc(Cl)c([N-]S(C)(=O)=O)c3)[n-]c2=O)[nH+]1 (protonated)
Cc1csc(-c2c[n-]/c(=N\c3ccc(Cl)c([N-]S(C)(=O)=O)c3)[n-]c2=O)[nH+]1 (cis-trans isomerization)
Cc1csc(-c2c[n-]/c(=N\c3ccc(Cl)c([N-]S(C)(=O)=O)c3)[n-]c2=O)[nH+]1 (3D coordinates assigned)
Cc1csc(-c2c[n-]/c(=N\c3ccc(Cl)c([N-]S(C)(=O)=O)c3)[n-]c2=O)[nH+]1 (optimized conformer: 78.83508608897125 kcal/mol)

>  <smiles>  (24) 
Cc1csc(-c2c[nH]c(=Nc3ccc(Cl)c(NS(C)(=O)=O)c3)[nH]c2=O)n1

>  <score_type>  (24) 
oracle

>  <origin>  (24) 
adg

>  <m_score__min__energy>  (24) 
-10.52

>  <m_primary>  (24) 
energy

$$$$
24:0
     RDKit          3D

 33 34  0  0  0  0  0  0  0  0999 V2000
   63.8570   33.0950   47.5480 C   0  0  0  0  0  0  0  0  0  0  0  0
   62.8170   33.8510   48.1590 O   0  0  0  0  0  0  0  0  0  0  0  0
   61.4790   33.8380   47.7400 C   0  0  0  0  0  0  0  0  0  0  0  0
   61.2110   33.9120   46.3670 C   0  0  0  0  0  0  0  0  0  0  0  0
   59.8950   33.9040   45.8970 C   0  0  0  0  0  0  0  0  0  0  0  0
   58.8230   33.8100   46.7980 C   0  0  0  0  0  0  0  0  0  0  0  0
   57.4080   33.8360   46.2970 C   0  0  0  0  0  0  0  0  0  0  0  0
   57.3950   33.5520   44.4980 S   0  0  0  0  0  0  0  0  0  0  0  0
   57.4140   31.7720   44.6640 C   0  0  0  0  0  0  0  0  0  0  0  0
   56.2600   31.0700   44.5700 N   0  0  0  0  0  0  0  0  0  0  0  0
   56.2460   29.7200   44.6950 C   0  0  0  0  0  0  0  0  0  0  0  0
   55.1470   29.1110   44.5990 O   0  0  0  0  0  0  0  0  0  0  0  0
   57.4470   29.0160   44.9280 C   0  0  0  0  0  0  0  0  0  0  0  0
   57.4330   27.5110   45.0700 C   0  0  0  0  0  0  0  0  0  0  0  0
   58.6450   29.7730   45.0220 C   0  0  0  0  0  0  0  0  0  0  0  0
   59.9850   29.1920   45.2610 C   0  0  0  0  0  0  0  0  0  0  0  0
   60.8350   29.7330   46.0150 O   0  0  0  0  0  0  0  0  0  0  0  0
   58.5850   31.1250   44.8850 N   0  0  0  0  0  0  0  0  0  0  0  0
   59.0860   33.7500   48.1750 C   0  0  0  0  0  0  0  0  0  0  0  0
   60.4030   33.7590   48.6450 C   0  0  0  0  0  0  0  0  0  0  0  0
   64.4849   32.6385   48.3273 H   0  0  0  0  0  0  0  0  0  0  0  0
   63.4168   32.3047   46.9223 H   0  0  0  0  0  0  0  0  0  0  0  0
   64.4729   33.7576   46.9223 H   0  0  0  0  0  0  0  0  0  0  0  0
   62.0444   33.9770   45.6520 H   0  0  0  0  0  0  0  0  0  0  0  0
   59.6985   33.9716   44.8168 H   0  0  0  0  0  0  0  0  0  0  0  0
   56.8275   33.0466   46.7969 H   0  0  0  0  0  0  0  0  0  0  0  0
   56.9595   34.8161   46.5165 H   0  0  0  0  0  0  0  0  0  0  0  0
   57.4305   27.2434   46.1369 H   0  0  0  0  0  0  0  0  0  0  0  0
   56.5310   27.1056   44.5882 H   0  0  0  0  0  0  0  0  0  0  0  0
   58.3273   27.0889   44.5882 H   0  0  0  0  0  0  0  0  0  0  0  0
   60.2486   28.2492   44.7593 H   0  0  0  0  0  0  0  0  0  0  0  0
   58.2511   33.6956   48.8891 H   0  0  0  0  0  0  0  0  0  0  0  0
   60.5993   33.7041   49.7260 H   0  0  0  0  0  0  0  0  0  0  0  0
  1  2  1  0
  2  3  1  0
  3  4  2  0
  4  5  1  0
  5  6  2  0
  6  7  1  0
  7  8  1  0
  8  9  1  0
  9 10  2  0
 10 11  1  0
 11 12  2  0
 11 13  1  0
 13 14  1  0
 13 15  2  0
 15 16  1  0
 16 17  2  0
 15 18  1  0
  6 19  1  0
 19 20  2  0
 20  3  1  0
 18  9  1  0
  1 21  1  0
  1 22  1  0
  1 23  1  0
  4 24  1  0
  5 25  1  0
  7 26  1  0
  7 27  1  0
 14 28  1  0
 14 29  1  0
 14 30  1  0
 16 31  1  0
 19 32  1  0
 20 33  1  0
M  CHG  1  18  -1
M  END
>  <UniqueID>  (25) 
23

>  <SMILES>  (25) 
COc1ccc(CSc2nc(=O)c(C)c(C=O)[n-]2)cc1

>  <Energy>  (25) 
33.17376221056503

>  <Genealogy>  (25) 
COc1ccc(CSc2nc(=O)c(C)c(C=O)[n-]2)cc1 (protonated)
COc1ccc(CSc2nc(=O)c(C)c(C=O)[n-]2)cc1 (3D coordinates assigned)
COc1ccc(CSc2nc(=O)c(C)c(C=O)[n-]2)cc1 (optimized conformer: 33.17376221056503 kcal/mol)

>  <smiles>  (25) 
COc1ccc(CSc2nc(=O)c(C)c(C=O)[nH]2)cc1

>  <score_type>  (25) 
oracle

>  <origin>  (25) 
adg

>  <m_score__min__energy>  (25) 
-8.4399999999999995

>  <m_primary>  (25) 
energy

$$$$
25:0
     RDKit          3D

 48 51  0  0  0  0  0  0  0  0999 V2000
   60.6890   32.9790   46.4870 C   0  0  0  0  0  0  0  0  0  0  0  0
   59.6250   32.0070   46.1000 C   0  0  0  0  0  0  0  0  0  0  0  0
   58.4070   32.4670   45.6620 N   0  0  0  0  0  0  0  0  0  0  0  0
   57.4240   31.6070   45.2640 C   0  0  0  0  0  0  0  0  0  0  0  0
   56.3140   32.0430   44.8620 O   0  0  0  0  0  0  0  0  0  0  0  0
   57.6970   30.2470   45.3110 C   0  0  0  0  0  0  0  0  0  0  0  0
   57.0090   29.1030   44.9740 C   0  0  0  0  0  0  0  0  0  0  0  0
   55.8360   29.0470   44.5160 O   0  0  0  0  0  0  0  0  0  0  0  0
   57.8020   28.0280   45.2100 N   0  0  0  0  0  0  0  0  0  0  0  0
   57.4650   26.6600   44.9250 C   0  0  0  0  0  0  0  0  0  0  0  0
   56.8470   25.8630   45.8980 C   0  0  0  0  0  0  0  0  0  0  0  0
   56.5510   24.5230   45.6270 C   0  0  0  0  0  0  0  0  0  0  0  0
   56.8580   23.9730   44.3750 C   0  0  0  0  0  0  0  0  0  0  0  0
   56.4880   22.2840   44.0420 S   0  0  0  0  0  0  0  0  0  0  0  0
   57.8830   21.3110   44.3460 N   0  0  0  0  0  0  0  0  0  0  0  0
   55.3580   21.8310   44.9230 O   0  0  0  0  0  0  0  0  0  0  0  0
   56.0720   22.1260   42.6070 O   0  0  0  0  0  0  0  0  0  0  0  0
   57.4660   24.7720   43.3980 C   0  0  0  0  0  0  0  0  0  0  0  0
   57.7610   26.1100   43.6700 C   0  0  0  0  0  0  0  0  0  0  0  0
   58.9790   28.4620   45.6750 N   0  0  0  0  0  0  0  0  0  0  0  0
   60.1580   27.6390   45.9670 C   0  0  0  0  0  0  0  0  0  0  0  0
   59.9390   26.8270   47.2030 C   0  0  0  0  0  0  0  0  0  0  0  0
   59.5700   25.6260   47.1040 O   0  0  0  0  0  0  0  0  0  0  0  0
   60.1910   27.4120   48.4860 N   0  0  0  0  0  0  0  0  0  0  0  0
   60.0910   28.8040   48.8190 C   0  0  0  0  0  0  0  0  0  0  0  0
   58.8310   29.3350   49.1160 C   0  0  0  0  0  0  0  0  0  0  0  0
   58.6950   30.6800   49.4700 C   0  0  0  0  0  0  0  0  0  0  0  0
   59.8240   31.5000   49.5560 C   0  0  0  0  0  0  0  0  0  0  0  0
   59.6400   33.3300   50.0670 Br  0  0  0  0  0  0  0  0  0  0  0  0
   61.0900   30.9710   49.2850 C   0  0  0  0  0  0  0  0  0  0  0  0
   61.2260   29.6290   48.9170 C   0  0  0  0  0  0  0  0  0  0  0  0
   58.9120   29.8080   45.7390 C   0  0  0  0  0  0  0  0  0  0  0  0
   59.8900   30.6630   46.1250 N   0  0  0  0  0  0  0  0  0  0  0  0
   60.7519   33.0364   47.5837 H   0  0  0  0  0  0  0  0  0  0  0  0
   61.6555   32.6454   46.0813 H   0  0  0  0  0  0  0  0  0  0  0  0
   60.4440   33.9717   46.0813 H   0  0  0  0  0  0  0  0  0  0  0  0
   56.5938   26.2927   46.8784 H   0  0  0  0  0  0  0  0  0  0  0  0
   56.0760   23.8993   46.3986 H   0  0  0  0  0  0  0  0  0  0  0  0
   58.6170   21.6040   43.6640 H   0  0  0  0  0  0  0  0  0  0  0  0
   57.6250   20.3280   44.1050 H   0  0  0  0  0  0  0  0  0  0  0  0
   57.7116   24.3448   42.4145 H   0  0  0  0  0  0  0  0  0  0  0  0
   58.2282   26.7355   42.8951 H   0  0  0  0  0  0  0  0  0  0  0  0
   60.3466   26.9637   45.1194 H   0  0  0  0  0  0  0  0  0  0  0  0
   61.0223   28.3007   46.1255 H   0  0  0  0  0  0  0  0  0  0  0  0
   57.9415   28.6894   49.0705 H   0  0  0  0  0  0  0  0  0  0  0  0
   57.6981   31.0942   49.6813 H   0  0  0  0  0  0  0  0  0  0  0  0
   61.9806   31.6121   49.3615 H   0  0  0  0  0  0  0  0  0  0  0  0
   62.2234   29.2172   48.7035 H   0  0  0  0  0  0  0  0  0  0  0  0
  1  2  1  0
  2  3  2  0
  3  4  1  0
  4  5  2  0
  4  6  1  0
  6  7  1  0
  7  8  2  0
  7  9  1  0
  9 10  1  0
 10 11  2  0
 11 12  1  0
 12 13  2  0
 13 14  1  0
 14 15  1  0
 14 16  2  0
 14 17  2  0
 13 18  1  0
 18 19  2  0
  9 20  1  0
 20 21  1  0
 21 22  1  0
 22 23  2  0
 22 24  1  0
 24 25  1  0
 25 26  2  0
 26 27  1  0
 27 28  2  0
 28 29  1  0
 28 30  1  0
 30 31  2  0
 20 32  1  0
 32 33  1  0
 33  2  1  0
 32  6  2  0
 19 10  1  0
 31 25  1  0
  1 34  1  0
  1 35  1  0
  1 36  1  0
 11 37  1  0
 12 38  1  0
 15 39  1  0
 15 40  1  0
 18 41  1  0
 19 42  1  0
 21 43  1  0
 21 44  1  0
 26 45  1  0
 27 46  1  0
 30 47  1  0
 31 48  1  0
M  CHG  2  24  -1  33  -1
M  END
>  <UniqueID>  (26) 
24

>  <SMILES>  (26) 
Cc1nc(=O)c2c(=O)n(-c3ccc(S(N)(=O)=O)cc3)n(CC(=O)[N-]c3ccc(Br)cc3)c2[n-]1

>  <Energy>  (26) 
99.72942576944482

>  <Genealogy>  (26) 
Cc1nc(=O)c2c(=O)n(-c3ccc(S(N)(=O)=O)cc3)n(CC(=O)[N-]c3ccc(Br)cc3)c2[n-]1 (protonated)
Cc1nc(=O)c2c(=O)n(-c3ccc(S(N)(=O)=O)cc3)n(CC(=O)[N-]c3ccc(Br)cc3)c2[n-]1 (3D coordinates assigned)
Cc1nc(=O)c2c(=O)n(-c3ccc(S(N)(=O)=O)cc3)n(CC(=O)[N-]c3ccc(Br)cc3)c2[n-]1 (optimized conformer: 99.72942576944482 kcal/mol)

>  <smiles>  (26) 
Cc1nc(=O)c2c(=O)n(-c3ccc(S(N)(=O)=O)cc3)n(CC(=O)Nc3ccc(Br)cc3)c2[nH]1

>  <score_type>  (26) 
oracle

>  <origin>  (26) 
adg

>  <m_score__min__energy>  (26) 
-11.640000000000001

>  <m_primary>  (26) 
energy

$$$$
26:0
     RDKit          3D

 32 34  0  0  0  0  0  0  0  0999 V2000
   58.1810   31.9880   42.8460 O   0  0  0  0  0  0  0  0  0  0  0  0
   57.7090   32.1240   44.0070 C   0  0  0  0  0  0  0  0  0  0  0  0
   56.6340   31.2950   44.4780 N   0  0  0  0  0  0  0  0  0  0  0  0
   56.7010   30.0570   44.8720 C   0  0  0  0  0  0  0  0  0  0  0  0
   55.6340   29.2300   44.8110 N   0  0  0  0  0  0  0  0  0  0  0  0
   55.8940   28.0030   45.2580 N   0  0  0  0  0  0  0  0  0  0  0  0
   57.1670   27.8490   45.6790 C   0  0  0  0  0  0  0  0  0  0  0  0
   57.8080   26.3480   46.3130 S   0  0  0  0  0  0  0  0  0  0  0  0
   58.9220   26.6550   47.2730 O   0  0  0  0  0  0  0  0  0  0  0  0
   56.7110   25.6090   47.0240 O   0  0  0  0  0  0  0  0  0  0  0  0
   58.4180   25.3970   44.9990 N   0  0  0  0  0  0  0  0  0  0  0  0
   57.8350   24.1760   44.5240 C   0  0  0  0  0  0  0  0  0  0  0  0
   56.7080   24.1630   43.6820 C   0  0  0  0  0  0  0  0  0  0  0  0
   56.1750   22.9480   43.2400 C   0  0  0  0  0  0  0  0  0  0  0  0
   56.7610   21.7370   43.6310 C   0  0  0  0  0  0  0  0  0  0  0  0
   56.2400   20.5210   43.1930 O   0  0  0  0  0  0  0  0  0  0  0  0
   57.8800   21.7470   44.4690 C   0  0  0  0  0  0  0  0  0  0  0  0
   58.4140   22.9600   44.9120 C   0  0  0  0  0  0  0  0  0  0  0  0
   58.0560   29.2690   45.5080 S   0  0  0  0  0  0  0  0  0  0  0  0
   58.2660   33.1440   44.9020 C   0  0  0  0  0  0  0  0  0  0  0  0
   58.0710   33.2240   46.2670 C   0  0  0  0  0  0  0  0  0  0  0  0
   58.7780   34.3340   46.6780 C   0  0  0  0  0  0  0  0  0  0  0  0
   59.3610   34.8590   45.5430 C   0  0  0  0  0  0  0  0  0  0  0  0
   59.0380   34.1290   44.5000 O   0  0  0  0  0  0  0  0  0  0  0  0
   56.2449   25.1109   43.3705 H   0  0  0  0  0  0  0  0  0  0  0  0
   55.2927   22.9431   42.5831 H   0  0  0  0  0  0  0  0  0  0  0  0
   56.7500   19.6530   43.3130 H   0  0  0  0  0  0  0  0  0  0  0  0
   58.3411   20.7980   44.7803 H   0  0  0  0  0  0  0  0  0  0  0  0
   59.2954   22.9605   45.5702 H   0  0  0  0  0  0  0  0  0  0  0  0
   57.4761   32.5443   46.8948 H   0  0  0  0  0  0  0  0  0  0  0  0
   58.8606   34.7226   47.7037 H   0  0  0  0  0  0  0  0  0  0  0  0
   60.0000   35.7540   45.5158 H   0  0  0  0  0  0  0  0  0  0  0  0
  1  2  2  0
  2  3  1  0
  3  4  2  3
  4  5  1  0
  5  6  1  0
  6  7  2  0
  7  8  1  0
  8  9  2  0
  8 10  2  0
  8 11  1  0
 11 12  1  0
 12 13  2  0
 13 14  1  0
 14 15  2  0
 15 16  1  0
 15 17  1  0
 17 18  2  0
  7 19  1  0
  2 20  1  0
 20 21  2  0
 21 22  1  0
 22 23  2  0
 23 24  1  0
 19  4  1  0
 24 20  1  0
 18 12  1  0
 13 25  1  0
 14 26  1  0
 16 27  1  0
 17 28  1  0
 18 29  1  0
 21 30  1  0
 22 31  1  0
 23 32  1  0
M  CHG  2   5  -1  11  -1
M  END
>  <UniqueID>  (27) 
25

>  <SMILES>  (27) 
O=C(N=c1[n-]nc(S(=O)(=O)[N-]c2ccc(O)cc2)s1)c1ccco1

>  <Energy>  (27) 
100.70504803356215

>  <Genealogy>  (27) 
O=C(N=c1[n-]nc(S(=O)(=O)[N-]c2ccc(O)cc2)s1)c1ccco1 (protonated)
O=C(N=c1[n-]nc(S(=O)(=O)[N-]c2ccc(O)cc2)s1)c1ccco1 (3D coordinates assigned)
O=C(N=c1[n-]nc(S(=O)(=O)[N-]c2ccc(O)cc2)s1)c1ccco1 (optimized conformer: 100.70504803356215 kcal/mol)

>  <smiles>  (27) 
O=C(N=c1[nH]nc(S(=O)(=O)Nc2ccc(O)cc2)s1)c1ccco1

>  <score_type>  (27) 
oracle

>  <origin>  (27) 
adg

>  <m_score__min__energy>  (27) 
-11.6

>  <m_primary>  (27) 
energy

$$$$
27:0
     RDKit          3D

 42 44  0  0  1  0  0  0  0  0999 V2000
   60.4160   27.2090   46.3310 C   0  0  0  0  0  0  0  0  0  0  0  0
   58.9420   27.0210   46.2220 C   0  0  0  0  0  0  0  0  0  0  0  0
   58.4290   25.8430   46.7370 C   0  0  0  0  0  0  0  0  0  0  0  0
   57.0570   25.6430   46.6490 C   0  0  0  0  0  0  0  0  0  0  0  0
   56.2590   26.6090   46.0570 C   0  0  0  0  0  0  0  0  0  0  0  0
   54.9020   26.3500   45.9990 O   0  0  0  0  0  0  0  0  0  0  0  0
   56.7830   27.7800   45.5470 C   0  0  0  0  0  0  0  0  0  0  0  0
   55.8840   28.7060   44.9620 N   0  0  0  0  0  0  0  0  0  0  0  0
   56.3360   29.6760   44.2400 C   0  0  0  0  0  0  0  0  0  0  0  0
   57.0100   30.7310   44.7660 N   0  0  0  0  0  0  0  0  0  0  0  0
   57.3390   31.5570   43.7540 C   0  0  0  0  0  0  0  0  0  0  0  0
   58.2430   33.1170   43.8690 S   0  0  0  0  0  0  0  0  0  0  0  0
   57.6860   33.9520   45.3620 C   0  0  0  0  0  0  0  0  0  0  0  0
   58.6800   33.8350   46.4900 C   0  0  0  0  0  0  0  0  0  0  0  0
   58.1950   33.5920   47.6160 O   0  0  0  0  0  0  0  0  0  0  0  0
   60.0640   33.9960   46.2490 N   0  0  0  0  0  0  0  0  0  0  0  0
   61.0880   33.9120   47.2070 C   0  0  0  0  0  0  0  0  0  0  0  0
   62.3500   33.5360   46.7560 C   0  0  0  0  0  0  0  0  0  0  0  0
   63.3990   33.4330   47.6380 C   0  0  0  0  0  0  0  0  0  0  0  0
   63.2780   33.6870   48.9830 C   0  0  0  0  0  0  0  0  0  0  0  0
   62.0340   34.0620   49.4410 C   0  0  0  0  0  0  0  0  0  0  0  0
   60.9710   34.1650   48.5420 C   0  0  0  0  0  0  0  0  0  0  0  0
   56.8670   31.0050   42.6150 N   0  0  0  0  0  0  0  0  0  0  0  0
   56.2500   29.8490   42.9060 N   0  0  0  0  0  0  0  0  0  0  0  0
   58.1430   27.9790   45.6340 C   0  0  0  0  0  0  0  0  0  0  0  0
   60.7035   27.2457   47.3921 H   0  0  0  0  0  0  0  0  0  0  0  0
   60.9300   26.3691   45.8407 H   0  0  0  0  0  0  0  0  0  0  0  0
   60.7027   28.1510   45.8407 H   0  0  0  0  0  0  0  0  0  0  0  0
   59.0850   25.0912   47.2000 H   0  0  0  0  0  0  0  0  0  0  0  0
   56.6062   24.7221   47.0474 H   0  0  0  0  0  0  0  0  0  0  0  0
   54.3680   26.7110   45.1980 H   0  0  0  0  0  0  0  0  0  0  0  0
   57.5329   35.0174   45.1349 H   0  0  0  0  0  0  0  0  0  0  0  0
   56.7515   33.4712   45.6868 H   0  0  0  0  0  0  0  0  0  0  0  0
   60.3190   34.2000   45.2350 H   0  0  0  0  0  0  0  0  0  0  0  0
   62.5084   33.3204   45.6890 H   0  0  0  0  0  0  0  0  0  0  0  0
   64.3829   33.1327   47.2484 H   0  0  0  0  0  0  0  0  0  0  0  0
   64.1368   33.5949   49.6642 H   0  0  0  0  0  0  0  0  0  0  0  0
   61.8793   34.2789   50.5083 H   0  0  0  0  0  0  0  0  0  0  0  0
   59.9871   34.4661   48.9309 H   0  0  0  0  0  0  0  0  0  0  0  0
   56.9420   31.3750   41.6420 H   0  0  0  0  0  0  0  0  0  0  0  0
   55.7800   29.1840   42.2510 H   0  0  0  0  0  0  0  0  0  0  0  0
   58.5913   28.9008   45.2350 H   0  0  0  0  0  0  0  0  0  0  0  0
  1  2  1  0
  2  3  2  0
  3  4  1  0
  4  5  2  0
  5  6  1  0
  5  7  1  0
  7  8  1  0
  8  9  2  0
  9 10  1  0
 10 11  2  0
 11 12  1  0
 12 13  1  0
 13 14  1  0
 14 15  2  0
 14 16  1  0
 16 17  1  0
 17 18  2  0
 18 19  1  0
 19 20  2  0
 20 21  1  0
 21 22  2  0
 11 23  1  0
 23 24  1  0
  7 25  2  0
 25  2  1  0
 24  9  1  0
 22 17  1  0
  1 26  1  0
  1 27  1  0
  1 28  1  0
  3 29  1  0
  4 30  1  0
  6 31  1  0
 13 32  1  0
 13 33  1  0
 16 34  1  0
 18 35  1  0
 19 36  1  0
 20 37  1  0
 21 38  1  0
 22 39  1  0
 23 40  1  0
 24 41  1  0
 25 42  1  0
M  END
>  <smiles>  (28) 
Cc1ccc(O)c(N=c2nc(SCC(=O)Nc3ccccc3)[nH][nH]2)c1

>  <score_type>  (28) 
oracle

>  <origin>  (28) 
adg

>  <m_score__min__energy>  (28) 
-10.460000000000001

>  <m_primary>  (28) 
energy

$$$$
28:0
     RDKit          3D

 50 52  0  0  0  0  0  0  0  0999 V2000
   59.9320   34.5300   49.1060 C   0  0  0  0  0  0  0  0  0  0  0  0
   59.2380   34.1290   47.8390 C   0  0  0  0  0  0  0  0  0  0  0  0
   59.4590   34.8410   46.6510 C   0  0  0  0  0  0  0  0  0  0  0  0
   58.8570   34.4300   45.4580 C   0  0  0  0  0  0  0  0  0  0  0  0
   58.0290   33.2970   45.4390 C   0  0  0  0  0  0  0  0  0  0  0  0
   57.4820   32.7800   44.1400 C   0  0  0  0  0  0  0  0  0  0  0  0
   57.8630   31.3840   44.0120 N   0  0  0  0  0  0  0  0  0  0  0  0
   56.9410   30.2910   44.0100 C   0  0  0  0  0  0  0  0  0  0  0  0
   55.7930   30.4230   44.5120 O   0  0  0  0  0  0  0  0  0  0  0  0
   57.3520   28.9690   43.4270 C   0  0  0  0  0  0  0  0  0  0  0  0
   58.4630   28.4090   44.1360 O   0  0  0  0  0  0  0  0  0  0  0  0
   58.8670   28.7870   45.4280 C   0  0  0  0  0  0  0  0  0  0  0  0
   58.1390   28.3030   46.5220 C   0  0  0  0  0  0  0  0  0  0  0  0
   58.5600   28.5710   47.8280 C   0  0  0  0  0  0  0  0  0  0  0  0
   59.7010   29.3510   48.0560 C   0  0  0  0  0  0  0  0  0  0  0  0
   60.2480   29.6730   49.7000 S   0  0  0  0  0  0  0  0  0  0  0  0
   59.1480   29.3470   50.6720 O   0  0  0  0  0  0  0  0  0  0  0  0
   61.4220   28.7880   50.0090 O   0  0  0  0  0  0  0  0  0  0  0  0
   60.7390   31.3360   49.8690 N   0  0  0  0  0  0  0  0  0  0  0  0
   62.1980   31.4850   49.7680 C   0  0  0  0  0  0  0  0  0  0  0  0
   62.6040   32.3120   48.5800 C   0  0  0  0  0  0  0  0  0  0  0  0
   63.8640   32.8200   48.3440 C   0  0  0  0  0  0  0  0  0  0  0  0
   63.7680   33.5080   47.1540 C   0  0  0  0  0  0  0  0  0  0  0  0
   62.4570   33.3810   46.7410 C   0  0  0  0  0  0  0  0  0  0  0  0
   61.7870   32.6660   47.6130 O   0  0  0  0  0  0  0  0  0  0  0  0
   60.4060   29.8770   46.9660 C   0  0  0  0  0  0  0  0  0  0  0  0
   59.9960   29.5960   45.6590 C   0  0  0  0  0  0  0  0  0  0  0  0
   57.8320   32.5690   46.6220 C   0  0  0  0  0  0  0  0  0  0  0  0
   58.4280   32.9850   47.8150 C   0  0  0  0  0  0  0  0  0  0  0  0
   59.3429   34.1896   49.9703 H   0  0  0  0  0  0  0  0  0  0  0  0
   60.9305   34.0696   49.1386 H   0  0  0  0  0  0  0  0  0  0  0  0
   60.0318   35.6250   49.1386 H   0  0  0  0  0  0  0  0  0  0  0  0
   60.1097   35.7279   46.6580 H   0  0  0  0  0  0  0  0  0  0  0  0
   59.0328   34.9963   44.5315 H   0  0  0  0  0  0  0  0  0  0  0  0
   56.3856   32.8689   44.1357 H   0  0  0  0  0  0  0  0  0  0  0  0
   57.8847   33.3630   43.2986 H   0  0  0  0  0  0  0  0  0  0  0  0
   56.5025   28.2725   43.4848 H   0  0  0  0  0  0  0  0  0  0  0  0
   57.6537   29.1300   42.3815 H   0  0  0  0  0  0  0  0  0  0  0  0
   57.2296   27.7078   46.3526 H   0  0  0  0  0  0  0  0  0  0  0  0
   57.9930   28.1677   48.6799 H   0  0  0  0  0  0  0  0  0  0  0  0
   60.2720   31.8910   49.1130 H   0  0  0  0  0  0  0  0  0  0  0  0
   62.5683   31.9723   50.6820 H   0  0  0  0  0  0  0  0  0  0  0  0
   62.6320   30.4817   49.6450 H   0  0  0  0  0  0  0  0  0  0  0  0
   64.7581   32.7010   48.9736 H   0  0  0  0  0  0  0  0  0  0  0  0
   64.5740   34.0495   46.6371 H   0  0  0  0  0  0  0  0  0  0  0  0
   62.0379   33.8136   45.8206 H   0  0  0  0  0  0  0  0  0  0  0  0
   61.2860   30.5139   47.1389 H   0  0  0  0  0  0  0  0  0  0  0  0
   60.5577   30.0086   44.8080 H   0  0  0  0  0  0  0  0  0  0  0  0
   57.2047   31.6655   46.6101 H   0  0  0  0  0  0  0  0  0  0  0  0
   58.2611   32.4126   48.7394 H   0  0  0  0  0  0  0  0  0  0  0  0
  1  2  1  0
  2  3  2  0
  3  4  1  0
  4  5  2  0
  5  6  1  0
  6  7  1  0
  7  8  1  0
  8  9  2  0
  8 10  1  0
 10 11  1  0
 11 12  1  0
 12 13  2  0
 13 14  1  0
 14 15  2  0
 15 16  1  0
 16 17  2  0
 16 18  2  0
 16 19  1  0
 19 20  1  0
 20 21  1  0
 21 22  2  0
 22 23  1  0
 23 24  2  0
 24 25  1  0
 15 26  1  0
 26 27  2  0
  5 28  1  0
 28 29  2  0
 29  2  1  0
 27 12  1  0
 25 21  1  0
  1 30  1  0
  1 31  1  0
  1 32  1  0
  3 33  1  0
  4 34  1  0
  6 35  1  0
  6 36  1  0
 10 37  1  0
 10 38  1  0
 13 39  1  0
 14 40  1  0
 19 41  1  0
 20 42  1  0
 20 43  1  0
 22 44  1  0
 23 45  1  0
 24 46  1  0
 26 47  1  0
 27 48  1  0
 28 49  1  0
 29 50  1  0
M  CHG  1   7  -1
M  END
>  <UniqueID>  (29) 
26

>  <SMILES>  (29) 
Cc1ccc(C[N-]C(=O)COc2ccc(S(=O)(=O)NCc3ccco3)cc2)cc1

>  <Energy>  (29) 
70.09173336894885

>  <Genealogy>  (29) 
Cc1ccc(C[N-]C(=O)COc2ccc(S(=O)(=O)NCc3ccco3)cc2)cc1 (protonated)
Cc1ccc(C[N-]C(=O)COc2ccc(S(=O)(=O)NCc3ccco3)cc2)cc1 (3D coordinates assigned)
Cc1ccc(C[N-]C(=O)COc2ccc(S(=O)(=O)NCc3ccco3)cc2)cc1 (optimized conformer: 70.09173336894885 kcal/mol)

>  <smiles>  (29) 
Cc1ccc(CNC(=O)COc2ccc(S(=O)(=O)NCc3ccco3)cc2)cc1

>  <score_type>  (29) 
oracle

>  <origin>  (29) 
adg

>  <m_score__min__energy>  (29) 
-10.35

>  <m_primary>  (29) 
energy

$$$$
29:0
     RDKit          3D

 32 33  0  0  0  0  0  0  0  0999 V2000
   59.8302   35.7189   45.9550 H   0  0  0  0  0  0  0  0  0  0  0  0
   59.7560   34.7220   46.4140 C   0  0  0  0  0  0  0  0  0  0  0  0
   58.5950   34.0620   46.3220 C   0  0  0  0  0  0  0  0  0  0  0  0
   57.7391   34.3979   46.9259 H   0  0  0  0  0  0  0  0  0  0  0  0
   58.4320   32.8930   45.4300 C   0  0  0  0  0  0  0  0  0  0  0  0
   58.0620   33.1460   44.1070 C   0  0  0  0  0  0  0  0  0  0  0  0
   57.8574   34.1736   43.7721 H   0  0  0  0  0  0  0  0  0  0  0  0
   57.9560   32.0820   43.2200 C   0  0  0  0  0  0  0  0  0  0  0  0
   57.6360   32.2920   42.0190 O   0  0  0  0  0  0  0  0  0  0  0  0
   58.2060   30.8190   43.6480 N   0  0  0  0  0  0  0  0  0  0  0  0
   58.1380   30.0260   42.9700 H   0  0  0  0  0  0  0  0  0  0  0  0
   58.5350   30.5670   44.9440 C   0  0  0  0  0  0  0  0  0  0  0  0
   58.7620   29.3760   45.2960 O   0  0  0  0  0  0  0  0  0  0  0  0
   58.6150   31.5930   45.8550 N   0  0  0  0  0  0  0  0  0  0  0  0
   58.8990   31.2790   47.2680 C   0  0  0  0  0  0  0  0  0  0  0  0
   58.3032   31.9377   47.9169 H   0  0  0  0  0  0  0  0  0  0  0  0
   58.6367   30.2301   47.4704 H   0  0  0  0  0  0  0  0  0  0  0  0
   59.9689   31.4350   47.4704 H   0  0  0  0  0  0  0  0  0  0  0  0
   60.9490   34.1710   47.1070 C   0  0  0  0  0  0  0  0  0  0  0  0
   62.1090   33.8430   46.3760 C   0  0  0  0  0  0  0  0  0  0  0  0
   62.1360   34.0173   45.2902 H   0  0  0  0  0  0  0  0  0  0  0  0
   63.2240   33.2990   47.0170 C   0  0  0  0  0  0  0  0  0  0  0  0
   64.1260   33.0547   46.4367 H   0  0  0  0  0  0  0  0  0  0  0  0
   63.1960   33.0650   48.3910 C   0  0  0  0  0  0  0  0  0  0  0  0
   64.0761   32.6366   48.8928 H   0  0  0  0  0  0  0  0  0  0  0  0
   62.0540   33.3730   49.1310 C   0  0  0  0  0  0  0  0  0  0  0  0
   62.0368   33.1784   50.2135 H   0  0  0  0  0  0  0  0  0  0  0  0
   60.9250   33.9300   48.5050 C   0  0  0  0  0  0  0  0  0  0  0  0
   59.7120   34.2540   49.3390 C   0  0  0  0  0  0  0  0  0  0  0  0
   59.9713   34.1847   50.4057 H   0  0  0  0  0  0  0  0  0  0  0  0
   59.3715   35.2746   49.1099 H   0  0  0  0  0  0  0  0  0  0  0  0
   58.9079   33.5391   49.1099 H   0  0  0  0  0  0  0  0  0  0  0  0
  1  2  1  0
  2  3  2  0
  3  4  1  0
  3  5  1  0
  5  6  2  0
  6  7  1  0
  6  8  1  0
  8  9  2  0
  8 10  1  0
 10 11  1  0
 10 12  1  0
 12 13  2  0
 12 14  1  0
 14 15  1  0
 15 16  1  0
 15 17  1  0
 15 18  1  0
  2 19  1  0
 19 20  2  0
 20 21  1  0
 20 22  1  0
 22 23  1  0
 22 24  2  0
 24 25  1  0
 24 26  1  0
 26 27  1  0
 26 28  2  0
 28 29  1  0
 29 30  1  0
 29 31  1  0
 29 32  1  0
 14  5  1  0
 28 19  1  0
M  END
>  <UniqueID>  (30) 
27

>  <SMILES>  (30) 
Cc1ccccc1/C=C/c1cc(=O)[nH]c(=O)n1C

>  <Energy>  (30) 
46.352878647595325

>  <Genealogy>  (30) 
Cc1ccccc1/C=C/c1cc(=O)[nH]c(=O)n1C (cis-trans isomerization)
Cc1ccccc1/C=C/c1cc(=O)[nH]c(=O)n1C (3D coordinates assigned)
Cc1ccccc1/C=C/c1cc(=O)[nH]c(=O)n1C (optimized conformer: 46.352878647595325 kcal/mol)

>  <smiles>  (30) 
Cc1ccccc1C=Cc1cc(=O)[nH]c(=O)n1C

>  <score_type>  (30) 
oracle

>  <origin>  (30) 
adg

>  <m_score__min__energy>  (30) 
-6.8700000000000001

>  <m_primary>  (30) 
energy

$$$$
30:0
     RDKit          3D

 42 44  0  0  0  0  0  0  0  0999 V2000
   58.0550   30.2680   50.8570 O   0  0  0  0  0  0  0  0  0  0  0  0
   58.9040   30.5450   49.9690 C   0  0  0  0  0  0  0  0  0  0  0  0
   59.8120   29.4830   49.4950 C   0  0  0  0  0  0  0  0  0  0  0  0
   61.1390   29.6110   49.3460 C   0  0  0  0  0  0  0  0  0  0  0  0
   61.8310   30.8370   48.8940 C   0  0  0  0  0  0  0  0  0  0  0  0
   61.7550   31.2700   47.5580 C   0  0  0  0  0  0  0  0  0  0  0  0
   62.4400   32.4170   47.1480 C   0  0  0  0  0  0  0  0  0  0  0  0
   63.2250   33.1270   48.0610 C   0  0  0  0  0  0  0  0  0  0  0  0
   63.3300   32.6870   49.3830 C   0  0  0  0  0  0  0  0  0  0  0  0
   62.6440   31.5400   49.7980 C   0  0  0  0  0  0  0  0  0  0  0  0
   59.0620   31.8960   49.5140 N   0  0  0  0  0  0  0  0  0  0  0  0
   58.7400   32.3960   48.2090 C   0  0  0  0  0  0  0  0  0  0  0  0
   59.0790   33.7150   47.8930 C   0  0  0  0  0  0  0  0  0  0  0  0
   58.8090   34.2310   46.6250 C   0  0  0  0  0  0  0  0  0  0  0  0
   58.2100   33.4260   45.6540 C   0  0  0  0  0  0  0  0  0  0  0  0
   57.8800   32.0890   45.9400 C   0  0  0  0  0  0  0  0  0  0  0  0
   57.2590   31.2320   44.9030 C   0  0  0  0  0  0  0  0  0  0  0  0
   56.1600   31.5680   44.3820 O   0  0  0  0  0  0  0  0  0  0  0  0
   57.8730   29.9910   44.5320 N   0  0  0  0  0  0  0  0  0  0  0  0
   57.5980   28.7140   45.1250 C   0  0  0  0  0  0  0  0  0  0  0  0
   58.6760   27.8960   45.4830 C   0  0  0  0  0  0  0  0  0  0  0  0
   58.4540   26.6420   46.0590 C   0  0  0  0  0  0  0  0  0  0  0  0
   57.1490   26.1880   46.2640 C   0  0  0  0  0  0  0  0  0  0  0  0
   56.0630   26.9790   45.8760 C   0  0  0  0  0  0  0  0  0  0  0  0
   54.7680   26.5090   46.0600 O   0  0  0  0  0  0  0  0  0  0  0  0
   56.2800   28.2360   45.2950 C   0  0  0  0  0  0  0  0  0  0  0  0
   55.1910   28.9810   44.8580 O   0  0  0  0  0  0  0  0  0  0  0  0
   58.1570   31.5780   47.2220 C   0  0  0  0  0  0  0  0  0  0  0  0
   59.3656   28.5095   49.2440 H   0  0  0  0  0  0  0  0  0  0  0  0
   61.7616   28.7345   49.5785 H   0  0  0  0  0  0  0  0  0  0  0  0
   61.1534   30.7030   46.8323 H   0  0  0  0  0  0  0  0  0  0  0  0
   62.3614   32.7613   46.1062 H   0  0  0  0  0  0  0  0  0  0  0  0
   63.7602   34.0323   47.7386 H   0  0  0  0  0  0  0  0  0  0  0  0
   63.9530   33.2432   50.0989 H   0  0  0  0  0  0  0  0  0  0  0  0
   62.7419   31.1879   50.8355 H   0  0  0  0  0  0  0  0  0  0  0  0
   59.5622   34.3507   48.6496 H   0  0  0  0  0  0  0  0  0  0  0  0
   59.0685   35.2738   46.3899 H   0  0  0  0  0  0  0  0  0  0  0  0
   57.9946   33.8405   44.6581 H   0  0  0  0  0  0  0  0  0  0  0  0
   59.7055   28.2427   45.3097 H   0  0  0  0  0  0  0  0  0  0  0  0
   59.3074   26.0123   46.3510 H   0  0  0  0  0  0  0  0  0  0  0  0
   56.9754   25.2073   46.7311 H   0  0  0  0  0  0  0  0  0  0  0  0
   57.9159   30.5303   47.4550 H   0  0  0  0  0  0  0  0  0  0  0  0
  1  2  2  0
  2  3  1  0
  3  4  2  3
  4  5  1  0
  5  6  2  0
  6  7  1  0
  7  8  2  0
  8  9  1  0
  9 10  2  0
  2 11  1  0
 11 12  1  0
 12 13  2  0
 13 14  1  0
 14 15  2  0
 15 16  1  0
 16 17  1  0
 17 18  2  0
 17 19  1  0
 19 20  1  0
 20 21  2  0
 21 22  1  0
 22 23  2  0
 23 24  1  0
 24 25  1  0
 24 26  2  0
 26 27  1  0
 16 28  2  0
 10  5  1  0
 28 12  1  0
 26 20  1  0
  3 29  1  0
  4 30  1  0
  6 31  1  0
  7 32  1  0
  8 33  1  0
  9 34  1  0
 10 35  1  0
 13 36  1  0
 14 37  1  0
 15 38  1  0
 21 39  1  0
 22 40  1  0
 23 41  1  0
 28 42  1  0
M  CHG  4  11  -1  19  -1  25  -1  27  -1
M  END
>  <UniqueID>  (31) 
28

>  <SMILES>  (31) 
O=C(C=Cc1ccccc1)[N-]c1cccc(C(=O)[N-]c2cccc([O-])c2[O-])c1

>  <Energy>  (31) 
61.7273100205275

>  <Genealogy>  (31) 
O=C(C=Cc1ccccc1)[N-]c1cccc(C(=O)[N-]c2cccc([O-])c2[O-])c1 (protonated)
O=C(C=Cc1ccccc1)[N-]c1cccc(C(=O)[N-]c2cccc([O-])c2[O-])c1 (3D coordinates assigned)
O=C(C=Cc1ccccc1)[N-]c1cccc(C(=O)[N-]c2cccc([O-])c2[O-])c1 (optimized conformer: 61.7273100205275 kcal/mol)

>  <smiles>  (31) 
O=C(C=Cc1ccccc1)Nc1cccc(C(=O)Nc2cccc(O)c2O)c1

>  <score_type>  (31) 
oracle

>  <origin>  (31) 
adg

>  <m_score__min__energy>  (31) 
-18.57

>  <m_primary>  (31) 
energy

$$$$
31:0
     RDKit          3D

 43 46  0  0  0  0  0  0  0  0999 V2000
   62.1900   30.5100   51.6370 O   0  0  0  0  0  0  0  0  0  0  0  0
   61.6760   29.5160   51.0600 C   0  0  0  0  0  0  0  0  0  0  0  0
   60.8530   29.7230   50.0010 N   0  0  0  0  0  0  0  0  0  0  0  0
   60.2600   28.6900   49.3450 C   0  0  0  0  0  0  0  0  0  0  0  0
   59.3680   28.9490   48.1870 C   0  0  0  0  0  0  0  0  0  0  0  0
   58.7620   27.8820   47.4970 C   0  0  0  0  0  0  0  0  0  0  0  0
   57.9230   28.1280   46.4060 C   0  0  0  0  0  0  0  0  0  0  0  0
   57.6770   29.4390   45.9850 C   0  0  0  0  0  0  0  0  0  0  0  0
   56.6090   29.7460   44.6190 S   0  0  0  0  0  0  0  0  0  0  0  0
   57.2390   29.2370   43.3540 O   0  0  0  0  0  0  0  0  0  0  0  0
   56.3700   31.2240   44.4800 O   0  0  0  0  0  0  0  0  0  0  0  0
   55.1440   28.9650   44.8700 O   0  0  0  0  0  0  0  0  0  0  0  0
   58.2690   30.5070   46.6710 C   0  0  0  0  0  0  0  0  0  0  0  0
   59.1090   30.2650   47.7610 C   0  0  0  0  0  0  0  0  0  0  0  0
   60.4900   27.4190   49.7640 N   0  0  0  0  0  0  0  0  0  0  0  0
   61.3050   27.1520   50.8190 C   0  0  0  0  0  0  0  0  0  0  0  0
   61.4970   25.8310   51.2120 O   0  0  0  0  0  0  0  0  0  0  0  0
   61.9400   28.2040   51.5020 C   0  0  0  0  0  0  0  0  0  0  0  0
   62.8580   27.9320   52.6800 C   0  0  0  0  0  0  0  0  0  0  0  0
   64.2890   27.6690   52.2280 C   0  0  0  0  0  0  0  0  0  0  0  0
   64.6970   26.3220   52.0970 C   0  0  0  0  0  0  0  0  0  0  0  0
   63.8090   25.2830   52.3600 O   0  0  0  0  0  0  0  0  0  0  0  0
   65.9920   26.0010   51.6990 C   0  0  0  0  0  0  0  0  0  0  0  0
   66.9120   27.0010   51.4160 C   0  0  0  0  0  0  0  0  0  0  0  0
   66.5480   28.3480   51.5230 C   0  0  0  0  0  0  0  0  0  0  0  0
   67.4950   29.3410   51.2240 C   0  0  0  0  0  0  0  0  0  0  0  0
   67.1560   30.6880   51.3200 C   0  0  0  0  0  0  0  0  0  0  0  0
   65.8740   31.0570   51.7160 C   0  0  0  0  0  0  0  0  0  0  0  0
   64.9180   30.0850   52.0180 C   0  0  0  0  0  0  0  0  0  0  0  0
   65.2310   28.7050   51.9300 C   0  0  0  0  0  0  0  0  0  0  0  0
   58.9500   26.8470   47.8186 H   0  0  0  0  0  0  0  0  0  0  0  0
   57.4539   27.2861   45.8759 H   0  0  0  0  0  0  0  0  0  0  0  0
   58.0718   31.5406   46.3503 H   0  0  0  0  0  0  0  0  0  0  0  0
   59.5719   31.1106   48.2908 H   0  0  0  0  0  0  0  0  0  0  0  0
   62.3540   25.5420   51.6670 H   0  0  0  0  0  0  0  0  0  0  0  0
   62.8497   28.8059   53.3480 H   0  0  0  0  0  0  0  0  0  0  0  0
   62.4919   27.0351   53.2011 H   0  0  0  0  0  0  0  0  0  0  0  0
   66.2886   24.9457   51.6080 H   0  0  0  0  0  0  0  0  0  0  0  0
   67.9329   26.7332   51.1059 H   0  0  0  0  0  0  0  0  0  0  0  0
   68.5099   29.0531   50.9123 H   0  0  0  0  0  0  0  0  0  0  0  0
   67.9019   31.4609   51.0827 H   0  0  0  0  0  0  0  0  0  0  0  0
   65.6117   32.1226   51.7917 H   0  0  0  0  0  0  0  0  0  0  0  0
   63.9089   30.3940   52.3282 H   0  0  0  0  0  0  0  0  0  0  0  0
  1  2  2  0
  2  3  1  0
  3  4  2  0
  4  5  1  0
  5  6  2  0
  6  7  1  0
  7  8  2  0
  8  9  1  0
  9 10  2  0
  9 11  2  0
  9 12  1  0
  8 13  1  0
 13 14  2  0
  4 15  1  0
 15 16  1  0
 16 17  1  0
 16 18  2  0
 18 19  1  0
 19 20  1  0
 20 21  2  0
 21 22  1  0
 21 23  1  0
 23 24  2  0
 24 25  1  0
 25 26  2  0
 26 27  1  0
 27 28  2  0
 28 29  1  0
 29 30  2  0
 18  2  1  0
 30 20  1  0
 14  5  1  0
 30 25  1  0
  6 31  1  0
  7 32  1  0
 13 33  1  0
 14 34  1  0
 17 35  1  0
 19 36  1  0
 19 37  1  0
 23 38  1  0
 24 39  1  0
 26 40  1  0
 27 41  1  0
 28 42  1  0
 29 43  1  0
M  CHG  3  12  -1  15  -1  22  -1
M  END
>  <UniqueID>  (32) 
29

>  <SMILES>  (32) 
O=c1nc(-c2ccc(S(=O)(=O)[O-])cc2)[n-]c(O)c1Cc1c([O-])ccc2ccccc12

>  <Energy>  (32) 
61.49930356180999

>  <Genealogy>  (32) 
O=c1nc(-c2ccc(S(=O)(=O)[O-])cc2)[n-]c(O)c1Cc1c([O-])ccc2ccccc12 (protonated)
O=c1nc(-c2ccc(S(=O)(=O)[O-])cc2)[n-]c(O)c1Cc1c([O-])ccc2ccccc12 (3D coordinates assigned)
O=c1nc(-c2ccc(S(=O)(=O)[O-])cc2)[n-]c(O)c1Cc1c([O-])ccc2ccccc12 (optimized conformer: 61.49930356180999 kcal/mol)

>  <smiles>  (32) 
O=c1nc(-c2ccc(S(=O)(=O)O)cc2)[nH]c(O)c1Cc1c(O)ccc2ccccc12

>  <score_type>  (32) 
oracle

>  <origin>  (32) 
adg

>  <m_score__min__energy>  (32) 
-12.5

>  <m_primary>  (32) 
energy

$$$$
32:0
     RDKit          3D

 51 53  0  0  0  0  0  0  0  0999 V2000
   54.9040   26.3390   45.9860 N   0  0  0  0  0  0  0  0  0  0  0  0
   56.3580   25.4580   46.2940 S   0  0  0  0  0  0  0  0  0  0  0  0
   56.2540   24.7640   47.6230 O   0  0  0  0  0  0  0  0  0  0  0  0
   56.5490   24.4220   45.2230 O   0  0  0  0  0  0  0  0  0  0  0  0
   57.7260   26.5680   46.3080 C   0  0  0  0  0  0  0  0  0  0  0  0
   58.1920   27.1270   45.1130 C   0  0  0  0  0  0  0  0  0  0  0  0
   59.2660   28.0190   45.1290 C   0  0  0  0  0  0  0  0  0  0  0  0
   59.8820   28.3570   46.3370 C   0  0  0  0  0  0  0  0  0  0  0  0
   59.4280   27.8010   47.5470 C   0  0  0  0  0  0  0  0  0  0  0  0
   60.0620   28.1550   48.8410 C   0  0  0  0  0  0  0  0  0  0  0  0
   61.0960   27.5340   49.2100 O   0  0  0  0  0  0  0  0  0  0  0  0
   59.5270   29.2010   49.6700 N   0  0  0  0  0  0  0  0  0  0  0  0
   60.0740   29.5100   50.9900 C   0  0  0  0  0  0  0  0  0  0  0  0
   59.1790   28.9310   52.0880 C   0  0  0  0  0  0  0  0  0  0  0  0
   57.8450   29.6270   52.1050 C   0  0  0  0  0  0  0  0  0  0  0  0
   57.6920   30.8800   51.4930 C   0  0  0  0  0  0  0  0  0  0  0  0
   56.4450   31.5120   51.4810 C   0  0  0  0  0  0  0  0  0  0  0  0
   55.3320   30.8940   52.0690 C   0  0  0  0  0  0  0  0  0  0  0  0
   53.9960   31.5890   52.0660 C   0  0  0  0  0  0  0  0  0  0  0  0
   52.9110   30.6090   51.8480 N   0  0  0  0  0  0  0  0  0  0  0  0
   51.9030   30.6270   52.9300 C   0  0  0  0  0  0  0  0  0  0  0  0
   51.1420   31.9600   52.9860 C   0  0  0  0  0  0  0  0  0  0  0  0
   50.6530   32.3350   51.6660 N   0  0  0  0  0  0  0  0  0  0  0  0
   51.2920   31.8870   50.4700 C   0  0  0  0  0  0  0  0  0  0  0  0
   50.9590   32.3840   49.3620 O   0  0  0  0  0  0  0  0  0  0  0  0
   52.2790   30.7520   50.5180 C   0  0  0  0  0  0  0  0  0  0  0  0
   55.4820   29.6360   52.6720 C   0  0  0  0  0  0  0  0  0  0  0  0
   56.7290   29.0040   52.6850 C   0  0  0  0  0  0  0  0  0  0  0  0
   58.3370   26.9130   47.5210 C   0  0  0  0  0  0  0  0  0  0  0  0
   55.1490   27.3540   46.0180 H   0  0  0  0  0  0  0  0  0  0  0  0
   57.7114   26.8633   44.1593 H   0  0  0  0  0  0  0  0  0  0  0  0
   59.6285   28.4572   44.1875 H   0  0  0  0  0  0  0  0  0  0  0  0
   60.7266   29.0617   46.3418 H   0  0  0  0  0  0  0  0  0  0  0  0
   58.7320   29.7860   49.3270 H   0  0  0  0  0  0  0  0  0  0  0  0
   61.0806   29.0748   51.0760 H   0  0  0  0  0  0  0  0  0  0  0  0
   60.1227   30.6025   51.1089 H   0  0  0  0  0  0  0  0  0  0  0  0
   59.0248   27.8581   51.9005 H   0  0  0  0  0  0  0  0  0  0  0  0
   59.6696   29.0803   53.0612 H   0  0  0  0  0  0  0  0  0  0  0  0
   58.5573   31.3676   51.0203 H   0  0  0  0  0  0  0  0  0  0  0  0
   56.3364   32.4991   51.0079 H   0  0  0  0  0  0  0  0  0  0  0  0
   53.8446   32.0894   53.0338 H   0  0  0  0  0  0  0  0  0  0  0  0
   53.9788   32.3300   51.2533 H   0  0  0  0  0  0  0  0  0  0  0  0
   51.1825   29.8138   52.7576 H   0  0  0  0  0  0  0  0  0  0  0  0
   52.4296   30.4962   53.8869 H   0  0  0  0  0  0  0  0  0  0  0  0
   50.2875   31.8584   53.6712 H   0  0  0  0  0  0  0  0  0  0  0  0
   51.8287   32.7422   53.3418 H   0  0  0  0  0  0  0  0  0  0  0  0
   51.7537   29.8167   50.2743 H   0  0  0  0  0  0  0  0  0  0  0  0
   53.0749   30.9692   49.7905 H   0  0  0  0  0  0  0  0  0  0  0  0
   54.6144   29.1447   53.1367 H   0  0  0  0  0  0  0  0  0  0  0  0
   56.8360   28.0138   53.1520 H   0  0  0  0  0  0  0  0  0  0  0  0
   57.9600   26.4855   48.4618 H   0  0  0  0  0  0  0  0  0  0  0  0
  1  2  1  0
  2  3  2  0
  2  4  2  0
  2  5  1  0
  5  6  2  0
  6  7  1  0
  7  8  2  0
  8  9  1  0
  9 10  1  0
 10 11  2  0
 10 12  1  0
 12 13  1  0
 13 14  1  0
 14 15  1  0
 15 16  2  0
 16 17  1  0
 17 18  2  0
 18 19  1  0
 19 20  1  0
 20 21  1  0
 21 22  1  0
 22 23  1  0
 23 24  1  0
 24 25  2  0
 24 26  1  0
 18 27  1  0
 27 28  2  0
  9 29  2  0
 29  5  1  0
 28 15  1  0
 26 20  1  0
  1 30  1  0
  6 31  1  0
  7 32  1  0
  8 33  1  0
 12 34  1  0
 13 35  1  0
 13 36  1  0
 14 37  1  0
 14 38  1  0
 16 39  1  0
 17 40  1  0
 19 41  1  0
 19 42  1  0
 21 43  1  0
 21 44  1  0
 22 45  1  0
 22 46  1  0
 26 47  1  0
 26 48  1  0
 27 49  1  0
 28 50  1  0
 29 51  1  0
M  CHG  2   1  -1  23  -1
M  END
>  <UniqueID>  (33) 
30

>  <SMILES>  (33) 
[NH-]S(=O)(=O)c1cccc(C(=O)NCCc2ccc(CN3CC[N-]C(=O)C3)cc2)c1

>  <Energy>  (33) 
54.195120513831235

>  <Genealogy>  (33) 
[NH-]S(=O)(=O)c1cccc(C(=O)NCCc2ccc(CN3CC[N-]C(=O)C3)cc2)c1 (protonated)
[NH-]S(=O)(=O)c1cccc(C(=O)NCCc2ccc(CN3CC[N-]C(=O)C3)cc2)c1 (3D coordinates assigned)
[NH-]S(=O)(=O)c1cccc(C(=O)NCCc2ccc(CN3CC[N-]C(=O)C3)cc2)c1 (nonaromatic ring conformer: 54.195120513831235 kcal/mol)

>  <smiles>  (33) 
NS(=O)(=O)c1cccc(C(=O)NCCc2ccc(CN3CCNC(=O)C3)cc2)c1

>  <score_type>  (33) 
oracle

>  <origin>  (33) 
adg

>  <m_score__min__energy>  (33) 
-14.720000000000001

>  <m_primary>  (33) 
energy

$$$$
33:0
     RDKit          3D

 47 49  0  0  0  0  0  0  0  0999 V2000
   55.8040   30.6610   54.1860 O   0  0  0  0  0  0  0  0  0  0  0  0
   55.9480   30.3000   52.9860 C   0  0  0  0  0  0  0  0  0  0  0  0
   57.2890   30.2240   52.3730 C   0  0  0  0  0  0  0  0  0  0  0  0
   57.9200   31.2260   51.7400 C   0  0  0  0  0  0  0  0  0  0  0  0
   58.6560   31.1010   50.4660 C   0  0  0  0  0  0  0  0  0  0  0  0
   59.8610   30.3830   50.3900 C   0  0  0  0  0  0  0  0  0  0  0  0
   60.5630   30.3110   49.1850 C   0  0  0  0  0  0  0  0  0  0  0  0
   60.0830   30.9720   48.0470 C   0  0  0  0  0  0  0  0  0  0  0  0
   60.7860   30.8910   46.8450 O   0  0  0  0  0  0  0  0  0  0  0  0
   58.8950   31.7200   48.1200 C   0  0  0  0  0  0  0  0  0  0  0  0
   58.2850   32.5590   46.6950 S   0  0  0  0  0  0  0  0  0  0  0  0
   57.2850   33.5970   47.1250 O   0  0  0  0  0  0  0  0  0  0  0  0
   57.6090   31.5840   45.7680 O   0  0  0  0  0  0  0  0  0  0  0  0
   59.6170   33.3110   45.8730 N   0  0  0  0  0  0  0  0  0  0  0  0
   60.1070   34.4400   46.6590 C   0  0  0  0  0  0  0  0  0  0  0  0
   61.3440   34.0250   47.4010 C   0  0  0  0  0  0  0  0  0  0  0  0
   62.4730   33.5770   46.6930 C   0  0  0  0  0  0  0  0  0  0  0  0
   63.6370   33.2140   47.3790 C   0  0  0  0  0  0  0  0  0  0  0  0
   63.6840   33.3040   48.7750 C   0  0  0  0  0  0  0  0  0  0  0  0
   62.5700   33.7650   49.4840 C   0  0  0  0  0  0  0  0  0  0  0  0
   61.4060   34.1310   48.8010 C   0  0  0  0  0  0  0  0  0  0  0  0
   58.1940   31.7880   49.3340 C   0  0  0  0  0  0  0  0  0  0  0  0
   54.8090   29.9520   52.1920 N   0  0  0  0  0  0  0  0  0  0  0  0
   53.5740   30.6790   52.1060 C   0  0  0  0  0  0  0  0  0  0  0  0
   53.1380   31.2720   50.9070 C   0  0  0  0  0  0  0  0  0  0  0  0
   51.9390   31.9910   50.8720 C   0  0  0  0  0  0  0  0  0  0  0  0
   51.1730   32.1330   52.0340 C   0  0  0  0  0  0  0  0  0  0  0  0
   49.9800   32.8450   51.9970 O   0  0  0  0  0  0  0  0  0  0  0  0
   51.6130   31.5660   53.2330 C   0  0  0  0  0  0  0  0  0  0  0  0
   52.8130   30.8510   53.2700 C   0  0  0  0  0  0  0  0  0  0  0  0
   57.8177   29.2618   52.4408 H   0  0  0  0  0  0  0  0  0  0  0  0
   57.8859   32.2207   52.2085 H   0  0  0  0  0  0  0  0  0  0  0  0
   60.2533   29.8753   51.2835 H   0  0  0  0  0  0  0  0  0  0  0  0
   61.4970   29.7327   49.1292 H   0  0  0  0  0  0  0  0  0  0  0  0
   60.5750   31.5000   46.0630 H   0  0  0  0  0  0  0  0  0  0  0  0
   60.3442   35.2795   45.9889 H   0  0  0  0  0  0  0  0  0  0  0  0
   59.3341   34.7544   47.3758 H   0  0  0  0  0  0  0  0  0  0  0  0
   62.4410   33.5116   45.5954 H   0  0  0  0  0  0  0  0  0  0  0  0
   64.5155   32.8577   46.8211 H   0  0  0  0  0  0  0  0  0  0  0  0
   64.5971   33.0122   49.3145 H   0  0  0  0  0  0  0  0  0  0  0  0
   62.6096   33.8398   50.5807 H   0  0  0  0  0  0  0  0  0  0  0  0
   60.5358   34.5032   49.3615 H   0  0  0  0  0  0  0  0  0  0  0  0
   57.2730   32.3861   49.3982 H   0  0  0  0  0  0  0  0  0  0  0  0
   53.7424   31.1697   49.9937 H   0  0  0  0  0  0  0  0  0  0  0  0
   51.5979   32.4453   49.9300 H   0  0  0  0  0  0  0  0  0  0  0  0
   51.0143   31.6826   54.1484 H   0  0  0  0  0  0  0  0  0  0  0  0
   53.1628   30.4201   54.2197 H   0  0  0  0  0  0  0  0  0  0  0  0
  1  2  2  0
  2  3  1  0
  3  4  2  3
  4  5  1  0
  5  6  2  0
  6  7  1  0
  7  8  2  0
  8  9  1  0
  8 10  1  0
 10 11  1  0
 11 12  2  0
 11 13  2  0
 11 14  1  0
 14 15  1  0
 15 16  1  0
 16 17  2  0
 17 18  1  0
 18 19  2  0
 19 20  1  0
 20 21  2  0
 10 22  2  0
  2 23  1  0
 23 24  1  0
 24 25  2  0
 25 26  1  0
 26 27  2  0
 27 28  1  0
 27 29  1  0
 29 30  2  0
 22  5  1  0
 30 24  1  0
 21 16  1  0
  3 31  1  0
  4 32  1  0
  6 33  1  0
  7 34  1  0
  9 35  1  0
 15 36  1  0
 15 37  1  0
 17 38  1  0
 18 39  1  0
 19 40  1  0
 20 41  1  0
 21 42  1  0
 22 43  1  0
 25 44  1  0
 26 45  1  0
 29 46  1  0
 30 47  1  0
M  CHG  3  14  -1  23  -1  28  -1
M  END
>  <UniqueID>  (34) 
31

>  <SMILES>  (34) 
O=C(C=Cc1ccc(O)c(S(=O)(=O)[N-]Cc2ccccc2)c1)[N-]c1ccc([O-])cc1

>  <Energy>  (34) 
59.339092342058464

>  <Genealogy>  (34) 
O=C(C=Cc1ccc(O)c(S(=O)(=O)[N-]Cc2ccccc2)c1)[N-]c1ccc([O-])cc1 (protonated)
O=C(C=Cc1ccc(O)c(S(=O)(=O)[N-]Cc2ccccc2)c1)[N-]c1ccc([O-])cc1 (3D coordinates assigned)
O=C(C=Cc1ccc(O)c(S(=O)(=O)[N-]Cc2ccccc2)c1)[N-]c1ccc([O-])cc1 (optimized conformer: 59.339092342058464 kcal/mol)

>  <smiles>  (34) 
O=C(C=Cc1ccc(O)c(S(=O)(=O)NCc2ccccc2)c1)Nc1ccc(O)cc1

>  <score_type>  (34) 
oracle

>  <origin>  (34) 
adg

>  <m_score__min__energy>  (34) 
-14.35

>  <m_primary>  (34) 
energy

$$$$
34:0
     RDKit          3D

 41 43  0  0  0  0  0  0  0  0999 V2000
   55.4700   29.0420   44.8540 N   0  0  0  0  0  0  0  0  0  0  0  0
   56.5420   29.9830   44.8800 C   0  0  0  0  0  0  0  0  0  0  0  0
   56.3460   31.1460   44.4330 O   0  0  0  0  0  0  0  0  0  0  0  0
   57.8660   29.6020   45.4240 C   0  0  0  0  0  0  0  0  0  0  0  0
   58.6040   28.5550   44.8430 C   0  0  0  0  0  0  0  0  0  0  0  0
   59.8570   28.2050   45.3520 C   0  0  0  0  0  0  0  0  0  0  0  0
   60.3880   28.8900   46.4470 C   0  0  0  0  0  0  0  0  0  0  0  0
   59.6610   29.9280   47.0490 C   0  0  0  0  0  0  0  0  0  0  0  0
   60.2500   30.6940   48.2010 C   0  0  0  0  0  0  0  0  0  0  0  0
   59.4990   30.3860   49.4570 C   0  0  0  0  0  0  0  0  0  0  0  0
   59.7270   29.3020   50.2990 C   0  0  0  0  0  0  0  0  0  0  0  0
   58.8530   29.1920   51.3320 N   0  0  0  0  0  0  0  0  0  0  0  0
   57.9280   30.1790   51.3060 C   0  0  0  0  0  0  0  0  0  0  0  0
   56.9630   30.3020   52.1670 N   0  0  0  0  0  0  0  0  0  0  0  0
   56.2600   29.2320   52.8170 C   0  0  0  0  0  0  0  0  0  0  0  0
   56.8230   28.5250   53.6960 O   0  0  0  0  0  0  0  0  0  0  0  0
   54.9000   28.9560   52.4730 N   0  0  0  0  0  0  0  0  0  0  0  0
   53.7570   29.5660   53.1450 C   0  0  0  0  0  0  0  0  0  0  0  0
   52.8930   30.2970   52.1540 C   0  0  0  0  0  0  0  0  0  0  0  0
   52.8290   29.8610   50.8200 C   0  0  0  0  0  0  0  0  0  0  0  0
   52.0500   30.5520   49.8880 C   0  0  0  0  0  0  0  0  0  0  0  0
   51.3300   31.6860   50.2780 C   0  0  0  0  0  0  0  0  0  0  0  0
   50.5580   32.3700   49.3460 O   0  0  0  0  0  0  0  0  0  0  0  0
   51.3890   32.1290   51.6050 C   0  0  0  0  0  0  0  0  0  0  0  0
   50.6790   33.2580   51.9960 O   0  0  0  0  0  0  0  0  0  0  0  0
   52.1660   31.4370   52.5390 C   0  0  0  0  0  0  0  0  0  0  0  0
   58.1440   31.2210   50.0070 S   0  0  0  0  0  0  0  0  0  0  0  0
   58.4080   30.2870   46.5280 C   0  0  0  0  0  0  0  0  0  0  0  0
   54.4860   29.3420   45.0350 H   0  0  0  0  0  0  0  0  0  0  0  0
   58.1918   28.0082   43.9821 H   0  0  0  0  0  0  0  0  0  0  0  0
   60.4276   27.3867   44.8885 H   0  0  0  0  0  0  0  0  0  0  0  0
   61.3786   28.6151   46.8384 H   0  0  0  0  0  0  0  0  0  0  0  0
   61.3046   30.4079   48.3276 H   0  0  0  0  0  0  0  0  0  0  0  0
   60.1784   31.7717   47.9924 H   0  0  0  0  0  0  0  0  0  0  0  0
   60.5505   28.5902   50.1402 H   0  0  0  0  0  0  0  0  0  0  0  0
   53.1623   28.7801   53.6335 H   0  0  0  0  0  0  0  0  0  0  0  0
   54.1250   30.2830   53.8937 H   0  0  0  0  0  0  0  0  0  0  0  0
   53.3950   28.9711   50.5075 H   0  0  0  0  0  0  0  0  0  0  0  0
   52.0030   30.2035   48.8457 H   0  0  0  0  0  0  0  0  0  0  0  0
   52.2087   31.7866   53.5811 H   0  0  0  0  0  0  0  0  0  0  0  0
   57.8437   31.1121   46.9871 H   0  0  0  0  0  0  0  0  0  0  0  0
  1  2  1  0
  2  3  2  0
  2  4  1  0
  4  5  2  0
  5  6  1  0
  6  7  2  0
  7  8  1  0
  8  9  1  0
  9 10  1  0
 10 11  2  0
 11 12  1  0
 12 13  1  0
 13 14  2  3
 14 15  1  0
 15 16  2  0
 15 17  1  0
 17 18  1  0
 18 19  1  0
 19 20  2  0
 20 21  1  0
 21 22  2  0
 22 23  1  0
 22 24  1  0
 24 25  1  0
 24 26  2  0
 13 27  1  0
  8 28  2  0
 28  4  1  0
 27 10  1  0
 26 19  1  0
  1 29  1  0
  5 30  1  0
  6 31  1  0
  7 32  1  0
  9 33  1  0
  9 34  1  0
 11 35  1  0
 18 36  1  0
 18 37  1  0
 20 38  1  0
 21 39  1  0
 26 40  1  0
 28 41  1  0
M  CHG  5   1  -1  12  -1  17  -1  23  -1  25  -1
M  END
>  <UniqueID>  (35) 
32

>  <SMILES>  (35) 
[NH-]C(=O)c1cccc(Cc2c[n-]c(=NC(=O)[N-]Cc3ccc([O-])c([O-])c3)s2)c1

>  <Energy>  (35) 
70.79424168065252

>  <Genealogy>  (35) 
[NH-]C(=O)c1cccc(Cc2c[n-]c(=NC(=O)[N-]Cc3ccc([O-])c([O-])c3)s2)c1 (protonated)
[NH-]C(=O)c1cccc(Cc2c[n-]c(=NC(=O)[N-]Cc3ccc([O-])c([O-])c3)s2)c1 (3D coordinates assigned)
[NH-]C(=O)c1cccc(Cc2c[n-]c(=NC(=O)[N-]Cc3ccc([O-])c([O-])c3)s2)c1 (optimized conformer: 70.79424168065252 kcal/mol)

>  <smiles>  (35) 
NC(=O)c1cccc(Cc2c[nH]c(=NC(=O)NCc3ccc(O)c(O)c3)s2)c1

>  <score_type>  (35) 
oracle

>  <origin>  (35) 
adg

>  <m_score__min__energy>  (35) 
-22.359999999999999

>  <m_primary>  (35) 
energy

$$$$
35:0
     RDKit          3D

 48 50  0  0  1  0  0  0  0  0999 V2000
   57.7990   27.8120   43.5000 C   0  0  0  0  0  0  0  0  0  0  0  0
   57.0100   29.3870   43.6360 S   0  0  0  0  0  0  0  0  0  0  0  0
   56.2120   29.6830   42.3960 O   0  0  0  0  0  0  0  0  0  0  0  0
   56.1050   29.4170   44.8310 O   0  0  0  0  0  0  0  0  0  0  0  0
   58.1760   30.6730   43.8410 N   0  0  0  0  0  0  0  0  0  0  0  0
   57.4060   31.9010   43.8690 C   0  0  0  0  0  0  0  0  0  0  0  0
   58.2120   33.0790   44.3660 C   0  0  0  0  0  0  0  0  0  0  0  0
   58.3330   32.9830   45.8500 C   0  0  0  0  0  0  0  0  0  0  0  0
   57.7750   31.7310   46.3670 N   0  0  0  0  0  0  0  0  0  0  0  0
   58.5120   30.8510   46.9460 C   0  0  0  0  0  0  0  0  0  0  0  0
   59.5260   31.2220   47.8160 C   0  0  0  0  0  0  0  0  0  0  0  0
   60.3170   30.2770   48.4380 C   0  0  0  0  0  0  0  0  0  0  0  0
   60.0860   28.9740   48.1840 N   0  0  0  0  0  0  0  0  0  0  0  0
   60.7120   27.9090   48.6610 N   0  0  0  0  0  0  0  0  0  0  0  0
   60.1550   26.8020   48.1420 C   0  0  0  0  0  0  0  0  0  0  0  0
   59.1310   27.2120   47.2990 C   0  0  0  0  0  0  0  0  0  0  0  0
   58.2760   26.3230   46.5400 C   0  0  0  0  0  0  0  0  0  0  0  0
   56.9350   26.4940   46.3830 C   0  0  0  0  0  0  0  0  0  0  0  0
   56.2000   25.5760   45.6270 C   0  0  0  0  0  0  0  0  0  0  0  0
   56.7800   24.4940   45.0310 C   0  0  0  0  0  0  0  0  0  0  0  0
   55.9060   23.3220   44.0810 S   0  0  0  0  0  0  0  0  0  0  0  0
   56.6030   23.1640   42.5180 N   0  0  0  0  0  0  0  0  0  0  0  0
   54.4970   23.8470   43.9490 O   0  0  0  0  0  0  0  0  0  0  0  0
   55.9340   21.9700   44.7350 O   0  0  0  0  0  0  0  0  0  0  0  0
   58.1420   24.3230   45.1940 C   0  0  0  0  0  0  0  0  0  0  0  0
   58.8920   25.2200   45.9360 C   0  0  0  0  0  0  0  0  0  0  0  0
   59.1030   28.5920   47.3400 C   0  0  0  0  0  0  0  0  0  0  0  0
   58.3240   29.5170   46.7270 N   0  0  0  0  0  0  0  0  0  0  0  0
   57.9985   27.4138   44.5058 H   0  0  0  0  0  0  0  0  0  0  0  0
   57.1418   27.1186   42.9548 H   0  0  0  0  0  0  0  0  0  0  0  0
   58.7479   27.9231   42.9548 H   0  0  0  0  0  0  0  0  0  0  0  0
   58.5810   30.4900   44.8010 H   0  0  0  0  0  0  0  0  0  0  0  0
   57.0535   32.1195   42.8502 H   0  0  0  0  0  0  0  0  0  0  0  0
   56.5668   31.7532   44.5646 H   0  0  0  0  0  0  0  0  0  0  0  0
   59.2133   33.0610   43.9109 H   0  0  0  0  0  0  0  0  0  0  0  0
   57.7114   34.0190   44.0905 H   0  0  0  0  0  0  0  0  0  0  0  0
   59.3970   33.0372   46.1237 H   0  0  0  0  0  0  0  0  0  0  0  0
   57.7654   33.8154   46.2914 H   0  0  0  0  0  0  0  0  0  0  0  0
   59.7034   32.2893   48.0142 H   0  0  0  0  0  0  0  0  0  0  0  0
   61.1191   30.5813   49.1266 H   0  0  0  0  0  0  0  0  0  0  0  0
   61.5190   27.8680   49.3390 H   0  0  0  0  0  0  0  0  0  0  0  0
   60.4547   25.7636   48.3470 H   0  0  0  0  0  0  0  0  0  0  0  0
   56.4305   27.3527   46.8500 H   0  0  0  0  0  0  0  0  0  0  0  0
   55.1175   25.7311   45.5086 H   0  0  0  0  0  0  0  0  0  0  0  0
   56.0680   22.5460   41.8720 H   0  0  0  0  0  0  0  0  0  0  0  0
   56.7350   24.1110   42.0960 H   0  0  0  0  0  0  0  0  0  0  0  0
   58.6384   23.4599   44.7264 H   0  0  0  0  0  0  0  0  0  0  0  0
   59.9750   25.0656   46.0513 H   0  0  0  0  0  0  0  0  0  0  0  0
  1  2  1  0
  2  3  2  0
  2  4  2  0
  2  5  1  0
  5  6  1  0
  6  7  1  0
  7  8  1  0
  8  9  1  0
  9 10  2  0
 10 11  1  0
 11 12  2  0
 12 13  1  0
 13 14  1  0
 14 15  1  0
 15 16  2  0
 16 17  1  0
 17 18  2  0
 18 19  1  0
 19 20  2  0
 20 21  1  0
 21 22  1  0
 21 23  2  0
 21 24  2  0
 20 25  1  0
 25 26  2  0
 16 27  1  0
 27 28  2  0
 28 10  1  0
 27 13  1  0
 26 17  1  0
  1 29  1  0
  1 30  1  0
  1 31  1  0
  5 32  1  0
  6 33  1  0
  6 34  1  0
  7 35  1  0
  7 36  1  0
  8 37  1  0
  8 38  1  0
 11 39  1  0
 12 40  1  0
 14 41  1  0
 15 42  1  0
 18 43  1  0
 19 44  1  0
 22 45  1  0
 22 46  1  0
 25 47  1  0
 26 48  1  0
M  END
>  <smiles>  (36) 
CS(=O)(=O)NCCCN=c1ccn2[nH]cc(-c3ccc(S(N)(=O)=O)cc3)c2n1

>  <score_type>  (36) 
oracle

>  <origin>  (36) 
adg

>  <m_score__min__energy>  (36) 
-9.4299999999999997

>  <m_primary>  (36) 
energy

$$$$
36:0
     RDKit          3D

 17 17  0  0  0  0  0  0  0  0999 V2000
   55.4340   26.7540   45.9940 N   0  0  0  0  0  0  0  0  0  0  0  0
   56.8010   27.1650   45.9520 C   0  0  0  0  0  0  0  0  0  0  0  0
   58.0750   26.2430   46.5300 S   0  0  0  0  0  0  0  0  0  0  0  0
   59.2750   27.3920   46.2430 C   0  0  0  0  0  0  0  0  0  0  0  0
   60.7050   27.1430   46.4900 C   0  0  0  0  0  0  0  0  0  0  0  0
   61.1870   25.9940   46.3070 O   0  0  0  0  0  0  0  0  0  0  0  0
   58.6820   28.5400   45.6850 C   0  0  0  0  0  0  0  0  0  0  0  0
   59.4150   29.7500   45.2600 C   0  0  0  0  0  0  0  0  0  0  0  0
   59.6190   30.7090   46.0490 O   0  0  0  0  0  0  0  0  0  0  0  0
   57.2810   28.4010   45.5230 C   0  0  0  0  0  0  0  0  0  0  0  0
   56.4330   29.4290   44.9910 N   0  0  0  0  0  0  0  0  0  0  0  0
   56.8360   30.6070   44.9170 O   0  0  0  0  0  0  0  0  0  0  0  0
   55.1560   29.1290   44.5770 O   0  0  0  0  0  0  0  0  0  0  0  0
   55.0880   26.0820   46.7120 H   0  0  0  0  0  0  0  0  0  0  0  0
   54.7690   27.0840   45.2600 H   0  0  0  0  0  0  0  0  0  0  0  0
   61.3534   27.9619   46.8349 H   0  0  0  0  0  0  0  0  0  0  0  0
   59.7918   29.8144   44.2286 H   0  0  0  0  0  0  0  0  0  0  0  0
  1  2  1  0
  2  3  1  0
  3  4  1  0
  4  5  1  0
  5  6  2  0
  4  7  2  0
  7  8  1  0
  8  9  2  0
  7 10  1  0
 10 11  1  0
 11 12  2  0
 11 13  1  0
 10  2  2  0
  1 14  1  0
  1 15  1  0
  5 16  1  0
  8 17  1  0
M  CHG  2  11   1  13  -1
M  END
>  <UniqueID>  (37) 
33

>  <SMILES>  (37) 
Nc1sc(C=O)c(C=O)c1[N+](=O)[O-]

>  <Energy>  (37) 
48.858836385236984

>  <Genealogy>  (37) 
Nc1sc(C=O)c(C=O)c1[N+](=O)[O-] (3D coordinates assigned)
Nc1sc(C=O)c(C=O)c1[N+](=O)[O-] (optimized conformer: 48.858836385236984 kcal/mol)

>  <smiles>  (37) 
Nc1sc(C=O)c(C=O)c1[N+](=O)[O-]

>  <score_type>  (37) 
oracle

>  <origin>  (37) 
adg

>  <m_score__min__energy>  (37) 
-5.2999999999999998

>  <m_primary>  (37) 
energy

$$$$
37:0
     RDKit          3D

 43 45  0  0  0  0  0  0  0  0999 V2000
   55.4760   20.6160   45.2140 C   0  0  0  0  0  0  0  0  0  0  0  0
   55.8310   21.8820   44.6640 O   0  0  0  0  0  0  0  0  0  0  0  0
   57.0130   22.5820   44.9580 C   0  0  0  0  0  0  0  0  0  0  0  0
   58.1930   21.9610   45.1370 C   0  0  0  0  0  0  0  0  0  0  0  0
   59.4060   22.7380   45.4420 C   0  0  0  0  0  0  0  0  0  0  0  0
   60.5080   22.1500   45.5950 O   0  0  0  0  0  0  0  0  0  0  0  0
   59.3260   24.2030   45.5760 C   0  0  0  0  0  0  0  0  0  0  0  0
   58.1560   24.8450   45.4140 C   0  0  0  0  0  0  0  0  0  0  0  0
   58.0900   26.3180   45.5770 C   0  0  0  0  0  0  0  0  0  0  0  0
   58.9650   27.1080   46.2950 C   0  0  0  0  0  0  0  0  0  0  0  0
   58.5420   28.3870   46.2340 N   0  0  0  0  0  0  0  0  0  0  0  0
   59.1450   29.4820   47.0040 C   0  0  0  0  0  0  0  0  0  0  0  0
   59.8360   30.4960   46.0810 C   0  0  0  0  0  0  0  0  0  0  0  0
   59.5160   31.9170   46.4670 C   0  0  0  0  0  0  0  0  0  0  0  0
   58.9020   32.7790   45.5420 C   0  0  0  0  0  0  0  0  0  0  0  0
   58.5620   34.0830   45.9160 C   0  0  0  0  0  0  0  0  0  0  0  0
   58.8300   34.5340   47.2110 C   0  0  0  0  0  0  0  0  0  0  0  0
   59.4390   33.6820   48.1360 C   0  0  0  0  0  0  0  0  0  0  0  0
   59.7810   32.3770   47.7670 C   0  0  0  0  0  0  0  0  0  0  0  0
   57.4040   28.3560   45.4900 C   0  0  0  0  0  0  0  0  0  0  0  0
   56.5200   29.5020   45.1770 C   0  0  0  0  0  0  0  0  0  0  0  0
   55.1420   29.3220   44.8690 N   0  0  0  0  0  0  0  0  0  0  0  0
   56.9890   30.6710   45.2190 O   0  0  0  0  0  0  0  0  0  0  0  0
   57.1140   27.1020   45.0810 N   0  0  0  0  0  0  0  0  0  0  0  0
   56.9420   24.0560   45.0680 C   0  0  0  0  0  0  0  0  0  0  0  0
   55.8490   24.6370   44.8320 O   0  0  0  0  0  0  0  0  0  0  0  0
   55.4927   20.6757   46.3123 H   0  0  0  0  0  0  0  0  0  0  0  0
   54.4659   20.3401   44.8771 H   0  0  0  0  0  0  0  0  0  0  0  0
   56.1954   19.8551   44.8771 H   0  0  0  0  0  0  0  0  0  0  0  0
   58.2520   20.8657   45.0550 H   0  0  0  0  0  0  0  0  0  0  0  0
   60.2338   24.7780   45.8112 H   0  0  0  0  0  0  0  0  0  0  0  0
   59.8591   26.7531   46.8285 H   0  0  0  0  0  0  0  0  0  0  0  0
   58.3572   29.9953   47.5748 H   0  0  0  0  0  0  0  0  0  0  0  0
   59.9004   29.0565   47.6810 H   0  0  0  0  0  0  0  0  0  0  0  0
   60.9243   30.3477   46.1413 H   0  0  0  0  0  0  0  0  0  0  0  0
   59.4691   30.3302   45.0574 H   0  0  0  0  0  0  0  0  0  0  0  0
   58.6885   32.4272   44.5219 H   0  0  0  0  0  0  0  0  0  0  0  0
   58.0825   34.7551   45.1891 H   0  0  0  0  0  0  0  0  0  0  0  0
   58.5615   35.5601   47.5024 H   0  0  0  0  0  0  0  0  0  0  0  0
   59.6496   34.0379   49.1553 H   0  0  0  0  0  0  0  0  0  0  0  0
   60.2594   31.7085   48.4979 H   0  0  0  0  0  0  0  0  0  0  0  0
   54.4170   29.3410   45.6200 H   0  0  0  0  0  0  0  0  0  0  0  0
   56.2750   26.8030   44.5350 H   0  0  0  0  0  0  0  0  0  0  0  0
  1  2  1  0
  2  3  1  0
  3  4  2  0
  4  5  1  0
  5  6  2  0
  5  7  1  0
  7  8  2  0
  8  9  1  0
  9 10  2  0
 10 11  1  0
 11 12  1  0
 12 13  1  0
 13 14  1  0
 14 15  2  0
 15 16  1  0
 16 17  2  0
 17 18  1  0
 18 19  2  0
 11 20  1  0
 20 21  1  0
 21 22  1  0
 21 23  2  0
 20 24  2  0
  8 25  1  0
 25 26  2  0
 25  3  1  0
 24  9  1  0
 19 14  1  0
  1 27  1  0
  1 28  1  0
  1 29  1  0
  4 30  1  0
  7 31  1  0
 10 32  1  0
 12 33  1  0
 12 34  1  0
 13 35  1  0
 13 36  1  0
 15 37  1  0
 16 38  1  0
 17 39  1  0
 18 40  1  0
 19 41  1  0
 22 42  1  0
 24 43  1  0
M  CHG  2  22  -1  24   1
M  END
>  <UniqueID>  (38) 
34

>  <SMILES>  (38) 
COC1=CC(=O)C=C(c2cn(CCc3ccccc3)c(C([NH-])=O)[nH+]2)C1=O

>  <Energy>  (38) 
74.88849306984994

>  <Genealogy>  (38) 
COC1=CC(=O)C=C(c2cn(CCc3ccccc3)c(C([NH-])=O)[nH+]2)C1=O (protonated)
COC1=CC(=O)C=C(c2cn(CCc3ccccc3)c(C([NH-])=O)[nH+]2)C1=O (3D coordinates assigned)
COC1=CC(=O)C=C(c2cn(CCc3ccccc3)c(C([NH-])=O)[nH+]2)C1=O (nonaromatic ring conformer: 74.88849306984994 kcal/mol)

>  <smiles>  (38) 
COC1=CC(=O)C=C(c2cn(CCc3ccccc3)c(C(N)=O)n2)C1=O

>  <score_type>  (38) 
oracle

>  <origin>  (38) 
adg

>  <m_score__min__energy>  (38) 
-9.6099999999999994

>  <m_primary>  (38) 
energy

$$$$
38:0
     RDKit          3D

 49 52  0  0  0  0  0  0  0  0999 V2000
   59.7300   34.6690   46.6150 O   0  0  0  0  0  0  0  0  0  0  0  0
   59.8930   34.0060   47.9540 S   0  0  0  0  0  0  0  0  0  0  0  0
   59.3990   34.9470   49.0170 O   0  0  0  0  0  0  0  0  0  0  0  0
   58.9540   32.5240   47.9860 C   0  0  0  0  0  0  0  0  0  0  0  0
   58.4790   32.0380   49.1330 C   0  0  0  0  0  0  0  0  0  0  0  0
   59.2110   32.2060   50.4020 C   0  0  0  0  0  0  0  0  0  0  0  0
   58.7690   33.2060   51.2820 C   0  0  0  0  0  0  0  0  0  0  0  0
   59.4390   33.4400   52.4840 C   0  0  0  0  0  0  0  0  0  0  0  0
   60.5540   32.6720   52.8220 C   0  0  0  0  0  0  0  0  0  0  0  0
   60.9900   31.6550   51.9710 C   0  0  0  0  0  0  0  0  0  0  0  0
   60.3210   31.3990   50.7630 C   0  0  0  0  0  0  0  0  0  0  0  0
   60.8380   30.0210   49.7790 S   0  0  0  0  0  0  0  0  0  0  0  0
   61.8750   29.2160   50.5100 O   0  0  0  0  0  0  0  0  0  0  0  0
   61.4350   30.5300   48.4970 O   0  0  0  0  0  0  0  0  0  0  0  0
   59.4660   28.9980   49.4780 N   0  0  0  0  0  0  0  0  0  0  0  0
   59.0470   28.6490   48.3020 C   0  0  0  0  0  0  0  0  0  0  0  0
   58.6080   29.5130   47.3640 N   0  0  0  0  0  0  0  0  0  0  0  0
   58.2130   28.8720   46.2290 C   0  0  0  0  0  0  0  0  0  0  0  0
   57.6640   29.6090   45.0630 C   0  0  0  0  0  0  0  0  0  0  0  0
   58.4590   30.5530   44.3820 C   0  0  0  0  0  0  0  0  0  0  0  0
   57.9490   31.2540   43.2860 C   0  0  0  0  0  0  0  0  0  0  0  0
   56.6430   31.0250   42.8540 C   0  0  0  0  0  0  0  0  0  0  0  0
   55.8410   30.0950   43.5190 C   0  0  0  0  0  0  0  0  0  0  0  0
   56.3410   29.3870   44.6170 C   0  0  0  0  0  0  0  0  0  0  0  0
   55.5190   28.4540   45.2410 O   0  0  0  0  0  0  0  0  0  0  0  0
   58.3490   27.4800   46.2760 C   0  0  0  0  0  0  0  0  0  0  0  0
   58.9700   27.0580   47.7800 S   0  0  0  0  0  0  0  0  0  0  0  0
   61.5950   33.6330   48.2090 C   0  0  0  0  0  0  0  0  0  0  0  0
   62.3710   33.1100   47.1640 C   0  0  0  0  0  0  0  0  0  0  0  0
   63.7270   32.8350   47.3660 C   0  0  0  0  0  0  0  0  0  0  0  0
   64.3140   33.0840   48.6110 C   0  0  0  0  0  0  0  0  0  0  0  0
   63.5450   33.6100   49.6540 C   0  0  0  0  0  0  0  0  0  0  0  0
   62.1880   33.8870   49.4540 C   0  0  0  0  0  0  0  0  0  0  0  0
   58.7544   31.9883   47.0462 H   0  0  0  0  0  0  0  0  0  0  0  0
   57.5197   31.4997   49.1327 H   0  0  0  0  0  0  0  0  0  0  0  0
   57.8873   33.8103   51.0224 H   0  0  0  0  0  0  0  0  0  0  0  0
   59.0881   34.2297   53.1647 H   0  0  0  0  0  0  0  0  0  0  0  0
   61.0909   32.8686   53.7617 H   0  0  0  0  0  0  0  0  0  0  0  0
   61.8649   31.0490   52.2489 H   0  0  0  0  0  0  0  0  0  0  0  0
   59.4902   30.7396   44.7163 H   0  0  0  0  0  0  0  0  0  0  0  0
   58.5792   31.9882   42.7628 H   0  0  0  0  0  0  0  0  0  0  0  0
   56.2447   31.5767   41.9897 H   0  0  0  0  0  0  0  0  0  0  0  0
   54.8104   29.9182   43.1775 H   0  0  0  0  0  0  0  0  0  0  0  0
   58.0930   26.7808   45.4663 H   0  0  0  0  0  0  0  0  0  0  0  0
   61.9118   32.9158   46.1835 H   0  0  0  0  0  0  0  0  0  0  0  0
   64.3325   32.4226   46.5454 H   0  0  0  0  0  0  0  0  0  0  0  0
   65.3805   32.8661   48.7697 H   0  0  0  0  0  0  0  0  0  0  0  0
   64.0074   33.8062   50.6326 H   0  0  0  0  0  0  0  0  0  0  0  0
   61.5858   34.3045   50.2744 H   0  0  0  0  0  0  0  0  0  0  0  0
  1  2  2  0
  2  3  2  0
  2  4  1  0
  4  5  2  3
  5  6  1  0
  6  7  2  0
  7  8  1  0
  8  9  2  0
  9 10  1  0
 10 11  2  0
 11 12  1  0
 12 13  2  0
 12 14  2  0
 12 15  1  0
 15 16  2  3
 16 17  1  0
 17 18  1  0
 18 19  1  0
 19 20  2  0
 20 21  1  0
 21 22  2  0
 22 23  1  0
 23 24  2  0
 24 25  1  0
 18 26  2  0
 26 27  1  0
  2 28  1  0
 28 29  2  0
 29 30  1  0
 30 31  2  0
 31 32  1  0
 32 33  2  0
 11  6  1  0
 27 16  1  0
 33 28  1  0
 24 19  1  0
  4 34  1  0
  5 35  1  0
  7 36  1  0
  8 37  1  0
  9 38  1  0
 10 39  1  0
 20 40  1  0
 21 41  1  0
 22 42  1  0
 23 43  1  0
 26 44  1  0
 29 45  1  0
 30 46  1  0
 31 47  1  0
 32 48  1  0
 33 49  1  0
M  CHG  2  17  -1  25  -1
M  END
>  <UniqueID>  (39) 
35

>  <SMILES>  (39) 
O=S(=O)(C=Cc1ccccc1S(=O)(=O)N=c1[n-]c(-c2ccccc2[O-])cs1)c1ccccc1

>  <Energy>  (39) 
97.68335337293448

>  <Genealogy>  (39) 
O=S(=O)(C=Cc1ccccc1S(=O)(=O)N=c1[n-]c(-c2ccccc2[O-])cs1)c1ccccc1 (protonated)
O=S(=O)(C=Cc1ccccc1S(=O)(=O)N=c1[n-]c(-c2ccccc2[O-])cs1)c1ccccc1 (3D coordinates assigned)
O=S(=O)(C=Cc1ccccc1S(=O)(=O)N=c1[n-]c(-c2ccccc2[O-])cs1)c1ccccc1 (optimized conformer: 97.68335337293448 kcal/mol)

>  <smiles>  (39) 
O=S(=O)(C=Cc1ccccc1S(=O)(=O)N=c1[nH]c(-c2ccccc2O)cs1)c1ccccc1

>  <score_type>  (39) 
oracle

>  <origin>  (39) 
adg

>  <m_score__min__energy>  (39) 
-15.800000000000001

>  <m_primary>  (39) 
energy

$$$$
39:0
     RDKit          3D

 60 63  0  0  0  0  0  0  0  0999 V2000
   59.6590   29.2460   48.6230 C   0  0  0  0  0  0  0  0  0  0  0  0
   58.7060   29.3510   47.5700 O   0  0  0  0  0  0  0  0  0  0  0  0
   58.5370   28.3990   46.5520 C   0  0  0  0  0  0  0  0  0  0  0  0
   58.1700   27.0670   46.8260 C   0  0  0  0  0  0  0  0  0  0  0  0
   57.9970   26.1420   45.7820 C   0  0  0  0  0  0  0  0  0  0  0  0
   57.6390   24.7370   46.0750 C   0  0  0  0  0  0  0  0  0  0  0  0
   58.0580   24.2030   47.1380 O   0  0  0  0  0  0  0  0  0  0  0  0
   56.8260   23.9700   45.1690 N   0  0  0  0  0  0  0  0  0  0  0  0
   55.8060   23.0530   45.6860 C   0  0  0  0  0  0  0  0  0  0  0  0
   56.0030   21.6760   45.0450 C   0  0  0  0  0  0  0  0  0  0  0  0
   55.9570   21.7180   43.5590 N   0  0  0  0  0  0  0  0  0  0  0  0
   56.8740   20.7240   42.9740 C   0  0  0  0  0  0  0  0  0  0  0  0
   56.1630   23.0630   42.9620 C   0  0  0  0  0  0  0  0  0  0  0  0
   57.1740   23.9200   43.7430 C   0  0  0  0  0  0  0  0  0  0  0  0
   58.1980   26.5560   44.4580 C   0  0  0  0  0  0  0  0  0  0  0  0
   58.5510   27.8760   44.1780 C   0  0  0  0  0  0  0  0  0  0  0  0
   58.7550   28.7920   45.2230 C   0  0  0  0  0  0  0  0  0  0  0  0
   59.0920   30.1570   44.9360 N   0  0  0  0  0  0  0  0  0  0  0  0
   58.5430   31.2720   45.3550 C   0  0  0  0  0  0  0  0  0  0  0  0
   57.1840   31.5010   45.0120 C   0  0  0  0  0  0  0  0  0  0  0  0
   56.3350   30.4490   44.3820 C   0  0  0  0  0  0  0  0  0  0  0  0
   55.6350   29.5050   45.1920 N   0  0  0  0  0  0  0  0  0  0  0  0
   56.2370   30.3660   43.1280 O   0  0  0  0  0  0  0  0  0  0  0  0
   56.6400   32.7810   45.2020 C   0  0  0  0  0  0  0  0  0  0  0  0
   57.3810   33.7750   45.7470 N   0  0  0  0  0  0  0  0  0  0  0  0
   58.6470   33.5720   46.1850 C   0  0  0  0  0  0  0  0  0  0  0  0
   59.3290   34.6270   46.8010 C   0  0  0  0  0  0  0  0  0  0  0  0
   60.5870   34.4180   47.3640 C   0  0  0  0  0  0  0  0  0  0  0  0
   61.1550   33.1420   47.3530 C   0  0  0  0  0  0  0  0  0  0  0  0
   62.7060   32.8430   48.1310 S   0  0  0  0  0  0  0  0  0  0  0  0
   62.5250   31.5410   49.3310 C   0  0  0  0  0  0  0  0  0  0  0  0
   63.7140   32.4380   47.0910 O   0  0  0  0  0  0  0  0  0  0  0  0
   63.1910   34.0900   48.8190 O   0  0  0  0  0  0  0  0  0  0  0  0
   60.4730   32.0820   46.7440 C   0  0  0  0  0  0  0  0  0  0  0  0
   59.2500   32.2940   46.0660 C   0  0  0  0  0  0  0  0  0  0  0  0
   59.1421   29.3029   49.5923 H   0  0  0  0  0  0  0  0  0  0  0  0
   60.1871   28.2842   48.5450 H   0  0  0  0  0  0  0  0  0  0  0  0
   60.3839   30.0697   48.5450 H   0  0  0  0  0  0  0  0  0  0  0  0
   58.0173   26.7475   47.8674 H   0  0  0  0  0  0  0  0  0  0  0  0
   55.9051   22.9690   46.7783 H   0  0  0  0  0  0  0  0  0  0  0  0
   54.8040   23.4363   45.4430 H   0  0  0  0  0  0  0  0  0  0  0  0
   56.9818   21.2812   45.3549 H   0  0  0  0  0  0  0  0  0  0  0  0
   55.1770   21.0330   45.3830 H   0  0  0  0  0  0  0  0  0  0  0  0
   57.3814   20.1740   43.7803 H   0  0  0  0  0  0  0  0  0  0  0  0
   56.3025   20.0190   42.3525 H   0  0  0  0  0  0  0  0  0  0  0  0
   57.6227   21.2370   42.3525 H   0  0  0  0  0  0  0  0  0  0  0  0
   56.5315   22.9370   41.9332 H   0  0  0  0  0  0  0  0  0  0  0  0
   55.1963   23.5870   42.9912 H   0  0  0  0  0  0  0  0  0  0  0  0
   58.1777   23.4838   43.6321 H   0  0  0  0  0  0  0  0  0  0  0  0
   57.1536   24.9432   43.3397 H   0  0  0  0  0  0  0  0  0  0  0  0
   58.0767   25.8359   43.6353 H   0  0  0  0  0  0  0  0  0  0  0  0
   58.6702   28.2011   43.1339 H   0  0  0  0  0  0  0  0  0  0  0  0
   54.6080   29.3570   45.0790 H   0  0  0  0  0  0  0  0  0  0  0  0
   55.5996   32.9790   44.9047 H   0  0  0  0  0  0  0  0  0  0  0  0
   58.8704   35.6260   46.8412 H   0  0  0  0  0  0  0  0  0  0  0  0
   61.1328   35.2586   47.8173 H   0  0  0  0  0  0  0  0  0  0  0  0
   62.5840   31.9653   50.3441 H   0  0  0  0  0  0  0  0  0  0  0  0
   61.5500   31.0502   49.1952 H   0  0  0  0  0  0  0  0  0  0  0  0
   63.3292   30.8028   49.1952 H   0  0  0  0  0  0  0  0  0  0  0  0
   60.8952   31.0675   46.7936 H   0  0  0  0  0  0  0  0  0  0  0  0
  1  2  1  0
  2  3  1  0
  3  4  2  0
  4  5  1  0
  5  6  1  0
  6  7  2  0
  6  8  1  0
  8  9  1  0
  9 10  1  0
 10 11  1  0
 11 12  1  0
 11 13  1  0
 13 14  1  0
  5 15  2  0
 15 16  1  0
 16 17  2  0
 17 18  1  0
 18 19  2  3
 19 20  1  0
 20 21  1  0
 21 22  1  0
 21 23  2  0
 20 24  2  0
 24 25  1  0
 25 26  1  0
 26 27  2  0
 27 28  1  0
 28 29  2  0
 29 30  1  0
 30 31  1  0
 30 32  2  0
 30 33  2  0
 29 34  1  0
 34 35  2  0
 17  3  1  0
 35 19  1  0
 14  8  1  0
 35 26  1  0
  1 36  1  0
  1 37  1  0
  1 38  1  0
  4 39  1  0
  9 40  1  0
  9 41  1  0
 10 42  1  0
 10 43  1  0
 12 44  1  0
 12 45  1  0
 12 46  1  0
 13 47  1  0
 13 48  1  0
 14 49  1  0
 14 50  1  0
 15 51  1  0
 16 52  1  0
 22 53  1  0
 24 54  1  0
 27 55  1  0
 28 56  1  0
 31 57  1  0
 31 58  1  0
 31 59  1  0
 34 60  1  0
M  CHG  2  22  -1  25  -1
M  END
>  <UniqueID>  (40) 
36

>  <SMILES>  (40) 
COc1cc(C(=O)N2CCN(C)CC2)ccc1N=c1c(C([NH-])=O)c[n-]c2ccc(S(C)(=O)=O)cc12

>  <Energy>  (40) 
98.57845137268815

>  <Genealogy>  (40) 
COc1cc(C(=O)N2CCN(C)CC2)ccc1N=c1c(C([NH-])=O)c[n-]c2ccc(S(C)(=O)=O)cc12 (protonated)
COc1cc(C(=O)N2CCN(C)CC2)ccc1N=c1c(C([NH-])=O)c[n-]c2ccc(S(C)(=O)=O)cc12 (3D coordinates assigned)
COc1cc(C(=O)N2CCN(C)CC2)ccc1N=c1c(C([NH-])=O)c[n-]c2ccc(S(C)(=O)=O)cc12 (nonaromatic ring conformer: 98.57845137268815 kcal/mol)

>  <smiles>  (40) 
COc1cc(C(=O)N2CCN(C)CC2)ccc1N=c1c(C(N)=O)c[nH]c2ccc(S(C)(=O)=O)cc12

>  <score_type>  (40) 
oracle

>  <origin>  (40) 
adg

>  <m_score__min__energy>  (40) 
-13.609999999999999

>  <m_primary>  (40) 
energy

$$$$
40:0
     RDKit          3D

 42 44  0  0  0  0  0  0  0  0999 V2000
   59.4270   31.4070   48.3440 C   0  0  0  0  0  0  0  0  0  0  0  0
   58.2100   32.3280   48.1770 C   0  0  0  0  0  0  0  0  0  0  0  0
   58.2500   33.1520   46.9570 N   0  0  0  0  0  0  0  0  0  0  0  0
   59.1170   34.3450   46.9160 C   0  0  0  0  0  0  0  0  0  0  0  0
   60.5410   34.0690   47.3320 C   0  0  0  0  0  0  0  0  0  0  0  0
   60.9330   34.2050   48.6740 C   0  0  0  0  0  0  0  0  0  0  0  0
   62.2560   33.9610   49.0520 C   0  0  0  0  0  0  0  0  0  0  0  0
   63.1940   33.5570   48.1000 C   0  0  0  0  0  0  0  0  0  0  0  0
   62.8060   33.3820   46.7700 C   0  0  0  0  0  0  0  0  0  0  0  0
   61.4830   33.6260   46.3880 C   0  0  0  0  0  0  0  0  0  0  0  0
   57.8480   32.3590   45.4490 S   0  0  0  0  0  0  0  0  0  0  0  0
   56.3920   32.5960   45.1600 O   0  0  0  0  0  0  0  0  0  0  0  0
   58.6400   32.9570   44.3190 O   0  0  0  0  0  0  0  0  0  0  0  0
   58.1210   30.6160   45.5020 C   0  0  0  0  0  0  0  0  0  0  0  0
   59.4180   30.0980   45.6180 C   0  0  0  0  0  0  0  0  0  0  0  0
   59.6230   28.7190   45.6850 C   0  0  0  0  0  0  0  0  0  0  0  0
   58.5340   27.8420   45.6250 C   0  0  0  0  0  0  0  0  0  0  0  0
   57.2260   28.3530   45.5310 C   0  0  0  0  0  0  0  0  0  0  0  0
   57.0300   29.7370   45.4420 C   0  0  0  0  0  0  0  0  0  0  0  0
   56.0950   27.4730   45.6220 N   0  0  0  0  0  0  0  0  0  0  0  0
   56.1960   26.1810   46.2350 C   0  0  0  0  0  0  0  0  0  0  0  0
   55.1700   25.4560   46.3400 O   0  0  0  0  0  0  0  0  0  0  0  0
   57.5020   25.7090   46.7970 C   0  0  0  0  0  0  0  0  0  0  0  0
   58.8240   26.0680   45.6020 S   0  0  0  0  0  0  0  0  0  0  0  0
   59.6277   31.2551   49.4148 H   0  0  0  0  0  0  0  0  0  0  0  0
   59.2206   30.4368   47.8684 H   0  0  0  0  0  0  0  0  0  0  0  0
   60.3046   31.8692   47.8684 H   0  0  0  0  0  0  0  0  0  0  0  0
   57.3048   31.7038   48.1442 H   0  0  0  0  0  0  0  0  0  0  0  0
   58.2135   33.0209   49.0313 H   0  0  0  0  0  0  0  0  0  0  0  0
   59.1241   34.7350   45.8875 H   0  0  0  0  0  0  0  0  0  0  0  0
   58.7048   35.0692   47.6340 H   0  0  0  0  0  0  0  0  0  0  0  0
   60.1943   34.5053   49.4317 H   0  0  0  0  0  0  0  0  0  0  0  0
   62.5591   34.0875   50.1018 H   0  0  0  0  0  0  0  0  0  0  0  0
   64.2376   33.3767   48.3973 H   0  0  0  0  0  0  0  0  0  0  0  0
   63.5418   33.0519   46.0220 H   0  0  0  0  0  0  0  0  0  0  0  0
   61.1780   33.4703   45.3427 H   0  0  0  0  0  0  0  0  0  0  0  0
   60.2789   30.7817   45.6564 H   0  0  0  0  0  0  0  0  0  0  0  0
   60.6433   28.3204   45.7852 H   0  0  0  0  0  0  0  0  0  0  0  0
   56.0123   30.1376   45.3241 H   0  0  0  0  0  0  0  0  0  0  0  0
   55.1490   27.8230   45.3440 H   0  0  0  0  0  0  0  0  0  0  0  0
   57.7074   26.2322   47.7426 H   0  0  0  0  0  0  0  0  0  0  0  0
   57.4558   24.6264   46.9864 H   0  0  0  0  0  0  0  0  0  0  0  0
  1  2  1  0
  2  3  1  0
  3  4  1  0
  4  5  1  0
  5  6  2  0
  6  7  1  0
  7  8  2  0
  8  9  1  0
  9 10  2  0
  3 11  1  0
 11 12  2  0
 11 13  2  0
 11 14  1  0
 14 15  2  0
 15 16  1  0
 16 17  2  0
 17 18  1  0
 18 19  2  0
 18 20  1  0
 20 21  1  0
 21 22  2  0
 21 23  1  0
 23 24  1  0
 10  5  1  0
 19 14  1  0
 24 17  1  0
  1 25  1  0
  1 26  1  0
  1 27  1  0
  2 28  1  0
  2 29  1  0
  4 30  1  0
  4 31  1  0
  6 32  1  0
  7 33  1  0
  8 34  1  0
  9 35  1  0
 10 36  1  0
 15 37  1  0
 16 38  1  0
 19 39  1  0
 20 40  1  0
 23 41  1  0
 23 42  1  0
M  END
>  <UniqueID>  (41) 
37

>  <SMILES>  (41) 
CCN(Cc1ccccc1)S(=O)(=O)c1ccc2c(c1)NC(=O)CS2

>  <Energy>  (41) 
57.8543576947372

>  <Genealogy>  (41) 
CCN(Cc1ccccc1)S(=O)(=O)c1ccc2c(c1)NC(=O)CS2 (3D coordinates assigned)
CCN(Cc1ccccc1)S(=O)(=O)c1ccc2c(c1)NC(=O)CS2 (nonaromatic ring conformer: 57.8543576947372 kcal/mol)

>  <smiles>  (41) 
CCN(Cc1ccccc1)S(=O)(=O)c1ccc2c(c1)NC(=O)CS2

>  <score_type>  (41) 
oracle

>  <origin>  (41) 
adg

>  <m_score__min__energy>  (41) 
-9

>  <m_primary>  (41) 
energy

$$$$
41:0
     RDKit          3D

 33 35  0  0  0  0  0  0  0  0999 V2000
   54.1370   26.7190   46.3670 H   0  0  0  0  0  0  0  0  0  0  0  0
   54.1650   25.9260   45.6870 N   0  0  0  0  0  0  0  0  0  0  0  0
   55.7040   25.1630   45.8690 S   0  0  0  0  0  0  0  0  0  0  0  0
   55.9060   24.1750   44.7530 O   0  0  0  0  0  0  0  0  0  0  0  0
   55.7480   24.4260   47.1770 O   0  0  0  0  0  0  0  0  0  0  0  0
   56.9740   26.3800   45.8260 C   0  0  0  0  0  0  0  0  0  0  0  0
   58.2960   26.0270   46.1230 C   0  0  0  0  0  0  0  0  0  0  0  0
   58.5404   24.9858   46.3802 H   0  0  0  0  0  0  0  0  0  0  0  0
   59.3060   26.9920   46.0940 C   0  0  0  0  0  0  0  0  0  0  0  0
   60.3435   26.7074   46.3234 H   0  0  0  0  0  0  0  0  0  0  0  0
   59.0010   28.3190   45.7740 C   0  0  0  0  0  0  0  0  0  0  0  0
   57.6630   28.6920   45.5290 C   0  0  0  0  0  0  0  0  0  0  0  0
   56.6600   27.7170   45.5370 C   0  0  0  0  0  0  0  0  0  0  0  0
   55.6202   27.9995   45.3157 H   0  0  0  0  0  0  0  0  0  0  0  0
   57.2950   30.0740   45.4000 N   0  0  0  0  0  0  0  0  0  0  0  0
   58.1220   31.1310   45.8960 C   0  0  0  0  0  0  0  0  0  0  0  0
   57.6790   32.3100   45.9300 O   0  0  0  0  0  0  0  0  0  0  0  0
   59.4660   30.8160   46.4040 C   0  0  0  0  0  0  0  0  0  0  0  0
   59.9470   31.4110   47.5070 C   0  0  0  0  0  0  0  0  0  0  0  0
   59.3525   31.3509   48.4306 H   0  0  0  0  0  0  0  0  0  0  0  0
   61.2300   32.1420   47.5500 C   0  0  0  0  0  0  0  0  0  0  0  0
   62.2800   31.6700   48.3590 C   0  0  0  0  0  0  0  0  0  0  0  0
   62.1282   30.7773   48.9835 H   0  0  0  0  0  0  0  0  0  0  0  0
   63.5130   32.3250   48.3760 C   0  0  0  0  0  0  0  0  0  0  0  0
   64.5160   31.8630   49.1620 F   0  0  0  0  0  0  0  0  0  0  0  0
   63.7170   33.4500   47.5730 C   0  0  0  0  0  0  0  0  0  0  0  0
   64.6880   33.9667   47.5874 H   0  0  0  0  0  0  0  0  0  0  0  0
   62.6890   33.9190   46.7520 C   0  0  0  0  0  0  0  0  0  0  0  0
   62.8571   34.8014   46.1171 H   0  0  0  0  0  0  0  0  0  0  0  0
   61.4470   33.2750   46.7310 C   0  0  0  0  0  0  0  0  0  0  0  0
   60.4470   33.7880   45.9030 O   0  0  0  0  0  0  0  0  0  0  0  0
   59.5680   33.3140   45.7420 H   0  0  0  0  0  0  0  0  0  0  0  0
   60.3360   29.5020   45.5450 S   0  0  0  0  0  0  0  0  0  0  0  0
  1  2  1  0
  2  3  1  0
  3  4  2  0
  3  5  2  0
  3  6  1  0
  6  7  2  0
  7  8  1  0
  7  9  1  0
  9 10  1  0
  9 11  2  0
 11 12  1  0
 12 13  2  0
 13 14  1  0
 12 15  1  0
 15 16  1  0
 16 17  2  0
 16 18  1  0
 18 19  2  0
 19 20  1  0
 19 21  1  0
 21 22  2  0
 22 23  1  0
 22 24  1  0
 24 25  1  0
 24 26  2  0
 26 27  1  0
 26 28  1  0
 28 29  1  0
 28 30  2  0
 30 31  1  0
 31 32  1  0
 18 33  1  0
 13  6  1  0
 30 21  1  0
 33 11  1  0
M  CHG  2   2  -1  15  -1
M  END
>  <UniqueID>  (42) 
38

>  <SMILES>  (42) 
[NH-]S(=O)(=O)c1ccc2c(c1)[N-]C(=O)/C(=C/c1cc(F)ccc1O)S2

>  <Energy>  (42) 
53.8176515433486

>  <Genealogy>  (42) 
[NH-]S(=O)(=O)c1ccc2c(c1)[N-]C(=O)C(=Cc1cc(F)ccc1O)S2 (protonated)
[NH-]S(=O)(=O)c1ccc2c(c1)[N-]C(=O)/C(=C/c1cc(F)ccc1O)S2 (cis-trans isomerization)
[NH-]S(=O)(=O)c1ccc2c(c1)[N-]C(=O)/C(=C/c1cc(F)ccc1O)S2 (3D coordinates assigned)
[NH-]S(=O)(=O)c1ccc2c(c1)[N-]C(=O)/C(=C/c1cc(F)ccc1O)S2 (nonaromatic ring conformer: 53.8176515433486 kcal/mol)

>  <smiles>  (42) 
NS(=O)(=O)c1ccc2c(c1)NC(=O)C(=Cc1cc(F)ccc1O)S2

>  <score_type>  (42) 
oracle

>  <origin>  (42) 
adg

>  <m_score__min__energy>  (42) 
-12.300000000000001

>  <m_primary>  (42) 
energy

$$$$
42:0
     RDKit          3D

 58 61  0  0  0  0  0  0  0  0999 V2000
   59.1210   27.9010   44.1890 O   0  0  0  0  0  0  0  0  0  0  0  0
   58.4490   28.5710   45.0190 C   0  0  0  0  0  0  0  0  0  0  0  0
   57.1770   28.0880   45.4670 N   0  0  0  0  0  0  0  0  0  0  0  0
   57.0160   27.0840   46.5120 C   0  0  0  0  0  0  0  0  0  0  0  0
   56.6550   25.7520   45.9040 C   0  0  0  0  0  0  0  0  0  0  0  0
   57.6670   24.8450   45.5590 C   0  0  0  0  0  0  0  0  0  0  0  0
   57.3450   23.6180   44.9800 C   0  0  0  0  0  0  0  0  0  0  0  0
   56.0130   23.2860   44.7340 C   0  0  0  0  0  0  0  0  0  0  0  0
   54.9760   24.1770   45.0630 C   0  0  0  0  0  0  0  0  0  0  0  0
   53.6070   23.8060   44.7900 N   0  0  0  0  0  0  0  0  0  0  0  0
   52.8090   23.5490   45.7140 O   0  0  0  0  0  0  0  0  0  0  0  0
   53.1560   23.7180   43.4930 O   0  0  0  0  0  0  0  0  0  0  0  0
   55.3080   25.4200   45.6530 C   0  0  0  0  0  0  0  0  0  0  0  0
   54.3120   26.3320   45.9900 O   0  0  0  0  0  0  0  0  0  0  0  0
   58.9560   29.8720   45.5090 C   0  0  0  0  0  0  0  0  0  0  0  0
   60.2670   30.0130   46.0160 C   0  0  0  0  0  0  0  0  0  0  0  0
   61.1270   28.9250   46.1790 O   0  0  0  0  0  0  0  0  0  0  0  0
   60.7160   31.2380   46.3880 N   0  0  0  0  0  0  0  0  0  0  0  0
   59.9510   32.3600   46.3210 C   0  0  0  0  0  0  0  0  0  0  0  0
   58.6210   32.2650   45.8740 C   0  0  0  0  0  0  0  0  0  0  0  0
   58.1340   31.0160   45.4420 C   0  0  0  0  0  0  0  0  0  0  0  0
   56.9650   30.9300   44.9760 O   0  0  0  0  0  0  0  0  0  0  0  0
   57.7620   33.5060   45.7690 C   0  0  0  0  0  0  0  0  0  0  0  0
   58.2310   34.5990   46.7300 C   0  0  0  0  0  0  0  0  0  0  0  0
   59.7240   34.8660   46.5430 C   0  0  0  0  0  0  0  0  0  0  0  0
   60.4980   33.6330   46.7380 N   0  0  0  0  0  0  0  0  0  0  0  0
   61.8870   33.7240   47.2040 C   0  0  0  0  0  0  0  0  0  0  0  0
   61.9280   33.8620   48.7340 C   0  0  0  0  0  0  0  0  0  0  0  0
   60.5610   33.5930   49.3800 C   0  0  0  0  0  0  0  0  0  0  0  0
   60.2780   32.1170   49.4950 C   0  0  0  0  0  0  0  0  0  0  0  0
   61.3350   31.1920   49.4890 C   0  0  0  0  0  0  0  0  0  0  0  0
   61.0730   29.8200   49.5600 C   0  0  0  0  0  0  0  0  0  0  0  0
   59.7550   29.3620   49.6370 C   0  0  0  0  0  0  0  0  0  0  0  0
   58.6970   30.2760   49.6410 C   0  0  0  0  0  0  0  0  0  0  0  0
   58.9550   31.6480   49.5690 C   0  0  0  0  0  0  0  0  0  0  0  0
   57.9592   26.9853   47.0693 H   0  0  0  0  0  0  0  0  0  0  0  0
   56.2097   27.3988   47.1908 H   0  0  0  0  0  0  0  0  0  0  0  0
   58.7200   25.1025   45.7460 H   0  0  0  0  0  0  0  0  0  0  0  0
   58.1442   22.9096   44.7164 H   0  0  0  0  0  0  0  0  0  0  0  0
   55.7706   22.3152   44.2770 H   0  0  0  0  0  0  0  0  0  0  0  0
   61.0150   28.0490   45.6860 H   0  0  0  0  0  0  0  0  0  0  0  0
   57.8138   33.8898   44.7394 H   0  0  0  0  0  0  0  0  0  0  0  0
   56.7302   33.2334   46.0356 H   0  0  0  0  0  0  0  0  0  0  0  0
   57.6694   35.5234   46.5299 H   0  0  0  0  0  0  0  0  0  0  0  0
   58.0541   34.2663   47.7635 H   0  0  0  0  0  0  0  0  0  0  0  0
   59.8987   35.2454   45.5254 H   0  0  0  0  0  0  0  0  0  0  0  0
   60.0473   35.6091   47.2869 H   0  0  0  0  0  0  0  0  0  0  0  0
   62.4298   32.8145   46.9070 H   0  0  0  0  0  0  0  0  0  0  0  0
   62.3589   34.6089   46.7520 H   0  0  0  0  0  0  0  0  0  0  0  0
   62.6566   33.1419   49.1348 H   0  0  0  0  0  0  0  0  0  0  0  0
   62.2145   34.8972   48.9711 H   0  0  0  0  0  0  0  0  0  0  0  0
   60.5488   34.0375   50.3861 H   0  0  0  0  0  0  0  0  0  0  0  0
   59.7861   34.0413   48.7408 H   0  0  0  0  0  0  0  0  0  0  0  0
   62.3739   31.5484   49.4282 H   0  0  0  0  0  0  0  0  0  0  0  0
   61.9052   29.1007   49.5552 H   0  0  0  0  0  0  0  0  0  0  0  0
   59.5500   28.2828   49.6944 H   0  0  0  0  0  0  0  0  0  0  0  0
   57.6597   29.9148   49.7009 H   0  0  0  0  0  0  0  0  0  0  0  0
   58.1194   32.3634   49.5703 H   0  0  0  0  0  0  0  0  0  0  0  0
  1  2  2  0
  2  3  1  0
  3  4  1  0
  4  5  1  0
  5  6  2  0
  6  7  1  0
  7  8  2  0
  8  9  1  0
  9 10  1  0
 10 11  2  0
 10 12  1  0
  9 13  2  0
 13 14  1  0
  2 15  1  0
 15 16  2  0
 16 17  1  0
 16 18  1  0
 18 19  1  0
 19 20  2  0
 20 21  1  0
 21 22  2  0
 20 23  1  0
 23 24  1  0
 24 25  1  0
 25 26  1  0
 26 27  1  0
 27 28  1  0
 28 29  1  0
 29 30  1  0
 30 31  2  0
 31 32  1  0
 32 33  2  0
 33 34  1  0
 34 35  2  0
 13  5  1  0
 21 15  1  0
 35 30  1  0
 26 19  1  0
  4 36  1  0
  4 37  1  0
  6 38  1  0
  7 39  1  0
  8 40  1  0
 17 41  1  0
 23 42  1  0
 23 43  1  0
 24 44  1  0
 24 45  1  0
 25 46  1  0
 25 47  1  0
 27 48  1  0
 27 49  1  0
 28 50  1  0
 28 51  1  0
 29 52  1  0
 29 53  1  0
 31 54  1  0
 32 55  1  0
 33 56  1  0
 34 57  1  0
 35 58  1  0
M  CHG  5   3  -1  10   1  12  -1  14  -1  18  -1
M  END
>  <UniqueID>  (43) 
39

>  <SMILES>  (43) 
O=C([N-]Cc1cccc([N+](=O)[O-])c1[O-])c1c(O)[n-]c2c(c1=O)CCCN2CCCc1ccccc1

>  <Energy>  (43) 
65.22569136893453

>  <Genealogy>  (43) 
O=C([N-]Cc1cccc([N+](=O)[O-])c1[O-])c1c(O)[n-]c2c(c1=O)CCCN2CCCc1ccccc1 (protonated)
O=C([N-]Cc1cccc([N+](=O)[O-])c1[O-])c1c(O)[n-]c2c(c1=O)CCCN2CCCc1ccccc1 (3D coordinates assigned)
O=C([N-]Cc1cccc([N+](=O)[O-])c1[O-])c1c(O)[n-]c2c(c1=O)CCCN2CCCc1ccccc1 (nonaromatic ring conformer: 65.22569136893453 kcal/mol)

>  <smiles>  (43) 
O=C(NCc1cccc([N+](=O)[O-])c1O)c1c(O)[nH]c2c(c1=O)CCCN2CCCc1ccccc1

>  <score_type>  (43) 
oracle

>  <origin>  (43) 
adg

>  <m_score__min__energy>  (43) 
-15.44

>  <m_primary>  (43) 
energy

$$$$
43:0
     RDKit          3D

 49 52  0  0  0  0  0  0  0  0999 V2000
   60.1390   30.5430   46.0330 O   0  0  0  0  0  0  0  0  0  0  0  0
   58.9180   30.3130   46.2510 C   0  0  0  0  0  0  0  0  0  0  0  0
   58.4780   29.9230   47.5610 N   0  0  0  0  0  0  0  0  0  0  0  0
   59.3840   29.8010   48.6650 C   0  0  0  0  0  0  0  0  0  0  0  0
   60.1930   28.6580   48.7400 C   0  0  0  0  0  0  0  0  0  0  0  0
   61.1340   28.5180   49.7600 C   0  0  0  0  0  0  0  0  0  0  0  0
   61.2730   29.5170   50.7210 C   0  0  0  0  0  0  0  0  0  0  0  0
   60.4590   30.6500   50.6790 C   0  0  0  0  0  0  0  0  0  0  0  0
   59.4910   30.8040   49.6670 C   0  0  0  0  0  0  0  0  0  0  0  0
   58.5700   31.9660   49.7300 C   0  0  0  0  0  0  0  0  0  0  0  0
   57.4470   31.8600   50.2940 O   0  0  0  0  0  0  0  0  0  0  0  0
   58.9560   33.2210   49.1560 N   0  0  0  0  0  0  0  0  0  0  0  0
   58.8990   33.5250   47.7560 C   0  0  0  0  0  0  0  0  0  0  0  0
   57.6520   33.5080   47.1200 C   0  0  0  0  0  0  0  0  0  0  0  0
   57.5420   33.8320   45.7660 C   0  0  0  0  0  0  0  0  0  0  0  0
   58.6820   34.1620   45.0320 C   0  0  0  0  0  0  0  0  0  0  0  0
   59.9370   34.1500   45.6440 C   0  0  0  0  0  0  0  0  0  0  0  0
   60.0630   33.8160   47.0020 C   0  0  0  0  0  0  0  0  0  0  0  0
   61.3720   33.7130   47.5860 N   0  0  0  0  0  0  0  0  0  0  0  0
   62.5120   33.3750   46.7260 C   0  0  0  0  0  0  0  0  0  0  0  0
   63.7740   33.1730   47.5660 C   0  0  0  0  0  0  0  0  0  0  0  0
   63.4320   32.5510   48.7850 O   0  0  0  0  0  0  0  0  0  0  0  0
   62.7750   33.4790   49.6320 C   0  0  0  0  0  0  0  0  0  0  0  0
   61.6040   34.2210   48.9430 C   0  0  0  0  0  0  0  0  0  0  0  0
   57.9470   30.4440   45.1550 C   0  0  0  0  0  0  0  0  0  0  0  0
   58.2100   30.9440   43.8940 C   0  0  0  0  0  0  0  0  0  0  0  0
   57.0130   30.8800   43.2130 C   0  0  0  0  0  0  0  0  0  0  0  0
   56.0970   30.3480   44.0980 C   0  0  0  0  0  0  0  0  0  0  0  0
   56.6830   30.0980   45.2460 O   0  0  0  0  0  0  0  0  0  0  0  0
   57.5200   29.5210   47.6670 H   0  0  0  0  0  0  0  0  0  0  0  0
   60.0844   27.8638   47.9868 H   0  0  0  0  0  0  0  0  0  0  0  0
   61.7662   27.6190   49.8056 H   0  0  0  0  0  0  0  0  0  0  0  0
   62.0267   29.4125   51.5154 H   0  0  0  0  0  0  0  0  0  0  0  0
   60.5745   31.4314   51.4446 H   0  0  0  0  0  0  0  0  0  0  0  0
   56.7517   33.2373   47.6912 H   0  0  0  0  0  0  0  0  0  0  0  0
   56.5562   33.8271   45.2779 H   0  0  0  0  0  0  0  0  0  0  0  0
   58.5918   34.4320   43.9695 H   0  0  0  0  0  0  0  0  0  0  0  0
   60.8329   34.4039   45.0584 H   0  0  0  0  0  0  0  0  0  0  0  0
   62.2896   32.4477   46.1777 H   0  0  0  0  0  0  0  0  0  0  0  0
   62.6826   34.2009   46.0198 H   0  0  0  0  0  0  0  0  0  0  0  0
   64.4829   32.5368   47.0158 H   0  0  0  0  0  0  0  0  0  0  0  0
   64.2393   34.1487   47.7697 H   0  0  0  0  0  0  0  0  0  0  0  0
   62.3790   32.9360   50.5029 H   0  0  0  0  0  0  0  0  0  0  0  0
   63.5172   34.2392   49.9170 H   0  0  0  0  0  0  0  0  0  0  0  0
   60.6905   34.0793   49.5391 H   0  0  0  0  0  0  0  0  0  0  0  0
   61.8635   35.2877   48.8734 H   0  0  0  0  0  0  0  0  0  0  0  0
   59.1729   31.3154   43.5132 H   0  0  0  0  0  0  0  0  0  0  0  0
   56.8258   31.1902   42.1744 H   0  0  0  0  0  0  0  0  0  0  0  0
   55.0361   30.1616   43.8751 H   0  0  0  0  0  0  0  0  0  0  0  0
  1  2  2  0
  2  3  1  0
  3  4  1  0
  4  5  2  0
  5  6  1  0
  6  7  2  0
  7  8  1  0
  8  9  2  0
  9 10  1  0
 10 11  2  0
 10 12  1  0
 12 13  1  0
 13 14  2  0
 14 15  1  0
 15 16  2  0
 16 17  1  0
 17 18  2  0
 18 19  1  0
 19 20  1  0
 20 21  1  0
 21 22  1  0
 22 23  1  0
 23 24  1  0
  2 25  1  0
 25 26  2  0
 26 27  1  0
 27 28  2  0
 28 29  1  0
  9  4  1  0
 18 13  1  0
 24 19  1  0
 29 25  1  0
  3 30  1  0
  5 31  1  0
  6 32  1  0
  7 33  1  0
  8 34  1  0
 14 35  1  0
 15 36  1  0
 16 37  1  0
 17 38  1  0
 20 39  1  0
 20 40  1  0
 21 41  1  0
 21 42  1  0
 23 43  1  0
 23 44  1  0
 24 45  1  0
 24 46  1  0
 26 47  1  0
 27 48  1  0
 28 49  1  0
M  CHG  1  12  -1
M  END
>  <UniqueID>  (44) 
40

>  <SMILES>  (44) 
O=C(Nc1ccccc1C(=O)[N-]c1ccccc1N1CCOCC1)c1ccco1

>  <Energy>  (44) 
100.811012540192

>  <Genealogy>  (44) 
O=C(Nc1ccccc1C(=O)[N-]c1ccccc1N1CCOCC1)c1ccco1 (protonated)
O=C(Nc1ccccc1C(=O)[N-]c1ccccc1N1CCOCC1)c1ccco1 (3D coordinates assigned)
O=C(Nc1ccccc1C(=O)[N-]c1ccccc1N1CCOCC1)c1ccco1 (nonaromatic ring conformer: 100.811012540192 kcal/mol)

>  <smiles>  (44) 
O=C(Nc1ccccc1C(=O)Nc1ccccc1N1CCOCC1)c1ccco1

>  <score_type>  (44) 
oracle

>  <origin>  (44) 
adg

>  <m_score__min__energy>  (44) 
-9.7799999999999994

>  <m_primary>  (44) 
energy

$$$$
44:0
     RDKit          3D

 50 53  0  0  0  0  0  0  0  0999 V2000
   60.7370   34.5030   48.3670 C   0  0  0  0  0  0  0  0  0  0  0  0
   59.9560   33.7660   47.3620 N   0  0  0  0  0  0  0  0  0  0  0  0
   58.5150   33.9550   47.5910 C   0  0  0  0  0  0  0  0  0  0  0  0
   57.7450   32.9430   46.7420 C   0  0  0  0  0  0  0  0  0  0  0  0
   58.3530   32.8030   45.4130 N   0  0  0  0  0  0  0  0  0  0  0  0
   57.7860   31.8610   44.4890 C   0  0  0  0  0  0  0  0  0  0  0  0
   57.5830   32.2330   43.1500 C   0  0  0  0  0  0  0  0  0  0  0  0
   57.0230   31.3290   42.2440 C   0  0  0  0  0  0  0  0  0  0  0  0
   56.6730   30.0450   42.6650 C   0  0  0  0  0  0  0  0  0  0  0  0
   56.8790   29.6630   43.9940 C   0  0  0  0  0  0  0  0  0  0  0  0
   57.4150   30.5730   44.9180 C   0  0  0  0  0  0  0  0  0  0  0  0
   57.6900   30.1660   46.2650 N   0  0  0  0  0  0  0  0  0  0  0  0
   58.4110   28.9910   46.6570 C   0  0  0  0  0  0  0  0  0  0  0  0
   58.6260   28.0990   45.7940 O   0  0  0  0  0  0  0  0  0  0  0  0
   59.0440   28.8660   48.0170 C   0  0  0  0  0  0  0  0  0  0  0  0
   60.1440   29.8190   48.1700 N   0  0  0  0  0  0  0  0  0  0  0  0
   60.6310   30.2960   49.3410 C   0  0  0  0  0  0  0  0  0  0  0  0
   61.6800   31.1510   49.0710 C   0  0  0  0  0  0  0  0  0  0  0  0
   62.4970   31.8820   49.9300 C   0  0  0  0  0  0  0  0  0  0  0  0
   63.5030   32.6820   49.3560 C   0  0  0  0  0  0  0  0  0  0  0  0
   63.6660   32.7350   47.9530 C   0  0  0  0  0  0  0  0  0  0  0  0
   62.8240   31.9860   47.1090 C   0  0  0  0  0  0  0  0  0  0  0  0
   61.8380   31.2010   47.7070 C   0  0  0  0  0  0  0  0  0  0  0  0
   60.8770   30.3690   47.1720 C   0  0  0  0  0  0  0  0  0  0  0  0
   60.6670   30.1180   45.8180 O   0  0  0  0  0  0  0  0  0  0  0  0
   59.2970   33.8140   44.9220 C   0  0  0  0  0  0  0  0  0  0  0  0
   60.3410   34.1930   45.9980 C   0  0  0  0  0  0  0  0  0  0  0  0
   60.4163   34.2004   49.3747 H   0  0  0  0  0  0  0  0  0  0  0  0
   61.8058   34.2767   48.2390 H   0  0  0  0  0  0  0  0  0  0  0  0
   60.5730   35.5831   48.2390 H   0  0  0  0  0  0  0  0  0  0  0  0
   58.2856   33.7957   48.6550 H   0  0  0  0  0  0  0  0  0  0  0  0
   58.2227   34.9777   47.3107 H   0  0  0  0  0  0  0  0  0  0  0  0
   57.7562   31.9662   47.2478 H   0  0  0  0  0  0  0  0  0  0  0  0
   56.7121   33.3009   46.6197 H   0  0  0  0  0  0  0  0  0  0  0  0
   57.8663   33.2411   42.8130 H   0  0  0  0  0  0  0  0  0  0  0  0
   56.8578   31.6291   41.1987 H   0  0  0  0  0  0  0  0  0  0  0  0
   56.2346   29.3329   41.9503 H   0  0  0  0  0  0  0  0  0  0  0  0
   56.6196   28.6440   44.3170 H   0  0  0  0  0  0  0  0  0  0  0  0
   58.2847   29.0655   48.7875 H   0  0  0  0  0  0  0  0  0  0  0  0
   59.4437   27.8470   48.1266 H   0  0  0  0  0  0  0  0  0  0  0  0
   60.2524   30.0432   50.3424 H   0  0  0  0  0  0  0  0  0  0  0  0
   62.3607   31.8357   51.0205 H   0  0  0  0  0  0  0  0  0  0  0  0
   64.1679   33.2709   50.0049 H   0  0  0  0  0  0  0  0  0  0  0  0
   64.4555   33.3653   47.5178 H   0  0  0  0  0  0  0  0  0  0  0  0
   62.9397   32.0187   46.0156 H   0  0  0  0  0  0  0  0  0  0  0  0
   59.7360   29.9620   45.4490 H   0  0  0  0  0  0  0  0  0  0  0  0
   59.8216   33.4141   44.0417 H   0  0  0  0  0  0  0  0  0  0  0  0
   58.7268   34.7186   44.6642 H   0  0  0  0  0  0  0  0  0  0  0  0
   61.2979   33.7159   45.7396 H   0  0  0  0  0  0  0  0  0  0  0  0
   60.4151   35.2905   46.0084 H   0  0  0  0  0  0  0  0  0  0  0  0
  1  2  1  0
  2  3  1  0
  3  4  1  0
  4  5  1  0
  5  6  1  0
  6  7  2  0
  7  8  1  0
  8  9  2  0
  9 10  1  0
 10 11  2  0
 11 12  1  0
 12 13  1  0
 13 14  2  0
 13 15  1  0
 15 16  1  0
 16 17  1  0
 17 18  2  0
 18 19  1  0
 19 20  2  0
 20 21  1  0
 21 22  2  0
 22 23  1  0
 23 24  2  0
 24 25  1  0
  5 26  1  0
 26 27  1  0
 27  2  1  0
 11  6  1  0
 24 16  1  0
 23 18  1  0
  1 28  1  0
  1 29  1  0
  1 30  1  0
  3 31  1  0
  3 32  1  0
  4 33  1  0
  4 34  1  0
  7 35  1  0
  8 36  1  0
  9 37  1  0
 10 38  1  0
 15 39  1  0
 15 40  1  0
 17 41  1  0
 19 42  1  0
 20 43  1  0
 21 44  1  0
 22 45  1  0
 25 46  1  0
 26 47  1  0
 26 48  1  0
 27 49  1  0
 27 50  1  0
M  CHG  1  12  -1
M  END
>  <UniqueID>  (45) 
41

>  <SMILES>  (45) 
CN1CCN(c2ccccc2[N-]C(=O)Cn2cc3ccccc3c2O)CC1

>  <Energy>  (45) 
101.53748989382642

>  <Genealogy>  (45) 
CN1CCN(c2ccccc2[N-]C(=O)Cn2cc3ccccc3c2O)CC1 (protonated)
CN1CCN(c2ccccc2[N-]C(=O)Cn2cc3ccccc3c2O)CC1 (3D coordinates assigned)
CN1CCN(c2ccccc2[N-]C(=O)Cn2cc3ccccc3c2O)CC1 (nonaromatic ring conformer: 101.53748989382642 kcal/mol)

>  <smiles>  (45) 
CN1CCN(c2ccccc2NC(=O)Cn2cc3ccccc3c2O)CC1

>  <score_type>  (45) 
oracle

>  <origin>  (45) 
adg

>  <m_score__min__energy>  (45) 
-10.470000000000001

>  <m_primary>  (45) 
energy

$$$$
45:0
     RDKit          3D

 32 33  0  0  0  0  0  0  0  0999 V2000
   59.0680   33.6699   43.5891 H   0  0  0  0  0  0  0  0  0  0  0  0
   58.7750   34.0700   44.5710 C   0  0  0  0  0  0  0  0  0  0  0  0
   57.1440   33.7220   45.2260 S   0  0  0  0  0  0  0  0  0  0  0  0
   57.4060   31.9520   45.1520 C   0  0  0  0  0  0  0  0  0  0  0  0
   56.3630   31.1330   44.8710 N   0  0  0  0  0  0  0  0  0  0  0  0
   56.5170   29.7870   44.8190 C   0  0  0  0  0  0  0  0  0  0  0  0
   55.5210   29.0660   44.5470 O   0  0  0  0  0  0  0  0  0  0  0  0
   57.7780   29.2120   45.0670 C   0  0  0  0  0  0  0  0  0  0  0  0
   57.9770   27.7170   45.0010 C   0  0  0  0  0  0  0  0  0  0  0  0
   58.0313   27.3089   46.0211 H   0  0  0  0  0  0  0  0  0  0  0  0
   57.1321   27.2578   44.4669 H   0  0  0  0  0  0  0  0  0  0  0  0
   58.9126   27.4949   44.4669 H   0  0  0  0  0  0  0  0  0  0  0  0
   58.8590   30.0850   45.3300 C   0  0  0  0  0  0  0  0  0  0  0  0
   60.2450   29.5550   45.5890 C   0  0  0  0  0  0  0  0  0  0  0  0
   60.4158   29.4897   46.6737 H   0  0  0  0  0  0  0  0  0  0  0  0
   60.3449   28.5552   45.1412 H   0  0  0  0  0  0  0  0  0  0  0  0
   60.9865   30.2330   45.1412 H   0  0  0  0  0  0  0  0  0  0  0  0
   58.6410   31.4310   45.3780 N   0  0  0  0  0  0  0  0  0  0  0  0
   59.4300   32.0830   45.5920 H   0  0  0  0  0  0  0  0  0  0  0  0
   59.6370   34.8140   45.2710 C   0  0  0  0  0  0  0  0  0  0  0  0
   59.9122   35.8008   44.8703 H   0  0  0  0  0  0  0  0  0  0  0  0
   60.2450   34.3890   46.5560 C   0  0  0  0  0  0  0  0  0  0  0  0
   59.5130   34.5840   47.7410 C   0  0  0  0  0  0  0  0  0  0  0  0
   58.5123   35.0384   47.6956 H   0  0  0  0  0  0  0  0  0  0  0  0
   60.0470   34.2050   48.9760 C   0  0  0  0  0  0  0  0  0  0  0  0
   59.4630   34.3543   49.8961 H   0  0  0  0  0  0  0  0  0  0  0  0
   61.3210   33.6370   49.0430 C   0  0  0  0  0  0  0  0  0  0  0  0
   61.7389   33.3363   50.0151 H   0  0  0  0  0  0  0  0  0  0  0  0
   62.0640   33.4510   47.8760 C   0  0  0  0  0  0  0  0  0  0  0  0
   63.0688   33.0068   47.9311 H   0  0  0  0  0  0  0  0  0  0  0  0
   61.5360   33.8270   46.6380 C   0  0  0  0  0  0  0  0  0  0  0  0
   62.1300   33.6840   45.7233 H   0  0  0  0  0  0  0  0  0  0  0  0
  1  2  1  0
  2  3  1  0
  3  4  1  0
  4  5  2  0
  5  6  1  0
  6  7  2  0
  6  8  1  0
  8  9  1  0
  9 10  1  0
  9 11  1  0
  9 12  1  0
  8 13  2  0
 13 14  1  0
 14 15  1  0
 14 16  1  0
 14 17  1  0
 13 18  1  0
 18 19  1  0
  2 20  2  0
 20 21  1  0
 20 22  1  0
 22 23  2  0
 23 24  1  0
 23 25  1  0
 25 26  1  0
 25 27  2  0
 27 28  1  0
 27 29  1  0
 29 30  1  0
 29 31  2  0
 31 32  1  0
 18  4  1  0
 31 22  1  0
M  END
>  <UniqueID>  (46) 
42

>  <SMILES>  (46) 
Cc1[nH]c(S/C=C/c2ccccc2)nc(=O)c1C

>  <Energy>  (46) 
31.353522475856245

>  <Genealogy>  (46) 
Cc1[nH]c(S/C=C/c2ccccc2)nc(=O)c1C (cis-trans isomerization)
Cc1[nH]c(S/C=C/c2ccccc2)nc(=O)c1C (3D coordinates assigned)
Cc1[nH]c(S/C=C/c2ccccc2)nc(=O)c1C (optimized conformer: 31.353522475856245 kcal/mol)

>  <smiles>  (46) 
Cc1[nH]c(SC=Cc2ccccc2)nc(=O)c1C

>  <score_type>  (46) 
oracle

>  <origin>  (46) 
adg

>  <m_score__min__energy>  (46) 
-7.6100000000000003

>  <m_primary>  (46) 
energy

$$$$
46:0
     RDKit          3D

 52 54  0  0  0  0  0  0  0  0999 V2000
   52.0450   21.3640   45.3900 H   0  0  0  0  0  0  0  0  0  0  0  0
   52.4840   22.3050   45.2730 N   0  0  0  0  0  0  0  0  0  0  0  0
   53.9140   22.3170   46.2410 S   0  0  0  0  0  0  0  0  0  0  0  0
   53.6080   21.7030   47.5780 O   0  0  0  0  0  0  0  0  0  0  0  0
   54.9840   21.5220   45.5470 O   0  0  0  0  0  0  0  0  0  0  0  0
   54.4390   23.9560   46.4540 N   0  0  0  0  0  0  0  0  0  0  0  0
   55.6860   24.4950   45.9900 C   0  0  0  0  0  0  0  0  0  0  0  0
   56.7570   23.6670   45.6080 C   0  0  0  0  0  0  0  0  0  0  0  0
   56.6505   22.5735   45.6627 H   0  0  0  0  0  0  0  0  0  0  0  0
   57.9540   24.2270   45.1600 C   0  0  0  0  0  0  0  0  0  0  0  0
   58.7870   23.5735   44.8618 H   0  0  0  0  0  0  0  0  0  0  0  0
   58.0980   25.6130   45.0890 C   0  0  0  0  0  0  0  0  0  0  0  0
   59.0477   26.0490   44.7456 H   0  0  0  0  0  0  0  0  0  0  0  0
   57.0360   26.4510   45.4540 C   0  0  0  0  0  0  0  0  0  0  0  0
   57.1970   27.9170   45.3870 C   0  0  0  0  0  0  0  0  0  0  0  0
   56.1450   28.6480   44.9430 N   0  0  0  0  0  0  0  0  0  0  0  0
   56.2190   29.9710   44.8320 N   0  0  0  0  0  0  0  0  0  0  0  0
   57.3460   30.6510   45.1470 C   0  0  0  0  0  0  0  0  0  0  0  0
   57.3280   31.9510   45.0180 N   0  0  0  0  0  0  0  0  0  0  0  0
   58.1040   32.9330   45.7200 C   0  0  0  0  0  0  0  0  0  0  0  0
   58.6550   34.0080   45.0130 C   0  0  0  0  0  0  0  0  0  0  0  0
   58.5325   34.0667   43.9214 H   0  0  0  0  0  0  0  0  0  0  0  0
   59.3610   35.0080   45.6900 C   0  0  0  0  0  0  0  0  0  0  0  0
   59.8095   35.8406   45.1281 H   0  0  0  0  0  0  0  0  0  0  0  0
   59.4970   34.9500   47.0800 C   0  0  0  0  0  0  0  0  0  0  0  0
   60.0592   35.7326   47.6105 H   0  0  0  0  0  0  0  0  0  0  0  0
   58.9190   33.8980   47.7960 C   0  0  0  0  0  0  0  0  0  0  0  0
   59.0188   33.8576   48.8907 H   0  0  0  0  0  0  0  0  0  0  0  0
   58.2140   32.8970   47.1210 C   0  0  0  0  0  0  0  0  0  0  0  0
   57.7443   32.0794   47.6875 H   0  0  0  0  0  0  0  0  0  0  0  0
   58.4780   29.9060   45.5570 C   0  0  0  0  0  0  0  0  0  0  0  0
   59.5860   30.4800   45.7420 O   0  0  0  0  0  0  0  0  0  0  0  0
   58.3800   28.5440   45.7060 N   0  0  0  0  0  0  0  0  0  0  0  0
   59.5570   27.7550   46.1320 C   0  0  0  0  0  0  0  0  0  0  0  0
   60.4419   28.0968   45.5751 H   0  0  0  0  0  0  0  0  0  0  0  0
   59.3643   26.6918   45.9257 H   0  0  0  0  0  0  0  0  0  0  0  0
   59.8040   27.9250   47.6030 C   0  0  0  0  0  0  0  0  0  0  0  0
   59.9340   26.9030   48.3310 O   0  0  0  0  0  0  0  0  0  0  0  0
   59.8940   29.2390   48.1740 N   0  0  0  0  0  0  0  0  0  0  0  0
   59.7560   30.0640   47.5450 H   0  0  0  0  0  0  0  0  0  0  0  0
   60.0920   29.4590   49.6100 C   0  0  0  0  0  0  0  0  0  0  0  0
   60.3408   28.4973   50.0824 H   0  0  0  0  0  0  0  0  0  0  0  0
   61.2500   30.4370   49.8400 C   0  0  0  0  0  0  0  0  0  0  0  0
   61.4081   30.5705   50.9204 H   0  0  0  0  0  0  0  0  0  0  0  0
   62.1659   30.0349   49.3823 H   0  0  0  0  0  0  0  0  0  0  0  0
   61.0069   31.4073   49.3823 H   0  0  0  0  0  0  0  0  0  0  0  0
   58.8080   30.0000   50.2480 C   0  0  0  0  0  0  0  0  0  0  0  0
   58.8987   29.9618   51.3436 H   0  0  0  0  0  0  0  0  0  0  0  0
   58.6506   31.0409   49.9292 H   0  0  0  0  0  0  0  0  0  0  0  0
   57.9531   29.3856   49.9292 H   0  0  0  0  0  0  0  0  0  0  0  0
   55.8330   25.8890   45.9150 C   0  0  0  0  0  0  0  0  0  0  0  0
   54.7760   26.7140   46.2880 O   0  0  0  0  0  0  0  0  0  0  0  0
  1  2  1  0
  2  3  1  0
  3  4  2  0
  3  5  2  0
  3  6  1  0
  6  7  1  0
  7  8  2  0
  8  9  1  0
  8 10  1  0
 10 11  1  0
 10 12  2  0
 12 13  1  0
 12 14  1  0
 14 15  1  0
 15 16  2  0
 16 17  1  0
 17 18  1  0
 18 19  2  0
 19 20  1  0
 20 21  2  0
 21 22  1  0
 21 23  1  0
 23 24  1  0
 23 25  2  0
 25 26  1  0
 25 27  1  0
 27 28  1  0
 27 29  2  0
 29 30  1  0
 18 31  1  0
 31 32  2  0
 31 33  1  0
 33 34  1  0
 34 35  1  0
 34 36  1  0
 34 37  1  0
 37 38  2  0
 37 39  1  0
 39 40  1  0
 39 41  1  0
 41 42  1  0
 41 43  1  0
 43 44  1  0
 43 45  1  0
 43 46  1  0
 41 47  1  0
 47 48  1  0
 47 49  1  0
 47 50  1  0
 14 51  2  0
 51 52  1  0
 51  7  1  0
 33 15  1  0
 29 20  1  0
M  CHG  4   2  -1   6  -1  17  -1  52  -1
M  END
>  <UniqueID>  (47) 
43

>  <SMILES>  (47) 
CC(C)NC(=O)Cn1c(-c2cccc([N-]S([NH-])(=O)=O)c2[O-])n[n-]/c(=N/c2ccccc2)c1=O

>  <Energy>  (47) 
72.41381239433835

>  <Genealogy>  (47) 
CC(C)NC(=O)Cn1c(-c2cccc([N-]S([NH-])(=O)=O)c2[O-])n[n-]c(=Nc2ccccc2)c1=O (protonated)
CC(C)NC(=O)Cn1c(-c2cccc([N-]S([NH-])(=O)=O)c2[O-])n[n-]/c(=N/c2ccccc2)c1=O (cis-trans isomerization)
CC(C)NC(=O)Cn1c(-c2cccc([N-]S([NH-])(=O)=O)c2[O-])n[n-]/c(=N/c2ccccc2)c1=O (3D coordinates assigned)
CC(C)NC(=O)Cn1c(-c2cccc([N-]S([NH-])(=O)=O)c2[O-])n[n-]/c(=N/c2ccccc2)c1=O (optimized conformer: 72.41381239433835 kcal/mol)

>  <smiles>  (47) 
CC(C)NC(=O)Cn1c(-c2cccc(NS(N)(=O)=O)c2O)n[nH]c(=Nc2ccccc2)c1=O

>  <score_type>  (47) 
oracle

>  <origin>  (47) 
adg

>  <m_score__min__energy>  (47) 
-18.41

>  <m_primary>  (47) 
energy

$$$$
47:0
     RDKit          3D

 49 51  0  0  0  0  0  0  0  0999 V2000
   63.5090   32.2970   48.9750 O   0  0  0  0  0  0  0  0  0  0  0  0
   62.2610   32.4720   48.9560 C   0  0  0  0  0  0  0  0  0  0  0  0
   61.4000   31.4890   48.3550 N   0  0  0  0  0  0  0  0  0  0  0  0
   60.9740   31.4460   47.1240 C   0  0  0  0  0  0  0  0  0  0  0  0
   60.8930   30.1400   46.3450 C   0  0  0  0  0  0  0  0  0  0  0  0
   59.4730   29.7160   46.0560 C   0  0  0  0  0  0  0  0  0  0  0  0
   58.7150   30.3740   45.0670 C   0  0  0  0  0  0  0  0  0  0  0  0
   57.4040   29.9690   44.7940 C   0  0  0  0  0  0  0  0  0  0  0  0
   56.8340   28.9190   45.5160 C   0  0  0  0  0  0  0  0  0  0  0  0
   55.5370   28.5090   45.2360 O   0  0  0  0  0  0  0  0  0  0  0  0
   57.5680   28.2770   46.5200 C   0  0  0  0  0  0  0  0  0  0  0  0
   58.8780   28.6790   46.7950 C   0  0  0  0  0  0  0  0  0  0  0  0
   60.6230   32.7320   46.4770 C   0  0  0  0  0  0  0  0  0  0  0  0
   61.5370   33.5720   46.2350 O   0  0  0  0  0  0  0  0  0  0  0  0
   59.2710   33.0390   46.1140 N   0  0  0  0  0  0  0  0  0  0  0  0
   58.9300   33.7840   44.9170 C   0  0  0  0  0  0  0  0  0  0  0  0
   57.4150   33.9310   44.9520 C   0  0  0  0  0  0  0  0  0  0  0  0
   57.0100   33.6910   46.4040 C   0  0  0  0  0  0  0  0  0  0  0  0
   58.1450   32.8830   47.0220 C   0  0  0  0  0  0  0  0  0  0  0  0
   61.6520   33.6500   49.6050 C   0  0  0  0  0  0  0  0  0  0  0  0
   62.4140   34.5450   50.0620 O   0  0  0  0  0  0  0  0  0  0  0  0
   60.2370   33.8280   49.7530 N   0  0  0  0  0  0  0  0  0  0  0  0
   59.4870   33.7860   51.0040 C   0  0  0  0  0  0  0  0  0  0  0  0
   58.7500   32.4790   51.1100 C   0  0  0  0  0  0  0  0  0  0  0  0
   57.6310   32.3600   51.9520 C   0  0  0  0  0  0  0  0  0  0  0  0
   56.9640   31.1360   52.0380 C   0  0  0  0  0  0  0  0  0  0  0  0
   57.3830   30.0740   51.3010 N   0  0  0  0  0  0  0  0  0  0  0  0
   58.4500   30.1650   50.4650 C   0  0  0  0  0  0  0  0  0  0  0  0
   59.1500   31.3680   50.3520 C   0  0  0  0  0  0  0  0  0  0  0  0
   61.4226   30.2678   45.3894 H   0  0  0  0  0  0  0  0  0  0  0  0
   61.3520   29.3562   46.9655 H   0  0  0  0  0  0  0  0  0  0  0  0
   59.1567   31.2110   44.5063 H   0  0  0  0  0  0  0  0  0  0  0  0
   56.8227   30.4777   44.0108 H   0  0  0  0  0  0  0  0  0  0  0  0
   57.1135   27.4554   47.0931 H   0  0  0  0  0  0  0  0  0  0  0  0
   59.4465   28.1810   47.5942 H   0  0  0  0  0  0  0  0  0  0  0  0
   59.4132   34.7722   44.9277 H   0  0  0  0  0  0  0  0  0  0  0  0
   59.2710   33.2723   44.0049 H   0  0  0  0  0  0  0  0  0  0  0  0
   57.1203   34.9419   44.6337 H   0  0  0  0  0  0  0  0  0  0  0  0
   56.9225   33.2216   44.2706 H   0  0  0  0  0  0  0  0  0  0  0  0
   56.8897   34.6486   46.9317 H   0  0  0  0  0  0  0  0  0  0  0  0
   56.0492   33.1601   46.4745 H   0  0  0  0  0  0  0  0  0  0  0  0
   58.3974   33.2743   48.0186 H   0  0  0  0  0  0  0  0  0  0  0  0
   57.8696   31.8262   47.1535 H   0  0  0  0  0  0  0  0  0  0  0  0
   60.1825   33.8832   51.8507 H   0  0  0  0  0  0  0  0  0  0  0  0
   58.7637   34.6145   51.0229 H   0  0  0  0  0  0  0  0  0  0  0  0
   57.2835   33.2235   52.5382 H   0  0  0  0  0  0  0  0  0  0  0  0
   56.0957   31.0312   52.7052 H   0  0  0  0  0  0  0  0  0  0  0  0
   58.7629   29.2900   49.8764 H   0  0  0  0  0  0  0  0  0  0  0  0
   60.0111   31.4443   49.6718 H   0  0  0  0  0  0  0  0  0  0  0  0
  1  2  2  0
  2  3  1  0
  3  4  2  3
  4  5  1  0
  5  6  1  0
  6  7  2  0
  7  8  1  0
  8  9  2  0
  9 10  1  0
  9 11  1  0
 11 12  2  0
  4 13  1  0
 13 14  2  0
 13 15  1  0
 15 16  1  0
 16 17  1  0
 17 18  1  0
 18 19  1  0
  2 20  1  0
 20 21  2  0
 20 22  1  0
 22 23  1  0
 23 24  1  0
 24 25  2  0
 25 26  1  0
 26 27  2  0
 27 28  1  0
 28 29  2  0
 12  6  1  0
 19 15  1  0
 29 24  1  0
  5 30  1  0
  5 31  1  0
  7 32  1  0
  8 33  1  0
 11 34  1  0
 12 35  1  0
 16 36  1  0
 16 37  1  0
 17 38  1  0
 17 39  1  0
 18 40  1  0
 18 41  1  0
 19 42  1  0
 19 43  1  0
 23 44  1  0
 23 45  1  0
 25 46  1  0
 26 47  1  0
 28 48  1  0
 29 49  1  0
M  CHG  2  10  -1  22  -1
M  END
>  <UniqueID>  (48) 
44

>  <SMILES>  (48) 
O=C(N=C(Cc1ccc([O-])cc1)C(=O)N1CCCC1)C(=O)[N-]Cc1ccncc1

>  <Energy>  (48) 
58.5817350256349

>  <Genealogy>  (48) 
O=C(N=C(Cc1ccc([O-])cc1)C(=O)N1CCCC1)C(=O)[N-]Cc1ccncc1 (protonated)
O=C(N=C(Cc1ccc([O-])cc1)C(=O)N1CCCC1)C(=O)[N-]Cc1ccncc1 (3D coordinates assigned)
O=C(N=C(Cc1ccc([O-])cc1)C(=O)N1CCCC1)C(=O)[N-]Cc1ccncc1 (nonaromatic ring conformer: 58.5817350256349 kcal/mol)

>  <smiles>  (48) 
O=C(N=C(Cc1ccc(O)cc1)C(=O)N1CCCC1)C(=O)NCc1ccncc1

>  <score_type>  (48) 
oracle

>  <origin>  (48) 
adg

>  <m_score__min__energy>  (48) 
-12.07

>  <m_primary>  (48) 
energy

$$$$
48:0
     RDKit          3D

 31 32  0  0  0  0  0  0  0  0999 V2000
   57.6560   33.7320   47.3140 N   0  0  0  0  0  0  0  0  0  0  0  0
   57.8540   33.4960   45.6140 S   0  0  0  0  0  0  0  0  0  0  0  0
   56.6370   34.0070   44.8940 O   0  0  0  0  0  0  0  0  0  0  0  0
   59.0540   34.2650   45.1350 O   0  0  0  0  0  0  0  0  0  0  0  0
   58.0710   31.7820   45.2790 C   0  0  0  0  0  0  0  0  0  0  0  0
   57.2320   31.1290   44.3670 C   0  0  0  0  0  0  0  0  0  0  0  0
   57.3940   29.7630   44.1140 C   0  0  0  0  0  0  0  0  0  0  0  0
   58.4010   29.0360   44.7700 C   0  0  0  0  0  0  0  0  0  0  0  0
   58.5630   27.5600   44.5270 C   0  0  0  0  0  0  0  0  0  0  0  0
   57.3030   26.8680   44.7910 N   0  0  0  0  0  0  0  0  0  0  0  0
   57.2500   25.4790   45.1480 C   0  0  0  0  0  0  0  0  0  0  0  0
   58.3100   24.8720   45.4640 O   0  0  0  0  0  0  0  0  0  0  0  0
   55.9580   24.7510   45.1630 C   0  0  0  0  0  0  0  0  0  0  0  0
   54.7810   25.3810   45.6100 C   0  0  0  0  0  0  0  0  0  0  0  0
   54.7970   26.7080   46.0280 O   0  0  0  0  0  0  0  0  0  0  0  0
   53.6080   24.6990   45.6220 N   0  0  0  0  0  0  0  0  0  0  0  0
   53.5410   23.4080   45.2120 C   0  0  0  0  0  0  0  0  0  0  0  0
   52.4410   22.7980   45.2290 O   0  0  0  0  0  0  0  0  0  0  0  0
   54.6620   22.7720   44.7880 N   0  0  0  0  0  0  0  0  0  0  0  0
   55.8630   23.4050   44.7590 C   0  0  0  0  0  0  0  0  0  0  0  0
   56.8830   22.7660   44.3890 O   0  0  0  0  0  0  0  0  0  0  0  0
   59.2310   29.6910   45.6930 C   0  0  0  0  0  0  0  0  0  0  0  0
   59.0670   31.0550   45.9460 C   0  0  0  0  0  0  0  0  0  0  0  0
   56.6350   33.8610   47.4870 H   0  0  0  0  0  0  0  0  0  0  0  0
   56.4428   31.6926   43.8479 H   0  0  0  0  0  0  0  0  0  0  0  0
   56.7301   29.2560   43.3984 H   0  0  0  0  0  0  0  0  0  0  0  0
   58.8576   27.3934   43.4803 H   0  0  0  0  0  0  0  0  0  0  0  0
   59.3387   27.1665   45.2004 H   0  0  0  0  0  0  0  0  0  0  0  0
   56.4180   27.4210   44.7420 H   0  0  0  0  0  0  0  0  0  0  0  0
   60.0149   29.1272   46.2200 H   0  0  0  0  0  0  0  0  0  0  0  0
   59.7217   31.5605   46.6712 H   0  0  0  0  0  0  0  0  0  0  0  0
  1  2  1  0
  2  3  2  0
  2  4  2  0
  2  5  1  0
  5  6  2  0
  6  7  1  0
  7  8  2  0
  8  9  1  0
  9 10  1  0
 10 11  1  0
 11 12  2  0
 11 13  1  0
 13 14  2  0
 14 15  1  0
 14 16  1  0
 16 17  1  0
 17 18  2  0
 17 19  1  0
 19 20  1  0
 20 21  2  0
  8 22  1  0
 22 23  2  0
 23  5  1  0
 20 13  1  0
  1 24  1  0
  6 25  1  0
  7 26  1  0
  9 27  1  0
  9 28  1  0
 10 29  1  0
 22 30  1  0
 23 31  1  0
M  CHG  4   1  -1  15  -1  16  -1  19  -1
M  END
>  <UniqueID>  (49) 
45

>  <SMILES>  (49) 
[NH-]S(=O)(=O)c1ccc(CNC(=O)c2c([O-])[n-]c(=O)[n-]c2=O)cc1

>  <Energy>  (49) 
35.58129813865616

>  <Genealogy>  (49) 
[NH-]S(=O)(=O)c1ccc(CNC(=O)c2c([O-])[n-]c(=O)[n-]c2=O)cc1 (protonated)
[NH-]S(=O)(=O)c1ccc(CNC(=O)c2c([O-])[n-]c(=O)[n-]c2=O)cc1 (3D coordinates assigned)
[NH-]S(=O)(=O)c1ccc(CNC(=O)c2c([O-])[n-]c(=O)[n-]c2=O)cc1 (optimized conformer: 35.58129813865616 kcal/mol)

>  <smiles>  (49) 
NS(=O)(=O)c1ccc(CNC(=O)c2c(O)[nH]c(=O)[nH]c2=O)cc1

>  <score_type>  (49) 
oracle

>  <origin>  (49) 
adg

>  <m_score__min__energy>  (49) 
-15.65

>  <m_primary>  (49) 
energy

$$$$
49:0
     RDKit          3D

 35 37  0  0  0  0  0  0  0  0999 V2000
   57.8770   25.4390   45.9130 C   0  0  0  0  0  0  0  0  0  0  0  0
   57.0460   27.0040   45.7160 S   0  0  0  0  0  0  0  0  0  0  0  0
   55.5650   26.7590   45.8110 O   0  0  0  0  0  0  0  0  0  0  0  0
   57.4550   27.9200   46.8360 O   0  0  0  0  0  0  0  0  0  0  0  0
   57.4060   27.7230   44.1580 N   0  0  2  0  0  0  0  0  0  0  0  0
   58.8660   27.9120   43.9410 C   0  0  0  0  0  0  0  0  0  0  0  0
   59.4990   28.9640   44.8810 C   0  0  0  0  0  0  0  0  0  0  0  0
   58.6000   30.1490   44.9950 C   0  0  0  0  0  0  0  0  0  0  0  0
   58.9190   31.3420   45.5230 N   0  0  0  0  0  0  0  0  0  0  0  0
   57.7530   32.0270   45.4430 C   0  0  0  0  0  0  0  0  0  0  0  0
   57.6290   33.4600   45.8500 C   0  0  0  0  0  0  0  0  0  0  0  0
   58.5700   33.7530   46.9260 N   0  0  0  0  0  0  0  0  0  0  0  0
   59.6010   34.6180   46.8670 C   0  0  0  0  0  0  0  0  0  0  0  0
   60.3150   34.5700   48.0470 C   0  0  0  0  0  0  0  0  0  0  0  0
   59.6940   33.6280   48.8470 C   0  0  0  0  0  0  0  0  0  0  0  0
   58.6260   33.1380   48.1220 C   0  0  0  0  0  0  0  0  0  0  0  0
   56.7320   31.3310   44.8880 N   0  0  0  0  0  0  0  0  0  0  0  0
   57.2880   30.1360   44.6400 C   0  0  0  0  0  0  0  0  0  0  0  0
   56.6340   28.9740   43.9560 C   0  0  0  0  0  0  0  0  0  0  0  0
   57.9942   25.2184   46.9843 H   0  0  0  0  0  0  0  0  0  0  0  0
   57.2815   24.6453   45.4381 H   0  0  0  0  0  0  0  0  0  0  0  0
   58.8680   25.4877   45.4381 H   0  0  0  0  0  0  0  0  0  0  0  0
   57.0750   27.0350   43.4410 H   0  0  0  0  0  0  0  0  0  0  0  0
   59.3701   26.9486   44.1072 H   0  0  0  0  0  0  0  0  0  0  0  0
   58.9950   28.2788   42.9120 H   0  0  0  0  0  0  0  0  0  0  0  0
   59.6469   28.5212   45.8770 H   0  0  0  0  0  0  0  0  0  0  0  0
   60.4676   29.2825   44.4682 H   0  0  0  0  0  0  0  0  0  0  0  0
   57.8496   34.1049   44.9866 H   0  0  0  0  0  0  0  0  0  0  0  0
   56.6045   33.6493   46.2028 H   0  0  0  0  0  0  0  0  0  0  0  0
   59.8377   35.2642   46.0089 H   0  0  0  0  0  0  0  0  0  0  0  0
   61.2045   35.1649   48.3016 H   0  0  0  0  0  0  0  0  0  0  0  0
   59.9926   33.3279   49.8623 H   0  0  0  0  0  0  0  0  0  0  0  0
   57.9270   32.3628   48.4691 H   0  0  0  0  0  0  0  0  0  0  0  0
   55.6221   28.8404   44.3662 H   0  0  0  0  0  0  0  0  0  0  0  0
   56.5929   29.1853   42.8773 H   0  0  0  0  0  0  0  0  0  0  0  0
  1  2  1  0
  2  3  2  0
  2  4  2  0
  2  5  1  0
  5  6  1  0
  6  7  1  0
  7  8  1  0
  8  9  1  0
  9 10  1  0
 10 11  1  0
 11 12  1  0
 12 13  1  0
 13 14  2  0
 14 15  1  0
 15 16  2  0
 10 17  2  0
 17 18  1  0
 18 19  1  0
 19  5  1  0
 18  8  2  0
 16 12  1  0
  1 20  1  0
  1 21  1  0
  1 22  1  0
  5 23  1  6
  6 24  1  0
  6 25  1  0
  7 26  1  0
  7 27  1  0
 11 28  1  0
 11 29  1  0
 13 30  1  0
 14 31  1  0
 15 32  1  0
 16 33  1  0
 19 34  1  0
 19 35  1  0
M  CHG  2   5   1   9  -1
M  END
>  <UniqueID>  (50) 
46

>  <SMILES>  (50) 
CS(=O)(=O)[N@@H+]1CCc2[n-]c(Cn3cccc3)nc2C1

>  <Energy>  (50) 
87.79163529873522

>  <Genealogy>  (50) 
CS(=O)(=O)[NH+]1CCc2[n-]c(Cn3cccc3)nc2C1 (protonated)
CS(=O)(=O)[N@@H+]1CCc2[n-]c(Cn3cccc3)nc2C1 (chirality)
CS(=O)(=O)[N@@H+]1CCc2[n-]c(Cn3cccc3)nc2C1 (3D coordinates assigned)
CS(=O)(=O)[N@@H+]1CCc2[n-]c(Cn3cccc3)nc2C1 (nonaromatic ring conformer: 87.79163529873522 kcal/mol)

>  <smiles>  (50) 
CS(=O)(=O)N1CCc2[nH]c(Cn3cccc3)nc2C1

>  <score_type>  (50) 
oracle

>  <origin>  (50) 
adg

>  <m_score__min__energy>  (50) 
-6.7699999999999996

>  <m_primary>  (50) 
energy

$$$$
50:0
     RDKit          3D

 46 48  0  0  0  0  0  0  0  0999 V2000
   63.3700   32.0690   47.4740 C   0  0  0  0  0  0  0  0  0  0  0  0
   62.0430   31.6390   47.1970 O   0  0  0  0  0  0  0  0  0  0  0  0
   61.3750   30.6090   47.8800 C   0  0  0  0  0  0  0  0  0  0  0  0
   61.4050   30.5120   49.2860 C   0  0  0  0  0  0  0  0  0  0  0  0
   60.7300   29.4790   49.9390 C   0  0  0  0  0  0  0  0  0  0  0  0
   60.0180   28.5330   49.2040 C   0  0  0  0  0  0  0  0  0  0  0  0
   59.9770   28.6150   47.8110 C   0  0  0  0  0  0  0  0  0  0  0  0
   60.6580   29.6450   47.1390 C   0  0  0  0  0  0  0  0  0  0  0  0
   60.5490   29.7330   45.6360 C   0  0  0  0  0  0  0  0  0  0  0  0
   59.1680   30.0470   45.2410 N   0  0  0  0  0  0  0  0  0  0  0  0
   58.5050   29.2610   44.1950 C   0  0  0  0  0  0  0  0  0  0  0  0
   57.8880   28.0170   44.7920 C   0  0  0  0  0  0  0  0  0  0  0  0
   58.7020   26.8730   44.8960 C   0  0  0  0  0  0  0  0  0  0  0  0
   58.2120   25.6970   45.4660 C   0  0  0  0  0  0  0  0  0  0  0  0
   56.9050   25.6450   45.9460 C   0  0  0  0  0  0  0  0  0  0  0  0
   56.0810   26.7720   45.8600 C   0  0  0  0  0  0  0  0  0  0  0  0
   54.7820   26.7060   46.3500 O   0  0  0  0  0  0  0  0  0  0  0  0
   56.5590   27.9630   45.2920 C   0  0  0  0  0  0  0  0  0  0  0  0
   55.6850   29.0550   45.2480 O   0  0  0  0  0  0  0  0  0  0  0  0
   58.4260   31.0650   45.9390 C   0  0  0  0  0  0  0  0  0  0  0  0
   57.4000   30.7370   46.5940 O   0  0  0  0  0  0  0  0  0  0  0  0
   58.8440   32.4850   45.9080 C   0  0  0  0  0  0  0  0  0  0  0  0
   59.3880   33.1060   47.0450 C   0  0  0  0  0  0  0  0  0  0  0  0
   59.7790   34.4450   46.9930 C   0  0  0  0  0  0  0  0  0  0  0  0
   59.6350   35.1530   45.7980 C   0  0  0  0  0  0  0  0  0  0  0  0
   59.9800   36.3620   45.7350 O   0  0  0  0  0  0  0  0  0  0  0  0
   59.1270   34.5360   44.6990 N   0  0  0  0  0  0  0  0  0  0  0  0
   58.7380   33.2340   44.7250 C   0  0  0  0  0  0  0  0  0  0  0  0
   63.5200   32.1176   48.5626 H   0  0  0  0  0  0  0  0  0  0  0  0
   64.0851   31.3566   47.0368 H   0  0  0  0  0  0  0  0  0  0  0  0
   63.5314   33.0654   47.0368 H   0  0  0  0  0  0  0  0  0  0  0  0
   61.9642   31.2555   49.8728 H   0  0  0  0  0  0  0  0  0  0  0  0
   60.7602   29.4116   51.0365 H   0  0  0  0  0  0  0  0  0  0  0  0
   59.4876   27.7205   49.7222 H   0  0  0  0  0  0  0  0  0  0  0  0
   59.4085   27.8693   47.2359 H   0  0  0  0  0  0  0  0  0  0  0  0
   61.2198   30.5240   45.2694 H   0  0  0  0  0  0  0  0  0  0  0  0
   60.8340   28.7643   45.1997 H   0  0  0  0  0  0  0  0  0  0  0  0
   57.7169   29.8694   43.7273 H   0  0  0  0  0  0  0  0  0  0  0  0
   59.2488   28.9669   43.4399 H   0  0  0  0  0  0  0  0  0  0  0  0
   59.7365   26.9064   44.5236 H   0  0  0  0  0  0  0  0  0  0  0  0
   58.8586   24.8099   45.5364 H   0  0  0  0  0  0  0  0  0  0  0  0
   56.5206   24.7164   46.3932 H   0  0  0  0  0  0  0  0  0  0  0  0
   55.5790   29.7340   45.9880 H   0  0  0  0  0  0  0  0  0  0  0  0
   59.5060   32.5357   47.9782 H   0  0  0  0  0  0  0  0  0  0  0  0
   60.1961   34.9372   47.8839 H   0  0  0  0  0  0  0  0  0  0  0  0
   58.3379   32.7644   43.8143 H   0  0  0  0  0  0  0  0  0  0  0  0
  1  2  1  0
  2  3  1  0
  3  4  2  0
  4  5  1  0
  5  6  2  0
  6  7  1  0
  7  8  2  0
  8  9  1  0
  9 10  1  0
 10 11  1  0
 11 12  1  0
 12 13  2  0
 13 14  1  0
 14 15  2  0
 15 16  1  0
 16 17  1  0
 16 18  2  0
 18 19  1  0
 10 20  1  0
 20 21  2  0
 20 22  1  0
 22 23  1  0
 23 24  2  0
 24 25  1  0
 25 26  2  0
 25 27  1  0
 27 28  1  0
  8  3  1  0
 18 12  1  0
 28 22  2  0
  1 29  1  0
  1 30  1  0
  1 31  1  0
  4 32  1  0
  5 33  1  0
  6 34  1  0
  7 35  1  0
  9 36  1  0
  9 37  1  0
 11 38  1  0
 11 39  1  0
 13 40  1  0
 14 41  1  0
 15 42  1  0
 19 43  1  0
 23 44  1  0
 24 45  1  0
 28 46  1  0
M  CHG  2  17  -1  27  -1
M  END
>  <UniqueID>  (51) 
47

>  <SMILES>  (51) 
COc1ccccc1CN(Cc1cccc([O-])c1O)C(=O)c1ccc(=O)[n-]c1

>  <Energy>  (51) 
53.34216030111864

>  <Genealogy>  (51) 
COc1ccccc1CN(Cc1cccc([O-])c1O)C(=O)c1ccc(=O)[n-]c1 (protonated)
COc1ccccc1CN(Cc1cccc([O-])c1O)C(=O)c1ccc(=O)[n-]c1 (3D coordinates assigned)
COc1ccccc1CN(Cc1cccc([O-])c1O)C(=O)c1ccc(=O)[n-]c1 (optimized conformer: 53.34216030111864 kcal/mol)

>  <smiles>  (51) 
COc1ccccc1CN(Cc1cccc(O)c1O)C(=O)c1ccc(=O)[nH]c1

>  <score_type>  (51) 
oracle

>  <origin>  (51) 
adg

>  <m_score__min__energy>  (51) 
-13.44

>  <m_primary>  (51) 
energy

$$$$
51:0
     RDKit          3D

 31 32  0  0  0  0  0  0  0  0999 V2000
   57.4340   23.1240   47.4350 O   0  0  0  0  0  0  0  0  0  0  0  0
   57.1840   24.2870   47.0260 C   0  0  0  0  0  0  0  0  0  0  0  0
   55.9350   24.7180   46.7550 N   0  0  0  0  0  0  0  0  0  0  0  0
   55.9460   26.0090   46.3290 C   0  0  0  0  0  0  0  0  0  0  0  0
   54.7760   26.6750   45.9890 O   0  0  0  0  0  0  0  0  0  0  0  0
   57.2070   26.5960   46.2630 C   0  0  0  0  0  0  0  0  0  0  0  0
   57.5770   28.2300   45.7360 S   0  0  0  0  0  0  0  0  0  0  0  0
   58.2060   29.0060   46.8610 O   0  0  0  0  0  0  0  0  0  0  0  0
   58.5470   28.1580   44.5920 O   0  0  0  0  0  0  0  0  0  0  0  0
   56.1190   29.0170   45.1950 N   0  0  0  0  0  0  0  0  0  0  0  0
   56.2730   29.6150   43.8660 C   0  0  0  0  0  0  0  0  0  0  0  0
   56.3500   31.1440   43.9470 C   0  0  0  0  0  0  0  0  0  0  0  0
   57.7850   31.6410   43.7450 C   0  0  0  0  0  0  0  0  0  0  0  0
   58.1310   32.6780   44.7790 C   0  0  0  0  0  0  0  0  0  0  0  0
   58.8490   33.8290   44.4160 C   0  0  0  0  0  0  0  0  0  0  0  0
   59.2060   34.7710   45.3860 C   0  0  0  0  0  0  0  0  0  0  0  0
   58.8590   34.5660   46.7240 C   0  0  0  0  0  0  0  0  0  0  0  0
   58.1570   33.4160   47.0960 C   0  0  0  0  0  0  0  0  0  0  0  0
   57.7980   32.4700   46.1290 C   0  0  0  0  0  0  0  0  0  0  0  0
   58.3520   25.4670   46.7550 S   0  0  0  0  0  0  0  0  0  0  0  0
   57.1970   29.2338   43.4067 H   0  0  0  0  0  0  0  0  0  0  0  0
   55.3958   29.3438   43.2602 H   0  0  0  0  0  0  0  0  0  0  0  0
   55.7077   31.5769   43.1660 H   0  0  0  0  0  0  0  0  0  0  0  0
   56.0121   31.4560   44.9462 H   0  0  0  0  0  0  0  0  0  0  0  0
   58.4788   30.7923   43.8364 H   0  0  0  0  0  0  0  0  0  0  0  0
   57.8692   32.0918   42.7452 H   0  0  0  0  0  0  0  0  0  0  0  0
   59.1315   33.9902   43.3652 H   0  0  0  0  0  0  0  0  0  0  0  0
   59.7610   35.6751   45.0952 H   0  0  0  0  0  0  0  0  0  0  0  0
   59.1384   35.3098   47.4847 H   0  0  0  0  0  0  0  0  0  0  0  0
   57.8864   33.2543   48.1499 H   0  0  0  0  0  0  0  0  0  0  0  0
   57.2539   31.5613   46.4260 H   0  0  0  0  0  0  0  0  0  0  0  0
  1  2  2  0
  2  3  1  0
  3  4  1  0
  4  5  1  0
  4  6  2  0
  6  7  1  0
  7  8  2  0
  7  9  2  0
  7 10  1  0
 10 11  1  0
 11 12  1  0
 12 13  1  0
 13 14  1  0
 14 15  2  0
 15 16  1  0
 16 17  2  0
 17 18  1  0
 18 19  2  0
  6 20  1  0
 20  2  1  0
 19 14  1  0
 11 21  1  0
 11 22  1  0
 12 23  1  0
 12 24  1  0
 13 25  1  0
 13 26  1  0
 15 27  1  0
 16 28  1  0
 17 29  1  0
 18 30  1  0
 19 31  1  0
M  CHG  3   3  -1   5  -1  10  -1
M  END
>  <UniqueID>  (52) 
48

>  <SMILES>  (52) 
O=c1[n-]c([O-])c(S(=O)(=O)[N-]CCCc2ccccc2)s1

>  <Energy>  (52) 
57.673215668029755

>  <Genealogy>  (52) 
O=c1[n-]c([O-])c(S(=O)(=O)[N-]CCCc2ccccc2)s1 (protonated)
O=c1[n-]c([O-])c(S(=O)(=O)[N-]CCCc2ccccc2)s1 (3D coordinates assigned)
O=c1[n-]c([O-])c(S(=O)(=O)[N-]CCCc2ccccc2)s1 (optimized conformer: 57.673215668029755 kcal/mol)

>  <smiles>  (52) 
O=c1[nH]c(O)c(S(=O)(=O)NCCCc2ccccc2)s1

>  <score_type>  (52) 
oracle

>  <origin>  (52) 
adg

>  <m_score__min__energy>  (52) 
-15.140000000000001

>  <m_primary>  (52) 
energy

$$$$
52:0
     RDKit          3D

 48 50  0  0  0  0  0  0  0  0999 V2000
   56.6490   33.6650   44.8810 O   0  0  0  0  0  0  0  0  0  0  0  0
   57.6550   32.9460   45.1220 C   0  0  0  0  0  0  0  0  0  0  0  0
   59.0370   33.5280   44.9660 C   0  0  0  0  0  0  0  0  0  0  0  0
   59.7190   33.6990   46.3040 C   0  0  0  0  0  0  0  0  0  0  0  0
   61.1240   33.6680   46.3660 C   0  0  0  0  0  0  0  0  0  0  0  0
   61.7850   33.8150   47.5880 C   0  0  0  0  0  0  0  0  0  0  0  0
   61.0530   33.9890   48.7630 C   0  0  0  0  0  0  0  0  0  0  0  0
   59.6580   34.0110   48.7200 C   0  0  0  0  0  0  0  0  0  0  0  0
   58.9810   33.8620   47.5020 C   0  0  0  0  0  0  0  0  0  0  0  0
   57.5840   33.8740   47.5210 O   0  0  0  0  0  0  0  0  0  0  0  0
   57.4450   31.6170   45.6130 N   0  0  0  0  0  0  0  0  0  0  0  0
   58.4760   30.5880   45.6960 C   0  0  0  0  0  0  0  0  0  0  0  0
   57.8550   29.1840   45.5020 C   0  0  0  0  0  0  0  0  0  0  0  0
   56.4600   29.3120   45.3310 O   0  0  0  0  0  0  0  0  0  0  0  0
   58.4730   28.5100   44.2530 C   0  0  0  0  0  0  0  0  0  0  0  0
   57.8130   27.1490   43.9840 C   0  0  0  0  0  0  0  0  0  0  0  0
   57.5320   26.4350   45.2370 N   0  0  0  0  0  0  0  0  0  0  0  0
   56.6410   25.3050   45.2290 C   0  0  0  0  0  0  0  0  0  0  0  0
   57.1040   24.0450   44.8150 C   0  0  0  0  0  0  0  0  0  0  0  0
   56.2430   22.9440   44.8060 C   0  0  0  0  0  0  0  0  0  0  0  0
   54.9120   23.0930   45.2040 C   0  0  0  0  0  0  0  0  0  0  0  0
   54.4390   24.3440   45.6080 C   0  0  0  0  0  0  0  0  0  0  0  0
   55.2960   25.4510   45.6170 C   0  0  0  0  0  0  0  0  0  0  0  0
   54.7990   26.6930   45.9940 O   0  0  0  0  0  0  0  0  0  0  0  0
   58.2550   26.8010   46.4610 C   0  0  0  0  0  0  0  0  0  0  0  0
   58.1140   28.3060   46.7630 C   0  0  0  0  0  0  0  0  0  0  0  0
   59.6405   32.8538   44.3405 H   0  0  0  0  0  0  0  0  0  0  0  0
   58.9440   34.5183   44.4964 H   0  0  0  0  0  0  0  0  0  0  0  0
   61.7074   33.5268   45.4442 H   0  0  0  0  0  0  0  0  0  0  0  0
   62.8842   33.7935   47.6239 H   0  0  0  0  0  0  0  0  0  0  0  0
   61.5754   34.1089   49.7236 H   0  0  0  0  0  0  0  0  0  0  0  0
   59.0855   34.1464   49.6495 H   0  0  0  0  0  0  0  0  0  0  0  0
   57.0160   33.2210   46.9980 H   0  0  0  0  0  0  0  0  0  0  0  0
   59.2270   30.7635   44.9116 H   0  0  0  0  0  0  0  0  0  0  0  0
   58.9475   30.6351   46.6887 H   0  0  0  0  0  0  0  0  0  0  0  0
   56.2020   30.2360   45.5890 H   0  0  0  0  0  0  0  0  0  0  0  0
   58.3230   29.1622   43.3800 H   0  0  0  0  0  0  0  0  0  0  0  0
   59.5465   28.3515   44.4330 H   0  0  0  0  0  0  0  0  0  0  0  0
   56.8685   27.3094   43.4434 H   0  0  0  0  0  0  0  0  0  0  0  0
   58.5056   26.5396   43.3850 H   0  0  0  0  0  0  0  0  0  0  0  0
   58.1498   23.9242   44.4962 H   0  0  0  0  0  0  0  0  0  0  0  0
   56.6136   21.9592   44.4853 H   0  0  0  0  0  0  0  0  0  0  0  0
   54.2363   22.2250   45.1993 H   0  0  0  0  0  0  0  0  0  0  0  0
   53.3905   24.4595   45.9198 H   0  0  0  0  0  0  0  0  0  0  0  0
   57.8460   26.2259   47.3048 H   0  0  0  0  0  0  0  0  0  0  0  0
   59.3214   26.5732   46.3168 H   0  0  0  0  0  0  0  0  0  0  0  0
   57.2722   28.4419   47.4579 H   0  0  0  0  0  0  0  0  0  0  0  0
   59.0728   28.6362   47.1892 H   0  0  0  0  0  0  0  0  0  0  0  0
  1  2  2  0
  2  3  1  0
  3  4  1  0
  4  5  2  0
  5  6  1  0
  6  7  2  0
  7  8  1  0
  8  9  2  0
  9 10  1  0
  2 11  1  0
 11 12  1  0
 12 13  1  0
 13 14  1  0
 13 15  1  0
 15 16  1  0
 16 17  1  0
 17 18  1  0
 18 19  2  0
 19 20  1  0
 20 21  2  0
 21 22  1  0
 22 23  2  0
 23 24  1  0
 17 25  1  0
 25 26  1  0
  9  4  1  0
 26 13  1  0
 23 18  1  0
  3 27  1  0
  3 28  1  0
  5 29  1  0
  6 30  1  0
  7 31  1  0
  8 32  1  0
 10 33  1  0
 12 34  1  0
 12 35  1  0
 14 36  1  0
 15 37  1  0
 15 38  1  0
 16 39  1  0
 16 40  1  0
 19 41  1  0
 20 42  1  0
 21 43  1  0
 22 44  1  0
 25 45  1  0
 25 46  1  0
 26 47  1  0
 26 48  1  0
M  CHG  2  11  -1  24  -1
M  END
>  <UniqueID>  (53) 
49

>  <SMILES>  (53) 
O=C(Cc1ccccc1O)[N-]CC1(O)CCN(c2ccccc2[O-])CC1

>  <Energy>  (53) 
56.9484983971566

>  <Genealogy>  (53) 
O=C(Cc1ccccc1O)[N-]CC1(O)CCN(c2ccccc2[O-])CC1 (protonated)
O=C(Cc1ccccc1O)[N-]CC1(O)CCN(c2ccccc2[O-])CC1 (3D coordinates assigned)
O=C(Cc1ccccc1O)[N-]CC1(O)CCN(c2ccccc2[O-])CC1 (nonaromatic ring conformer: 56.9484983971566 kcal/mol)

>  <smiles>  (53) 
O=C(Cc1ccccc1O)NCC1(O)CCN(c2ccccc2O)CC1

>  <score_type>  (53) 
oracle

>  <origin>  (53) 
adg

>  <m_score__min__energy>  (53) 
-13.01

>  <m_primary>  (53) 
energy

$$$$
53:0
     RDKit          3D

 51 53  0  0  0  0  0  0  0  0999 V2000
   57.7560   31.7770   42.9960 C   0  0  0  0  0  0  0  0  0  0  0  0
   56.9550   30.2800   43.5350 S   0  0  0  0  0  0  0  0  0  0  0  0
   55.8910   30.6520   44.5300 O   0  0  0  0  0  0  0  0  0  0  0  0
   56.3170   29.5970   42.3590 O   0  0  0  0  0  0  0  0  0  0  0  0
   58.1250   29.1950   44.2820 C   0  0  0  0  0  0  0  0  0  0  0  0
   59.4470   29.6100   44.4980 C   0  0  0  0  0  0  0  0  0  0  0  0
   60.3730   28.7390   45.0800 C   0  0  0  0  0  0  0  0  0  0  0  0
   59.9910   27.4380   45.4380 C   0  0  0  0  0  0  0  0  0  0  0  0
   60.9680   26.5080   46.1010 C   0  0  0  0  0  0  0  0  0  0  0  0
   60.9110   26.6840   47.5440 N   0  0  0  0  0  0  0  0  0  0  0  0
   59.7280   27.1270   48.2070 C   0  0  0  0  0  0  0  0  0  0  0  0
   58.7040   26.3950   48.1900 O   0  0  0  0  0  0  0  0  0  0  0  0
   59.6910   28.3600   48.9380 N   0  0  0  0  0  0  0  0  0  0  0  0
   59.4440   29.6850   48.4400 C   0  0  0  0  0  0  0  0  0  0  0  0
   58.5150   29.9400   47.4190 C   0  0  0  0  0  0  0  0  0  0  0  0
   58.3430   31.2360   46.9340 C   0  0  0  0  0  0  0  0  0  0  0  0
   59.0520   32.3030   47.4920 C   0  0  0  0  0  0  0  0  0  0  0  0
   58.8120   33.9010   46.7930 Cl  0  0  0  0  0  0  0  0  0  0  0  0
   59.9260   32.0790   48.5780 C   0  0  0  0  0  0  0  0  0  0  0  0
   60.7620   33.4440   49.3530 S   0  0  0  0  0  0  0  0  0  0  0  0
   61.2570   33.0610   50.7200 O   0  0  0  0  0  0  0  0  0  0  0  0
   59.7790   34.5690   49.5240 O   0  0  0  0  0  0  0  0  0  0  0  0
   62.0950   33.9840   48.3530 N   0  0  0  0  0  0  0  0  0  0  0  0
   62.2730   33.1230   47.1700 C   0  0  0  0  0  0  0  0  0  0  0  0
   62.9220   31.7630   47.5190 C   0  0  0  0  0  0  0  0  0  0  0  0
   63.5660   31.7500   48.7810 O   0  0  0  0  0  0  0  0  0  0  0  0
   64.2990   32.9390   48.9650 C   0  0  0  0  0  0  0  0  0  0  0  0
   63.3450   34.1350   49.1310 C   0  0  0  0  0  0  0  0  0  0  0  0
   60.1310   30.7580   49.0290 C   0  0  0  0  0  0  0  0  0  0  0  0
   61.0280   30.4920   50.0580 O   0  0  0  0  0  0  0  0  0  0  0  0
   58.6610   27.0330   45.2430 C   0  0  0  0  0  0  0  0  0  0  0  0
   57.7340   27.9080   44.6720 C   0  0  0  0  0  0  0  0  0  0  0  0
   58.0689   32.3618   43.8735 H   0  0  0  0  0  0  0  0  0  0  0  0
   58.6388   31.5231   42.3908 H   0  0  0  0  0  0  0  0  0  0  0  0
   57.0549   32.3705   42.3908 H   0  0  0  0  0  0  0  0  0  0  0  0
   59.7567   30.6250   44.2083 H   0  0  0  0  0  0  0  0  0  0  0  0
   61.4051   29.0755   45.2578 H   0  0  0  0  0  0  0  0  0  0  0  0
   60.7117   25.4683   45.8491 H   0  0  0  0  0  0  0  0  0  0  0  0
   61.9844   26.7344   45.7464 H   0  0  0  0  0  0  0  0  0  0  0  0
   57.9207   29.1146   47.0001 H   0  0  0  0  0  0  0  0  0  0  0  0
   57.6434   31.4199   46.1053 H   0  0  0  0  0  0  0  0  0  0  0  0
   61.2878   32.9378   46.7171 H   0  0  0  0  0  0  0  0  0  0  0  0
   62.9462   33.6457   46.4746 H   0  0  0  0  0  0  0  0  0  0  0  0
   62.1364   30.9930   47.5213 H   0  0  0  0  0  0  0  0  0  0  0  0
   63.6945   31.5696   46.7602 H   0  0  0  0  0  0  0  0  0  0  0  0
   64.9229   32.8448   49.8661 H   0  0  0  0  0  0  0  0  0  0  0  0
   64.9339   33.1078   48.0827 H   0  0  0  0  0  0  0  0  0  0  0  0
   63.0866   34.2333   50.1957 H   0  0  0  0  0  0  0  0  0  0  0  0
   63.8645   35.0279   48.7530 H   0  0  0  0  0  0  0  0  0  0  0  0
   58.3474   26.0217   45.5413 H   0  0  0  0  0  0  0  0  0  0  0  0
   56.6924   27.5848   44.5280 H   0  0  0  0  0  0  0  0  0  0  0  0
  1  2  1  0
  2  3  2  0
  2  4  2  0
  2  5  1  0
  5  6  2  0
  6  7  1  0
  7  8  2  0
  8  9  1  0
  9 10  1  0
 10 11  1  0
 11 12  2  0
 11 13  1  0
 13 14  1  0
 14 15  2  0
 15 16  1  0
 16 17  2  0
 17 18  1  0
 17 19  1  0
 19 20  1  0
 20 21  2  0
 20 22  2  0
 20 23  1  0
 23 24  1  0
 24 25  1  0
 25 26  1  0
 26 27  1  0
 27 28  1  0
 19 29  2  0
 29 30  1  0
  8 31  1  0
 31 32  2  0
 32  5  1  0
 29 14  1  0
 28 23  1  0
  1 33  1  0
  1 34  1  0
  1 35  1  0
  6 36  1  0
  7 37  1  0
  9 38  1  0
  9 39  1  0
 15 40  1  0
 16 41  1  0
 24 42  1  0
 24 43  1  0
 25 44  1  0
 25 45  1  0
 27 46  1  0
 27 47  1  0
 28 48  1  0
 28 49  1  0
 31 50  1  0
 32 51  1  0
M  CHG  3  10  -1  13  -1  30  -1
M  END
>  <UniqueID>  (54) 
50

>  <SMILES>  (54) 
CS(=O)(=O)c1ccc(C[N-]C(=O)[N-]c2ccc(Cl)c(S(=O)(=O)N3CCOCC3)c2[O-])cc1

>  <Energy>  (54) 
67.2760454326842

>  <Genealogy>  (54) 
CS(=O)(=O)c1ccc(C[N-]C(=O)[N-]c2ccc(Cl)c(S(=O)(=O)N3CCOCC3)c2[O-])cc1 (protonated)
CS(=O)(=O)c1ccc(C[N-]C(=O)[N-]c2ccc(Cl)c(S(=O)(=O)N3CCOCC3)c2[O-])cc1 (3D coordinates assigned)
CS(=O)(=O)c1ccc(C[N-]C(=O)[N-]c2ccc(Cl)c(S(=O)(=O)N3CCOCC3)c2[O-])cc1 (nonaromatic ring conformer: 67.2760454326842 kcal/mol)

>  <smiles>  (54) 
CS(=O)(=O)c1ccc(CNC(=O)Nc2ccc(Cl)c(S(=O)(=O)N3CCOCC3)c2O)cc1

>  <score_type>  (54) 
oracle

>  <origin>  (54) 
adg

>  <m_score__min__energy>  (54) 
-16.940000000000001

>  <m_primary>  (54) 
energy

$$$$
54:0
     RDKit          3D

 38 41  0  0  0  0  0  0  0  0999 V2000
   50.8130   32.1150   55.3010 C   0  0  0  0  0  0  0  0  0  0  0  0
   51.7580   31.3110   54.5310 N   0  0  0  0  0  0  0  0  0  0  0  0
   52.7390   30.5270   55.0340 C   0  0  0  0  0  0  0  0  0  0  0  0
   53.4570   29.9300   54.0010 C   0  0  0  0  0  0  0  0  0  0  0  0
   54.5990   29.0030   54.1620 C   0  0  0  0  0  0  0  0  0  0  0  0
   54.4010   27.6900   54.3240 C   0  0  0  0  0  0  0  0  0  0  0  0
   55.5450   26.7750   54.4730 C   0  0  0  0  0  0  0  0  0  0  0  0
   56.7610   27.2170   54.6720 N   0  0  0  0  0  0  0  0  0  0  0  0
   57.8160   26.1990   54.8870 C   0  0  0  0  0  0  0  0  0  0  0  0
   57.7660   25.0480   53.8940 C   0  0  0  0  0  0  0  0  0  0  0  0
   58.9130   26.0490   53.8380 C   0  0  0  0  0  0  0  0  0  0  0  0
   56.9920   28.6700   54.8550 C   0  0  0  0  0  0  0  0  0  0  0  0
   56.0070   29.5190   54.0350 C   0  0  0  0  0  0  0  0  0  0  0  0
   52.8860   30.3990   52.8270 C   0  0  0  0  0  0  0  0  0  0  0  0
   53.2260   30.2000   51.4870 C   0  0  0  0  0  0  0  0  0  0  0  0
   52.4590   30.8540   50.5060 C   0  0  0  0  0  0  0  0  0  0  0  0
   51.3900   31.6980   50.8780 C   0  0  0  0  0  0  0  0  0  0  0  0
   50.6440   32.3390   49.8960 O   0  0  0  0  0  0  0  0  0  0  0  0
   51.0820   31.8990   52.2340 C   0  0  0  0  0  0  0  0  0  0  0  0
   51.8560   31.2340   53.1890 C   0  0  0  0  0  0  0  0  0  0  0  0
   50.9922   31.9625   56.3755 H   0  0  0  0  0  0  0  0  0  0  0  0
   50.9495   33.1781   55.0537 H   0  0  0  0  0  0  0  0  0  0  0  0
   49.7855   31.8100   55.0537 H   0  0  0  0  0  0  0  0  0  0  0  0
   52.9406   30.3819   56.1056 H   0  0  0  0  0  0  0  0  0  0  0  0
   53.3762   27.2910   54.3461 H   0  0  0  0  0  0  0  0  0  0  0  0
   55.3731   25.6900   54.4155 H   0  0  0  0  0  0  0  0  0  0  0  0
   57.8349   26.3226   55.9799 H   0  0  0  0  0  0  0  0  0  0  0  0
   57.9508   24.0189   54.2357 H   0  0  0  0  0  0  0  0  0  0  0  0
   57.0236   24.6757   53.1727 H   0  0  0  0  0  0  0  0  0  0  0  0
   59.9255   25.7434   54.1403 H   0  0  0  0  0  0  0  0  0  0  0  0
   59.3418   26.6992   53.0613 H   0  0  0  0  0  0  0  0  0  0  0  0
   56.8720   28.9170   55.9202 H   0  0  0  0  0  0  0  0  0  0  0  0
   58.0095   28.8984   54.5050 H   0  0  0  0  0  0  0  0  0  0  0  0
   56.0417   30.5571   54.3972 H   0  0  0  0  0  0  0  0  0  0  0  0
   56.3013   29.4647   52.9765 H   0  0  0  0  0  0  0  0  0  0  0  0
   54.0688   29.5509   51.2071 H   0  0  0  0  0  0  0  0  0  0  0  0
   52.6937   30.7069   49.4414 H   0  0  0  0  0  0  0  0  0  0  0  0
   50.2561   32.5602   52.5351 H   0  0  0  0  0  0  0  0  0  0  0  0
  1  2  1  0
  2  3  1  0
  3  4  2  0
  4  5  1  0
  5  6  2  0
  6  7  1  0
  7  8  2  0
  8  9  1  0
  9 10  1  0
 10 11  1  0
  8 12  1  0
 12 13  1  0
  4 14  1  0
 14 15  2  0
 15 16  1  0
 16 17  2  0
 17 18  1  0
 17 19  1  0
 19 20  2  0
 20  2  1  0
 13  5  1  0
 20 14  1  0
 11  9  1  0
  1 21  1  0
  1 22  1  0
  1 23  1  0
  3 24  1  0
  6 25  1  0
  7 26  1  0
  9 27  1  0
 10 28  1  0
 10 29  1  0
 11 30  1  0
 11 31  1  0
 12 32  1  0
 12 33  1  0
 13 34  1  0
 13 35  1  0
 15 36  1  0
 16 37  1  0
 19 38  1  0
M  CHG  2   8   1  18  -1
M  END
>  <UniqueID>  (55) 
51

>  <SMILES>  (55) 
Cn1cc(C2=CC=[N+](C3CC3)CC2)c2ccc([O-])cc21

>  <Energy>  (55) 
349.4254789761984

>  <Genealogy>  (55) 
Cn1cc(C2=CC=[N+](C3CC3)CC2)c2ccc([O-])cc21 (protonated)
Cn1cc(C2=CC=[N+](C3CC3)CC2)c2ccc([O-])cc21 (3D coordinates assigned)
Cn1cc(C2=CC=[N+](C3CC3)CC2)c2ccc([O-])cc21 (nonaromatic ring conformer: 349.4254789761984 kcal/mol)

>  <smiles>  (55) 
Cn1cc(C2=CC=[N+](C3CC3)CC2)c2ccc(O)cc21

>  <score_type>  (55) 
oracle

>  <origin>  (55) 
adg

>  <m_score__min__energy>  (55) 
-8.0199999999999996

>  <m_primary>  (55) 
energy

$$$$
55:0
     RDKit          3D

 50 53  0  0  0  0  0  0  0  0999 V2000
   58.6390   33.4360   44.3020 C   0  0  0  0  0  0  0  0  0  0  0  0
   57.8760   32.6220   45.6900 S   0  0  0  0  0  0  0  0  0  0  0  0
   56.8350   33.5060   46.3160 O   0  0  0  0  0  0  0  0  0  0  0  0
   57.2120   31.3720   45.1890 O   0  0  0  0  0  0  0  0  0  0  0  0
   59.0760   32.1770   46.8620 N   0  0  0  0  0  0  0  0  0  0  0  0
   58.8280   31.5770   48.1420 C   0  0  0  0  0  0  0  0  0  0  0  0
   58.2800   32.3860   49.1450 C   0  0  0  0  0  0  0  0  0  0  0  0
   58.0060   31.8650   50.4120 C   0  0  0  0  0  0  0  0  0  0  0  0
   58.3210   30.5350   50.7110 C   0  0  0  0  0  0  0  0  0  0  0  0
   57.9980   29.9680   52.0670 C   0  0  0  0  0  0  0  0  0  0  0  0
   56.6680   29.3700   52.0560 N   0  0  0  0  0  0  0  0  0  0  0  0
   55.4790   30.0780   52.4230 C   0  0  0  0  0  0  0  0  0  0  0  0
   55.5530   31.2580   52.8590 O   0  0  0  0  0  0  0  0  0  0  0  0
   54.2030   29.4490   52.2410 N   0  0  0  0  0  0  0  0  0  0  0  0
   52.9700   29.9730   52.7630 C   0  0  0  0  0  0  0  0  0  0  0  0
   52.4030   29.5050   53.9730 C   0  0  0  0  0  0  0  0  0  0  0  0
   51.1770   30.0280   54.4420 C   0  0  0  0  0  0  0  0  0  0  0  0
   50.4910   31.0130   53.7080 C   0  0  0  0  0  0  0  0  0  0  0  0
   51.0600   31.4390   52.5120 C   0  0  0  0  0  0  0  0  0  0  0  0
   50.5800   32.3560   51.6540 N   0  0  0  0  0  0  0  0  0  0  0  0
   51.4490   32.4490   50.6520 N   0  0  0  0  0  0  0  0  0  0  0  0
   52.4780   31.5950   50.8700 C   0  0  0  0  0  0  0  0  0  0  0  0
   52.2450   30.9370   52.0560 C   0  0  0  0  0  0  0  0  0  0  0  0
   58.8990   29.7270   49.7220 C   0  0  0  0  0  0  0  0  0  0  0  0
   59.1440   30.2310   48.4310 C   0  0  0  0  0  0  0  0  0  0  0  0
   59.7630   29.4290   47.4630 O   0  0  0  0  0  0  0  0  0  0  0  0
   59.1190   28.8320   46.3680 C   0  0  0  0  0  0  0  0  0  0  0  0
   59.7880   28.5800   45.1550 C   0  0  0  0  0  0  0  0  0  0  0  0
   59.1180   27.9640   44.0940 C   0  0  0  0  0  0  0  0  0  0  0  0
   57.7800   27.5860   44.2380 C   0  0  0  0  0  0  0  0  0  0  0  0
   57.1130   27.8170   45.4460 C   0  0  0  0  0  0  0  0  0  0  0  0
   55.8190   27.4430   45.5870 F   0  0  0  0  0  0  0  0  0  0  0  0
   57.7830   28.4330   46.5090 C   0  0  0  0  0  0  0  0  0  0  0  0
   59.3489   34.1933   44.6660 H   0  0  0  0  0  0  0  0  0  0  0  0
   59.1750   32.6945   43.6913 H   0  0  0  0  0  0  0  0  0  0  0  0
   57.8644   33.9230   43.6913 H   0  0  0  0  0  0  0  0  0  0  0  0
   58.0629   33.4433   48.9330 H   0  0  0  0  0  0  0  0  0  0  0  0
   57.5407   32.5031   51.1777 H   0  0  0  0  0  0  0  0  0  0  0  0
   58.7406   29.1990   52.3261 H   0  0  0  0  0  0  0  0  0  0  0  0
   58.0227   30.7777   52.8111 H   0  0  0  0  0  0  0  0  0  0  0  0
   54.1670   28.5940   51.6410 H   0  0  0  0  0  0  0  0  0  0  0  0
   52.9215   28.7274   54.5531 H   0  0  0  0  0  0  0  0  0  0  0  0
   50.7551   29.6617   55.3895 H   0  0  0  0  0  0  0  0  0  0  0  0
   49.5390   31.4313   54.0669 H   0  0  0  0  0  0  0  0  0  0  0  0
   53.3486   31.4523   50.2130 H   0  0  0  0  0  0  0  0  0  0  0  0
   59.1644   28.6859   49.9579 H   0  0  0  0  0  0  0  0  0  0  0  0
   60.8432   28.8693   45.0417 H   0  0  0  0  0  0  0  0  0  0  0  0
   59.6436   27.7768   43.1460 H   0  0  0  0  0  0  0  0  0  0  0  0
   57.2511   27.1066   43.4010 H   0  0  0  0  0  0  0  0  0  0  0  0
   57.2582   28.6049   47.4603 H   0  0  0  0  0  0  0  0  0  0  0  0
  1  2  1  0
  2  3  2  0
  2  4  2  0
  2  5  1  0
  5  6  1  0
  6  7  2  0
  7  8  1  0
  8  9  2  0
  9 10  1  0
 10 11  1  0
 11 12  1  0
 12 13  2  0
 12 14  1  0
 14 15  1  0
 15 16  2  0
 16 17  1  0
 17 18  2  0
 18 19  1  0
 19 20  1  0
 20 21  1  0
 21 22  2  0
 22 23  1  0
  9 24  1  0
 24 25  2  0
 25 26  1  0
 26 27  1  0
 27 28  2  0
 28 29  1  0
 29 30  2  0
 30 31  1  0
 31 32  1  0
 31 33  2  0
 25  6  1  0
 33 27  1  0
 23 15  1  0
 23 19  2  0
  1 34  1  0
  1 35  1  0
  1 36  1  0
  7 37  1  0
  8 38  1  0
 10 39  1  0
 10 40  1  0
 14 41  1  0
 16 42  1  0
 17 43  1  0
 18 44  1  0
 22 45  1  0
 24 46  1  0
 28 47  1  0
 29 48  1  0
 30 49  1  0
 33 50  1  0
M  CHG  3   5  -1  11  -1  20  -1
M  END
>  <UniqueID>  (56) 
52

>  <SMILES>  (56) 
CS(=O)(=O)[N-]c1ccc(C[N-]C(=O)Nc2cccc3[n-]ncc23)cc1Oc1cccc(F)c1

>  <Energy>  (56) 
99.55408967324365

>  <Genealogy>  (56) 
CS(=O)(=O)[N-]c1ccc(C[N-]C(=O)Nc2cccc3[n-]ncc23)cc1Oc1cccc(F)c1 (protonated)
CS(=O)(=O)[N-]c1ccc(C[N-]C(=O)Nc2cccc3[n-]ncc23)cc1Oc1cccc(F)c1 (3D coordinates assigned)
CS(=O)(=O)[N-]c1ccc(C[N-]C(=O)Nc2cccc3[n-]ncc23)cc1Oc1cccc(F)c1 (optimized conformer: 99.55408967324365 kcal/mol)

>  <smiles>  (56) 
CS(=O)(=O)Nc1ccc(CNC(=O)Nc2cccc3[nH]ncc23)cc1Oc1cccc(F)c1

>  <score_type>  (56) 
oracle

>  <origin>  (56) 
adg

>  <m_score__min__energy>  (56) 
-15.01

>  <m_primary>  (56) 
energy

$$$$
56:0
     RDKit          3D

 40 41  0  0  0  0  0  0  0  0999 V2000
   55.1440   29.3530   44.8520 O   0  0  0  0  0  0  0  0  0  0  0  0
   56.3400   29.7170   44.6930 C   0  0  0  0  0  0  0  0  0  0  0  0
   57.3930   28.7000   44.3880 C   0  0  0  0  0  0  0  0  0  0  0  0
   58.2480   28.4380   45.6320 C   0  0  0  0  0  0  0  0  0  0  0  0
   57.8890   27.0970   46.2800 C   0  0  0  0  0  0  0  0  0  0  0  0
   56.4380   26.9080   46.2980 N   0  0  0  0  0  0  0  0  0  0  0  0
   55.8360   25.7580   46.2690 C   0  0  0  0  0  0  0  0  0  0  0  0
   56.3980   24.6540   46.8410 N   0  0  0  0  0  0  0  0  0  0  0  0
   55.7710   23.4520   46.8100 C   0  0  0  0  0  0  0  0  0  0  0  0
   54.5310   23.3310   46.1820 C   0  0  0  0  0  0  0  0  0  0  0  0
   53.9680   24.4650   45.6000 C   0  0  0  0  0  0  0  0  0  0  0  0
   54.6270   25.6530   45.6540 N   0  0  0  0  0  0  0  0  0  0  0  0
   56.7090   31.0930   44.8470 N   0  0  0  0  0  0  0  0  0  0  0  0
   57.9540   31.6560   44.3400 C   0  0  0  0  0  0  0  0  0  0  0  0
   58.4360   32.7490   45.2610 C   0  0  0  0  0  0  0  0  0  0  0  0
   58.7570   34.0020   44.7110 C   0  0  0  0  0  0  0  0  0  0  0  0
   59.2340   35.0320   45.5230 C   0  0  0  0  0  0  0  0  0  0  0  0
   59.3970   34.8220   46.8920 C   0  0  0  0  0  0  0  0  0  0  0  0
   59.0940   33.5790   47.4530 C   0  0  0  0  0  0  0  0  0  0  0  0
   58.6170   32.5250   46.6440 C   0  0  0  0  0  0  0  0  0  0  0  0
   58.3230   31.2560   47.1760 O   0  0  0  0  0  0  0  0  0  0  0  0
   59.1920   30.4790   47.9970 C   0  0  0  0  0  0  0  0  0  0  0  0
   59.6070   31.2220   49.0890 F   0  0  0  0  0  0  0  0  0  0  0  0
   60.3020   30.1160   47.2580 F   0  0  0  0  0  0  0  0  0  0  0  0
   58.5460   29.3320   48.4230 F   0  0  0  0  0  0  0  0  0  0  0  0
   56.9125   27.7621   44.0727 H   0  0  0  0  0  0  0  0  0  0  0  0
   58.0376   29.0799   43.5816 H   0  0  0  0  0  0  0  0  0  0  0  0
   59.3088   28.4233   45.3414 H   0  0  0  0  0  0  0  0  0  0  0  0
   58.0560   29.2390   46.3610 H   0  0  0  0  0  0  0  0  0  0  0  0
   58.3530   26.2817   45.7055 H   0  0  0  0  0  0  0  0  0  0  0  0
   58.2611   27.0914   47.3151 H   0  0  0  0  0  0  0  0  0  0  0  0
   56.2391   22.5740   47.2791 H   0  0  0  0  0  0  0  0  0  0  0  0
   54.0099   22.3629   46.1471 H   0  0  0  0  0  0  0  0  0  0  0  0
   52.9917   24.3991   45.0975 H   0  0  0  0  0  0  0  0  0  0  0  0
   58.7158   30.8645   44.2834 H   0  0  0  0  0  0  0  0  0  0  0  0
   57.7798   32.0769   43.3387 H   0  0  0  0  0  0  0  0  0  0  0  0
   58.6312   34.1722   43.6316 H   0  0  0  0  0  0  0  0  0  0  0  0
   59.4814   36.0094   45.0832 H   0  0  0  0  0  0  0  0  0  0  0  0
   59.7652   35.6374   47.5319 H   0  0  0  0  0  0  0  0  0  0  0  0
   59.2281   33.4203   48.5332 H   0  0  0  0  0  0  0  0  0  0  0  0
  1  2  2  0
  2  3  1  0
  3  4  1  0
  4  5  1  0
  5  6  1  0
  6  7  2  3
  7  8  1  0
  8  9  2  0
  9 10  1  0
 10 11  2  0
 11 12  1  0
  2 13  1  0
 13 14  1  0
 14 15  1  0
 15 16  2  0
 16 17  1  0
 17 18  2  0
 18 19  1  0
 19 20  2  0
 20 21  1  0
 21 22  1  0
 22 23  1  0
 22 24  1  0
 22 25  1  0
 12  7  1  0
 20 15  1  0
  3 26  1  0
  3 27  1  0
  4 28  1  0
  4 29  1  0
  5 30  1  0
  5 31  1  0
  9 32  1  0
 10 33  1  0
 11 34  1  0
 14 35  1  0
 14 36  1  0
 16 37  1  0
 17 38  1  0
 18 39  1  0
 19 40  1  0
M  CHG  2  12  -1  13  -1
M  END
>  <UniqueID>  (57) 
53

>  <SMILES>  (57) 
O=C(CCCN=c1nccc[n-]1)[N-]Cc1ccccc1OC(F)(F)F

>  <Energy>  (57) 
33.96653488859525

>  <Genealogy>  (57) 
O=C(CCCN=c1nccc[n-]1)[N-]Cc1ccccc1OC(F)(F)F (protonated)
O=C(CCCN=c1nccc[n-]1)[N-]Cc1ccccc1OC(F)(F)F (3D coordinates assigned)
O=C(CCCN=c1nccc[n-]1)[N-]Cc1ccccc1OC(F)(F)F (optimized conformer: 33.96653488859525 kcal/mol)

>  <smiles>  (57) 
O=C(CCCN=c1nccc[nH]1)NCc1ccccc1OC(F)(F)F

>  <score_type>  (57) 
oracle

>  <origin>  (57) 
adg

>  <m_score__min__energy>  (57) 
-10.52

>  <m_primary>  (57) 
energy

$$$$
57:0
     RDKit          3D

 31 32  0  0  0  0  0  0  0  0999 V2000
   60.6300   31.5690   48.9520 C   0  0  0  0  0  0  0  0  0  0  0  0
   59.9880   30.4650   49.5810 O   0  0  0  0  0  0  0  0  0  0  0  0
   58.8920   30.5750   50.4490 C   0  0  0  0  0  0  0  0  0  0  0  0
   58.1470   31.7600   50.4350 C   0  0  0  0  0  0  0  0  0  0  0  0
   57.0460   31.9190   51.2810 C   0  0  0  0  0  0  0  0  0  0  0  0
   56.6800   30.8940   52.1650 C   0  0  0  0  0  0  0  0  0  0  0  0
   55.4760   31.0480   53.0520 C   0  0  0  0  0  0  0  0  0  0  0  0
   54.2880   30.3540   52.4410 C   0  0  0  0  0  0  0  0  0  0  0  0
   54.4620   29.3580   51.7560 O   0  0  0  0  0  0  0  0  0  0  0  0
   52.8930   30.8650   52.6650 C   0  0  0  0  0  0  0  0  0  0  0  0
   52.1470   30.9110   51.3680 C   0  0  0  0  0  0  0  0  0  0  0  0
   52.2370   29.9850   50.4020 N   0  0  0  0  0  0  0  0  0  0  0  0
   51.4690   30.4620   49.4020 C   0  0  0  0  0  0  0  0  0  0  0  0
   51.3030   29.8520   48.3130 O   0  0  0  0  0  0  0  0  0  0  0  0
   50.8950   31.6550   49.6690 N   0  0  0  0  0  0  0  0  0  0  0  0
   51.3390   31.9280   50.9110 C   0  0  0  0  0  0  0  0  0  0  0  0
   51.0180   33.0850   51.6080 O   0  0  0  0  0  0  0  0  0  0  0  0
   57.4150   29.6980   52.1730 C   0  0  0  0  0  0  0  0  0  0  0  0
   58.5160   29.5390   51.3270 C   0  0  0  0  0  0  0  0  0  0  0  0
   61.0257   32.2495   49.7204 H   0  0  0  0  0  0  0  0  0  0  0  0
   61.4566   31.2038   48.3248 H   0  0  0  0  0  0  0  0  0  0  0  0
   59.9038   32.1068   48.3248 H   0  0  0  0  0  0  0  0  0  0  0  0
   58.4309   32.5739   49.7516 H   0  0  0  0  0  0  0  0  0  0  0  0
   56.4642   32.8521   51.2532 H   0  0  0  0  0  0  0  0  0  0  0  0
   55.6900   30.6041   54.0354 H   0  0  0  0  0  0  0  0  0  0  0  0
   55.2477   32.1181   53.1647 H   0  0  0  0  0  0  0  0  0  0  0  0
   52.3683   30.1960   53.3629 H   0  0  0  0  0  0  0  0  0  0  0  0
   52.9449   31.8797   53.0864 H   0  0  0  0  0  0  0  0  0  0  0  0
   52.7880   29.0970   50.4160 H   0  0  0  0  0  0  0  0  0  0  0  0
   57.1226   28.8811   52.8492 H   0  0  0  0  0  0  0  0  0  0  0  0
   59.0912   28.6016   51.3466 H   0  0  0  0  0  0  0  0  0  0  0  0
  1  2  1  0
  2  3  1  0
  3  4  2  0
  4  5  1  0
  5  6  2  0
  6  7  1  0
  7  8  1  0
  8  9  2  0
  8 10  1  0
 10 11  1  0
 11 12  1  0
 12 13  1  0
 13 14  2  0
 13 15  1  0
 15 16  1  0
 16 17  1  0
  6 18  1  0
 18 19  2  0
 19  3  1  0
 16 11  2  0
  1 20  1  0
  1 21  1  0
  1 22  1  0
  4 23  1  0
  5 24  1  0
  7 25  1  0
  7 26  1  0
 10 27  1  0
 10 28  1  0
 12 29  1  0
 18 30  1  0
 19 31  1  0
M  CHG  2  15  -1  17  -1
M  END
>  <UniqueID>  (58) 
54

>  <SMILES>  (58) 
COc1ccc(CC(=O)Cc2[nH]c(=O)[n-]c2[O-])cc1

>  <Energy>  (58) 
56.774281317217365

>  <Genealogy>  (58) 
COc1ccc(CC(=O)Cc2[nH]c(=O)[n-]c2[O-])cc1 (protonated)
COc1ccc(CC(=O)Cc2[nH]c(=O)[n-]c2[O-])cc1 (3D coordinates assigned)
COc1ccc(CC(=O)Cc2[nH]c(=O)[n-]c2[O-])cc1 (optimized conformer: 56.774281317217365 kcal/mol)

>  <smiles>  (58) 
COc1ccc(CC(=O)Cc2[nH]c(=O)[nH]c2O)cc1

>  <score_type>  (58) 
oracle

>  <origin>  (58) 
adg

>  <m_score__min__energy>  (58) 
-12.470000000000001

>  <m_primary>  (58) 
energy

$$$$
58:0
     RDKit          3D

 54 57  0  0  0  0  0  0  0  0999 V2000
   51.9690   20.9350   51.1070 C   0  0  0  0  0  0  0  0  0  0  0  0
   52.7570   21.4840   50.0100 N   0  0  0  0  0  0  0  0  0  0  0  0
   52.1330   21.9990   48.8230 C   0  0  0  0  0  0  0  0  0  0  0  0
   50.8760   22.1230   48.7850 O   0  0  0  0  0  0  0  0  0  0  0  0
   52.9340   22.4270   47.6440 C   0  0  0  0  0  0  0  0  0  0  0  0
   52.3780   22.2920   46.3620 C   0  0  0  0  0  0  0  0  0  0  0  0
   53.0930   22.6220   45.2570 N   0  0  0  0  0  0  0  0  0  0  0  0
   54.3610   23.0990   45.3360 C   0  0  0  0  0  0  0  0  0  0  0  0
   55.0650   23.3960   44.1660 C   0  0  0  0  0  0  0  0  0  0  0  0
   56.3780   23.8670   44.2370 C   0  0  0  0  0  0  0  0  0  0  0  0
   56.9900   24.0650   45.4840 C   0  0  0  0  0  0  0  0  0  0  0  0
   58.2950   24.5590   45.5710 O   0  0  0  0  0  0  0  0  0  0  0  0
   58.6450   25.9080   45.4090 C   0  0  0  0  0  0  0  0  0  0  0  0
   59.7710   26.4640   46.0460 C   0  0  0  0  0  0  0  0  0  0  0  0
   60.0430   27.8290   45.9280 C   0  0  0  0  0  0  0  0  0  0  0  0
   59.1980   28.6500   45.1810 C   0  0  0  0  0  0  0  0  0  0  0  0
   58.0640   28.1090   44.5460 C   0  0  0  0  0  0  0  0  0  0  0  0
   57.1690   28.9370   43.7930 N   0  0  0  0  0  0  0  0  0  0  0  0
   56.2050   29.8100   44.3840 C   0  0  0  0  0  0  0  0  0  0  0  0
   55.1510   29.3220   44.8680 O   0  0  0  0  0  0  0  0  0  0  0  0
   56.4990   31.2090   44.5240 N   0  0  0  0  0  0  0  0  0  0  0  0
   57.3950   31.7470   45.2970 C   0  0  0  0  0  0  0  0  0  0  0  0
   58.0080   32.9800   45.1430 C   0  0  0  0  0  0  0  0  0  0  0  0
   58.8880   33.0190   46.2050 C   0  0  0  0  0  0  0  0  0  0  0  0
   59.8200   34.1510   46.5460 C   0  0  0  0  0  0  0  0  0  0  0  0
   59.6530   34.5640   48.0120 C   0  0  0  0  0  0  0  0  0  0  0  0
   59.5690   35.3390   45.6100 C   0  0  0  0  0  0  0  0  0  0  0  0
   58.7700   31.9110   46.9040 O   0  0  0  0  0  0  0  0  0  0  0  0
   57.8810   31.1170   46.3810 N   0  0  0  0  0  0  0  0  0  0  0  0
   57.8100   26.7350   44.6470 C   0  0  0  0  0  0  0  0  0  0  0  0
   56.2810   23.7870   46.6610 C   0  0  0  0  0  0  0  0  0  0  0  0
   54.9710   23.2760   46.5990 C   0  0  0  0  0  0  0  0  0  0  0  0
   54.2560   22.9140   47.7590 C   0  0  0  0  0  0  0  0  0  0  0  0
   54.8130   22.9860   48.8870 O   0  0  0  0  0  0  0  0  0  0  0  0
   52.4111   21.2430   52.0660 H   0  0  0  0  0  0  0  0  0  0  0  0
   50.9373   21.3108   51.0413 H   0  0  0  0  0  0  0  0  0  0  0  0
   51.9641   19.8370   51.0413 H   0  0  0  0  0  0  0  0  0  0  0  0
   53.7920   21.5590   50.1350 H   0  0  0  0  0  0  0  0  0  0  0  0
   51.3507   21.9143   46.2520 H   0  0  0  0  0  0  0  0  0  0  0  0
   54.5838   23.2585   43.1864 H   0  0  0  0  0  0  0  0  0  0  0  0
   56.9338   24.0833   43.3127 H   0  0  0  0  0  0  0  0  0  0  0  0
   60.4387   25.8212   46.6385 H   0  0  0  0  0  0  0  0  0  0  0  0
   60.9256   28.2576   46.4253 H   0  0  0  0  0  0  0  0  0  0  0  0
   59.4185   29.7236   45.0878 H   0  0  0  0  0  0  0  0  0  0  0  0
   57.8357   33.7397   44.3664 H   0  0  0  0  0  0  0  0  0  0  0  0
   60.8568   33.8109   46.4068 H   0  0  0  0  0  0  0  0  0  0  0  0
   59.9850   33.7429   48.6644 H   0  0  0  0  0  0  0  0  0  0  0  0
   60.2597   35.4595   48.2121 H   0  0  0  0  0  0  0  0  0  0  0  0
   58.5944   34.7861   48.2121 H   0  0  0  0  0  0  0  0  0  0  0  0
   59.3781   36.2426   46.2075 H   0  0  0  0  0  0  0  0  0  0  0  0
   60.4532   35.4990   44.9755 H   0  0  0  0  0  0  0  0  0  0  0  0
   58.6957   35.1277   44.9755 H   0  0  0  0  0  0  0  0  0  0  0  0
   56.9459   26.3012   44.1225 H   0  0  0  0  0  0  0  0  0  0  0  0
   56.7512   23.9693   47.6386 H   0  0  0  0  0  0  0  0  0  0  0  0
  1  2  1  0
  2  3  1  0
  3  4  2  0
  3  5  1  0
  5  6  2  0
  6  7  1  0
  7  8  1  0
  8  9  2  0
  9 10  1  0
 10 11  2  0
 11 12  1  0
 12 13  1  0
 13 14  2  0
 14 15  1  0
 15 16  2  0
 16 17  1  0
 17 18  1  0
 18 19  1  0
 19 20  2  0
 19 21  1  0
 21 22  2  3
 22 23  1  0
 23 24  2  0
 24 25  1  0
 25 26  1  0
 25 27  1  0
 24 28  1  0
 28 29  1  0
 17 30  2  0
 11 31  1  0
 31 32  2  0
 32 33  1  0
 33 34  2  0
 33  5  1  0
 32  8  1  0
 30 13  1  0
 29 22  1  0
  1 35  1  0
  1 36  1  0
  1 37  1  0
  2 38  1  0
  6 39  1  0
  9 40  1  0
 10 41  1  0
 14 42  1  0
 15 43  1  0
 16 44  1  0
 23 45  1  0
 25 46  1  0
 26 47  1  0
 26 48  1  0
 26 49  1  0
 27 50  1  0
 27 51  1  0
 27 52  1  0
 30 53  1  0
 31 54  1  0
M  CHG  3   7  -1  18  -1  29  -1
M  END
>  <UniqueID>  (59) 
55

>  <SMILES>  (59) 
CNC(=O)c1c[n-]c2ccc(Oc3cccc([N-]C(=O)N=c4cc(C(C)C)o[n-]4)c3)cc2c1=O

>  <Energy>  (59) 
107.02483506155905

>  <Genealogy>  (59) 
CNC(=O)c1c[n-]c2ccc(Oc3cccc([N-]C(=O)N=c4cc(C(C)C)o[n-]4)c3)cc2c1=O (protonated)
CNC(=O)c1c[n-]c2ccc(Oc3cccc([N-]C(=O)N=c4cc(C(C)C)o[n-]4)c3)cc2c1=O (3D coordinates assigned)
CNC(=O)c1c[n-]c2ccc(Oc3cccc([N-]C(=O)N=c4cc(C(C)C)o[n-]4)c3)cc2c1=O (optimized conformer: 107.02483506155905 kcal/mol)

>  <smiles>  (59) 
CNC(=O)c1c[nH]c2ccc(Oc3cccc(NC(=O)N=c4cc(C(C)C)o[nH]4)c3)cc2c1=O

>  <score_type>  (59) 
oracle

>  <origin>  (59) 
adg

>  <m_score__min__energy>  (59) 
-13.42

>  <m_primary>  (59) 
energy

$$$$
59:0
     RDKit          3D

 61 63  0  0  1  0  0  0  0  0999 V2000
   56.5460   24.7170   45.6580 C   0  0  0  0  0  0  0  0  0  0  0  0
   56.3270   26.1260   46.0400 C   0  0  0  0  0  0  0  0  0  0  0  0
   55.1390   26.5490   46.0160 O   0  0  0  0  0  0  0  0  0  0  0  0
   57.3810   27.0500   46.4300 C   0  0  0  0  0  0  0  0  0  0  0  0
   58.3240   26.6460   47.3740 C   0  0  0  0  0  0  0  0  0  0  0  0
   59.3060   27.4380   47.8810 C   0  0  0  0  0  0  0  0  0  0  0  0
   60.3870   27.1000   48.7560 C   0  0  0  0  0  0  0  0  0  0  0  0
   60.7880   27.6980   49.8430 C   0  0  0  0  0  0  0  0  0  0  0  0
   59.9060   28.7720   50.8410 S   0  0  0  0  0  0  0  0  0  0  0  0
   59.4840   28.2350   52.1730 O   0  0  0  0  0  0  0  0  0  0  0  0
   58.7500   29.3620   50.1120 O   0  0  0  0  0  0  0  0  0  0  0  0
   60.9780   30.1510   51.1240 N   0  0  0  0  0  0  0  0  0  0  0  0
   61.4000   30.8000   50.0930 C   0  0  0  0  0  0  0  0  0  0  0  0
   62.6530   31.3390   49.8460 C   0  0  0  0  0  0  0  0  0  0  0  0
   62.6670   31.9520   48.6140 C   0  0  0  0  0  0  0  0  0  0  0  0
   63.7620   32.6570   47.9240 C   0  0  0  0  0  0  0  0  0  0  0  0
   64.7440   33.1770   48.9740 C   0  0  0  0  0  0  0  0  0  0  0  0
   63.2920   33.8090   47.0980 C   0  0  0  0  0  0  0  0  0  0  0  0
   61.4090   31.7750   48.1250 N   0  0  0  0  0  0  0  0  0  0  0  0
   60.6780   31.1040   48.9910 N   0  0  0  0  0  0  0  0  0  0  0  0
   59.3220   28.7510   47.3850 C   0  0  0  0  0  0  0  0  0  0  0  0
   58.4000   29.1610   46.4540 C   0  0  0  0  0  0  0  0  0  0  0  0
   57.4200   28.3320   45.9580 C   0  0  0  0  0  0  0  0  0  0  0  0
   56.3050   29.0070   44.7500 S   0  0  0  0  0  0  0  0  0  0  0  0
   56.8880   30.4840   43.9840 C   0  0  0  0  0  0  0  0  0  0  0  0
   56.9990   30.7310   42.6490 C   0  0  0  0  0  0  0  0  0  0  0  0
   57.4810   31.9530   42.1590 C   0  0  0  0  0  0  0  0  0  0  0  0
   57.8640   32.9600   43.0000 C   0  0  0  0  0  0  0  0  0  0  0  0
   57.7570   32.7240   44.3590 C   0  0  0  0  0  0  0  0  0  0  0  0
   58.1590   33.7820   45.2240 N   0  0  0  0  0  0  0  0  0  0  0  0
   59.2560   33.4520   46.5330 S   0  0  0  0  0  0  0  0  0  0  0  0
   59.2540   34.8250   47.6860 C   0  0  0  0  0  0  0  0  0  0  0  0
   58.9030   32.1880   47.2560 O   0  0  0  0  0  0  0  0  0  0  0  0
   60.6540   33.3640   45.9830 O   0  0  0  0  0  0  0  0  0  0  0  0
   57.2840   31.5250   44.8390 C   0  0  0  0  0  0  0  0  0  0  0  0
   56.6416   24.1018   46.5649 H   0  0  0  0  0  0  0  0  0  0  0  0
   55.6923   24.3617   45.0622 H   0  0  0  0  0  0  0  0  0  0  0  0
   57.4673   24.6376   45.0622 H   0  0  0  0  0  0  0  0  0  0  0  0
   58.2695   25.6086   47.7358 H   0  0  0  0  0  0  0  0  0  0  0  0
   60.9624   26.2071   48.4703 H   0  0  0  0  0  0  0  0  0  0  0  0
   61.8206   27.4859   50.1572 H   0  0  0  0  0  0  0  0  0  0  0  0
   63.5099   31.2847   50.5335 H   0  0  0  0  0  0  0  0  0  0  0  0
   64.2343   31.9370   47.2395 H   0  0  0  0  0  0  0  0  0  0  0  0
   64.3500   32.9684   49.9796 H   0  0  0  0  0  0  0  0  0  0  0  0
   65.7146   32.6746   48.8489 H   0  0  0  0  0  0  0  0  0  0  0  0
   64.8740   34.2621   48.8489 H   0  0  0  0  0  0  0  0  0  0  0  0
   62.9599   34.6229   47.7592 H   0  0  0  0  0  0  0  0  0  0  0  0
   64.1165   34.1656   46.4632 H   0  0  0  0  0  0  0  0  0  0  0  0
   62.4533   33.4870   46.4632 H   0  0  0  0  0  0  0  0  0  0  0  0
   61.1040   32.1310   47.1980 H   0  0  0  0  0  0  0  0  0  0  0  0
   59.6720   30.8650   48.7970 H   0  0  0  0  0  0  0  0  0  0  0  0
   60.0819   29.4595   47.7463 H   0  0  0  0  0  0  0  0  0  0  0  0
   58.4467   30.1975   46.0886 H   0  0  0  0  0  0  0  0  0  0  0  0
   56.7019   29.9490   41.9347 H   0  0  0  0  0  0  0  0  0  0  0  0
   57.5526   32.1049   41.0719 H   0  0  0  0  0  0  0  0  0  0  0  0
   58.2415   33.9178   42.6126 H   0  0  0  0  0  0  0  0  0  0  0  0
   57.7820   34.7350   45.0500 H   0  0  0  0  0  0  0  0  0  0  0  0
   59.2546   34.4388   48.7160 H   0  0  0  0  0  0  0  0  0  0  0  0
   60.1513   35.4406   47.5247 H   0  0  0  0  0  0  0  0  0  0  0  0
   58.3550   35.4380   47.5247 H   0  0  0  0  0  0  0  0  0  0  0  0
   57.2137   31.3770   45.9267 H   0  0  0  0  0  0  0  0  0  0  0  0
  1  2  1  0
  2  3  2  0
  2  4  1  0
  4  5  2  0
  5  6  1  0
  6  7  1  0
  7  8  2  0
  8  9  1  0
  9 10  2  0
  9 11  2  0
  9 12  1  0
 12 13  2  0
 13 14  1  0
 14 15  2  0
 15 16  1  0
 16 17  1  0
 16 18  1  0
 15 19  1  0
 19 20  1  0
  6 21  2  0
 21 22  1  0
 22 23  2  0
 23 24  1  0
 24 25  1  0
 25 26  2  0
 26 27  1  0
 27 28  2  0
 28 29  1  0
 29 30  1  0
 30 31  1  0
 31 32  1  0
 31 33  2  0
 31 34  2  0
 29 35  2  0
 23  4  1  0
 35 25  1  0
 20 13  1  0
  1 36  1  0
  1 37  1  0
  1 38  1  0
  5 39  1  0
  7 40  1  0
  8 41  1  0
 14 42  1  0
 16 43  1  0
 17 44  1  0
 17 45  1  0
 17 46  1  0
 18 47  1  0
 18 48  1  0
 18 49  1  0
 19 50  1  0
 20 51  1  0
 21 52  1  0
 22 53  1  0
 26 54  1  0
 27 55  1  0
 28 56  1  0
 30 57  1  0
 32 58  1  0
 32 59  1  0
 32 60  1  0
 35 61  1  0
M  END
>  <smiles>  (60) 
CC(=O)c1cc(C=CS(=O)(=O)N=c2cc(C(C)C)[nH][nH]2)ccc1Sc1cccc(NS(C)(=O)=O)c1

>  <score_type>  (60) 
oracle

>  <origin>  (60) 
adg

>  <m_score__min__energy>  (60) 
-11.210000000000001

>  <m_primary>  (60) 
energy

$$$$
60:0
     RDKit          3D

 56 59  0  0  0  0  0  0  0  0999 V2000
   56.8870   24.7130   44.8910 C   0  0  0  0  0  0  0  0  0  0  0  0
   56.8100   25.4590   46.0990 O   0  0  0  0  0  0  0  0  0  0  0  0
   57.3010   26.7620   46.2630 C   0  0  0  0  0  0  0  0  0  0  0  0
   56.6930   27.7930   45.5370 C   0  0  0  0  0  0  0  0  0  0  0  0
   57.1600   29.1030   45.6320 C   0  0  0  0  0  0  0  0  0  0  0  0
   56.5530   30.1080   44.8160 N   0  0  0  0  0  0  0  0  0  0  0  0
   57.3890   31.4720   44.1420 S   0  0  0  0  0  0  0  0  0  0  0  0
   57.0170   31.6130   42.6890 O   0  0  0  0  0  0  0  0  0  0  0  0
   58.8770   31.2730   44.2740 O   0  0  0  0  0  0  0  0  0  0  0  0
   56.8860   32.9450   45.0130 C   0  0  0  0  0  0  0  0  0  0  0  0
   57.9870   33.4390   45.9040 C   0  0  0  0  0  0  0  0  0  0  0  0
   58.1520   32.8850   47.1870 C   0  0  0  0  0  0  0  0  0  0  0  0
   59.1690   33.3600   48.0290 C   0  0  0  0  0  0  0  0  0  0  0  0
   60.0290   34.3840   47.5920 C   0  0  0  0  0  0  0  0  0  0  0  0
   59.8710   34.9360   46.3140 C   0  0  0  0  0  0  0  0  0  0  0  0
   58.8510   34.4700   45.4720 C   0  0  0  0  0  0  0  0  0  0  0  0
   58.2150   29.3970   46.5110 C   0  0  0  0  0  0  0  0  0  0  0  0
   58.8410   28.3800   47.2550 C   0  0  0  0  0  0  0  0  0  0  0  0
   59.9970   28.7120   48.1320 C   0  0  0  0  0  0  0  0  0  0  0  0
   60.2570   27.9700   49.1190 O   0  0  0  0  0  0  0  0  0  0  0  0
   60.8340   29.8510   47.8750 N   0  0  0  0  0  0  0  0  0  0  0  0
   61.5080   30.5610   48.9330 C   0  0  0  0  0  0  0  0  0  0  0  0
   61.3350   30.1440   50.2670 C   0  0  0  0  0  0  0  0  0  0  0  0
   61.9990   30.7870   51.3080 C   0  0  0  0  0  0  0  0  0  0  0  0
   62.8580   31.8480   51.0390 C   0  0  0  0  0  0  0  0  0  0  0  0
   63.0530   32.2870   49.7200 C   0  0  0  0  0  0  0  0  0  0  0  0
   62.3370   31.6810   48.6590 C   0  0  0  0  0  0  0  0  0  0  0  0
   62.5480   32.1590   47.2350 C   0  0  0  0  0  0  0  0  0  0  0  0
   63.3000   33.4950   47.1650 C   0  0  0  0  0  0  0  0  0  0  0  0
   64.4430   33.5050   48.0810 N   0  0  0  0  0  0  0  0  0  0  0  0
   63.9780   33.4560   49.4690 C   0  0  0  0  0  0  0  0  0  0  0  0
   58.3830   27.0590   47.1130 C   0  0  0  0  0  0  0  0  0  0  0  0
   56.9973   23.6442   45.1265 H   0  0  0  0  0  0  0  0  0  0  0  0
   55.9682   24.8666   44.3060 H   0  0  0  0  0  0  0  0  0  0  0  0
   57.7550   25.0511   44.3060 H   0  0  0  0  0  0  0  0  0  0  0  0
   55.8370   27.5668   44.8842 H   0  0  0  0  0  0  0  0  0  0  0  0
   56.6347   33.7279   44.2823 H   0  0  0  0  0  0  0  0  0  0  0  0
   56.0103   32.7057   45.6342 H   0  0  0  0  0  0  0  0  0  0  0  0
   57.4845   32.0805   47.5294 H   0  0  0  0  0  0  0  0  0  0  0  0
   59.2942   32.9304   49.0339 H   0  0  0  0  0  0  0  0  0  0  0  0
   60.8264   34.7517   48.2545 H   0  0  0  0  0  0  0  0  0  0  0  0
   60.5462   35.7340   45.9715 H   0  0  0  0  0  0  0  0  0  0  0  0
   58.7231   34.9088   44.4715 H   0  0  0  0  0  0  0  0  0  0  0  0
   58.5568   30.4369   46.6194 H   0  0  0  0  0  0  0  0  0  0  0  0
   61.0230   30.1070   46.8820 H   0  0  0  0  0  0  0  0  0  0  0  0
   60.6665   29.2992   50.4893 H   0  0  0  0  0  0  0  0  0  0  0  0
   61.8442   30.4556   52.3454 H   0  0  0  0  0  0  0  0  0  0  0  0
   63.3874   32.3457   51.8648 H   0  0  0  0  0  0  0  0  0  0  0  0
   63.1285   31.3993   46.6910 H   0  0  0  0  0  0  0  0  0  0  0  0
   61.5560   32.3117   46.7849 H   0  0  0  0  0  0  0  0  0  0  0  0
   63.6614   33.6505   46.1378 H   0  0  0  0  0  0  0  0  0  0  0  0
   62.6102   34.3002   47.4580 H   0  0  0  0  0  0  0  0  0  0  0  0
   65.0450   32.6730   47.8930 H   0  0  0  0  0  0  0  0  0  0  0  0
   64.8510   33.3658   50.1322 H   0  0  0  0  0  0  0  0  0  0  0  0
   63.4166   34.3803   49.6701 H   0  0  0  0  0  0  0  0  0  0  0  0
   58.8749   26.2491   47.6716 H   0  0  0  0  0  0  0  0  0  0  0  0
  1  2  1  0
  2  3  1  0
  3  4  2  0
  4  5  1  0
  5  6  1  0
  6  7  1  0
  7  8  2  0
  7  9  2  0
  7 10  1  0
 10 11  1  0
 11 12  2  0
 12 13  1  0
 13 14  2  0
 14 15  1  0
 15 16  2  0
  5 17  2  0
 17 18  1  0
 18 19  1  0
 19 20  2  0
 19 21  1  0
 21 22  1  0
 22 23  2  0
 23 24  1  0
 24 25  2  0
 25 26  1  0
 26 27  2  0
 27 28  1  0
 28 29  1  0
 29 30  1  0
 30 31  1  0
 18 32  2  0
 32  3  1  0
 16 11  1  0
 27 22  1  0
 31 26  1  0
  1 33  1  0
  1 34  1  0
  1 35  1  0
  4 36  1  0
 10 37  1  0
 10 38  1  0
 12 39  1  0
 13 40  1  0
 14 41  1  0
 15 42  1  0
 16 43  1  0
 17 44  1  0
 21 45  1  0
 23 46  1  0
 24 47  1  0
 25 48  1  0
 28 49  1  0
 28 50  1  0
 29 51  1  0
 29 52  1  0
 30 53  1  0
 31 54  1  0
 31 55  1  0
 32 56  1  0
M  CHG  1   6  -1
M  END
>  <UniqueID>  (61) 
56

>  <SMILES>  (61) 
COc1cc([N-]S(=O)(=O)Cc2ccccc2)cc(C(=O)Nc2cccc3c2CCNC3)c1

>  <Energy>  (61) 
69.40850758823966

>  <Genealogy>  (61) 
COc1cc([N-]S(=O)(=O)Cc2ccccc2)cc(C(=O)Nc2cccc3c2CCNC3)c1 (protonated)
COc1cc([N-]S(=O)(=O)Cc2ccccc2)cc(C(=O)Nc2cccc3c2CCNC3)c1 (3D coordinates assigned)
COc1cc([N-]S(=O)(=O)Cc2ccccc2)cc(C(=O)Nc2cccc3c2CCNC3)c1 (nonaromatic ring conformer: 69.40850758823966 kcal/mol)

>  <smiles>  (61) 
COc1cc(NS(=O)(=O)Cc2ccccc2)cc(C(=O)Nc2cccc3c2CCNC3)c1

>  <score_type>  (61) 
oracle

>  <origin>  (61) 
adg

>  <m_score__min__energy>  (61) 
-12.01

>  <m_primary>  (61) 
energy

$$$$
61:0
     RDKit          3D

 53 55  0  0  0  0  0  0  0  0999 V2000
   59.2510   34.4170   47.9460 C   0  0  0  0  0  0  0  0  0  0  0  0
   59.1920   33.1900   47.0930 C   0  0  0  0  0  0  0  0  0  0  0  0
   58.5400   33.2180   45.8580 C   0  0  0  0  0  0  0  0  0  0  0  0
   58.4760   32.0580   45.0700 C   0  0  0  0  0  0  0  0  0  0  0  0
   57.7530   32.1170   43.7490 C   0  0  0  0  0  0  0  0  0  0  0  0
   59.0750   30.8630   45.5480 C   0  0  0  0  0  0  0  0  0  0  0  0
   59.0620   29.5720   44.7500 C   0  0  0  0  0  0  0  0  0  0  0  0
   58.2030   28.5670   45.3890 N   0  0  0  0  0  0  0  0  0  0  0  0
   56.8680   28.4040   45.2170 C   0  0  0  0  0  0  0  0  0  0  0  0
   55.9890   29.2990   44.3970 C   0  0  0  0  0  0  0  0  0  0  0  0
   56.4440   27.2980   45.9280 C   0  0  0  0  0  0  0  0  0  0  0  0
   55.1460   26.8050   45.9840 O   0  0  0  0  0  0  0  0  0  0  0  0
   57.5450   26.7550   46.5600 C   0  0  0  0  0  0  0  0  0  0  0  0
   57.5810   25.4920   47.3780 C   0  0  0  0  0  0  0  0  0  0  0  0
   57.3000   24.2440   46.5290 C   0  0  0  0  0  0  0  0  0  0  0  0
   57.2310   23.0040   47.3670 C   0  0  0  0  0  0  0  0  0  0  0  0
   56.8740   23.0750   48.5740 O   0  0  0  0  0  0  0  0  0  0  0  0
   57.5380   21.7400   46.7730 N   0  0  0  0  0  0  0  0  0  0  0  0
   56.5740   20.9540   46.0200 C   0  0  0  0  0  0  0  0  0  0  0  0
   55.6280   21.8850   45.3210 C   0  0  0  0  0  0  0  0  0  0  0  0
   56.0310   22.5780   44.1710 C   0  0  0  0  0  0  0  0  0  0  0  0
   55.1630   23.4920   43.5690 C   0  0  0  0  0  0  0  0  0  0  0  0
   53.9030   23.7110   44.1290 C   0  0  0  0  0  0  0  0  0  0  0  0
   53.5320   23.0430   45.2530 N   0  0  0  0  0  0  0  0  0  0  0  0
   54.3580   22.1480   45.8580 C   0  0  0  0  0  0  0  0  0  0  0  0
   58.6140   27.5580   46.1920 C   0  0  0  0  0  0  0  0  0  0  0  0
   59.9400   27.3710   46.5780 O   0  0  0  0  0  0  0  0  0  0  0  0
   59.7040   30.8860   46.8110 C   0  0  0  0  0  0  0  0  0  0  0  0
   60.2370   29.8450   47.2820 O   0  0  0  0  0  0  0  0  0  0  0  0
   59.7440   32.0320   47.5370 N   0  0  0  0  0  0  0  0  0  0  0  0
   59.2371   34.1270   49.0070 H   0  0  0  0  0  0  0  0  0  0  0  0
   60.1768   34.9701   47.7292 H   0  0  0  0  0  0  0  0  0  0  0  0
   58.3826   35.0564   47.7292 H   0  0  0  0  0  0  0  0  0  0  0  0
   58.0762   34.1500   45.5025 H   0  0  0  0  0  0  0  0  0  0  0  0
   56.6711   32.2053   43.9268 H   0  0  0  0  0  0  0  0  0  0  0  0
   58.1032   32.9896   43.1780 H   0  0  0  0  0  0  0  0  0  0  0  0
   57.9571   31.1992   43.1780 H   0  0  0  0  0  0  0  0  0  0  0  0
   58.6829   29.7783   43.7382 H   0  0  0  0  0  0  0  0  0  0  0  0
   60.0880   29.1780   44.7042 H   0  0  0  0  0  0  0  0  0  0  0  0
   55.3763   29.9228   45.0645 H   0  0  0  0  0  0  0  0  0  0  0  0
   56.6135   29.9449   43.7623 H   0  0  0  0  0  0  0  0  0  0  0  0
   55.3320   28.6862   43.7623 H   0  0  0  0  0  0  0  0  0  0  0  0
   58.5771   25.3934   47.8341 H   0  0  0  0  0  0  0  0  0  0  0  0
   56.7954   25.5632   48.1447 H   0  0  0  0  0  0  0  0  0  0  0  0
   56.3397   24.3761   46.0091 H   0  0  0  0  0  0  0  0  0  0  0  0
   58.1255   24.1259   45.8116 H   0  0  0  0  0  0  0  0  0  0  0  0
   57.1006   20.3366   45.2774 H   0  0  0  0  0  0  0  0  0  0  0  0
   56.0144   20.2972   46.7023 H   0  0  0  0  0  0  0  0  0  0  0  0
   57.0291   22.4023   43.7434 H   0  0  0  0  0  0  0  0  0  0  0  0
   55.4693   24.0341   42.6622 H   0  0  0  0  0  0  0  0  0  0  0  0
   53.2098   24.4249   43.6601 H   0  0  0  0  0  0  0  0  0  0  0  0
   54.0301   21.6288   46.7706 H   0  0  0  0  0  0  0  0  0  0  0  0
   60.4980   28.1310   46.9450 H   0  0  0  0  0  0  0  0  0  0  0  0
  1  2  1  0
  2  3  2  0
  3  4  1  0
  4  5  1  0
  4  6  2  0
  6  7  1  0
  7  8  1  0
  8  9  1  0
  9 10  1  0
  9 11  2  0
 11 12  1  0
 11 13  1  0
 13 14  1  0
 14 15  1  0
 15 16  1  0
 16 17  2  0
 16 18  1  0
 18 19  1  0
 19 20  1  0
 20 21  2  0
 21 22  1  0
 22 23  2  0
 23 24  1  0
 24 25  2  0
 13 26  2  0
 26 27  1  0
  6 28  1  0
 28 29  2  0
 28 30  1  0
 30  2  1  0
 26  8  1  0
 25 20  1  0
  1 31  1  0
  1 32  1  0
  1 33  1  0
  3 34  1  0
  5 35  1  0
  5 36  1  0
  5 37  1  0
  7 38  1  0
  7 39  1  0
 10 40  1  0
 10 41  1  0
 10 42  1  0
 14 43  1  0
 14 44  1  0
 15 45  1  0
 15 46  1  0
 19 47  1  0
 19 48  1  0
 21 49  1  0
 22 50  1  0
 23 51  1  0
 25 52  1  0
 27 53  1  0
M  CHG  3  12  -1  18  -1  30  -1
M  END
>  <UniqueID>  (62) 
57

>  <SMILES>  (62) 
Cc1cc(C)c(Cn2c(C)c([O-])c(CCC(=O)[N-]Cc3cccnc3)c2O)c(=O)[n-]1

>  <Energy>  (62) 
75.42093043196007

>  <Genealogy>  (62) 
Cc1cc(C)c(Cn2c(C)c([O-])c(CCC(=O)[N-]Cc3cccnc3)c2O)c(=O)[n-]1 (protonated)
Cc1cc(C)c(Cn2c(C)c([O-])c(CCC(=O)[N-]Cc3cccnc3)c2O)c(=O)[n-]1 (3D coordinates assigned)
Cc1cc(C)c(Cn2c(C)c([O-])c(CCC(=O)[N-]Cc3cccnc3)c2O)c(=O)[n-]1 (optimized conformer: 75.42093043196007 kcal/mol)

>  <smiles>  (62) 
Cc1cc(C)c(Cn2c(C)c(O)c(CCC(=O)NCc3cccnc3)c2O)c(=O)[nH]1

>  <score_type>  (62) 
oracle

>  <origin>  (62) 
adg

>  <m_score__min__energy>  (62) 
-13.369999999999999

>  <m_primary>  (62) 
energy

$$$$
62:0
     RDKit          3D

 32 33  0  0  0  0  0  0  0  0999 V2000
   59.5340   30.8250   49.1980 C   0  0  0  0  0  0  0  0  0  0  0  0
   59.0410   30.7340   47.7800 C   0  0  0  0  0  0  0  0  0  0  0  0
   59.0640   29.5080   47.1090 C   0  0  0  0  0  0  0  0  0  0  0  0
   58.6120   29.3960   45.7840 C   0  0  0  0  0  0  0  0  0  0  0  0
   58.6400   28.0240   45.1410 C   0  0  0  0  0  0  0  0  0  0  0  0
   57.5290   27.1640   45.6660 C   0  0  0  0  0  0  0  0  0  0  0  0
   57.7090   25.9460   46.2090 N   0  0  0  0  0  0  0  0  0  0  0  0
   56.4540   25.5460   46.5090 C   0  0  0  0  0  0  0  0  0  0  0  0
   56.1290   24.1060   47.2050 S   0  0  0  0  0  0  0  0  0  0  0  0
   55.4880   26.4330   46.1820 N   0  0  0  0  0  0  0  0  0  0  0  0
   56.1860   27.4490   45.6460 C   0  0  0  0  0  0  0  0  0  0  0  0
   55.6090   28.6120   45.1490 O   0  0  0  0  0  0  0  0  0  0  0  0
   58.1170   30.5490   45.1130 C   0  0  0  0  0  0  0  0  0  0  0  0
   57.6190   30.4580   43.6840 C   0  0  0  0  0  0  0  0  0  0  0  0
   58.0150   31.7770   45.8260 C   0  0  0  0  0  0  0  0  0  0  0  0
   57.4210   33.0170   45.1860 C   0  0  0  0  0  0  0  0  0  0  0  0
   56.6790   33.7410   46.1290 O   0  0  0  0  0  0  0  0  0  0  0  0
   58.5090   31.8620   47.1440 C   0  0  0  0  0  0  0  0  0  0  0  0
   58.4680   33.0750   47.8280 O   0  0  0  0  0  0  0  0  0  0  0  0
   58.6927   30.6697   49.8894 H   0  0  0  0  0  0  0  0  0  0  0  0
   60.2980   30.0527   49.3709 H   0  0  0  0  0  0  0  0  0  0  0  0
   59.9719   31.8192   49.3709 H   0  0  0  0  0  0  0  0  0  0  0  0
   59.4428   28.6151   47.6279 H   0  0  0  0  0  0  0  0  0  0  0  0
   58.5266   28.1341   44.0524 H   0  0  0  0  0  0  0  0  0  0  0  0
   59.5999   27.5431   45.3806 H   0  0  0  0  0  0  0  0  0  0  0  0
   54.7490   28.9710   45.5460 H   0  0  0  0  0  0  0  0  0  0  0  0
   56.5369   30.2603   43.6847 H   0  0  0  0  0  0  0  0  0  0  0  0
   57.8179   31.4074   43.1652 H   0  0  0  0  0  0  0  0  0  0  0  0
   58.1408   29.6403   43.1652 H   0  0  0  0  0  0  0  0  0  0  0  0
   58.2328   33.6503   44.7988 H   0  0  0  0  0  0  0  0  0  0  0  0
   56.7566   32.7129   44.3637 H   0  0  0  0  0  0  0  0  0  0  0  0
   57.1840   33.6960   46.9820 H   0  0  0  0  0  0  0  0  0  0  0  0
  1  2  1  0
  2  3  2  0
  3  4  1  0
  4  5  1  0
  5  6  1  0
  6  7  1  0
  7  8  1  0
  8  9  2  0
  8 10  1  0
 10 11  1  0
 11 12  1  0
  4 13  2  0
 13 14  1  0
 13 15  1  0
 15 16  1  0
 16 17  1  0
 15 18  2  0
 18 19  1  0
 18  2  1  0
 11  6  2  0
  1 20  1  0
  1 21  1  0
  1 22  1  0
  3 23  1  0
  5 24  1  0
  5 25  1  0
 12 26  1  0
 14 27  1  0
 14 28  1  0
 14 29  1  0
 16 30  1  0
 16 31  1  0
 17 32  1  0
M  CHG  3   7  -1  10  -1  19  -1
M  END
>  <UniqueID>  (63) 
58

>  <SMILES>  (63) 
Cc1cc(Cc2[n-]c(=S)[n-]c2O)c(C)c(CO)c1[O-]

>  <Energy>  (63) 
64.0010816147139

>  <Genealogy>  (63) 
Cc1cc(Cc2[n-]c(=S)[n-]c2O)c(C)c(CO)c1[O-] (protonated)
Cc1cc(Cc2[n-]c(=S)[n-]c2O)c(C)c(CO)c1[O-] (3D coordinates assigned)
Cc1cc(Cc2[n-]c(=S)[n-]c2O)c(C)c(CO)c1[O-] (optimized conformer: 64.0010816147139 kcal/mol)

>  <smiles>  (63) 
Cc1cc(Cc2[nH]c(=S)[nH]c2O)c(C)c(CO)c1O

>  <score_type>  (63) 
oracle

>  <origin>  (63) 
adg

>  <m_score__min__energy>  (63) 
-11.06

>  <m_primary>  (63) 
energy

$$$$
63:0
     RDKit          3D

 40 42  0  0  0  0  0  0  0  0999 V2000
   59.2590   35.1810   46.4390 O   0  0  0  0  0  0  0  0  0  0  0  0
   58.5060   34.2180   46.7420 C   0  0  0  0  0  0  0  0  0  0  0  0
   57.3850   33.8260   45.8150 C   0  0  0  0  0  0  0  0  0  0  0  0
   57.9930   33.3500   44.1530 S   0  0  0  0  0  0  0  0  0  0  0  0
   57.7670   31.5950   44.4120 C   0  0  0  0  0  0  0  0  0  0  0  0
   58.8490   30.7820   44.5150 N   0  0  0  0  0  0  0  0  0  0  0  0
   58.7030   29.4560   44.7700 C   0  0  0  0  0  0  0  0  0  0  0  0
   57.4260   28.9090   44.9520 C   0  0  0  0  0  0  0  0  0  0  0  0
   57.2840   27.4750   45.2860 C   0  0  0  0  0  0  0  0  0  0  0  0
   58.3110   26.7430   45.2820 O   0  0  0  0  0  0  0  0  0  0  0  0
   55.9990   26.9230   45.6240 N   0  0  0  0  0  0  0  0  0  0  0  0
   55.7920   25.5650   46.0460 C   0  0  0  0  0  0  0  0  0  0  0  0
   56.5820   24.9790   47.0540 C   0  0  0  0  0  0  0  0  0  0  0  0
   56.3390   23.6640   47.4650 C   0  0  0  0  0  0  0  0  0  0  0  0
   55.3010   22.9300   46.8860 C   0  0  0  0  0  0  0  0  0  0  0  0
   54.4960   23.5120   45.9040 C   0  0  0  0  0  0  0  0  0  0  0  0
   53.4810   22.8020   45.3520 F   0  0  0  0  0  0  0  0  0  0  0  0
   54.7350   24.8260   45.4910 C   0  0  0  0  0  0  0  0  0  0  0  0
   56.3200   29.7650   44.7990 C   0  0  0  0  0  0  0  0  0  0  0  0
   55.1420   29.3250   44.8800 O   0  0  0  0  0  0  0  0  0  0  0  0
   56.5170   31.0840   44.5400 N   0  0  0  0  0  0  0  0  0  0  0  0
   58.8710   33.3760   47.8450 N   0  0  0  0  0  0  0  0  0  0  0  0
   59.3630   32.1710   47.7940 C   0  0  0  0  0  0  0  0  0  0  0  0
   60.6000   31.8810   47.1830 C   0  0  0  0  0  0  0  0  0  0  0  0
   61.0550   30.5620   47.1370 C   0  0  0  0  0  0  0  0  0  0  0  0
   60.2840   29.5420   47.6930 C   0  0  0  0  0  0  0  0  0  0  0  0
   59.0590   29.8570   48.2830 C   0  0  0  0  0  0  0  0  0  0  0  0
   58.6310   31.1480   48.3150 N   0  0  0  0  0  0  0  0  0  0  0  0
   56.8459   32.9728   46.2525 H   0  0  0  0  0  0  0  0  0  0  0  0
   56.7257   34.6984   45.6956 H   0  0  0  0  0  0  0  0  0  0  0  0
   59.5905   28.8092   44.8339 H   0  0  0  0  0  0  0  0  0  0  0  0
   55.1520   27.5260   45.5250 H   0  0  0  0  0  0  0  0  0  0  0  0
   57.3933   25.5575   47.5200 H   0  0  0  0  0  0  0  0  0  0  0  0
   56.9660   23.2075   48.2450 H   0  0  0  0  0  0  0  0  0  0  0  0
   55.1175   21.8930   47.2036 H   0  0  0  0  0  0  0  0  0  0  0  0
   54.0907   25.2840   44.7261 H   0  0  0  0  0  0  0  0  0  0  0  0
   61.2034   32.6897   46.7449 H   0  0  0  0  0  0  0  0  0  0  0  0
   62.0197   30.3279   46.6631 H   0  0  0  0  0  0  0  0  0  0  0  0
   60.6373   28.5006   47.6669 H   0  0  0  0  0  0  0  0  0  0  0  0
   58.4394   29.0613   48.7222 H   0  0  0  0  0  0  0  0  0  0  0  0
  1  2  2  0
  2  3  1  0
  3  4  1  0
  4  5  1  0
  5  6  2  0
  6  7  1  0
  7  8  2  0
  8  9  1  0
  9 10  2  0
  9 11  1  0
 11 12  1  0
 12 13  2  0
 13 14  1  0
 14 15  2  0
 15 16  1  0
 16 17  1  0
 16 18  2  0
  8 19  1  0
 19 20  2  0
 19 21  1  0
  2 22  1  0
 22 23  2  3
 23 24  1  0
 24 25  2  0
 25 26  1  0
 26 27  2  0
 27 28  1  0
 21  5  1  0
 28 23  1  0
 18 12  1  0
  3 29  1  0
  3 30  1  0
  7 31  1  0
 11 32  1  0
 13 33  1  0
 14 34  1  0
 15 35  1  0
 18 36  1  0
 24 37  1  0
 25 38  1  0
 26 39  1  0
 27 40  1  0
M  CHG  2  21  -1  28  -1
M  END
>  <UniqueID>  (64) 
59

>  <SMILES>  (64) 
O=C(CSc1ncc(C(=O)Nc2cccc(F)c2)c(=O)[n-]1)N=c1cccc[n-]1

>  <Energy>  (64) 
58.29807070890895

>  <Genealogy>  (64) 
O=C(CSc1ncc(C(=O)Nc2cccc(F)c2)c(=O)[n-]1)N=c1cccc[n-]1 (protonated)
O=C(CSc1ncc(C(=O)Nc2cccc(F)c2)c(=O)[n-]1)N=c1cccc[n-]1 (3D coordinates assigned)
O=C(CSc1ncc(C(=O)Nc2cccc(F)c2)c(=O)[n-]1)N=c1cccc[n-]1 (optimized conformer: 58.29807070890895 kcal/mol)

>  <smiles>  (64) 
O=C(CSc1ncc(C(=O)Nc2cccc(F)c2)c(=O)[nH]1)N=c1cccc[nH]1

>  <score_type>  (64) 
oracle

>  <origin>  (64) 
adg

>  <m_score__min__energy>  (64) 
-11.01

>  <m_primary>  (64) 
energy

$$$$
64:0
     RDKit          3D

 46 48  0  0  0  0  0  0  0  0999 V2000
   55.8483   31.7278   44.6958 H   0  0  0  0  0  0  0  0  0  0  0  0
   56.8660   31.4490   44.3850 C   0  0  0  0  0  0  0  0  0  0  0  0
   57.6160   32.3810   43.7720 C   0  0  0  0  0  0  0  0  0  0  0  0
   57.9760   33.6280   44.5330 C   0  0  0  0  0  0  0  0  0  0  0  0
   57.9182   33.4279   45.6131 H   0  0  0  0  0  0  0  0  0  0  0  0
   58.9994   33.9348   44.2711 H   0  0  0  0  0  0  0  0  0  0  0  0
   57.2736   34.4330   44.2711 H   0  0  0  0  0  0  0  0  0  0  0  0
   58.0340   32.2460   42.3290 C   0  0  0  0  0  0  0  0  0  0  0  0
   59.0797   31.9083   42.2802 H   0  0  0  0  0  0  0  0  0  0  0  0
   57.3875   31.5110   41.8272 H   0  0  0  0  0  0  0  0  0  0  0  0
   57.9396   33.2203   41.8272 H   0  0  0  0  0  0  0  0  0  0  0  0
   57.3230   30.0780   44.6660 C   0  0  0  0  0  0  0  0  0  0  0  0
   58.9310   29.5860   44.6240 S   0  0  0  0  0  0  0  0  0  0  0  0
   58.5420   27.9800   44.9300 C   0  0  0  0  0  0  0  0  0  0  0  0
   59.4310   27.0350   45.0250 N   0  0  0  0  0  0  0  0  0  0  0  0
   59.6230   26.1660   46.1530 C   0  0  0  0  0  0  0  0  0  0  0  0
   59.8380   24.9330   45.9890 O   0  0  0  0  0  0  0  0  0  0  0  0
   59.5220   26.7200   47.5150 C   0  0  0  0  0  0  0  0  0  0  0  0
   58.3910   27.0640   47.9520 O   0  0  0  0  0  0  0  0  0  0  0  0
   60.6550   26.8100   48.3920 N   0  0  0  0  0  0  0  0  0  0  0  0
   60.7610   27.5800   49.4370 C   0  0  0  0  0  0  0  0  0  0  0  0
   61.0010   27.0610   50.6740 N   0  0  0  0  0  0  0  0  0  0  0  0
   61.1290   27.8570   51.7650 C   0  0  0  0  0  0  0  0  0  0  0  0
   61.3610   27.3080   52.9820 F   0  0  0  0  0  0  0  0  0  0  0  0
   61.0190   29.2390   51.6220 C   0  0  0  0  0  0  0  0  0  0  0  0
   61.1153   29.8954   52.4994 H   0  0  0  0  0  0  0  0  0  0  0  0
   60.7920   29.7710   50.3920 N   0  0  0  0  0  0  0  0  0  0  0  0
   60.7200   30.8100   50.3150 H   0  0  0  0  0  0  0  0  0  0  0  0
   60.6660   28.9730   49.2880 C   0  0  0  0  0  0  0  0  0  0  0  0
   60.4430   29.5110   48.0110 O   0  0  0  0  0  0  0  0  0  0  0  0
   59.2980   30.2800   47.6520 C   0  0  0  0  0  0  0  0  0  0  0  0
   59.1164   30.1858   46.5712 H   0  0  0  0  0  0  0  0  0  0  0  0
   58.4199   29.9122   48.2030 H   0  0  0  0  0  0  0  0  0  0  0  0
   59.5390   31.7170   47.9950 C   0  0  0  0  0  0  0  0  0  0  0  0
   59.4600   32.1280   49.2920 N   0  0  0  0  0  0  0  0  0  0  0  0
   59.6700   33.4230   49.6480 C   0  0  0  0  0  0  0  0  0  0  0  0
   59.5966   33.7211   50.7043 H   0  0  0  0  0  0  0  0  0  0  0  0
   59.9790   34.3760   48.6740 C   0  0  0  0  0  0  0  0  0  0  0  0
   60.1510   35.4249   48.9571 H   0  0  0  0  0  0  0  0  0  0  0  0
   60.0670   33.9820   47.3370 C   0  0  0  0  0  0  0  0  0  0  0  0
   60.3119   34.7204   46.5593 H   0  0  0  0  0  0  0  0  0  0  0  0
   59.8430   32.6470   46.9900 C   0  0  0  0  0  0  0  0  0  0  0  0
   59.9045   32.3286   45.9389 H   0  0  0  0  0  0  0  0  0  0  0  0
   57.2080   27.7870   45.0390 N   0  0  0  0  0  0  0  0  0  0  0  0
   56.5280   28.9520   44.8790 C   0  0  0  0  0  0  0  0  0  0  0  0
   55.1400   28.9880   44.8820 O   0  0  0  0  0  0  0  0  0  0  0  0
  1  2  1  0
  2  3  2  3
  3  4  1  0
  4  5  1  0
  4  6  1  0
  4  7  1  0
  3  8  1  0
  8  9  1  0
  8 10  1  0
  8 11  1  0
  2 12  1  0
 12 13  1  0
 13 14  1  0
 14 15  2  0
 15 16  1  0
 16 17  2  0
 16 18  1  0
 18 19  2  0
 18 20  1  0
 20 21  2  3
 21 22  1  0
 22 23  1  0
 23 24  1  0
 23 25  2  0
 25 26  1  0
 25 27  1  0
 27 28  1  0
 27 29  2  0
 29 30  1  0
 30 31  1  0
 31 32  1  0
 31 33  1  0
 31 34  1  0
 34 35  2  0
 35 36  1  0
 36 37  1  0
 36 38  2  0
 38 39  1  0
 38 40  1  0
 40 41  1  0
 40 42  2  0
 42 43  1  0
 14 44  1  0
 44 45  1  0
 45 46  1  0
 45 12  2  0
 29 21  1  0
 42 34  1  0
M  CHG  4  22  -1  27   1  44  -1  46  -1
M  END
>  <UniqueID>  (65) 
60

>  <SMILES>  (65) 
CC(C)=Cc1s/c(=N/C(=O)C(=O)N=c2[n-]c(F)c[nH+]c2OCc2ccccn2)[n-]c1[O-]

>  <Energy>  (65) 
90.62626813764037

>  <Genealogy>  (65) 
CC(C)=Cc1sc(=NC(=O)C(=O)N=c2[n-]c(F)c[nH+]c2OCc2ccccn2)[n-]c1[O-] (protonated)
CC(C)=Cc1s/c(=N/C(=O)C(=O)N=c2[n-]c(F)c[nH+]c2OCc2ccccn2)[n-]c1[O-] (cis-trans isomerization)
CC(C)=Cc1s/c(=N/C(=O)C(=O)N=c2[n-]c(F)c[nH+]c2OCc2ccccn2)[n-]c1[O-] (3D coordinates assigned)
CC(C)=Cc1s/c(=N/C(=O)C(=O)N=c2[n-]c(F)c[nH+]c2OCc2ccccn2)[n-]c1[O-] (optimized conformer: 90.62626813764037 kcal/mol)

>  <smiles>  (65) 
CC(C)=Cc1sc(=NC(=O)C(=O)N=c2[nH]c(F)cnc2OCc2ccccn2)[nH]c1O

>  <score_type>  (65) 
oracle

>  <origin>  (65) 
adg

>  <m_score__min__energy>  (65) 
-12.67

>  <m_primary>  (65) 
energy

$$$$
65:0
     RDKit          3D

 52 54  0  0  0  0  0  0  0  0999 V2000
   57.7520   27.9230   43.2010 O   0  0  0  0  0  0  0  0  0  0  0  0
   57.0840   28.6830   43.9560 C   0  0  0  0  0  0  0  0  0  0  0  0
   56.4370   29.9100   43.3820 C   0  0  0  0  0  0  0  0  0  0  0  0
   57.3170   31.1510   43.5520 C   0  0  0  0  0  0  0  0  0  0  0  0
   57.0870   31.7780   44.8510 N   0  0  0  0  0  0  0  0  0  0  0  0
   57.8760   31.5030   46.0170 C   0  0  0  0  0  0  0  0  0  0  0  0
   57.7270   30.4110   46.6340 O   0  0  0  0  0  0  0  0  0  0  0  0
   58.8530   32.4990   46.5070 C   0  0  0  0  0  0  0  0  0  0  0  0
   58.4460   33.8170   46.7830 C   0  0  0  0  0  0  0  0  0  0  0  0
   59.3650   34.7540   47.2590 C   0  0  0  0  0  0  0  0  0  0  0  0
   60.6930   34.3860   47.4780 C   0  0  0  0  0  0  0  0  0  0  0  0
   61.1120   33.0750   47.2210 C   0  0  0  0  0  0  0  0  0  0  0  0
   62.7820   32.6220   47.5460 S   0  0  0  0  0  0  0  0  0  0  0  0
   63.6860   33.7280   47.0800 O   0  0  0  0  0  0  0  0  0  0  0  0
   63.1110   31.3670   46.7870 O   0  0  0  0  0  0  0  0  0  0  0  0
   63.0140   32.3200   49.2410 N   0  0  0  0  0  0  0  0  0  0  0  0
   64.1010   32.8510   50.0080 C   0  0  0  0  0  0  0  0  0  0  0  0
   65.3900   32.3490   49.7900 C   0  0  0  0  0  0  0  0  0  0  0  0
   66.4740   32.8510   50.5140 C   0  0  0  0  0  0  0  0  0  0  0  0
   66.2800   33.8750   51.4440 C   0  0  0  0  0  0  0  0  0  0  0  0
   65.0030   34.4070   51.6390 C   0  0  0  0  0  0  0  0  0  0  0  0
   63.9150   33.9080   50.9170 C   0  0  0  0  0  0  0  0  0  0  0  0
   62.7050   34.5030   51.0550 F   0  0  0  0  0  0  0  0  0  0  0  0
   60.1940   32.1370   46.7270 C   0  0  0  0  0  0  0  0  0  0  0  0
   56.8740   28.3450   45.3350 N   0  0  0  0  0  0  0  0  0  0  0  0
   57.6130   27.2860   46.0200 C   0  0  0  0  0  0  0  0  0  0  0  0
   57.0540   25.9430   45.6320 C   0  0  0  0  0  0  0  0  0  0  0  0
   57.9300   24.8910   45.3110 C   0  0  0  0  0  0  0  0  0  0  0  0
   57.4280   23.6280   44.9870 C   0  0  0  0  0  0  0  0  0  0  0  0
   56.0510   23.4030   44.9790 C   0  0  0  0  0  0  0  0  0  0  0  0
   55.1720   24.4380   45.3060 C   0  0  0  0  0  0  0  0  0  0  0  0
   55.6670   25.7020   45.6470 C   0  0  0  0  0  0  0  0  0  0  0  0
   54.7720   26.7080   46.0030 O   0  0  0  0  0  0  0  0  0  0  0  0
   56.2546   29.7474   42.3095 H   0  0  0  0  0  0  0  0  0  0  0  0
   55.4946   30.0833   43.9223 H   0  0  0  0  0  0  0  0  0  0  0  0
   58.3741   30.8563   43.4763 H   0  0  0  0  0  0  0  0  0  0  0  0
   57.0626   31.8736   42.7626 H   0  0  0  0  0  0  0  0  0  0  0  0
   57.3981   34.1109   46.6229 H   0  0  0  0  0  0  0  0  0  0  0  0
   59.0412   35.7855   47.4620 H   0  0  0  0  0  0  0  0  0  0  0  0
   61.4129   35.1281   47.8537 H   0  0  0  0  0  0  0  0  0  0  0  0
   65.5497   31.5555   49.0451 H   0  0  0  0  0  0  0  0  0  0  0  0
   67.4812   32.4396   50.3516 H   0  0  0  0  0  0  0  0  0  0  0  0
   67.1319   34.2622   52.0223 H   0  0  0  0  0  0  0  0  0  0  0  0
   64.8532   35.2213   52.3632 H   0  0  0  0  0  0  0  0  0  0  0  0
   60.5252   31.1107   46.5100 H   0  0  0  0  0  0  0  0  0  0  0  0
   56.2530   28.9580   45.9110 H   0  0  0  0  0  0  0  0  0  0  0  0
   58.6739   27.3368   45.7338 H   0  0  0  0  0  0  0  0  0  0  0  0
   57.5164   27.4199   47.1075 H   0  0  0  0  0  0  0  0  0  0  0  0
   59.0164   25.0633   45.3150 H   0  0  0  0  0  0  0  0  0  0  0  0
   58.1195   22.8097   44.7378 H   0  0  0  0  0  0  0  0  0  0  0  0
   55.6576   22.4102   44.7151 H   0  0  0  0  0  0  0  0  0  0  0  0
   54.0867   24.2591   45.2955 H   0  0  0  0  0  0  0  0  0  0  0  0
  1  2  2  0
  2  3  1  0
  3  4  1  0
  4  5  1  0
  5  6  1  0
  6  7  2  0
  6  8  1  0
  8  9  2  0
  9 10  1  0
 10 11  2  0
 11 12  1  0
 12 13  1  0
 13 14  2  0
 13 15  2  0
 13 16  1  0
 16 17  1  0
 17 18  2  0
 18 19  1  0
 19 20  2  0
 20 21  1  0
 21 22  2  0
 22 23  1  0
 12 24  2  0
  2 25  1  0
 25 26  1  0
 26 27  1  0
 27 28  2  0
 28 29  1  0
 29 30  2  0
 30 31  1  0
 31 32  2  0
 32 33  1  0
 24  8  1  0
 32 27  1  0
 22 17  1  0
  3 34  1  0
  3 35  1  0
  4 36  1  0
  4 37  1  0
  9 38  1  0
 10 39  1  0
 11 40  1  0
 18 41  1  0
 19 42  1  0
 20 43  1  0
 21 44  1  0
 24 45  1  0
 25 46  1  0
 26 47  1  0
 26 48  1  0
 28 49  1  0
 29 50  1  0
 30 51  1  0
 31 52  1  0
M  CHG  3   5  -1  16  -1  33  -1
M  END
>  <UniqueID>  (66) 
61

>  <SMILES>  (66) 
O=C(CC[N-]C(=O)c1cccc(S(=O)(=O)[N-]c2ccccc2F)c1)NCc1ccccc1[O-]

>  <Energy>  (66) 
50.103516277350394

>  <Genealogy>  (66) 
O=C(CC[N-]C(=O)c1cccc(S(=O)(=O)[N-]c2ccccc2F)c1)NCc1ccccc1[O-] (protonated)
O=C(CC[N-]C(=O)c1cccc(S(=O)(=O)[N-]c2ccccc2F)c1)NCc1ccccc1[O-] (3D coordinates assigned)
O=C(CC[N-]C(=O)c1cccc(S(=O)(=O)[N-]c2ccccc2F)c1)NCc1ccccc1[O-] (optimized conformer: 50.103516277350394 kcal/mol)

>  <smiles>  (66) 
O=C(CCNC(=O)c1cccc(S(=O)(=O)Nc2ccccc2F)c1)NCc1ccccc1O

>  <score_type>  (66) 
oracle

>  <origin>  (66) 
adg

>  <m_score__min__energy>  (66) 
-16.190000000000001

>  <m_primary>  (66) 
energy

$$$$
66:0
     RDKit          3D

 32 33  0  0  0  0  0  0  0  0999 V2000
   54.3990   26.0710   45.8440 N   0  0  0  0  0  0  0  0  0  0  0  0
   55.7850   25.9800   46.1630 C   0  0  0  0  0  0  0  0  0  0  0  0
   56.2490   24.8870   46.5840 O   0  0  0  0  0  0  0  0  0  0  0  0
   56.6410   27.1770   46.0390 C   0  0  0  0  0  0  0  0  0  0  0  0
   56.2210   28.2210   45.2770 N   0  0  0  0  0  0  0  0  0  0  0  0
   57.3890   29.3870   45.4340 S   0  0  0  0  0  0  0  0  0  0  0  0
   58.4580   28.6260   46.4590 C   0  0  0  0  0  0  0  0  0  0  0  0
   59.7490   29.1860   46.8990 C   0  0  0  0  0  0  0  0  0  0  0  0
   60.7660   28.4510   47.0080 O   0  0  0  0  0  0  0  0  0  0  0  0
   59.8430   30.5840   47.1930 N   0  0  0  0  0  0  0  0  0  0  0  0
   61.0930   31.3350   47.1620 C   0  0  0  0  0  0  0  0  0  0  0  0
   60.8390   32.8090   47.4890 C   0  0  0  0  0  0  0  0  0  0  0  0
   59.6420   33.3200   46.7350 C   0  0  0  0  0  0  0  0  0  0  0  0
   59.8080   34.0290   45.5340 C   0  0  0  0  0  0  0  0  0  0  0  0
   58.6920   34.4750   44.8190 C   0  0  0  0  0  0  0  0  0  0  0  0
   57.4040   34.2090   45.2920 C   0  0  0  0  0  0  0  0  0  0  0  0
   57.2300   33.4930   46.4800 C   0  0  0  0  0  0  0  0  0  0  0  0
   58.3440   33.0450   47.1980 C   0  0  0  0  0  0  0  0  0  0  0  0
   57.8910   27.3680   46.7040 C   0  0  0  0  0  0  0  0  0  0  0  0
   58.5230   26.3670   47.5120 N   0  0  0  0  0  0  0  0  0  0  0  0
   53.7690   26.7170   46.3690 H   0  0  0  0  0  0  0  0  0  0  0  0
   61.7873   30.9137   47.9039 H   0  0  0  0  0  0  0  0  0  0  0  0
   61.5273   31.2631   46.1539 H   0  0  0  0  0  0  0  0  0  0  0  0
   60.6577   32.9137   48.5689 H   0  0  0  0  0  0  0  0  0  0  0  0
   61.7214   33.3951   47.1927 H   0  0  0  0  0  0  0  0  0  0  0  0
   60.8198   34.2343   45.1543 H   0  0  0  0  0  0  0  0  0  0  0  0
   58.8281   35.0361   43.8827 H   0  0  0  0  0  0  0  0  0  0  0  0
   56.5274   34.5630   44.7296 H   0  0  0  0  0  0  0  0  0  0  0  0
   56.2161   33.2816   46.8506 H   0  0  0  0  0  0  0  0  0  0  0  0
   58.2034   32.4754   48.1284 H   0  0  0  0  0  0  0  0  0  0  0  0
   58.0630   25.4510   47.7000 H   0  0  0  0  0  0  0  0  0  0  0  0
   59.4770   26.5080   47.9070 H   0  0  0  0  0  0  0  0  0  0  0  0
  1  2  1  0
  2  3  2  0
  2  4  1  0
  4  5  2  0
  5  6  1  0
  6  7  1  0
  7  8  1  0
  8  9  2  0
  8 10  1  0
 10 11  1  0
 11 12  1  0
 12 13  1  0
 13 14  2  0
 14 15  1  0
 15 16  2  0
 16 17  1  0
 17 18  2  0
  7 19  2  0
 19 20  1  0
 19  4  1  0
 18 13  1  0
  1 21  1  0
 11 22  1  0
 11 23  1  0
 12 24  1  0
 12 25  1  0
 14 26  1  0
 15 27  1  0
 16 28  1  0
 17 29  1  0
 18 30  1  0
 20 31  1  0
 20 32  1  0
M  CHG  2   1  -1  10  -1
M  END
>  <UniqueID>  (67) 
62

>  <SMILES>  (67) 
[NH-]C(=O)c1nsc(C(=O)[N-]CCc2ccccc2)c1N

>  <Energy>  (67) 
63.06346177771279

>  <Genealogy>  (67) 
[NH-]C(=O)c1nsc(C(=O)[N-]CCc2ccccc2)c1N (protonated)
[NH-]C(=O)c1nsc(C(=O)[N-]CCc2ccccc2)c1N (3D coordinates assigned)
[NH-]C(=O)c1nsc(C(=O)[N-]CCc2ccccc2)c1N (optimized conformer: 63.06346177771279 kcal/mol)

>  <smiles>  (67) 
NC(=O)c1nsc(C(=O)NCCc2ccccc2)c1N

>  <score_type>  (67) 
oracle

>  <origin>  (67) 
adg

>  <m_score__min__energy>  (67) 
-11.98

>  <m_primary>  (67) 
energy

$$$$
67:0
     RDKit          3D

 38 40  0  0  0  0  0  0  0  0999 V2000
   57.3750   33.5570   46.6590 C   0  0  0  0  0  0  0  0  0  0  0  0
   58.1500   33.8420   45.4410 N   0  0  0  0  0  0  0  0  0  0  0  0
   59.3480   34.6260   45.7910 C   0  0  0  0  0  0  0  0  0  0  0  0
   58.5230   32.5830   44.7580 C   0  0  0  0  0  0  0  0  0  0  0  0
   57.3070   31.9550   44.0770 C   0  0  0  0  0  0  0  0  0  0  0  0
   56.6910   30.9840   44.9720 N   0  0  0  0  0  0  0  0  0  0  0  0
   56.4160   29.6330   44.5980 C   0  0  0  0  0  0  0  0  0  0  0  0
   56.0160   29.3660   43.4320 O   0  0  0  0  0  0  0  0  0  0  0  0
   56.6690   28.5370   45.5480 C   0  0  0  0  0  0  0  0  0  0  0  0
   55.8970   27.4360   45.6140 N   0  0  0  0  0  0  0  0  0  0  0  0
   56.5450   26.6500   46.4960 C   0  0  0  0  0  0  0  0  0  0  0  0
   56.1260   25.5100   46.8260 O   0  0  0  0  0  0  0  0  0  0  0  0
   57.6800   27.1800   46.9950 N   0  0  0  0  0  0  0  0  0  0  0  0
   57.7530   28.3820   46.3970 C   0  0  0  0  0  0  0  0  0  0  0  0
   58.7980   29.3670   46.7140 C   0  0  0  0  0  0  0  0  0  0  0  0
   58.6330   30.5090   47.4990 C   0  0  0  0  0  0  0  0  0  0  0  0
   59.8300   31.2060   47.6830 C   0  0  0  0  0  0  0  0  0  0  0  0
   59.9960   32.3780   48.4250 C   0  0  0  0  0  0  0  0  0  0  0  0
   61.2760   32.9530   48.5050 C   0  0  0  0  0  0  0  0  0  0  0  0
   62.3720   32.3490   47.8560 C   0  0  0  0  0  0  0  0  0  0  0  0
   63.6320   32.9290   47.9430 O   0  0  0  0  0  0  0  0  0  0  0  0
   62.1960   31.1630   47.1250 C   0  0  0  0  0  0  0  0  0  0  0  0
   60.9180   30.6150   47.0570 C   0  0  0  0  0  0  0  0  0  0  0  0
   60.4260   29.2110   46.2790 S   0  0  0  0  0  0  0  0  0  0  0  0
   57.9876   33.7823   47.5445 H   0  0  0  0  0  0  0  0  0  0  0  0
   56.4691   34.1808   46.6715 H   0  0  0  0  0  0  0  0  0  0  0  0
   57.0890   32.4949   46.6715 H   0  0  0  0  0  0  0  0  0  0  0  0
   59.4400   34.6862   46.8855 H   0  0  0  0  0  0  0  0  0  0  0  0
   60.2409   34.1369   45.3744 H   0  0  0  0  0  0  0  0  0  0  0  0
   59.2573   35.6400   45.3744 H   0  0  0  0  0  0  0  0  0  0  0  0
   59.2904   32.7976   43.9997 H   0  0  0  0  0  0  0  0  0  0  0  0
   58.9119   31.8772   45.5067 H   0  0  0  0  0  0  0  0  0  0  0  0
   56.5777   32.7415   43.8327 H   0  0  0  0  0  0  0  0  0  0  0  0
   57.6267   31.4489   43.1542 H   0  0  0  0  0  0  0  0  0  0  0  0
   57.6692   30.8248   47.9249 H   0  0  0  0  0  0  0  0  0  0  0  0
   59.1405   32.8423   48.9373 H   0  0  0  0  0  0  0  0  0  0  0  0
   61.4235   33.8804   49.0778 H   0  0  0  0  0  0  0  0  0  0  0  0
   63.0452   30.6799   46.6196 H   0  0  0  0  0  0  0  0  0  0  0  0
  1  2  1  0
  2  3  1  0
  2  4  1  0
  4  5  1  0
  5  6  1  0
  6  7  1  0
  7  8  2  0
  7  9  1  0
  9 10  1  0
 10 11  1  0
 11 12  2  0
 11 13  1  0
 13 14  1  0
 14 15  1  0
 15 16  2  0
 16 17  1  0
 17 18  2  0
 18 19  1  0
 19 20  2  0
 20 21  1  0
 20 22  1  0
 22 23  2  0
 23 24  1  0
 14  9  2  0
 24 15  1  0
 23 17  1  0
  1 25  1  0
  1 26  1  0
  1 27  1  0
  3 28  1  0
  3 29  1  0
  3 30  1  0
  4 31  1  0
  4 32  1  0
  5 33  1  0
  5 34  1  0
 16 35  1  0
 18 36  1  0
 19 37  1  0
 22 38  1  0
M  CHG  4   6  -1  10  -1  13  -1  21  -1
M  END
>  <UniqueID>  (68) 
63

>  <SMILES>  (68) 
CN(C)CC[N-]C(=O)c1[n-]c(=O)[n-]c1-c1cc2ccc([O-])cc2s1

>  <Energy>  (68) 
96.45014726244918

>  <Genealogy>  (68) 
CN(C)CC[N-]C(=O)c1[n-]c(=O)[n-]c1-c1cc2ccc([O-])cc2s1 (protonated)
CN(C)CC[N-]C(=O)c1[n-]c(=O)[n-]c1-c1cc2ccc([O-])cc2s1 (3D coordinates assigned)
CN(C)CC[N-]C(=O)c1[n-]c(=O)[n-]c1-c1cc2ccc([O-])cc2s1 (optimized conformer: 96.45014726244918 kcal/mol)

>  <smiles>  (68) 
CN(C)CCNC(=O)c1[nH]c(=O)[nH]c1-c1cc2ccc(O)cc2s1

>  <score_type>  (68) 
oracle

>  <origin>  (68) 
adg

>  <m_score__min__energy>  (68) 
-12.41

>  <m_primary>  (68) 
energy

$$$$
68:0
     RDKit          3D

 40 42  0  0  0  0  0  0  0  0999 V2000
   60.7193   33.7487   50.5687 H   0  0  0  0  0  0  0  0  0  0  0  0
   60.7990   33.8760   49.4790 C   0  0  0  0  0  0  0  0  0  0  0  0
   59.7090   34.2380   48.7550 N   0  0  0  0  0  0  0  0  0  0  0  0
   59.7830   34.4020   47.4050 C   0  0  0  0  0  0  0  0  0  0  0  0
   58.7420   34.7550   46.7170 N   0  0  0  0  0  0  0  0  0  0  0  0
   58.4370   34.2270   45.0910 S   0  0  0  0  0  0  0  0  0  0  0  0
   57.2500   34.9700   44.5450 O   0  0  0  0  0  0  0  0  0  0  0  0
   59.6400   34.5340   44.2440 O   0  0  0  0  0  0  0  0  0  0  0  0
   58.0900   32.5010   45.0730 C   0  0  0  0  0  0  0  0  0  0  0  0
   58.5130   31.6800   46.1260 C   0  0  0  0  0  0  0  0  0  0  0  0
   59.0718   32.1131   46.9687 H   0  0  0  0  0  0  0  0  0  0  0  0
   58.2270   30.3120   46.1090 C   0  0  0  0  0  0  0  0  0  0  0  0
   58.5702   29.6723   46.9355 H   0  0  0  0  0  0  0  0  0  0  0  0
   57.5050   29.7480   45.0450 C   0  0  0  0  0  0  0  0  0  0  0  0
   57.2390   28.3350   45.0420 N   0  0  0  0  0  0  0  0  0  0  0  0
   56.9660   27.8910   44.1370 H   0  0  0  0  0  0  0  0  0  0  0  0
   57.4780   27.4760   46.1710 C   0  0  0  0  0  0  0  0  0  0  0  0
   58.3010   27.8270   47.0610 O   0  0  0  0  0  0  0  0  0  0  0  0
   56.8080   26.1570   46.2780 C   0  0  0  0  0  0  0  0  0  0  0  0
   55.4370   26.0270   45.9880 C   0  0  0  0  0  0  0  0  0  0  0  0
   54.8559   26.9105   45.6852 H   0  0  0  0  0  0  0  0  0  0  0  0
   54.8270   24.8160   46.0800 N   0  0  0  0  0  0  0  0  0  0  0  0
   55.5070   23.6970   46.4430 C   0  0  0  0  0  0  0  0  0  0  0  0
   54.9050   22.5940   46.5160 O   0  0  0  0  0  0  0  0  0  0  0  0
   56.8710   23.7710   46.7310 C   0  0  0  0  0  0  0  0  0  0  0  0
   57.4270   22.8678   47.0227 H   0  0  0  0  0  0  0  0  0  0  0  0
   57.5230   25.0040   46.6450 C   0  0  0  0  0  0  0  0  0  0  0  0
   58.5986   25.0723   46.8651 H   0  0  0  0  0  0  0  0  0  0  0  0
   57.1050   30.5730   43.9770 C   0  0  0  0  0  0  0  0  0  0  0  0
   56.5629   30.1392   43.1238 H   0  0  0  0  0  0  0  0  0  0  0  0
   57.3930   31.9400   43.9950 C   0  0  0  0  0  0  0  0  0  0  0  0
   57.0711   32.5785   43.1591 H   0  0  0  0  0  0  0  0  0  0  0  0
   60.9660   34.1990   46.7680 N   0  0  0  0  0  0  0  0  0  0  0  0
   62.0830   33.8330   47.4520 C   0  0  0  0  0  0  0  0  0  0  0  0
   63.3710   33.6250   46.7220 C   0  0  0  0  0  0  0  0  0  0  0  0
   64.1868   33.4933   47.4480 H   0  0  0  0  0  0  0  0  0  0  0  0
   63.2937   32.7277   46.0904 H   0  0  0  0  0  0  0  0  0  0  0  0
   63.5801   34.5010   46.0904 H   0  0  0  0  0  0  0  0  0  0  0  0
   62.0190   33.6660   48.8390 C   0  0  0  0  0  0  0  0  0  0  0  0
   62.9118   33.3753   49.4121 H   0  0  0  0  0  0  0  0  0  0  0  0
  1  2  1  0
  2  3  1  0
  3  4  1  0
  4  5  2  0
  5  6  1  0
  6  7  2  0
  6  8  2  0
  6  9  1  0
  9 10  2  0
 10 11  1  0
 10 12  1  0
 12 13  1  0
 12 14  2  0
 14 15  1  0
 15 16  1  0
 15 17  1  0
 17 18  2  0
 17 19  1  0
 19 20  2  0
 20 21  1  0
 20 22  1  0
 22 23  1  0
 23 24  2  0
 23 25  1  0
 25 26  1  0
 25 27  2  0
 27 28  1  0
 14 29  1  0
 29 30  1  0
 29 31  2  0
 31 32  1  0
  4 33  1  0
 33 34  2  0
 34 35  1  0
 35 36  1  0
 35 37  1  0
 35 38  1  0
 34 39  1  0
 39 40  1  0
 39  2  2  0
 31  9  1  0
 27 19  1  0
M  CHG  2   3  -1  22  -1
M  END
>  <UniqueID>  (69) 
64

>  <SMILES>  (69) 
Cc1cc[n-]/c(=N\S(=O)(=O)c2ccc(NC(=O)c3ccc(=O)[n-]c3)cc2)n1

>  <Energy>  (69) 
51.8107604531334

>  <Genealogy>  (69) 
Cc1cc[n-]c(=NS(=O)(=O)c2ccc(NC(=O)c3ccc(=O)[n-]c3)cc2)n1 (protonated)
Cc1cc[n-]/c(=N\S(=O)(=O)c2ccc(NC(=O)c3ccc(=O)[n-]c3)cc2)n1 (cis-trans isomerization)
Cc1cc[n-]/c(=N\S(=O)(=O)c2ccc(NC(=O)c3ccc(=O)[n-]c3)cc2)n1 (3D coordinates assigned)
Cc1cc[n-]/c(=N\S(=O)(=O)c2ccc(NC(=O)c3ccc(=O)[n-]c3)cc2)n1 (optimized conformer: 51.8107604531334 kcal/mol)

>  <smiles>  (69) 
Cc1cc[nH]c(=NS(=O)(=O)c2ccc(NC(=O)c3ccc(=O)[nH]c3)cc2)n1

>  <score_type>  (69) 
oracle

>  <origin>  (69) 
adg

>  <m_score__min__energy>  (69) 
-11.16

>  <m_primary>  (69) 
energy

$$$$
69:0
     RDKit          3D

 30 31  0  0  0  0  0  0  0  0999 V2000
   55.2080   29.4630   44.8830 O   0  0  0  0  0  0  0  0  0  0  0  0
   56.4620   29.3400   44.8750 C   0  0  0  0  0  0  0  0  0  0  0  0
   57.3200   30.5300   44.5860 C   0  0  0  0  0  0  0  0  0  0  0  0
   56.6650   31.7500   45.0630 N   0  0  0  0  0  0  0  0  0  0  0  0
   57.6980   33.1370   44.8800 S   0  0  0  0  0  0  0  0  0  0  0  0
   58.4580   33.0420   43.5870 O   0  0  0  0  0  0  0  0  0  0  0  0
   56.8470   34.3750   44.8360 O   0  0  0  0  0  0  0  0  0  0  0  0
   58.8230   33.2610   46.2300 C   0  0  0  0  0  0  0  0  0  0  0  0
   58.3560   33.1430   47.5470 C   0  0  0  0  0  0  0  0  0  0  0  0
   59.2440   33.2640   48.6200 C   0  0  0  0  0  0  0  0  0  0  0  0
   60.6030   33.4840   48.3840 C   0  0  0  0  0  0  0  0  0  0  0  0
   61.0790   33.5850   47.0720 C   0  0  0  0  0  0  0  0  0  0  0  0
   62.7890   33.8320   46.7750 Cl  0  0  0  0  0  0  0  0  0  0  0  0
   60.1890   33.4800   45.9970 C   0  0  0  0  0  0  0  0  0  0  0  0
   57.0700   28.0630   45.1010 N   0  0  0  0  0  0  0  0  0  0  0  0
   56.9680   27.3270   46.3560 C   0  0  0  0  0  0  0  0  0  0  0  0
   55.9770   26.2120   46.2400 C   0  0  0  0  0  0  0  0  0  0  0  0
   56.2060   24.9640   46.6930 N   0  0  0  0  0  0  0  0  0  0  0  0
   55.1400   24.2460   46.3850 N   0  0  0  0  0  0  0  0  0  0  0  0
   54.3010   25.0820   45.7510 C   0  0  0  0  0  0  0  0  0  0  0  0
   53.1740   24.7290   45.3150 O   0  0  0  0  0  0  0  0  0  0  0  0
   54.7800   26.3320   45.6290 N   0  0  0  0  0  0  0  0  0  0  0  0
   58.2877   30.4134   45.0959 H   0  0  0  0  0  0  0  0  0  0  0  0
   57.4762   30.6062   43.4998 H   0  0  0  0  0  0  0  0  0  0  0  0
   57.2888   32.9549   47.7362 H   0  0  0  0  0  0  0  0  0  0  0  0
   58.8717   33.1858   49.6521 H   0  0  0  0  0  0  0  0  0  0  0  0
   61.2996   33.5779   49.2301 H   0  0  0  0  0  0  0  0  0  0  0  0
   60.5618   33.5695   44.9660 H   0  0  0  0  0  0  0  0  0  0  0  0
   57.9532   26.9087   46.6097 H   0  0  0  0  0  0  0  0  0  0  0  0
   56.6306   28.0176   47.1429 H   0  0  0  0  0  0  0  0  0  0  0  0
  1  2  2  0
  2  3  1  0
  3  4  1  0
  4  5  1  0
  5  6  2  0
  5  7  2  0
  5  8  1  0
  8  9  2  0
  9 10  1  0
 10 11  2  0
 11 12  1  0
 12 13  1  0
 12 14  2  0
  2 15  1  0
 15 16  1  0
 16 17  1  0
 17 18  2  0
 18 19  1  0
 19 20  1  0
 20 21  2  0
 20 22  1  0
 14  8  1  0
 22 17  1  0
  3 23  1  0
  3 24  1  0
  9 25  1  0
 10 26  1  0
 11 27  1  0
 14 28  1  0
 16 29  1  0
 16 30  1  0
M  CHG  4   4  -1  15  -1  19  -1  22  -1
M  END
>  <UniqueID>  (70) 
65

>  <SMILES>  (70) 
O=C(C[N-]S(=O)(=O)c1cccc(Cl)c1)[N-]Cc1n[n-]c(=O)[n-]1

>  <Energy>  (70) 
55.04703416701429

>  <Genealogy>  (70) 
O=C(C[N-]S(=O)(=O)c1cccc(Cl)c1)[N-]Cc1n[n-]c(=O)[n-]1 (protonated)
O=C(C[N-]S(=O)(=O)c1cccc(Cl)c1)[N-]Cc1n[n-]c(=O)[n-]1 (3D coordinates assigned)
O=C(C[N-]S(=O)(=O)c1cccc(Cl)c1)[N-]Cc1n[n-]c(=O)[n-]1 (optimized conformer: 55.04703416701429 kcal/mol)

>  <smiles>  (70) 
O=C(CNS(=O)(=O)c1cccc(Cl)c1)NCc1n[nH]c(=O)[nH]1

>  <score_type>  (70) 
oracle

>  <origin>  (70) 
adg

>  <m_score__min__energy>  (70) 
-15.35

>  <m_primary>  (70) 
energy

$$$$
70:0
     RDKit          3D

 48 51  0  0  0  0  0  0  0  0999 V2000
   62.0800   32.2220   47.5020 C   0  0  0  0  0  0  0  0  0  0  0  0
   61.2160   32.6120   48.6700 C   0  0  0  0  0  0  0  0  0  0  0  0
   61.7720   33.3490   49.7300 C   0  0  0  0  0  0  0  0  0  0  0  0
   60.9880   33.7140   50.8260 C   0  0  0  0  0  0  0  0  0  0  0  0
   59.6420   33.3410   50.8830 C   0  0  0  0  0  0  0  0  0  0  0  0
   58.5730   33.8430   52.3830 Br  0  0  0  0  0  0  0  0  0  0  0  0
   59.0820   32.5940   49.8430 C   0  0  0  0  0  0  0  0  0  0  0  0
   59.8600   32.2180   48.7380 C   0  0  0  0  0  0  0  0  0  0  0  0
   59.2630   31.4310   47.6900 N   0  0  0  0  0  0  0  0  0  0  0  0
   59.2550   30.0770   47.8280 C   0  0  0  0  0  0  0  0  0  0  0  0
   58.6940   29.2540   46.8530 C   0  0  0  0  0  0  0  0  0  0  0  0
   58.6880   27.7940   47.1050 C   0  0  0  0  0  0  0  0  0  0  0  0
   59.7620   27.2040   47.4030 O   0  0  0  0  0  0  0  0  0  0  0  0
   57.4730   27.0430   46.9630 N   0  0  0  0  0  0  0  0  0  0  0  0
   57.4500   25.5920   47.1350 C   0  0  0  0  0  0  0  0  0  0  0  0
   56.2400   25.0050   46.4790 C   0  0  0  0  0  0  0  0  0  0  0  0
   56.0520   23.6700   46.1820 C   0  0  0  0  0  0  0  0  0  0  0  0
   54.7940   23.5910   45.6230 C   0  0  0  0  0  0  0  0  0  0  0  0
   54.2940   24.8770   45.6200 C   0  0  0  0  0  0  0  0  0  0  0  0
   55.1780   25.6970   46.1400 O   0  0  0  0  0  0  0  0  0  0  0  0
   58.1350   29.8430   45.6930 C   0  0  0  0  0  0  0  0  0  0  0  0
   57.6300   29.0440   44.6480 C   0  0  0  0  0  0  0  0  0  0  0  0
   57.0710   29.6200   43.5160 C   0  0  0  0  0  0  0  0  0  0  0  0
   57.0060   31.0000   43.3910 C   0  0  0  0  0  0  0  0  0  0  0  0
   57.5180   31.8410   44.3930 C   0  0  0  0  0  0  0  0  0  0  0  0
   57.4060   33.3300   44.1630 C   0  0  0  0  0  0  0  0  0  0  0  0
   58.1140   31.2640   45.5610 C   0  0  0  0  0  0  0  0  0  0  0  0
   58.7040   32.0390   46.5990 C   0  0  0  0  0  0  0  0  0  0  0  0
   58.7360   33.2980   46.5240 O   0  0  0  0  0  0  0  0  0  0  0  0
   63.0246   31.7956   47.8708 H   0  0  0  0  0  0  0  0  0  0  0  0
   61.5541   31.4740   46.8905 H   0  0  0  0  0  0  0  0  0  0  0  0
   62.2931   33.1112   46.8905 H   0  0  0  0  0  0  0  0  0  0  0  0
   62.8322   33.6402   49.6957 H   0  0  0  0  0  0  0  0  0  0  0  0
   61.4308   34.2968   51.6471 H   0  0  0  0  0  0  0  0  0  0  0  0
   58.0235   32.2988   49.8913 H   0  0  0  0  0  0  0  0  0  0  0  0
   59.6998   29.6236   48.7261 H   0  0  0  0  0  0  0  0  0  0  0  0
   56.5870   27.5570   46.7520 H   0  0  0  0  0  0  0  0  0  0  0  0
   58.3536   25.1594   46.6808 H   0  0  0  0  0  0  0  0  0  0  0  0
   57.4183   25.3619   48.2102 H   0  0  0  0  0  0  0  0  0  0  0  0
   56.7571   22.8436   46.3548 H   0  0  0  0  0  0  0  0  0  0  0  0
   54.2905   22.6853   45.2539 H   0  0  0  0  0  0  0  0  0  0  0  0
   53.3046   25.1708   45.2396 H   0  0  0  0  0  0  0  0  0  0  0  0
   57.6796   27.9482   44.7307 H   0  0  0  0  0  0  0  0  0  0  0  0
   56.6773   28.9789   42.7135 H   0  0  0  0  0  0  0  0  0  0  0  0
   56.5470   31.4421   42.4944 H   0  0  0  0  0  0  0  0  0  0  0  0
   57.3670   33.8488   45.1322 H   0  0  0  0  0  0  0  0  0  0  0  0
   58.2804   33.6800   43.5947 H   0  0  0  0  0  0  0  0  0  0  0  0
   56.4891   33.5453   43.5947 H   0  0  0  0  0  0  0  0  0  0  0  0
  1  2  1  0
  2  3  2  0
  3  4  1  0
  4  5  2  0
  5  6  1  0
  5  7  1  0
  7  8  2  0
  8  9  1  0
  9 10  1  0
 10 11  2  0
 11 12  1  0
 12 13  2  0
 12 14  1  0
 14 15  1  0
 15 16  1  0
 16 17  2  0
 17 18  1  0
 18 19  2  0
 19 20  1  0
 11 21  1  0
 21 22  2  0
 22 23  1  0
 23 24  2  0
 24 25  1  0
 25 26  1  0
 25 27  2  0
 27 28  1  0
 28 29  2  0
  8  2  1  0
 28  9  1  0
 20 16  1  0
 27 21  1  0
  1 30  1  0
  1 31  1  0
  1 32  1  0
  3 33  1  0
  4 34  1  0
  7 35  1  0
 10 36  1  0
 14 37  1  0
 15 38  1  0
 15 39  1  0
 17 40  1  0
 18 41  1  0
 19 42  1  0
 22 43  1  0
 23 44  1  0
 24 45  1  0
 26 46  1  0
 26 47  1  0
 26 48  1  0
M  END
>  <UniqueID>  (71) 
66

>  <SMILES>  (71) 
Cc1ccc(Br)cc1-n1cc(C(=O)NCc2ccco2)c2cccc(C)c2c1=O

>  <Energy>  (71) 
100.41971503024727

>  <Genealogy>  (71) 
Cc1ccc(Br)cc1-n1cc(C(=O)NCc2ccco2)c2cccc(C)c2c1=O (3D coordinates assigned)
Cc1ccc(Br)cc1-n1cc(C(=O)NCc2ccco2)c2cccc(C)c2c1=O (optimized conformer: 100.41971503024727 kcal/mol)

>  <smiles>  (71) 
Cc1ccc(Br)cc1-n1cc(C(=O)NCc2ccco2)c2cccc(C)c2c1=O

>  <score_type>  (71) 
oracle

>  <origin>  (71) 
adg

>  <m_score__min__energy>  (71) 
-8.6400000000000006

>  <m_primary>  (71) 
energy

$$$$
71:0
     RDKit          3D

 37 38  0  0  0  0  0  0  0  0999 V2000
   57.6800   28.1290   44.0880 C   0  0  0  0  0  0  0  0  0  0  0  0
   56.6850   28.3430   45.2330 C   0  0  0  0  0  0  0  0  0  0  0  0
   55.5480   29.1910   44.8430 N   0  0  0  0  0  0  0  0  0  0  0  0
   55.9020   30.1370   43.7800 C   0  0  0  0  0  0  0  0  0  0  0  0
   56.8390   31.1340   44.3060 C   0  0  0  0  0  0  0  0  0  0  0  0
   57.6090   31.9540   44.7400 C   0  0  0  0  0  0  0  0  0  0  0  0
   58.5260   32.9300   45.2570 C   0  0  0  0  0  0  0  0  0  0  0  0
   58.3060   34.2940   45.0420 C   0  0  0  0  0  0  0  0  0  0  0  0
   59.2200   35.2190   45.5490 C   0  0  0  0  0  0  0  0  0  0  0  0
   60.3340   34.7780   46.2650 C   0  0  0  0  0  0  0  0  0  0  0  0
   60.5210   33.4020   46.4770 C   0  0  0  0  0  0  0  0  0  0  0  0
   61.6650   32.9100   47.2000 N   0  0  0  0  0  0  0  0  0  0  0  0
   62.9870   33.4760   46.9170 C   0  0  0  0  0  0  0  0  0  0  0  0
   63.9090   33.2760   48.1240 C   0  0  0  0  0  0  0  0  0  0  0  0
   63.9280   31.9190   48.5240 O   0  0  0  0  0  0  0  0  0  0  0  0
   62.6450   31.5390   48.9850 C   0  0  0  0  0  0  0  0  0  0  0  0
   61.6200   31.5930   47.8480 C   0  0  0  0  0  0  0  0  0  0  0  0
   59.6170   32.5210   45.9590 N   0  0  0  0  0  0  0  0  0  0  0  0
   58.6760   27.9148   44.5029 H   0  0  0  0  0  0  0  0  0  0  0  0
   57.3504   27.2812   43.4694 H   0  0  0  0  0  0  0  0  0  0  0  0
   57.7281   29.0373   43.4694 H   0  0  0  0  0  0  0  0  0  0  0  0
   56.3004   27.3635   45.5533 H   0  0  0  0  0  0  0  0  0  0  0  0
   57.2189   28.8551   46.0471 H   0  0  0  0  0  0  0  0  0  0  0  0
   54.7590   28.5840   44.5160 H   0  0  0  0  0  0  0  0  0  0  0  0
   56.3734   29.5938   42.9477 H   0  0  0  0  0  0  0  0  0  0  0  0
   54.9932   30.6415   43.4202 H   0  0  0  0  0  0  0  0  0  0  0  0
   57.4235   34.6339   44.4802 H   0  0  0  0  0  0  0  0  0  0  0  0
   59.0625   36.2951   45.3844 H   0  0  0  0  0  0  0  0  0  0  0  0
   61.0606   35.5030   46.6606 H   0  0  0  0  0  0  0  0  0  0  0  0
   63.4195   32.9719   46.0402 H   0  0  0  0  0  0  0  0  0  0  0  0
   62.8843   34.5522   46.7141 H   0  0  0  0  0  0  0  0  0  0  0  0
   64.9291   33.5863   47.8536 H   0  0  0  0  0  0  0  0  0  0  0  0
   63.5319   33.8840   48.9595 H   0  0  0  0  0  0  0  0  0  0  0  0
   62.6927   30.5131   49.3790 H   0  0  0  0  0  0  0  0  0  0  0  0
   62.3328   32.2385   49.7745 H   0  0  0  0  0  0  0  0  0  0  0  0
   61.8542   30.8136   47.1079 H   0  0  0  0  0  0  0  0  0  0  0  0
   60.6134   31.4242   48.2581 H   0  0  0  0  0  0  0  0  0  0  0  0
  1  2  1  0
  2  3  1  0
  3  4  1  0
  4  5  1  0
  5  6  3  0
  6  7  1  0
  7  8  2  0
  8  9  1  0
  9 10  2  0
 10 11  1  0
 11 12  1  0
 12 13  1  0
 13 14  1  0
 14 15  1  0
 15 16  1  0
 16 17  1  0
 11 18  2  0
 18  7  1  0
 17 12  1  0
  1 19  1  0
  1 20  1  0
  1 21  1  0
  2 22  1  0
  2 23  1  0
  3 24  1  0
  4 25  1  0
  4 26  1  0
  8 27  1  0
  9 28  1  0
 10 29  1  0
 13 30  1  0
 13 31  1  0
 14 32  1  0
 14 33  1  0
 16 34  1  0
 16 35  1  0
 17 36  1  0
 17 37  1  0
M  END
>  <UniqueID>  (72) 
67

>  <SMILES>  (72) 
CCNCC#Cc1cccc(N2CCOCC2)n1

>  <Energy>  (72) 
33.75182435619113

>  <Genealogy>  (72) 
CCNCC#Cc1cccc(N2CCOCC2)n1 (3D coordinates assigned)
CCNCC#Cc1cccc(N2CCOCC2)n1 (nonaromatic ring conformer: 33.75182435619113 kcal/mol)

>  <smiles>  (72) 
CCNCC#Cc1cccc(N2CCOCC2)n1

>  <score_type>  (72) 
oracle

>  <origin>  (72) 
adg

>  <m_score__min__energy>  (72) 
-6.7800000000000002

>  <m_primary>  (72) 
energy

$$$$
72:0
     RDKit          3D

 53 57  0  0  0  0  0  0  0  0999 V2000
   55.9198   24.6611   47.1916 H   0  0  0  0  0  0  0  0  0  0  0  0
   56.5160   25.5040   46.8120 C   0  0  0  0  0  0  0  0  0  0  0  0
   55.9110   26.5130   46.1300 N   0  0  0  0  0  0  0  0  0  0  0  0
   56.6110   27.5770   45.6410 C   0  0  0  0  0  0  0  0  0  0  0  0
   55.9600   28.6380   44.9200 N   0  0  0  0  0  0  0  0  0  0  0  0
   56.4980   29.7390   44.4770 C   0  0  0  0  0  0  0  0  0  0  0  0
   57.0860   30.6300   45.3240 N   0  0  0  0  0  0  0  0  0  0  0  0
   57.6550   31.7910   44.8920 C   0  0  0  0  0  0  0  0  0  0  0  0
   58.2720   32.6960   45.8870 C   0  0  0  0  0  0  0  0  0  0  0  0
   59.4440   32.4300   46.5750 C   0  0  0  0  0  0  0  0  0  0  0  0
   60.0739   31.5329   46.4836 H   0  0  0  0  0  0  0  0  0  0  0  0
   59.6640   33.5180   47.4000 C   0  0  0  0  0  0  0  0  0  0  0  0
   60.7980   33.6750   48.3320 C   0  0  0  0  0  0  0  0  0  0  0  0
   61.7930   34.3650   47.9760 O   0  0  0  0  0  0  0  0  0  0  0  0
   60.7850   33.0590   49.6270 N   0  0  0  0  0  0  0  0  0  0  0  0
   59.9320   32.5470   49.9390 H   0  0  0  0  0  0  0  0  0  0  0  0
   61.9410   33.1440   50.5220 C   0  0  0  0  0  0  0  0  0  0  0  0
   62.6822   32.3892   50.2205 H   0  0  0  0  0  0  0  0  0  0  0  0
   62.3603   34.1582   50.4470 H   0  0  0  0  0  0  0  0  0  0  0  0
   61.5440   32.8960   51.9820 C   0  0  0  0  0  0  0  0  0  0  0  0
   61.8346   31.8729   52.2627 H   0  0  0  0  0  0  0  0  0  0  0  0
   62.0606   33.6360   52.6109 H   0  0  0  0  0  0  0  0  0  0  0  0
   60.0650   33.0560   52.1840 C   0  0  0  0  0  0  0  0  0  0  0  0
   59.4140   34.2090   52.6160 C   0  0  0  0  0  0  0  0  0  0  0  0
   59.9090   35.1700   52.8196 H   0  0  0  0  0  0  0  0  0  0  0  0
   58.0880   33.9810   52.7500 N   0  0  0  0  0  0  0  0  0  0  0  0
   57.3640   34.6660   53.0640 H   0  0  0  0  0  0  0  0  0  0  0  0
   57.8960   32.6940   52.4110 C   0  0  0  0  0  0  0  0  0  0  0  0
   56.6890   31.9940   52.4070 C   0  0  0  0  0  0  0  0  0  0  0  0
   55.7466   32.4858   52.6898 H   0  0  0  0  0  0  0  0  0  0  0  0
   56.7160   30.6400   52.0300 C   0  0  0  0  0  0  0  0  0  0  0  0
   55.7825   30.0583   52.0159 H   0  0  0  0  0  0  0  0  0  0  0  0
   57.9340   30.0210   51.6690 C   0  0  0  0  0  0  0  0  0  0  0  0
   57.9423   28.9608   51.3759 H   0  0  0  0  0  0  0  0  0  0  0  0
   59.1360   30.7520   51.6820 C   0  0  0  0  0  0  0  0  0  0  0  0
   60.0900   30.2809   51.4027 H   0  0  0  0  0  0  0  0  0  0  0  0
   59.0790   32.0950   52.0610 C   0  0  0  0  0  0  0  0  0  0  0  0
   58.6190   34.3990   47.1860 C   0  0  0  0  0  0  0  0  0  0  0  0
   58.4944   35.3671   47.6932 H   0  0  0  0  0  0  0  0  0  0  0  0
   57.7780   33.8950   46.2650 N   0  0  0  0  0  0  0  0  0  0  0  0
   56.9060   34.3600   45.9300 H   0  0  0  0  0  0  0  0  0  0  0  0
   57.6400   32.0880   43.5200 C   0  0  0  0  0  0  0  0  0  0  0  0
   58.0943   33.0187   43.1493 H   0  0  0  0  0  0  0  0  0  0  0  0
   57.0440   31.1930   42.6300 C   0  0  0  0  0  0  0  0  0  0  0  0
   57.0274   31.4177   41.5533 H   0  0  0  0  0  0  0  0  0  0  0  0
   56.4690   30.0130   43.1050 C   0  0  0  0  0  0  0  0  0  0  0  0
   55.8910   29.1460   42.2350 F   0  0  0  0  0  0  0  0  0  0  0  0
   57.9940   27.6410   45.8430 C   0  0  0  0  0  0  0  0  0  0  0  0
   58.5715   28.4933   45.4556 H   0  0  0  0  0  0  0  0  0  0  0  0
   58.6360   26.6150   46.5400 C   0  0  0  0  0  0  0  0  0  0  0  0
   59.7232   26.6551   46.7023 H   0  0  0  0  0  0  0  0  0  0  0  0
   57.8950   25.5390   47.0300 C   0  0  0  0  0  0  0  0  0  0  0  0
   58.3915   24.7273   47.5819 H   0  0  0  0  0  0  0  0  0  0  0  0
  1  2  1  0
  2  3  2  0
  3  4  1  0
  4  5  1  0
  5  6  2  0
  6  7  1  0
  7  8  1  0
  8  9  1  0
  9 10  2  0
 10 11  1  0
 10 12  1  0
 12 13  1  0
 13 14  2  0
 13 15  1  0
 15 16  1  0
 15 17  1  0
 17 18  1  0
 17 19  1  0
 17 20  1  0
 20 21  1  0
 20 22  1  0
 20 23  1  0
 23 24  2  0
 24 25  1  0
 24 26  1  0
 26 27  1  0
 26 28  1  0
 28 29  2  0
 29 30  1  0
 29 31  1  0
 31 32  1  0
 31 33  2  0
 33 34  1  0
 33 35  1  0
 35 36  1  0
 35 37  2  0
 12 38  2  0
 38 39  1  0
 38 40  1  0
 40 41  1  0
  8 42  2  0
 42 43  1  0
 42 44  1  0
 44 45  1  0
 44 46  2  0
 46 47  1  0
  4 48  2  0
 48 49  1  0
 48 50  1  0
 50 51  1  0
 50 52  2  0
 52 53  1  0
 52  2  1  0
 46  6  1  0
 40  9  1  0
 37 23  1  0
 37 28  1  0
M  CHG  1   7  -1
M  END
>  <UniqueID>  (73) 
68

>  <SMILES>  (73) 
O=C(NCCc1c[nH]c2ccccc12)c1c[nH]c(-c2ccc(F)/c(=N/c3ccccn3)[n-]2)c1

>  <Energy>  (73) 
117.47660673964668

>  <Genealogy>  (73) 
O=C(NCCc1c[nH]c2ccccc12)c1c[nH]c(-c2ccc(F)c(=Nc3ccccn3)[n-]2)c1 (protonated)
O=C(NCCc1c[nH]c2ccccc12)c1c[nH]c(-c2ccc(F)/c(=N/c3ccccn3)[n-]2)c1 (cis-trans isomerization)
O=C(NCCc1c[nH]c2ccccc12)c1c[nH]c(-c2ccc(F)/c(=N/c3ccccn3)[n-]2)c1 (3D coordinates assigned)
O=C(NCCc1c[nH]c2ccccc12)c1c[nH]c(-c2ccc(F)/c(=N/c3ccccn3)[n-]2)c1 (optimized conformer: 117.47660673964668 kcal/mol)

>  <smiles>  (73) 
O=C(NCCc1c[nH]c2ccccc12)c1c[nH]c(-c2ccc(F)c(=Nc3ccccn3)[nH]2)c1

>  <score_type>  (73) 
oracle

>  <origin>  (73) 
adg

>  <m_score__min__energy>  (73) 
-11.220000000000001

>  <m_primary>  (73) 
energy

$$$$
73:0
     RDKit          3D

 36 38  0  0  0  0  0  0  0  0999 V2000
   58.0860   33.7580   52.5760 C   0  0  0  0  0  0  0  0  0  0  0  0
   58.9380   33.2430   51.6820 C   0  0  0  0  0  0  0  0  0  0  0  0
   60.2050   33.7390   51.5910 N   0  0  0  0  0  0  0  0  0  0  0  0
   60.9260   33.1080   50.6440 C   0  0  0  0  0  0  0  0  0  0  0  0
   62.1220   33.3980   50.3820 O   0  0  0  0  0  0  0  0  0  0  0  0
   60.0490   31.9130   49.8700 S   0  0  0  0  0  0  0  0  0  0  0  0
   58.6500   32.1900   50.7830 C   0  0  0  0  0  0  0  0  0  0  0  0
   57.4800   31.5310   50.6550 C   0  0  0  0  0  0  0  0  0  0  0  0
   56.9000   30.6230   51.6720 C   0  0  0  0  0  0  0  0  0  0  0  0
   57.4090   29.4200   52.0230 N   0  0  0  0  0  0  0  0  0  0  0  0
   56.5650   28.9690   52.9740 C   0  0  0  0  0  0  0  0  0  0  0  0
   56.7050   27.8510   53.5370 O   0  0  0  0  0  0  0  0  0  0  0  0
   55.5610   29.8220   53.2530 N   0  0  0  0  0  0  0  0  0  0  0  0
   54.4300   29.6100   54.1580 C   0  0  0  0  0  0  0  0  0  0  0  0
   53.2440   28.9770   53.4190 C   0  0  0  0  0  0  0  0  0  0  0  0
   52.6180   29.9430   52.4480 C   0  0  0  0  0  0  0  0  0  0  0  0
   52.6360   29.6750   51.0690 C   0  0  0  0  0  0  0  0  0  0  0  0
   52.1040   30.6000   50.1640 C   0  0  0  0  0  0  0  0  0  0  0  0
   51.5560   31.7980   50.6300 C   0  0  0  0  0  0  0  0  0  0  0  0
   51.0300   32.7180   49.7300 O   0  0  0  0  0  0  0  0  0  0  0  0
   51.5390   32.0740   52.0000 C   0  0  0  0  0  0  0  0  0  0  0  0
   52.0710   31.1520   52.9080 C   0  0  0  0  0  0  0  0  0  0  0  0
   55.7640   30.8640   52.4280 C   0  0  0  0  0  0  0  0  0  0  0  0
   54.9260   31.9760   52.3610 O   0  0  0  0  0  0  0  0  0  0  0  0
   57.0630   33.3610   52.6529 H   0  0  0  0  0  0  0  0  0  0  0  0
   58.4086   34.5783   53.2340 H   0  0  0  0  0  0  0  0  0  0  0  0
   56.9130   31.6791   49.7241 H   0  0  0  0  0  0  0  0  0  0  0  0
   54.7429   28.9421   54.9741 H   0  0  0  0  0  0  0  0  0  0  0  0
   54.1136   30.5850   54.5570 H   0  0  0  0  0  0  0  0  0  0  0  0
   53.5975   28.0939   52.8666 H   0  0  0  0  0  0  0  0  0  0  0  0
   52.4845   28.6958   54.1634 H   0  0  0  0  0  0  0  0  0  0  0  0
   53.0700   28.7343   50.6993 H   0  0  0  0  0  0  0  0  0  0  0  0
   52.1171   30.3841   49.0855 H   0  0  0  0  0  0  0  0  0  0  0  0
   51.1068   33.0174   52.3649 H   0  0  0  0  0  0  0  0  0  0  0  0
   52.0608   31.3747   53.9852 H   0  0  0  0  0  0  0  0  0  0  0  0
   54.3570   32.1720   51.5490 H   0  0  0  0  0  0  0  0  0  0  0  0
  1  2  2  0
  2  3  1  0
  3  4  1  0
  4  5  2  0
  4  6  1  0
  6  7  1  0
  7  8  2  3
  8  9  1  0
  9 10  1  0
 10 11  1  0
 11 12  2  0
 11 13  1  0
 13 14  1  0
 14 15  1  0
 15 16  1  0
 16 17  2  0
 17 18  1  0
 18 19  2  0
 19 20  1  0
 19 21  1  0
 21 22  2  0
 13 23  1  0
 23 24  1  0
  7  2  1  0
 23  9  2  0
 22 16  1  0
  1 25  1  0
  1 26  1  0
  8 27  1  0
 14 28  1  0
 14 29  1  0
 15 30  1  0
 15 31  1  0
 17 32  1  0
 18 33  1  0
 21 34  1  0
 22 35  1  0
 24 36  1  0
M  CHG  3   3  -1  10  -1  20  -1
M  END
>  <UniqueID>  (74) 
69

>  <SMILES>  (74) 
C=c1[n-]c(=O)sc1=Cc1[n-]c(=O)n(CCc2ccc([O-])cc2)c1O

>  <Energy>  (74) 
101.26763616604863

>  <Genealogy>  (74) 
C=c1[n-]c(=O)sc1=Cc1[n-]c(=O)n(CCc2ccc([O-])cc2)c1O (protonated)
C=c1[n-]c(=O)sc1=Cc1[n-]c(=O)n(CCc2ccc([O-])cc2)c1O (3D coordinates assigned)
C=c1[n-]c(=O)sc1=Cc1[n-]c(=O)n(CCc2ccc([O-])cc2)c1O (optimized conformer: 101.26763616604863 kcal/mol)

>  <smiles>  (74) 
C=c1[nH]c(=O)sc1=Cc1[nH]c(=O)n(CCc2ccc(O)cc2)c1O

>  <score_type>  (74) 
oracle

>  <origin>  (74) 
adg

>  <m_score__min__energy>  (74) 
-12.44

>  <m_primary>  (74) 
energy

$$$$
74:0
     RDKit          3D

 41 43  0  0  0  0  0  0  0  0999 V2000
   61.2294   30.9248   45.4952 H   0  0  0  0  0  0  0  0  0  0  0  0
   60.6560   30.4450   46.3020 C   0  0  0  0  0  0  0  0  0  0  0  0
   59.4360   29.9050   46.0400 N   0  0  0  0  0  0  0  0  0  0  0  0
   58.6900   29.3000   47.0050 C   0  0  0  0  0  0  0  0  0  0  0  0
   57.5140   28.8010   46.7490 N   0  0  0  0  0  0  0  0  0  0  0  0
   56.9950   28.2590   45.5200 C   0  0  0  0  0  0  0  0  0  0  0  0
   56.0610   27.4180   45.5950 O   0  0  0  0  0  0  0  0  0  0  0  0
   57.3990   28.7410   44.1500 C   0  0  0  0  0  0  0  0  0  0  0  0
   58.4069   29.1781   44.2056 H   0  0  0  0  0  0  0  0  0  0  0  0
   57.3870   27.8841   43.4603 H   0  0  0  0  0  0  0  0  0  0  0  0
   56.2330   30.0050   43.5270 S   0  0  0  0  0  0  0  0  0  0  0  0
   57.2090   31.4250   44.0520 C   0  0  0  0  0  0  0  0  0  0  0  0
   57.7170   32.3520   43.1240 C   0  0  0  0  0  0  0  0  0  0  0  0
   57.4640   32.2140   41.6480 C   0  0  0  0  0  0  0  0  0  0  0  0
   56.5087   31.6929   41.4869 H   0  0  0  0  0  0  0  0  0  0  0  0
   57.4190   33.2125   41.1888 H   0  0  0  0  0  0  0  0  0  0  0  0
   58.2792   31.6356   41.1888 H   0  0  0  0  0  0  0  0  0  0  0  0
   58.5150   33.3950   43.5970 C   0  0  0  0  0  0  0  0  0  0  0  0
   58.9477   34.1217   42.8937 H   0  0  0  0  0  0  0  0  0  0  0  0
   58.7610   33.5120   44.9610 C   0  0  0  0  0  0  0  0  0  0  0  0
   59.5510   34.5150   45.4200 N   0  0  0  0  0  0  0  0  0  0  0  0
   59.8090   34.6460   46.7190 N   0  0  0  0  0  0  0  0  0  0  0  0
   59.2910   33.7840   47.6300 C   0  0  0  0  0  0  0  0  0  0  0  0
   59.6040   33.9670   49.0840 C   0  0  0  0  0  0  0  0  0  0  0  0
   58.8119   33.5039   49.6907 H   0  0  0  0  0  0  0  0  0  0  0  0
   60.5683   33.4904   49.3143 H   0  0  0  0  0  0  0  0  0  0  0  0
   59.6616   35.0411   49.3143 H   0  0  0  0  0  0  0  0  0  0  0  0
   58.4640   32.7450   47.1790 C   0  0  0  0  0  0  0  0  0  0  0  0
   57.9690   31.9350   48.0110 O   0  0  0  0  0  0  0  0  0  0  0  0
   58.2090   32.6130   45.8390 N   0  0  0  0  0  0  0  0  0  0  0  0
   57.4470   31.6050   45.3820 N   0  0  0  0  0  0  0  0  0  0  0  0
   57.0330   30.9110   46.0450 H   0  0  0  0  0  0  0  0  0  0  0  0
   59.1980   29.2030   48.3060 C   0  0  0  0  0  0  0  0  0  0  0  0
   58.6229   28.6831   49.0863 H   0  0  0  0  0  0  0  0  0  0  0  0
   60.4440   29.7720   48.6100 C   0  0  0  0  0  0  0  0  0  0  0  0
   61.0050   29.6930   49.9990 C   0  0  0  0  0  0  0  0  0  0  0  0
   60.1912   29.8076   50.7302 H   0  0  0  0  0  0  0  0  0  0  0  0
   61.4923   28.7174   50.1427 H   0  0  0  0  0  0  0  0  0  0  0  0
   61.7428   30.4961   50.1427 H   0  0  0  0  0  0  0  0  0  0  0  0
   61.1810   30.3910   47.5930 C   0  0  0  0  0  0  0  0  0  0  0  0
   62.1655   30.8309   47.8104 H   0  0  0  0  0  0  0  0  0  0  0  0
  1  2  1  0
  2  3  1  0
  3  4  1  0
  4  5  2  0
  5  6  1  0
  6  7  2  0
  6  8  1  0
  8  9  1  0
  8 10  1  0
  8 11  1  0
 11 12  1  0
 12 13  1  0
 13 14  1  0
 14 15  1  0
 14 16  1  0
 14 17  1  0
 13 18  2  0
 18 19  1  0
 18 20  1  0
 20 21  2  0
 21 22  1  0
 22 23  2  0
 23 24  1  0
 24 25  1  0
 24 26  1  0
 24 27  1  0
 23 28  1  0
 28 29  2  0
 28 30  1  0
 30 31  1  0
 31 32  1  0
  4 33  1  0
 33 34  1  0
 33 35  2  0
 35 36  1  0
 36 37  1  0
 36 38  1  0
 36 39  1  0
 35 40  1  0
 40 41  1  0
 40  2  2  0
 31 12  2  0
 30 20  1  0
M  CHG  2   3  -1  31   1
M  END
>  <UniqueID>  (75) 
70

>  <SMILES>  (75) 
Cc1cc[n-]/c(=N\C(=O)CSc2[nH+]n3c(=O)c(C)nnc3cc2C)c1

>  <Energy>  (75) 
44.84729757592032

>  <Genealogy>  (75) 
Cc1cc[n-]c(=NC(=O)CSc2[nH+]n3c(=O)c(C)nnc3cc2C)c1 (protonated)
Cc1cc[n-]/c(=N\C(=O)CSc2[nH+]n3c(=O)c(C)nnc3cc2C)c1 (cis-trans isomerization)
Cc1cc[n-]/c(=N\C(=O)CSc2[nH+]n3c(=O)c(C)nnc3cc2C)c1 (3D coordinates assigned)
Cc1cc[n-]/c(=N\C(=O)CSc2[nH+]n3c(=O)c(C)nnc3cc2C)c1 (optimized conformer: 44.84729757592032 kcal/mol)

>  <smiles>  (75) 
Cc1cc[nH]c(=NC(=O)CSc2nn3c(=O)c(C)nnc3cc2C)c1

>  <score_type>  (75) 
oracle

>  <origin>  (75) 
adg

>  <m_score__min__energy>  (75) 
-9.3300000000000001

>  <m_primary>  (75) 
energy

$$$$
75:0
     RDKit          3D

 35 37  0  0  0  0  0  0  0  0999 V2000
   55.5170   27.9140   45.2540 H   0  0  0  0  0  0  0  0  0  0  0  0
   56.0560   27.1310   45.6860 N   0  0  0  0  0  0  0  0  0  0  0  0
   57.4240   26.9110   45.3510 C   0  0  0  0  0  0  0  0  0  0  0  0
   57.7200   26.4330   44.2250 O   0  0  0  0  0  0  0  0  0  0  0  0
   58.4830   27.3220   46.2860 C   0  0  0  0  0  0  0  0  0  0  0  0
   58.9280   26.3860   47.2480 C   0  0  0  0  0  0  0  0  0  0  0  0
   58.5275   25.3616   47.2323 H   0  0  0  0  0  0  0  0  0  0  0  0
   59.8770   26.7450   48.2270 C   0  0  0  0  0  0  0  0  0  0  0  0
   60.2046   26.0012   48.9682 H   0  0  0  0  0  0  0  0  0  0  0  0
   60.4060   28.0420   48.2630 C   0  0  0  0  0  0  0  0  0  0  0  0
   61.1387   28.3357   49.0291 H   0  0  0  0  0  0  0  0  0  0  0  0
   59.9740   28.9460   47.2980 C   0  0  0  0  0  0  0  0  0  0  0  0
   59.0580   28.6150   46.3290 C   0  0  0  0  0  0  0  0  0  0  0  0
   58.9190   29.6860   45.5040 N   0  0  0  0  0  0  0  0  0  0  0  0
   58.1320   29.8580   44.2810 C   0  0  0  0  0  0  0  0  0  0  0  0
   58.0016   28.8790   43.7967 H   0  0  0  0  0  0  0  0  0  0  0  0
   58.6677   30.5499   43.6145 H   0  0  0  0  0  0  0  0  0  0  0  0
   56.7820   30.4380   44.5860 C   0  0  0  0  0  0  0  0  0  0  0  0
   55.7950   29.6600   44.6830 O   0  0  0  0  0  0  0  0  0  0  0  0
   56.6530   31.8380   44.8860 N   0  0  0  0  0  0  0  0  0  0  0  0
   57.5840   32.7140   45.1390 C   0  0  0  0  0  0  0  0  0  0  0  0
   57.9640   32.8890   46.4350 N   0  0  0  0  0  0  0  0  0  0  0  0
   58.9330   33.7690   46.8010 C   0  0  0  0  0  0  0  0  0  0  0  0
   59.2810   33.9080   48.1890 C   0  0  0  0  0  0  0  0  0  0  0  0
   59.5620   34.0190   49.3060 N   0  0  0  0  0  0  0  0  0  0  0  0
   59.5850   34.5320   45.8290 C   0  0  0  0  0  0  0  0  0  0  0  0
   60.3648   35.2524   46.1171 H   0  0  0  0  0  0  0  0  0  0  0  0
   59.2350   34.3690   44.4900 C   0  0  0  0  0  0  0  0  0  0  0  0
   59.7445   34.9586   43.7136 H   0  0  0  0  0  0  0  0  0  0  0  0
   58.2380   33.4580   44.1320 C   0  0  0  0  0  0  0  0  0  0  0  0
   57.9648   33.3213   43.0753 H   0  0  0  0  0  0  0  0  0  0  0  0
   59.7320   30.6370   46.0270 C   0  0  0  0  0  0  0  0  0  0  0  0
   59.8417   31.6464   45.6038 H   0  0  0  0  0  0  0  0  0  0  0  0
   60.3930   30.2080   47.1260 N   0  0  0  0  0  0  0  0  0  0  0  0
   61.0910   30.7380   47.6940 H   0  0  0  0  0  0  0  0  0  0  0  0
  1  2  1  0
  2  3  1  0
  3  4  2  0
  3  5  1  0
  5  6  2  0
  6  7  1  0
  6  8  1  0
  8  9  1  0
  8 10  2  0
 10 11  1  0
 10 12  1  0
 12 13  2  0
 13 14  1  0
 14 15  1  0
 15 16  1  0
 15 17  1  0
 15 18  1  0
 18 19  2  0
 18 20  1  0
 20 21  2  0
 21 22  1  0
 22 23  1  0
 23 24  1  0
 24 25  3  0
 23 26  2  0
 26 27  1  0
 26 28  1  0
 28 29  1  0
 28 30  2  0
 30 31  1  0
 14 32  1  0
 32 33  1  0
 32 34  2  0
 34 35  1  0
 13  5  1  0
 30 21  1  0
 34 12  1  0
M  CHG  3   2  -1  22  -1  34   1
M  END
>  <UniqueID>  (76) 
71

>  <SMILES>  (76) 
N#Cc1ccc/c(=N\C(=O)Cn2c[nH+]c3cccc(C([NH-])=O)c32)[n-]1

>  <Energy>  (76) 
90.24938687059397

>  <Genealogy>  (76) 
N#Cc1cccc(=NC(=O)Cn2c[nH+]c3cccc(C([NH-])=O)c32)[n-]1 (protonated)
N#Cc1ccc/c(=N\C(=O)Cn2c[nH+]c3cccc(C([NH-])=O)c32)[n-]1 (cis-trans isomerization)
N#Cc1ccc/c(=N\C(=O)Cn2c[nH+]c3cccc(C([NH-])=O)c32)[n-]1 (3D coordinates assigned)
N#Cc1ccc/c(=N\C(=O)Cn2c[nH+]c3cccc(C([NH-])=O)c32)[n-]1 (optimized conformer: 90.24938687059397 kcal/mol)

>  <smiles>  (76) 
N#Cc1cccc(=NC(=O)Cn2cnc3cccc(C(N)=O)c32)[nH]1

>  <score_type>  (76) 
oracle

>  <origin>  (76) 
adg

>  <m_score__min__energy>  (76) 
-10.710000000000001

>  <m_primary>  (76) 
energy

$$$$
76:0
     RDKit          3D

 41 42  0  0  0  0  0  0  0  0999 V2000
   59.8040   34.6850   46.1060 C   0  0  0  0  0  0  0  0  0  0  0  0
   59.1150   33.3980   45.7560 C   0  0  0  0  0  0  0  0  0  0  0  0
   59.0860   32.3450   46.6710 C   0  0  0  0  0  0  0  0  0  0  0  0
   58.4710   31.1220   46.3500 C   0  0  0  0  0  0  0  0  0  0  0  0
   58.5060   30.0280   47.3840 C   0  0  0  0  0  0  0  0  0  0  0  0
   57.8390   30.9620   45.0850 C   0  0  0  0  0  0  0  0  0  0  0  0
   56.9210   29.4820   44.6810 S   0  0  0  0  0  0  0  0  0  0  0  0
   57.4380   28.8070   43.4420 O   0  0  0  0  0  0  0  0  0  0  0  0
   55.4800   29.8490   44.4660 O   0  0  0  0  0  0  0  0  0  0  0  0
   57.0270   28.3470   45.9580 O   0  0  0  0  0  0  0  0  0  0  0  0
   57.1920   26.9650   45.7870 C   0  0  0  0  0  0  0  0  0  0  0  0
   58.4530   26.3720   45.5820 C   0  0  0  0  0  0  0  0  0  0  0  0
   58.5660   24.9870   45.4330 C   0  0  0  0  0  0  0  0  0  0  0  0
   57.4300   24.1690   45.5060 C   0  0  0  0  0  0  0  0  0  0  0  0
   57.5740   22.7130   45.3030 C   0  0  0  0  0  0  0  0  0  0  0  0
   57.7280   22.1110   44.1150 C   0  0  0  0  0  0  0  0  0  0  0  0
   56.6340   21.6900   43.2880 N   0  0  0  0  0  0  0  0  0  0  0  0
   56.2180   20.5180   43.3870 O   0  0  0  0  0  0  0  0  0  0  0  0
   55.8640   22.6110   42.6160 O   0  0  0  0  0  0  0  0  0  0  0  0
   56.1690   24.7630   45.6770 C   0  0  0  0  0  0  0  0  0  0  0  0
   56.0540   26.1490   45.8250 C   0  0  0  0  0  0  0  0  0  0  0  0
   54.7990   26.7160   46.0110 O   0  0  0  0  0  0  0  0  0  0  0  0
   57.9600   32.0050   44.1250 C   0  0  0  0  0  0  0  0  0  0  0  0
   57.4210   31.8840   42.7210 C   0  0  0  0  0  0  0  0  0  0  0  0
   58.5770   33.2140   44.4820 C   0  0  0  0  0  0  0  0  0  0  0  0
   59.8582   34.7862   47.2000 H   0  0  0  0  0  0  0  0  0  0  0  0
   60.8212   34.6820   45.6872 H   0  0  0  0  0  0  0  0  0  0  0  0
   59.2375   35.5298   45.6872 H   0  0  0  0  0  0  0  0  0  0  0  0
   59.5517   32.4737   47.6592 H   0  0  0  0  0  0  0  0  0  0  0  0
   58.4918   30.4734   48.3897 H   0  0  0  0  0  0  0  0  0  0  0  0
   57.6282   29.3770   47.2588 H   0  0  0  0  0  0  0  0  0  0  0  0
   59.4236   29.4344   47.2588 H   0  0  0  0  0  0  0  0  0  0  0  0
   59.3535   27.0022   45.5390 H   0  0  0  0  0  0  0  0  0  0  0  0
   59.5535   24.5355   45.2572 H   0  0  0  0  0  0  0  0  0  0  0  0
   57.5533   22.0722   46.1969 H   0  0  0  0  0  0  0  0  0  0  0  0
   58.7511   21.9296   43.7540 H   0  0  0  0  0  0  0  0  0  0  0  0
   55.2664   24.1345   45.6946 H   0  0  0  0  0  0  0  0  0  0  0  0
   56.3484   31.6432   42.7595 H   0  0  0  0  0  0  0  0  0  0  0  0
   57.5641   32.8366   42.1899 H   0  0  0  0  0  0  0  0  0  0  0  0
   57.9576   31.0840   42.1899 H   0  0  0  0  0  0  0  0  0  0  0  0
   58.6373   34.0291   43.7459 H   0  0  0  0  0  0  0  0  0  0  0  0
  1  2  1  0
  2  3  2  0
  3  4  1  0
  4  5  1  0
  4  6  2  0
  6  7  1  0
  7  8  2  0
  7  9  2  0
  7 10  1  0
 10 11  1  0
 11 12  2  0
 12 13  1  0
 13 14  2  0
 14 15  1  0
 15 16  2  3
 16 17  1  0
 17 18  2  0
 17 19  1  0
 14 20  1  0
 20 21  2  0
 21 22  1  0
  6 23  1  0
 23 24  1  0
 23 25  2  0
 25  2  1  0
 21 11  1  0
  1 26  1  0
  1 27  1  0
  1 28  1  0
  3 29  1  0
  5 30  1  0
  5 31  1  0
  5 32  1  0
 12 33  1  0
 13 34  1  0
 15 35  1  0
 16 36  1  0
 20 37  1  0
 24 38  1  0
 24 39  1  0
 24 40  1  0
 25 41  1  0
M  CHG  3  17   1  19  -1  22  -1
M  END
>  <UniqueID>  (77) 
72

>  <SMILES>  (77) 
Cc1cc(C)c(S(=O)(=O)Oc2ccc(C=C[N+](=O)[O-])cc2[O-])c(C)c1

>  <Energy>  (77) 
52.71357238046153

>  <Genealogy>  (77) 
Cc1cc(C)c(S(=O)(=O)Oc2ccc(C=C[N+](=O)[O-])cc2[O-])c(C)c1 (protonated)
Cc1cc(C)c(S(=O)(=O)Oc2ccc(C=C[N+](=O)[O-])cc2[O-])c(C)c1 (3D coordinates assigned)
Cc1cc(C)c(S(=O)(=O)Oc2ccc(C=C[N+](=O)[O-])cc2[O-])c(C)c1 (optimized conformer: 52.71357238046153 kcal/mol)

>  <smiles>  (77) 
Cc1cc(C)c(S(=O)(=O)Oc2ccc(C=C[N+](=O)[O-])cc2O)c(C)c1

>  <score_type>  (77) 
oracle

>  <origin>  (77) 
adg

>  <m_score__min__energy>  (77) 
-13.85

>  <m_primary>  (77) 
energy

$$$$
77:0
     RDKit          3D

 39 41  0  0  0  0  0  0  0  0999 V2000
   59.2730   34.9850   47.3110 C   0  0  0  0  0  0  0  0  0  0  0  0
   58.6090   33.6850   47.1220 N   0  0  0  0  0  0  0  0  0  0  0  0
   57.3590   33.7450   46.3370 C   0  0  0  0  0  0  0  0  0  0  0  0
   57.5590   34.1240   44.8610 C   0  0  0  0  0  0  0  0  0  0  0  0
   58.0800   32.9520   44.0320 C   0  0  0  0  0  0  0  0  0  0  0  0
   58.1870   31.6580   44.7560 N   0  0  0  0  0  0  0  0  0  0  0  0
   58.8840   31.4790   45.9430 C   0  0  0  0  0  0  0  0  0  0  0  0
   58.9640   30.2390   46.4970 N   0  0  0  0  0  0  0  0  0  0  0  0
   58.4260   29.1450   45.9130 C   0  0  0  0  0  0  0  0  0  0  0  0
   58.5210   27.8110   46.5960 C   0  0  0  0  0  0  0  0  0  0  0  0
   57.2540   27.0900   46.4960 N   0  0  0  0  0  0  0  0  0  0  0  0
   57.1190   25.9320   45.6610 C   0  0  0  0  0  0  0  0  0  0  0  0
   58.1030   25.5150   44.9910 O   0  0  0  0  0  0  0  0  0  0  0  0
   55.8320   25.2240   45.5790 C   0  0  0  0  0  0  0  0  0  0  0  0
   55.6420   23.9030   45.2330 C   0  0  0  0  0  0  0  0  0  0  0  0
   54.2750   23.7390   45.3070 C   0  0  0  0  0  0  0  0  0  0  0  0
   53.7040   24.9020   45.6740 N   0  0  0  0  0  0  0  0  0  0  0  0
   54.6640   25.7670   45.8270 O   0  0  0  0  0  0  0  0  0  0  0  0
   57.7460   29.2850   44.7130 C   0  0  0  0  0  0  0  0  0  0  0  0
   57.6500   30.5490   44.1350 C   0  0  0  0  0  0  0  0  0  0  0  0
   57.0600   30.6490   43.0230 O   0  0  0  0  0  0  0  0  0  0  0  0
   59.5240   32.5940   46.7490 C   0  0  0  0  0  0  0  0  0  0  0  0
   59.3778   35.1902   48.3866 H   0  0  0  0  0  0  0  0  0  0  0  0
   60.2685   34.9596   46.8438 H   0  0  0  0  0  0  0  0  0  0  0  0
   58.6688   35.7767   46.8438 H   0  0  0  0  0  0  0  0  0  0  0  0
   56.8788   32.7562   46.3771 H   0  0  0  0  0  0  0  0  0  0  0  0
   56.7419   34.5373   46.7858 H   0  0  0  0  0  0  0  0  0  0  0  0
   56.5947   34.4515   44.4452 H   0  0  0  0  0  0  0  0  0  0  0  0
   58.3072   34.9291   44.8166 H   0  0  0  0  0  0  0  0  0  0  0  0
   57.3988   32.8092   43.1802 H   0  0  0  0  0  0  0  0  0  0  0  0
   59.1052   33.2206   43.7372 H   0  0  0  0  0  0  0  0  0  0  0  0
   59.3139   27.2163   46.1188 H   0  0  0  0  0  0  0  0  0  0  0  0
   58.7537   27.9728   47.6589 H   0  0  0  0  0  0  0  0  0  0  0  0
   56.4250   27.4160   47.0430 H   0  0  0  0  0  0  0  0  0  0  0  0
   56.4022   23.1557   44.9617 H   0  0  0  0  0  0  0  0  0  0  0  0
   53.7349   22.8037   45.0987 H   0  0  0  0  0  0  0  0  0  0  0  0
   57.2893   28.4115   44.2247 H   0  0  0  0  0  0  0  0  0  0  0  0
   59.9327   32.1583   47.6727 H   0  0  0  0  0  0  0  0  0  0  0  0
   60.2949   33.0411   46.1042 H   0  0  0  0  0  0  0  0  0  0  0  0
  1  2  1  0
  2  3  1  0
  3  4  1  0
  4  5  1  0
  5  6  1  0
  6  7  1  0
  7  8  2  0
  8  9  1  0
  9 10  1  0
 10 11  1  0
 11 12  1  0
 12 13  2  0
 12 14  1  0
 14 15  2  0
 15 16  1  0
 16 17  2  0
 17 18  1  0
  9 19  2  0
 19 20  1  0
 20 21  2  0
  7 22  1  0
 22  2  1  0
 20  6  1  0
 18 14  1  0
  1 23  1  0
  1 24  1  0
  1 25  1  0
  3 26  1  0
  3 27  1  0
  4 28  1  0
  4 29  1  0
  5 30  1  0
  5 31  1  0
 10 32  1  0
 10 33  1  0
 11 34  1  0
 15 35  1  0
 16 36  1  0
 19 37  1  0
 22 38  1  0
 22 39  1  0
M  END
>  <UniqueID>  (78) 
73

>  <SMILES>  (78) 
CN1CCCn2c(nc(CNC(=O)c3ccno3)cc2=O)C1

>  <Energy>  (78) 
87.41898398589242

>  <Genealogy>  (78) 
CN1CCCn2c(nc(CNC(=O)c3ccno3)cc2=O)C1 (3D coordinates assigned)
CN1CCCn2c(nc(CNC(=O)c3ccno3)cc2=O)C1 (nonaromatic ring conformer: 87.41898398589242 kcal/mol)

>  <smiles>  (78) 
CN1CCCn2c(nc(CNC(=O)c3ccno3)cc2=O)C1

>  <score_type>  (78) 
oracle

>  <origin>  (78) 
adg

>  <m_score__min__energy>  (78) 
-6.2199999999999998

>  <m_primary>  (78) 
energy

$$$$
78:0
     RDKit          3D

 38 40  0  0  0  0  0  0  0  0999 V2000
   59.6719   28.8944   44.8966 H   0  0  0  0  0  0  0  0  0  0  0  0
   58.7630   29.5140   44.8890 C   0  0  0  0  0  0  0  0  0  0  0  0
   58.8670   30.8680   44.8670 N   0  0  0  0  0  0  0  0  0  0  0  0
   57.7610   31.6540   44.8510 C   0  0  0  0  0  0  0  0  0  0  0  0
   57.8790   32.9060   44.8320 O   0  0  0  0  0  0  0  0  0  0  0  0
   56.5270   31.0880   44.8530 N   0  0  0  0  0  0  0  0  0  0  0  0
   56.3710   29.7390   44.8750 C   0  0  0  0  0  0  0  0  0  0  0  0
   55.2100   29.2520   44.8710 O   0  0  0  0  0  0  0  0  0  0  0  0
   57.5020   28.9040   44.9020 C   0  0  0  0  0  0  0  0  0  0  0  0
   57.3880   27.3970   44.8960 C   0  0  0  0  0  0  0  0  0  0  0  0
   58.3603   26.9674   44.6130 H   0  0  0  0  0  0  0  0  0  0  0  0
   56.6067   27.1160   44.1744 H   0  0  0  0  0  0  0  0  0  0  0  0
   56.9920   26.8600   46.2490 C   0  0  0  0  0  0  0  0  0  0  0  0
   55.8990   26.2440   46.3760 O   0  0  0  0  0  0  0  0  0  0  0  0
   57.9220   26.8360   47.3380 N   0  0  0  0  0  0  0  0  0  0  0  0
   58.6710   27.8210   47.7350 C   0  0  0  0  0  0  0  0  0  0  0  0
   58.2080   29.0860   47.8110 N   0  0  0  0  0  0  0  0  0  0  0  0
   59.1770   29.9600   48.2030 C   0  0  0  0  0  0  0  0  0  0  0  0
   58.9080   31.4040   48.3730 C   0  0  0  0  0  0  0  0  0  0  0  0
   58.2320   31.7870   49.3700 O   0  0  0  0  0  0  0  0  0  0  0  0
   59.3430   32.3650   47.3790 N   0  0  0  0  0  0  0  0  0  0  0  0
   59.1190   31.9920   46.4250 H   0  0  0  0  0  0  0  0  0  0  0  0
   60.8030   32.5740   47.4350 C   0  0  0  0  0  0  0  0  0  0  0  0
   61.0769   32.9455   48.4335 H   0  0  0  0  0  0  0  0  0  0  0  0
   61.3061   31.6167   47.2338 H   0  0  0  0  0  0  0  0  0  0  0  0
   61.2470   33.6040   46.3700 C   0  0  0  0  0  0  0  0  0  0  0  0
   61.8964   34.3505   46.8506 H   0  0  0  0  0  0  0  0  0  0  0  0
   61.7775   33.0567   45.5769 H   0  0  0  0  0  0  0  0  0  0  0  0
   60.1500   34.2740   45.7710 O   0  0  0  0  0  0  0  0  0  0  0  0
   59.2940   34.7860   46.7710 C   0  0  0  0  0  0  0  0  0  0  0  0
   59.8805   35.4097   47.4616 H   0  0  0  0  0  0  0  0  0  0  0  0
   58.5069   35.3824   46.2865 H   0  0  0  0  0  0  0  0  0  0  0  0
   58.6260   33.6440   47.5660 C   0  0  0  0  0  0  0  0  0  0  0  0
   58.6290   33.9029   48.6351 H   0  0  0  0  0  0  0  0  0  0  0  0
   57.5971   33.5211   47.1968 H   0  0  0  0  0  0  0  0  0  0  0  0
   60.4270   29.3850   48.4320 C   0  0  0  0  0  0  0  0  0  0  0  0
   61.3335   29.9178   48.7551 H   0  0  0  0  0  0  0  0  0  0  0  0
   60.3070   27.7350   48.1280 S   0  0  0  0  0  0  0  0  0  0  0  0
  1  2  1  0
  2  3  1  0
  3  4  1  0
  4  5  2  0
  4  6  1  0
  6  7  1  0
  7  8  2  0
  7  9  1  0
  9 10  1  0
 10 11  1  0
 10 12  1  0
 10 13  1  0
 13 14  2  0
 13 15  1  0
 15 16  2  0
 16 17  1  0
 17 18  1  0
 18 19  1  0
 19 20  2  0
 19 21  1  0
 21 22  1  0
 21 23  1  0
 23 24  1  0
 23 25  1  0
 23 26  1  0
 26 27  1  0
 26 28  1  0
 26 29  1  0
 29 30  1  0
 30 31  1  0
 30 32  1  0
 30 33  1  0
 33 34  1  0
 33 35  1  0
 18 36  2  0
 36 37  1  0
 36 38  1  0
  9  2  2  0
 38 16  1  0
 33 21  1  0
M  CHG  4   3  -1   6  -1  17  -1  21   1
M  END
>  <UniqueID>  (79) 
74

>  <SMILES>  (79) 
O=C(Cc1c[n-]c(=O)[n-]c1=O)/N=c1/[n-]c(C(=O)[NH+]2CCOCC2)cs1

>  <Energy>  (79) 
90.05474877701509

>  <Genealogy>  (79) 
O=C(Cc1c[n-]c(=O)[n-]c1=O)N=c1[n-]c(C(=O)[NH+]2CCOCC2)cs1 (protonated)
O=C(Cc1c[n-]c(=O)[n-]c1=O)/N=c1/[n-]c(C(=O)[NH+]2CCOCC2)cs1 (cis-trans isomerization)
O=C(Cc1c[n-]c(=O)[n-]c1=O)/N=c1/[n-]c(C(=O)[NH+]2CCOCC2)cs1 (3D coordinates assigned)
O=C(Cc1c[n-]c(=O)[n-]c1=O)/N=c1/[n-]c(C(=O)[NH+]2CCOCC2)cs1 (nonaromatic ring conformer: 90.05474877701509 kcal/mol)

>  <smiles>  (79) 
O=C(Cc1c[nH]c(=O)[nH]c1=O)N=c1[nH]c(C(=O)N2CCOCC2)cs1

>  <score_type>  (79) 
oracle

>  <origin>  (79) 
adg

>  <m_score__min__energy>  (79) 
-11.609999999999999

>  <m_primary>  (79) 
energy

$$$$
79:0
     RDKit          3D

 62 65  0  0  0  0  0  0  0  0999 V2000
   55.1480   29.8390   44.2140 O   0  0  0  0  0  0  0  0  0  0  0  0
   56.3160   30.1540   44.5710 C   0  0  0  0  0  0  0  0  0  0  0  0
   57.3740   29.1020   44.6410 C   0  0  0  0  0  0  0  0  0  0  0  0
   57.1730   28.3050   45.8060 O   0  0  0  0  0  0  0  0  0  0  0  0
   57.3290   26.9120   45.8560 C   0  0  0  0  0  0  0  0  0  0  0  0
   58.5940   26.2940   45.8120 C   0  0  0  0  0  0  0  0  0  0  0  0
   58.7000   24.9010   45.8490 C   0  0  0  0  0  0  0  0  0  0  0  0
   57.5480   24.1080   45.9360 C   0  0  0  0  0  0  0  0  0  0  0  0
   57.6650   22.3490   45.9910 S   0  0  0  0  0  0  0  0  0  0  0  0
   59.0280   21.9040   45.5380 O   0  0  0  0  0  0  0  0  0  0  0  0
   56.6440   21.7720   45.0510 O   0  0  0  0  0  0  0  0  0  0  0  0
   57.3530   21.7550   47.5970 N   0  0  0  0  0  0  0  0  0  0  0  0
   56.2130   22.4420   48.2140 C   0  0  0  0  0  0  0  0  0  0  0  0
   54.9120   22.0040   47.5890 C   0  0  0  0  0  0  0  0  0  0  0  0
   54.6820   20.6500   47.2900 C   0  0  0  0  0  0  0  0  0  0  0  0
   53.4840   20.2560   46.6820 C   0  0  0  0  0  0  0  0  0  0  0  0
   52.5060   21.2080   46.3770 C   0  0  0  0  0  0  0  0  0  0  0  0
   52.7230   22.5560   46.6790 C   0  0  0  0  0  0  0  0  0  0  0  0
   53.9220   22.9540   47.2840 C   0  0  0  0  0  0  0  0  0  0  0  0
   56.2900   24.7210   45.9940 C   0  0  0  0  0  0  0  0  0  0  0  0
   56.1790   26.1130   45.9510 C   0  0  0  0  0  0  0  0  0  0  0  0
   54.9220   26.7050   46.0020 O   0  0  0  0  0  0  0  0  0  0  0  0
   56.6620   31.5240   44.8190 N   0  0  0  0  0  0  0  0  0  0  0  0
   57.9030   31.9950   45.3600 C   0  0  0  0  0  0  0  0  0  0  0  0
   58.5400   31.2320   46.3460 C   0  0  0  0  0  0  0  0  0  0  0  0
   59.7340   31.6720   46.9230 C   0  0  0  0  0  0  0  0  0  0  0  0
   60.2950   32.8960   46.5340 C   0  0  0  0  0  0  0  0  0  0  0  0
   61.8060   33.4580   47.2460 S   0  0  0  0  0  0  0  0  0  0  0  0
   62.5910   32.2570   47.6960 O   0  0  0  0  0  0  0  0  0  0  0  0
   62.6140   34.1890   46.2100 O   0  0  0  0  0  0  0  0  0  0  0  0
   61.4910   34.4920   48.6270 N   0  0  0  0  0  0  0  0  0  0  0  0
   62.2850   34.0960   49.8050 C   0  0  0  0  0  0  0  0  0  0  0  0
   61.7580   32.7910   50.4530 C   0  0  0  0  0  0  0  0  0  0  0  0
   60.4210   32.4820   50.1000 O   0  0  0  0  0  0  0  0  0  0  0  0
   59.6290   33.6490   50.0940 C   0  0  0  0  0  0  0  0  0  0  0  0
   60.0450   34.5710   48.9310 C   0  0  0  0  0  0  0  0  0  0  0  0
   59.6540   33.6710   45.5590 C   0  0  0  0  0  0  0  0  0  0  0  0
   58.4610   33.2300   44.9790 C   0  0  0  0  0  0  0  0  0  0  0  0
   57.3177   28.4647   43.7462 H   0  0  0  0  0  0  0  0  0  0  0  0
   58.3640   29.5791   44.6885 H   0  0  0  0  0  0  0  0  0  0  0  0
   59.5026   26.9107   45.7482 H   0  0  0  0  0  0  0  0  0  0  0  0
   59.6911   24.4255   45.8097 H   0  0  0  0  0  0  0  0  0  0  0  0
   56.1918   22.2087   49.2888 H   0  0  0  0  0  0  0  0  0  0  0  0
   56.3298   23.5242   48.0556 H   0  0  0  0  0  0  0  0  0  0  0  0
   55.4459   19.8973   47.5346 H   0  0  0  0  0  0  0  0  0  0  0  0
   53.3117   19.1960   46.4438 H   0  0  0  0  0  0  0  0  0  0  0  0
   51.5655   20.8962   45.8993 H   0  0  0  0  0  0  0  0  0  0  0  0
   51.9521   23.3039   46.4415 H   0  0  0  0  0  0  0  0  0  0  0  0
   54.0896   24.0149   47.5215 H   0  0  0  0  0  0  0  0  0  0  0  0
   55.3838   24.1026   46.0739 H   0  0  0  0  0  0  0  0  0  0  0  0
   58.0969   30.2784   46.6690 H   0  0  0  0  0  0  0  0  0  0  0  0
   60.2350   31.0562   47.6845 H   0  0  0  0  0  0  0  0  0  0  0  0
   63.3284   33.9406   49.4932 H   0  0  0  0  0  0  0  0  0  0  0  0
   62.2063   34.9000   50.5516 H   0  0  0  0  0  0  0  0  0  0  0  0
   62.4031   31.9591   50.1338 H   0  0  0  0  0  0  0  0  0  0  0  0
   61.7774   32.9413   51.5425 H   0  0  0  0  0  0  0  0  0  0  0  0
   58.5717   33.3696   49.9754 H   0  0  0  0  0  0  0  0  0  0  0  0
   59.7726   34.1842   51.0442 H   0  0  0  0  0  0  0  0  0  0  0  0
   59.4804   34.2805   48.0327 H   0  0  0  0  0  0  0  0  0  0  0  0
   59.8257   35.6057   49.2333 H   0  0  0  0  0  0  0  0  0  0  0  0
   60.0915   34.6312   45.2482 H   0  0  0  0  0  0  0  0  0  0  0  0
   57.9569   33.8497   44.2228 H   0  0  0  0  0  0  0  0  0  0  0  0
  1  2  2  0
  2  3  1  0
  3  4  1  0
  4  5  1  0
  5  6  2  0
  6  7  1  0
  7  8  2  0
  8  9  1  0
  9 10  2  0
  9 11  2  0
  9 12  1  0
 12 13  1  0
 13 14  1  0
 14 15  2  0
 15 16  1  0
 16 17  2  0
 17 18  1  0
 18 19  2  0
  8 20  1  0
 20 21  2  0
 21 22  1  0
  2 23  1  0
 23 24  1  0
 24 25  2  0
 25 26  1  0
 26 27  2  0
 27 28  1  0
 28 29  2  0
 28 30  2  0
 28 31  1  0
 31 32  1  0
 32 33  1  0
 33 34  1  0
 34 35  1  0
 35 36  1  0
 27 37  1  0
 37 38  2  0
 21  5  1  0
 38 24  1  0
 19 14  1  0
 36 31  1  0
  3 39  1  0
  3 40  1  0
  6 41  1  0
  7 42  1  0
 13 43  1  0
 13 44  1  0
 15 45  1  0
 16 46  1  0
 17 47  1  0
 18 48  1  0
 19 49  1  0
 20 50  1  0
 25 51  1  0
 26 52  1  0
 32 53  1  0
 32 54  1  0
 33 55  1  0
 33 56  1  0
 35 57  1  0
 35 58  1  0
 36 59  1  0
 36 60  1  0
 37 61  1  0
 38 62  1  0
M  CHG  3  12  -1  22  -1  23  -1
M  END
>  <UniqueID>  (80) 
75

>  <SMILES>  (80) 
O=C(COc1ccc(S(=O)(=O)[N-]Cc2ccccc2)cc1[O-])[N-]c1ccc(S(=O)(=O)N2CCOCC2)cc1

>  <Energy>  (80) 
76.9935636720584

>  <Genealogy>  (80) 
O=C(COc1ccc(S(=O)(=O)[N-]Cc2ccccc2)cc1[O-])[N-]c1ccc(S(=O)(=O)N2CCOCC2)cc1 (protonated)
O=C(COc1ccc(S(=O)(=O)[N-]Cc2ccccc2)cc1[O-])[N-]c1ccc(S(=O)(=O)N2CCOCC2)cc1 (3D coordinates assigned)
O=C(COc1ccc(S(=O)(=O)[N-]Cc2ccccc2)cc1[O-])[N-]c1ccc(S(=O)(=O)N2CCOCC2)cc1 (nonaromatic ring conformer: 76.9935636720584 kcal/mol)

>  <smiles>  (80) 
O=C(COc1ccc(S(=O)(=O)NCc2ccccc2)cc1O)Nc1ccc(S(=O)(=O)N2CCOCC2)cc1

>  <score_type>  (80) 
oracle

>  <origin>  (80) 
adg

>  <m_score__min__energy>  (80) 
-15.92

>  <m_primary>  (80) 
energy

$$$$
80:0
     RDKit          3D

 74 78  0  0  0  0  0  0  0  0999 V2000
   56.5920   23.3960   48.9750 O   0  0  0  0  0  0  0  0  0  0  0  0
   56.9550   23.4860   47.7700 C   0  0  0  0  0  0  0  0  0  0  0  0
   57.0280   22.3120   46.9520 N   0  0  0  0  0  0  0  0  0  0  0  0
   55.9020   21.4210   46.6960 C   0  0  0  0  0  0  0  0  0  0  0  0
   54.7330   22.2310   46.2160 C   0  0  0  0  0  0  0  0  0  0  0  0
   53.4850   22.1220   46.8560 C   0  0  0  0  0  0  0  0  0  0  0  0
   52.3780   22.8270   46.3680 C   0  0  0  0  0  0  0  0  0  0  0  0
   52.5070   23.6380   45.2360 C   0  0  0  0  0  0  0  0  0  0  0  0
   51.4310   24.3090   44.7520 F   0  0  0  0  0  0  0  0  0  0  0  0
   53.7450   23.7460   44.5900 C   0  0  0  0  0  0  0  0  0  0  0  0
   54.8530   23.0430   45.0770 C   0  0  0  0  0  0  0  0  0  0  0  0
   57.2700   24.8090   47.1900 C   0  0  0  0  0  0  0  0  0  0  0  0
   58.5920   25.2710   47.1370 C   0  0  0  0  0  0  0  0  0  0  0  0
   58.8810   26.4520   46.5350 N   0  0  0  0  0  0  0  0  0  0  0  0
   57.9270   27.2550   45.9840 C   0  0  0  0  0  0  0  0  0  0  0  0
   58.3340   28.4790   45.3210 N   0  0  0  0  0  0  0  0  0  0  0  0
   57.4750   29.0860   44.2930 C   0  0  0  0  0  0  0  0  0  0  0  0
   57.0120   30.4920   44.7330 C   0  0  0  0  0  0  0  0  0  0  0  0
   57.9540   31.1310   45.6870 N   0  0  0  0  0  0  0  0  0  0  0  0
   57.7950   32.5970   45.6900 C   0  0  0  0  0  0  0  0  0  0  0  0
   57.4390   33.0850   47.0630 C   0  0  0  0  0  0  0  0  0  0  0  0
   56.2600   33.4600   47.3080 O   0  0  0  0  0  0  0  0  0  0  0  0
   58.4300   33.1300   48.0970 N   0  0  0  0  0  0  0  0  0  0  0  0
   58.3950   32.1090   49.1540 C   0  0  0  0  0  0  0  0  0  0  0  0
   59.7850   31.6300   49.4770 C   0  0  0  0  0  0  0  0  0  0  0  0
   60.3620   31.8970   50.7310 C   0  0  0  0  0  0  0  0  0  0  0  0
   61.6600   31.4590   51.0160 C   0  0  0  0  0  0  0  0  0  0  0  0
   62.3900   30.7520   50.0550 C   0  0  0  0  0  0  0  0  0  0  0  0
   61.8260   30.4890   48.8050 C   0  0  0  0  0  0  0  0  0  0  0  0
   60.5300   30.9260   48.5130 C   0  0  0  0  0  0  0  0  0  0  0  0
   59.2270   34.3510   48.2740 C   0  0  0  0  0  0  0  0  0  0  0  0
   60.6790   34.0890   47.9760 C   0  0  0  0  0  0  0  0  0  0  0  0
   61.0790   33.6900   46.6890 C   0  0  0  0  0  0  0  0  0  0  0  0
   62.4210   33.4010   46.4240 C   0  0  0  0  0  0  0  0  0  0  0  0
   63.3750   33.5110   47.4430 C   0  0  0  0  0  0  0  0  0  0  0  0
   62.9860   33.9040   48.7270 C   0  0  0  0  0  0  0  0  0  0  0  0
   61.6430   34.1940   48.9930 C   0  0  0  0  0  0  0  0  0  0  0  0
   59.3480   30.7340   45.4150 C   0  0  0  0  0  0  0  0  0  0  0  0
   59.5050   29.2520   45.7710 C   0  0  0  0  0  0  0  0  0  0  0  0
   56.5750   26.8510   46.0680 C   0  0  0  0  0  0  0  0  0  0  0  0
   55.5390   27.6500   45.6010 O   0  0  0  0  0  0  0  0  0  0  0  0
   56.2610   25.6200   46.6520 C   0  0  0  0  0  0  0  0  0  0  0  0
   56.1815   20.6861   45.9267 H   0  0  0  0  0  0  0  0  0  0  0  0
   55.6308   20.8918   47.6214 H   0  0  0  0  0  0  0  0  0  0  0  0
   53.3784   21.4805   47.7432 H   0  0  0  0  0  0  0  0  0  0  0  0
   51.4058   22.7428   46.8756 H   0  0  0  0  0  0  0  0  0  0  0  0
   53.8466   24.3836   43.6994 H   0  0  0  0  0  0  0  0  0  0  0  0
   55.8228   23.1271   44.5647 H   0  0  0  0  0  0  0  0  0  0  0  0
   59.3992   24.6733   47.5856 H   0  0  0  0  0  0  0  0  0  0  0  0
   58.0399   29.1691   43.3528 H   0  0  0  0  0  0  0  0  0  0  0  0
   56.5894   28.4495   44.1496 H   0  0  0  0  0  0  0  0  0  0  0  0
   56.9270   31.1301   43.8410 H   0  0  0  0  0  0  0  0  0  0  0  0
   56.0449   30.3793   45.2448 H   0  0  0  0  0  0  0  0  0  0  0  0
   58.7393   33.0640   45.3736 H   0  0  0  0  0  0  0  0  0  0  0  0
   56.9860   32.8681   44.9957 H   0  0  0  0  0  0  0  0  0  0  0  0
   57.9426   32.5412   50.0587 H   0  0  0  0  0  0  0  0  0  0  0  0
   57.7995   31.2543   48.8006 H   0  0  0  0  0  0  0  0  0  0  0  0
   59.7914   32.4518   51.4903 H   0  0  0  0  0  0  0  0  0  0  0  0
   62.1074   31.6712   51.9982 H   0  0  0  0  0  0  0  0  0  0  0  0
   63.4079   30.4033   50.2838 H   0  0  0  0  0  0  0  0  0  0  0  0
   62.4024   29.9368   48.0482 H   0  0  0  0  0  0  0  0  0  0  0  0
   60.0913   30.7186   47.5258 H   0  0  0  0  0  0  0  0  0  0  0  0
   58.8531   35.1280   47.5910 H   0  0  0  0  0  0  0  0  0  0  0  0
   59.1357   34.6835   49.3186 H   0  0  0  0  0  0  0  0  0  0  0  0
   60.3321   33.6046   45.8859 H   0  0  0  0  0  0  0  0  0  0  0  0
   62.7273   33.0873   45.4152 H   0  0  0  0  0  0  0  0  0  0  0  0
   64.4315   33.2880   47.2330 H   0  0  0  0  0  0  0  0  0  0  0  0
   63.7354   33.9853   49.5281 H   0  0  0  0  0  0  0  0  0  0  0  0
   61.3404   34.5058   50.0036 H   0  0  0  0  0  0  0  0  0  0  0  0
   59.5771   30.8869   44.3500 H   0  0  0  0  0  0  0  0  0  0  0  0
   60.0394   31.3431   46.0158 H   0  0  0  0  0  0  0  0  0  0  0  0
   60.4075   28.8572   45.2816 H   0  0  0  0  0  0  0  0  0  0  0  0
   59.5903   29.1589   46.8637 H   0  0  0  0  0  0  0  0  0  0  0  0
   55.2139   25.2852   46.6896 H   0  0  0  0  0  0  0  0  0  0  0  0
  1  2  2  0
  2  3  1  0
  3  4  1  0
  4  5  1  0
  5  6  2  0
  6  7  1  0
  7  8  2  0
  8  9  1  0
  8 10  1  0
 10 11  2  0
  2 12  1  0
 12 13  2  0
 13 14  1  0
 14 15  2  0
 15 16  1  0
 16 17  1  0
 17 18  1  0
 18 19  1  0
 19 20  1  0
 20 21  1  0
 21 22  2  0
 21 23  1  0
 23 24  1  0
 24 25  1  0
 25 26  2  0
 26 27  1  0
 27 28  2  0
 28 29  1  0
 29 30  2  0
 23 31  1  0
 31 32  1  0
 32 33  2  0
 33 34  1  0
 34 35  2  0
 35 36  1  0
 36 37  2  0
 19 38  1  0
 38 39  1  0
 15 40  1  0
 40 41  1  0
 40 42  2  0
 11  5  1  0
 42 12  1  0
 39 16  1  0
 30 25  1  0
 37 32  1  0
  4 43  1  0
  4 44  1  0
  6 45  1  0
  7 46  1  0
 10 47  1  0
 11 48  1  0
 13 49  1  0
 17 50  1  0
 17 51  1  0
 18 52  1  0
 18 53  1  0
 20 54  1  0
 20 55  1  0
 24 56  1  0
 24 57  1  0
 26 58  1  0
 27 59  1  0
 28 60  1  0
 29 61  1  0
 30 62  1  0
 31 63  1  0
 31 64  1  0
 33 65  1  0
 34 66  1  0
 35 67  1  0
 36 68  1  0
 37 69  1  0
 38 70  1  0
 38 71  1  0
 39 72  1  0
 39 73  1  0
 42 74  1  0
M  CHG  2   3  -1  41  -1
M  END
>  <UniqueID>  (81) 
76

>  <SMILES>  (81) 
O=C([N-]Cc1ccc(F)cc1)c1cnc(N2CCN(CC(=O)N(Cc3ccccc3)Cc3ccccc3)CC2)c([O-])c1

>  <Energy>  (81) 
93.87285920854015

>  <Genealogy>  (81) 
O=C([N-]Cc1ccc(F)cc1)c1cnc(N2CCN(CC(=O)N(Cc3ccccc3)Cc3ccccc3)CC2)c([O-])c1 (protonated)
O=C([N-]Cc1ccc(F)cc1)c1cnc(N2CCN(CC(=O)N(Cc3ccccc3)Cc3ccccc3)CC2)c([O-])c1 (3D coordinates assigned)
O=C([N-]Cc1ccc(F)cc1)c1cnc(N2CCN(CC(=O)N(Cc3ccccc3)Cc3ccccc3)CC2)c([O-])c1 (nonaromatic ring conformer: 93.87285920854015 kcal/mol)

>  <smiles>  (81) 
O=C(NCc1ccc(F)cc1)c1cnc(N2CCN(CC(=O)N(Cc3ccccc3)Cc3ccccc3)CC2)c(O)c1

>  <score_type>  (81) 
oracle

>  <origin>  (81) 
adg

>  <m_score__min__energy>  (81) 
-13.51

>  <m_primary>  (81) 
energy

$$$$
81:0
     RDKit          3D

 57 60  0  0  0  0  0  0  0  0999 V2000
   51.0600   24.0870   43.7660 C   0  0  0  0  0  0  0  0  0  0  0  0
   52.0960   24.1510   44.8840 C   0  0  0  0  0  0  0  0  0  0  0  0
   52.9530   23.0100   44.8480 O   0  0  0  0  0  0  0  0  0  0  0  0
   54.3570   23.0400   44.9070 C   0  0  0  0  0  0  0  0  0  0  0  0
   54.9810   22.5020   46.0380 C   0  0  0  0  0  0  0  0  0  0  0  0
   56.3740   22.5050   46.1520 C   0  0  0  0  0  0  0  0  0  0  0  0
   57.1670   23.0510   45.1310 C   0  0  0  0  0  0  0  0  0  0  0  0
   58.6660   23.0260   45.2470 C   0  0  0  0  0  0  0  0  0  0  0  0
   59.1450   24.2490   45.8840 N   0  0  0  0  0  0  0  0  0  0  0  0
   58.3270   25.0920   46.7010 C   0  0  0  0  0  0  0  0  0  0  0  0
   58.0270   24.7340   47.8720 O   0  0  0  0  0  0  0  0  0  0  0  0
   57.8840   26.3970   46.1760 C   0  0  0  0  0  0  0  0  0  0  0  0
   56.2500   26.7850   45.9620 S   0  0  0  0  0  0  0  0  0  0  0  0
   56.5440   28.2820   45.2810 C   0  0  0  0  0  0  0  0  0  0  0  0
   55.6150   29.1510   44.8290 N   0  0  0  0  0  0  0  0  0  0  0  0
   56.0210   30.3220   44.2690 C   0  0  0  0  0  0  0  0  0  0  0  0
   57.3560   30.6230   44.1560 N   0  0  0  0  0  0  0  0  0  0  0  0
   57.7510   31.8880   43.5150 C   0  0  0  0  0  0  0  0  0  0  0  0
   58.3710   32.8270   44.5110 C   0  0  0  0  0  0  0  0  0  0  0  0
   58.0410   34.0440   44.5120 O   0  0  0  0  0  0  0  0  0  0  0  0
   59.3170   32.3260   45.4700 N   0  0  0  0  0  0  0  0  0  0  0  0
   59.7770   33.0670   46.6140 C   0  0  0  0  0  0  0  0  0  0  0  0
   61.1370   33.0960   46.9740 C   0  0  0  0  0  0  0  0  0  0  0  0
   61.5600   33.8480   48.0750 C   0  0  0  0  0  0  0  0  0  0  0  0
   60.6350   34.5850   48.8170 C   0  0  0  0  0  0  0  0  0  0  0  0
   59.2860   34.5800   48.4540 C   0  0  0  0  0  0  0  0  0  0  0  0
   58.8590   33.8310   47.3530 C   0  0  0  0  0  0  0  0  0  0  0  0
   58.3090   29.7310   44.5950 C   0  0  0  0  0  0  0  0  0  0  0  0
   59.5350   29.9860   44.4410 O   0  0  0  0  0  0  0  0  0  0  0  0
   57.8980   28.5280   45.1960 C   0  0  0  0  0  0  0  0  0  0  0  0
   58.6820   27.4760   45.7350 C   0  0  0  0  0  0  0  0  0  0  0  0
   60.1850   27.5070   45.8290 C   0  0  0  0  0  0  0  0  0  0  0  0
   56.5460   23.5820   43.9910 C   0  0  0  0  0  0  0  0  0  0  0  0
   55.1520   23.5770   43.8760 C   0  0  0  0  0  0  0  0  0  0  0  0
   50.0524   24.0248   44.2029 H   0  0  0  0  0  0  0  0  0  0  0  0
   51.1349   24.9915   43.1445 H   0  0  0  0  0  0  0  0  0  0  0  0
   51.2457   23.1986   43.1445 H   0  0  0  0  0  0  0  0  0  0  0  0
   52.7020   25.0609   44.7623 H   0  0  0  0  0  0  0  0  0  0  0  0
   51.5708   24.1666   45.8504 H   0  0  0  0  0  0  0  0  0  0  0  0
   54.3693   22.0726   46.8451 H   0  0  0  0  0  0  0  0  0  0  0  0
   56.8510   22.0774   47.0462 H   0  0  0  0  0  0  0  0  0  0  0  0
   58.9688   22.1589   45.8524 H   0  0  0  0  0  0  0  0  0  0  0  0
   59.1018   22.9527   44.2397 H   0  0  0  0  0  0  0  0  0  0  0  0
   55.2702   31.0372   43.9018 H   0  0  0  0  0  0  0  0  0  0  0  0
   58.4800   31.6755   42.7191 H   0  0  0  0  0  0  0  0  0  0  0  0
   56.8518   32.3645   43.0975 H   0  0  0  0  0  0  0  0  0  0  0  0
   59.7540   31.3940   45.2840 H   0  0  0  0  0  0  0  0  0  0  0  0
   61.8710   32.5246   46.3868 H   0  0  0  0  0  0  0  0  0  0  0  0
   62.6233   33.8587   48.3567 H   0  0  0  0  0  0  0  0  0  0  0  0
   60.9684   35.1695   49.6872 H   0  0  0  0  0  0  0  0  0  0  0  0
   58.5587   35.1660   49.0350 H   0  0  0  0  0  0  0  0  0  0  0  0
   57.7977   33.8403   47.0640 H   0  0  0  0  0  0  0  0  0  0  0  0
   60.4862   27.5132   46.8870 H   0  0  0  0  0  0  0  0  0  0  0  0
   60.6018   26.6173   45.3343 H   0  0  0  0  0  0  0  0  0  0  0  0
   60.5647   28.4132   45.3343 H   0  0  0  0  0  0  0  0  0  0  0  0
   57.1594   24.0052   43.1819 H   0  0  0  0  0  0  0  0  0  0  0  0
   54.6749   23.9941   42.9769 H   0  0  0  0  0  0  0  0  0  0  0  0
  1  2  1  0
  2  3  1  0
  3  4  1  0
  4  5  2  0
  5  6  1  0
  6  7  2  0
  7  8  1  0
  8  9  1  0
  9 10  1  0
 10 11  2  0
 10 12  1  0
 12 13  1  0
 13 14  1  0
 14 15  1  0
 15 16  2  0
 16 17  1  0
 17 18  1  0
 18 19  1  0
 19 20  2  0
 19 21  1  0
 21 22  1  0
 22 23  2  0
 23 24  1  0
 24 25  2  0
 25 26  1  0
 26 27  2  0
 17 28  1  0
 28 29  2  0
 28 30  1  0
 30 31  1  0
 31 32  1  0
  7 33  1  0
 33 34  2  0
 34  4  1  0
 31 12  2  0
 30 14  2  0
 27 22  1  0
  1 35  1  0
  1 36  1  0
  1 37  1  0
  2 38  1  0
  2 39  1  0
  5 40  1  0
  6 41  1  0
  8 42  1  0
  8 43  1  0
 16 44  1  0
 18 45  1  0
 18 46  1  0
 21 47  1  0
 23 48  1  0
 24 49  1  0
 25 50  1  0
 26 51  1  0
 27 52  1  0
 32 53  1  0
 32 54  1  0
 32 55  1  0
 33 56  1  0
 34 57  1  0
M  CHG  1   9  -1
M  END
>  <UniqueID>  (82) 
77

>  <SMILES>  (82) 
CCOc1ccc(C[N-]C(=O)c2sc3ncn(CC(=O)Nc4ccccc4)c(=O)c3c2C)cc1

>  <Energy>  (82) 
98.46312961810415

>  <Genealogy>  (82) 
CCOc1ccc(C[N-]C(=O)c2sc3ncn(CC(=O)Nc4ccccc4)c(=O)c3c2C)cc1 (protonated)
CCOc1ccc(C[N-]C(=O)c2sc3ncn(CC(=O)Nc4ccccc4)c(=O)c3c2C)cc1 (3D coordinates assigned)
CCOc1ccc(C[N-]C(=O)c2sc3ncn(CC(=O)Nc4ccccc4)c(=O)c3c2C)cc1 (optimized conformer: 98.46312961810415 kcal/mol)

>  <smiles>  (82) 
CCOc1ccc(CNC(=O)c2sc3ncn(CC(=O)Nc4ccccc4)c(=O)c3c2C)cc1

>  <score_type>  (82) 
oracle

>  <origin>  (82) 
adg

>  <m_score__min__energy>  (82) 
-9.8599999999999994

>  <m_primary>  (82) 
energy

$$$$
82:0
     RDKit          3D

 57 60  0  0  0  0  0  0  0  0999 V2000
   57.4100   30.9570   45.8150 O   0  0  0  0  0  0  0  0  0  0  0  0
   57.8080   30.8960   44.6230 C   0  0  0  0  0  0  0  0  0  0  0  0
   57.6180   32.0110   43.6670 C   0  0  0  0  0  0  0  0  0  0  0  0
   57.6750   33.6400   44.4590 S   0  0  0  0  0  0  0  0  0  0  0  0
   58.9130   33.5400   45.7460 C   0  0  0  0  0  0  0  0  0  0  0  0
   60.1880   33.9320   45.5670 N   0  0  0  0  0  0  0  0  0  0  0  0
   61.1030   33.8410   46.5720 C   0  0  0  0  0  0  0  0  0  0  0  0
   62.2960   34.2030   46.4170 O   0  0  0  0  0  0  0  0  0  0  0  0
   60.6690   33.3300   47.7820 C   0  0  0  0  0  0  0  0  0  0  0  0
   59.3600   32.9270   47.9710 C   0  0  0  0  0  0  0  0  0  0  0  0
   58.4910   33.0390   46.9420 N   0  0  0  0  0  0  0  0  0  0  0  0
   58.8850   32.3770   49.2730 C   0  0  0  0  0  0  0  0  0  0  0  0
   59.5560   33.2620   50.3280 C   0  0  0  0  0  0  0  0  0  0  0  0
   61.0330   33.0690   50.2450 C   0  0  0  0  0  0  0  0  0  0  0  0
   61.6300   33.2200   48.8830 C   0  0  0  0  0  0  0  0  0  0  0  0
   58.4670   29.7160   44.1710 N   0  0  0  0  0  0  0  0  0  0  0  0
   58.7010   28.5890   45.0040 C   0  0  0  0  0  0  0  0  0  0  0  0
   59.9120   28.3250   45.6060 C   0  0  0  0  0  0  0  0  0  0  0  0
   60.0520   27.2050   46.4000 C   0  0  0  0  0  0  0  0  0  0  0  0
   58.9950   26.3170   46.6170 C   0  0  0  0  0  0  0  0  0  0  0  0
   57.7830   26.5810   46.0150 C   0  0  0  0  0  0  0  0  0  0  0  0
   56.3810   25.5530   46.2010 S   0  0  0  0  0  0  0  0  0  0  0  0
   55.1390   26.3980   45.9910 O   0  0  0  0  0  0  0  0  0  0  0  0
   56.4230   24.9940   47.5830 O   0  0  0  0  0  0  0  0  0  0  0  0
   56.3880   24.3660   44.9890 N   0  0  0  0  0  0  0  0  0  0  0  0
   55.1170   24.0240   44.4370 C   0  0  0  0  0  0  0  0  0  0  0  0
   55.2340   23.3070   43.1100 C   0  0  0  0  0  0  0  0  0  0  0  0
   56.6360   22.8610   42.8210 C   0  0  0  0  0  0  0  0  0  0  0  0
   57.3880   22.3490   44.0210 C   0  0  0  0  0  0  0  0  0  0  0  0
   57.2820   23.2780   45.2060 C   0  0  0  0  0  0  0  0  0  0  0  0
   57.6540   27.7160   45.2160 C   0  0  0  0  0  0  0  0  0  0  0  0
   58.4133   31.9619   42.9086 H   0  0  0  0  0  0  0  0  0  0  0  0
   56.6186   31.8962   43.2219 H   0  0  0  0  0  0  0  0  0  0  0  0
   57.4930   32.7310   47.0850 H   0  0  0  0  0  0  0  0  0  0  0  0
   57.7896   32.4447   49.3477 H   0  0  0  0  0  0  0  0  0  0  0  0
   59.1373   31.3134   49.3959 H   0  0  0  0  0  0  0  0  0  0  0  0
   59.3093   34.3169   50.1375 H   0  0  0  0  0  0  0  0  0  0  0  0
   59.1978   32.9867   51.3309 H   0  0  0  0  0  0  0  0  0  0  0  0
   61.5083   33.8083   50.9064 H   0  0  0  0  0  0  0  0  0  0  0  0
   61.2164   32.0250   50.5391 H   0  0  0  0  0  0  0  0  0  0  0  0
   62.2503   34.1284   48.8836 H   0  0  0  0  0  0  0  0  0  0  0  0
   62.1974   32.2961   48.6976 H   0  0  0  0  0  0  0  0  0  0  0  0
   58.8120   29.6370   43.1730 H   0  0  0  0  0  0  0  0  0  0  0  0
   60.7638   29.0043   45.4543 H   0  0  0  0  0  0  0  0  0  0  0  0
   61.0235   27.0055   46.8758 H   0  0  0  0  0  0  0  0  0  0  0  0
   59.1267   25.4290   47.2526 H   0  0  0  0  0  0  0  0  0  0  0  0
   54.5894   23.3692   45.1461 H   0  0  0  0  0  0  0  0  0  0  0  0
   54.5661   24.9601   44.2629 H   0  0  0  0  0  0  0  0  0  0  0  0
   54.5791   22.4234   43.1273 H   0  0  0  0  0  0  0  0  0  0  0  0
   54.9382   24.0137   42.3206 H   0  0  0  0  0  0  0  0  0  0  0  0
   56.5931   22.0556   42.0730 H   0  0  0  0  0  0  0  0  0  0  0  0
   57.1800   23.7488   42.4661 H   0  0  0  0  0  0  0  0  0  0  0  0
   56.9774   21.3683   44.3032 H   0  0  0  0  0  0  0  0  0  0  0  0
   58.4505   22.2770   43.7453 H   0  0  0  0  0  0  0  0  0  0  0  0
   56.9260   22.7006   46.0720 H   0  0  0  0  0  0  0  0  0  0  0  0
   58.2812   23.7054   45.3763 H   0  0  0  0  0  0  0  0  0  0  0  0
   56.6848   27.9225   44.7385 H   0  0  0  0  0  0  0  0  0  0  0  0
  1  2  2  0
  2  3  1  0
  3  4  1  0
  4  5  1  0
  5  6  2  0
  6  7  1  0
  7  8  2  0
  7  9  1  0
  9 10  2  0
 10 11  1  0
 10 12  1  0
 12 13  1  0
 13 14  1  0
 14 15  1  0
  2 16  1  0
 16 17  1  0
 17 18  2  0
 18 19  1  0
 19 20  2  0
 20 21  1  0
 21 22  1  0
 22 23  2  0
 22 24  2  0
 22 25  1  0
 25 26  1  0
 26 27  1  0
 27 28  1  0
 28 29  1  0
 29 30  1  0
 21 31  2  0
 11  5  1  0
 31 17  1  0
 15  9  1  0
 30 25  1  0
  3 32  1  0
  3 33  1  0
 11 34  1  0
 12 35  1  0
 12 36  1  0
 13 37  1  0
 13 38  1  0
 14 39  1  0
 14 40  1  0
 15 41  1  0
 15 42  1  0
 16 43  1  0
 18 44  1  0
 19 45  1  0
 20 46  1  0
 26 47  1  0
 26 48  1  0
 27 49  1  0
 27 50  1  0
 28 51  1  0
 28 52  1  0
 29 53  1  0
 29 54  1  0
 30 55  1  0
 30 56  1  0
 31 57  1  0
M  END
>  <smiles>  (83) 
O=C(CSc1nc(=O)c2c([nH]1)CCCC2)Nc1cccc(S(=O)(=O)N2CCCCC2)c1

>  <score_type>  (83) 
oracle

>  <origin>  (83) 
adg

>  <m_score__min__energy>  (83) 
-11.35

>  <m_primary>  (83) 
energy

$$$$
83:0
     RDKit          3D

 60 63  0  0  0  0  0  0  0  0999 V2000
   58.2060   32.3390   42.2310 C   0  0  0  0  0  0  0  0  0  0  0  0
   57.4460   31.6270   43.2610 N   0  0  0  0  0  0  0  0  0  0  0  0
   56.9720   30.2560   43.0210 C   0  0  0  0  0  0  0  0  0  0  0  0
   57.5070   29.3300   44.0800 C   0  0  0  0  0  0  0  0  0  0  0  0
   58.8890   29.1600   44.2440 C   0  0  0  0  0  0  0  0  0  0  0  0
   59.3840   28.2520   45.1840 C   0  0  0  0  0  0  0  0  0  0  0  0
   58.5020   27.4960   45.9780 C   0  0  0  0  0  0  0  0  0  0  0  0
   59.0350   26.5220   46.9640 C   0  0  0  0  0  0  0  0  0  0  0  0
   58.5180   25.3750   47.0480 O   0  0  0  0  0  0  0  0  0  0  0  0
   60.0800   26.8710   47.8840 N   0  0  0  0  0  0  0  0  0  0  0  0
   60.0630   27.8350   48.7610 C   0  0  0  0  0  0  0  0  0  0  0  0
   59.0850   28.8480   48.7540 C   0  0  0  0  0  0  0  0  0  0  0  0
   59.1380   29.8630   49.7110 C   0  0  0  0  0  0  0  0  0  0  0  0
   60.1690   29.8860   50.6600 C   0  0  0  0  0  0  0  0  0  0  0  0
   60.2490   30.9750   51.6580 C   0  0  0  0  0  0  0  0  0  0  0  0
   60.9680   30.8400   52.6850 O   0  0  0  0  0  0  0  0  0  0  0  0
   59.5380   32.1970   51.4690 N   0  0  0  0  0  0  0  0  0  0  0  0
   59.6770   33.1130   50.0040 S   0  0  0  0  0  0  0  0  0  0  0  0
   58.6230   32.6610   49.0340 O   0  0  0  0  0  0  0  0  0  0  0  0
   59.4470   34.5650   50.3140 O   0  0  0  0  0  0  0  0  0  0  0  0
   61.2720   32.9180   49.2800 C   0  0  0  0  0  0  0  0  0  0  0  0
   61.6250   31.7160   48.6480 C   0  0  0  0  0  0  0  0  0  0  0  0
   62.8740   31.5850   48.0350 C   0  0  0  0  0  0  0  0  0  0  0  0
   63.7720   32.6550   48.0440 C   0  0  0  0  0  0  0  0  0  0  0  0
   63.4270   33.8540   48.6740 C   0  0  0  0  0  0  0  0  0  0  0  0
   62.1820   33.9850   49.2950 C   0  0  0  0  0  0  0  0  0  0  0  0
   61.1210   28.8570   50.6350 C   0  0  0  0  0  0  0  0  0  0  0  0
   61.0490   27.8780   49.6960 N   0  0  0  0  0  0  0  0  0  0  0  0
   57.1170   27.6570   45.7970 C   0  0  0  0  0  0  0  0  0  0  0  0
   56.6250   28.5660   44.8550 C   0  0  0  0  0  0  0  0  0  0  0  0
   57.3120   32.2320   44.5630 C   0  0  0  0  0  0  0  0  0  0  0  0
   56.2750   32.0090   45.2470 O   0  0  0  0  0  0  0  0  0  0  0  0
   58.3650   33.1050   45.1190 C   0  0  0  0  0  0  0  0  0  0  0  0
   58.3330   34.4930   44.8990 C   0  0  0  0  0  0  0  0  0  0  0  0
   59.3400   35.3130   45.4200 C   0  0  0  0  0  0  0  0  0  0  0  0
   60.3890   34.7550   46.1540 C   0  0  0  0  0  0  0  0  0  0  0  0
   60.4380   33.3750   46.3630 C   0  0  0  0  0  0  0  0  0  0  0  0
   59.4340   32.5510   45.8430 C   0  0  0  0  0  0  0  0  0  0  0  0
   58.9285   33.0158   42.7105 H   0  0  0  0  0  0  0  0  0  0  0  0
   58.7442   31.6125   41.6045 H   0  0  0  0  0  0  0  0  0  0  0  0
   57.5161   32.9234   41.6045 H   0  0  0  0  0  0  0  0  0  0  0  0
   55.8724   30.2416   43.0471 H   0  0  0  0  0  0  0  0  0  0  0  0
   57.3279   29.9197   42.0360 H   0  0  0  0  0  0  0  0  0  0  0  0
   59.5883   29.7452   43.6287 H   0  0  0  0  0  0  0  0  0  0  0  0
   60.4703   28.1275   45.3040 H   0  0  0  0  0  0  0  0  0  0  0  0
   58.2846   28.8396   47.9995 H   0  0  0  0  0  0  0  0  0  0  0  0
   58.3674   30.6479   49.7202 H   0  0  0  0  0  0  0  0  0  0  0  0
   60.9167   30.8745   48.6350 H   0  0  0  0  0  0  0  0  0  0  0  0
   63.1500   30.6394   47.5454 H   0  0  0  0  0  0  0  0  0  0  0  0
   64.7519   32.5538   47.5546 H   0  0  0  0  0  0  0  0  0  0  0  0
   64.1359   34.6950   48.6810 H   0  0  0  0  0  0  0  0  0  0  0  0
   61.9152   34.9269   49.7966 H   0  0  0  0  0  0  0  0  0  0  0  0
   61.9305   28.8424   51.3797 H   0  0  0  0  0  0  0  0  0  0  0  0
   56.4150   27.0634   46.4010 H   0  0  0  0  0  0  0  0  0  0  0  0
   55.5392   28.6817   44.7219 H   0  0  0  0  0  0  0  0  0  0  0  0
   57.5130   34.9363   44.3149 H   0  0  0  0  0  0  0  0  0  0  0  0
   59.3054   36.3994   45.2511 H   0  0  0  0  0  0  0  0  0  0  0  0
   61.1765   35.4023   46.5674 H   0  0  0  0  0  0  0  0  0  0  0  0
   61.2669   32.9354   46.9371 H   0  0  0  0  0  0  0  0  0  0  0  0
   59.4818   31.4636   46.0019 H   0  0  0  0  0  0  0  0  0  0  0  0
  1  2  1  0
  2  3  1  0
  3  4  1  0
  4  5  2  0
  5  6  1  0
  6  7  2  0
  7  8  1  0
  8  9  2  0
  8 10  1  0
 10 11  2  3
 11 12  1  0
 12 13  2  0
 13 14  1  0
 14 15  1  0
 15 16  2  0
 15 17  1  0
 17 18  1  0
 18 19  2  0
 18 20  2  0
 18 21  1  0
 21 22  2  0
 22 23  1  0
 23 24  2  0
 24 25  1  0
 25 26  2  0
 14 27  2  0
 27 28  1  0
  7 29  1  0
 29 30  2  0
  2 31  1  0
 31 32  2  0
 31 33  1  0
 33 34  2  0
 34 35  1  0
 35 36  2  0
 36 37  1  0
 37 38  2  0
 30  4  1  0
 38 33  1  0
 28 11  1  0
 26 21  1  0
  1 39  1  0
  1 40  1  0
  1 41  1  0
  3 42  1  0
  3 43  1  0
  5 44  1  0
  6 45  1  0
 12 46  1  0
 13 47  1  0
 22 48  1  0
 23 49  1  0
 24 50  1  0
 25 51  1  0
 26 52  1  0
 27 53  1  0
 29 54  1  0
 30 55  1  0
 34 56  1  0
 35 57  1  0
 36 58  1  0
 37 59  1  0
 38 60  1  0
M  CHG  2  17  -1  28  -1
M  END
>  <UniqueID>  (84) 
78

>  <SMILES>  (84) 
CN(Cc1ccc(C(=O)N=c2ccc(C(=O)[N-]S(=O)(=O)c3ccccc3)c[n-]2)cc1)C(=O)c1ccccc1

>  <Energy>  (84) 
86.87413318024794

>  <Genealogy>  (84) 
CN(Cc1ccc(C(=O)N=c2ccc(C(=O)[N-]S(=O)(=O)c3ccccc3)c[n-]2)cc1)C(=O)c1ccccc1 (protonated)
CN(Cc1ccc(C(=O)N=c2ccc(C(=O)[N-]S(=O)(=O)c3ccccc3)c[n-]2)cc1)C(=O)c1ccccc1 (3D coordinates assigned)
CN(Cc1ccc(C(=O)N=c2ccc(C(=O)[N-]S(=O)(=O)c3ccccc3)c[n-]2)cc1)C(=O)c1ccccc1 (optimized conformer: 86.87413318024794 kcal/mol)

>  <smiles>  (84) 
CN(Cc1ccc(C(=O)N=c2ccc(C(=O)NS(=O)(=O)c3ccccc3)c[nH]2)cc1)C(=O)c1ccccc1

>  <score_type>  (84) 
oracle

>  <origin>  (84) 
adg

>  <m_score__min__energy>  (84) 
-13.800000000000001

>  <m_primary>  (84) 
energy

$$$$
84:0
     RDKit          3D

 57 59  0  0  0  0  0  0  0  0999 V2000
   56.3560   23.0090   48.2910 C   0  0  0  0  0  0  0  0  0  0  0  0
   57.3680   23.1200   47.2950 O   0  0  0  0  0  0  0  0  0  0  0  0
   57.1320   23.1560   45.9090 C   0  0  0  0  0  0  0  0  0  0  0  0
   57.4090   22.0390   45.0930 C   0  0  0  0  0  0  0  0  0  0  0  0
   57.1700   22.0850   43.7200 C   0  0  0  0  0  0  0  0  0  0  0  0
   56.6510   23.2380   43.1390 C   0  0  0  0  0  0  0  0  0  0  0  0
   56.3700   24.3540   43.9280 C   0  0  0  0  0  0  0  0  0  0  0  0
   56.6040   24.3340   45.3180 C   0  0  0  0  0  0  0  0  0  0  0  0
   56.2920   25.5460   46.1260 C   0  0  0  0  0  0  0  0  0  0  0  0
   55.1830   26.1340   46.0010 O   0  0  0  0  0  0  0  0  0  0  0  0
   57.2540   26.0560   47.0580 N   0  0  0  0  0  0  0  0  0  0  0  0
   58.5400   26.6240   46.6620 C   0  0  0  0  0  0  0  0  0  0  0  0
   58.5560   28.1230   46.8280 C   0  0  0  0  0  0  0  0  0  0  0  0
   58.4810   28.6270   47.9800 O   0  0  0  0  0  0  0  0  0  0  0  0
   58.6740   29.0020   45.7020 N   0  0  0  0  0  0  0  0  0  0  0  0
   57.8070   29.0000   44.5250 C   0  0  0  0  0  0  0  0  0  0  0  0
   56.5870   29.8320   44.7690 C   0  0  0  0  0  0  0  0  0  0  0  0
   55.5290   29.2890   45.1850 O   0  0  0  0  0  0  0  0  0  0  0  0
   56.6310   31.2400   44.5000 N   0  0  0  0  0  0  0  0  0  0  0  0
   57.5190   32.2020   45.0900 C   0  0  0  0  0  0  0  0  0  0  0  0
   57.7790   33.4480   44.4900 C   0  0  0  0  0  0  0  0  0  0  0  0
   58.6310   34.3640   45.1130 C   0  0  0  0  0  0  0  0  0  0  0  0
   59.2160   34.0540   46.3420 C   0  0  0  0  0  0  0  0  0  0  0  0
   58.9490   32.8250   46.9590 C   0  0  0  0  0  0  0  0  0  0  0  0
   59.6550   32.4680   48.5330 S   0  0  0  0  0  0  0  0  0  0  0  0
   59.2130   33.4960   49.5400 O   0  0  0  0  0  0  0  0  0  0  0  0
   59.1740   31.1170   48.9830 O   0  0  0  0  0  0  0  0  0  0  0  0
   61.3960   32.4620   48.4050 N   0  0  0  0  0  0  0  0  0  0  0  0
   61.8170   31.5810   47.3040 C   0  0  0  0  0  0  0  0  0  0  0  0
   63.3490   31.6430   47.1220 C   0  0  0  0  0  0  0  0  0  0  0  0
   63.9540   32.5340   48.0410 O   0  0  0  0  0  0  0  0  0  0  0  0
   63.4010   33.8260   47.8850 C   0  0  0  0  0  0  0  0  0  0  0  0
   61.8860   33.8310   48.1760 C   0  0  0  0  0  0  0  0  0  0  0  0
   58.0910   31.9090   46.3350 C   0  0  0  0  0  0  0  0  0  0  0  0
   56.8164   23.0595   49.2887 H   0  0  0  0  0  0  0  0  0  0  0  0
   55.6371   23.8337   48.1768 H   0  0  0  0  0  0  0  0  0  0  0  0
   55.8329   22.0481   48.1768 H   0  0  0  0  0  0  0  0  0  0  0  0
   57.8175   21.1228   45.5443 H   0  0  0  0  0  0  0  0  0  0  0  0
   57.3923   21.2077   43.0947 H   0  0  0  0  0  0  0  0  0  0  0  0
   56.4619   23.2697   42.0558 H   0  0  0  0  0  0  0  0  0  0  0  0
   55.9606   25.2611   43.4594 H   0  0  0  0  0  0  0  0  0  0  0  0
   59.3320   26.1865   47.2876 H   0  0  0  0  0  0  0  0  0  0  0  0
   58.7076   26.3923   45.5998 H   0  0  0  0  0  0  0  0  0  0  0  0
   58.3600   29.4116   43.6678 H   0  0  0  0  0  0  0  0  0  0  0  0
   57.4955   27.9661   44.3153 H   0  0  0  0  0  0  0  0  0  0  0  0
   57.3102   33.7018   43.5278 H   0  0  0  0  0  0  0  0  0  0  0  0
   58.8412   35.3316   44.6338 H   0  0  0  0  0  0  0  0  0  0  0  0
   59.8884   34.7767   46.8273 H   0  0  0  0  0  0  0  0  0  0  0  0
   61.5207   30.5468   47.5335 H   0  0  0  0  0  0  0  0  0  0  0  0
   61.3330   31.9149   46.3743 H   0  0  0  0  0  0  0  0  0  0  0  0
   63.7663   30.6368   47.2749 H   0  0  0  0  0  0  0  0  0  0  0  0
   63.5571   32.0083   46.1055 H   0  0  0  0  0  0  0  0  0  0  0  0
   63.9011   34.5154   48.5812 H   0  0  0  0  0  0  0  0  0  0  0  0
   63.5535   34.1434   46.8429 H   0  0  0  0  0  0  0  0  0  0  0  0
   61.6924   34.4385   49.0723 H   0  0  0  0  0  0  0  0  0  0  0  0
   61.3603   34.2543   47.3074 H   0  0  0  0  0  0  0  0  0  0  0  0
   57.8647   30.9516   46.8271 H   0  0  0  0  0  0  0  0  0  0  0  0
  1  2  1  0
  2  3  1  0
  3  4  2  0
  4  5  1  0
  5  6  2  0
  6  7  1  0
  7  8  2  0
  8  9  1  0
  9 10  2  0
  9 11  1  0
 11 12  1  0
 12 13  1  0
 13 14  2  0
 13 15  1  0
 15 16  1  0
 16 17  1  0
 17 18  2  0
 17 19  1  0
 19 20  1  0
 20 21  2  0
 21 22  1  0
 22 23  2  0
 23 24  1  0
 24 25  1  0
 25 26  2  0
 25 27  2  0
 25 28  1  0
 28 29  1  0
 29 30  1  0
 30 31  1  0
 31 32  1  0
 32 33  1  0
 24 34  2  0
  8  3  1  0
 34 20  1  0
 33 28  1  0
  1 35  1  0
  1 36  1  0
  1 37  1  0
  4 38  1  0
  5 39  1  0
  6 40  1  0
  7 41  1  0
 12 42  1  0
 12 43  1  0
 16 44  1  0
 16 45  1  0
 21 46  1  0
 22 47  1  0
 23 48  1  0
 29 49  1  0
 29 50  1  0
 30 51  1  0
 30 52  1  0
 32 53  1  0
 32 54  1  0
 33 55  1  0
 33 56  1  0
 34 57  1  0
M  CHG  3  11  -1  15  -1  19  -1
M  END
>  <UniqueID>  (85) 
79

>  <SMILES>  (85) 
COc1ccccc1C(=O)[N-]CC(=O)[N-]CC(=O)[N-]c1cccc(S(=O)(=O)N2CCOCC2)c1

>  <Energy>  (85) 
68.10708294674272

>  <Genealogy>  (85) 
COc1ccccc1C(=O)[N-]CC(=O)[N-]CC(=O)[N-]c1cccc(S(=O)(=O)N2CCOCC2)c1 (protonated)
COc1ccccc1C(=O)[N-]CC(=O)[N-]CC(=O)[N-]c1cccc(S(=O)(=O)N2CCOCC2)c1 (3D coordinates assigned)
COc1ccccc1C(=O)[N-]CC(=O)[N-]CC(=O)[N-]c1cccc(S(=O)(=O)N2CCOCC2)c1 (nonaromatic ring conformer: 68.10708294674272 kcal/mol)

>  <smiles>  (85) 
COc1ccccc1C(=O)NCC(=O)NCC(=O)Nc1cccc(S(=O)(=O)N2CCOCC2)c1

>  <score_type>  (85) 
oracle

>  <origin>  (85) 
adg

>  <m_score__min__energy>  (85) 
-15.98

>  <m_primary>  (85) 
energy

$$$$
85:0
     RDKit          3D

 49 51  0  0  0  0  0  0  0  0999 V2000
   57.2730   23.8910   44.7320 C   0  0  0  0  0  0  0  0  0  0  0  0
   56.2140   23.1610   45.5090 C   0  0  0  0  0  0  0  0  0  0  0  0
   55.7720   21.9020   45.0700 C   0  0  0  0  0  0  0  0  0  0  0  0
   54.7960   21.2060   45.7870 C   0  0  0  0  0  0  0  0  0  0  0  0
   54.3630   19.9620   45.3430 O   0  0  0  0  0  0  0  0  0  0  0  0
   54.2510   21.7620   46.9440 C   0  0  0  0  0  0  0  0  0  0  0  0
   54.6910   23.0070   47.3990 C   0  0  0  0  0  0  0  0  0  0  0  0
   55.6940   23.7060   46.7030 C   0  0  0  0  0  0  0  0  0  0  0  0
   56.1570   24.9920   47.1470 N   0  0  0  0  0  0  0  0  0  0  0  0
   55.9400   26.2590   46.5110 C   0  0  0  0  0  0  0  0  0  0  0  0
   54.7670   26.7000   46.3740 O   0  0  0  0  0  0  0  0  0  0  0  0
   57.0930   27.0900   46.0780 C   0  0  0  0  0  0  0  0  0  0  0  0
   58.3950   26.7330   46.4840 C   0  0  0  0  0  0  0  0  0  0  0  0
   59.5010   27.4780   46.0700 C   0  0  0  0  0  0  0  0  0  0  0  0
   59.3290   28.5860   45.2440 C   0  0  0  0  0  0  0  0  0  0  0  0
   58.0490   28.9620   44.8330 C   0  0  0  0  0  0  0  0  0  0  0  0
   57.8900   30.0700   43.9490 N   0  0  0  0  0  0  0  0  0  0  0  0
   57.3610   31.6040   44.5500 S   0  0  0  0  0  0  0  0  0  0  0  0
   55.8920   31.5440   44.8650 O   0  0  0  0  0  0  0  0  0  0  0  0
   57.5860   32.6490   43.4950 O   0  0  0  0  0  0  0  0  0  0  0  0
   58.2670   32.0230   46.0020 C   0  0  0  0  0  0  0  0  0  0  0  0
   57.6510   32.7150   47.0530 C   0  0  0  0  0  0  0  0  0  0  0  0
   58.3920   33.0850   48.1780 C   0  0  0  0  0  0  0  0  0  0  0  0
   59.7520   32.7730   48.2570 C   0  0  0  0  0  0  0  0  0  0  0  0
   60.3840   32.0900   47.2030 C   0  0  0  0  0  0  0  0  0  0  0  0
   61.7810   31.7690   47.2300 N   0  0  0  0  0  0  0  0  0  0  0  0
   63.0550   32.8860   47.5920 S   0  0  0  0  0  0  0  0  0  0  0  0
   64.0380   32.2290   48.9200 C   0  0  0  0  0  0  0  0  0  0  0  0
   63.9270   33.0770   46.3840 O   0  0  0  0  0  0  0  0  0  0  0  0
   62.4720   34.2030   48.0210 O   0  0  0  0  0  0  0  0  0  0  0  0
   59.6320   31.7140   46.0830 C   0  0  0  0  0  0  0  0  0  0  0  0
   56.9280   28.2320   45.2590 C   0  0  0  0  0  0  0  0  0  0  0  0
   55.6610   28.6530   44.8640 O   0  0  0  0  0  0  0  0  0  0  0  0
   57.9729   24.3735   45.4301 H   0  0  0  0  0  0  0  0  0  0  0  0
   57.8204   23.1775   44.0986 H   0  0  0  0  0  0  0  0  0  0  0  0
   56.8009   24.6564   44.0986 H   0  0  0  0  0  0  0  0  0  0  0  0
   56.1971   21.4615   44.1560 H   0  0  0  0  0  0  0  0  0  0  0  0
   53.4726   21.2186   47.4997 H   0  0  0  0  0  0  0  0  0  0  0  0
   54.2505   23.4438   48.3074 H   0  0  0  0  0  0  0  0  0  0  0  0
   58.5412   25.8578   47.1342 H   0  0  0  0  0  0  0  0  0  0  0  0
   60.5107   27.1890   46.3971 H   0  0  0  0  0  0  0  0  0  0  0  0
   60.2037   29.1661   44.9147 H   0  0  0  0  0  0  0  0  0  0  0  0
   56.5821   32.9674   46.9922 H   0  0  0  0  0  0  0  0  0  0  0  0
   57.9038   33.6233   49.0038 H   0  0  0  0  0  0  0  0  0  0  0  0
   60.3300   33.0628   49.1469 H   0  0  0  0  0  0  0  0  0  0  0  0
   63.5967   32.5239   49.8835 H   0  0  0  0  0  0  0  0  0  0  0  0
   64.0636   31.1316   48.8490 H   0  0  0  0  0  0  0  0  0  0  0  0
   65.0618   32.6250   48.8490 H   0  0  0  0  0  0  0  0  0  0  0  0
   60.1172   31.1708   45.2587 H   0  0  0  0  0  0  0  0  0  0  0  0
  1  2  1  0
  2  3  2  0
  3  4  1  0
  4  5  1  0
  4  6  2  0
  6  7  1  0
  7  8  2  0
  8  9  1  0
  9 10  1  0
 10 11  2  0
 10 12  1  0
 12 13  2  0
 13 14  1  0
 14 15  2  0
 15 16  1  0
 16 17  1  0
 17 18  1  0
 18 19  2  0
 18 20  2  0
 18 21  1  0
 21 22  2  0
 22 23  1  0
 23 24  2  0
 24 25  1  0
 25 26  1  0
 26 27  1  0
 27 28  1  0
 27 29  2  0
 27 30  2  0
 25 31  2  0
 16 32  2  0
 32 33  1  0
  8  2  1  0
 32 12  1  0
 31 21  1  0
  1 34  1  0
  1 35  1  0
  1 36  1  0
  3 37  1  0
  6 38  1  0
  7 39  1  0
 13 40  1  0
 14 41  1  0
 15 42  1  0
 22 43  1  0
 23 44  1  0
 24 45  1  0
 28 46  1  0
 28 47  1  0
 28 48  1  0
 31 49  1  0
M  CHG  5   5  -1   9  -1  17  -1  26  -1  33  -1
M  END
>  <UniqueID>  (86) 
80

>  <SMILES>  (86) 
Cc1cc([O-])ccc1[N-]C(=O)c1cccc([N-]S(=O)(=O)c2cccc([N-]S(C)(=O)=O)c2)c1[O-]

>  <Energy>  (86) 
63.49187850546101

>  <Genealogy>  (86) 
Cc1cc([O-])ccc1[N-]C(=O)c1cccc([N-]S(=O)(=O)c2cccc([N-]S(C)(=O)=O)c2)c1[O-] (protonated)
Cc1cc([O-])ccc1[N-]C(=O)c1cccc([N-]S(=O)(=O)c2cccc([N-]S(C)(=O)=O)c2)c1[O-] (3D coordinates assigned)
Cc1cc([O-])ccc1[N-]C(=O)c1cccc([N-]S(=O)(=O)c2cccc([N-]S(C)(=O)=O)c2)c1[O-] (optimized conformer: 63.49187850546101 kcal/mol)

>  <smiles>  (86) 
Cc1cc(O)ccc1NC(=O)c1cccc(NS(=O)(=O)c2cccc(NS(C)(=O)=O)c2)c1O

>  <score_type>  (86) 
oracle

>  <origin>  (86) 
adg

>  <m_score__min__energy>  (86) 
-18.109999999999999

>  <m_primary>  (86) 
energy

$$$$
86:0
     RDKit          3D

 35 36  0  0  0  0  0  0  0  0999 V2000
   59.0000   29.4720   49.0100 C   0  0  0  0  0  0  0  0  0  0  0  0
   58.9330   30.7680   49.8190 C   0  0  0  0  0  0  0  0  0  0  0  0
   59.6820   30.6670   51.1640 C   0  0  0  0  0  0  0  0  0  0  0  0
   58.8710   31.1970   52.3590 C   0  0  0  0  0  0  0  0  0  0  0  0
   57.4470   30.7090   52.3550 C   0  0  0  0  0  0  0  0  0  0  0  0
   56.4040   31.5800   52.0000 C   0  0  0  0  0  0  0  0  0  0  0  0
   55.0780   31.1390   52.0180 C   0  0  0  0  0  0  0  0  0  0  0  0
   54.7720   29.8200   52.3980 C   0  0  0  0  0  0  0  0  0  0  0  0
   53.4080   29.3560   52.3890 N   0  0  0  0  0  0  0  0  0  0  0  0
   52.6010   30.2620   51.6170 C   0  0  0  0  0  0  0  0  0  0  0  0
   52.2130   29.9400   50.3090 C   0  0  0  0  0  0  0  0  0  0  0  0
   51.4010   30.8390   49.6140 C   0  0  0  0  0  0  0  0  0  0  0  0
   51.0390   30.5840   48.4360 O   0  0  0  0  0  0  0  0  0  0  0  0
   51.0000   31.9910   50.2110 N   0  0  0  0  0  0  0  0  0  0  0  0
   51.3760   32.2860   51.4820 C   0  0  0  0  0  0  0  0  0  0  0  0
   50.9910   33.3570   52.0190 O   0  0  0  0  0  0  0  0  0  0  0  0
   52.1650   31.4250   52.1750 N   0  0  0  0  0  0  0  0  0  0  0  0
   55.8190   28.9480   52.7430 C   0  0  0  0  0  0  0  0  0  0  0  0
   57.1440   29.3890   52.7250 C   0  0  0  0  0  0  0  0  0  0  0  0
   59.0444   28.6134   49.6961 H   0  0  0  0  0  0  0  0  0  0  0  0
   58.1050   29.3888   48.3760 H   0  0  0  0  0  0  0  0  0  0  0  0
   59.8988   29.4816   48.3760 H   0  0  0  0  0  0  0  0  0  0  0  0
   59.3825   31.5776   49.2253 H   0  0  0  0  0  0  0  0  0  0  0  0
   57.8744   30.9677   50.0413 H   0  0  0  0  0  0  0  0  0  0  0  0
   59.9245   29.6101   51.3490 H   0  0  0  0  0  0  0  0  0  0  0  0
   60.5826   31.2931   51.0808 H   0  0  0  0  0  0  0  0  0  0  0  0
   59.3550   30.8635   53.2888 H   0  0  0  0  0  0  0  0  0  0  0  0
   58.8471   32.2942   52.2847 H   0  0  0  0  0  0  0  0  0  0  0  0
   56.6321   32.6152   51.7061 H   0  0  0  0  0  0  0  0  0  0  0  0
   54.2689   31.8276   51.7333 H   0  0  0  0  0  0  0  0  0  0  0  0
   53.3590   28.3990   51.9690 H   0  0  0  0  0  0  0  0  0  0  0  0
   53.0390   29.2840   53.3670 H   0  0  0  0  0  0  0  0  0  0  0  0
   52.5408   29.0003   49.8405 H   0  0  0  0  0  0  0  0  0  0  0  0
   55.5930   27.9103   53.0294 H   0  0  0  0  0  0  0  0  0  0  0  0
   57.9543   28.6986   53.0021 H   0  0  0  0  0  0  0  0  0  0  0  0
  1  2  1  0
  2  3  1  0
  3  4  1  0
  4  5  1  0
  5  6  2  0
  6  7  1  0
  7  8  2  0
  8  9  1  0
  9 10  1  0
 10 11  2  0
 11 12  1  0
 12 13  2  0
 12 14  1  0
 14 15  1  0
 15 16  2  0
 15 17  1  0
  8 18  1  0
 18 19  2  0
 19  5  1  0
 17 10  1  0
  1 20  1  0
  1 21  1  0
  1 22  1  0
  2 23  1  0
  2 24  1  0
  3 25  1  0
  3 26  1  0
  4 27  1  0
  4 28  1  0
  6 29  1  0
  7 30  1  0
  9 31  1  0
  9 32  1  0
 11 33  1  0
 18 34  1  0
 19 35  1  0
M  CHG  3   9   1  14  -1  17  -1
M  END
>  <UniqueID>  (87) 
81

>  <SMILES>  (87) 
CCCCc1ccc([NH2+]c2cc(=O)[n-]c(=O)[n-]2)cc1

>  <Energy>  (87) 
32.76856766490757

>  <Genealogy>  (87) 
CCCCc1ccc([NH2+]c2cc(=O)[n-]c(=O)[n-]2)cc1 (protonated)
CCCCc1ccc([NH2+]c2cc(=O)[n-]c(=O)[n-]2)cc1 (3D coordinates assigned)
CCCCc1ccc([NH2+]c2cc(=O)[n-]c(=O)[n-]2)cc1 (optimized conformer: 32.76856766490757 kcal/mol)

>  <smiles>  (87) 
CCCCc1ccc(Nc2cc(=O)[nH]c(=O)[nH]2)cc1

>  <score_type>  (87) 
oracle

>  <origin>  (87) 
adg

>  <m_score__min__energy>  (87) 
-10.220000000000001

>  <m_primary>  (87) 
energy

$$$$
87:0
     RDKit          3D

 45 47  0  0  0  0  0  0  0  0999 V2000
   57.8460   33.4648   49.8501 H   0  0  0  0  0  0  0  0  0  0  0  0
   58.1440   32.4190   49.6840 C   0  0  0  0  0  0  0  0  0  0  0  0
   57.9700   31.5030   50.6710 N   0  0  0  0  0  0  0  0  0  0  0  0
   58.3170   30.1960   50.5220 C   0  0  0  0  0  0  0  0  0  0  0  0
   58.1410   29.3930   51.5330 N   0  0  0  0  0  0  0  0  0  0  0  0
   57.0110   29.3360   52.4160 C   0  0  0  0  0  0  0  0  0  0  0  0
   56.9750   28.4470   53.3060 O   0  0  0  0  0  0  0  0  0  0  0  0
   55.9770   30.3320   52.3520 N   0  0  0  0  0  0  0  0  0  0  0  0
   56.1470   31.2030   51.7980 H   0  0  0  0  0  0  0  0  0  0  0  0
   54.7100   30.1930   53.0640 C   0  0  0  0  0  0  0  0  0  0  0  0
   54.6391   30.9761   53.8332 H   0  0  0  0  0  0  0  0  0  0  0  0
   54.6717   29.1980   53.5315 H   0  0  0  0  0  0  0  0  0  0  0  0
   53.5380   30.3300   52.0990 C   0  0  0  0  0  0  0  0  0  0  0  0
   52.6040   30.4392   52.6697 H   0  0  0  0  0  0  0  0  0  0  0  0
   53.6864   31.2169   51.4655 H   0  0  0  0  0  0  0  0  0  0  0  0
   53.4779   29.4328   51.4655 H   0  0  0  0  0  0  0  0  0  0  0  0
   58.8980   29.7770   49.3090 C   0  0  0  0  0  0  0  0  0  0  0  0
   59.2085   28.7295   49.1811 H   0  0  0  0  0  0  0  0  0  0  0  0
   59.0810   30.6960   48.2630 C   0  0  0  0  0  0  0  0  0  0  0  0
   59.7260   30.2360   46.9740 C   0  0  0  0  0  0  0  0  0  0  0  0
   59.3572   30.8555   46.1432 H   0  0  0  0  0  0  0  0  0  0  0  0
   60.8175   30.3369   47.0659 H   0  0  0  0  0  0  0  0  0  0  0  0
   59.4010   28.8380   46.7120 N   0  0  0  0  0  0  0  0  0  0  0  0
   58.5620   28.4060   45.6370 C   0  0  0  0  0  0  0  0  0  0  0  0
   58.7250   28.8690   44.4740 O   0  0  0  0  0  0  0  0  0  0  0  0
   57.5010   27.4250   45.8940 C   0  0  0  0  0  0  0  0  0  0  0  0
   56.1970   27.6630   45.6440 N   0  0  0  0  0  0  0  0  0  0  0  0
   55.5690   26.5230   45.9910 C   0  0  0  0  0  0  0  0  0  0  0  0
   54.1970   26.3410   45.8730 O   0  0  0  0  0  0  0  0  0  0  0  0
   56.4470   25.5680   46.4550 C   0  0  0  0  0  0  0  0  0  0  0  0
   56.2033   24.5527   46.8011 H   0  0  0  0  0  0  0  0  0  0  0  0
   57.6930   26.1500   46.3950 C   0  0  0  0  0  0  0  0  0  0  0  0
   58.6499   25.6927   46.6870 H   0  0  0  0  0  0  0  0  0  0  0  0
   58.7000   32.0410   48.4570 C   0  0  0  0  0  0  0  0  0  0  0  0
   58.9090   33.0650   47.4190 C   0  0  0  0  0  0  0  0  0  0  0  0
   58.0680   33.1100   46.2960 C   0  0  0  0  0  0  0  0  0  0  0  0
   57.2598   32.3722   46.1846 H   0  0  0  0  0  0  0  0  0  0  0  0
   58.2570   34.0920   45.3190 C   0  0  0  0  0  0  0  0  0  0  0  0
   57.5919   34.1312   44.4437 H   0  0  0  0  0  0  0  0  0  0  0  0
   59.2910   35.0250   45.4530 C   0  0  0  0  0  0  0  0  0  0  0  0
   59.4740   35.9750   44.5040 F   0  0  0  0  0  0  0  0  0  0  0  0
   60.1390   34.9770   46.5670 C   0  0  0  0  0  0  0  0  0  0  0  0
   60.9553   35.7073   46.6685 H   0  0  0  0  0  0  0  0  0  0  0  0
   59.9480   34.0010   47.5500 C   0  0  0  0  0  0  0  0  0  0  0  0
   60.6119   33.9663   48.4264 H   0  0  0  0  0  0  0  0  0  0  0  0
  1  2  1  0
  2  3  1  0
  3  4  1  0
  4  5  2  0
  5  6  1  0
  6  7  2  0
  6  8  1  0
  8  9  1  0
  8 10  1  0
 10 11  1  0
 10 12  1  0
 10 13  1  0
 13 14  1  0
 13 15  1  0
 13 16  1  0
  4 17  1  0
 17 18  1  0
 17 19  2  0
 19 20  1  0
 20 21  1  0
 20 22  1  0
 20 23  1  0
 23 24  1  0
 24 25  2  0
 24 26  1  0
 26 27  1  0
 27 28  1  0
 28 29  1  0
 28 30  2  0
 30 31  1  0
 30 32  1  0
 32 33  1  0
 19 34  1  0
 34 35  1  0
 35 36  2  0
 36 37  1  0
 36 38  1  0
 38 39  1  0
 38 40  2  0
 40 41  1  0
 40 42  1  0
 42 43  1  0
 42 44  2  0
 44 45  1  0
 34  2  2  0
 44 35  1  0
 32 26  2  0
M  CHG  4   3  -1  23  -1  27  -1  29  -1
M  END
>  <UniqueID>  (88) 
82

>  <SMILES>  (88) 
CCNC(=O)/N=c1\cc(C[N-]C(=O)c2ccc([O-])[n-]2)c(-c2ccc(F)cc2)c[n-]1

>  <Energy>  (88) 
80.09771937027833

>  <Genealogy>  (88) 
CCNC(=O)N=c1cc(C[N-]C(=O)c2ccc([O-])[n-]2)c(-c2ccc(F)cc2)c[n-]1 (protonated)
CCNC(=O)/N=c1\cc(C[N-]C(=O)c2ccc([O-])[n-]2)c(-c2ccc(F)cc2)c[n-]1 (cis-trans isomerization)
CCNC(=O)/N=c1\cc(C[N-]C(=O)c2ccc([O-])[n-]2)c(-c2ccc(F)cc2)c[n-]1 (3D coordinates assigned)
CCNC(=O)/N=c1\cc(C[N-]C(=O)c2ccc([O-])[n-]2)c(-c2ccc(F)cc2)c[n-]1 (optimized conformer: 80.09771937027833 kcal/mol)

>  <smiles>  (88) 
CCNC(=O)N=c1cc(CNC(=O)c2ccc(O)[nH]2)c(-c2ccc(F)cc2)c[nH]1

>  <score_type>  (88) 
oracle

>  <origin>  (88) 
adg

>  <m_score__min__energy>  (88) 
-15.69

>  <m_primary>  (88) 
energy

$$$$
88:0
     RDKit          3D

 49 52  0  0  1  0  0  0  0  0999 V2000
   58.1230   32.4420   42.9340 C   0  0  0  0  0  0  0  0  0  0  0  0
   58.2700   32.3210   44.2260 C   0  0  0  0  0  0  0  0  0  0  0  0
   62.1040   31.0980   49.0180 C   0  0  0  0  0  0  0  0  0  0  0  0
   57.5220   30.0950   44.7090 C   0  0  0  0  0  0  0  0  0  0  0  0
   57.4310   28.9050   45.5330 C   0  0  0  0  0  0  0  0  0  0  0  0
   56.4920   27.9230   45.3660 N   0  0  0  0  0  0  0  0  0  0  0  0
   56.7470   26.9490   46.2840 C   0  0  0  0  0  0  0  0  0  0  0  0
   56.0460   25.9220   46.3620 O   0  0  0  0  0  0  0  0  0  0  0  0
   57.8210   27.3430   46.9920 N   0  0  0  0  0  0  0  0  0  0  0  0
   58.2830   28.5220   46.5860 C   0  0  0  0  0  0  0  0  0  0  0  0
   59.3670   29.2260   47.0870 O   0  0  0  0  0  0  0  0  0  0  0  0
   58.2820   31.5840   46.3490 N   0  0  0  0  0  0  0  0  0  0  0  0
   58.7580   32.8480   46.3850 C   0  0  0  0  0  0  0  0  0  0  0  0
   59.1740   33.6270   47.4650 C   0  0  0  0  0  0  0  0  0  0  0  0
   59.1790   33.0210   48.8150 C   0  0  0  0  0  0  0  0  0  0  0  0
   58.6610   31.7150   48.8620 O   0  0  0  0  0  0  0  0  0  0  0  0
   59.1420   30.6980   49.6450 C   0  0  0  0  0  0  0  0  0  0  0  0
   58.5070   29.5820   49.5850 O   0  0  0  0  0  0  0  0  0  0  0  0
   60.2960   30.7390   50.5320 C   0  0  0  0  0  0  0  0  0  0  0  0
   61.5540   30.3130   49.9110 N   0  0  0  0  0  0  0  0  0  0  0  0
   57.9900   31.2600   45.0770 C   0  0  0  0  0  0  0  0  0  0  0  0
   61.3920   31.4080   47.9120 N   0  0  0  0  0  0  0  0  0  0  0  0
   61.8770   32.2100   46.9730 N   0  0  0  0  0  0  0  0  0  0  0  0
   63.0820   32.7480   47.0690 C   0  0  0  0  0  0  0  0  0  0  0  0
   63.5270   33.5120   46.1590 O   0  0  0  0  0  0  0  0  0  0  0  0
   63.8220   32.4570   48.1640 N   0  0  0  0  0  0  0  0  0  0  0  0
   63.3480   31.6410   49.1370 C   0  0  0  0  0  0  0  0  0  0  0  0
   64.0430   31.3830   50.1440 O   0  0  0  0  0  0  0  0  0  0  0  0
   59.6040   34.9230   47.2100 C   0  0  0  0  0  0  0  0  0  0  0  0
   59.6060   35.3880   45.9090 C   0  0  0  0  0  0  0  0  0  0  0  0
   59.1870   34.5980   44.8590 C   0  0  0  0  0  0  0  0  0  0  0  0
   58.7540   33.3080   45.0930 C   0  0  0  0  0  0  0  0  0  0  0  0
   58.4079   33.3791   42.4334 H   0  0  0  0  0  0  0  0  0  0  0  0
   57.7143   31.6068   42.3463 H   0  0  0  0  0  0  0  0  0  0  0  0
   57.1622   30.0097   43.6730 H   0  0  0  0  0  0  0  0  0  0  0  0
   55.7510   27.9760   44.6460 H   0  0  0  0  0  0  0  0  0  0  0  0
   58.2250   26.7600   47.7700 H   0  0  0  0  0  0  0  0  0  0  0  0
   59.3160   30.0450   47.6480 H   0  0  0  0  0  0  0  0  0  0  0  0
   58.1660   30.9740   47.1760 H   0  0  0  0  0  0  0  0  0  0  0  0
   60.2174   32.9936   49.1770 H   0  0  0  0  0  0  0  0  0  0  0  0
   58.5250   33.6434   49.4434 H   0  0  0  0  0  0  0  0  0  0  0  0
   60.4205   31.7728   50.8867 H   0  0  0  0  0  0  0  0  0  0  0  0
   60.0914   30.0275   51.3456 H   0  0  0  0  0  0  0  0  0  0  0  0
   60.4480   31.0320   47.7570 H   0  0  0  0  0  0  0  0  0  0  0  0
   61.2960   32.4170   46.1460 H   0  0  0  0  0  0  0  0  0  0  0  0
   64.7720   32.8820   48.2390 H   0  0  0  0  0  0  0  0  0  0  0  0
   59.9387   35.5709   48.0335 H   0  0  0  0  0  0  0  0  0  0  0  0
   59.9500   36.4129   45.7058 H   0  0  0  0  0  0  0  0  0  0  0  0
   59.1978   34.9962   43.8337 H   0  0  0  0  0  0  0  0  0  0  0  0
  1  2  2  0
  2  3  1  0
  3  4  2  0
  4  5  1  0
  5  6  1  0
  6  7  1  0
  7  8  2  0
  7  9  1  0
  9 10  1  0
 10 11  1  0
  3 12  1  0
 12 13  1  0
 13 14  2  0
 14 15  1  0
 15 16  1  0
 16 17  1  0
 17 18  2  0
 17 19  1  0
 19 20  1  0
 20 21  2  0
 21 22  1  0
 22 23  1  0
 23 24  1  0
 24 25  2  0
 24 26  1  0
 26 27  1  0
 27 28  2  0
 14 29  1  0
 29 30  2  0
 30 31  1  0
 31 32  2  0
 32  2  1  0
 10  5  2  0
 32 13  1  0
 27 21  1  0
  1 33  1  0
  1 34  1  0
  4 35  1  0
  6 36  1  0
  9 37  1  0
 11 38  1  0
 12 39  1  0
 15 40  1  0
 15 41  1  0
 19 42  1  0
 19 43  1  0
 22 44  1  0
 23 45  1  0
 26 46  1  0
 29 47  1  0
 30 48  1  0
 31 49  1  0
M  END
>  <smiles>  (89) 
C=c1c(=Cc2[nH]c(=O)[nH]c2O)[nH]c2c(COC(=O)CN=c3[nH][nH]c(=O)[nH]c3=O)cccc12

>  <score_type>  (89) 
oracle

>  <origin>  (89) 
adg

>  <m_score__min__energy>  (89) 
-8.1300000000000008

>  <m_primary>  (89) 
energy

$$$$
89:0
     RDKit          3D

 42 44  0  0  0  0  0  0  0  0999 V2000
   63.7060   33.1000   47.8650 C   0  0  0  0  0  0  0  0  0  0  0  0
   62.5640   32.4320   48.6240 C   0  0  0  0  0  0  0  0  0  0  0  0
   61.4850   32.0660   47.7050 N   0  0  0  0  0  0  0  0  0  0  0  0
   61.3580   30.8590   47.1050 C   0  0  0  0  0  0  0  0  0  0  0  0
   60.1990   30.8140   46.3420 C   0  0  0  0  0  0  0  0  0  0  0  0
   59.7350   29.6630   45.5480 C   0  0  0  0  0  0  0  0  0  0  0  0
   60.5780   28.9860   44.9010 O   0  0  0  0  0  0  0  0  0  0  0  0
   58.3500   29.2850   45.5480 N   0  0  0  0  0  0  0  0  0  0  0  0
   57.7020   28.5460   44.4590 C   0  0  2  0  0  0  0  0  0  0  0  0
   56.4310   29.2200   43.9990 C   0  0  0  0  0  0  0  0  0  0  0  0
   55.3140   29.3390   44.8800 N   0  0  0  0  0  0  0  0  0  0  0  0
   56.3810   29.7610   42.8610 O   0  0  0  0  0  0  0  0  0  0  0  0
   57.5230   27.0900   44.8550 C   0  0  0  0  0  0  0  0  0  0  0  0
   57.7540   26.0870   43.8970 C   0  0  0  0  0  0  0  0  0  0  0  0
   57.6570   24.7350   44.2450 C   0  0  0  0  0  0  0  0  0  0  0  0
   57.3410   24.3720   45.5550 C   0  0  0  0  0  0  0  0  0  0  0  0
   57.1290   25.3560   46.5220 C   0  0  0  0  0  0  0  0  0  0  0  0
   57.2260   26.7090   46.1800 C   0  0  0  0  0  0  0  0  0  0  0  0
   59.6060   32.0590   46.4810 C   0  0  0  0  0  0  0  0  0  0  0  0
   58.4630   32.6030   45.8910 C   0  0  0  0  0  0  0  0  0  0  0  0
   58.1140   33.9240   46.2170 C   0  0  0  0  0  0  0  0  0  0  0  0
   58.9110   34.6740   47.1050 C   0  0  0  0  0  0  0  0  0  0  0  0
   60.0720   34.1180   47.6670 C   0  0  0  0  0  0  0  0  0  0  0  0
   60.8530   34.8760   48.5300 O   0  0  0  0  0  0  0  0  0  0  0  0
   60.4080   32.7960   47.3270 C   0  0  0  0  0  0  0  0  0  0  0  0
   64.4260   33.5211   48.5821 H   0  0  0  0  0  0  0  0  0  0  0  0
   64.2113   32.3550   47.2328 H   0  0  0  0  0  0  0  0  0  0  0  0
   63.3043   33.9056   47.2328 H   0  0  0  0  0  0  0  0  0  0  0  0
   62.9403   31.5254   49.1204 H   0  0  0  0  0  0  0  0  0  0  0  0
   62.1719   33.1374   49.3714 H   0  0  0  0  0  0  0  0  0  0  0  0
   62.0733   30.0297   47.2077 H   0  0  0  0  0  0  0  0  0  0  0  0
   57.7510   29.5970   46.3460 H   0  0  0  0  0  0  0  0  0  0  0  0
   58.3569   28.5564   43.5753 H   0  0  0  0  0  0  0  0  0  0  0  0
   55.1480   28.6370   45.6330 H   0  0  0  0  0  0  0  0  0  0  0  0
   58.0131   26.3674   42.8654 H   0  0  0  0  0  0  0  0  0  0  0  0
   57.8299   23.9581   43.4857 H   0  0  0  0  0  0  0  0  0  0  0  0
   57.2589   23.3090   45.8258 H   0  0  0  0  0  0  0  0  0  0  0  0
   56.8852   25.0670   47.5550 H   0  0  0  0  0  0  0  0  0  0  0  0
   57.0698   27.4800   46.9488 H   0  0  0  0  0  0  0  0  0  0  0  0
   57.8531   32.0135   45.1906 H   0  0  0  0  0  0  0  0  0  0  0  0
   57.2130   34.3759   45.7765 H   0  0  0  0  0  0  0  0  0  0  0  0
   58.6212   35.7040   47.3602 H   0  0  0  0  0  0  0  0  0  0  0  0
  1  2  1  0
  2  3  1  0
  3  4  1  0
  4  5  2  0
  5  6  1  0
  6  7  2  0
  6  8  1  0
  8  9  1  0
  9 10  1  0
 10 11  1  0
 10 12  2  0
  9 13  1  0
 13 14  2  0
 14 15  1  0
 15 16  2  0
 16 17  1  0
 17 18  2  0
  5 19  1  0
 19 20  2  0
 20 21  1  0
 21 22  2  0
 22 23  1  0
 23 24  1  0
 23 25  2  0
 25  3  1  0
 18 13  1  0
 25 19  1  0
  1 26  1  0
  1 27  1  0
  1 28  1  0
  2 29  1  0
  2 30  1  0
  4 31  1  0
  8 32  1  0
  9 33  1  6
 11 34  1  0
 14 35  1  0
 15 36  1  0
 16 37  1  0
 17 38  1  0
 18 39  1  0
 20 40  1  0
 21 41  1  0
 22 42  1  0
M  CHG  2  11  -1  24  -1
M  END
>  <UniqueID>  (90) 
83

>  <SMILES>  (90) 
CCn1cc(C(=O)N[C@H](C([NH-])=O)c2ccccc2)c2cccc([O-])c21

>  <Energy>  (90) 
80.21298173196075

>  <Genealogy>  (90) 
CCn1cc(C(=O)NC(C([NH-])=O)c2ccccc2)c2cccc([O-])c21 (protonated)
CCn1cc(C(=O)N[C@H](C([NH-])=O)c2ccccc2)c2cccc([O-])c21 (chirality)
CCn1cc(C(=O)N[C@H](C([NH-])=O)c2ccccc2)c2cccc([O-])c21 (3D coordinates assigned)
CCn1cc(C(=O)N[C@H](C([NH-])=O)c2ccccc2)c2cccc([O-])c21 (optimized conformer: 80.21298173196075 kcal/mol)

>  <smiles>  (90) 
CCn1cc(C(=O)NC(C(N)=O)c2ccccc2)c2cccc(O)c21

>  <score_type>  (90) 
oracle

>  <origin>  (90) 
adg

>  <m_score__min__energy>  (90) 
-11.4

>  <m_primary>  (90) 
energy

$$$$
90:0
     RDKit          3D

 40 43  0  0  0  0  0  0  0  0999 V2000
   53.7660   29.0040   52.1850 O   0  0  0  0  0  0  0  0  0  0  0  0
   54.2680   30.1060   51.8320 C   0  0  0  0  0  0  0  0  0  0  0  0
   53.4560   31.0070   50.9410 C   0  0  0  0  0  0  0  0  0  0  0  0
   52.2660   31.5540   51.6670 C   0  0  0  0  0  0  0  0  0  0  0  0
   51.9150   31.1990   52.9160 N   0  0  0  0  0  0  0  0  0  0  0  0
   50.8000   31.9280   53.1440 C   0  0  0  0  0  0  0  0  0  0  0  0
   50.1640   31.8700   54.2280 O   0  0  0  0  0  0  0  0  0  0  0  0
   50.4240   32.7240   52.1200 N   0  0  0  0  0  0  0  0  0  0  0  0
   51.3620   32.4750   51.1940 C   0  0  0  0  0  0  0  0  0  0  0  0
   51.3940   33.0780   49.9440 O   0  0  0  0  0  0  0  0  0  0  0  0
   55.5870   30.4760   52.2930 N   0  0  0  0  0  0  0  0  0  0  0  0
   56.4800   29.4490   52.8510 C   0  0  0  0  0  0  0  0  0  0  0  0
   57.9210   29.6260   52.3410 C   0  0  0  0  0  0  0  0  0  0  0  0
   58.3830   31.1080   52.2680 C   0  0  0  0  0  0  0  0  0  0  0  0
   58.6910   31.5380   50.8880 N   0  0  0  0  0  0  0  0  0  0  0  0
   58.9520   32.7870   50.4010 C   0  0  0  0  0  0  0  0  0  0  0  0
   58.8910   33.8350   51.0970 O   0  0  0  0  0  0  0  0  0  0  0  0
   59.3020   32.8170   49.0890 N   0  0  0  0  0  0  0  0  0  0  0  0
   59.2700   31.5170   48.7590 C   0  0  0  0  0  0  0  0  0  0  0  0
   59.5770   30.9900   47.5480 N   0  0  0  0  0  0  0  0  0  0  0  0
   59.5320   29.6340   47.3850 C   0  0  0  0  0  0  0  0  0  0  0  0
   59.1810   28.7920   48.4660 C   0  0  0  0  0  0  0  0  0  0  0  0
   58.8730   29.3530   49.7170 C   0  0  0  0  0  0  0  0  0  0  0  0
   58.9190   30.7440   49.8240 C   0  0  0  0  0  0  0  0  0  0  0  0
   57.3890   32.0780   52.9270 C   0  0  0  0  0  0  0  0  0  0  0  0
   55.9690   31.8970   52.3800 C   0  0  0  0  0  0  0  0  0  0  0  0
   54.0870   31.8429   50.6046 H   0  0  0  0  0  0  0  0  0  0  0  0
   53.1009   30.4199   50.0812 H   0  0  0  0  0  0  0  0  0  0  0  0
   56.4757   29.5279   53.9482 H   0  0  0  0  0  0  0  0  0  0  0  0
   56.1167   28.4612   52.5311 H   0  0  0  0  0  0  0  0  0  0  0  0
   58.5977   29.0848   53.0187 H   0  0  0  0  0  0  0  0  0  0  0  0
   57.9484   29.2310   51.3147 H   0  0  0  0  0  0  0  0  0  0  0  0
   59.3161   31.1482   52.8492 H   0  0  0  0  0  0  0  0  0  0  0  0
   59.7706   29.1939   46.4055 H   0  0  0  0  0  0  0  0  0  0  0  0
   59.1492   27.7012   48.3278 H   0  0  0  0  0  0  0  0  0  0  0  0
   58.6064   28.7215   50.5773 H   0  0  0  0  0  0  0  0  0  0  0  0
   57.3787   31.8948   54.0116 H   0  0  0  0  0  0  0  0  0  0  0  0
   57.7135   33.1048   52.7023 H   0  0  0  0  0  0  0  0  0  0  0  0
   55.2632   32.4142   53.0466 H   0  0  0  0  0  0  0  0  0  0  0  0
   55.9400   32.3191   51.3646 H   0  0  0  0  0  0  0  0  0  0  0  0
  1  2  2  0
  2  3  1  0
  3  4  1  0
  4  5  1  0
  5  6  1  0
  6  7  2  0
  6  8  1  0
  8  9  1  0
  9 10  1  0
  2 11  1  0
 11 12  1  0
 12 13  1  0
 13 14  1  0
 14 15  1  0
 15 16  1  0
 16 17  2  0
 16 18  1  0
 18 19  1  0
 19 20  2  0
 20 21  1  0
 21 22  2  0
 22 23  1  0
 23 24  2  0
 14 25  1  0
 25 26  1  0
  9  4  2  0
 26 11  1  0
 24 15  1  0
 24 19  1  0
  3 27  1  0
  3 28  1  0
 12 29  1  0
 12 30  1  0
 13 31  1  0
 13 32  1  0
 14 33  1  0
 21 34  1  0
 22 35  1  0
 23 36  1  0
 25 37  1  0
 25 38  1  0
 26 39  1  0
 26 40  1  0
M  CHG  4   5  -1   8  -1  10  -1  18  -1
M  END
>  <UniqueID>  (91) 
84

>  <SMILES>  (91) 
O=C(Cc1[n-]c(=O)[n-]c1[O-])N1CCC(n2c(=O)[n-]c3ncccc32)CC1

>  <Energy>  (91) 
116.99137340234125

>  <Genealogy>  (91) 
O=C(Cc1[n-]c(=O)[n-]c1[O-])N1CCC(n2c(=O)[n-]c3ncccc32)CC1 (protonated)
O=C(Cc1[n-]c(=O)[n-]c1[O-])N1CCC(n2c(=O)[n-]c3ncccc32)CC1 (3D coordinates assigned)
O=C(Cc1[n-]c(=O)[n-]c1[O-])N1CCC(n2c(=O)[n-]c3ncccc32)CC1 (nonaromatic ring conformer: 116.99137340234125 kcal/mol)

>  <smiles>  (91) 
O=C(Cc1[nH]c(=O)[nH]c1O)N1CCC(n2c(=O)[nH]c3ncccc32)CC1

>  <score_type>  (91) 
oracle

>  <origin>  (91) 
adg

>  <m_score__min__energy>  (91) 
-16.789999999999999

>  <m_primary>  (91) 
energy

$$$$
91:0
     RDKit          3D

 57 59  0  0  0  0  0  0  0  0999 V2000
   61.1190   28.3410   50.8300 C   0  0  0  0  0  0  0  0  0  0  0  0
   59.8060   28.7150   50.4330 O   0  0  0  0  0  0  0  0  0  0  0  0
   59.5100   29.7540   49.5350 C   0  0  0  0  0  0  0  0  0  0  0  0
   59.3960   31.0510   49.9590 N   0  0  0  0  0  0  0  0  0  0  0  0
   59.1260   32.0740   49.0910 C   0  0  0  0  0  0  0  0  0  0  0  0
   59.0000   33.4000   49.5360 O   0  0  0  0  0  0  0  0  0  0  0  0
   59.4360   33.8670   50.8070 C   0  0  0  0  0  0  0  0  0  0  0  0
   58.9710   31.8030   47.7240 C   0  0  0  0  0  0  0  0  0  0  0  0
   58.6510   33.1050   46.5760 S   0  0  0  0  0  0  0  0  0  0  0  0
   57.7890   32.6170   45.4450 O   0  0  0  0  0  0  0  0  0  0  0  0
   57.9290   34.2120   47.2860 O   0  0  0  0  0  0  0  0  0  0  0  0
   60.1330   33.7210   45.9240 N   0  0  0  0  0  0  0  0  0  0  0  0
   61.3500   33.8220   46.6690 C   0  0  0  0  0  0  0  0  0  0  0  0
   62.4430   33.8420   46.0440 O   0  0  0  0  0  0  0  0  0  0  0  0
   61.3340   33.9410   48.1000 N   0  0  0  0  0  0  0  0  0  0  0  0
   62.4530   33.6010   48.9360 C   0  0  0  0  0  0  0  0  0  0  0  0
   62.7430   34.3330   50.1030 C   0  0  0  0  0  0  0  0  0  0  0  0
   63.8590   34.0080   50.8800 C   0  0  0  0  0  0  0  0  0  0  0  0
   64.6990   32.9590   50.4940 C   0  0  0  0  0  0  0  0  0  0  0  0
   64.4240   32.2340   49.3330 C   0  0  0  0  0  0  0  0  0  0  0  0
   63.3100   32.5580   48.5530 C   0  0  0  0  0  0  0  0  0  0  0  0
   59.0810   30.4860   47.2720 C   0  0  0  0  0  0  0  0  0  0  0  0
   59.3360   29.4470   48.1740 C   0  0  0  0  0  0  0  0  0  0  0  0
   59.5060   28.0370   47.6630 C   0  0  0  0  0  0  0  0  0  0  0  0
   58.4730   27.7220   46.7290 O   0  0  0  0  0  0  0  0  0  0  0  0
   58.3480   26.4510   46.1610 C   0  0  0  0  0  0  0  0  0  0  0  0
   59.4760   25.6320   46.1070 C   0  0  0  0  0  0  0  0  0  0  0  0
   59.3820   24.3230   45.6340 C   0  0  0  0  0  0  0  0  0  0  0  0
   58.1520   23.8190   45.1840 C   0  0  0  0  0  0  0  0  0  0  0  0
   58.0340   22.3810   44.7450 C   0  0  0  0  0  0  0  0  0  0  0  0
   57.7470   21.5620   45.8230 F   0  0  0  0  0  0  0  0  0  0  0  0
   57.0220   22.2350   43.8100 F   0  0  0  0  0  0  0  0  0  0  0  0
   59.2300   21.9790   44.1790 F   0  0  0  0  0  0  0  0  0  0  0  0
   57.0160   24.6440   45.2350 C   0  0  0  0  0  0  0  0  0  0  0  0
   57.1060   25.9700   45.6940 C   0  0  0  0  0  0  0  0  0  0  0  0
   55.9420   26.8140   45.6810 N   0  0  0  0  0  0  0  0  0  0  0  0
   54.8180   26.3410   45.9480 O   0  0  0  0  0  0  0  0  0  0  0  0
   56.0350   28.1280   45.2830 O   0  0  0  0  0  0  0  0  0  0  0  0
   61.1791   28.3239   51.9282 H   0  0  0  0  0  0  0  0  0  0  0  0
   61.3508   27.3411   50.4345 H   0  0  0  0  0  0  0  0  0  0  0  0
   61.8429   29.0687   50.4345 H   0  0  0  0  0  0  0  0  0  0  0  0
   59.5140   31.2620   50.9710 H   0  0  0  0  0  0  0  0  0  0  0  0
   58.9160   33.3101   51.6004 H   0  0  0  0  0  0  0  0  0  0  0  0
   60.5211   33.7131   50.9017 H   0  0  0  0  0  0  0  0  0  0  0  0
   59.2081   34.9389   50.9017 H   0  0  0  0  0  0  0  0  0  0  0  0
   60.5100   34.3970   48.5480 H   0  0  0  0  0  0  0  0  0  0  0  0
   62.0888   35.1642   50.4048 H   0  0  0  0  0  0  0  0  0  0  0  0
   64.0763   34.5779   51.7954 H   0  0  0  0  0  0  0  0  0  0  0  0
   65.5772   32.7047   51.1056 H   0  0  0  0  0  0  0  0  0  0  0  0
   65.0843   31.4074   49.0318 H   0  0  0  0  0  0  0  0  0  0  0  0
   63.1039   31.9915   47.6329 H   0  0  0  0  0  0  0  0  0  0  0  0
   58.9665   30.2642   46.2007 H   0  0  0  0  0  0  0  0  0  0  0  0
   60.4838   27.9457   47.1675 H   0  0  0  0  0  0  0  0  0  0  0  0
   59.4475   27.3389   48.5111 H   0  0  0  0  0  0  0  0  0  0  0  0
   60.4489   26.0221   46.4406 H   0  0  0  0  0  0  0  0  0  0  0  0
   60.2763   23.6828   45.6137 H   0  0  0  0  0  0  0  0  0  0  0  0
   56.0425   24.2471   44.9113 H   0  0  0  0  0  0  0  0  0  0  0  0
  1  2  1  0
  2  3  1  0
  3  4  2  0
  4  5  1  0
  5  6  1  0
  6  7  1  0
  5  8  2  0
  8  9  1  0
  9 10  2  0
  9 11  2  0
  9 12  1  0
 12 13  1  0
 13 14  2  0
 13 15  1  0
 15 16  1  0
 16 17  2  0
 17 18  1  0
 18 19  2  0
 19 20  1  0
 20 21  2  0
  8 22  1  0
 22 23  2  0
 23 24  1  0
 24 25  1  0
 25 26  1  0
 26 27  2  0
 27 28  1  0
 28 29  2  0
 29 30  1  0
 30 31  1  0
 30 32  1  0
 30 33  1  0
 29 34  1  0
 34 35  2  0
 35 36  1  0
 36 37  2  0
 36 38  1  0
 23  3  1  0
 35 26  1  0
 21 16  1  0
  1 39  1  0
  1 40  1  0
  1 41  1  0
  4 42  1  0
  7 43  1  0
  7 44  1  0
  7 45  1  0
 15 46  1  0
 17 47  1  0
 18 48  1  0
 19 49  1  0
 20 50  1  0
 21 51  1  0
 22 52  1  0
 24 53  1  0
 24 54  1  0
 27 55  1  0
 28 56  1  0
 34 57  1  0
M  CHG  4   4   1  12  -1  36   1  38  -1
M  END
>  <UniqueID>  (92) 
85

>  <SMILES>  (92) 
COc1[nH+]c(OC)c(S(=O)(=O)[N-]C(=O)Nc2ccccc2)cc1COc1ccc(C(F)(F)F)cc1[N+](=O)[O-]

>  <Energy>  (92) 
70.77504431859104

>  <Genealogy>  (92) 
COc1[nH+]c(OC)c(S(=O)(=O)[N-]C(=O)Nc2ccccc2)cc1COc1ccc(C(F)(F)F)cc1[N+](=O)[O-] (protonated)
COc1[nH+]c(OC)c(S(=O)(=O)[N-]C(=O)Nc2ccccc2)cc1COc1ccc(C(F)(F)F)cc1[N+](=O)[O-] (3D coordinates assigned)
COc1[nH+]c(OC)c(S(=O)(=O)[N-]C(=O)Nc2ccccc2)cc1COc1ccc(C(F)(F)F)cc1[N+](=O)[O-] (optimized conformer: 70.77504431859104 kcal/mol)

>  <smiles>  (92) 
COc1nc(OC)c(S(=O)(=O)NC(=O)Nc2ccccc2)cc1COc1ccc(C(F)(F)F)cc1[N+](=O)[O-]

>  <score_type>  (92) 
oracle

>  <origin>  (92) 
adg

>  <m_score__min__energy>  (92) 
-9

>  <m_primary>  (92) 
energy

$$$$
92:0
     RDKit          3D

 23 24  0  0  0  0  0  0  0  0999 V2000
   55.5280   20.4330   43.3550 H   0  0  0  0  0  0  0  0  0  0  0  0
   55.9400   21.3520   43.2350 O   0  0  0  0  0  0  0  0  0  0  0  0
   56.5640   22.0150   44.2900 C   0  0  0  0  0  0  0  0  0  0  0  0
   57.1280   23.2840   44.0980 C   0  0  0  0  0  0  0  0  0  0  0  0
   57.0678   23.7619   43.1091 H   0  0  0  0  0  0  0  0  0  0  0  0
   57.7690   23.9520   45.1540 C   0  0  0  0  0  0  0  0  0  0  0  0
   58.3420   25.2970   44.8990 C   0  0  0  0  0  0  0  0  0  0  0  0
   58.8862   25.4590   43.9568 H   0  0  0  0  0  0  0  0  0  0  0  0
   58.2340   26.3260   45.7520 C   0  0  0  0  0  0  0  0  0  0  0  0
   58.7756   26.2679   46.7077 H   0  0  0  0  0  0  0  0  0  0  0  0
   57.4280   27.5330   45.4790 C   0  0  0  0  0  0  0  0  0  0  0  0
   58.0920   28.9690   44.9000 S   0  0  0  0  0  0  0  0  0  0  0  0
   56.6050   29.7440   44.8360 C   0  0  0  0  0  0  0  0  0  0  0  0
   56.4390   30.9330   44.4610 O   0  0  0  0  0  0  0  0  0  0  0  0
   55.5900   28.9470   45.2290 N   0  0  0  0  0  0  0  0  0  0  0  0
   56.0420   27.7130   45.5800 C   0  0  0  0  0  0  0  0  0  0  0  0
   55.1580   26.7170   45.9730 O   0  0  0  0  0  0  0  0  0  0  0  0
   57.8100   23.3360   46.4220 C   0  0  0  0  0  0  0  0  0  0  0  0
   58.2898   23.8541   47.2654 H   0  0  0  0  0  0  0  0  0  0  0  0
   57.2450   22.0710   46.6150 C   0  0  0  0  0  0  0  0  0  0  0  0
   57.2970   21.4770   47.8700 O   0  0  0  0  0  0  0  0  0  0  0  0
   56.6260   21.4090   45.5490 C   0  0  0  0  0  0  0  0  0  0  0  0
   56.0680   20.1500   45.7440 O   0  0  0  0  0  0  0  0  0  0  0  0
  1  2  1  0
  2  3  1  0
  3  4  2  0
  4  5  1  0
  4  6  1  0
  6  7  1  0
  7  8  1  0
  7  9  2  0
  9 10  1  0
  9 11  1  0
 11 12  1  0
 12 13  1  0
 13 14  2  0
 13 15  1  0
 15 16  1  0
 16 17  1  0
  6 18  2  0
 18 19  1  0
 18 20  1  0
 20 21  1  0
 20 22  2  0
 22 23  1  0
 22  3  1  0
 16 11  2  0
M  CHG  4  15  -1  17  -1  21  -1  23  -1
M  END
>  <UniqueID>  (93) 
86

>  <SMILES>  (93) 
O=c1[n-]c([O-])c(/C=C/c2cc([O-])c([O-])c(O)c2)s1

>  <Energy>  (93) 
59.784989346785515

>  <Genealogy>  (93) 
O=c1[n-]c([O-])c(C=Cc2cc([O-])c([O-])c(O)c2)s1 (protonated)
O=c1[n-]c([O-])c(/C=C/c2cc([O-])c([O-])c(O)c2)s1 (cis-trans isomerization)
O=c1[n-]c([O-])c(/C=C/c2cc([O-])c([O-])c(O)c2)s1 (3D coordinates assigned)
O=c1[n-]c([O-])c(/C=C/c2cc([O-])c([O-])c(O)c2)s1 (optimized conformer: 59.784989346785515 kcal/mol)

>  <smiles>  (93) 
O=c1[nH]c(O)c(C=Cc2cc(O)c(O)c(O)c2)s1

>  <score_type>  (93) 
oracle

>  <origin>  (93) 
adg

>  <m_score__min__energy>  (93) 
-16.649999999999999

>  <m_primary>  (93) 
energy

$$$$
93:0
     RDKit          3D

 37 38  0  0  0  0  0  0  0  0999 V2000
   58.2040   31.7530   42.6790 H   0  0  0  0  0  0  0  0  0  0  0  0
   58.4590   32.7010   42.9270 O   0  0  0  0  0  0  0  0  0  0  0  0
   58.4740   33.1350   44.2520 C   0  0  0  0  0  0  0  0  0  0  0  0
   59.2730   34.2330   44.5980 C   0  0  0  0  0  0  0  0  0  0  0  0
   59.9266   34.6937   43.8426 H   0  0  0  0  0  0  0  0  0  0  0  0
   59.2440   34.7440   45.8930 C   0  0  0  0  0  0  0  0  0  0  0  0
   59.8735   35.6038   46.1658 H   0  0  0  0  0  0  0  0  0  0  0  0
   58.4100   34.1550   46.8380 C   0  0  0  0  0  0  0  0  0  0  0  0
   58.3640   34.5605   47.8595 H   0  0  0  0  0  0  0  0  0  0  0  0
   57.6530   33.0800   46.5000 N   0  0  0  0  0  0  0  0  0  0  0  0
   57.6680   32.5300   45.2530 C   0  0  0  0  0  0  0  0  0  0  0  0
   56.9030   31.4950   45.0410 N   0  0  0  0  0  0  0  0  0  0  0  0
   57.1760   30.3140   44.2740 C   0  0  0  0  0  0  0  0  0  0  0  0
   58.3570   30.0280   43.9400 O   0  0  0  0  0  0  0  0  0  0  0  0
   56.0720   29.3460   43.9940 C   0  0  0  0  0  0  0  0  0  0  0  0
   55.1994   29.8927   43.6071 H   0  0  0  0  0  0  0  0  0  0  0  0
   56.4181   28.6138   43.2496 H   0  0  0  0  0  0  0  0  0  0  0  0
   55.6960   28.6410   45.2140 N   0  0  0  0  0  0  0  0  0  0  0  0
   56.2760   27.3960   45.6170 C   0  0  0  0  0  0  0  0  0  0  0  0
   55.5500   26.4720   46.0750 O   0  0  0  0  0  0  0  0  0  0  0  0
   57.7480   27.1770   45.4570 C   0  0  0  0  0  0  0  0  0  0  0  0
   58.2340   28.1431   45.2557 H   0  0  0  0  0  0  0  0  0  0  0  0
   58.1353   26.7319   46.3854 H   0  0  0  0  0  0  0  0  0  0  0  0
   58.0460   26.2200   44.3030 C   0  0  0  0  0  0  0  0  0  0  0  0
   57.2654   26.3224   43.5347 H   0  0  0  0  0  0  0  0  0  0  0  0
   59.0283   26.4680   43.8745 H   0  0  0  0  0  0  0  0  0  0  0  0
   58.0700   24.8400   44.7870 N   0  0  0  0  0  0  0  0  0  0  0  0
   57.4210   23.8340   44.2710 C   0  0  0  0  0  0  0  0  0  0  0  0
   57.8690   22.5030   44.3910 C   0  0  0  0  0  0  0  0  0  0  0  0
   58.7966   22.2780   44.9377 H   0  0  0  0  0  0  0  0  0  0  0  0
   57.1270   21.4720   43.8110 C   0  0  0  0  0  0  0  0  0  0  0  0
   57.4704   20.4308   43.9005 H   0  0  0  0  0  0  0  0  0  0  0  0
   55.9810   21.7530   43.1360 N   0  0  0  0  0  0  0  0  0  0  0  0
   55.5240   23.0260   43.0060 C   0  0  0  0  0  0  0  0  0  0  0  0
   54.5914   23.2211   42.4562 H   0  0  0  0  0  0  0  0  0  0  0  0
   56.2360   24.0870   43.5690 C   0  0  0  0  0  0  0  0  0  0  0  0
   55.8674   25.1178   43.4615 H   0  0  0  0  0  0  0  0  0  0  0  0
  1  2  1  0
  2  3  1  0
  3  4  2  0
  4  5  1  0
  4  6  1  0
  6  7  1  0
  6  8  2  0
  8  9  1  0
  8 10  1  0
 10 11  1  0
 11 12  2  0
 12 13  1  0
 13 14  2  0
 13 15  1  0
 15 16  1  0
 15 17  1  0
 15 18  1  0
 18 19  1  0
 19 20  2  0
 19 21  1  0
 21 22  1  0
 21 23  1  0
 21 24  1  0
 24 25  1  0
 24 26  1  0
 24 27  1  0
 27 28  2  3
 28 29  1  0
 29 30  1  0
 29 31  2  0
 31 32  1  0
 31 33  1  0
 33 34  1  0
 34 35  1  0
 34 36  2  0
 36 37  1  0
 11  3  1  0
 36 28  1  0
M  CHG  3  10  -1  18  -1  33  -1
M  END
>  <UniqueID>  (94) 
87

>  <SMILES>  (94) 
O=C(C[N-]C(=O)CCN=c1cc[n-]cc1)/N=c1/[n-]cccc1O

>  <Energy>  (94) 
44.71077597023616

>  <Genealogy>  (94) 
O=C(C[N-]C(=O)CCN=c1cc[n-]cc1)N=c1[n-]cccc1O (protonated)
O=C(C[N-]C(=O)CCN=c1cc[n-]cc1)/N=c1/[n-]cccc1O (cis-trans isomerization)
O=C(C[N-]C(=O)CCN=c1cc[n-]cc1)/N=c1/[n-]cccc1O (3D coordinates assigned)
O=C(C[N-]C(=O)CCN=c1cc[n-]cc1)/N=c1/[n-]cccc1O (optimized conformer: 44.71077597023616 kcal/mol)

>  <smiles>  (94) 
O=C(CNC(=O)CCN=c1cc[nH]cc1)N=c1[nH]cccc1O

>  <score_type>  (94) 
oracle

>  <origin>  (94) 
adg

>  <m_score__min__energy>  (94) 
-11.699999999999999

>  <m_primary>  (94) 
energy

$$$$
