0:0
     RDKit          3D

 30 32  0  0  0  0  0  0  0  0999 V2000
   57.1020   23.1670   48.2690 O   0  0  0  0  0  0  0  0  0  0  0  0
   57.0960   24.2040   47.5560 C   0  0  0  0  0  0  0  0  0  0  0  0
   55.9170   24.7290   47.1340 N   0  0  0  0  0  0  0  0  0  0  0  0
   55.8780   25.8470   46.3640 C   0  0  0  0  0  0  0  0  0  0  0  0
   54.7620   26.3030   45.9930 O   0  0  0  0  0  0  0  0  0  0  0  0
   57.0760   26.4790   45.9910 C   0  0  0  0  0  0  0  0  0  0  0  0
   57.1040   27.6390   45.1970 C   0  0  0  0  0  0  0  0  0  0  0  0
   58.3250   28.2320   44.8510 C   0  0  0  0  0  0  0  0  0  0  0  0
   58.3050   29.4210   44.0460 N   0  0  0  0  0  0  0  0  0  0  0  0
   57.6150   30.9420   44.5180 S   0  0  0  0  0  0  0  0  0  0  0  0
   56.1430   30.7450   44.7510 O   0  0  0  0  0  0  0  0  0  0  0  0
   57.8090   31.9250   43.3980 O   0  0  0  0  0  0  0  0  0  0  0  0
   58.3550   31.5420   46.0090 C   0  0  0  0  0  0  0  0  0  0  0  0
   58.9950   30.6400   46.8740 C   0  0  0  0  0  0  0  0  0  0  0  0
   59.5920   31.0900   48.0540 C   0  0  0  0  0  0  0  0  0  0  0  0
   59.5460   32.4440   48.3880 C   0  0  0  0  0  0  0  0  0  0  0  0
   58.8980   33.3490   47.5460 C   0  0  0  0  0  0  0  0  0  0  0  0
   58.2970   32.9100   46.3600 C   0  0  0  0  0  0  0  0  0  0  0  0
   57.3960   34.2150   45.2790 Br  0  0  0  0  0  0  0  0  0  0  0  0
   59.5270   27.6610   45.3080 C   0  0  0  0  0  0  0  0  0  0  0  0
   59.5060   26.5090   46.0990 C   0  0  0  0  0  0  0  0  0  0  0  0
   58.2880   25.9150   46.4420 C   0  0  0  0  0  0  0  0  0  0  0  0
   58.2690   24.7950   47.2110 N   0  0  0  0  0  0  0  0  0  0  0  0
   56.1613   28.0836   44.8453 H   0  0  0  0  0  0  0  0  0  0  0  0
   59.0265   29.5701   46.6204 H   0  0  0  0  0  0  0  0  0  0  0  0
   60.0987   30.3764   48.7204 H   0  0  0  0  0  0  0  0  0  0  0  0
   60.0205   32.7982   49.3150 H   0  0  0  0  0  0  0  0  0  0  0  0
   58.8592   34.4146   47.8160 H   0  0  0  0  0  0  0  0  0  0  0  0
   60.4886   28.1239   45.0412 H   0  0  0  0  0  0  0  0  0  0  0  0
   60.4501   26.0687   46.4525 H   0  0  0  0  0  0  0  0  0  0  0  0
  1  2  2  0
  2  3  1  0
  3  4  1  0
  4  5  2  0
  4  6  1  0
  6  7  2  0
  7  8  1  0
  8  9  1  0
  9 10  1  0
 10 11  2  0
 10 12  2  0
 10 13  1  0
 13 14  2  0
 14 15  1  0
 15 16  2  0
 16 17  1  0
 17 18  2  0
 18 19  1  0
  8 20  2  0
 20 21  1  0
 21 22  2  0
 22 23  1  0
 23  2  1  0
 22  6  1  0
 18 13  1  0
  7 24  1  0
 14 25  1  0
 15 26  1  0
 16 27  1  0
 17 28  1  0
 20 29  1  0
 21 30  1  0
M  CHG  3   3  -1   9  -1  23  -1
M  END
>  <UniqueID>  (1) 
1

>  <SMILES>  (1) 
O=c1[n-]c(=O)c2cc([N-]S(=O)(=O)c3ccccc3Br)ccc2[n-]1

>  <Energy>  (1) 
43.245490927277395

>  <Genealogy>  (1) 
O=c1[n-]c(=O)c2cc([N-]S(=O)(=O)c3ccccc3Br)ccc2[n-]1 (protonated)
O=c1[n-]c(=O)c2cc([N-]S(=O)(=O)c3ccccc3Br)ccc2[n-]1 (3D coordinates assigned)
O=c1[n-]c(=O)c2cc([N-]S(=O)(=O)c3ccccc3Br)ccc2[n-]1 (optimized conformer: 43.245490927277395 kcal/mol)

>  <smiles>  (1) 
O=c1[nH]c(=O)c2cc(NS(=O)(=O)c3ccccc3Br)ccc2[nH]1

>  <score_type>  (1) 
oracle

>  <origin>  (1) 
adg

>  <m_score__min__energy>  (1) 
-13.859999999999999

>  <m_primary>  (1) 
energy

$$$$
1:0
     RDKit          3D

 32 33  0  0  0  0  0  0  0  0999 V2000
   57.8480   32.7830   44.5260 C   0  0  0  0  0  0  0  0  0  0  0  0
   57.2500   31.2360   43.8800 S   0  0  0  0  0  0  0  0  0  0  0  0
   57.0280   31.3860   42.4010 O   0  0  0  0  0  0  0  0  0  0  0  0
   55.9470   30.8640   44.5290 O   0  0  0  0  0  0  0  0  0  0  0  0
   58.4230   29.9860   44.1420 N   0  0  0  0  0  0  0  0  0  0  0  0
   58.1770   28.7200   44.7710 C   0  0  0  0  0  0  0  0  0  0  0  0
   58.0690   27.5260   44.0350 C   0  0  0  0  0  0  0  0  0  0  0  0
   57.8230   26.3150   44.6890 C   0  0  0  0  0  0  0  0  0  0  0  0
   57.6850   26.2760   46.0840 C   0  0  0  0  0  0  0  0  0  0  0  0
   57.3960   24.9710   46.7760 C   0  0  0  0  0  0  0  0  0  0  0  0
   55.9570   24.7880   46.9370 N   0  0  0  0  0  0  0  0  0  0  0  0
   55.0240   24.8540   45.8550 C   0  0  0  0  0  0  0  0  0  0  0  0
   54.4330   25.9420   45.6280 O   0  0  0  0  0  0  0  0  0  0  0  0
   54.7820   23.6900   45.0450 N   0  0  0  0  0  0  0  0  0  0  0  0
   55.6600   22.9420   44.4430 C   0  0  0  0  0  0  0  0  0  0  0  0
   55.5780   22.6680   43.1250 N   0  0  0  0  0  0  0  0  0  0  0  0
   56.6030   21.8770   42.7080 C   0  0  0  0  0  0  0  0  0  0  0  0
   57.5120   21.5150   43.6960 C   0  0  0  0  0  0  0  0  0  0  0  0
   57.0120   22.2140   45.1430 S   0  0  0  0  0  0  0  0  0  0  0  0
   57.7950   27.4670   46.8180 C   0  0  0  0  0  0  0  0  0  0  0  0
   58.0390   28.6780   46.1650 C   0  0  0  0  0  0  0  0  0  0  0  0
   58.1380   29.8190   46.8930 F   0  0  0  0  0  0  0  0  0  0  0  0
   57.8355   32.7506   45.6255 H   0  0  0  0  0  0  0  0  0  0  0  0
   58.8768   32.9534   44.1759 H   0  0  0  0  0  0  0  0  0  0  0  0
   57.2013   33.6011   44.1759 H   0  0  0  0  0  0  0  0  0  0  0  0
   58.1785   27.5452   42.9406 H   0  0  0  0  0  0  0  0  0  0  0  0
   57.7371   25.3866   44.1054 H   0  0  0  0  0  0  0  0  0  0  0  0
   57.8014   24.1442   46.1743 H   0  0  0  0  0  0  0  0  0  0  0  0
   57.8676   24.9821   47.7697 H   0  0  0  0  0  0  0  0  0  0  0  0
   56.7055   21.5472   41.6636 H   0  0  0  0  0  0  0  0  0  0  0  0
   58.4014   20.8830   43.5564 H   0  0  0  0  0  0  0  0  0  0  0  0
   57.6886   27.4471   47.9127 H   0  0  0  0  0  0  0  0  0  0  0  0
  1  2  1  0
  2  3  2  0
  2  4  2  0
  2  5  1  0
  5  6  1  0
  6  7  2  0
  7  8  1  0
  8  9  2  0
  9 10  1  0
 10 11  1  0
 11 12  1  0
 12 13  2  0
 12 14  1  0
 14 15  2  3
 15 16  1  0
 16 17  1  0
 17 18  2  0
 18 19  1  0
  9 20  1  0
 20 21  2  0
 21 22  1  0
 21  6  1  0
 19 15  1  0
  1 23  1  0
  1 24  1  0
  1 25  1  0
  7 26  1  0
  8 27  1  0
 10 28  1  0
 10 29  1  0
 17 30  1  0
 18 31  1  0
 20 32  1  0
M  CHG  3   5  -1  11  -1  16  -1
M  END
>  <UniqueID>  (2) 
2

>  <SMILES>  (2) 
CS(=O)(=O)[N-]c1ccc(C[N-]C(=O)N=c2[n-]ccs2)cc1F

>  <Energy>  (2) 
61.74684743922833

>  <Genealogy>  (2) 
CS(=O)(=O)[N-]c1ccc(C[N-]C(=O)N=c2[n-]ccs2)cc1F (protonated)
CS(=O)(=O)[N-]c1ccc(C[N-]C(=O)N=c2[n-]ccs2)cc1F (3D coordinates assigned)
CS(=O)(=O)[N-]c1ccc(C[N-]C(=O)N=c2[n-]ccs2)cc1F (optimized conformer: 61.74684743922833 kcal/mol)

>  <smiles>  (2) 
CS(=O)(=O)Nc1ccc(CNC(=O)N=c2[nH]ccs2)cc1F

>  <score_type>  (2) 
oracle

>  <origin>  (2) 
adg

>  <m_score__min__energy>  (2) 
-10.630000000000001

>  <m_primary>  (2) 
energy

$$$$
2:0
     RDKit          3D

 51 54  0  0  0  0  0  0  0  0999 V2000
   55.0010   26.6120   45.9960 O   0  0  0  0  0  0  0  0  0  0  0  0
   56.2580   26.5830   46.0120 C   0  0  0  0  0  0  0  0  0  0  0  0
   56.9250   25.3140   46.0760 N   0  0  0  0  0  0  0  0  0  0  0  0
   57.9550   24.8420   45.1490 C   0  0  0  0  0  0  0  0  0  0  0  0
   57.4830   23.6420   44.3690 C   0  0  0  0  0  0  0  0  0  0  0  0
   56.3880   23.7460   43.4920 C   0  0  0  0  0  0  0  0  0  0  0  0
   55.9810   22.6430   42.7380 C   0  0  0  0  0  0  0  0  0  0  0  0
   56.6510   21.4230   42.8640 C   0  0  0  0  0  0  0  0  0  0  0  0
   57.7270   21.3040   43.7480 C   0  0  0  0  0  0  0  0  0  0  0  0
   58.1420   22.4080   44.5000 C   0  0  0  0  0  0  0  0  0  0  0  0
   57.0080   27.8540   46.0300 C   0  0  0  0  0  0  0  0  0  0  0  0
   56.4250   29.0130   45.4930 C   0  0  0  0  0  0  0  0  0  0  0  0
   55.1800   28.9590   44.8770 O   0  0  0  0  0  0  0  0  0  0  0  0
   57.0630   30.2080   45.5950 N   0  0  0  0  0  0  0  0  0  0  0  0
   58.2700   30.3310   46.2040 C   0  0  0  0  0  0  0  0  0  0  0  0
   58.8650   31.5910   46.3200 C   0  0  0  0  0  0  0  0  0  0  0  0
   60.0950   31.7340   46.9710 C   0  0  0  0  0  0  0  0  0  0  0  0
   60.7790   33.3440   47.1770 S   0  0  0  0  0  0  0  0  0  0  0  0
   61.3700   33.8270   45.8810 O   0  0  0  0  0  0  0  0  0  0  0  0
   59.6830   34.2840   47.5920 O   0  0  0  0  0  0  0  0  0  0  0  0
   62.0160   33.2960   48.4100 N   0  0  0  0  0  0  0  0  0  0  0  0
   63.3250   32.9900   47.7950 C   0  0  0  0  0  0  0  0  0  0  0  0
   64.5070   33.2560   48.7520 C   0  0  0  0  0  0  0  0  0  0  0  0
   64.0400   33.3730   50.2050 C   0  0  0  0  0  0  0  0  0  0  0  0
   62.9820   34.4790   50.3560 C   0  0  0  0  0  0  0  0  0  0  0  0
   62.0570   34.5790   49.1280 C   0  0  0  0  0  0  0  0  0  0  0  0
   60.7420   30.6060   47.4910 C   0  0  0  0  0  0  0  0  0  0  0  0
   60.1610   29.3400   47.3720 C   0  0  0  0  0  0  0  0  0  0  0  0
   58.9150   29.1910   46.7360 C   0  0  0  0  0  0  0  0  0  0  0  0
   58.2760   27.9410   46.6330 C   0  0  0  0  0  0  0  0  0  0  0  0
   58.8320   26.9010   47.0820 O   0  0  0  0  0  0  0  0  0  0  0  0
   58.2023   25.6513   44.4462 H   0  0  0  0  0  0  0  0  0  0  0  0
   58.8397   24.5495   45.7335 H   0  0  0  0  0  0  0  0  0  0  0  0
   55.8496   24.7008   43.3996 H   0  0  0  0  0  0  0  0  0  0  0  0
   55.1322   22.7346   42.0443 H   0  0  0  0  0  0  0  0  0  0  0  0
   56.3314   20.5560   42.2672 H   0  0  0  0  0  0  0  0  0  0  0  0
   58.2482   20.3409   43.8525 H   0  0  0  0  0  0  0  0  0  0  0  0
   58.9876   22.3097   45.1967 H   0  0  0  0  0  0  0  0  0  0  0  0
   58.3635   32.4741   45.8973 H   0  0  0  0  0  0  0  0  0  0  0  0
   63.3385   31.9291   47.5047 H   0  0  0  0  0  0  0  0  0  0  0  0
   63.4464   33.6504   46.9238 H   0  0  0  0  0  0  0  0  0  0  0  0
   65.2240   32.4255   48.6732 H   0  0  0  0  0  0  0  0  0  0  0  0
   64.9758   34.2083   48.4635 H   0  0  0  0  0  0  0  0  0  0  0  0
   63.6052   32.4135   50.5216 H   0  0  0  0  0  0  0  0  0  0  0  0
   64.9066   33.6287   50.8324 H   0  0  0  0  0  0  0  0  0  0  0  0
   62.3689   34.2625   51.2433 H   0  0  0  0  0  0  0  0  0  0  0  0
   63.5115   35.4380   50.4559 H   0  0  0  0  0  0  0  0  0  0  0  0
   61.0415   34.8411   49.4598 H   0  0  0  0  0  0  0  0  0  0  0  0
   62.4458   35.3540   48.4511 H   0  0  0  0  0  0  0  0  0  0  0  0
   61.7129   30.7168   47.9960 H   0  0  0  0  0  0  0  0  0  0  0  0
   60.6794   28.4582   47.7767 H   0  0  0  0  0  0  0  0  0  0  0  0
  1  2  2  0
  2  3  1  0
  3  4  1  0
  4  5  1  0
  5  6  2  0
  6  7  1  0
  7  8  2  0
  8  9  1  0
  9 10  2  0
  2 11  1  0
 11 12  2  0
 12 13  1  0
 12 14  1  0
 14 15  1  0
 15 16  2  0
 16 17  1  0
 17 18  1  0
 18 19  2  0
 18 20  2  0
 18 21  1  0
 21 22  1  0
 22 23  1  0
 23 24  1  0
 24 25  1  0
 25 26  1  0
 17 27  2  0
 27 28  1  0
 28 29  2  0
 29 30  1  0
 30 31  2  0
 10  5  1  0
 30 11  1  0
 29 15  1  0
 26 21  1  0
  4 32  1  0
  4 33  1  0
  6 34  1  0
  7 35  1  0
  8 36  1  0
  9 37  1  0
 10 38  1  0
 16 39  1  0
 22 40  1  0
 22 41  1  0
 23 42  1  0
 23 43  1  0
 24 44  1  0
 24 45  1  0
 25 46  1  0
 25 47  1  0
 26 48  1  0
 26 49  1  0
 27 50  1  0
 28 51  1  0
M  CHG  3   3  -1  13  -1  14  -1
M  END
>  <UniqueID>  (3) 
3

>  <SMILES>  (3) 
O=C([N-]Cc1ccccc1)c1c([O-])[n-]c2cc(S(=O)(=O)N3CCCCC3)ccc2c1=O

>  <Energy>  (3) 
64.80579146282163

>  <Genealogy>  (3) 
O=C([N-]Cc1ccccc1)c1c([O-])[n-]c2cc(S(=O)(=O)N3CCCCC3)ccc2c1=O (protonated)
O=C([N-]Cc1ccccc1)c1c([O-])[n-]c2cc(S(=O)(=O)N3CCCCC3)ccc2c1=O (3D coordinates assigned)
O=C([N-]Cc1ccccc1)c1c([O-])[n-]c2cc(S(=O)(=O)N3CCCCC3)ccc2c1=O (nonaromatic ring conformer: 64.80579146282163 kcal/mol)

>  <smiles>  (3) 
O=C(NCc1ccccc1)c1c(O)[nH]c2cc(S(=O)(=O)N3CCCCC3)ccc2c1=O

>  <score_type>  (3) 
oracle

>  <origin>  (3) 
adg

>  <m_score__min__energy>  (3) 
-16.57

>  <m_primary>  (3) 
energy

$$$$
3:0
     RDKit          3D

 36 37  0  0  0  0  0  0  0  0999 V2000
   55.1720   26.7130   45.9570 O   0  0  0  0  0  0  0  0  0  0  0  0
   56.1580   26.0260   46.3410 C   0  0  0  0  0  0  0  0  0  0  0  0
   55.9290   24.7350   46.9160 N   0  0  0  0  0  0  0  0  0  0  0  0
   55.7700   23.5280   46.1150 C   0  0  0  0  0  0  0  0  0  0  0  0
   54.3950   23.5280   45.4540 C   0  0  0  0  0  0  0  0  0  0  0  0
   53.6480   24.6320   45.8860 O   0  0  0  0  0  0  0  0  0  0  0  0
   57.5470   26.5480   46.2070 C   0  0  0  0  0  0  0  0  0  0  0  0
   58.6240   25.7590   46.6580 C   0  0  0  0  0  0  0  0  0  0  0  0
   59.9370   26.2170   46.5560 C   0  0  0  0  0  0  0  0  0  0  0  0
   60.2010   27.4660   46.0010 C   0  0  0  0  0  0  0  0  0  0  0  0
   59.1520   28.2640   45.5450 C   0  0  0  0  0  0  0  0  0  0  0  0
   57.8160   27.8210   45.6420 C   0  0  0  0  0  0  0  0  0  0  0  0
   56.7490   28.6150   45.1850 O   0  0  0  0  0  0  0  0  0  0  0  0
   56.7760   29.4760   44.0460 C   0  0  0  0  0  0  0  0  0  0  0  0
   57.3920   30.8050   44.3950 C   0  0  0  0  0  0  0  0  0  0  0  0
   57.5660   31.7930   43.4130 C   0  0  0  0  0  0  0  0  0  0  0  0
   58.1320   33.0270   43.7460 C   0  0  0  0  0  0  0  0  0  0  0  0
   58.5190   33.2880   45.0640 C   0  0  0  0  0  0  0  0  0  0  0  0
   59.2290   34.8360   45.4800 Cl  0  0  0  0  0  0  0  0  0  0  0  0
   58.3380   32.3130   46.0510 C   0  0  0  0  0  0  0  0  0  0  0  0
   57.7720   31.0780   45.7190 C   0  0  0  0  0  0  0  0  0  0  0  0
   56.5490   23.4988   45.3389 H   0  0  0  0  0  0  0  0  0  0  0  0
   55.8625   22.6448   46.7641 H   0  0  0  0  0  0  0  0  0  0  0  0
   54.5173   23.5775   44.3619 H   0  0  0  0  0  0  0  0  0  0  0  0
   53.8641   22.6056   45.7322 H   0  0  0  0  0  0  0  0  0  0  0  0
   54.2780   25.2310   46.3670 H   0  0  0  0  0  0  0  0  0  0  0  0
   58.4264   24.7695   47.0960 H   0  0  0  0  0  0  0  0  0  0  0  0
   60.7663   25.5898   46.9150 H   0  0  0  0  0  0  0  0  0  0  0  0
   61.2381   27.8240   45.9220 H   0  0  0  0  0  0  0  0  0  0  0  0
   59.3685   29.2488   45.1053 H   0  0  0  0  0  0  0  0  0  0  0  0
   57.3684   29.0020   43.2495 H   0  0  0  0  0  0  0  0  0  0  0  0
   55.7433   29.6442   43.7065 H   0  0  0  0  0  0  0  0  0  0  0  0
   57.2554   31.5951   42.3765 H   0  0  0  0  0  0  0  0  0  0  0  0
   58.2731   33.7938   42.9701 H   0  0  0  0  0  0  0  0  0  0  0  0
   58.6410   32.5179   47.0884 H   0  0  0  0  0  0  0  0  0  0  0  0
   57.6237   30.3166   46.4989 H   0  0  0  0  0  0  0  0  0  0  0  0
  1  2  2  0
  2  3  1  0
  3  4  1  0
  4  5  1  0
  5  6  1  0
  2  7  1  0
  7  8  2  0
  8  9  1  0
  9 10  2  0
 10 11  1  0
 11 12  2  0
 12 13  1  0
 13 14  1  0
 14 15  1  0
 15 16  2  0
 16 17  1  0
 17 18  2  0
 18 19  1  0
 18 20  1  0
 20 21  2  0
 12  7  1  0
 21 15  1  0
  4 22  1  0
  4 23  1  0
  5 24  1  0
  5 25  1  0
  6 26  1  0
  8 27  1  0
  9 28  1  0
 10 29  1  0
 11 30  1  0
 14 31  1  0
 14 32  1  0
 16 33  1  0
 17 34  1  0
 20 35  1  0
 21 36  1  0
M  CHG  1   3  -1
M  END
>  <UniqueID>  (4) 
4

>  <SMILES>  (4) 
O=C([N-]CCO)c1ccccc1OCc1ccc(Cl)cc1

>  <Energy>  (4) 
33.66459212021986

>  <Genealogy>  (4) 
O=C([N-]CCO)c1ccccc1OCc1ccc(Cl)cc1 (protonated)
O=C([N-]CCO)c1ccccc1OCc1ccc(Cl)cc1 (3D coordinates assigned)
O=C([N-]CCO)c1ccccc1OCc1ccc(Cl)cc1 (optimized conformer: 33.66459212021986 kcal/mol)

>  <smiles>  (4) 
O=C(NCCO)c1ccccc1OCc1ccc(Cl)cc1

>  <score_type>  (4) 
oracle

>  <origin>  (4) 
adg

>  <m_score__min__energy>  (4) 
-10.25

>  <m_primary>  (4) 
energy

$$$$
4:0
     RDKit          3D

 50 52  0  0  0  0  0  0  0  0999 V2000
   58.2760   29.6780   52.6700 C   0  0  0  0  0  0  0  0  0  0  0  0
   57.5600   30.8020   52.0560 N   0  0  0  0  0  0  0  0  0  0  0  0
   56.1250   30.9650   52.3340 C   0  0  0  0  0  0  0  0  0  0  0  0
   58.2570   31.7460   51.1990 C   0  0  0  0  0  0  0  0  0  0  0  0
   58.7540   32.9670   51.7110 C   0  0  0  0  0  0  0  0  0  0  0  0
   59.4390   33.8650   50.8870 C   0  0  0  0  0  0  0  0  0  0  0  0
   59.6380   33.5750   49.5330 C   0  0  0  0  0  0  0  0  0  0  0  0
   60.4660   34.5030   48.6790 C   0  0  0  0  0  0  0  0  0  0  0  0
   60.3670   34.1110   47.2620 N   0  0  0  0  0  0  0  0  0  0  0  0
   61.1840   33.0100   46.7390 C   0  0  0  0  0  0  0  0  0  0  0  0
   62.3990   32.8300   47.5900 C   0  0  0  0  0  0  0  0  0  0  0  0
   62.5770   31.8470   48.5530 C   0  0  0  0  0  0  0  0  0  0  0  0
   63.7760   31.9820   49.2630 C   0  0  0  0  0  0  0  0  0  0  0  0
   64.5310   33.0840   48.8810 C   0  0  0  0  0  0  0  0  0  0  0  0
   63.7100   33.8820   47.6500 S   0  0  0  0  0  0  0  0  0  0  0  0
   59.3820   34.7150   46.4000 C   0  0  0  0  0  0  0  0  0  0  0  0
   59.6900   35.7330   45.7220 O   0  0  0  0  0  0  0  0  0  0  0  0
   57.9650   34.2180   46.3540 C   0  0  0  0  0  0  0  0  0  0  0  0
   57.8760   33.0340   45.4320 C   0  0  0  0  0  0  0  0  0  0  0  0
   57.8940   31.7290   45.9550 C   0  0  0  0  0  0  0  0  0  0  0  0
   57.8360   30.6240   45.0990 C   0  0  0  0  0  0  0  0  0  0  0  0
   57.7640   30.8150   43.7190 C   0  0  0  0  0  0  0  0  0  0  0  0
   57.7600   32.1110   43.1880 C   0  0  0  0  0  0  0  0  0  0  0  0
   57.6740   32.3370   41.4550 Cl  0  0  0  0  0  0  0  0  0  0  0  0
   57.8270   33.2190   44.0390 C   0  0  0  0  0  0  0  0  0  0  0  0
   59.1450   32.3700   49.0100 C   0  0  0  0  0  0  0  0  0  0  0  0
   58.4610   31.4670   49.8300 C   0  0  0  0  0  0  0  0  0  0  0  0
   58.2218   29.7631   53.7654 H   0  0  0  0  0  0  0  0  0  0  0  0
   57.8140   28.7316   52.3525 H   0  0  0  0  0  0  0  0  0  0  0  0
   59.3290   29.6967   52.3525 H   0  0  0  0  0  0  0  0  0  0  0  0
   55.9620   30.9835   53.4217 H   0  0  0  0  0  0  0  0  0  0  0  0
   55.7712   31.9091   51.8941 H   0  0  0  0  0  0  0  0  0  0  0  0
   55.5685   30.1243   51.8941 H   0  0  0  0  0  0  0  0  0  0  0  0
   58.5995   33.2135   52.7718 H   0  0  0  0  0  0  0  0  0  0  0  0
   59.8242   34.8062   51.3063 H   0  0  0  0  0  0  0  0  0  0  0  0
   60.0977   35.5326   48.7982 H   0  0  0  0  0  0  0  0  0  0  0  0
   61.5174   34.4423   48.9966 H   0  0  0  0  0  0  0  0  0  0  0  0
   60.5932   32.0822   46.7458 H   0  0  0  0  0  0  0  0  0  0  0  0
   61.4939   33.2458   45.7102 H   0  0  0  0  0  0  0  0  0  0  0  0
   61.8497   31.0431   48.7396 H   0  0  0  0  0  0  0  0  0  0  0  0
   64.0910   31.2809   50.0500 H   0  0  0  0  0  0  0  0  0  0  0  0
   65.4988   33.3828   49.3100 H   0  0  0  0  0  0  0  0  0  0  0  0
   57.6486   33.9198   47.3644 H   0  0  0  0  0  0  0  0  0  0  0  0
   57.3084   35.0194   45.9842 H   0  0  0  0  0  0  0  0  0  0  0  0
   57.9540   31.5761   47.0427 H   0  0  0  0  0  0  0  0  0  0  0  0
   57.8472   29.6053   45.5138 H   0  0  0  0  0  0  0  0  0  0  0  0
   57.7103   29.9461   43.0466 H   0  0  0  0  0  0  0  0  0  0  0  0
   57.8414   34.2353   43.6184 H   0  0  0  0  0  0  0  0  0  0  0  0
   59.2977   32.1337   47.9466 H   0  0  0  0  0  0  0  0  0  0  0  0
   58.0774   30.5284   49.4035 H   0  0  0  0  0  0  0  0  0  0  0  0
  1  2  1  0
  2  3  1  0
  2  4  1  0
  4  5  2  0
  5  6  1  0
  6  7  2  0
  7  8  1  0
  8  9  1  0
  9 10  1  0
 10 11  1  0
 11 12  2  0
 12 13  1  0
 13 14  2  0
 14 15  1  0
  9 16  1  0
 16 17  2  0
 16 18  1  0
 18 19  1  0
 19 20  2  0
 20 21  1  0
 21 22  2  0
 22 23  1  0
 23 24  1  0
 23 25  2  0
  7 26  1  0
 26 27  2  0
 27  4  1  0
 15 11  1  0
 25 19  1  0
  1 28  1  0
  1 29  1  0
  1 30  1  0
  3 31  1  0
  3 32  1  0
  3 33  1  0
  5 34  1  0
  6 35  1  0
  8 36  1  0
  8 37  1  0
 10 38  1  0
 10 39  1  0
 12 40  1  0
 13 41  1  0
 14 42  1  0
 18 43  1  0
 18 44  1  0
 20 45  1  0
 21 46  1  0
 22 47  1  0
 25 48  1  0
 26 49  1  0
 27 50  1  0
M  END
>  <UniqueID>  (5) 
5

>  <SMILES>  (5) 
CN(C)c1ccc(CN(Cc2cccs2)C(=O)Cc2cccc(Cl)c2)cc1

>  <Energy>  (5) 
72.90178937081949

>  <Genealogy>  (5) 
CN(C)c1ccc(CN(Cc2cccs2)C(=O)Cc2cccc(Cl)c2)cc1 (3D coordinates assigned)
CN(C)c1ccc(CN(Cc2cccs2)C(=O)Cc2cccc(Cl)c2)cc1 (optimized conformer: 72.90178937081949 kcal/mol)

>  <smiles>  (5) 
CN(C)c1ccc(CN(Cc2cccs2)C(=O)Cc2cccc(Cl)c2)cc1

>  <score_type>  (5) 
oracle

>  <origin>  (5) 
adg

>  <m_score__min__energy>  (5) 
-8.0099999999999998

>  <m_primary>  (5) 
energy

$$$$
5:0
     RDKit          3D

 41 43  0  0  0  0  0  0  0  0999 V2000
   57.4390   21.5540   45.8740 C   0  0  0  0  0  0  0  0  0  0  0  0
   57.4230   22.6500   46.7830 O   0  0  0  0  0  0  0  0  0  0  0  0
   57.4010   23.9970   46.3960 C   0  0  0  0  0  0  0  0  0  0  0  0
   58.1260   24.3760   45.2620 C   0  0  0  0  0  0  0  0  0  0  0  0
   58.1460   25.7090   44.8420 C   0  0  0  0  0  0  0  0  0  0  0  0
   57.4380   26.6920   45.5530 C   0  0  0  0  0  0  0  0  0  0  0  0
   57.4810   28.0990   45.0900 C   0  0  0  0  0  0  0  0  0  0  0  0
   57.1190   28.5260   43.8590 N   0  0  0  0  0  0  0  0  0  0  0  0
   57.3120   29.8560   43.8840 C   0  0  0  0  0  0  0  0  0  0  0  0
   57.0300   30.7190   42.7660 C   0  0  0  0  0  0  0  0  0  0  0  0
   56.8080   31.4130   41.8650 N   0  0  0  0  0  0  0  0  0  0  0  0
   57.7870   30.2000   45.1420 C   0  0  0  0  0  0  0  0  0  0  0  0
   58.1340   31.5050   45.6530 N   0  0  0  0  0  0  0  0  0  0  0  0
   57.2960   32.6550   45.2930 C   0  0  0  0  0  0  0  0  0  0  0  0
   58.1420   33.9310   45.1030 C   0  0  0  0  0  0  0  0  0  0  0  0
   59.3510   33.9920   45.9650 N   0  0  0  0  0  0  0  0  0  0  0  0
   59.6350   35.3770   46.3660 C   0  0  0  0  0  0  0  0  0  0  0  0
   59.2540   33.1240   47.1490 C   0  0  0  0  0  0  0  0  0  0  0  0
   59.1620   31.6680   46.6900 C   0  0  0  0  0  0  0  0  0  0  0  0
   57.8770   29.0970   45.8510 O   0  0  0  0  0  0  0  0  0  0  0  0
   56.7000   26.3120   46.6880 C   0  0  0  0  0  0  0  0  0  0  0  0
   56.6820   24.9750   47.1090 C   0  0  0  0  0  0  0  0  0  0  0  0
   57.4528   20.6098   46.4382 H   0  0  0  0  0  0  0  0  0  0  0  0
   56.5402   21.5897   45.2408 H   0  0  0  0  0  0  0  0  0  0  0  0
   58.3363   21.6159   45.2408 H   0  0  0  0  0  0  0  0  0  0  0  0
   58.6860   23.6178   44.6950 H   0  0  0  0  0  0  0  0  0  0  0  0
   58.7208   25.9905   43.9474 H   0  0  0  0  0  0  0  0  0  0  0  0
   56.7490   27.9670   43.0590 H   0  0  0  0  0  0  0  0  0  0  0  0
   56.7678   32.4328   44.3541 H   0  0  0  0  0  0  0  0  0  0  0  0
   56.5817   32.8320   46.1106 H   0  0  0  0  0  0  0  0  0  0  0  0
   58.4642   33.9784   44.0523 H   0  0  0  0  0  0  0  0  0  0  0  0
   57.5043   34.7798   45.3909 H   0  0  0  0  0  0  0  0  0  0  0  0
   59.6490   35.4453   47.4638 H   0  0  0  0  0  0  0  0  0  0  0  0
   60.6141   35.6808   45.9672 H   0  0  0  0  0  0  0  0  0  0  0  0
   58.8544   36.0416   45.9672 H   0  0  0  0  0  0  0  0  0  0  0  0
   60.1463   33.2570   47.7784 H   0  0  0  0  0  0  0  0  0  0  0  0
   58.3595   33.3880   47.7322 H   0  0  0  0  0  0  0  0  0  0  0  0
   60.1355   31.3573   46.2829 H   0  0  0  0  0  0  0  0  0  0  0  0
   58.8884   31.0454   47.5546 H   0  0  0  0  0  0  0  0  0  0  0  0
   56.1329   27.0691   47.2494 H   0  0  0  0  0  0  0  0  0  0  0  0
   56.1038   24.6889   48.0000 H   0  0  0  0  0  0  0  0  0  0  0  0
  1  2  1  0
  2  3  1  0
  3  4  2  0
  4  5  1  0
  5  6  2  0
  6  7  1  0
  7  8  2  0
  8  9  1  0
  9 10  1  0
 10 11  3  0
  9 12  2  0
 12 13  1  0
 13 14  1  0
 14 15  1  0
 15 16  1  0
 16 17  1  0
 16 18  1  0
 18 19  1  0
 12 20  1  0
  6 21  1  0
 21 22  2  0
 22  3  1  0
 20  7  1  0
 19 13  1  0
  1 23  1  0
  1 24  1  0
  1 25  1  0
  4 26  1  0
  5 27  1  0
  8 28  1  0
 14 29  1  0
 14 30  1  0
 15 31  1  0
 15 32  1  0
 17 33  1  0
 17 34  1  0
 17 35  1  0
 18 36  1  0
 18 37  1  0
 19 38  1  0
 19 39  1  0
 21 40  1  0
 22 41  1  0
M  CHG  1   8   1
M  END
>  <UniqueID>  (6) 
6

>  <SMILES>  (6) 
COc1ccc(-c2[nH+]c(C#N)c(N3CCN(C)CC3)o2)cc1

>  <Energy>  (6) 
80.62682881030705

>  <Genealogy>  (6) 
COc1ccc(-c2[nH+]c(C#N)c(N3CCN(C)CC3)o2)cc1 (protonated)
COc1ccc(-c2[nH+]c(C#N)c(N3CCN(C)CC3)o2)cc1 (3D coordinates assigned)
COc1ccc(-c2[nH+]c(C#N)c(N3CCN(C)CC3)o2)cc1 (nonaromatic ring conformer: 80.62682881030705 kcal/mol)

>  <smiles>  (6) 
COc1ccc(-c2nc(C#N)c(N3CCN(C)CC3)o2)cc1

>  <score_type>  (6) 
oracle

>  <origin>  (6) 
adg

>  <m_score__min__energy>  (6) 
-5

>  <m_primary>  (6) 
energy

$$$$
6:0
     RDKit          3D

 55 59  0  0  0  0  0  0  0  0999 V2000
   57.7890   32.8350   47.7430 C   0  0  0  0  0  0  0  0  0  0  0  0
   58.3370   33.2760   46.5030 O   0  0  0  0  0  0  0  0  0  0  0  0
   58.1370   32.6290   45.2750 C   0  0  0  0  0  0  0  0  0  0  0  0
   58.3140   33.3640   44.1000 C   0  0  0  0  0  0  0  0  0  0  0  0
   58.1380   32.7430   42.8630 C   0  0  0  0  0  0  0  0  0  0  0  0
   57.7930   31.4300   42.8010 N   0  0  0  0  0  0  0  0  0  0  0  0
   57.6100   30.6800   43.9230 C   0  0  0  0  0  0  0  0  0  0  0  0
   57.2650   29.2250   43.7890 C   0  0  0  0  0  0  0  0  0  0  0  0
   56.2890   28.8250   44.8590 C   0  0  0  0  0  0  0  0  0  0  0  0
   55.1430   29.3480   44.8730 O   0  0  0  0  0  0  0  0  0  0  0  0
   56.5810   27.7740   45.7900 N   0  0  0  0  0  0  0  0  0  0  0  0
   57.8860   27.4770   46.2910 C   0  0  0  0  0  0  0  0  0  0  0  0
   58.5700   26.3560   45.8170 C   0  0  0  0  0  0  0  0  0  0  0  0
   59.7990   26.0470   46.3090 N   0  0  0  0  0  0  0  0  0  0  0  0
   60.3890   26.7940   47.2780 C   0  0  0  0  0  0  0  0  0  0  0  0
   59.7360   27.9200   47.8080 C   0  0  0  0  0  0  0  0  0  0  0  0
   60.3300   28.6480   48.9570 C   0  0  0  0  0  0  0  0  0  0  0  0
   60.5220   28.0310   50.0420 O   0  0  0  0  0  0  0  0  0  0  0  0
   60.6550   30.0850   48.9100 C   0  0  0  0  0  0  0  0  0  0  0  0
   61.4920   30.6990   47.9810 C   0  0  0  0  0  0  0  0  0  0  0  0
   61.5120   32.0400   48.1770 N   0  0  0  0  0  0  0  0  0  0  0  0
   62.1680   33.0320   47.3250 C   0  0  0  0  0  0  0  0  0  0  0  0
   61.2940   33.8260   46.3470 C   0  0  0  0  0  0  0  0  0  0  0  0
   60.4720   34.7210   47.0480 O   0  0  0  0  0  0  0  0  0  0  0  0
   63.3460   33.7490   47.9680 C   0  0  0  0  0  0  0  0  0  0  0  0
   63.5880   32.6820   46.9030 C   0  0  0  0  0  0  0  0  0  0  0  0
   60.6630   32.2760   49.1930 C   0  0  0  0  0  0  0  0  0  0  0  0
   60.2920   33.4890   49.6690 N   0  0  0  0  0  0  0  0  0  0  0  0
   59.3510   33.5380   50.6590 C   0  0  0  0  0  0  0  0  0  0  0  0
   58.7780   32.3860   51.1300 N   0  0  0  0  0  0  0  0  0  0  0  0
   59.1370   31.1640   50.6420 C   0  0  0  0  0  0  0  0  0  0  0  0
   60.1210   31.1170   49.6630 C   0  0  0  0  0  0  0  0  0  0  0  0
   58.4700   28.2600   47.2940 C   0  0  0  0  0  0  0  0  0  0  0  0
   57.7750   31.2720   45.1840 C   0  0  0  0  0  0  0  0  0  0  0  0
   58.3508   33.2871   48.5736 H   0  0  0  0  0  0  0  0  0  0  0  0
   56.7336   33.1385   47.8061 H   0  0  0  0  0  0  0  0  0  0  0  0
   57.8598   31.7391   47.8061 H   0  0  0  0  0  0  0  0  0  0  0  0
   58.5908   34.4274   44.1499 H   0  0  0  0  0  0  0  0  0  0  0  0
   58.2789   33.3176   41.9357 H   0  0  0  0  0  0  0  0  0  0  0  0
   56.8149   29.0473   42.8012 H   0  0  0  0  0  0  0  0  0  0  0  0
   58.1816   28.6264   43.8958 H   0  0  0  0  0  0  0  0  0  0  0  0
   58.1133   25.7212   45.0434 H   0  0  0  0  0  0  0  0  0  0  0  0
   61.3857   26.5154   47.6508 H   0  0  0  0  0  0  0  0  0  0  0  0
   62.0568   30.1703   47.1990 H   0  0  0  0  0  0  0  0  0  0  0  0
   61.9400   34.3897   45.6578 H   0  0  0  0  0  0  0  0  0  0  0  0
   60.6616   33.1259   45.7814 H   0  0  0  0  0  0  0  0  0  0  0  0
   59.9120   34.1740   47.6580 H   0  0  0  0  0  0  0  0  0  0  0  0
   63.5370   34.8079   47.7394 H   0  0  0  0  0  0  0  0  0  0  0  0
   63.6897   33.9103   49.0004 H   0  0  0  0  0  0  0  0  0  0  0  0
   63.9533   32.9717   45.9067 H   0  0  0  0  0  0  0  0  0  0  0  0
   64.1782   31.7553   46.8494 H   0  0  0  0  0  0  0  0  0  0  0  0
   59.0516   34.5089   51.0805 H   0  0  0  0  0  0  0  0  0  0  0  0
   58.6617   30.2438   51.0125 H   0  0  0  0  0  0  0  0  0  0  0  0
   57.9390   29.1422   47.6811 H   0  0  0  0  0  0  0  0  0  0  0  0
   57.6222   30.6784   46.0974 H   0  0  0  0  0  0  0  0  0  0  0  0
  1  2  1  0
  2  3  1  0
  3  4  2  0
  4  5  1  0
  5  6  2  0
  6  7  1  0
  7  8  1  0
  8  9  1  0
  9 10  2  0
  9 11  1  0
 11 12  1  0
 12 13  2  0
 13 14  1  0
 14 15  2  0
 15 16  1  0
 16 17  1  0
 17 18  2  0
 17 19  1  0
 19 20  2  0
 20 21  1  0
 21 22  1  0
 22 23  1  0
 23 24  1  0
 22 25  1  0
 25 26  1  0
 21 27  1  0
 27 28  2  0
 28 29  1  0
 29 30  2  0
 30 31  1  0
 31 32  2  0
 16 33  2  0
  7 34  2  0
 34  3  1  0
 33 12  1  0
 32 19  1  0
 26 22  1  0
 32 27  1  0
  1 35  1  0
  1 36  1  0
  1 37  1  0
  4 38  1  0
  5 39  1  0
  8 40  1  0
  8 41  1  0
 13 42  1  0
 15 43  1  0
 20 44  1  0
 23 45  1  0
 23 46  1  0
 24 47  1  0
 25 48  1  0
 25 49  1  0
 26 50  1  0
 26 51  1  0
 29 52  1  0
 31 53  1  0
 33 54  1  0
 34 55  1  0
M  CHG  1  11  -1
M  END
>  <UniqueID>  (7) 
7

>  <SMILES>  (7) 
COc1ccnc(CC(=O)[N-]c2cncc(C(=O)c3cn(C4(CO)CC4)c4ncncc34)c2)c1

>  <Energy>  (7) 
371.4078679517584

>  <Genealogy>  (7) 
COc1ccnc(CC(=O)[N-]c2cncc(C(=O)c3cn(C4(CO)CC4)c4ncncc34)c2)c1 (protonated)
COc1ccnc(CC(=O)[N-]c2cncc(C(=O)c3cn(C4(CO)CC4)c4ncncc34)c2)c1 (3D coordinates assigned)
COc1ccnc(CC(=O)[N-]c2cncc(C(=O)c3cn(C4(CO)CC4)c4ncncc34)c2)c1 (nonaromatic ring conformer: 371.4078679517584 kcal/mol)

>  <smiles>  (7) 
COc1ccnc(CC(=O)Nc2cncc(C(=O)c3cn(C4(CO)CC4)c4ncncc34)c2)c1

>  <score_type>  (7) 
oracle

>  <origin>  (7) 
adg

>  <m_score__min__energy>  (7) 
-10.57

>  <m_primary>  (7) 
energy

$$$$
7:0
     RDKit          3D

 43 46  0  0  0  0  0  0  0  0999 V2000
   56.6480   31.1750   42.3760 O   0  0  0  0  0  0  0  0  0  0  0  0
   56.9170   30.8410   43.8170 S   0  0  0  0  0  0  0  0  0  0  0  0
   55.6150   30.5070   44.4880 O   0  0  0  0  0  0  0  0  0  0  0  0
   57.9710   29.4700   43.9170 N   0  0  0  0  0  0  0  0  0  0  0  0
   58.6150   29.1190   45.1440 C   0  0  0  0  0  0  0  0  0  0  0  0
   59.5680   29.9920   45.6680 C   0  0  0  0  0  0  0  0  0  0  0  0
   60.2700   29.6670   46.8280 C   0  0  0  0  0  0  0  0  0  0  0  0
   61.4740   30.8330   47.4750 S   0  0  0  0  0  0  0  0  0  0  0  0
   60.3530   31.4490   48.7270 C   0  0  0  0  0  0  0  0  0  0  0  0
   60.2080   32.8260   48.9250 C   0  0  0  0  0  0  0  0  0  0  0  0
   59.3050   33.2860   49.8850 C   0  0  0  0  0  0  0  0  0  0  0  0
   58.5750   32.3710   50.6460 C   0  0  0  0  0  0  0  0  0  0  0  0
   58.7530   31.0030   50.4250 C   0  0  0  0  0  0  0  0  0  0  0  0
   59.6250   30.5740   49.4740 N   0  0  0  0  0  0  0  0  0  0  0  0
   60.0320   28.4520   47.4910 C   0  0  0  0  0  0  0  0  0  0  0  0
   60.7810   28.1870   48.6430 O   0  0  0  0  0  0  0  0  0  0  0  0
   59.0540   27.5550   46.9830 C   0  0  0  0  0  0  0  0  0  0  0  0
   58.7690   26.3210   47.6080 C   0  0  0  0  0  0  0  0  0  0  0  0
   57.7890   25.4700   47.0950 C   0  0  0  0  0  0  0  0  0  0  0  0
   57.0700   25.8290   45.9580 C   0  0  0  0  0  0  0  0  0  0  0  0
   57.3320   27.0390   45.3190 C   0  0  0  0  0  0  0  0  0  0  0  0
   58.3300   27.9070   45.8070 C   0  0  0  0  0  0  0  0  0  0  0  0
   57.6480   32.2330   44.6160 C   0  0  0  0  0  0  0  0  0  0  0  0
   58.4680   33.1160   43.8990 C   0  0  0  0  0  0  0  0  0  0  0  0
   59.0400   34.2200   44.5400 C   0  0  0  0  0  0  0  0  0  0  0  0
   58.7770   34.4590   45.8920 C   0  0  0  0  0  0  0  0  0  0  0  0
   57.9540   33.5870   46.6090 C   0  0  0  0  0  0  0  0  0  0  0  0
   57.3960   32.4720   45.9750 C   0  0  0  0  0  0  0  0  0  0  0  0
   59.7680   30.9473   45.1607 H   0  0  0  0  0  0  0  0  0  0  0  0
   60.7990   33.5385   48.3308 H   0  0  0  0  0  0  0  0  0  0  0  0
   59.1690   34.3663   50.0415 H   0  0  0  0  0  0  0  0  0  0  0  0
   57.8675   32.7233   51.4111 H   0  0  0  0  0  0  0  0  0  0  0  0
   58.1870   30.2721   51.0211 H   0  0  0  0  0  0  0  0  0  0  0  0
   60.9250   28.8350   49.4030 H   0  0  0  0  0  0  0  0  0  0  0  0
   59.3261   26.0271   48.5098 H   0  0  0  0  0  0  0  0  0  0  0  0
   57.5835   24.5103   47.5917 H   0  0  0  0  0  0  0  0  0  0  0  0
   56.2940   25.1564   45.5637 H   0  0  0  0  0  0  0  0  0  0  0  0
   56.7549   27.3196   44.4256 H   0  0  0  0  0  0  0  0  0  0  0  0
   58.6618   32.9403   42.8306 H   0  0  0  0  0  0  0  0  0  0  0  0
   59.6975   34.9009   43.9795 H   0  0  0  0  0  0  0  0  0  0  0  0
   59.2183   35.3341   46.3916 H   0  0  0  0  0  0  0  0  0  0  0  0
   57.7448   33.7773   47.6720 H   0  0  0  0  0  0  0  0  0  0  0  0
   56.7575   31.7803   46.5440 H   0  0  0  0  0  0  0  0  0  0  0  0
  1  2  2  0
  2  3  2  0
  2  4  1  0
  4  5  1  0
  5  6  2  0
  6  7  1  0
  7  8  1  0
  8  9  1  0
  9 10  2  0
 10 11  1  0
 11 12  2  0
 12 13  1  0
 13 14  2  0
  7 15  2  0
 15 16  1  0
 15 17  1  0
 17 18  2  0
 18 19  1  0
 19 20  2  0
 20 21  1  0
 21 22  2  0
  2 23  1  0
 23 24  2  0
 24 25  1  0
 25 26  2  0
 26 27  1  0
 27 28  2  0
 22  5  1  0
 28 23  1  0
 14  9  1  0
 22 17  1  0
  6 29  1  0
 10 30  1  0
 11 31  1  0
 12 32  1  0
 13 33  1  0
 16 34  1  0
 18 35  1  0
 19 36  1  0
 20 37  1  0
 21 38  1  0
 24 39  1  0
 25 40  1  0
 26 41  1  0
 27 42  1  0
 28 43  1  0
M  CHG  1   4  -1
M  END
>  <UniqueID>  (8) 
8

>  <SMILES>  (8) 
O=S(=O)([N-]c1cc(Sc2ccccn2)c(O)c2ccccc12)c1ccccc1

>  <Energy>  (8) 
57.969771391847125

>  <Genealogy>  (8) 
O=S(=O)([N-]c1cc(Sc2ccccn2)c(O)c2ccccc12)c1ccccc1 (protonated)
O=S(=O)([N-]c1cc(Sc2ccccn2)c(O)c2ccccc12)c1ccccc1 (3D coordinates assigned)
O=S(=O)([N-]c1cc(Sc2ccccn2)c(O)c2ccccc12)c1ccccc1 (optimized conformer: 57.969771391847125 kcal/mol)

>  <smiles>  (8) 
O=S(=O)(Nc1cc(Sc2ccccn2)c(O)c2ccccc12)c1ccccc1

>  <score_type>  (8) 
oracle

>  <origin>  (8) 
adg

>  <m_score__min__energy>  (8) 
-10.32

>  <m_primary>  (8) 
energy

$$$$
8:0
     RDKit          3D

 50 52  0  0  0  0  0  0  0  0999 V2000
   64.6050   33.0810   49.2770 C   0  0  0  0  0  0  0  0  0  0  0  0
   64.0330   32.3010   48.2320 O   0  0  0  0  0  0  0  0  0  0  0  0
   62.7060   32.4200   47.7890 C   0  0  0  0  0  0  0  0  0  0  0  0
   61.6750   31.5880   48.2660 C   0  0  0  0  0  0  0  0  0  0  0  0
   60.3680   31.7440   47.7940 C   0  0  0  0  0  0  0  0  0  0  0  0
   60.0700   32.7280   46.8400 C   0  0  0  0  0  0  0  0  0  0  0  0
   58.7230   32.8890   46.3520 N   0  0  0  0  0  0  0  0  0  0  0  0
   58.0820   34.2060   46.4280 C   0  0  0  0  0  0  0  0  0  0  0  0
   57.9810   31.7730   45.8120 C   0  0  0  0  0  0  0  0  0  0  0  0
   58.2200   30.4580   46.2460 C   0  0  0  0  0  0  0  0  0  0  0  0
   57.4640   29.4120   45.6970 C   0  0  0  0  0  0  0  0  0  0  0  0
   57.6850   28.0100   46.1110 C   0  0  0  0  0  0  0  0  0  0  0  0
   58.2130   27.7620   47.2300 O   0  0  0  0  0  0  0  0  0  0  0  0
   57.2730   26.9290   45.2610 N   0  0  0  0  0  0  0  0  0  0  0  0
   57.6820   25.5710   45.4730 C   0  0  0  0  0  0  0  0  0  0  0  0
   58.9500   25.0990   45.7830 C   0  0  0  0  0  0  0  0  0  0  0  0
   60.1850   25.9030   46.0390 C   0  0  0  0  0  0  0  0  0  0  0  0
   58.9310   23.7510   45.7840 N   0  0  0  0  0  0  0  0  0  0  0  0
   57.7060   23.3610   45.4570 N   0  0  0  0  0  0  0  0  0  0  0  0
   57.3140   21.9570   45.3670 C   0  0  0  0  0  0  0  0  0  0  0  0
   56.7470   21.6800   44.0440 C   0  0  0  0  0  0  0  0  0  0  0  0
   56.3010   21.4620   42.9980 N   0  0  0  0  0  0  0  0  0  0  0  0
   56.9170   24.4420   45.2630 C   0  0  0  0  0  0  0  0  0  0  0  0
   55.4840   24.4040   44.8240 C   0  0  0  0  0  0  0  0  0  0  0  0
   56.5150   29.6970   44.7650 N   0  0  0  0  0  0  0  0  0  0  0  0
   56.2840   30.9720   44.3620 C   0  0  0  0  0  0  0  0  0  0  0  0
   57.0090   31.9930   44.8840 N   0  0  0  0  0  0  0  0  0  0  0  0
   61.0980   33.5590   46.3680 C   0  0  0  0  0  0  0  0  0  0  0  0
   62.4060   33.4050   46.8380 C   0  0  0  0  0  0  0  0  0  0  0  0
   63.3860   34.2160   46.3690 F   0  0  0  0  0  0  0  0  0  0  0  0
   64.3022   32.6681   50.2506 H   0  0  0  0  0  0  0  0  0  0  0  0
   65.7016   33.0576   49.1939 H   0  0  0  0  0  0  0  0  0  0  0  0
   64.2531   34.1199   49.1939 H   0  0  0  0  0  0  0  0  0  0  0  0
   61.8986   30.8121   49.0130 H   0  0  0  0  0  0  0  0  0  0  0  0
   59.5684   31.0908   48.1734 H   0  0  0  0  0  0  0  0  0  0  0  0
   57.9453   34.4869   47.4827 H   0  0  0  0  0  0  0  0  0  0  0  0
   58.7176   34.9525   45.9292 H   0  0  0  0  0  0  0  0  0  0  0  0
   57.1024   34.1664   45.9292 H   0  0  0  0  0  0  0  0  0  0  0  0
   58.9888   30.2520   47.0053 H   0  0  0  0  0  0  0  0  0  0  0  0
   56.5510   27.1120   44.5290 H   0  0  0  0  0  0  0  0  0  0  0  0
   60.3390   26.0033   47.1235 H   0  0  0  0  0  0  0  0  0  0  0  0
   61.0521   25.3958   45.5909 H   0  0  0  0  0  0  0  0  0  0  0  0
   60.0721   26.9012   45.5909 H   0  0  0  0  0  0  0  0  0  0  0  0
   58.1974   21.3210   45.5254 H   0  0  0  0  0  0  0  0  0  0  0  0
   56.5579   21.7426   46.1366 H   0  0  0  0  0  0  0  0  0  0  0  0
   54.8300   24.3867   45.7083 H   0  0  0  0  0  0  0  0  0  0  0  0
   55.2615   25.2966   44.2208 H   0  0  0  0  0  0  0  0  0  0  0  0
   55.3091   23.5009   44.2208 H   0  0  0  0  0  0  0  0  0  0  0  0
   55.5075   31.1781   43.6107 H   0  0  0  0  0  0  0  0  0  0  0  0
   60.8732   34.3367   45.6233 H   0  0  0  0  0  0  0  0  0  0  0  0
  1  2  1  0
  2  3  1  0
  3  4  2  0
  4  5  1  0
  5  6  2  0
  6  7  1  0
  7  8  1  0
  7  9  1  0
  9 10  2  0
 10 11  1  0
 11 12  1  0
 12 13  2  0
 12 14  1  0
 14 15  1  0
 15 16  1  0
 16 17  1  0
 16 18  2  0
 18 19  1  0
 19 20  1  0
 20 21  1  0
 21 22  3  0
 19 23  1  0
 23 24  1  0
 11 25  2  0
 25 26  1  0
 26 27  2  0
  6 28  1  0
 28 29  2  0
 29 30  1  0
 29  3  1  0
 27  9  1  0
 23 15  2  0
  1 31  1  0
  1 32  1  0
  1 33  1  0
  4 34  1  0
  5 35  1  0
  8 36  1  0
  8 37  1  0
  8 38  1  0
 10 39  1  0
 14 40  1  0
 17 41  1  0
 17 42  1  0
 17 43  1  0
 20 44  1  0
 20 45  1  0
 24 46  1  0
 24 47  1  0
 24 48  1  0
 26 49  1  0
 28 50  1  0
M  END
>  <UniqueID>  (9) 
9

>  <SMILES>  (9) 
COc1ccc(N(C)c2cc(C(=O)Nc3c(C)nn(CC#N)c3C)ncn2)cc1F

>  <Energy>  (9) 
91.40173878595932

>  <Genealogy>  (9) 
COc1ccc(N(C)c2cc(C(=O)Nc3c(C)nn(CC#N)c3C)ncn2)cc1F (3D coordinates assigned)
COc1ccc(N(C)c2cc(C(=O)Nc3c(C)nn(CC#N)c3C)ncn2)cc1F (optimized conformer: 91.40173878595932 kcal/mol)

>  <smiles>  (9) 
COc1ccc(N(C)c2cc(C(=O)Nc3c(C)nn(CC#N)c3C)ncn2)cc1F

>  <score_type>  (9) 
oracle

>  <origin>  (9) 
adg

>  <m_score__min__energy>  (9) 
-7.8099999999999996

>  <m_primary>  (9) 
energy

$$$$
9:0
     RDKit          3D

 43 45  0  0  0  0  0  0  0  0999 V2000
   59.5000   34.8890   46.0030 C   0  0  0  0  0  0  0  0  0  0  0  0
   60.1460   33.6320   46.1700 O   0  0  0  0  0  0  0  0  0  0  0  0
   61.3120   33.4310   46.9240 C   0  0  0  0  0  0  0  0  0  0  0  0
   62.5910   33.7530   46.4260 C   0  0  0  0  0  0  0  0  0  0  0  0
   63.7280   33.5370   47.2070 C   0  0  0  0  0  0  0  0  0  0  0  0
   63.6040   33.0020   48.4900 C   0  0  0  0  0  0  0  0  0  0  0  0
   62.3440   32.6800   48.9960 C   0  0  0  0  0  0  0  0  0  0  0  0
   61.1880   32.8910   48.2160 C   0  0  0  0  0  0  0  0  0  0  0  0
   59.9000   32.5780   48.6840 O   0  0  0  0  0  0  0  0  0  0  0  0
   59.3850   31.2590   48.8650 C   0  0  0  0  0  0  0  0  0  0  0  0
   59.3760   30.5150   47.5670 C   0  0  0  0  0  0  0  0  0  0  0  0
   59.4640   31.0890   46.3560 N   0  0  0  0  0  0  0  0  0  0  0  0
   59.4530   30.1220   45.4550 N   0  0  0  0  0  0  0  0  0  0  0  0
   59.3600   28.9800   46.1630 C   0  0  0  0  0  0  0  0  0  0  0  0
   59.3220   27.3480   45.4310 S   0  0  0  0  0  0  0  0  0  0  0  0
   57.7930   27.6530   44.4830 C   0  0  0  0  0  0  0  0  0  0  0  0
   56.6330   27.8700   45.4140 C   0  0  0  0  0  0  0  0  0  0  0  0
   56.4730   27.0740   46.3770 O   0  0  0  0  0  0  0  0  0  0  0  0
   55.6830   28.9310   45.2360 N   0  0  0  0  0  0  0  0  0  0  0  0
   55.4940   29.7240   44.0250 C   0  0  0  0  0  0  0  0  0  0  0  0
   56.4650   30.8620   43.9860 C   0  0  0  0  0  0  0  0  0  0  0  0
   57.2650   31.2050   42.9150 C   0  0  0  0  0  0  0  0  0  0  0  0
   57.9880   32.3020   43.3310 C   0  0  0  0  0  0  0  0  0  0  0  0
   57.5870   32.5560   44.6270 C   0  0  0  0  0  0  0  0  0  0  0  0
   56.6800   31.6800   44.9900 O   0  0  0  0  0  0  0  0  0  0  0  0
   59.3130   29.2100   47.4570 O   0  0  0  0  0  0  0  0  0  0  0  0
   59.2779   35.3211   46.9899 H   0  0  0  0  0  0  0  0  0  0  0  0
   60.1602   35.5693   45.4450 H   0  0  0  0  0  0  0  0  0  0  0  0
   58.5625   34.7482   45.4450 H   0  0  0  0  0  0  0  0  0  0  0  0
   62.6938   34.1769   45.4162 H   0  0  0  0  0  0  0  0  0  0  0  0
   64.7227   33.7888   46.8106 H   0  0  0  0  0  0  0  0  0  0  0  0
   64.5013   32.8338   49.1036 H   0  0  0  0  0  0  0  0  0  0  0  0
   62.2519   32.2595   50.0083 H   0  0  0  0  0  0  0  0  0  0  0  0
   60.0167   30.7200   49.5864 H   0  0  0  0  0  0  0  0  0  0  0  0
   58.3536   31.3293   49.2409 H   0  0  0  0  0  0  0  0  0  0  0  0
   59.5350   32.1090   46.1390 H   0  0  0  0  0  0  0  0  0  0  0  0
   57.9272   28.5473   43.8568 H   0  0  0  0  0  0  0  0  0  0  0  0
   57.5843   26.7769   43.8515 H   0  0  0  0  0  0  0  0  0  0  0  0
   55.6517   29.0835   43.1447 H   0  0  0  0  0  0  0  0  0  0  0  0
   54.4713   30.1291   44.0214 H   0  0  0  0  0  0  0  0  0  0  0  0
   57.3150   30.7074   41.9353 H   0  0  0  0  0  0  0  0  0  0  0  0
   58.7340   32.8620   42.7480 H   0  0  0  0  0  0  0  0  0  0  0  0
   57.9700   33.3700   45.2601 H   0  0  0  0  0  0  0  0  0  0  0  0
  1  2  1  0
  2  3  1  0
  3  4  2  0
  4  5  1  0
  5  6  2  0
  6  7  1  0
  7  8  2  0
  8  9  1  0
  9 10  1  0
 10 11  1  0
 11 12  2  0
 12 13  1  0
 13 14  2  0
 14 15  1  0
 15 16  1  0
 16 17  1  0
 17 18  2  0
 17 19  1  0
 19 20  1  0
 20 21  1  0
 21 22  2  0
 22 23  1  0
 23 24  2  0
 24 25  1  0
 14 26  1  0
  8  3  1  0
 26 11  1  0
 25 21  1  0
  1 27  1  0
  1 28  1  0
  1 29  1  0
  4 30  1  0
  5 31  1  0
  6 32  1  0
  7 33  1  0
 10 34  1  0
 10 35  1  0
 12 36  1  0
 16 37  1  0
 16 38  1  0
 20 39  1  0
 20 40  1  0
 22 41  1  0
 23 42  1  0
 24 43  1  0
M  CHG  2  12   1  19  -1
M  END
>  <UniqueID>  (10) 
10

>  <SMILES>  (10) 
COc1ccccc1OCc1[nH+]nc(SCC(=O)[N-]Cc2ccco2)o1

>  <Energy>  (10) 
97.29035676074177

>  <Genealogy>  (10) 
COc1ccccc1OCc1[nH+]nc(SCC(=O)[N-]Cc2ccco2)o1 (protonated)
COc1ccccc1OCc1[nH+]nc(SCC(=O)[N-]Cc2ccco2)o1 (3D coordinates assigned)
COc1ccccc1OCc1[nH+]nc(SCC(=O)[N-]Cc2ccco2)o1 (optimized conformer: 97.29035676074177 kcal/mol)

>  <smiles>  (10) 
COc1ccccc1OCc1nnc(SCC(=O)NCc2ccco2)o1

>  <score_type>  (10) 
oracle

>  <origin>  (10) 
adg

>  <m_score__min__energy>  (10) 
-8.8000000000000007

>  <m_primary>  (10) 
energy

$$$$
10:0
     RDKit          3D

 55 58  0  0  1  0  0  0  0  0999 V2000
   56.6490   30.7340   42.8570 C   0  0  0  0  0  0  0  0  0  0  0  0
   57.0250   30.0320   44.1320 C   0  0  0  0  0  0  0  0  0  0  0  0
   56.2730   30.0700   45.1480 O   0  0  0  0  0  0  0  0  0  0  0  0
   58.2640   29.3340   44.1150 N   0  0  0  0  0  0  0  0  0  0  0  0
   58.7690   28.6170   45.2360 C   0  0  0  0  0  0  0  0  0  0  0  0
   58.5280   27.2470   45.3760 C   0  0  0  0  0  0  0  0  0  0  0  0
   59.0510   26.6150   46.4930 C   0  0  0  0  0  0  0  0  0  0  0  0
   59.7870   27.2920   47.4450 C   0  0  0  0  0  0  0  0  0  0  0  0
   60.0280   28.6640   47.3000 C   0  0  0  0  0  0  0  0  0  0  0  0
   60.7850   29.3780   48.2730 N   0  0  0  0  0  0  0  0  0  0  0  0
   60.2490   30.4200   48.7990 C   0  0  0  0  0  0  0  0  0  0  0  0
   60.0820   31.5880   48.1640 N   0  0  0  0  0  0  0  0  0  0  0  0
   59.5030   32.6210   48.8250 C   0  0  0  0  0  0  0  0  0  0  0  0
   59.3360   33.7650   48.2110 N   0  0  0  0  0  0  0  0  0  0  0  0
   58.7450   33.7060   46.9020 C   0  0  0  0  0  0  0  0  0  0  0  0
   57.3850   33.8490   46.8110 C   0  0  0  0  0  0  0  0  0  0  0  0
   56.7700   33.8010   45.5820 C   0  0  0  0  0  0  0  0  0  0  0  0
   57.5200   33.6090   44.4460 C   0  0  0  0  0  0  0  0  0  0  0  0
   58.8950   33.4660   44.5720 C   0  0  0  0  0  0  0  0  0  0  0  0
   59.5580   33.5070   45.7690 C   0  0  0  0  0  0  0  0  0  0  0  0
   60.8780   33.3790   45.9990 O   0  0  0  0  0  0  0  0  0  0  0  0
   61.8620   34.1650   46.5560 C   0  0  0  0  0  0  0  0  0  0  0  0
   62.5200   33.6810   47.7690 C   0  0  0  0  0  0  0  0  0  0  0  0
   62.4500   34.2260   49.0220 C   0  0  0  0  0  0  0  0  0  0  0  0
   63.1010   33.6950   50.1280 C   0  0  0  0  0  0  0  0  0  0  0  0
   63.8670   32.5500   49.9600 C   0  0  0  0  0  0  0  0  0  0  0  0
   63.9640   31.9660   48.7040 C   0  0  0  0  0  0  0  0  0  0  0  0
   63.3040   32.5250   47.6480 C   0  0  0  0  0  0  0  0  0  0  0  0
   59.0920   32.4920   50.1150 N   0  0  0  0  0  0  0  0  0  0  0  0
   59.2400   31.3340   50.7960 C   0  0  0  0  0  0  0  0  0  0  0  0
   59.8280   30.2870   50.1240 C   0  0  0  0  0  0  0  0  0  0  0  0
   60.0440   28.7480   50.9750 Cl  0  0  0  0  0  0  0  0  0  0  0  0
   59.5070   29.3190   46.1790 C   0  0  0  0  0  0  0  0  0  0  0  0
   56.1420   31.6806   43.0954 H   0  0  0  0  0  0  0  0  0  0  0  0
   57.5567   30.9416   42.2713 H   0  0  0  0  0  0  0  0  0  0  0  0
   55.9732   30.0935   42.2713 H   0  0  0  0  0  0  0  0  0  0  0  0
   58.8620   29.3230   43.2560 H   0  0  0  0  0  0  0  0  0  0  0  0
   57.9447   26.6912   44.6271 H   0  0  0  0  0  0  0  0  0  0  0  0
   58.8737   25.5375   46.6256 H   0  0  0  0  0  0  0  0  0  0  0  0
   60.1844   26.7534   48.3179 H   0  0  0  0  0  0  0  0  0  0  0  0
   60.3930   31.6870   47.1880 H   0  0  0  0  0  0  0  0  0  0  0  0
   56.7857   34.0021   47.7206 H   0  0  0  0  0  0  0  0  0  0  0  0
   55.6786   33.9162   45.5079 H   0  0  0  0  0  0  0  0  0  0  0  0
   57.0401   33.5695   43.4570 H   0  0  0  0  0  0  0  0  0  0  0  0
   59.4859   33.3108   43.6573 H   0  0  0  0  0  0  0  0  0  0  0  0
   62.6422   34.3028   45.7929 H   0  0  0  0  0  0  0  0  0  0  0  0
   61.3385   35.0792   46.8724 H   0  0  0  0  0  0  0  0  0  0  0  0
   61.8452   35.1342   49.1610 H   0  0  0  0  0  0  0  0  0  0  0  0
   63.0114   34.1715   51.1154 H   0  0  0  0  0  0  0  0  0  0  0  0
   64.3947   32.1073   50.8176 H   0  0  0  0  0  0  0  0  0  0  0  0
   64.5690   31.0585   48.5609 H   0  0  0  0  0  0  0  0  0  0  0  0
   63.3909   32.0484   46.6604 H   0  0  0  0  0  0  0  0  0  0  0  0
   58.6450   33.2860   50.6290 H   0  0  0  0  0  0  0  0  0  0  0  0
   58.9059   31.2331   51.8392 H   0  0  0  0  0  0  0  0  0  0  0  0
   59.6832   30.3964   46.0441 H   0  0  0  0  0  0  0  0  0  0  0  0
  1  2  1  0
  2  3  2  0
  2  4  1  0
  4  5  1  0
  5  6  2  0
  6  7  1  0
  7  8  2  0
  8  9  1  0
  9 10  1  0
 10 11  2  0
 11 12  1  0
 12 13  1  0
 13 14  2  0
 14 15  1  0
 15 16  2  0
 16 17  1  0
 17 18  2  0
 18 19  1  0
 19 20  2  0
 20 21  1  0
 21 22  1  0
 22 23  1  0
 23 24  2  0
 24 25  1  0
 25 26  2  0
 26 27  1  0
 27 28  2  0
 13 29  1  0
 29 30  1  0
 30 31  2  0
 31 32  1  0
  9 33  2  0
 33  5  1  0
 31 11  1  0
 20 15  1  0
 28 23  1  0
  1 34  1  0
  1 35  1  0
  1 36  1  0
  4 37  1  0
  6 38  1  0
  7 39  1  0
  8 40  1  0
 12 41  1  0
 16 42  1  0
 17 43  1  0
 18 44  1  0
 19 45  1  0
 22 46  1  0
 22 47  1  0
 24 48  1  0
 25 49  1  0
 26 50  1  0
 27 51  1  0
 28 52  1  0
 29 53  1  0
 30 54  1  0
 33 55  1  0
M  END
>  <smiles>  (11) 
CC(=O)Nc1cccc(N=c2[nH]c(=Nc3ccccc3OCc3ccccc3)[nH]cc2Cl)c1

>  <score_type>  (11) 
oracle

>  <origin>  (11) 
adg

>  <m_score__min__energy>  (11) 
-9.3399999999999999

>  <m_primary>  (11) 
energy

$$$$
11:0
     RDKit          3D

 37 39  0  0  0  0  0  0  0  0999 V2000
   57.0920   21.0880   43.0100 C   0  0  0  0  0  0  0  0  0  0  0  0
   55.8970   21.7520   43.3620 O   0  0  0  0  0  0  0  0  0  0  0  0
   55.9360   22.1620   44.7190 C   0  0  0  0  0  0  0  0  0  0  0  0
   57.4010   22.1160   45.2000 C   0  0  0  0  0  0  0  0  0  0  0  0
   58.1670   23.3980   44.8500 C   0  0  0  0  0  0  0  0  0  0  0  0
   57.4820   24.5900   45.3760 N   0  0  0  0  0  0  0  0  0  0  0  0
   58.2040   25.8280   45.5690 C   0  0  0  0  0  0  0  0  0  0  0  0
   59.5570   25.8280   45.9990 C   0  0  0  0  0  0  0  0  0  0  0  0
   60.2180   27.0520   46.1730 C   0  0  0  0  0  0  0  0  0  0  0  0
   59.5270   28.1860   45.9180 N   0  0  0  0  0  0  0  0  0  0  0  0
   59.9530   29.4340   46.0120 N   0  0  0  0  0  0  0  0  0  0  0  0
   58.9330   30.2500   45.6560 C   0  0  0  0  0  0  0  0  0  0  0  0
   57.8210   29.4750   45.3240 C   0  0  0  0  0  0  0  0  0  0  0  0
   56.5010   29.9460   44.8810 C   0  0  0  0  0  0  0  0  0  0  0  0
   55.3900   29.0520   44.8530 N   0  0  0  0  0  0  0  0  0  0  0  0
   56.3470   31.1440   44.5260 O   0  0  0  0  0  0  0  0  0  0  0  0
   58.2550   28.1780   45.5080 C   0  0  0  0  0  0  0  0  0  0  0  0
   57.5760   27.0200   45.3270 N   0  0  0  0  0  0  0  0  0  0  0  0
   56.0810   24.4870   45.8130 C   0  0  0  0  0  0  0  0  0  0  0  0
   55.3030   23.5710   44.8620 C   0  0  0  0  0  0  0  0  0  0  0  0
   57.6284   20.7899   43.9229 H   0  0  0  0  0  0  0  0  0  0  0  0
   56.8531   20.1932   42.4164 H   0  0  0  0  0  0  0  0  0  0  0  0
   57.7256   21.7634   42.4164 H   0  0  0  0  0  0  0  0  0  0  0  0
   55.3455   21.4851   45.3540 H   0  0  0  0  0  0  0  0  0  0  0  0
   57.4112   21.9844   46.2920 H   0  0  0  0  0  0  0  0  0  0  0  0
   57.8972   21.2768   44.6906 H   0  0  0  0  0  0  0  0  0  0  0  0
   59.1757   23.3430   45.2852 H   0  0  0  0  0  0  0  0  0  0  0  0
   58.2203   23.4829   43.7546 H   0  0  0  0  0  0  0  0  0  0  0  0
   60.0799   24.8799   46.1931 H   0  0  0  0  0  0  0  0  0  0  0  0
   61.2656   27.0887   46.5064 H   0  0  0  0  0  0  0  0  0  0  0  0
   60.9120   29.7250   46.3090 H   0  0  0  0  0  0  0  0  0  0  0  0
   58.9742   31.3490   45.6322 H   0  0  0  0  0  0  0  0  0  0  0  0
   55.5210   28.0280   45.0070 H   0  0  0  0  0  0  0  0  0  0  0  0
   56.0462   24.0703   46.8304 H   0  0  0  0  0  0  0  0  0  0  0  0
   55.6250   25.4880   45.8049 H   0  0  0  0  0  0  0  0  0  0  0  0
   54.2785   23.4570   45.2460 H   0  0  0  0  0  0  0  0  0  0  0  0
   55.3207   24.0405   43.8674 H   0  0  0  0  0  0  0  0  0  0  0  0
  1  2  1  0
  2  3  1  0
  3  4  1  0
  4  5  1  0
  5  6  1  0
  6  7  1  0
  7  8  1  0
  8  9  2  0
  9 10  1  0
 10 11  1  0
 11 12  2  0
 12 13  1  0
 13 14  1  0
 14 15  1  0
 14 16  2  0
 13 17  2  0
 17 18  1  0
  6 19  1  0
 19 20  1  0
 20  3  1  0
 18  7  2  0
 17 10  1  0
  1 21  1  0
  1 22  1  0
  1 23  1  0
  3 24  1  0
  4 25  1  0
  4 26  1  0
  5 27  1  0
  5 28  1  0
  8 29  1  0
  9 30  1  0
 11 31  1  0
 12 32  1  0
 15 33  1  0
 19 34  1  0
 19 35  1  0
 20 36  1  0
 20 37  1  0
M  CHG  2  11   1  15  -1
M  END
>  <UniqueID>  (12) 
11

>  <SMILES>  (12) 
COC1CCN(c2ccn3[nH+]cc(C([NH-])=O)c3n2)CC1

>  <Energy>  (12) 
81.04710961236336

>  <Genealogy>  (12) 
COC1CCN(c2ccn3[nH+]cc(C([NH-])=O)c3n2)CC1 (protonated)
COC1CCN(c2ccn3[nH+]cc(C([NH-])=O)c3n2)CC1 (3D coordinates assigned)
COC1CCN(c2ccn3[nH+]cc(C([NH-])=O)c3n2)CC1 (nonaromatic ring conformer: 81.04710961236336 kcal/mol)

>  <smiles>  (12) 
COC1CCN(c2ccn3ncc(C(N)=O)c3n2)CC1

>  <score_type>  (12) 
oracle

>  <origin>  (12) 
adg

>  <m_score__min__energy>  (12) 
-8.0899999999999999

>  <m_primary>  (12) 
energy

$$$$
12:0
     RDKit          3D

 35 37  0  0  0  0  0  0  0  0999 V2000
   56.6300   24.6870   44.5860 C   0  0  0  0  0  0  0  0  0  0  0  0
   56.0190   25.9300   45.7060 S   0  0  0  0  0  0  0  0  0  0  0  0
   54.5190   25.9460   45.6240 O   0  0  0  0  0  0  0  0  0  0  0  0
   56.4240   25.6080   47.1170 O   0  0  0  0  0  0  0  0  0  0  0  0
   56.6230   27.4940   45.2550 N   0  0  0  0  0  0  0  0  0  0  0  0
   57.5680   28.2470   46.0400 C   0  0  0  0  0  0  0  0  0  0  0  0
   58.3420   27.6250   47.0350 C   0  0  0  0  0  0  0  0  0  0  0  0
   59.2390   28.3630   47.8060 C   0  0  0  0  0  0  0  0  0  0  0  0
   59.3860   29.7340   47.5990 C   0  0  0  0  0  0  0  0  0  0  0  0
   58.6360   30.3890   46.6040 C   0  0  0  0  0  0  0  0  0  0  0  0
   58.7560   31.7810   46.3590 C   0  0  0  0  0  0  0  0  0  0  0  0
   59.7320   32.6360   47.0720 C   0  0  0  0  0  0  0  0  0  0  0  0
   59.3110   33.4830   48.1110 C   0  0  0  0  0  0  0  0  0  0  0  0
   60.2390   34.2720   48.7970 C   0  0  0  0  0  0  0  0  0  0  0  0
   61.5940   34.2150   48.4560 C   0  0  0  0  0  0  0  0  0  0  0  0
   62.0220   33.3640   47.4330 C   0  0  0  0  0  0  0  0  0  0  0  0
   61.0960   32.5740   46.7450 C   0  0  0  0  0  0  0  0  0  0  0  0
   57.9360   32.3770   45.3910 C   0  0  0  0  0  0  0  0  0  0  0  0
   57.0370   31.5990   44.6670 C   0  0  0  0  0  0  0  0  0  0  0  0
   56.9480   30.2660   44.8980 N   0  0  0  0  0  0  0  0  0  0  0  0
   57.7080   29.6380   45.8360 C   0  0  0  0  0  0  0  0  0  0  0  0
   57.0434   23.8459   45.1619 H   0  0  0  0  0  0  0  0  0  0  0  0
   55.8059   24.3275   43.9522 H   0  0  0  0  0  0  0  0  0  0  0  0
   57.4180   25.1199   43.9522 H   0  0  0  0  0  0  0  0  0  0  0  0
   56.3500   27.8360   44.3080 H   0  0  0  0  0  0  0  0  0  0  0  0
   58.2387   26.5435   47.2073 H   0  0  0  0  0  0  0  0  0  0  0  0
   59.8345   27.8605   48.5825 H   0  0  0  0  0  0  0  0  0  0  0  0
   60.0925   30.3074   48.2171 H   0  0  0  0  0  0  0  0  0  0  0  0
   58.2467   33.5255   48.3858 H   0  0  0  0  0  0  0  0  0  0  0  0
   59.9032   34.9380   49.6055 H   0  0  0  0  0  0  0  0  0  0  0  0
   62.3230   34.8398   48.9928 H   0  0  0  0  0  0  0  0  0  0  0  0
   63.0887   33.3158   47.1689 H   0  0  0  0  0  0  0  0  0  0  0  0
   61.4375   31.9013   45.9444 H   0  0  0  0  0  0  0  0  0  0  0  0
   58.0029   33.4588   45.2036 H   0  0  0  0  0  0  0  0  0  0  0  0
   56.3967   32.0673   43.9049 H   0  0  0  0  0  0  0  0  0  0  0  0
  1  2  1  0
  2  3  2  0
  2  4  2  0
  2  5  1  0
  5  6  1  0
  6  7  2  0
  7  8  1  0
  8  9  2  0
  9 10  1  0
 10 11  2  0
 11 12  1  0
 12 13  2  0
 13 14  1  0
 14 15  2  0
 15 16  1  0
 16 17  2  0
 11 18  1  0
 18 19  2  0
 19 20  1  0
 20 21  2  0
 21  6  1  0
 21 10  1  0
 17 12  1  0
  1 22  1  0
  1 23  1  0
  1 24  1  0
  5 25  1  0
  7 26  1  0
  8 27  1  0
  9 28  1  0
 13 29  1  0
 14 30  1  0
 15 31  1  0
 16 32  1  0
 17 33  1  0
 18 34  1  0
 19 35  1  0
M  END
>  <UniqueID>  (13) 
12

>  <SMILES>  (13) 
CS(=O)(=O)Nc1cccc2c(-c3ccccc3)ccnc12

>  <Energy>  (13) 
49.63743216918218

>  <Genealogy>  (13) 
CS(=O)(=O)Nc1cccc2c(-c3ccccc3)ccnc12 (3D coordinates assigned)
CS(=O)(=O)Nc1cccc2c(-c3ccccc3)ccnc12 (optimized conformer: 49.63743216918218 kcal/mol)

>  <smiles>  (13) 
CS(=O)(=O)Nc1cccc2c(-c3ccccc3)ccnc12

>  <score_type>  (13) 
oracle

>  <origin>  (13) 
adg

>  <m_score__min__energy>  (13) 
-8.5899999999999999

>  <m_primary>  (13) 
energy

$$$$
13:0
     RDKit          3D

 52 55  0  0  0  0  0  0  0  0999 V2000
   62.7880   34.1980   49.1100 C   0  0  0  0  0  0  0  0  0  0  0  0
   61.5830   33.9920   48.2420 C   0  0  0  0  0  0  0  0  0  0  0  0
   61.7280   33.6690   46.8830 C   0  0  0  0  0  0  0  0  0  0  0  0
   60.6000   33.4990   46.0750 C   0  0  0  0  0  0  0  0  0  0  0  0
   59.3170   33.6600   46.6120 C   0  0  0  0  0  0  0  0  0  0  0  0
   57.9080   33.4100   45.5880 S   0  0  0  0  0  0  0  0  0  0  0  0
   57.9110   34.4430   44.4970 O   0  0  0  0  0  0  0  0  0  0  0  0
   56.6390   33.5680   46.3790 O   0  0  0  0  0  0  0  0  0  0  0  0
   57.9660   31.8020   44.9150 N   0  0  0  0  0  0  0  0  0  0  0  0
   57.6720   31.6020   43.4920 C   0  0  0  0  0  0  0  0  0  0  0  0
   56.6660   30.4650   43.3360 C   0  0  0  0  0  0  0  0  0  0  0  0
   57.2420   29.1670   43.9110 C   0  0  0  0  0  0  0  0  0  0  0  0
   57.8540   29.3580   45.2790 C   0  0  0  0  0  0  0  0  0  0  0  0
   58.1120   28.2300   46.0720 C   0  0  0  0  0  0  0  0  0  0  0  0
   58.7410   28.3630   47.3090 C   0  0  0  0  0  0  0  0  0  0  0  0
   59.1500   29.6250   47.7650 C   0  0  0  0  0  0  0  0  0  0  0  0
   59.7900   29.7880   49.0420 N   0  0  0  0  0  0  0  0  0  0  0  0
   59.3990   30.7620   50.0240 C   0  0  0  0  0  0  0  0  0  0  0  0
   58.2790   31.4130   49.8980 N   0  0  0  0  0  0  0  0  0  0  0  0
   57.7890   32.3650   50.8940 C   0  0  0  0  0  0  0  0  0  0  0  0
   58.9620   33.0540   51.6090 C   0  0  1  0  0  0  0  0  0  0  0  0
   58.5050   33.9190   52.6180 O   0  0  0  0  0  0  0  0  0  0  0  0
   59.9090   31.9880   52.1800 C   0  0  0  0  0  0  0  0  0  0  0  0
   60.2550   31.0090   51.1500 N   0  0  0  0  0  0  0  0  0  0  0  0
   58.8820   30.7560   46.9830 C   0  0  0  0  0  0  0  0  0  0  0  0
   58.2380   30.6400   45.7350 C   0  0  0  0  0  0  0  0  0  0  0  0
   59.1700   34.0050   47.9630 C   0  0  0  0  0  0  0  0  0  0  0  0
   60.2980   34.1740   48.7720 C   0  0  0  0  0  0  0  0  0  0  0  0
   62.4909   34.1472   50.1679 H   0  0  0  0  0  0  0  0  0  0  0  0
   63.5300   33.4137   48.8995 H   0  0  0  0  0  0  0  0  0  0  0  0
   63.2273   35.1843   48.8995 H   0  0  0  0  0  0  0  0  0  0  0  0
   62.7332   33.5493   46.4526 H   0  0  0  0  0  0  0  0  0  0  0  0
   60.7208   33.2378   45.0133 H   0  0  0  0  0  0  0  0  0  0  0  0
   57.2491   32.5262   43.0714 H   0  0  0  0  0  0  0  0  0  0  0  0
   58.5993   31.3473   42.9580 H   0  0  0  0  0  0  0  0  0  0  0  0
   55.7412   30.7217   43.8734 H   0  0  0  0  0  0  0  0  0  0  0  0
   56.4509   30.3199   42.2670 H   0  0  0  0  0  0  0  0  0  0  0  0
   56.4326   28.4261   43.9876 H   0  0  0  0  0  0  0  0  0  0  0  0
   58.0399   28.8282   43.2338 H   0  0  0  0  0  0  0  0  0  0  0  0
   57.8157   27.2326   45.7150 H   0  0  0  0  0  0  0  0  0  0  0  0
   58.9176   27.4732   47.9311 H   0  0  0  0  0  0  0  0  0  0  0  0
   60.5250   29.0980   49.3150 H   0  0  0  0  0  0  0  0  0  0  0  0
   57.1734   33.1268   50.3933 H   0  0  0  0  0  0  0  0  0  0  0  0
   57.1905   31.8208   51.6394 H   0  0  0  0  0  0  0  0  0  0  0  0
   59.5122   33.6683   50.8810 H   0  0  0  0  0  0  0  0  0  0  0  0
   58.4320   34.8280   52.2270 H   0  0  0  0  0  0  0  0  0  0  0  0
   60.8272   32.4746   52.5406 H   0  0  0  0  0  0  0  0  0  0  0  0
   59.4049   31.4703   53.0094 H   0  0  0  0  0  0  0  0  0  0  0  0
   61.1080   30.4200   51.2860 H   0  0  0  0  0  0  0  0  0  0  0  0
   59.1789   31.7500   47.3488 H   0  0  0  0  0  0  0  0  0  0  0  0
   58.1647   34.1431   48.3877 H   0  0  0  0  0  0  0  0  0  0  0  0
   60.1764   34.4511   49.8296 H   0  0  0  0  0  0  0  0  0  0  0  0
  1  2  1  0
  2  3  2  0
  3  4  1  0
  4  5  2  0
  5  6  1  0
  6  7  2  0
  6  8  2  0
  6  9  1  0
  9 10  1  0
 10 11  1  0
 11 12  1  0
 12 13  1  0
 13 14  2  0
 14 15  1  0
 15 16  2  0
 16 17  1  0
 17 18  1  0
 18 19  2  0
 19 20  1  0
 20 21  1  0
 21 22  1  0
 21 23  1  0
 23 24  1  0
 16 25  1  0
 25 26  2  0
  5 27  1  0
 27 28  2  0
 28  2  1  0
 26  9  1  0
 26 13  1  0
 24 18  1  0
  1 29  1  0
  1 30  1  0
  1 31  1  0
  3 32  1  0
  4 33  1  0
 10 34  1  0
 10 35  1  0
 11 36  1  0
 11 37  1  0
 12 38  1  0
 12 39  1  0
 14 40  1  0
 15 41  1  0
 17 42  1  0
 20 43  1  0
 20 44  1  0
 21 45  1  6
 22 46  1  0
 23 47  1  0
 23 48  1  0
 24 49  1  0
 25 50  1  0
 27 51  1  0
 28 52  1  0
M  END
>  <UniqueID>  (14) 
13

>  <SMILES>  (14) 
Cc1ccc(S(=O)(=O)N2CCCc3ccc(NC4=NC[C@@H](O)CN4)cc32)cc1

>  <Energy>  (14) 
59.78345248546204

>  <Genealogy>  (14) 
Cc1ccc(S(=O)(=O)N2CCCc3ccc(NC4=NC[C@@H](O)CN4)cc32)cc1 (chirality)
Cc1ccc(S(=O)(=O)N2CCCc3ccc(NC4=NC[C@@H](O)CN4)cc32)cc1 (3D coordinates assigned)
Cc1ccc(S(=O)(=O)N2CCCc3ccc(NC4=NC[C@@H](O)CN4)cc32)cc1 (nonaromatic ring conformer: 59.78345248546204 kcal/mol)

>  <smiles>  (14) 
Cc1ccc(S(=O)(=O)N2CCCc3ccc(NC4=NCC(O)CN4)cc32)cc1

>  <score_type>  (14) 
oracle

>  <origin>  (14) 
adg

>  <m_score__min__energy>  (14) 
-9.0500000000000007

>  <m_primary>  (14) 
energy

$$$$
14:0
     RDKit          3D

 36 37  0  0  1  0  0  0  0  0999 V2000
   63.7680   32.8040   46.7710 C   0  0  0  0  0  0  0  0  0  0  0  0
   63.6570   33.8070   47.7590 O   0  0  0  0  0  0  0  0  0  0  0  0
   62.6950   33.7390   48.7540 C   0  0  0  0  0  0  0  0  0  0  0  0
   63.0360   33.4870   50.0580 C   0  0  0  0  0  0  0  0  0  0  0  0
   62.0720   33.4200   51.0450 C   0  0  0  0  0  0  0  0  0  0  0  0
   60.7550   33.6140   50.6810 C   0  0  0  0  0  0  0  0  0  0  0  0
   60.4340   33.8660   49.3660 C   0  0  0  0  0  0  0  0  0  0  0  0
   61.3670   33.9410   48.3540 C   0  0  0  0  0  0  0  0  0  0  0  0
   61.0430   34.1930   46.9970 N   0  0  0  0  0  0  0  0  0  0  0  0
   59.4830   34.4520   46.3790 S   0  0  0  0  0  0  0  0  0  0  0  0
   59.5790   35.4270   45.2180 O   0  0  0  0  0  0  0  0  0  0  0  0
   58.6250   35.1640   47.4050 O   0  0  0  0  0  0  0  0  0  0  0  0
   58.6860   33.0060   45.8110 C   0  0  0  0  0  0  0  0  0  0  0  0
   57.5250   33.1270   45.0650 C   0  0  0  0  0  0  0  0  0  0  0  0
   56.8640   32.0130   44.5890 C   0  0  0  0  0  0  0  0  0  0  0  0
   57.3380   30.7250   44.8410 C   0  0  0  0  0  0  0  0  0  0  0  0
   56.6380   29.5460   44.3390 C   0  0  0  0  0  0  0  0  0  0  0  0
   55.5230   29.0920   45.0380 O   0  0  0  0  0  0  0  0  0  0  0  0
   57.0190   28.9120   43.2680 N   0  0  0  0  0  0  0  0  0  0  0  0
   56.2720   29.0060   42.1020 O   0  0  0  0  0  0  0  0  0  0  0  0
   58.4930   30.6070   45.5840 C   0  0  0  0  0  0  0  0  0  0  0  0
   59.1440   31.7330   46.0530 C   0  0  0  0  0  0  0  0  0  0  0  0
   63.8766   31.8225   47.2555 H   0  0  0  0  0  0  0  0  0  0  0  0
   62.8642   32.8054   46.1440 H   0  0  0  0  0  0  0  0  0  0  0  0
   64.6496   33.0029   46.1440 H   0  0  0  0  0  0  0  0  0  0  0  0
   64.0931   33.3359   50.3220 H   0  0  0  0  0  0  0  0  0  0  0  0
   62.3461   33.2178   52.0909 H   0  0  0  0  0  0  0  0  0  0  0  0
   59.9616   33.5673   51.4415 H   0  0  0  0  0  0  0  0  0  0  0  0
   59.3750   34.0157   49.1089 H   0  0  0  0  0  0  0  0  0  0  0  0
   61.8610   34.2150   46.3270 H   0  0  0  0  0  0  0  0  0  0  0  0
   57.1232   34.1278   44.8484 H   0  0  0  0  0  0  0  0  0  0  0  0
   55.9448   32.1430   43.9990 H   0  0  0  0  0  0  0  0  0  0  0  0
   55.1460   28.1470   44.8860 H   0  0  0  0  0  0  0  0  0  0  0  0
   55.4070   28.4930   42.0050 H   0  0  0  0  0  0  0  0  0  0  0  0
   58.8999   29.6093   45.8055 H   0  0  0  0  0  0  0  0  0  0  0  0
   60.0639   31.6050   46.6425 H   0  0  0  0  0  0  0  0  0  0  0  0
  1  2  1  0
  2  3  1  0
  3  4  2  0
  4  5  1  0
  5  6  2  0
  6  7  1  0
  7  8  2  0
  8  9  1  0
  9 10  1  0
 10 11  2  0
 10 12  2  0
 10 13  1  0
 13 14  2  0
 14 15  1  0
 15 16  2  0
 16 17  1  0
 17 18  1  0
 17 19  2  0
 19 20  1  0
 16 21  1  0
 21 22  2  0
  8  3  1  0
 22 13  1  0
  1 23  1  0
  1 24  1  0
  1 25  1  0
  4 26  1  0
  5 27  1  0
  6 28  1  0
  7 29  1  0
  9 30  1  0
 14 31  1  0
 15 32  1  0
 18 33  1  0
 20 34  1  0
 21 35  1  0
 22 36  1  0
M  END
>  <smiles>  (15) 
COc1ccccc1NS(=O)(=O)c1ccc(C(O)=NO)cc1

>  <score_type>  (15) 
oracle

>  <origin>  (15) 
adg

>  <m_score__min__energy>  (15) 
-8.2799999999999994

>  <m_primary>  (15) 
energy

$$$$
15:0
     RDKit          3D

 49 52  0  0  0  0  0  0  0  0999 V2000
   55.2660   29.3890   45.8660 H   0  0  0  0  0  0  0  0  0  0  0  0
   55.5110   29.4400   44.8500 N   0  0  0  0  0  0  0  0  0  0  0  0
   56.3330   30.3270   44.3900 C   0  0  0  0  0  0  0  0  0  0  0  0
   57.0260   31.1140   45.2560 N   0  0  0  0  0  0  0  0  0  0  0  0
   57.9010   32.0610   44.8160 C   0  0  0  0  0  0  0  0  0  0  0  0
   58.6410   32.8890   45.8050 C   0  0  0  0  0  0  0  0  0  0  0  0
   59.8750   32.4580   46.3360 C   0  0  0  0  0  0  0  0  0  0  0  0
   60.3770   31.1920   46.0100 O   0  0  0  0  0  0  0  0  0  0  0  0
   59.8650   29.9750   46.4810 C   0  0  0  0  0  0  0  0  0  0  0  0
   58.7470   30.0000   47.3210 C   0  0  0  0  0  0  0  0  0  0  0  0
   58.3185   30.9644   47.6315 H   0  0  0  0  0  0  0  0  0  0  0  0
   58.1700   28.8070   47.7690 C   0  0  0  0  0  0  0  0  0  0  0  0
   57.3033   28.8391   48.4456 H   0  0  0  0  0  0  0  0  0  0  0  0
   58.6920   27.5660   47.3590 C   0  0  0  0  0  0  0  0  0  0  0  0
   58.1060   26.3210   47.7770 N   0  0  0  0  0  0  0  0  0  0  0  0
   57.3420   25.4180   46.9670 C   0  0  0  0  0  0  0  0  0  0  0  0
   56.1050   25.5920   46.8040 O   0  0  0  0  0  0  0  0  0  0  0  0
   58.0110   24.3180   46.3350 N   0  0  0  0  0  0  0  0  0  0  0  0
   58.9410   24.0420   46.7300 H   0  0  0  0  0  0  0  0  0  0  0  0
   57.4690   23.5350   45.2550 C   0  0  0  0  0  0  0  0  0  0  0  0
   57.1550   22.1710   45.4150 C   0  0  0  0  0  0  0  0  0  0  0  0
   57.3292   21.6824   46.3850 H   0  0  0  0  0  0  0  0  0  0  0  0
   56.6220   21.4290   44.3490 C   0  0  0  0  0  0  0  0  0  0  0  0
   56.2760   19.9780   44.5260 C   0  0  0  0  0  0  0  0  0  0  0  0
   56.2199   19.7427   45.5991 H   0  0  0  0  0  0  0  0  0  0  0  0
   55.3037   19.7727   44.0543 H   0  0  0  0  0  0  0  0  0  0  0  0
   57.0510   19.3561   44.0543 H   0  0  0  0  0  0  0  0  0  0  0  0
   56.3440   22.0690   43.1330 C   0  0  0  0  0  0  0  0  0  0  0  0
   55.9094   21.4981   42.2993 H   0  0  0  0  0  0  0  0  0  0  0  0
   56.6170   23.4270   42.9780 C   0  0  0  0  0  0  0  0  0  0  0  0
   56.3910   23.9254   42.0238 H   0  0  0  0  0  0  0  0  0  0  0  0
   57.1770   24.1590   44.0300 C   0  0  0  0  0  0  0  0  0  0  0  0
   57.4270   25.4810   43.8570 F   0  0  0  0  0  0  0  0  0  0  0  0
   59.8320   27.5400   46.5390 C   0  0  0  0  0  0  0  0  0  0  0  0
   60.5330   26.0100   46.0200 Cl  0  0  0  0  0  0  0  0  0  0  0  0
   60.4050   28.7360   46.0920 C   0  0  0  0  0  0  0  0  0  0  0  0
   61.2842   28.7068   45.4316 H   0  0  0  0  0  0  0  0  0  0  0  0
   60.5590   33.2590   47.2010 N   0  0  0  0  0  0  0  0  0  0  0  0
   60.0990   34.4810   47.5720 C   0  0  0  0  0  0  0  0  0  0  0  0
   60.6822   35.1003   48.2693 H   0  0  0  0  0  0  0  0  0  0  0  0
   58.8880   34.9500   47.0690 C   0  0  0  0  0  0  0  0  0  0  0  0
   58.5102   35.9397   47.3651 H   0  0  0  0  0  0  0  0  0  0  0  0
   58.1590   34.1540   46.1870 C   0  0  0  0  0  0  0  0  0  0  0  0
   57.2008   34.5174   45.7872 H   0  0  0  0  0  0  0  0  0  0  0  0
   58.0870   32.2240   43.4320 C   0  0  0  0  0  0  0  0  0  0  0  0
   58.7833   32.9830   43.0459 H   0  0  0  0  0  0  0  0  0  0  0  0
   57.3710   31.4040   42.5560 C   0  0  0  0  0  0  0  0  0  0  0  0
   57.5034   31.5112   41.4693 H   0  0  0  0  0  0  0  0  0  0  0  0
   56.5110   30.4740   43.0480 N   0  0  0  0  0  0  0  0  0  0  0  0
  1  2  1  0
  2  3  2  0
  3  4  1  0
  4  5  2  0
  5  6  1  0
  6  7  1  0
  7  8  1  0
  8  9  1  0
  9 10  2  0
 10 11  1  0
 10 12  1  0
 12 13  1  0
 12 14  2  0
 14 15  1  0
 15 16  1  0
 16 17  2  0
 16 18  1  0
 18 19  1  0
 18 20  1  0
 20 21  2  0
 21 22  1  0
 21 23  1  0
 23 24  1  0
 24 25  1  0
 24 26  1  0
 24 27  1  0
 23 28  2  0
 28 29  1  0
 28 30  1  0
 30 31  1  0
 30 32  2  0
 32 33  1  0
 14 34  1  0
 34 35  1  0
 34 36  2  0
 36 37  1  0
  7 38  2  0
 38 39  1  0
 39 40  1  0
 39 41  2  0
 41 42  1  0
 41 43  1  0
 43 44  1  0
  5 45  1  0
 45 46  1  0
 45 47  2  0
 47 48  1  0
 47 49  1  0
 49  3  1  0
 43  6  2  0
 36  9  1  0
 32 20  1  0
M  CHG  2  15  -1  49  -1
M  END
>  <UniqueID>  (16) 
14

>  <SMILES>  (16) 
[H]/N=c1/nc(-c2cccnc2Oc2ccc([N-]C(=O)Nc3cc(C)ccc3F)c(Cl)c2)cc[n-]1

>  <Energy>  (16) 
72.56070365127083

>  <Genealogy>  (16) 
Cc1ccc(F)c(NC(=O)[N-]c2ccc(Oc3ncccc3-c3cc[n-]c(=N)n3)cc2Cl)c1 (protonated)
[H]/N=c1/nc(-c2cccnc2Oc2ccc([N-]C(=O)Nc3cc(C)ccc3F)c(Cl)c2)cc[n-]1 (cis-trans isomerization)
[H]/N=c1/nc(-c2cccnc2Oc2ccc([N-]C(=O)Nc3cc(C)ccc3F)c(Cl)c2)cc[n-]1 (3D coordinates assigned)
[H]/N=c1/nc(-c2cccnc2Oc2ccc([N-]C(=O)Nc3cc(C)ccc3F)c(Cl)c2)cc[n-]1 (optimized conformer: 72.56070365127083 kcal/mol)

>  <smiles>  (16) 
Cc1ccc(F)c(NC(=O)Nc2ccc(Oc3ncccc3-c3cc[nH]c(=N)n3)cc2Cl)c1

>  <score_type>  (16) 
oracle

>  <origin>  (16) 
adg

>  <m_score__min__energy>  (16) 
-13.07

>  <m_primary>  (16) 
energy

$$$$
16:0
     RDKit          3D

 51 54  0  0  0  0  0  0  0  0999 V2000
   57.5220   32.8830   44.6220 C   0  0  0  0  0  0  0  0  0  0  0  0
   57.6150   31.3870   44.7420 C   0  0  0  0  0  0  0  0  0  0  0  0
   56.6210   30.5960   44.1460 C   0  0  0  0  0  0  0  0  0  0  0  0
   56.6430   29.2060   44.2770 C   0  0  0  0  0  0  0  0  0  0  0  0
   57.6510   28.5780   45.0210 C   0  0  0  0  0  0  0  0  0  0  0  0
   57.6540   27.1450   45.1380 N   0  0  0  0  0  0  0  0  0  0  0  0
   57.7620   26.2530   44.0150 C   0  0  0  0  0  0  0  0  0  0  0  0
   58.2680   26.6670   42.9350 O   0  0  0  0  0  0  0  0  0  0  0  0
   57.3340   24.8380   44.1230 C   0  0  0  0  0  0  0  0  0  0  0  0
   56.6860   24.1940   43.0490 C   0  0  0  0  0  0  0  0  0  0  0  0
   56.2970   22.8540   43.1540 C   0  0  0  0  0  0  0  0  0  0  0  0
   56.5570   22.1430   44.3260 C   0  0  0  0  0  0  0  0  0  0  0  0
   57.1810   22.7760   45.4080 C   0  0  0  0  0  0  0  0  0  0  0  0
   57.5850   24.1110   45.3020 C   0  0  0  0  0  0  0  0  0  0  0  0
   57.3920   22.0560   46.5880 O   0  0  0  0  0  0  0  0  0  0  0  0
   56.7480   20.7980   46.8110 C   0  0  0  0  0  0  0  0  0  0  0  0
   56.7030   19.9880   45.5100 C   0  0  0  0  0  0  0  0  0  0  0  0
   56.2030   20.7950   44.4400 O   0  0  0  0  0  0  0  0  0  0  0  0
   58.6720   29.3610   45.5850 C   0  0  0  0  0  0  0  0  0  0  0  0
   58.6790   30.7530   45.4290 C   0  0  0  0  0  0  0  0  0  0  0  0
   59.7540   31.4970   46.0180 N   0  0  0  0  0  0  0  0  0  0  0  0
   60.3110   31.2260   47.3100 C   0  0  0  0  0  0  0  0  0  0  0  0
   59.8600   30.2700   47.9950 O   0  0  0  0  0  0  0  0  0  0  0  0
   61.3540   32.1250   47.8630 C   0  0  0  0  0  0  0  0  0  0  0  0
   62.6980   31.7180   47.7510 C   0  0  0  0  0  0  0  0  0  0  0  0
   63.7340   32.5320   48.2030 C   0  0  0  0  0  0  0  0  0  0  0  0
   63.4510   33.7690   48.7730 C   0  0  0  0  0  0  0  0  0  0  0  0
   62.1290   34.1900   48.9120 C   0  0  0  0  0  0  0  0  0  0  0  0
   61.0590   33.3730   48.4880 C   0  0  0  0  0  0  0  0  0  0  0  0
   59.6360   33.8580   48.7050 C   0  0  0  0  0  0  0  0  0  0  0  0
   58.8820   32.8440   49.2680 F   0  0  0  0  0  0  0  0  0  0  0  0
   59.6270   34.9620   49.5380 F   0  0  0  0  0  0  0  0  0  0  0  0
   59.0370   34.2320   47.5130 F   0  0  0  0  0  0  0  0  0  0  0  0
   57.4942   33.3304   45.6265 H   0  0  0  0  0  0  0  0  0  0  0  0
   58.3983   33.2622   44.0758 H   0  0  0  0  0  0  0  0  0  0  0  0
   56.6055   33.1508   44.0758 H   0  0  0  0  0  0  0  0  0  0  0  0
   55.8162   31.0758   43.5697 H   0  0  0  0  0  0  0  0  0  0  0  0
   55.8635   28.5995   43.7927 H   0  0  0  0  0  0  0  0  0  0  0  0
   57.6970   26.7330   46.0970 H   0  0  0  0  0  0  0  0  0  0  0  0
   56.4847   24.7495   42.1211 H   0  0  0  0  0  0  0  0  0  0  0  0
   55.7866   22.3615   42.3132 H   0  0  0  0  0  0  0  0  0  0  0  0
   58.1014   24.5951   46.1440 H   0  0  0  0  0  0  0  0  0  0  0  0
   57.3073   20.2333   47.5714 H   0  0  0  0  0  0  0  0  0  0  0  0
   55.7196   20.9778   47.1575 H   0  0  0  0  0  0  0  0  0  0  0  0
   57.7178   19.6439   45.2614 H   0  0  0  0  0  0  0  0  0  0  0  0
   56.0359   19.1245   45.6489 H   0  0  0  0  0  0  0  0  0  0  0  0
   59.4763   28.8747   46.1565 H   0  0  0  0  0  0  0  0  0  0  0  0
   62.9329   30.7427   47.2998 H   0  0  0  0  0  0  0  0  0  0  0  0
   64.7773   32.1962   48.1091 H   0  0  0  0  0  0  0  0  0  0  0  0
   64.2719   34.4165   49.1148 H   0  0  0  0  0  0  0  0  0  0  0  0
   61.9170   35.1727   49.3584 H   0  0  0  0  0  0  0  0  0  0  0  0
  1  2  1  0
  2  3  2  0
  3  4  1  0
  4  5  2  0
  5  6  1  0
  6  7  1  0
  7  8  2  0
  7  9  1  0
  9 10  2  0
 10 11  1  0
 11 12  2  0
 12 13  1  0
 13 14  2  0
 13 15  1  0
 15 16  1  0
 16 17  1  0
 17 18  1  0
  5 19  1  0
 19 20  2  0
 20 21  1  0
 21 22  1  0
 22 23  2  0
 22 24  1  0
 24 25  2  0
 25 26  1  0
 26 27  2  0
 27 28  1  0
 28 29  2  0
 29 30  1  0
 30 31  1  0
 30 32  1  0
 30 33  1  0
 20  2  1  0
 29 24  1  0
 14  9  1  0
 18 12  1  0
  1 34  1  0
  1 35  1  0
  1 36  1  0
  3 37  1  0
  4 38  1  0
  6 39  1  0
 10 40  1  0
 11 41  1  0
 14 42  1  0
 16 43  1  0
 16 44  1  0
 17 45  1  0
 17 46  1  0
 19 47  1  0
 25 48  1  0
 26 49  1  0
 27 50  1  0
 28 51  1  0
M  CHG  1  21  -1
M  END
>  <UniqueID>  (17) 
15

>  <SMILES>  (17) 
Cc1ccc(NC(=O)c2ccc3c(c2)OCCO3)cc1[N-]C(=O)c1ccccc1C(F)(F)F

>  <Energy>  (17) 
75.19724832059391

>  <Genealogy>  (17) 
Cc1ccc(NC(=O)c2ccc3c(c2)OCCO3)cc1[N-]C(=O)c1ccccc1C(F)(F)F (protonated)
Cc1ccc(NC(=O)c2ccc3c(c2)OCCO3)cc1[N-]C(=O)c1ccccc1C(F)(F)F (3D coordinates assigned)
Cc1ccc(NC(=O)c2ccc3c(c2)OCCO3)cc1[N-]C(=O)c1ccccc1C(F)(F)F (nonaromatic ring conformer: 75.19724832059391 kcal/mol)

>  <smiles>  (17) 
Cc1ccc(NC(=O)c2ccc3c(c2)OCCO3)cc1NC(=O)c1ccccc1C(F)(F)F

>  <score_type>  (17) 
oracle

>  <origin>  (17) 
adg

>  <m_score__min__energy>  (17) 
-9.8399999999999999

>  <m_primary>  (17) 
energy

$$$$
17:0
     RDKit          3D

 47 49  0  0  0  0  0  0  0  0999 V2000
   59.2152   34.3029   51.0660 H   0  0  0  0  0  0  0  0  0  0  0  0
   59.2410   33.2400   50.7840 C   0  0  0  0  0  0  0  0  0  0  0  0
   58.3800   32.3350   51.4020 C   0  0  0  0  0  0  0  0  0  0  0  0
   57.6863   32.6890   52.1789 H   0  0  0  0  0  0  0  0  0  0  0  0
   58.3870   30.9720   51.0440 C   0  0  0  0  0  0  0  0  0  0  0  0
   57.5150   30.0620   51.6610 O   0  0  0  0  0  0  0  0  0  0  0  0
   56.3460   30.4180   52.3930 C   0  0  0  0  0  0  0  0  0  0  0  0
   56.5549   30.3544   53.4711 H   0  0  0  0  0  0  0  0  0  0  0  0
   56.0518   31.4465   52.1366 H   0  0  0  0  0  0  0  0  0  0  0  0
   55.5285   29.7281   52.1366 H   0  0  0  0  0  0  0  0  0  0  0  0
   59.2910   30.5250   50.0420 C   0  0  0  0  0  0  0  0  0  0  0  0
   59.3440   29.1940   49.5800 O   0  0  0  0  0  0  0  0  0  0  0  0
   60.3640   28.2390   49.8560 C   0  0  0  0  0  0  0  0  0  0  0  0
   60.4799   28.1305   50.9445 H   0  0  0  0  0  0  0  0  0  0  0  0
   60.0861   27.2688   49.4183 H   0  0  0  0  0  0  0  0  0  0  0  0
   61.3138   28.5801   49.4183 H   0  0  0  0  0  0  0  0  0  0  0  0
   60.1810   31.4490   49.4530 C   0  0  0  0  0  0  0  0  0  0  0  0
   61.1670   31.0150   48.4430 C   0  0  0  0  0  0  0  0  0  0  0  0
   62.3920   31.1940   48.6660 O   0  0  0  0  0  0  0  0  0  0  0  0
   60.7670   30.3720   47.2240 N   0  0  0  0  0  0  0  0  0  0  0  0
   59.4330   29.8420   46.9520 C   0  0  0  0  0  0  0  0  0  0  0  0
   59.3988   28.7821   47.2444 H   0  0  0  0  0  0  0  0  0  0  0  0
   58.6974   30.4207   47.5299 H   0  0  0  0  0  0  0  0  0  0  0  0
   59.0970   29.9640   45.4650 C   0  0  0  0  0  0  0  0  0  0  0  0
   59.2080   31.0130   45.1532 H   0  0  0  0  0  0  0  0  0  0  0  0
   59.7831   29.3242   44.8906 H   0  0  0  0  0  0  0  0  0  0  0  0
   57.6880   29.5190   45.2090 C   0  0  0  0  0  0  0  0  0  0  0  0
   57.1440   28.2840   45.4920 C   0  0  0  0  0  0  0  0  0  0  0  0
   57.6939   27.4100   45.8713 H   0  0  0  0  0  0  0  0  0  0  0  0
   55.8250   28.3300   45.2250 N   0  0  0  0  0  0  0  0  0  0  0  0
   55.1490   27.5440   45.3460 H   0  0  0  0  0  0  0  0  0  0  0  0
   55.4900   29.5390   44.8030 N   0  0  0  0  0  0  0  0  0  0  0  0
   56.6170   30.2770   44.7850 C   0  0  0  0  0  0  0  0  0  0  0  0
   56.6740   31.5430   44.4900 N   0  0  0  0  0  0  0  0  0  0  0  0
   57.4990   32.5350   45.1220 C   0  0  0  0  0  0  0  0  0  0  0  0
   58.4490   33.2900   44.4050 C   0  0  0  0  0  0  0  0  0  0  0  0
   58.5626   33.1414   43.3210 H   0  0  0  0  0  0  0  0  0  0  0  0
   59.2480   34.2280   45.0680 C   0  0  0  0  0  0  0  0  0  0  0  0
   59.9789   34.8239   44.5017 H   0  0  0  0  0  0  0  0  0  0  0  0
   59.1200   34.4100   46.4480 C   0  0  0  0  0  0  0  0  0  0  0  0
   59.8940   35.3190   47.0870 F   0  0  0  0  0  0  0  0  0  0  0  0
   58.2000   33.6430   47.1690 C   0  0  0  0  0  0  0  0  0  0  0  0
   58.1040   33.7796   48.2563 H   0  0  0  0  0  0  0  0  0  0  0  0
   57.4020   32.7030   46.5110 C   0  0  0  0  0  0  0  0  0  0  0  0
   56.6926   32.0904   47.0868 H   0  0  0  0  0  0  0  0  0  0  0  0
   60.1330   32.8010   49.8110 C   0  0  0  0  0  0  0  0  0  0  0  0
   60.8045   33.5208   49.3201 H   0  0  0  0  0  0  0  0  0  0  0  0
  1  2  1  0
  2  3  2  0
  3  4  1  0
  3  5  1  0
  5  6  1  0
  6  7  1  0
  7  8  1  0
  7  9  1  0
  7 10  1  0
  5 11  2  0
 11 12  1  0
 12 13  1  0
 13 14  1  0
 13 15  1  0
 13 16  1  0
 11 17  1  0
 17 18  1  0
 18 19  2  0
 18 20  1  0
 20 21  1  0
 21 22  1  0
 21 23  1  0
 21 24  1  0
 24 25  1  0
 24 26  1  0
 24 27  1  0
 27 28  2  0
 28 29  1  0
 28 30  1  0
 30 31  1  0
 30 32  1  0
 32 33  1  0
 33 34  2  0
 34 35  1  0
 35 36  2  0
 36 37  1  0
 36 38  1  0
 38 39  1  0
 38 40  2  0
 40 41  1  0
 40 42  1  0
 42 43  1  0
 42 44  2  0
 44 45  1  0
 17 46  2  0
 46 47  1  0
 46  2  1  0
 33 27  1  0
 44 35  1  0
M  CHG  2  20  -1  32  -1
M  END
>  <UniqueID>  (18) 
16

>  <SMILES>  (18) 
COc1cccc(C(=O)[N-]CCc2c[nH][n-]/c2=N\c2ccc(F)cc2)c1OC

>  <Energy>  (18) 
89.07013821520623

>  <Genealogy>  (18) 
COc1cccc(C(=O)[N-]CCc2c[nH][n-]c2=Nc2ccc(F)cc2)c1OC (protonated)
COc1cccc(C(=O)[N-]CCc2c[nH][n-]/c2=N\c2ccc(F)cc2)c1OC (cis-trans isomerization)
COc1cccc(C(=O)[N-]CCc2c[nH][n-]/c2=N\c2ccc(F)cc2)c1OC (3D coordinates assigned)
COc1cccc(C(=O)[N-]CCc2c[nH][n-]/c2=N\c2ccc(F)cc2)c1OC (optimized conformer: 89.07013821520623 kcal/mol)

>  <smiles>  (18) 
COc1cccc(C(=O)NCCc2c[nH][nH]c2=Nc2ccc(F)cc2)c1OC

>  <score_type>  (18) 
oracle

>  <origin>  (18) 
adg

>  <m_score__min__energy>  (18) 
-10.4

>  <m_primary>  (18) 
energy

$$$$
18:0
     RDKit          3D

 28 30  0  0  0  0  0  0  0  0999 V2000
   57.3790   32.3470   40.8370 Br  0  0  0  0  0  0  0  0  0  0  0  0
   57.3940   31.6920   42.6310 C   0  0  0  0  0  0  0  0  0  0  0  0
   56.6590   30.5500   42.9630 C   0  0  0  0  0  0  0  0  0  0  0  0
   56.6820   30.0620   44.2710 C   0  0  0  0  0  0  0  0  0  0  0  0
   57.4320   30.7160   45.2520 C   0  0  0  0  0  0  0  0  0  0  0  0
   58.1640   31.8750   44.9380 C   0  0  0  0  0  0  0  0  0  0  0  0
   58.9630   32.5410   45.9980 C   0  0  0  0  0  0  0  0  0  0  0  0
   58.4360   33.4920   46.7910 C   0  0  0  0  0  0  0  0  0  0  0  0
   59.2250   34.1840   47.8720 C   0  0  0  0  0  0  0  0  0  0  0  0
   60.6460   33.7010   47.9940 C   0  0  0  0  0  0  0  0  0  0  0  0
   61.4970   34.2560   48.9630 C   0  0  0  0  0  0  0  0  0  0  0  0
   62.8160   33.8080   49.0790 C   0  0  0  0  0  0  0  0  0  0  0  0
   63.2920   32.8050   48.2300 C   0  0  0  0  0  0  0  0  0  0  0  0
   62.4490   32.2490   47.2620 C   0  0  0  0  0  0  0  0  0  0  0  0
   61.1290   32.6950   47.1430 C   0  0  0  0  0  0  0  0  0  0  0  0
   60.2930   32.1370   46.1750 O   0  0  0  0  0  0  0  0  0  0  0  0
   58.1470   32.3510   43.6100 C   0  0  0  0  0  0  0  0  0  0  0  0
   56.0630   30.0363   42.1943 H   0  0  0  0  0  0  0  0  0  0  0  0
   56.1080   29.1601   44.5300 H   0  0  0  0  0  0  0  0  0  0  0  0
   57.4500   30.3210   46.2785 H   0  0  0  0  0  0  0  0  0  0  0  0
   57.3837   33.7764   46.6436 H   0  0  0  0  0  0  0  0  0  0  0  0
   59.2431   35.2616   47.6518 H   0  0  0  0  0  0  0  0  0  0  0  0
   58.7272   33.9564   48.8262 H   0  0  0  0  0  0  0  0  0  0  0  0
   61.1248   35.0454   49.6326 H   0  0  0  0  0  0  0  0  0  0  0  0
   63.4800   34.2453   49.8392 H   0  0  0  0  0  0  0  0  0  0  0  0
   64.3299   32.4527   48.3230 H   0  0  0  0  0  0  0  0  0  0  0  0
   62.8248   31.4602   46.5938 H   0  0  0  0  0  0  0  0  0  0  0  0
   58.7289   33.2453   43.3423 H   0  0  0  0  0  0  0  0  0  0  0  0
  1  2  1  0
  2  3  2  0
  3  4  1  0
  4  5  2  0
  5  6  1  0
  6  7  1  0
  7  8  2  0
  8  9  1  0
  9 10  1  0
 10 11  2  0
 11 12  1  0
 12 13  2  0
 13 14  1  0
 14 15  2  0
 15 16  1  0
  6 17  2  0
 17  2  1  0
 16  7  1  0
 15 10  1  0
  3 18  1  0
  4 19  1  0
  5 20  1  0
  8 21  1  0
  9 22  1  0
  9 23  1  0
 11 24  1  0
 12 25  1  0
 13 26  1  0
 14 27  1  0
 17 28  1  0
M  END
>  <UniqueID>  (19) 
17

>  <SMILES>  (19) 
Brc1cccc(C2=CCc3ccccc3O2)c1

>  <Energy>  (19) 
35.737636675409234

>  <Genealogy>  (19) 
Brc1cccc(C2=CCc3ccccc3O2)c1 (3D coordinates assigned)
Brc1cccc(C2=CCc3ccccc3O2)c1 (nonaromatic ring conformer: 35.737636675409234 kcal/mol)

>  <smiles>  (19) 
Brc1cccc(C2=CCc3ccccc3O2)c1

>  <score_type>  (19) 
oracle

>  <origin>  (19) 
adg

>  <m_score__min__energy>  (19) 
-7.1299999999999999

>  <m_primary>  (19) 
energy

$$$$
19:0
     RDKit          3D

 31 32  0  0  0  0  0  0  0  0999 V2000
   59.6300   33.6410   46.0500 C   0  0  0  0  0  0  0  0  0  0  0  0
   58.1100   32.9610   46.6800 S   0  0  0  0  0  0  0  0  0  0  0  0
   56.9670   33.8060   46.1930 O   0  0  0  0  0  0  0  0  0  0  0  0
   58.1120   32.9720   48.1820 O   0  0  0  0  0  0  0  0  0  0  0  0
   57.8920   31.3420   46.0970 N   0  0  0  0  0  0  0  0  0  0  0  0
   57.4490   30.9710   44.7830 C   0  0  0  0  0  0  0  0  0  0  0  0
   57.6260   31.8170   43.6720 C   0  0  0  0  0  0  0  0  0  0  0  0
   57.1830   31.4220   42.4060 C   0  0  0  0  0  0  0  0  0  0  0  0
   57.4260   32.5780   40.9060 Br  0  0  0  0  0  0  0  0  0  0  0  0
   56.5590   30.1850   42.2380 C   0  0  0  0  0  0  0  0  0  0  0  0
   56.3800   29.3370   43.3330 C   0  0  0  0  0  0  0  0  0  0  0  0
   56.8320   29.7200   44.6100 C   0  0  0  0  0  0  0  0  0  0  0  0
   56.6660   28.8910   45.7320 O   0  0  0  0  0  0  0  0  0  0  0  0
   57.6620   28.0570   46.2560 C   0  0  0  0  0  0  0  0  0  0  0  0
   58.9750   28.5340   46.3120 C   0  0  0  0  0  0  0  0  0  0  0  0
   59.9810   27.7550   46.8830 C   0  0  0  0  0  0  0  0  0  0  0  0
   59.6630   26.4940   47.3870 C   0  0  0  0  0  0  0  0  0  0  0  0
   58.3910   26.0260   47.2950 N   0  0  0  0  0  0  0  0  0  0  0  0
   57.3850   26.7540   46.7340 C   0  0  0  0  0  0  0  0  0  0  0  0
   56.0820   26.1600   46.6200 N   0  0  0  0  0  0  0  0  0  0  0  0
   55.1760   26.7200   45.9700 O   0  0  0  0  0  0  0  0  0  0  0  0
   55.8850   24.8710   47.0590 O   0  0  0  0  0  0  0  0  0  0  0  0
   60.2780   33.9309   46.8902 H   0  0  0  0  0  0  0  0  0  0  0  0
   60.1423   32.8863   45.4353 H   0  0  0  0  0  0  0  0  0  0  0  0
   59.4088   34.5260   45.4353 H   0  0  0  0  0  0  0  0  0  0  0  0
   58.1153   32.7938   43.8004 H   0  0  0  0  0  0  0  0  0  0  0  0
   56.2078   29.8776   41.2419 H   0  0  0  0  0  0  0  0  0  0  0  0
   55.8834   28.3650   43.1970 H   0  0  0  0  0  0  0  0  0  0  0  0
   59.2154   29.5270   45.9043 H   0  0  0  0  0  0  0  0  0  0  0  0
   61.0135   28.1308   46.9353 H   0  0  0  0  0  0  0  0  0  0  0  0
   60.4425   25.8781   47.8592 H   0  0  0  0  0  0  0  0  0  0  0  0
  1  2  1  0
  2  3  2  0
  2  4  2  0
  2  5  1  0
  5  6  1  0
  6  7  2  0
  7  8  1  0
  8  9  1  0
  8 10  2  0
 10 11  1  0
 11 12  2  0
 12 13  1  0
 13 14  1  0
 14 15  2  0
 15 16  1  0
 16 17  2  0
 17 18  1  0
 18 19  2  0
 19 20  1  0
 20 21  2  0
 20 22  1  0
 12  6  1  0
 19 14  1  0
  1 23  1  0
  1 24  1  0
  1 25  1  0
  7 26  1  0
 10 27  1  0
 11 28  1  0
 15 29  1  0
 16 30  1  0
 17 31  1  0
M  CHG  3   5  -1  20   1  22  -1
M  END
>  <UniqueID>  (20) 
18

>  <SMILES>  (20) 
CS(=O)(=O)[N-]c1cc(Br)ccc1Oc1cccnc1[N+](=O)[O-]

>  <Energy>  (20) 
41.969269997411644

>  <Genealogy>  (20) 
CS(=O)(=O)[N-]c1cc(Br)ccc1Oc1cccnc1[N+](=O)[O-] (protonated)
CS(=O)(=O)[N-]c1cc(Br)ccc1Oc1cccnc1[N+](=O)[O-] (3D coordinates assigned)
CS(=O)(=O)[N-]c1cc(Br)ccc1Oc1cccnc1[N+](=O)[O-] (optimized conformer: 41.969269997411644 kcal/mol)

>  <smiles>  (20) 
CS(=O)(=O)Nc1cc(Br)ccc1Oc1cccnc1[N+](=O)[O-]

>  <score_type>  (20) 
oracle

>  <origin>  (20) 
adg

>  <m_score__min__energy>  (20) 
-9.7300000000000004

>  <m_primary>  (20) 
energy

$$$$
20:0
     RDKit          3D

 50 53  0  0  0  0  0  0  0  0999 V2000
   50.0350   32.9780   52.8100 C   0  0  0  0  0  0  0  0  0  0  0  0
   50.7000   32.3270   51.7330 O   0  0  0  0  0  0  0  0  0  0  0  0
   51.8340   31.5130   51.8780 C   0  0  0  0  0  0  0  0  0  0  0  0
   53.1350   31.9760   51.6020 C   0  0  0  0  0  0  0  0  0  0  0  0
   54.2330   31.1260   51.7650 C   0  0  0  0  0  0  0  0  0  0  0  0
   54.0560   29.8130   52.2140 C   0  0  0  0  0  0  0  0  0  0  0  0
   55.1840   28.9930   52.3580 O   0  0  0  0  0  0  0  0  0  0  0  0
   56.3120   29.3060   53.1330 C   0  0  0  0  0  0  0  0  0  0  0  0
   56.1940   29.3640   54.5200 C   0  0  0  0  0  0  0  0  0  0  0  0
   54.6550   29.0520   55.3080 Cl  0  0  0  0  0  0  0  0  0  0  0  0
   57.3050   29.7040   55.2850 C   0  0  0  0  0  0  0  0  0  0  0  0
   58.4910   29.9650   54.6740 N   0  0  0  0  0  0  0  0  0  0  0  0
   58.6370   29.8760   53.3450 N   0  0  0  0  0  0  0  0  0  0  0  0
   59.9360   30.2180   52.7460 C   0  0  0  0  0  0  0  0  0  0  0  0
   59.7250   31.0030   51.4800 C   0  0  0  0  0  0  0  0  0  0  0  0
   60.0340   30.4380   50.2330 C   0  0  0  0  0  0  0  0  0  0  0  0
   59.7850   31.1470   49.0540 C   0  0  0  0  0  0  0  0  0  0  0  0
   59.2150   32.4330   49.1010 C   0  0  0  0  0  0  0  0  0  0  0  0
   58.9440   33.1840   47.8480 C   0  0  0  0  0  0  0  0  0  0  0  0
   59.7520   34.2770   47.4800 C   0  0  0  0  0  0  0  0  0  0  0  0
   59.4940   34.9830   46.3020 C   0  0  0  0  0  0  0  0  0  0  0  0
   58.4300   34.6080   45.4780 C   0  0  0  0  0  0  0  0  0  0  0  0
   57.6210   33.5250   45.8320 C   0  0  0  0  0  0  0  0  0  0  0  0
   57.8750   32.8160   47.0100 C   0  0  0  0  0  0  0  0  0  0  0  0
   58.9020   32.9920   50.3530 C   0  0  0  0  0  0  0  0  0  0  0  0
   59.1510   32.2810   51.5300 C   0  0  0  0  0  0  0  0  0  0  0  0
   57.5710   29.5360   52.5510 C   0  0  0  0  0  0  0  0  0  0  0  0
   57.7160   29.4100   51.3050 O   0  0  0  0  0  0  0  0  0  0  0  0
   52.7550   29.3470   52.4730 C   0  0  0  0  0  0  0  0  0  0  0  0
   51.6560   30.1950   52.3110 C   0  0  0  0  0  0  0  0  0  0  0  0
   50.4244   32.5968   53.7655 H   0  0  0  0  0  0  0  0  0  0  0  0
   50.2116   34.0620   52.7484 H   0  0  0  0  0  0  0  0  0  0  0  0
   48.9550   32.7784   52.7484 H   0  0  0  0  0  0  0  0  0  0  0  0
   53.2878   33.0093   51.2572 H   0  0  0  0  0  0  0  0  0  0  0  0
   55.2449   31.4929   51.5382 H   0  0  0  0  0  0  0  0  0  0  0  0
   57.2241   29.7615   56.3805 H   0  0  0  0  0  0  0  0  0  0  0  0
   59.3000   30.2380   55.2770 H   0  0  0  0  0  0  0  0  0  0  0  0
   60.5179   30.8225   53.4573 H   0  0  0  0  0  0  0  0  0  0  0  0
   60.4818   29.2922   52.5115 H   0  0  0  0  0  0  0  0  0  0  0  0
   60.4747   29.4314   50.1829 H   0  0  0  0  0  0  0  0  0  0  0  0
   60.0364   30.6964   48.0825 H   0  0  0  0  0  0  0  0  0  0  0  0
   60.5918   34.5770   48.1240 H   0  0  0  0  0  0  0  0  0  0  0  0
   60.1301   35.8359   46.0229 H   0  0  0  0  0  0  0  0  0  0  0  0
   58.2291   35.1650   44.5510 H   0  0  0  0  0  0  0  0  0  0  0  0
   56.7833   33.2299   45.1831 H   0  0  0  0  0  0  0  0  0  0  0  0
   57.2347   31.9645   47.2837 H   0  0  0  0  0  0  0  0  0  0  0  0
   58.4577   33.9969   50.4062 H   0  0  0  0  0  0  0  0  0  0  0  0
   58.8949   32.7272   52.5023 H   0  0  0  0  0  0  0  0  0  0  0  0
   52.6014   28.3096   52.8049 H   0  0  0  0  0  0  0  0  0  0  0  0
   50.6433   29.8231   52.5257 H   0  0  0  0  0  0  0  0  0  0  0  0
  1  2  1  0
  2  3  1  0
  3  4  2  0
  4  5  1  0
  5  6  2  0
  6  7  1  0
  7  8  1  0
  8  9  2  0
  9 10  1  0
  9 11  1  0
 11 12  2  0
 12 13  1  0
 13 14  1  0
 14 15  1  0
 15 16  2  0
 16 17  1  0
 17 18  2  0
 18 19  1  0
 19 20  2  0
 20 21  1  0
 21 22  2  0
 22 23  1  0
 23 24  2  0
 18 25  1  0
 25 26  2  0
 13 27  1  0
 27 28  2  0
  6 29  1  0
 29 30  2  0
 30  3  1  0
 27  8  1  0
 26 15  1  0
 24 19  1  0
  1 31  1  0
  1 32  1  0
  1 33  1  0
  4 34  1  0
  5 35  1  0
 11 36  1  0
 12 37  1  0
 14 38  1  0
 14 39  1  0
 16 40  1  0
 17 41  1  0
 20 42  1  0
 21 43  1  0
 22 44  1  0
 23 45  1  0
 24 46  1  0
 25 47  1  0
 26 48  1  0
 29 49  1  0
 30 50  1  0
M  CHG  1  12   1
M  END
>  <UniqueID>  (21) 
19

>  <SMILES>  (21) 
COc1ccc(Oc2c(Cl)c[nH+]n(Cc3ccc(-c4ccccc4)cc3)c2=O)cc1

>  <Energy>  (21) 
67.70188270581626

>  <Genealogy>  (21) 
COc1ccc(Oc2c(Cl)c[nH+]n(Cc3ccc(-c4ccccc4)cc3)c2=O)cc1 (protonated)
COc1ccc(Oc2c(Cl)c[nH+]n(Cc3ccc(-c4ccccc4)cc3)c2=O)cc1 (3D coordinates assigned)
COc1ccc(Oc2c(Cl)c[nH+]n(Cc3ccc(-c4ccccc4)cc3)c2=O)cc1 (optimized conformer: 67.70188270581626 kcal/mol)

>  <smiles>  (21) 
COc1ccc(Oc2c(Cl)cnn(Cc3ccc(-c4ccccc4)cc3)c2=O)cc1

>  <score_type>  (21) 
oracle

>  <origin>  (21) 
adg

>  <m_score__min__energy>  (21) 
-7.2199999999999998

>  <m_primary>  (21) 
energy

$$$$
21:0
     RDKit          3D

 34 36  0  0  0  0  0  0  0  0999 V2000
   58.5640   30.7720   48.3100 O   0  0  0  0  0  0  0  0  0  0  0  0
   58.5520   30.8000   47.0510 C   0  0  0  0  0  0  0  0  0  0  0  0
   58.5240   29.5580   46.3350 N   0  0  0  0  0  0  0  0  0  0  0  0
   57.5260   29.2270   44.9520 S   0  0  0  0  0  0  0  0  0  0  0  0
   58.1010   29.9250   43.7530 O   0  0  0  0  0  0  0  0  0  0  0  0
   56.1410   29.7500   45.2030 O   0  0  0  0  0  0  0  0  0  0  0  0
   57.4880   27.4960   44.6210 C   0  0  0  0  0  0  0  0  0  0  0  0
   57.8760   26.9980   43.3710 C   0  0  0  0  0  0  0  0  0  0  0  0
   57.7640   25.6330   43.0920 C   0  0  0  0  0  0  0  0  0  0  0  0
   57.2660   24.7420   44.0590 C   0  0  0  0  0  0  0  0  0  0  0  0
   57.1360   23.3410   43.7480 N   0  0  0  0  0  0  0  0  0  0  0  0
   57.9180   22.3110   44.1310 C   0  0  0  0  0  0  0  0  0  0  0  0
   57.4240   21.1740   43.6190 N   0  0  0  0  0  0  0  0  0  0  0  0
   56.3460   21.5070   42.9270 N   0  0  0  0  0  0  0  0  0  0  0  0
   56.1710   22.8190   43.0060 N   0  0  0  0  0  0  0  0  0  0  0  0
   56.8970   25.2490   45.3200 C   0  0  0  0  0  0  0  0  0  0  0  0
   57.0100   26.6140   45.5970 C   0  0  0  0  0  0  0  0  0  0  0  0
   58.5440   32.1040   46.3640 C   0  0  0  0  0  0  0  0  0  0  0  0
   57.4360   32.4810   45.5890 C   0  0  0  0  0  0  0  0  0  0  0  0
   57.4400   33.6980   44.9000 C   0  0  0  0  0  0  0  0  0  0  0  0
   58.5410   34.5530   44.9970 C   0  0  0  0  0  0  0  0  0  0  0  0
   59.6360   34.1980   45.7900 C   0  0  0  0  0  0  0  0  0  0  0  0
   59.6370   32.9780   46.4760 C   0  0  0  0  0  0  0  0  0  0  0  0
   58.2702   27.6833   42.6062 H   0  0  0  0  0  0  0  0  0  0  0  0
   58.0685   25.2520   42.1060 H   0  0  0  0  0  0  0  0  0  0  0  0
   58.8159   22.3906   44.7614 H   0  0  0  0  0  0  0  0  0  0  0  0
   57.7970   20.2060   43.7310 H   0  0  0  0  0  0  0  0  0  0  0  0
   56.5168   24.5650   46.0931 H   0  0  0  0  0  0  0  0  0  0  0  0
   56.7219   26.9972   46.5870 H   0  0  0  0  0  0  0  0  0  0  0  0
   56.5616   31.8169   45.5234 H   0  0  0  0  0  0  0  0  0  0  0  0
   56.5760   33.9823   44.2814 H   0  0  0  0  0  0  0  0  0  0  0  0
   58.5460   35.5066   44.4487 H   0  0  0  0  0  0  0  0  0  0  0  0
   60.4969   34.8774   45.8749 H   0  0  0  0  0  0  0  0  0  0  0  0
   60.4967   32.7031   47.1048 H   0  0  0  0  0  0  0  0  0  0  0  0
  1  2  2  0
  2  3  1  0
  3  4  1  0
  4  5  2  0
  4  6  2  0
  4  7  1  0
  7  8  2  0
  8  9  1  0
  9 10  2  0
 10 11  1  0
 11 12  1  0
 12 13  2  0
 13 14  1  0
 14 15  2  0
 10 16  1  0
 16 17  2  0
  2 18  1  0
 18 19  2  0
 19 20  1  0
 20 21  2  0
 21 22  1  0
 22 23  2  0
 17  7  1  0
 23 18  1  0
 15 11  1  0
  8 24  1  0
  9 25  1  0
 12 26  1  0
 13 27  1  0
 16 28  1  0
 17 29  1  0
 19 30  1  0
 20 31  1  0
 21 32  1  0
 22 33  1  0
 23 34  1  0
M  CHG  2   3  -1  13   1
M  END
>  <UniqueID>  (22) 
20

>  <SMILES>  (22) 
O=C([N-]S(=O)(=O)c1ccc(-n2c[nH+]nn2)cc1)c1ccccc1

>  <Energy>  (22) 
84.75821967508458

>  <Genealogy>  (22) 
O=C([N-]S(=O)(=O)c1ccc(-n2c[nH+]nn2)cc1)c1ccccc1 (protonated)
O=C([N-]S(=O)(=O)c1ccc(-n2c[nH+]nn2)cc1)c1ccccc1 (3D coordinates assigned)
O=C([N-]S(=O)(=O)c1ccc(-n2c[nH+]nn2)cc1)c1ccccc1 (optimized conformer: 84.75821967508458 kcal/mol)

>  <smiles>  (22) 
O=C(NS(=O)(=O)c1ccc(-n2cnnn2)cc1)c1ccccc1

>  <score_type>  (22) 
oracle

>  <origin>  (22) 
adg

>  <m_score__min__energy>  (22) 
-9.2599999999999998

>  <m_primary>  (22) 
energy

$$$$
22:0
     RDKit          3D

 23 24  0  0  0  0  0  0  0  0999 V2000
   55.1450   26.8630   45.9860 O   0  0  0  0  0  0  0  0  0  0  0  0
   56.3720   26.2220   46.1190 C   0  0  0  0  0  0  0  0  0  0  0  0
   56.3960   24.8680   46.4720 C   0  0  0  0  0  0  0  0  0  0  0  0
   57.6160   24.2020   46.6460 C   0  0  0  0  0  0  0  0  0  0  0  0
   57.6470   22.8550   46.9980 O   0  0  0  0  0  0  0  0  0  0  0  0
   58.8150   24.8970   46.4670 C   0  0  0  0  0  0  0  0  0  0  0  0
   58.8000   26.2480   46.1120 C   0  0  0  0  0  0  0  0  0  0  0  0
   57.5810   26.9240   45.9260 C   0  0  0  0  0  0  0  0  0  0  0  0
   57.5860   28.3550   45.5390 C   0  0  0  0  0  0  0  0  0  0  0  0
   58.1580   29.3250   46.3820 C   0  0  0  0  0  0  0  0  0  0  0  0
   58.1510   30.6740   46.0150 C   0  0  0  0  0  0  0  0  0  0  0  0
   57.5710   31.0690   44.8070 C   0  0  0  0  0  0  0  0  0  0  0  0
   56.9920   30.1160   43.9660 C   0  0  0  0  0  0  0  0  0  0  0  0
   56.9970   28.7650   44.3290 C   0  0  0  0  0  0  0  0  0  0  0  0
   55.4509   24.3233   46.6137 H   0  0  0  0  0  0  0  0  0  0  0  0
   57.7680   22.5620   47.9610 H   0  0  0  0  0  0  0  0  0  0  0  0
   59.7748   24.3780   46.6062 H   0  0  0  0  0  0  0  0  0  0  0  0
   59.7492   26.7873   45.9769 H   0  0  0  0  0  0  0  0  0  0  0  0
   58.6136   29.0203   47.3357 H   0  0  0  0  0  0  0  0  0  0  0  0
   58.6030   31.4258   46.6787 H   0  0  0  0  0  0  0  0  0  0  0  0
   57.5703   32.1304   44.5182 H   0  0  0  0  0  0  0  0  0  0  0  0
   56.5315   30.4281   43.0170 H   0  0  0  0  0  0  0  0  0  0  0  0
   56.5376   28.0187   43.6642 H   0  0  0  0  0  0  0  0  0  0  0  0
  1  2  1  0
  2  3  2  0
  3  4  1  0
  4  5  1  0
  4  6  2  0
  6  7  1  0
  7  8  2  0
  8  9  1  0
  9 10  2  0
 10 11  1  0
 11 12  2  0
 12 13  1  0
 13 14  2  0
  8  2  1  0
 14  9  1  0
  3 15  1  0
  5 16  1  0
  6 17  1  0
  7 18  1  0
 10 19  1  0
 11 20  1  0
 12 21  1  0
 13 22  1  0
 14 23  1  0
M  CHG  1   1  -1
M  END
>  <UniqueID>  (23) 
21

>  <SMILES>  (23) 
[O-]c1cc(O)ccc1-c1ccccc1

>  <Energy>  (23) 
30.2134211692695

>  <Genealogy>  (23) 
[O-]c1cc(O)ccc1-c1ccccc1 (protonated)
[O-]c1cc(O)ccc1-c1ccccc1 (3D coordinates assigned)
[O-]c1cc(O)ccc1-c1ccccc1 (optimized conformer: 30.2134211692695 kcal/mol)

>  <smiles>  (23) 
Oc1ccc(-c2ccccc2)c(O)c1

>  <score_type>  (23) 
oracle

>  <origin>  (23) 
adg

>  <m_score__min__energy>  (23) 
-9.3599999999999994

>  <m_primary>  (23) 
energy

$$$$
23:0
     RDKit          3D

 60 63  0  0  0  0  0  0  0  0999 V2000
   58.1440   32.0080   42.0650 C   0  0  0  0  0  0  0  0  0  0  0  0
   57.6930   33.0480   42.9230 O   0  0  0  0  0  0  0  0  0  0  0  0
   58.0820   33.1960   44.2660 C   0  0  0  0  0  0  0  0  0  0  0  0
   59.1640   34.0190   44.6440 C   0  0  0  0  0  0  0  0  0  0  0  0
   59.5300   34.1250   45.9920 C   0  0  0  0  0  0  0  0  0  0  0  0
   58.8310   33.4060   46.9750 C   0  0  0  0  0  0  0  0  0  0  0  0
   57.7620   32.5810   46.6120 C   0  0  0  0  0  0  0  0  0  0  0  0
   57.3800   32.4800   45.2550 C   0  0  0  0  0  0  0  0  0  0  0  0
   56.2640   31.6690   44.8630 N   0  0  0  0  0  0  0  0  0  0  0  0
   56.3700   30.0080   44.3940 S   0  0  0  0  0  0  0  0  0  0  0  0
   56.3940   29.9370   42.8900 O   0  0  0  0  0  0  0  0  0  0  0  0
   55.1430   29.2840   44.8830 O   0  0  0  0  0  0  0  0  0  0  0  0
   57.7980   29.2100   45.0700 C   0  0  0  0  0  0  0  0  0  0  0  0
   58.3490   29.6970   46.2720 C   0  0  0  0  0  0  0  0  0  0  0  0
   59.4950   29.1100   46.8330 C   0  0  0  0  0  0  0  0  0  0  0  0
   60.0430   29.6580   48.0510 N   0  0  0  0  0  0  0  0  0  0  0  0
   60.3870   28.8710   49.2030 C   0  0  0  0  0  0  0  0  0  0  0  0
   60.0350   27.6620   49.2890 O   0  0  0  0  0  0  0  0  0  0  0  0
   61.1200   29.5030   50.3460 C   0  0  0  0  0  0  0  0  0  0  0  0
   60.4080   31.1350   50.7590 S   0  0  0  0  0  0  0  0  0  0  0  0
   59.5480   30.6320   52.2960 C   0  0  0  0  0  0  0  0  0  0  0  0
   58.0900   30.9890   52.2570 C   0  0  0  0  0  0  0  0  0  0  0  0
   57.0940   30.0840   52.2170 N   0  0  0  0  0  0  0  0  0  0  0  0
   55.9770   30.8450   52.2250 C   0  0  0  0  0  0  0  0  0  0  0  0
   54.6110   30.2930   52.1760 C   0  0  0  0  0  0  0  0  0  0  0  0
   54.2540   29.2210   53.0110 C   0  0  0  0  0  0  0  0  0  0  0  0
   52.9630   28.6950   52.9630 C   0  0  0  0  0  0  0  0  0  0  0  0
   52.0210   29.2330   52.0820 C   0  0  0  0  0  0  0  0  0  0  0  0
   50.7730   28.7210   52.0370 F   0  0  0  0  0  0  0  0  0  0  0  0
   52.3650   30.3010   51.2510 C   0  0  0  0  0  0  0  0  0  0  0  0
   53.6530   30.8310   51.2970 C   0  0  0  0  0  0  0  0  0  0  0  0
   56.2430   32.1330   52.2860 O   0  0  0  0  0  0  0  0  0  0  0  0
   57.5440   32.2560   52.3200 C   0  0  0  0  0  0  0  0  0  0  0  0
   58.2670   33.5640   52.3820 C   0  0  0  0  0  0  0  0  0  0  0  0
   60.1160   28.0410   46.1590 C   0  0  0  0  0  0  0  0  0  0  0  0
   59.5690   27.5450   44.9670 C   0  0  0  0  0  0  0  0  0  0  0  0
   58.4120   28.1190   44.4190 C   0  0  0  0  0  0  0  0  0  0  0  0
   57.7730   27.4540   42.9090 Cl  0  0  0  0  0  0  0  0  0  0  0  0
   58.5093   31.1655   42.6706 H   0  0  0  0  0  0  0  0  0  0  0  0
   57.3118   31.6696   41.4302 H   0  0  0  0  0  0  0  0  0  0  0  0
   58.9598   32.3842   41.4302 H   0  0  0  0  0  0  0  0  0  0  0  0
   59.7214   34.5786   43.8784 H   0  0  0  0  0  0  0  0  0  0  0  0
   60.3690   34.7746   46.2819 H   0  0  0  0  0  0  0  0  0  0  0  0
   59.1247   33.4919   48.0316 H   0  0  0  0  0  0  0  0  0  0  0  0
   57.2194   32.0117   47.3811 H   0  0  0  0  0  0  0  0  0  0  0  0
   57.8742   30.5501   46.7788 H   0  0  0  0  0  0  0  0  0  0  0  0
   60.0940   30.7020   48.1410 H   0  0  0  0  0  0  0  0  0  0  0  0
   61.0490   28.8466   51.2258 H   0  0  0  0  0  0  0  0  0  0  0  0
   62.1711   29.6432   50.0535 H   0  0  0  0  0  0  0  0  0  0  0  0
   59.6456   29.5433   52.4195 H   0  0  0  0  0  0  0  0  0  0  0  0
   60.0102   31.1665   53.1390 H   0  0  0  0  0  0  0  0  0  0  0  0
   54.9944   28.7954   53.7043 H   0  0  0  0  0  0  0  0  0  0  0  0
   52.6863   27.8564   53.6189 H   0  0  0  0  0  0  0  0  0  0  0  0
   51.6201   30.7236   50.5607 H   0  0  0  0  0  0  0  0  0  0  0  0
   53.9220   31.6737   50.6432 H   0  0  0  0  0  0  0  0  0  0  0  0
   58.4234   33.8470   53.4334 H   0  0  0  0  0  0  0  0  0  0  0  0
   59.2407   33.4689   51.8791 H   0  0  0  0  0  0  0  0  0  0  0  0
   57.6686   34.3379   51.8791 H   0  0  0  0  0  0  0  0  0  0  0  0
   61.0334   27.5935   46.5690 H   0  0  0  0  0  0  0  0  0  0  0  0
   60.0514   26.6982   44.4569 H   0  0  0  0  0  0  0  0  0  0  0  0
  1  2  1  0
  2  3  1  0
  3  4  2  0
  4  5  1  0
  5  6  2  0
  6  7  1  0
  7  8  2  0
  8  9  1  0
  9 10  1  0
 10 11  2  0
 10 12  2  0
 10 13  1  0
 13 14  2  0
 14 15  1  0
 15 16  1  0
 16 17  1  0
 17 18  2  0
 17 19  1  0
 19 20  1  0
 20 21  1  0
 21 22  1  0
 22 23  1  0
 23 24  2  0
 24 25  1  0
 25 26  2  0
 26 27  1  0
 27 28  2  0
 28 29  1  0
 28 30  1  0
 30 31  2  0
 24 32  1  0
 32 33  1  0
 33 34  1  0
 15 35  2  0
 35 36  1  0
 36 37  2  0
 37 38  1  0
  8  3  1  0
 37 13  1  0
 33 22  2  0
 31 25  1  0
  1 39  1  0
  1 40  1  0
  1 41  1  0
  4 42  1  0
  5 43  1  0
  6 44  1  0
  7 45  1  0
 14 46  1  0
 16 47  1  0
 19 48  1  0
 19 49  1  0
 21 50  1  0
 21 51  1  0
 26 52  1  0
 27 53  1  0
 30 54  1  0
 31 55  1  0
 34 56  1  0
 34 57  1  0
 34 58  1  0
 35 59  1  0
 36 60  1  0
M  CHG  1   9  -1
M  END
>  <UniqueID>  (24) 
22

>  <SMILES>  (24) 
COc1ccccc1[N-]S(=O)(=O)c1cc(NC(=O)CSCc2nc(-c3ccc(F)cc3)oc2C)ccc1Cl

>  <Energy>  (24) 
98.35467121815387

>  <Genealogy>  (24) 
COc1ccccc1[N-]S(=O)(=O)c1cc(NC(=O)CSCc2nc(-c3ccc(F)cc3)oc2C)ccc1Cl (protonated)
COc1ccccc1[N-]S(=O)(=O)c1cc(NC(=O)CSCc2nc(-c3ccc(F)cc3)oc2C)ccc1Cl (3D coordinates assigned)
COc1ccccc1[N-]S(=O)(=O)c1cc(NC(=O)CSCc2nc(-c3ccc(F)cc3)oc2C)ccc1Cl (optimized conformer: 98.35467121815387 kcal/mol)

>  <smiles>  (24) 
COc1ccccc1NS(=O)(=O)c1cc(NC(=O)CSCc2nc(-c3ccc(F)cc3)oc2C)ccc1Cl

>  <score_type>  (24) 
oracle

>  <origin>  (24) 
adg

>  <m_score__min__energy>  (24) 
-11.109999999999999

>  <m_primary>  (24) 
energy

$$$$
24:0
     RDKit          3D

 48 51  0  0  0  0  0  0  0  0999 V2000
   55.4160   30.2200   44.4650 O   0  0  0  0  0  0  0  0  0  0  0  0
   56.6280   30.2370   44.1110 C   0  0  0  0  0  0  0  0  0  0  0  0
   57.0690   31.2120   43.0850 C   0  0  0  0  0  0  0  0  0  0  0  0
   58.0350   32.1250   43.2650 C   0  0  0  0  0  0  0  0  0  0  0  0
   58.1850   32.9780   44.4630 C   0  0  0  0  0  0  0  0  0  0  0  0
   59.1780   33.9770   44.5290 C   0  0  0  0  0  0  0  0  0  0  0  0
   59.3370   34.7300   45.6930 C   0  0  0  0  0  0  0  0  0  0  0  0
   58.5250   34.4890   46.8040 C   0  0  0  0  0  0  0  0  0  0  0  0
   57.5500   33.4900   46.7530 C   0  0  0  0  0  0  0  0  0  0  0  0
   57.3910   32.7270   45.5920 C   0  0  0  0  0  0  0  0  0  0  0  0
   57.5920   29.3210   44.7780 C   0  0  0  0  0  0  0  0  0  0  0  0
   58.9710   29.4620   44.5450 C   0  0  0  0  0  0  0  0  0  0  0  0
   59.8930   28.6240   45.1810 C   0  0  0  0  0  0  0  0  0  0  0  0
   59.4510   27.6270   46.0690 C   0  0  0  0  0  0  0  0  0  0  0  0
   60.3350   26.7650   46.7340 O   0  0  0  0  0  0  0  0  0  0  0  0
   60.7270   26.9020   48.0980 C   0  0  0  0  0  0  0  0  0  0  0  0
   59.8970   27.8640   48.7390 O   0  0  0  0  0  0  0  0  0  0  0  0
   60.1330   29.2460   48.7400 C   0  0  0  0  0  0  0  0  0  0  0  0
   59.3470   30.0490   49.5770 C   0  0  0  0  0  0  0  0  0  0  0  0
   59.5420   31.4330   49.6250 C   0  0  0  0  0  0  0  0  0  0  0  0
   60.5270   32.0290   48.8270 C   0  0  0  0  0  0  0  0  0  0  0  0
   60.7520   33.4090   48.8480 C   0  0  0  0  0  0  0  0  0  0  0  0
   61.7410   33.9550   48.0310 C   0  0  0  0  0  0  0  0  0  0  0  0
   62.4860   33.1040   47.2070 C   0  0  0  0  0  0  0  0  0  0  0  0
   63.3820   33.5780   46.4600 O   0  0  0  0  0  0  0  0  0  0  0  0
   62.2540   31.7930   47.2080 O   0  0  0  0  0  0  0  0  0  0  0  0
   61.3210   31.2310   47.9740 C   0  0  0  0  0  0  0  0  0  0  0  0
   61.1260   29.8440   47.9360 C   0  0  0  0  0  0  0  0  0  0  0  0
   58.0790   27.4840   46.3040 C   0  0  0  0  0  0  0  0  0  0  0  0
   57.1570   28.3240   45.6730 C   0  0  0  0  0  0  0  0  0  0  0  0
   56.5682   31.1847   42.1060 H   0  0  0  0  0  0  0  0  0  0  0  0
   58.7729   32.2486   42.4586 H   0  0  0  0  0  0  0  0  0  0  0  0
   59.8283   34.1630   43.6615 H   0  0  0  0  0  0  0  0  0  0  0  0
   60.1048   35.5165   45.7360 H   0  0  0  0  0  0  0  0  0  0  0  0
   58.6535   35.0859   47.7190 H   0  0  0  0  0  0  0  0  0  0  0  0
   56.9073   33.3035   47.6261 H   0  0  0  0  0  0  0  0  0  0  0  0
   56.6387   31.9250   45.5638 H   0  0  0  0  0  0  0  0  0  0  0  0
   59.3292   30.2400   43.8548 H   0  0  0  0  0  0  0  0  0  0  0  0
   60.9687   28.7454   44.9857 H   0  0  0  0  0  0  0  0  0  0  0  0
   60.6245   25.9325   48.6075 H   0  0  0  0  0  0  0  0  0  0  0  0
   61.7746   27.2340   48.1454 H   0  0  0  0  0  0  0  0  0  0  0  0
   58.5692   29.5864   50.2023 H   0  0  0  0  0  0  0  0  0  0  0  0
   58.9222   32.0533   50.2891 H   0  0  0  0  0  0  0  0  0  0  0  0
   60.1535   34.0585   49.5038 H   0  0  0  0  0  0  0  0  0  0  0  0
   61.9328   35.0382   48.0341 H   0  0  0  0  0  0  0  0  0  0  0  0
   61.7485   29.2201   47.2778 H   0  0  0  0  0  0  0  0  0  0  0  0
   57.7226   26.7031   46.9919 H   0  0  0  0  0  0  0  0  0  0  0  0
   56.0826   28.2055   45.8771 H   0  0  0  0  0  0  0  0  0  0  0  0
  1  2  2  0
  2  3  1  0
  3  4  2  3
  4  5  1  0
  5  6  2  0
  6  7  1  0
  7  8  2  0
  8  9  1  0
  9 10  2  0
  2 11  1  0
 11 12  2  0
 12 13  1  0
 13 14  2  0
 14 15  1  0
 15 16  1  0
 16 17  1  0
 17 18  1  0
 18 19  2  0
 19 20  1  0
 20 21  2  0
 21 22  1  0
 22 23  2  0
 23 24  1  0
 24 25  2  0
 24 26  1  0
 26 27  1  0
 27 28  2  0
 14 29  1  0
 29 30  2  0
 10  5  1  0
 30 11  1  0
 28 18  1  0
 27 21  1  0
  3 31  1  0
  4 32  1  0
  6 33  1  0
  7 34  1  0
  8 35  1  0
  9 36  1  0
 10 37  1  0
 12 38  1  0
 13 39  1  0
 16 40  1  0
 16 41  1  0
 19 42  1  0
 20 43  1  0
 22 44  1  0
 23 45  1  0
 28 46  1  0
 29 47  1  0
 30 48  1  0
M  END
>  <UniqueID>  (25) 
23

>  <SMILES>  (25) 
O=C(C=Cc1ccccc1)c1ccc(OCOc2ccc3ccc(=O)oc3c2)cc1

>  <Energy>  (25) 
67.02480742718757

>  <Genealogy>  (25) 
O=C(C=Cc1ccccc1)c1ccc(OCOc2ccc3ccc(=O)oc3c2)cc1 (3D coordinates assigned)
O=C(C=Cc1ccccc1)c1ccc(OCOc2ccc3ccc(=O)oc3c2)cc1 (optimized conformer: 67.02480742718757 kcal/mol)

>  <smiles>  (25) 
O=C(C=Cc1ccccc1)c1ccc(OCOc2ccc3ccc(=O)oc3c2)cc1

>  <score_type>  (25) 
oracle

>  <origin>  (25) 
adg

>  <m_score__min__energy>  (25) 
-8.7699999999999996

>  <m_primary>  (25) 
energy

$$$$
25:0
     RDKit          3D

 53 56  0  0  0  0  0  0  0  0999 V2000
   55.1490   26.5080   46.1000 N   0  0  0  0  0  0  0  0  0  0  0  0
   56.8590   26.7490   46.0230 S   0  0  0  0  0  0  0  0  0  0  0  0
   57.4260   26.7420   47.4140 O   0  0  0  0  0  0  0  0  0  0  0  0
   57.4900   25.6310   45.2400 O   0  0  0  0  0  0  0  0  0  0  0  0
   57.2010   28.2900   45.2440 C   0  0  0  0  0  0  0  0  0  0  0  0
   58.5260   28.6820   45.0110 C   0  0  0  0  0  0  0  0  0  0  0  0
   58.7980   29.8990   44.3780 C   0  0  0  0  0  0  0  0  0  0  0  0
   57.7490   30.7370   43.9690 C   0  0  0  0  0  0  0  0  0  0  0  0
   58.0470   32.0350   43.2640 C   0  0  0  0  0  0  0  0  0  0  0  0
   57.6200   33.2470   44.1030 C   0  0  0  0  0  0  0  0  0  0  0  0
   58.0860   33.1410   45.4860 N   0  0  0  0  0  0  0  0  0  0  0  0
   59.0990   34.0180   46.0010 C   0  0  0  0  0  0  0  0  0  0  0  0
   59.5150   34.9720   45.2880 O   0  0  0  0  0  0  0  0  0  0  0  0
   59.6500   33.8390   47.3670 C   0  0  0  0  0  0  0  0  0  0  0  0
   60.9610   34.2410   47.6810 C   0  0  0  0  0  0  0  0  0  0  0  0
   61.4670   34.0610   48.9710 C   0  0  0  0  0  0  0  0  0  0  0  0
   60.6770   33.4600   49.9660 C   0  0  0  0  0  0  0  0  0  0  0  0
   61.1560   33.3030   51.3090 N   0  0  0  0  0  0  0  0  0  0  0  0
   60.4380   33.0090   52.3540 C   0  0  0  0  0  0  0  0  0  0  0  0
   60.2760   31.6830   52.8440 N   0  0  0  0  0  0  0  0  0  0  0  0
   59.2190   31.5810   53.8390 C   0  0  2  0  0  0  0  0  0  0  0  0
   58.4040   30.2930   53.6760 C   0  0  0  0  0  0  0  0  0  0  0  0
   57.0390   30.7150   52.6390 S   0  0  0  0  0  0  0  0  0  0  0  0
   57.1920   30.1260   51.2650 O   0  0  0  0  0  0  0  0  0  0  0  0
   55.7310   30.3000   53.2530 O   0  0  0  0  0  0  0  0  0  0  0  0
   57.2120   32.4730   52.6090 C   0  0  0  0  0  0  0  0  0  0  0  0
   58.2980   32.8060   53.6410 C   0  0  2  0  0  0  0  0  0  0  0  0
   59.3300   34.2040   53.0640 S   0  0  0  0  0  0  0  0  0  0  0  0
   59.3580   33.1050   49.6700 C   0  0  0  0  0  0  0  0  0  0  0  0
   58.8490   33.2840   48.3800 C   0  0  0  0  0  0  0  0  0  0  0  0
   56.4210   30.3370   44.1980 C   0  0  0  0  0  0  0  0  0  0  0  0
   56.1510   29.1200   44.8300 C   0  0  0  0  0  0  0  0  0  0  0  0
   54.7690   26.7210   45.1500 H   0  0  0  0  0  0  0  0  0  0  0  0
   59.3543   28.0308   45.3268 H   0  0  0  0  0  0  0  0  0  0  0  0
   59.8405   30.2013   44.1996 H   0  0  0  0  0  0  0  0  0  0  0  0
   59.1285   32.0968   43.0728 H   0  0  0  0  0  0  0  0  0  0  0  0
   57.4789   32.0523   42.3222 H   0  0  0  0  0  0  0  0  0  0  0  0
   58.0424   34.1579   43.6536 H   0  0  0  0  0  0  0  0  0  0  0  0
   56.5207   33.2853   44.1143 H   0  0  0  0  0  0  0  0  0  0  0  0
   57.6430   32.4440   46.1240 H   0  0  0  0  0  0  0  0  0  0  0  0
   61.5921   34.7001   46.9058 H   0  0  0  0  0  0  0  0  0  0  0  0
   62.4889   34.3914   49.2090 H   0  0  0  0  0  0  0  0  0  0  0  0
   60.6930   30.8440   52.3840 H   0  0  0  0  0  0  0  0  0  0  0  0
   59.6594   31.5562   54.8467 H   0  0  0  0  0  0  0  0  0  0  0  0
   59.0157   29.5099   53.2042 H   0  0  0  0  0  0  0  0  0  0  0  0
   58.0683   29.9009   54.6473 H   0  0  0  0  0  0  0  0  0  0  0  0
   57.5190   32.8103   51.6080 H   0  0  0  0  0  0  0  0  0  0  0  0
   56.2628   32.9765   52.8446 H   0  0  0  0  0  0  0  0  0  0  0  0
   57.8017   33.0763   54.5847 H   0  0  0  0  0  0  0  0  0  0  0  0
   58.7162   32.6821   50.4569 H   0  0  0  0  0  0  0  0  0  0  0  0
   57.8135   32.9881   48.1561 H   0  0  0  0  0  0  0  0  0  0  0  0
   55.5910   30.9844   43.8785 H   0  0  0  0  0  0  0  0  0  0  0  0
   55.1092   28.8124   45.0032 H   0  0  0  0  0  0  0  0  0  0  0  0
  1  2  1  0
  2  3  2  0
  2  4  2  0
  2  5  1  0
  5  6  2  0
  6  7  1  0
  7  8  2  0
  8  9  1  0
  9 10  1  0
 10 11  1  0
 11 12  1  0
 12 13  2  0
 12 14  1  0
 14 15  2  0
 15 16  1  0
 16 17  2  0
 17 18  1  0
 18 19  2  3
 19 20  1  0
 20 21  1  0
 21 22  1  0
 22 23  1  0
 23 24  2  0
 23 25  2  0
 23 26  1  0
 26 27  1  0
 27 28  1  0
 17 29  1  0
 29 30  2  0
  8 31  1  0
 31 32  2  0
 32  5  1  0
 30 14  1  0
 28 19  1  0
 27 21  1  0
  1 33  1  0
  6 34  1  0
  7 35  1  0
  9 36  1  0
  9 37  1  0
 10 38  1  0
 10 39  1  0
 11 40  1  0
 15 41  1  0
 16 42  1  0
 20 43  1  0
 21 44  1  1
 22 45  1  0
 22 46  1  0
 26 47  1  0
 26 48  1  0
 27 49  1  1
 29 50  1  0
 30 51  1  0
 31 52  1  0
 32 53  1  0
M  CHG  1   1  -1
M  END
>  <UniqueID>  (26) 
24

>  <SMILES>  (26) 
[NH-]S(=O)(=O)c1ccc(CCNC(=O)c2ccc(N=C3N[C@@H]4CS(=O)(=O)C[C@@H]4S3)cc2)cc1

>  <Energy>  (26) 
65.97168381265314

>  <Genealogy>  (26) 
[NH-]S(=O)(=O)c1ccc(CCNC(=O)c2ccc(N=C3NC4CS(=O)(=O)CC4S3)cc2)cc1 (protonated)
[NH-]S(=O)(=O)c1ccc(CCNC(=O)c2ccc(N=C3N[C@@H]4CS(=O)(=O)C[C@@H]4S3)cc2)cc1 (chirality)
[NH-]S(=O)(=O)c1ccc(CCNC(=O)c2ccc(N=C3N[C@@H]4CS(=O)(=O)C[C@@H]4S3)cc2)cc1 (3D coordinates assigned)
[NH-]S(=O)(=O)c1ccc(CCNC(=O)c2ccc(N=C3N[C@@H]4CS(=O)(=O)C[C@@H]4S3)cc2)cc1 (nonaromatic ring conformer: 65.97168381265314 kcal/mol)

>  <smiles>  (26) 
NS(=O)(=O)c1ccc(CCNC(=O)c2ccc(N=C3NC4CS(=O)(=O)CC4S3)cc2)cc1

>  <score_type>  (26) 
oracle

>  <origin>  (26) 
adg

>  <m_score__min__energy>  (26) 
-12.300000000000001

>  <m_primary>  (26) 
energy

$$$$
26:0
     RDKit          3D

 29 31  0  0  1  0  0  0  0  0999 V2000
   65.2400   32.7830   49.5610 C   0  0  0  0  0  0  0  0  0  0  0  0
   63.9700   33.0070   48.8510 C   0  0  0  0  0  0  0  0  0  0  0  0
   62.7790   33.4380   49.3810 C   0  0  0  0  0  0  0  0  0  0  0  0
   61.8900   33.4920   48.3340 C   0  0  0  0  0  0  0  0  0  0  0  0
   60.6700   33.8330   48.3350 N   0  0  0  0  0  0  0  0  0  0  0  0
   59.8660   33.7890   47.0780 C   0  0  0  0  0  0  0  0  0  0  0  0
   59.2660   32.9800   46.4380 N   0  0  0  0  0  0  0  0  0  0  0  0
   58.6000   33.1360   45.3230 C   0  0  0  0  0  0  0  0  0  0  0  0
   57.8900   32.0870   44.6020 C   0  0  0  0  0  0  0  0  0  0  0  0
   57.7430   32.1330   43.2320 C   0  0  0  0  0  0  0  0  0  0  0  0
   57.0720   31.1450   42.5280 C   0  0  0  0  0  0  0  0  0  0  0  0
   56.5370   30.0880   43.2140 C   0  0  0  0  0  0  0  0  0  0  0  0
   56.7070   30.0780   44.5990 C   0  0  0  0  0  0  0  0  0  0  0  0
   57.3650   31.0550   45.2480 N   0  0  0  0  0  0  0  0  0  0  0  0
   58.6390   34.4780   44.8710 C   0  0  0  0  0  0  0  0  0  0  0  0
   59.6460   35.3600   46.1270 S   0  0  0  0  0  0  0  0  0  0  0  0
   62.5470   33.1010   47.2050 N   0  0  0  0  0  0  0  0  0  0  0  0
   63.7960   32.8130   47.5400 N   0  0  0  0  0  0  0  0  0  0  0  0
   65.0637   32.8141   50.6463 H   0  0  0  0  0  0  0  0  0  0  0  0
   65.6466   31.7993   49.2836 H   0  0  0  0  0  0  0  0  0  0  0  0
   65.9586   33.5683   49.2836 H   0  0  0  0  0  0  0  0  0  0  0  0
   62.5768   33.6896   50.4326 H   0  0  0  0  0  0  0  0  0  0  0  0
   58.1723   32.9816   42.6792 H   0  0  0  0  0  0  0  0  0  0  0  0
   56.9710   31.2094   41.4345 H   0  0  0  0  0  0  0  0  0  0  0  0
   55.9967   29.2818   42.6961 H   0  0  0  0  0  0  0  0  0  0  0  0
   56.2886   29.2427   45.1797 H   0  0  0  0  0  0  0  0  0  0  0  0
   58.1704   34.8978   43.9687 H   0  0  0  0  0  0  0  0  0  0  0  0
   62.1270   33.0410   46.2440 H   0  0  0  0  0  0  0  0  0  0  0  0
   64.5420   32.4820   46.8710 H   0  0  0  0  0  0  0  0  0  0  0  0
  1  2  1  0
  2  3  2  0
  3  4  1  0
  4  5  2  0
  5  6  1  0
  6  7  2  0
  7  8  1  0
  8  9  1  0
  9 10  2  0
 10 11  1  0
 11 12  2  0
 12 13  1  0
 13 14  2  0
  8 15  2  0
 15 16  1  0
  4 17  1  0
 17 18  1  0
 18  2  1  0
 16  6  1  0
 14  9  1  0
  1 19  1  0
  1 20  1  0
  1 21  1  0
  3 22  1  0
 10 23  1  0
 11 24  1  0
 12 25  1  0
 13 26  1  0
 15 27  1  0
 17 28  1  0
 18 29  1  0
M  END
>  <smiles>  (27) 
Cc1cc(=Nc2nc(-c3ccccn3)cs2)[nH][nH]1

>  <score_type>  (27) 
oracle

>  <origin>  (27) 
adg

>  <m_score__min__energy>  (27) 
-7.7800000000000002

>  <m_primary>  (27) 
energy

$$$$
27:0
     RDKit          3D

 34 36  0  0  0  0  0  0  0  0999 V2000
   55.7143   25.5365   46.2321 H   0  0  0  0  0  0  0  0  0  0  0  0
   56.3950   26.3660   45.9900 C   0  0  0  0  0  0  0  0  0  0  0  0
   55.8900   27.5730   45.6210 N   0  0  0  0  0  0  0  0  0  0  0  0
   56.6870   28.6340   45.3200 C   0  0  0  0  0  0  0  0  0  0  0  0
   56.1230   29.7480   44.9470 N   0  0  0  0  0  0  0  0  0  0  0  0
   56.6840   30.7690   44.1060 C   0  0  0  0  0  0  0  0  0  0  0  0
   56.5900   30.6650   42.7070 C   0  0  0  0  0  0  0  0  0  0  0  0
   56.0057   29.8483   42.2580 H   0  0  0  0  0  0  0  0  0  0  0  0
   57.2330   31.5910   41.8840 C   0  0  0  0  0  0  0  0  0  0  0  0
   57.1346   31.5163   40.7910 H   0  0  0  0  0  0  0  0  0  0  0  0
   58.0010   32.6120   42.4470 C   0  0  0  0  0  0  0  0  0  0  0  0
   58.5112   33.3382   41.7971 H   0  0  0  0  0  0  0  0  0  0  0  0
   58.1220   32.7120   43.8350 C   0  0  0  0  0  0  0  0  0  0  0  0
   58.7429   33.5072   44.2733 H   0  0  0  0  0  0  0  0  0  0  0  0
   57.4570   31.8050   44.6740 C   0  0  0  0  0  0  0  0  0  0  0  0
   57.6050   31.9340   46.0970 N   0  0  0  0  0  0  0  0  0  0  0  0
   57.0230   31.3170   46.7060 H   0  0  0  0  0  0  0  0  0  0  0  0
   58.5660   32.8000   46.7260 C   0  0  0  0  0  0  0  0  0  0  0  0
   58.3570   34.1880   46.7140 C   0  0  0  0  0  0  0  0  0  0  0  0
   57.4606   34.6021   46.2291 H   0  0  0  0  0  0  0  0  0  0  0  0
   59.2820   35.0470   47.3150 C   0  0  0  0  0  0  0  0  0  0  0  0
   59.1164   36.1343   47.2936 H   0  0  0  0  0  0  0  0  0  0  0  0
   60.4170   34.5260   47.9430 C   0  0  0  0  0  0  0  0  0  0  0  0
   61.1486   35.2037   48.4072 H   0  0  0  0  0  0  0  0  0  0  0  0
   60.6220   33.1450   47.9810 C   0  0  0  0  0  0  0  0  0  0  0  0
   61.5118   32.7353   48.4814 H   0  0  0  0  0  0  0  0  0  0  0  0
   59.6980   32.2830   47.3840 C   0  0  0  0  0  0  0  0  0  0  0  0
   59.8561   31.1953   47.4285 H   0  0  0  0  0  0  0  0  0  0  0  0
   58.0890   28.4730   45.3710 C   0  0  0  0  0  0  0  0  0  0  0  0
   58.7535   29.3119   45.1166 H   0  0  0  0  0  0  0  0  0  0  0  0
   58.6240   27.2400   45.7470 C   0  0  0  0  0  0  0  0  0  0  0  0
   59.7147   27.1055   45.7950 H   0  0  0  0  0  0  0  0  0  0  0  0
   57.7760   26.1780   46.0620 C   0  0  0  0  0  0  0  0  0  0  0  0
   58.1906   25.2047   46.3633 H   0  0  0  0  0  0  0  0  0  0  0  0
  1  2  1  0
  2  3  1  0
  3  4  1  0
  4  5  2  0
  5  6  1  0
  6  7  2  0
  7  8  1  0
  7  9  1  0
  9 10  1  0
  9 11  2  0
 11 12  1  0
 11 13  1  0
 13 14  1  0
 13 15  2  0
 15 16  1  0
 16 17  1  0
 16 18  1  0
 18 19  2  0
 19 20  1  0
 19 21  1  0
 21 22  1  0
 21 23  2  0
 23 24  1  0
 23 25  1  0
 25 26  1  0
 25 27  2  0
 27 28  1  0
  4 29  1  0
 29 30  1  0
 29 31  2  0
 31 32  1  0
 31 33  1  0
 33 34  1  0
 33  2  2  0
 15  6  1  0
 27 18  1  0
M  CHG  1   3  -1
M  END
>  <UniqueID>  (28) 
25

>  <SMILES>  (28) 
c1ccc(Nc2ccccc2/N=c2\cccc[n-]2)cc1

>  <Energy>  (28) 
52.168239461907135

>  <Genealogy>  (28) 
c1ccc(Nc2ccccc2N=c2cccc[n-]2)cc1 (protonated)
c1ccc(Nc2ccccc2/N=c2\cccc[n-]2)cc1 (cis-trans isomerization)
c1ccc(Nc2ccccc2/N=c2\cccc[n-]2)cc1 (3D coordinates assigned)
c1ccc(Nc2ccccc2/N=c2\cccc[n-]2)cc1 (optimized conformer: 52.168239461907135 kcal/mol)

>  <smiles>  (28) 
c1ccc(Nc2ccccc2N=c2cccc[nH]2)cc1

>  <score_type>  (28) 
oracle

>  <origin>  (28) 
adg

>  <m_score__min__energy>  (28) 
-9.4100000000000001

>  <m_primary>  (28) 
energy

$$$$
28:0
     RDKit          3D

 37 39  0  0  0  0  0  0  0  0999 V2000
   60.2880   30.8820   48.8330 N   0  0  0  0  0  0  0  0  0  0  0  0
   59.6670   31.1470   47.8940 C   0  0  0  0  0  0  0  0  0  0  0  0
   58.8940   31.4790   46.7230 C   0  0  0  0  0  0  0  0  0  0  0  0
   58.2070   30.4590   46.0500 C   0  0  0  0  0  0  0  0  0  0  0  0
   57.4920   30.7390   44.8790 C   0  0  0  0  0  0  0  0  0  0  0  0
   56.6080   29.4560   44.0600 S   0  0  0  0  0  0  0  0  0  0  0  0
   57.5630   28.6820   43.1970 O   0  0  0  0  0  0  0  0  0  0  0  0
   55.5220   30.0290   43.1930 O   0  0  0  0  0  0  0  0  0  0  0  0
   55.8970   28.3780   45.2230 N   0  0  0  0  0  0  0  0  0  0  0  0
   56.3860   27.2410   45.6270 C   0  0  0  0  0  0  0  0  0  0  0  0
   57.7730   26.9900   45.6940 C   0  0  0  0  0  0  0  0  0  0  0  0
   58.2250   25.7420   46.1260 C   0  0  0  0  0  0  0  0  0  0  0  0
   57.3080   24.7570   46.4930 C   0  0  0  0  0  0  0  0  0  0  0  0
   57.7370   23.5420   46.9150 F   0  0  0  0  0  0  0  0  0  0  0  0
   55.9430   25.0370   46.4200 C   0  0  0  0  0  0  0  0  0  0  0  0
   55.5200   26.2560   45.9940 N   0  0  0  0  0  0  0  0  0  0  0  0
   57.4880   32.0410   44.3630 C   0  0  0  0  0  0  0  0  0  0  0  0
   58.1730   33.0610   45.0280 C   0  0  0  0  0  0  0  0  0  0  0  0
   58.8580   32.7970   46.2200 C   0  0  0  0  0  0  0  0  0  0  0  0
   59.5170   33.8540   46.8610 O   0  0  0  0  0  0  0  0  0  0  0  0
   60.8590   33.8260   47.2730 C   0  0  0  0  0  0  0  0  0  0  0  0
   61.9030   33.4760   46.3950 C   0  0  0  0  0  0  0  0  0  0  0  0
   63.2250   33.4550   46.8490 C   0  0  0  0  0  0  0  0  0  0  0  0
   63.5150   33.7730   48.1780 C   0  0  0  0  0  0  0  0  0  0  0  0
   62.4820   34.1070   49.0570 C   0  0  0  0  0  0  0  0  0  0  0  0
   62.7630   34.4110   50.3490 F   0  0  0  0  0  0  0  0  0  0  0  0
   61.1580   34.1300   48.6070 C   0  0  0  0  0  0  0  0  0  0  0  0
   58.2297   29.4323   46.4442 H   0  0  0  0  0  0  0  0  0  0  0  0
   58.4923   27.7716   45.4081 H   0  0  0  0  0  0  0  0  0  0  0  0
   59.3042   25.5353   46.1770 H   0  0  0  0  0  0  0  0  0  0  0  0
   55.2086   24.2702   46.7076 H   0  0  0  0  0  0  0  0  0  0  0  0
   56.9445   32.2609   43.4323 H   0  0  0  0  0  0  0  0  0  0  0  0
   58.1741   34.0792   44.6118 H   0  0  0  0  0  0  0  0  0  0  0  0
   61.6777   33.2186   45.3496 H   0  0  0  0  0  0  0  0  0  0  0  0
   64.0384   33.1876   46.1585 H   0  0  0  0  0  0  0  0  0  0  0  0
   64.5564   33.7604   48.5322 H   0  0  0  0  0  0  0  0  0  0  0  0
   60.3474   34.3882   49.3044 H   0  0  0  0  0  0  0  0  0  0  0  0
  1  2  3  0
  2  3  1  0
  3  4  2  0
  4  5  1  0
  5  6  1  0
  6  7  2  0
  6  8  2  0
  6  9  1  0
  9 10  2  3
 10 11  1  0
 11 12  2  0
 12 13  1  0
 13 14  1  0
 13 15  2  0
 15 16  1  0
  5 17  2  0
 17 18  1  0
 18 19  2  0
 19 20  1  0
 20 21  1  0
 21 22  2  0
 22 23  1  0
 23 24  2  0
 24 25  1  0
 25 26  1  0
 25 27  2  0
 19  3  1  0
 27 21  1  0
 16 10  1  0
  4 28  1  0
 11 29  1  0
 12 30  1  0
 15 31  1  0
 17 32  1  0
 18 33  1  0
 22 34  1  0
 23 35  1  0
 24 36  1  0
 27 37  1  0
M  CHG  1  16  -1
M  END
>  <UniqueID>  (29) 
26

>  <SMILES>  (29) 
N#Cc1cc(S(=O)(=O)N=c2ccc(F)c[n-]2)ccc1Oc1cccc(F)c1

>  <Energy>  (29) 
53.55306722978872

>  <Genealogy>  (29) 
N#Cc1cc(S(=O)(=O)N=c2ccc(F)c[n-]2)ccc1Oc1cccc(F)c1 (protonated)
N#Cc1cc(S(=O)(=O)N=c2ccc(F)c[n-]2)ccc1Oc1cccc(F)c1 (3D coordinates assigned)
N#Cc1cc(S(=O)(=O)N=c2ccc(F)c[n-]2)ccc1Oc1cccc(F)c1 (optimized conformer: 53.55306722978872 kcal/mol)

>  <smiles>  (29) 
N#Cc1cc(S(=O)(=O)N=c2ccc(F)c[nH]2)ccc1Oc1cccc(F)c1

>  <score_type>  (29) 
oracle

>  <origin>  (29) 
adg

>  <m_score__min__energy>  (29) 
-10.09

>  <m_primary>  (29) 
energy

$$$$
29:0
     RDKit          3D

 36 38  0  0  0  0  0  0  0  0999 V2000
   57.4000   31.9860   42.2590 C   0  0  0  0  0  0  0  0  0  0  0  0
   57.6500   31.6860   43.7050 C   0  0  0  0  0  0  0  0  0  0  0  0
   57.8660   32.6080   44.7320 C   0  0  0  0  0  0  0  0  0  0  0  0
   57.7870   34.1000   44.5760 C   0  0  0  0  0  0  0  0  0  0  0  0
   58.0700   31.9630   45.9130 N   0  0  0  0  0  0  0  0  0  0  0  0
   58.2330   32.5810   47.2350 C   0  0  0  0  0  0  0  0  0  0  0  0
   59.6920   32.8100   47.5320 C   0  0  0  0  0  0  0  0  0  0  0  0
   60.1110   33.9780   48.1910 C   0  0  0  0  0  0  0  0  0  0  0  0
   61.4640   34.1720   48.4850 C   0  0  0  0  0  0  0  0  0  0  0  0
   62.4070   33.2050   48.1250 C   0  0  0  0  0  0  0  0  0  0  0  0
   64.1040   33.4510   48.4960 Cl  0  0  0  0  0  0  0  0  0  0  0  0
   61.9960   32.0400   47.4690 C   0  0  0  0  0  0  0  0  0  0  0  0
   60.6440   31.8420   47.1750 C   0  0  0  0  0  0  0  0  0  0  0  0
   58.0060   30.6410   45.6310 C   0  0  0  0  0  0  0  0  0  0  0  0
   58.1490   29.5590   46.5090 C   0  0  0  0  0  0  0  0  0  0  0  0
   58.0450   28.2590   45.9830 C   0  0  0  0  0  0  0  0  0  0  0  0
   57.8040   28.0560   44.6080 C   0  0  0  0  0  0  0  0  0  0  0  0
   57.7090   26.7570   44.1150 O   0  0  0  0  0  0  0  0  0  0  0  0
   57.6600   29.1600   43.7450 C   0  0  0  0  0  0  0  0  0  0  0  0
   57.7640   30.4400   44.2930 C   0  0  0  0  0  0  0  0  0  0  0  0
   56.6978   32.8286   42.1754 H   0  0  0  0  0  0  0  0  0  0  0  0
   58.3493   32.2498   41.7698 H   0  0  0  0  0  0  0  0  0  0  0  0
   56.9693   31.0999   41.7698 H   0  0  0  0  0  0  0  0  0  0  0  0
   57.7620   34.5717   45.5694 H   0  0  0  0  0  0  0  0  0  0  0  0
   58.6675   34.4579   44.0222 H   0  0  0  0  0  0  0  0  0  0  0  0
   56.8737   34.3629   44.0222 H   0  0  0  0  0  0  0  0  0  0  0  0
   57.7041   33.5454   47.2519 H   0  0  0  0  0  0  0  0  0  0  0  0
   57.8154   31.9071   47.9976 H   0  0  0  0  0  0  0  0  0  0  0  0
   59.3726   34.7418   48.4764 H   0  0  0  0  0  0  0  0  0  0  0  0
   61.7873   35.0881   49.0010 H   0  0  0  0  0  0  0  0  0  0  0  0
   62.7375   31.2790   47.1842 H   0  0  0  0  0  0  0  0  0  0  0  0
   60.3244   30.9233   46.6614 H   0  0  0  0  0  0  0  0  0  0  0  0
   58.3375   29.7217   47.5804 H   0  0  0  0  0  0  0  0  0  0  0  0
   58.1527   27.3914   46.6506 H   0  0  0  0  0  0  0  0  0  0  0  0
   57.0040   26.5010   43.4330 H   0  0  0  0  0  0  0  0  0  0  0  0
   57.4711   29.0178   42.6707 H   0  0  0  0  0  0  0  0  0  0  0  0
  1  2  1  0
  2  3  2  0
  3  4  1  0
  3  5  1  0
  5  6  1  0
  6  7  1  0
  7  8  2  0
  8  9  1  0
  9 10  2  0
 10 11  1  0
 10 12  1  0
 12 13  2  0
  5 14  1  0
 14 15  2  0
 15 16  1  0
 16 17  2  0
 17 18  1  0
 17 19  1  0
 19 20  2  0
 20  2  1  0
 13  7  1  0
 20 14  1  0
  1 21  1  0
  1 22  1  0
  1 23  1  0
  4 24  1  0
  4 25  1  0
  4 26  1  0
  6 27  1  0
  6 28  1  0
  8 29  1  0
  9 30  1  0
 12 31  1  0
 13 32  1  0
 15 33  1  0
 16 34  1  0
 18 35  1  0
 19 36  1  0
M  END
>  <UniqueID>  (30) 
27

>  <SMILES>  (30) 
Cc1c(C)n(Cc2ccc(Cl)cc2)c2ccc(O)cc12

>  <Energy>  (30) 
69.5572444800099

>  <Genealogy>  (30) 
Cc1c(C)n(Cc2ccc(Cl)cc2)c2ccc(O)cc12 (3D coordinates assigned)
Cc1c(C)n(Cc2ccc(Cl)cc2)c2ccc(O)cc12 (optimized conformer: 69.5572444800099 kcal/mol)

>  <smiles>  (30) 
Cc1c(C)n(Cc2ccc(Cl)cc2)c2ccc(O)cc12

>  <score_type>  (30) 
oracle

>  <origin>  (30) 
adg

>  <m_score__min__energy>  (30) 
-7.1600000000000001

>  <m_primary>  (30) 
energy

$$$$
30:0
     RDKit          3D

 47 51  0  0  1  0  0  0  0  0999 V2000
   63.2860   33.9160   47.5480 F   0  0  0  0  0  0  0  0  0  0  0  0
   62.2150   33.0870   47.5230 C   0  0  0  0  0  0  0  0  0  0  0  0
   62.4520   31.7510   47.2220 C   0  0  0  0  0  0  0  0  0  0  0  0
   61.4060   30.8400   47.1760 C   0  0  0  0  0  0  0  0  0  0  0  0
   60.0820   31.2720   47.4400 C   0  0  0  0  0  0  0  0  0  0  0  0
   59.0100   30.4490   47.3030 N   0  0  0  0  0  0  0  0  0  0  0  0
   58.4930   29.7920   46.3840 C   0  0  0  0  0  0  0  0  0  0  0  0
   58.3760   28.4580   46.5380 N   0  0  0  0  0  0  0  0  0  0  0  0
   57.8280   27.7040   45.5820 C   0  0  0  0  0  0  0  0  0  0  0  0
   57.6950   26.2980   45.7220 N   0  0  0  0  0  0  0  0  0  0  0  0
   58.5190   25.6010   46.7240 C   0  0  0  0  0  0  0  0  0  0  0  0
   59.4190   24.5980   45.9900 C   0  0  0  0  0  0  0  0  0  0  0  0
   58.4980   23.6720   45.2460 C   0  0  0  0  0  0  0  0  0  0  0  0
   58.8880   22.3630   45.0510 C   0  0  0  0  0  0  0  0  0  0  0  0
   58.0890   21.4590   44.3750 C   0  0  0  0  0  0  0  0  0  0  0  0
   56.8850   21.9230   43.9060 C   0  0  0  0  0  0  0  0  0  0  0  0
   56.4580   23.2290   44.0830 C   0  0  0  0  0  0  0  0  0  0  0  0
   57.2810   24.1070   44.7620 C   0  0  0  0  0  0  0  0  0  0  0  0
   56.7850   25.4960   44.9280 C   0  0  0  0  0  0  0  0  0  0  0  0
   57.3850   28.2710   44.4500 N   0  0  0  0  0  0  0  0  0  0  0  0
   57.4980   29.5960   44.2900 C   0  0  0  0  0  0  0  0  0  0  0  0
   57.0340   30.1400   43.1220 C   0  0  0  0  0  0  0  0  0  0  0  0
   57.1540   31.4980   42.9690 C   0  0  0  0  0  0  0  0  0  0  0  0
   57.6950   32.3530   43.8780 C   0  0  0  0  0  0  0  0  0  0  0  0
   58.1680   31.7830   45.0730 C   0  0  0  0  0  0  0  0  0  0  0  0
   58.0600   30.4350   45.2520 C   0  0  0  0  0  0  0  0  0  0  0  0
   59.8630   32.6340   47.7440 C   0  0  0  0  0  0  0  0  0  0  0  0
   60.9270   33.5110   47.7800 C   0  0  0  0  0  0  0  0  0  0  0  0
   60.6950   34.8080   48.0730 F   0  0  0  0  0  0  0  0  0  0  0  0
   63.4786   31.4124   47.0183 H   0  0  0  0  0  0  0  0  0  0  0  0
   61.6040   29.7851   46.9352 H   0  0  0  0  0  0  0  0  0  0  0  0
   59.1388   26.3289   47.2680 H   0  0  0  0  0  0  0  0  0  0  0  0
   57.8764   25.0771   47.4468 H   0  0  0  0  0  0  0  0  0  0  0  0
   60.0807   25.1239   45.2861 H   0  0  0  0  0  0  0  0  0  0  0  0
   60.0593   24.0455   46.6934 H   0  0  0  0  0  0  0  0  0  0  0  0
   59.8600   22.0296   45.4435 H   0  0  0  0  0  0  0  0  0  0  0  0
   58.4036   20.4164   44.2202 H   0  0  0  0  0  0  0  0  0  0  0  0
   56.2290   21.2255   43.3646 H   0  0  0  0  0  0  0  0  0  0  0  0
   55.4848   23.5599   43.6914 H   0  0  0  0  0  0  0  0  0  0  0  0
   56.6767   25.9571   43.9352 H   0  0  0  0  0  0  0  0  0  0  0  0
   55.8180   25.4551   45.4507 H   0  0  0  0  0  0  0  0  0  0  0  0
   56.9610   27.6670   43.7170 H   0  0  0  0  0  0  0  0  0  0  0  0
   56.5833   29.5134   42.3382 H   0  0  0  0  0  0  0  0  0  0  0  0
   56.7805   31.9329   42.0302 H   0  0  0  0  0  0  0  0  0  0  0  0
   57.7591   33.4346   43.6880 H   0  0  0  0  0  0  0  0  0  0  0  0
   58.6187   32.4150   45.8524 H   0  0  0  0  0  0  0  0  0  0  0  0
   58.8449   32.9949   47.9518 H   0  0  0  0  0  0  0  0  0  0  0  0
  1  2  1  0
  2  3  2  0
  3  4  1  0
  4  5  2  0
  5  6  1  0
  6  7  2  0
  7  8  1  0
  8  9  2  0
  9 10  1  0
 10 11  1  0
 11 12  1  0
 12 13  1  0
 13 14  2  0
 14 15  1  0
 15 16  2  0
 16 17  1  0
 17 18  2  0
 18 19  1  0
  9 20  1  0
 20 21  1  0
 21 22  2  0
 22 23  1  0
 23 24  2  0
 24 25  1  0
 25 26  2  0
  5 27  1  0
 27 28  2  0
 28 29  1  0
 28  2  1  0
 26  7  1  0
 19 10  1  0
 26 21  1  0
 18 13  1  0
  3 30  1  0
  4 31  1  0
 11 32  1  0
 11 33  1  0
 12 34  1  0
 12 35  1  0
 14 36  1  0
 15 37  1  0
 16 38  1  0
 17 39  1  0
 19 40  1  0
 19 41  1  0
 20 42  1  0
 22 43  1  0
 23 44  1  0
 24 45  1  0
 25 46  1  0
 27 47  1  0
M  END
>  <smiles>  (31) 
Fc1ccc(N=c2nc(N3CCc4ccccc4C3)[nH]c3ccccc23)cc1F

>  <score_type>  (31) 
oracle

>  <origin>  (31) 
adg

>  <m_score__min__energy>  (31) 
-8.1699999999999999

>  <m_primary>  (31) 
energy

$$$$
31:0
     RDKit          3D

 33 35  0  0  0  0  0  0  0  0999 V2000
   56.4290   29.7740   43.2540 C   0  0  0  0  0  0  0  0  0  0  0  0
   56.3520   30.4500   44.5050 O   0  0  0  0  0  0  0  0  0  0  0  0
   57.3030   31.3750   44.9640 C   0  0  0  0  0  0  0  0  0  0  0  0
   58.1510   31.1090   46.0540 C   0  0  0  0  0  0  0  0  0  0  0  0
   59.0800   32.0650   46.4740 C   0  0  0  0  0  0  0  0  0  0  0  0
   59.1750   33.3070   45.8200 C   0  0  0  0  0  0  0  0  0  0  0  0
   60.1570   34.3330   46.2610 C   0  0  0  0  0  0  0  0  0  0  0  0
   59.9730   35.5410   45.9500 O   0  0  0  0  0  0  0  0  0  0  0  0
   61.3830   33.9820   47.0050 C   0  0  0  0  0  0  0  0  0  0  0  0
   62.5350   33.8400   46.2940 N   0  0  0  0  0  0  0  0  0  0  0  0
   63.7110   33.4880   46.8720 C   0  0  0  0  0  0  0  0  0  0  0  0
   63.7760   33.2540   48.2430 C   0  0  0  0  0  0  0  0  0  0  0  0
   62.6240   33.4090   49.0240 C   0  0  0  0  0  0  0  0  0  0  0  0
   62.6780   33.2010   50.4110 C   0  0  0  0  0  0  0  0  0  0  0  0
   61.5370   33.3860   51.1940 C   0  0  0  0  0  0  0  0  0  0  0  0
   60.3390   33.7910   50.6030 C   0  0  0  0  0  0  0  0  0  0  0  0
   60.2700   34.0010   49.2230 C   0  0  0  0  0  0  0  0  0  0  0  0
   61.4050   33.7930   48.4110 C   0  0  0  0  0  0  0  0  0  0  0  0
   58.3290   33.5640   44.7270 C   0  0  0  0  0  0  0  0  0  0  0  0
   57.4010   32.6070   44.3070 C   0  0  0  0  0  0  0  0  0  0  0  0
   56.5519   28.6947   43.4274 H   0  0  0  0  0  0  0  0  0  0  0  0
   55.5049   29.9509   42.6841 H   0  0  0  0  0  0  0  0  0  0  0  0
   57.2896   30.1542   42.6841 H   0  0  0  0  0  0  0  0  0  0  0  0
   58.0828   30.1444   46.5782 H   0  0  0  0  0  0  0  0  0  0  0  0
   59.7429   31.8443   47.3236 H   0  0  0  0  0  0  0  0  0  0  0  0
   64.6163   33.3871   46.2553 H   0  0  0  0  0  0  0  0  0  0  0  0
   64.7248   32.9498   48.7090 H   0  0  0  0  0  0  0  0  0  0  0  0
   63.6223   32.8913   50.8826 H   0  0  0  0  0  0  0  0  0  0  0  0
   61.5822   33.2122   52.2792 H   0  0  0  0  0  0  0  0  0  0  0  0
   59.4456   33.9455   51.2259 H   0  0  0  0  0  0  0  0  0  0  0  0
   59.3248   34.3306   48.7670 H   0  0  0  0  0  0  0  0  0  0  0  0
   58.3980   34.5260   44.1981 H   0  0  0  0  0  0  0  0  0  0  0  0
   56.7423   32.8238   43.4531 H   0  0  0  0  0  0  0  0  0  0  0  0
  1  2  1  0
  2  3  1  0
  3  4  2  0
  4  5  1  0
  5  6  2  0
  6  7  1  0
  7  8  2  0
  7  9  1  0
  9 10  2  0
 10 11  1  0
 11 12  2  0
 12 13  1  0
 13 14  2  0
 14 15  1  0
 15 16  2  0
 16 17  1  0
 17 18  2  0
  6 19  1  0
 19 20  2  0
 20  3  1  0
 18  9  1  0
 18 13  1  0
  1 21  1  0
  1 22  1  0
  1 23  1  0
  4 24  1  0
  5 25  1  0
 11 26  1  0
 12 27  1  0
 14 28  1  0
 15 29  1  0
 16 30  1  0
 17 31  1  0
 19 32  1  0
 20 33  1  0
M  END
>  <UniqueID>  (32) 
28

>  <SMILES>  (32) 
COc1ccc(C(=O)c2nccc3ccccc23)cc1

>  <Energy>  (32) 
48.08519252098386

>  <Genealogy>  (32) 
COc1ccc(C(=O)c2nccc3ccccc23)cc1 (3D coordinates assigned)
COc1ccc(C(=O)c2nccc3ccccc23)cc1 (optimized conformer: 48.08519252098386 kcal/mol)

>  <smiles>  (32) 
COc1ccc(C(=O)c2nccc3ccccc23)cc1

>  <score_type>  (32) 
oracle

>  <origin>  (32) 
adg

>  <m_score__min__energy>  (32) 
-7.2999999999999998

>  <m_primary>  (32) 
energy

$$$$
32:0
     RDKit          3D

 39 41  0  0  1  0  0  0  0  0999 V2000
   60.9760   30.3750   46.0370 O   0  0  0  0  0  0  0  0  0  0  0  0
   60.1590   30.5090   47.0100 C   0  0  0  0  0  0  0  0  0  0  0  0
   60.5200   31.3420   48.1070 N   0  0  0  0  0  0  0  0  0  0  0  0
   61.7560   32.0350   48.1910 C   0  0  0  0  0  0  0  0  0  0  0  0
   62.6800   31.8490   49.1920 C   0  0  0  0  0  0  0  0  0  0  0  0
   63.8770   32.5460   49.2420 C   0  0  0  0  0  0  0  0  0  0  0  0
   64.1210   33.4590   48.2230 C   0  0  0  0  0  0  0  0  0  0  0  0
   63.2300   33.6800   47.2020 C   0  0  0  0  0  0  0  0  0  0  0  0
   62.0380   32.9520   47.2000 C   0  0  0  0  0  0  0  0  0  0  0  0
   58.8850   29.8140   46.9810 N   0  0  0  0  0  0  0  0  0  0  0  0
   58.5140   28.9780   45.9040 C   0  0  0  0  0  0  0  0  0  0  0  0
   59.1490   27.7520   45.8280 C   0  0  0  0  0  0  0  0  0  0  0  0
   58.9120   26.8440   44.8710 N   0  0  0  0  0  0  0  0  0  0  0  0
   57.9990   27.1580   43.9370 C   0  0  0  0  0  0  0  0  0  0  0  0
   57.7500   26.3320   43.0230 O   0  0  0  0  0  0  0  0  0  0  0  0
   57.3570   28.3350   43.9690 N   0  0  0  0  0  0  0  0  0  0  0  0
   57.5920   29.2700   44.9430 C   0  0  0  0  0  0  0  0  0  0  0  0
   56.9160   30.3290   44.8740 N   0  0  0  0  0  0  0  0  0  0  0  0
   57.4600   31.6070   44.9370 C   0  0  0  0  0  0  0  0  0  0  0  0
   57.4670   32.4460   46.0270 C   0  0  0  0  0  0  0  0  0  0  0  0
   57.9590   33.7130   46.0420 C   0  0  0  0  0  0  0  0  0  0  0  0
   58.4990   34.2210   44.8840 C   0  0  0  0  0  0  0  0  0  0  0  0
   58.5090   33.4110   43.7800 C   0  0  0  0  0  0  0  0  0  0  0  0
   58.0120   32.1260   43.7560 C   0  0  0  0  0  0  0  0  0  0  0  0
   59.8370   31.4590   48.9120 H   0  0  0  0  0  0  0  0  0  0  0  0
   62.4606   31.1182   49.9844 H   0  0  0  0  0  0  0  0  0  0  0  0
   64.6023   32.3836   50.0529 H   0  0  0  0  0  0  0  0  0  0  0  0
   65.0635   34.0260   48.2349 H   0  0  0  0  0  0  0  0  0  0  0  0
   63.4487   34.4095   46.4083 H   0  0  0  0  0  0  0  0  0  0  0  0
   61.3094   33.1132   46.3918 H   0  0  0  0  0  0  0  0  0  0  0  0
   58.3050   29.9710   47.8390 H   0  0  0  0  0  0  0  0  0  0  0  0
   59.8937   27.5071   46.5996 H   0  0  0  0  0  0  0  0  0  0  0  0
   59.3980   25.9180   44.8220 H   0  0  0  0  0  0  0  0  0  0  0  0
   56.6580   28.5180   43.2110 H   0  0  0  0  0  0  0  0  0  0  0  0
   57.0391   32.0597   46.9639 H   0  0  0  0  0  0  0  0  0  0  0  0
   57.9259   34.3183   46.9599 H   0  0  0  0  0  0  0  0  0  0  0  0
   58.9082   35.2413   44.8458 H   0  0  0  0  0  0  0  0  0  0  0  0
   58.9420   33.8122   42.8518 H   0  0  0  0  0  0  0  0  0  0  0  0
   58.0470   31.5236   42.8363 H   0  0  0  0  0  0  0  0  0  0  0  0
  1  2  2  0
  2  3  1  0
  3  4  1  0
  4  5  2  0
  5  6  1  0
  6  7  2  0
  7  8  1  0
  8  9  2  0
  2 10  1  0
 10 11  1  0
 11 12  2  0
 12 13  1  0
 13 14  1  0
 14 15  2  0
 14 16  1  0
 16 17  1  0
 17 18  2  0
 18 19  1  0
 19 20  2  0
 20 21  1  0
 21 22  2  0
 22 23  1  0
 23 24  2  0
  9  4  1  0
 17 11  1  0
 24 19  1  0
  3 25  1  0
  5 26  1  0
  6 27  1  0
  7 28  1  0
  8 29  1  0
  9 30  1  0
 10 31  1  0
 12 32  1  0
 13 33  1  0
 16 34  1  0
 20 35  1  0
 21 36  1  0
 22 37  1  0
 23 38  1  0
 24 39  1  0
M  END
>  <smiles>  (33) 
O=C(Nc1ccccc1)Nc1c[nH]c(=O)[nH]c1=Nc1ccccc1

>  <score_type>  (33) 
oracle

>  <origin>  (33) 
adg

>  <m_score__min__energy>  (33) 
-7.9100000000000001

>  <m_primary>  (33) 
energy

$$$$
33:0
     RDKit          3D

 48 50  0  0  0  0  0  0  0  0999 V2000
   56.6950   23.6940   43.3890 C   0  0  0  0  0  0  0  0  0  0  0  0
   57.6070   23.3270   44.5530 C   0  0  0  0  0  0  0  0  0  0  0  0
   57.1630   23.9480   45.7590 O   0  0  0  0  0  0  0  0  0  0  0  0
   56.7450   25.2820   45.8310 C   0  0  0  0  0  0  0  0  0  0  0  0
   55.5590   25.5660   46.1510 O   0  0  0  0  0  0  0  0  0  0  0  0
   57.6950   26.3660   45.5400 C   0  0  0  0  0  0  0  0  0  0  0  0
   57.4170   27.3860   44.7480 C   0  0  0  0  0  0  0  0  0  0  0  0
   58.4720   28.3210   44.6070 N   0  0  0  0  0  0  0  0  0  0  0  0
   58.3390   29.4690   43.8920 O   0  0  0  0  0  0  0  0  0  0  0  0
   57.1750   30.3940   44.6910 S   0  0  0  0  0  0  0  0  0  0  0  0
   56.6940   29.6910   45.9320 O   0  0  0  0  0  0  0  0  0  0  0  0
   56.0020   30.6370   43.7820 O   0  0  0  0  0  0  0  0  0  0  0  0
   57.9000   31.9290   45.1490 C   0  0  0  0  0  0  0  0  0  0  0  0
   57.9040   32.3460   46.4880 C   0  0  0  0  0  0  0  0  0  0  0  0
   58.4800   33.5700   46.8410 C   0  0  0  0  0  0  0  0  0  0  0  0
   59.0630   34.3870   45.8610 C   0  0  0  0  0  0  0  0  0  0  0  0
   59.6470   35.7180   46.2380 C   0  0  0  0  0  0  0  0  0  0  0  0
   59.0320   33.9810   44.5160 C   0  0  0  0  0  0  0  0  0  0  0  0
   58.4570   32.7570   44.1640 C   0  0  0  0  0  0  0  0  0  0  0  0
   59.6360   28.0380   45.4370 C   0  0  1  0  0  0  0  0  0  0  0  0
   59.8400   29.1410   46.4490 C   0  0  0  0  0  0  0  0  0  0  0  0
   60.8100   30.1400   46.2510 C   0  0  0  0  0  0  0  0  0  0  0  0
   61.0160   31.1300   47.2150 C   0  0  0  0  0  0  0  0  0  0  0  0
   60.2750   31.1310   48.4090 C   0  0  0  0  0  0  0  0  0  0  0  0
   60.5010   32.1450   49.4060 N   0  0  0  0  0  0  0  0  0  0  0  0
   61.6220   32.2710   49.9460 O   0  0  0  0  0  0  0  0  0  0  0  0
   59.5000   33.0240   49.7500 O   0  0  0  0  0  0  0  0  0  0  0  0
   59.3210   30.1200   48.6170 C   0  0  0  0  0  0  0  0  0  0  0  0
   59.1100   29.1320   47.6500 C   0  0  0  0  0  0  0  0  0  0  0  0
   59.3430   26.4170   46.2520 S   0  0  0  0  0  0  0  0  0  0  0  0
   55.7405   24.0781   43.7780 H   0  0  0  0  0  0  0  0  0  0  0  0
   57.1783   24.4676   42.7743 H   0  0  0  0  0  0  0  0  0  0  0  0
   56.5077   22.8012   42.7743 H   0  0  0  0  0  0  0  0  0  0  0  0
   57.6007   22.2351   44.6859 H   0  0  0  0  0  0  0  0  0  0  0  0
   58.6247   23.6791   44.3286 H   0  0  0  0  0  0  0  0  0  0  0  0
   56.4477   27.4999   44.2405 H   0  0  0  0  0  0  0  0  0  0  0  0
   57.4528   31.7084   47.2625 H   0  0  0  0  0  0  0  0  0  0  0  0
   58.4760   33.8939   47.8922 H   0  0  0  0  0  0  0  0  0  0  0  0
   59.6850   35.8046   47.3339 H   0  0  0  0  0  0  0  0  0  0  0  0
   60.6644   35.8014   45.8281 H   0  0  0  0  0  0  0  0  0  0  0  0
   59.0195   36.5231   45.8281 H   0  0  0  0  0  0  0  0  0  0  0  0
   59.4618   34.6288   43.7378 H   0  0  0  0  0  0  0  0  0  0  0  0
   58.4413   32.4419   43.1102 H   0  0  0  0  0  0  0  0  0  0  0  0
   60.5530   27.9909   44.8312 H   0  0  0  0  0  0  0  0  0  0  0  0
   61.4112   30.1419   45.3298 H   0  0  0  0  0  0  0  0  0  0  0  0
   61.7650   31.9158   47.0378 H   0  0  0  0  0  0  0  0  0  0  0  0
   58.7355   30.1058   49.5481 H   0  0  0  0  0  0  0  0  0  0  0  0
   58.3668   28.3415   47.8308 H   0  0  0  0  0  0  0  0  0  0  0  0
  1  2  1  0
  2  3  1  0
  3  4  1  0
  4  5  2  0
  4  6  1  0
  6  7  2  0
  7  8  1  0
  8  9  1  0
  9 10  1  0
 10 11  2  0
 10 12  2  0
 10 13  1  0
 13 14  2  0
 14 15  1  0
 15 16  2  0
 16 17  1  0
 16 18  1  0
 18 19  2  0
  8 20  1  0
 20 21  1  0
 21 22  2  0
 22 23  1  0
 23 24  2  0
 24 25  1  0
 25 26  2  0
 25 27  1  0
 24 28  1  0
 28 29  2  0
 20 30  1  0
 30  6  1  0
 19 13  1  0
 29 21  1  0
  1 31  1  0
  1 32  1  0
  1 33  1  0
  2 34  1  0
  2 35  1  0
  7 36  1  0
 14 37  1  0
 15 38  1  0
 17 39  1  0
 17 40  1  0
 17 41  1  0
 18 42  1  0
 19 43  1  0
 20 44  1  6
 22 45  1  0
 23 46  1  0
 28 47  1  0
 29 48  1  0
M  CHG  2  25   1  27  -1
M  END
>  <UniqueID>  (34) 
29

>  <SMILES>  (34) 
CCOC(=O)C1=CN(OS(=O)(=O)c2ccc(C)cc2)[C@@H](c2ccc([N+](=O)[O-])cc2)S1

>  <Energy>  (34) 
52.55584971193425

>  <Genealogy>  (34) 
CCOC(=O)C1=CN(OS(=O)(=O)c2ccc(C)cc2)[C@@H](c2ccc([N+](=O)[O-])cc2)S1 (chirality)
CCOC(=O)C1=CN(OS(=O)(=O)c2ccc(C)cc2)[C@@H](c2ccc([N+](=O)[O-])cc2)S1 (3D coordinates assigned)
CCOC(=O)C1=CN(OS(=O)(=O)c2ccc(C)cc2)[C@@H](c2ccc([N+](=O)[O-])cc2)S1 (nonaromatic ring conformer: 52.55584971193425 kcal/mol)

>  <smiles>  (34) 
CCOC(=O)C1=CN(OS(=O)(=O)c2ccc(C)cc2)C(c2ccc([N+](=O)[O-])cc2)S1

>  <score_type>  (34) 
oracle

>  <origin>  (34) 
adg

>  <m_score__min__energy>  (34) 
-9.0399999999999991

>  <m_primary>  (34) 
energy

$$$$
34:0
     RDKit          3D

 66 68  0  0  0  0  0  0  0  0999 V2000
   56.3420   23.7700   43.4180 C   0  0  0  0  0  0  0  0  0  0  0  0
   56.6480   23.8530   44.9160 C   0  0  0  0  0  0  0  0  0  0  0  0
   58.1110   23.4960   45.2000 C   0  0  0  0  0  0  0  0  0  0  0  0
   56.3220   25.2230   45.4400 C   0  0  0  0  0  0  0  0  0  0  0  0
   55.2040   25.4450   45.9790 O   0  0  0  0  0  0  0  0  0  0  0  0
   57.2720   26.2430   45.3250 O   0  0  0  0  0  0  0  0  0  0  0  0
   57.6820   27.0660   46.4200 C   0  0  1  0  0  0  0  0  0  0  0  0
   59.0660   26.7030   46.8590 C   0  0  0  0  0  0  0  0  0  0  0  0
   59.8720   27.6280   47.3820 C   0  0  0  0  0  0  0  0  0  0  0  0
   59.4540   29.0840   47.5020 C   0  0  1  0  0  0  0  0  0  0  0  0
   60.4110   29.9570   46.8150 N   0  0  0  0  0  0  0  0  0  0  0  0
   61.3030   30.8370   47.5050 C   0  0  0  0  0  0  0  0  0  0  0  0
   61.3050   30.8840   48.7650 O   0  0  0  0  0  0  0  0  0  0  0  0
   62.1480   31.6680   46.7610 O   0  0  0  0  0  0  0  0  0  0  0  0
   62.2640   33.0740   46.9770 C   0  0  0  0  0  0  0  0  0  0  0  0
   63.6950   33.4480   47.3840 C   0  0  0  0  0  0  0  0  0  0  0  0
   63.8660   33.4690   48.8800 C   0  0  0  0  0  0  0  0  0  0  0  0
   65.0120   32.9100   49.4730 C   0  0  0  0  0  0  0  0  0  0  0  0
   65.2090   33.0050   50.8530 C   0  0  0  0  0  0  0  0  0  0  0  0
   64.2620   33.6510   51.6520 C   0  0  0  0  0  0  0  0  0  0  0  0
   63.1170   34.2040   51.0730 C   0  0  0  0  0  0  0  0  0  0  0  0
   62.9180   34.1180   49.6910 C   0  0  0  0  0  0  0  0  0  0  0  0
   58.1230   29.3780   47.0720 O   0  0  0  0  0  0  0  0  0  0  0  0
   57.6350   28.5520   46.0220 C   0  0  1  0  0  0  0  0  0  0  0  0
   58.3150   28.8500   44.6720 C   0  0  0  0  0  0  0  0  0  0  0  0
   58.5750   30.2460   44.5680 O   0  0  0  0  0  0  0  0  0  0  0  0
   57.5580   31.2040   44.5550 C   0  0  0  0  0  0  0  0  0  0  0  0
   56.3530   30.8600   44.7180 O   0  0  0  0  0  0  0  0  0  0  0  0
   57.9260   32.6510   44.4180 C   0  0  0  0  0  0  0  0  0  0  0  0
   58.4570   33.2170   45.7120 C   0  0  0  0  0  0  0  0  0  0  0  0
   58.2580   32.5210   46.9180 C   0  0  0  0  0  0  0  0  0  0  0  0
   58.7300   33.0470   48.1230 C   0  0  0  0  0  0  0  0  0  0  0  0
   59.3960   34.2750   48.1390 C   0  0  0  0  0  0  0  0  0  0  0  0
   59.5910   34.9810   46.9480 C   0  0  0  0  0  0  0  0  0  0  0  0
   59.1210   34.4590   45.7360 C   0  0  0  0  0  0  0  0  0  0  0  0
   59.3110   35.1660   44.5910 F   0  0  0  0  0  0  0  0  0  0  0  0
   55.2895   23.4845   43.2740 H   0  0  0  0  0  0  0  0  0  0  0  0
   56.5232   24.7498   42.9519 H   0  0  0  0  0  0  0  0  0  0  0  0
   56.9935   23.0161   42.9519 H   0  0  0  0  0  0  0  0  0  0  0  0
   56.0162   23.1193   45.4379 H   0  0  0  0  0  0  0  0  0  0  0  0
   58.2743   23.4561   46.2871 H   0  0  0  0  0  0  0  0  0  0  0  0
   58.3415   22.5153   44.7584 H   0  0  0  0  0  0  0  0  0  0  0  0
   58.7673   24.2603   44.7584 H   0  0  0  0  0  0  0  0  0  0  0  0
   56.9873   26.8975   47.2561 H   0  0  0  0  0  0  0  0  0  0  0  0
   59.4205   25.6674   46.7497 H   0  0  0  0  0  0  0  0  0  0  0  0
   60.8690   27.3280   47.7370 H   0  0  0  0  0  0  0  0  0  0  0  0
   59.4584   29.2843   48.5836 H   0  0  0  0  0  0  0  0  0  0  0  0
   60.3560   30.0620   45.7800 H   0  0  0  0  0  0  0  0  0  0  0  0
   62.0032   33.6039   46.0490 H   0  0  0  0  0  0  0  0  0  0  0  0
   61.5803   33.3629   47.7889 H   0  0  0  0  0  0  0  0  0  0  0  0
   64.3905   32.7105   46.9569 H   0  0  0  0  0  0  0  0  0  0  0  0
   63.9049   34.4582   47.0027 H   0  0  0  0  0  0  0  0  0  0  0  0
   65.7566   32.3957   48.8477 H   0  0  0  0  0  0  0  0  0  0  0  0
   66.1102   32.5710   51.3107 H   0  0  0  0  0  0  0  0  0  0  0  0
   64.4182   33.7243   52.7384 H   0  0  0  0  0  0  0  0  0  0  0  0
   62.3708   34.7078   51.7049 H   0  0  0  0  0  0  0  0  0  0  0  0
   62.0180   34.5590   49.2377 H   0  0  0  0  0  0  0  0  0  0  0  0
   56.5751   28.8008   45.8652 H   0  0  0  0  0  0  0  0  0  0  0  0
   59.2626   28.2951   44.6087 H   0  0  0  0  0  0  0  0  0  0  0  0
   57.6517   28.5390   43.8514 H   0  0  0  0  0  0  0  0  0  0  0  0
   58.6990   32.7502   43.6417 H   0  0  0  0  0  0  0  0  0  0  0  0
   57.0193   33.2110   44.1454 H   0  0  0  0  0  0  0  0  0  0  0  0
   57.7278   31.5572   46.9123 H   0  0  0  0  0  0  0  0  0  0  0  0
   58.5770   32.4932   49.0611 H   0  0  0  0  0  0  0  0  0  0  0  0
   59.7672   34.6867   49.0891 H   0  0  0  0  0  0  0  0  0  0  0  0
   60.1145   35.9483   46.9628 H   0  0  0  0  0  0  0  0  0  0  0  0
  1  2  1  0
  2  3  1  0
  2  4  1  0
  4  5  2  0
  4  6  1  0
  6  7  1  0
  7  8  1  0
  8  9  2  0
  9 10  1  0
 10 11  1  0
 11 12  1  0
 12 13  2  0
 12 14  1  0
 14 15  1  0
 15 16  1  0
 16 17  1  0
 17 18  2  0
 18 19  1  0
 19 20  2  0
 20 21  1  0
 21 22  2  0
 10 23  1  0
 23 24  1  0
 24 25  1  0
 25 26  1  0
 26 27  1  0
 27 28  2  0
 27 29  1  0
 29 30  1  0
 30 31  2  0
 31 32  1  0
 32 33  2  0
 33 34  1  0
 34 35  2  0
 35 36  1  0
 24  7  1  0
 35 30  1  0
 22 17  1  0
  1 37  1  0
  1 38  1  0
  1 39  1  0
  2 40  1  0
  3 41  1  0
  3 42  1  0
  3 43  1  0
  7 44  1  1
  8 45  1  0
  9 46  1  0
 10 47  1  1
 11 48  1  0
 15 49  1  0
 15 50  1  0
 16 51  1  0
 16 52  1  0
 18 53  1  0
 19 54  1  0
 20 55  1  0
 21 56  1  0
 22 57  1  0
 24 58  1  6
 25 59  1  0
 25 60  1  0
 29 61  1  0
 29 62  1  0
 31 63  1  0
 32 64  1  0
 33 65  1  0
 34 66  1  0
M  END
>  <UniqueID>  (35) 
30

>  <SMILES>  (35) 
CC(C)C(=O)O[C@H]1C=C[C@@H](NC(=O)OCCc2ccccc2)OC1COC(=O)Cc1ccccc1F

>  <Energy>  (35) 
60.44265791828616

>  <Genealogy>  (35) 
CC(C)C(=O)O[C@H]1C=C[C@@H](NC(=O)OCCc2ccccc2)OC1COC(=O)Cc1ccccc1F (chirality)
CC(C)C(=O)O[C@H]1C=C[C@@H](NC(=O)OCCc2ccccc2)OC1COC(=O)Cc1ccccc1F (3D coordinates assigned)
CC(C)C(=O)O[C@H]1C=C[C@@H](NC(=O)OCCc2ccccc2)OC1COC(=O)Cc1ccccc1F (nonaromatic ring conformer: 60.44265791828616 kcal/mol)

>  <smiles>  (35) 
CC(C)C(=O)OC1C=CC(NC(=O)OCCc2ccccc2)OC1COC(=O)Cc1ccccc1F

>  <score_type>  (35) 
oracle

>  <origin>  (35) 
adg

>  <m_score__min__energy>  (35) 
-8.6999999999999993

>  <m_primary>  (35) 
energy

$$$$
35:0
     RDKit          3D

 24 24  0  0  0  0  0  0  0  0999 V2000
   57.3730   24.7250   46.2660 C   0  0  0  0  0  0  0  0  0  0  0  0
   56.7700   26.3770   45.9860 S   0  0  0  0  0  0  0  0  0  0  0  0
   55.2710   26.3910   46.0960 O   0  0  0  0  0  0  0  0  0  0  0  0
   57.3420   27.2830   47.0390 O   0  0  0  0  0  0  0  0  0  0  0  0
   57.2420   26.9470   44.4670 O   0  0  0  0  0  0  0  0  0  0  0  0
   57.7360   28.1950   44.6710 N   0  0  0  0  0  0  0  0  0  0  0  0
   56.8560   29.3130   44.8530 C   0  0  0  0  0  0  0  0  0  0  0  0
   55.5730   29.1190   44.8350 N   0  0  0  0  0  0  0  0  0  0  0  0
   57.4110   30.6730   45.0570 C   0  0  0  0  0  0  0  0  0  0  0  0
   57.2100   31.6750   44.0910 C   0  0  0  0  0  0  0  0  0  0  0  0
   57.7390   32.9560   44.2810 C   0  0  0  0  0  0  0  0  0  0  0  0
   58.4730   33.2490   45.4320 C   0  0  0  0  0  0  0  0  0  0  0  0
   58.6810   32.2600   46.3970 C   0  0  0  0  0  0  0  0  0  0  0  0
   58.1540   30.9780   46.2130 C   0  0  0  0  0  0  0  0  0  0  0  0
   57.4412   24.5380   47.3478 H   0  0  0  0  0  0  0  0  0  0  0  0
   56.6814   24.0003   45.8116 H   0  0  0  0  0  0  0  0  0  0  0  0
   58.3688   24.6162   45.8116 H   0  0  0  0  0  0  0  0  0  0  0  0
   58.7700   28.3390   44.6280 H   0  0  0  0  0  0  0  0  0  0  0  0
   55.1440   28.1670   44.8700 H   0  0  0  0  0  0  0  0  0  0  0  0
   56.6338   31.4503   43.1813 H   0  0  0  0  0  0  0  0  0  0  0  0
   57.5762   33.7347   43.5214 H   0  0  0  0  0  0  0  0  0  0  0  0
   58.8871   34.2574   45.5790 H   0  0  0  0  0  0  0  0  0  0  0  0
   59.2605   32.4904   47.3032 H   0  0  0  0  0  0  0  0  0  0  0  0
   58.3210   30.2034   46.9760 H   0  0  0  0  0  0  0  0  0  0  0  0
  1  2  1  0
  2  3  2  0
  2  4  2  0
  2  5  1  0
  5  6  1  0
  6  7  1  0
  7  8  2  3
  7  9  1  0
  9 10  2  0
 10 11  1  0
 11 12  2  0
 12 13  1  0
 13 14  2  0
 14  9  1  0
  1 15  1  0
  1 16  1  0
  1 17  1  0
  6 18  1  0
  8 19  1  0
 10 20  1  0
 11 21  1  0
 12 22  1  0
 13 23  1  0
 14 24  1  0
M  END
>  <UniqueID>  (36) 
31

>  <SMILES>  (36) 
CS(=O)(=O)ONC(=N)c1ccccc1

>  <Energy>  (36) 
20.25860385066992

>  <Genealogy>  (36) 
CS(=O)(=O)ONC(=N)c1ccccc1 (3D coordinates assigned)
CS(=O)(=O)ONC(=N)c1ccccc1 (optimized conformer: 20.25860385066992 kcal/mol)

>  <smiles>  (36) 
CS(=O)(=O)ONC(=N)c1ccccc1

>  <score_type>  (36) 
oracle

>  <origin>  (36) 
adg

>  <m_score__min__energy>  (36) 
-6.0300000000000002

>  <m_primary>  (36) 
energy

$$$$
36:0
     RDKit          3D

 55 57  0  0  0  0  0  0  0  0999 V2000
   58.7511   25.0720   46.7404 H   0  0  0  0  0  0  0  0  0  0  0  0
   58.4240   25.7880   45.9720 C   0  0  0  0  0  0  0  0  0  0  0  0
   58.5390   27.4640   46.0730 S   0  0  0  0  0  0  0  0  0  0  0  0
   57.8400   27.7150   44.5600 C   0  0  0  0  0  0  0  0  0  0  0  0
   57.6200   28.8620   43.9840 N   0  0  0  0  0  0  0  0  0  0  0  0
   56.9590   30.0130   44.5370 C   0  0  0  0  0  0  0  0  0  0  0  0
   55.7010   30.1040   44.5170 O   0  0  0  0  0  0  0  0  0  0  0  0
   57.7640   31.1140   45.1170 C   0  0  0  0  0  0  0  0  0  0  0  0
   57.3750   32.4550   44.9390 C   0  0  0  0  0  0  0  0  0  0  0  0
   56.4672   32.6888   44.3635 H   0  0  0  0  0  0  0  0  0  0  0  0
   58.1350   33.4920   45.4890 C   0  0  0  0  0  0  0  0  0  0  0  0
   57.8278   34.5370   45.3355 H   0  0  0  0  0  0  0  0  0  0  0  0
   59.2850   33.2060   46.2340 C   0  0  0  0  0  0  0  0  0  0  0  0
   60.2450   34.4990   46.9530 S   0  0  0  0  0  0  0  0  0  0  0  0
   59.6370   35.8410   46.6470 O   0  0  0  0  0  0  0  0  0  0  0  0
   61.6210   34.4520   46.3500 O   0  0  0  0  0  0  0  0  0  0  0  0
   60.3650   34.2800   48.6850 N   0  0  0  0  0  0  0  0  0  0  0  0
   59.3250   33.3640   49.2000 C   0  0  0  0  0  0  0  0  0  0  0  0
   59.5226   32.3472   48.8299 H   0  0  0  0  0  0  0  0  0  0  0  0
   58.3411   33.7101   48.8504 H   0  0  0  0  0  0  0  0  0  0  0  0
   59.3310   33.3530   50.7320 C   0  0  0  0  0  0  0  0  0  0  0  0
   59.0833   34.3612   51.0955 H   0  0  0  0  0  0  0  0  0  0  0  0
   60.3328   33.0451   51.0661 H   0  0  0  0  0  0  0  0  0  0  0  0
   58.3180   32.3610   51.3000 C   0  0  0  0  0  0  0  0  0  0  0  0
   58.3504   32.3927   52.3991 H   0  0  0  0  0  0  0  0  0  0  0  0
   57.3086   32.6296   50.9550 H   0  0  0  0  0  0  0  0  0  0  0  0
   58.5654   31.3462   50.9550 H   0  0  0  0  0  0  0  0  0  0  0  0
   61.7340   33.9580   49.1500 C   0  0  0  0  0  0  0  0  0  0  0  0
   62.4052   34.7665   48.8247 H   0  0  0  0  0  0  0  0  0  0  0  0
   61.6747   33.8580   50.2438 H   0  0  0  0  0  0  0  0  0  0  0  0
   62.2990   32.6210   48.6200 C   0  0  0  0  0  0  0  0  0  0  0  0
   62.4419   31.9304   49.4642 H   0  0  0  0  0  0  0  0  0  0  0  0
   61.5857   32.2000   47.8962 H   0  0  0  0  0  0  0  0  0  0  0  0
   63.6370   32.8360   47.9180 C   0  0  0  0  0  0  0  0  0  0  0  0
   64.4294   32.9633   48.6702 H   0  0  0  0  0  0  0  0  0  0  0  0
   63.8655   31.9630   47.2889 H   0  0  0  0  0  0  0  0  0  0  0  0
   63.5805   33.7366   47.2889 H   0  0  0  0  0  0  0  0  0  0  0  0
   59.6770   31.8760   46.4140 C   0  0  0  0  0  0  0  0  0  0  0  0
   60.5818   31.6465   46.9959 H   0  0  0  0  0  0  0  0  0  0  0  0
   58.9260   30.8370   45.8590 C   0  0  0  0  0  0  0  0  0  0  0  0
   59.2460   29.7945   46.0035 H   0  0  0  0  0  0  0  0  0  0  0  0
   57.5250   26.5430   43.9700 N   0  0  0  0  0  0  0  0  0  0  0  0
   57.0640   26.4840   43.0350 H   0  0  0  0  0  0  0  0  0  0  0  0
   57.8410   25.4620   44.7430 C   0  0  0  0  0  0  0  0  0  0  0  0
   57.5900   24.0660   44.3030 C   0  0  0  0  0  0  0  0  0  0  0  0
   58.3620   23.0050   44.8150 C   0  0  0  0  0  0  0  0  0  0  0  0
   59.1552   23.2110   45.5487 H   0  0  0  0  0  0  0  0  0  0  0  0
   58.1270   21.6920   44.3970 C   0  0  0  0  0  0  0  0  0  0  0  0
   58.7360   20.8701   44.8016 H   0  0  0  0  0  0  0  0  0  0  0  0
   57.1210   21.4210   43.4670 C   0  0  0  0  0  0  0  0  0  0  0  0
   56.9397   20.3873   43.1376 H   0  0  0  0  0  0  0  0  0  0  0  0
   56.3460   22.4630   42.9560 C   0  0  0  0  0  0  0  0  0  0  0  0
   55.5520   22.2488   42.2255 H   0  0  0  0  0  0  0  0  0  0  0  0
   56.5760   23.7780   43.3700 C   0  0  0  0  0  0  0  0  0  0  0  0
   55.9601   24.5939   42.9638 H   0  0  0  0  0  0  0  0  0  0  0  0
  1  2  1  0
  2  3  1  0
  3  4  1  0
  4  5  2  0
  5  6  1  0
  6  7  2  0
  6  8  1  0
  8  9  2  0
  9 10  1  0
  9 11  1  0
 11 12  1  0
 11 13  2  0
 13 14  1  0
 14 15  2  0
 14 16  2  0
 14 17  1  0
 17 18  1  0
 18 19  1  0
 18 20  1  0
 18 21  1  0
 21 22  1  0
 21 23  1  0
 21 24  1  0
 24 25  1  0
 24 26  1  0
 24 27  1  0
 17 28  1  0
 28 29  1  0
 28 30  1  0
 28 31  1  0
 31 32  1  0
 31 33  1  0
 31 34  1  0
 34 35  1  0
 34 36  1  0
 34 37  1  0
 13 38  1  0
 38 39  1  0
 38 40  2  0
 40 41  1  0
  4 42  1  0
 42 43  1  0
 42 44  1  0
 44 45  1  0
 45 46  2  0
 46 47  1  0
 46 48  1  0
 48 49  1  0
 48 50  2  0
 50 51  1  0
 50 52  1  0
 52 53  1  0
 52 54  2  0
 54 55  1  0
 44  2  2  0
 54 45  1  0
 40  8  1  0
M  END
>  <UniqueID>  (37) 
32

>  <SMILES>  (37) 
CCCN(CCC)S(=O)(=O)c1ccc(C(=O)/N=c2/[nH]c(-c3ccccc3)cs2)cc1

>  <Energy>  (37) 
90.45245458370036

>  <Genealogy>  (37) 
CCCN(CCC)S(=O)(=O)c1ccc(C(=O)/N=c2/[nH]c(-c3ccccc3)cs2)cc1 (cis-trans isomerization)
CCCN(CCC)S(=O)(=O)c1ccc(C(=O)/N=c2/[nH]c(-c3ccccc3)cs2)cc1 (3D coordinates assigned)
CCCN(CCC)S(=O)(=O)c1ccc(C(=O)/N=c2/[nH]c(-c3ccccc3)cs2)cc1 (optimized conformer: 90.45245458370036 kcal/mol)

>  <smiles>  (37) 
CCCN(CCC)S(=O)(=O)c1ccc(C(=O)N=c2[nH]c(-c3ccccc3)cs2)cc1

>  <score_type>  (37) 
oracle

>  <origin>  (37) 
adg

>  <m_score__min__energy>  (37) 
-9.4800000000000004

>  <m_primary>  (37) 
energy

$$$$
37:0
     RDKit          3D

 40 43  0  0  0  0  0  0  0  0999 V2000
   59.2550   34.5780   47.4160 C   0  0  0  0  0  0  0  0  0  0  0  0
   59.2830   33.3020   48.0460 O   0  0  0  0  0  0  0  0  0  0  0  0
   59.4870   33.0980   49.4190 C   0  0  0  0  0  0  0  0  0  0  0  0
   60.6350   33.6390   50.0050 C   0  0  0  0  0  0  0  0  0  0  0  0
   60.8820   33.4650   51.3670 C   0  0  0  0  0  0  0  0  0  0  0  0
   59.9850   32.7460   52.1590 C   0  0  0  0  0  0  0  0  0  0  0  0
   58.8210   32.1880   51.5940 C   0  0  0  0  0  0  0  0  0  0  0  0
   57.8830   31.4420   52.3960 N   0  0  0  0  0  0  0  0  0  0  0  0
   57.3120   30.2490   52.1160 C   0  0  0  0  0  0  0  0  0  0  0  0
   56.4810   29.9550   53.1760 C   0  0  0  0  0  0  0  0  0  0  0  0
   55.6360   28.7290   53.3490 C   0  0  0  0  0  0  0  0  0  0  0  0
   54.3550   29.0710   53.9660 N   0  0  0  0  0  0  0  0  0  0  0  0
   53.3740   29.9450   53.3740 C   0  0  0  0  0  0  0  0  0  0  0  0
   52.5360   30.7800   54.1670 C   0  0  0  0  0  0  0  0  0  0  0  0
   51.5900   31.6290   53.5650 C   0  0  0  0  0  0  0  0  0  0  0  0
   51.5000   31.6200   52.1770 C   0  0  0  0  0  0  0  0  0  0  0  0
   50.6750   32.3410   51.4030 N   0  0  0  0  0  0  0  0  0  0  0  0
   51.0230   31.9290   50.1580 C   0  0  0  0  0  0  0  0  0  0  0  0
   50.4700   32.3780   49.1210 O   0  0  0  0  0  0  0  0  0  0  0  0
   52.0110   30.9990   50.1110 N   0  0  0  0  0  0  0  0  0  0  0  0
   52.2920   30.8220   51.4100 C   0  0  0  0  0  0  0  0  0  0  0  0
   53.2410   29.9700   51.9670 C   0  0  0  0  0  0  0  0  0  0  0  0
   56.5780   30.9600   54.0630 N   0  0  0  0  0  0  0  0  0  0  0  0
   57.4250   31.8500   53.5730 N   0  0  0  0  0  0  0  0  0  0  0  0
   58.5820   32.3730   50.2180 C   0  0  0  0  0  0  0  0  0  0  0  0
   59.2377   35.3656   48.1837 H   0  0  0  0  0  0  0  0  0  0  0  0
   60.1508   34.6970   46.7887 H   0  0  0  0  0  0  0  0  0  0  0  0
   58.3549   34.6575   46.7887 H   0  0  0  0  0  0  0  0  0  0  0  0
   61.3482   34.2056   49.3883 H   0  0  0  0  0  0  0  0  0  0  0  0
   61.7875   33.8962   51.8188 H   0  0  0  0  0  0  0  0  0  0  0  0
   60.1884   32.6141   53.2320 H   0  0  0  0  0  0  0  0  0  0  0  0
   57.4778   29.6341   51.2191 H   0  0  0  0  0  0  0  0  0  0  0  0
   55.4532   28.2738   52.3644 H   0  0  0  0  0  0  0  0  0  0  0  0
   56.1670   28.0210   54.0022 H   0  0  0  0  0  0  0  0  0  0  0  0
   54.1360   28.6280   54.8880 H   0  0  0  0  0  0  0  0  0  0  0  0
   52.6297   30.7607   55.2628 H   0  0  0  0  0  0  0  0  0  0  0  0
   50.9425   32.2789   54.1720 H   0  0  0  0  0  0  0  0  0  0  0  0
   53.8711   29.3328   51.3291 H   0  0  0  0  0  0  0  0  0  0  0  0
   56.0830   31.0470   54.9780 H   0  0  0  0  0  0  0  0  0  0  0  0
   57.6768   31.9456   49.7619 H   0  0  0  0  0  0  0  0  0  0  0  0
  1  2  1  0
  2  3  1  0
  3  4  2  0
  4  5  1  0
  5  6  2  0
  6  7  1  0
  7  8  1  0
  8  9  1  0
  9 10  2  0
 10 11  1  0
 11 12  1  0
 12 13  1  0
 13 14  2  0
 14 15  1  0
 15 16  2  0
 16 17  1  0
 17 18  1  0
 18 19  2  0
 18 20  1  0
 20 21  1  0
 21 22  2  0
 10 23  1  0
 23 24  2  0
  7 25  2  0
 25  3  1  0
 24  8  1  0
 22 13  1  0
 21 16  1  0
  1 26  1  0
  1 27  1  0
  1 28  1  0
  4 29  1  0
  5 30  1  0
  6 31  1  0
  9 32  1  0
 11 33  1  0
 11 34  1  0
 12 35  1  0
 14 36  1  0
 15 37  1  0
 22 38  1  0
 23 39  1  0
 25 40  1  0
M  CHG  3  17  -1  20  -1  23   1
M  END
>  <UniqueID>  (38) 
33

>  <SMILES>  (38) 
COc1cccc(-n2cc(CNc3ccc4[n-]c(=O)[n-]c4c3)[nH+]n2)c1

>  <Energy>  (38) 
115.5299312028737

>  <Genealogy>  (38) 
COc1cccc(-n2cc(CNc3ccc4[n-]c(=O)[n-]c4c3)[nH+]n2)c1 (protonated)
COc1cccc(-n2cc(CNc3ccc4[n-]c(=O)[n-]c4c3)[nH+]n2)c1 (3D coordinates assigned)
COc1cccc(-n2cc(CNc3ccc4[n-]c(=O)[n-]c4c3)[nH+]n2)c1 (optimized conformer: 115.5299312028737 kcal/mol)

>  <smiles>  (38) 
COc1cccc(-n2cc(CNc3ccc4[nH]c(=O)[nH]c4c3)nn2)c1

>  <score_type>  (38) 
oracle

>  <origin>  (38) 
adg

>  <m_score__min__energy>  (38) 
-10.210000000000001

>  <m_primary>  (38) 
energy

$$$$
38:0
     RDKit          3D

 29 30  0  0  0  0  0  0  0  0999 V2000
   55.8840   29.9850   43.6420 C   0  0  0  0  0  0  0  0  0  0  0  0
   57.2450   30.4710   43.4360 N   0  0  0  0  0  0  0  0  0  0  0  0
   57.8850   31.4350   44.2930 C   0  0  0  0  0  0  0  0  0  0  0  0
   57.8700   32.8110   44.0000 C   0  0  0  0  0  0  0  0  0  0  0  0
   58.5000   33.7230   44.8520 C   0  0  0  0  0  0  0  0  0  0  0  0
   59.1660   33.2790   46.0060 C   0  0  0  0  0  0  0  0  0  0  0  0
   59.8160   34.2590   46.9110 C   0  0  0  0  0  0  0  0  0  0  0  0
   59.2200   35.3430   47.1610 O   0  0  0  0  0  0  0  0  0  0  0  0
   61.1400   34.0110   47.5300 C   0  0  0  0  0  0  0  0  0  0  0  0
   61.3460   34.2120   48.9080 C   0  0  0  0  0  0  0  0  0  0  0  0
   62.5950   33.9580   49.4820 C   0  0  0  0  0  0  0  0  0  0  0  0
   63.6480   33.4910   48.6910 C   0  0  0  0  0  0  0  0  0  0  0  0
   64.8580   33.2450   49.2490 F   0  0  0  0  0  0  0  0  0  0  0  0
   63.4510   33.2740   47.3250 C   0  0  0  0  0  0  0  0  0  0  0  0
   62.2030   33.5260   46.7460 C   0  0  0  0  0  0  0  0  0  0  0  0
   59.1670   31.9060   46.3060 C   0  0  0  0  0  0  0  0  0  0  0  0
   58.5360   30.9940   45.4540 C   0  0  0  0  0  0  0  0  0  0  0  0
   55.6800   29.9121   44.7205 H   0  0  0  0  0  0  0  0  0  0  0  0
   55.1712   30.6842   43.1804 H   0  0  0  0  0  0  0  0  0  0  0  0
   55.7753   28.9925   43.1804 H   0  0  0  0  0  0  0  0  0  0  0  0
   57.7750   30.0920   42.6170 H   0  0  0  0  0  0  0  0  0  0  0  0
   57.3594   33.1715   43.0949 H   0  0  0  0  0  0  0  0  0  0  0  0
   58.4738   34.7972   44.6166 H   0  0  0  0  0  0  0  0  0  0  0  0
   60.5185   34.5714   49.5373 H   0  0  0  0  0  0  0  0  0  0  0  0
   62.7492   34.1260   50.5581 H   0  0  0  0  0  0  0  0  0  0  0  0
   64.2796   32.9040   46.7032 H   0  0  0  0  0  0  0  0  0  0  0  0
   62.0517   33.3440   45.6718 H   0  0  0  0  0  0  0  0  0  0  0  0
   59.6675   31.5463   47.2171 H   0  0  0  0  0  0  0  0  0  0  0  0
   58.5505   29.9212   45.6968 H   0  0  0  0  0  0  0  0  0  0  0  0
  1  2  1  0
  2  3  1  0
  3  4  2  0
  4  5  1  0
  5  6  2  0
  6  7  1  0
  7  8  2  0
  7  9  1  0
  9 10  2  0
 10 11  1  0
 11 12  2  0
 12 13  1  0
 12 14  1  0
 14 15  2  0
  6 16  1  0
 16 17  2  0
 17  3  1  0
 15  9  1  0
  1 18  1  0
  1 19  1  0
  1 20  1  0
  2 21  1  0
  4 22  1  0
  5 23  1  0
 10 24  1  0
 11 25  1  0
 14 26  1  0
 15 27  1  0
 16 28  1  0
 17 29  1  0
M  END
>  <UniqueID>  (39) 
34

>  <SMILES>  (39) 
CNc1ccc(C(=O)c2ccc(F)cc2)cc1

>  <Energy>  (39) 
34.49053351648062

>  <Genealogy>  (39) 
CNc1ccc(C(=O)c2ccc(F)cc2)cc1 (3D coordinates assigned)
CNc1ccc(C(=O)c2ccc(F)cc2)cc1 (optimized conformer: 34.49053351648062 kcal/mol)

>  <smiles>  (39) 
CNc1ccc(C(=O)c2ccc(F)cc2)cc1

>  <score_type>  (39) 
oracle

>  <origin>  (39) 
adg

>  <m_score__min__energy>  (39) 
-6.4299999999999997

>  <m_primary>  (39) 
energy

$$$$
39:0
     RDKit          3D

 30 33  0  0  0  0  0  0  0  0999 V2000
   53.6540   26.7180   46.2530 H   0  0  0  0  0  0  0  0  0  0  0  0
   54.2650   25.9660   45.8610 N   0  0  0  0  0  0  0  0  0  0  0  0
   55.5520   26.0170   45.9720 C   0  0  0  0  0  0  0  0  0  0  0  0
   56.2620   24.9120   46.3380 N   0  0  0  0  0  0  0  0  0  0  0  0
   57.6230   24.8470   46.4820 C   0  0  0  0  0  0  0  0  0  0  0  0
   58.1410   23.7500   46.8160 O   0  0  0  0  0  0  0  0  0  0  0  0
   58.4600   25.9600   46.2630 C   0  0  0  0  0  0  0  0  0  0  0  0
   60.1390   25.9880   46.3670 S   0  0  0  0  0  0  0  0  0  0  0  0
   60.3290   27.6100   45.9440 C   0  0  0  0  0  0  0  0  0  0  0  0
   61.2883   28.1413   45.8573 H   0  0  0  0  0  0  0  0  0  0  0  0
   59.0680   28.1670   45.7220 C   0  0  0  0  0  0  0  0  0  0  0  0
   58.8780   29.5840   45.3340 C   0  0  0  0  0  0  0  0  0  0  0  0
   58.2170   29.9200   44.1370 C   0  0  0  0  0  0  0  0  0  0  0  0
   57.8501   29.1235   43.4730 H   0  0  0  0  0  0  0  0  0  0  0  0
   58.0240   31.2610   43.7870 C   0  0  0  0  0  0  0  0  0  0  0  0
   57.5147   31.5169   42.8462 H   0  0  0  0  0  0  0  0  0  0  0  0
   58.4790   32.2740   44.6340 C   0  0  0  0  0  0  0  0  0  0  0  0
   59.1500   31.9490   45.8190 C   0  0  0  0  0  0  0  0  0  0  0  0
   59.3320   30.6110   46.1790 C   0  0  0  0  0  0  0  0  0  0  0  0
   59.8320   30.3610   47.1264 H   0  0  0  0  0  0  0  0  0  0  0  0
   59.6340   32.9810   46.6300 O   0  0  0  0  0  0  0  0  0  0  0  0
   59.7040   34.3260   46.1510 C   0  0  0  0  0  0  0  0  0  0  0  0
   59.7373   35.0152   47.0076 H   0  0  0  0  0  0  0  0  0  0  0  0
   60.6109   34.4418   45.5394 H   0  0  0  0  0  0  0  0  0  0  0  0
   58.4750   34.6480   45.2890 C   0  0  0  0  0  0  0  0  0  0  0  0
   57.5874   34.7206   45.9347 H   0  0  0  0  0  0  0  0  0  0  0  0
   58.6415   35.6034   44.7699 H   0  0  0  0  0  0  0  0  0  0  0  0
   58.2690   33.6190   44.3170 O   0  0  0  0  0  0  0  0  0  0  0  0
   58.0330   27.2290   45.8990 C   0  0  0  0  0  0  0  0  0  0  0  0
   56.3790   27.4610   45.6620 S   0  0  0  0  0  0  0  0  0  0  0  0
  1  2  1  0
  2  3  2  0
  3  4  1  0
  4  5  1  0
  5  6  2  0
  5  7  1  0
  7  8  1  0
  8  9  1  0
  9 10  1  0
  9 11  2  0
 11 12  1  0
 12 13  2  0
 13 14  1  0
 13 15  1  0
 15 16  1  0
 15 17  2  0
 17 18  1  0
 18 19  2  0
 19 20  1  0
 18 21  1  0
 21 22  1  0
 22 23  1  0
 22 24  1  0
 22 25  1  0
 25 26  1  0
 25 27  1  0
 25 28  1  0
 11 29  1  0
 29 30  1  0
 30  3  1  0
 29  7  2  0
 19 12  1  0
 28 17  1  0
M  CHG  1   4  -1
M  END
>  <UniqueID>  (40) 
35

>  <SMILES>  (40) 
[H]/N=c1\[n-]c(=O)c2scc(-c3ccc4c(c3)OCCO4)c2s1

>  <Energy>  (40) 
73.66830542593824

>  <Genealogy>  (40) 
N=c1[n-]c(=O)c2scc(-c3ccc4c(c3)OCCO4)c2s1 (protonated)
[H]/N=c1\[n-]c(=O)c2scc(-c3ccc4c(c3)OCCO4)c2s1 (cis-trans isomerization)
[H]/N=c1\[n-]c(=O)c2scc(-c3ccc4c(c3)OCCO4)c2s1 (3D coordinates assigned)
[H]/N=c1\[n-]c(=O)c2scc(-c3ccc4c(c3)OCCO4)c2s1 (nonaromatic ring conformer: 73.66830542593824 kcal/mol)

>  <smiles>  (40) 
N=c1[nH]c(=O)c2scc(-c3ccc4c(c3)OCCO4)c2s1

>  <score_type>  (40) 
oracle

>  <origin>  (40) 
adg

>  <m_score__min__energy>  (40) 
-8.8499999999999996

>  <m_primary>  (40) 
energy

$$$$
41:0
     RDKit          3D

 44 46  0  0  0  0  0  0  0  0999 V2000
   58.8610   34.9060   47.2700 C   0  0  0  0  0  0  0  0  0  0  0  0
   58.4840   34.1040   46.0590 C   0  0  0  0  0  0  0  0  0  0  0  0
   59.2040   34.2500   44.8620 C   0  0  0  0  0  0  0  0  0  0  0  0
   58.8750   33.4780   43.7450 C   0  0  0  0  0  0  0  0  0  0  0  0
   57.8270   32.5520   43.8140 C   0  0  0  0  0  0  0  0  0  0  0  0
   57.4020   31.5710   42.3720 S   0  0  0  0  0  0  0  0  0  0  0  0
   56.1350   30.5670   43.2240 C   0  0  0  0  0  0  0  0  0  0  0  0
   56.7540   29.6560   44.2410 C   0  0  0  0  0  0  0  0  0  0  0  0
   56.0810   29.3120   45.2510 O   0  0  0  0  0  0  0  0  0  0  0  0
   58.1150   29.2260   44.0880 N   0  0  0  0  0  0  0  0  0  0  0  0
   58.7160   28.1680   44.8560 C   0  0  0  0  0  0  0  0  0  0  0  0
   58.2080   26.8550   44.8020 C   0  0  0  0  0  0  0  0  0  0  0  0
   58.8170   25.8290   45.5280 C   0  0  0  0  0  0  0  0  0  0  0  0
   59.9380   26.0970   46.3120 C   0  0  0  0  0  0  0  0  0  0  0  0
   60.4630   27.3900   46.3620 C   0  0  0  0  0  0  0  0  0  0  0  0
   59.8700   28.4290   45.6190 C   0  0  0  0  0  0  0  0  0  0  0  0
   60.3760   29.7370   45.6710 O   0  0  0  0  0  0  0  0  0  0  0  0
   60.2690   30.6090   46.7640 C   0  0  0  0  0  0  0  0  0  0  0  0
   61.3480   31.4500   47.0610 C   0  0  0  0  0  0  0  0  0  0  0  0
   61.2850   32.3230   48.1520 C   0  0  0  0  0  0  0  0  0  0  0  0
   60.1460   32.3510   48.9610 C   0  0  0  0  0  0  0  0  0  0  0  0
   59.0710   31.5020   48.6840 C   0  0  0  0  0  0  0  0  0  0  0  0
   59.1320   30.6290   47.5930 C   0  0  0  0  0  0  0  0  0  0  0  0
   57.1250   32.3820   45.0130 C   0  0  0  0  0  0  0  0  0  0  0  0
   57.4550   33.1530   46.1330 C   0  0  0  0  0  0  0  0  0  0  0  0
   58.5971   34.3445   48.1784 H   0  0  0  0  0  0  0  0  0  0  0  0
   59.9440   35.0986   47.2597 H   0  0  0  0  0  0  0  0  0  0  0  0
   58.3183   35.8628   47.2597 H   0  0  0  0  0  0  0  0  0  0  0  0
   60.0296   34.9745   44.8038 H   0  0  0  0  0  0  0  0  0  0  0  0
   59.4406   33.5979   42.8092 H   0  0  0  0  0  0  0  0  0  0  0  0
   55.4259   31.2390   43.7296 H   0  0  0  0  0  0  0  0  0  0  0  0
   55.6194   29.9497   42.4736 H   0  0  0  0  0  0  0  0  0  0  0  0
   58.7120   29.7460   43.4070 H   0  0  0  0  0  0  0  0  0  0  0  0
   57.3251   26.6363   44.1834 H   0  0  0  0  0  0  0  0  0  0  0  0
   58.4113   24.8076   45.4810 H   0  0  0  0  0  0  0  0  0  0  0  0
   60.4093   25.2895   46.8916 H   0  0  0  0  0  0  0  0  0  0  0  0
   61.3450   27.5982   46.9855 H   0  0  0  0  0  0  0  0  0  0  0  0
   62.2506   31.4241   46.4328 H   0  0  0  0  0  0  0  0  0  0  0  0
   62.1328   32.9881   48.3733 H   0  0  0  0  0  0  0  0  0  0  0  0
   60.0955   33.0413   49.8159 H   0  0  0  0  0  0  0  0  0  0  0  0
   58.1767   31.5204   49.3242 H   0  0  0  0  0  0  0  0  0  0  0  0
   58.2882   29.9556   47.3822 H   0  0  0  0  0  0  0  0  0  0  0  0
   56.3135   31.6419   45.0748 H   0  0  0  0  0  0  0  0  0  0  0  0
   56.9054   33.0130   47.0755 H   0  0  0  0  0  0  0  0  0  0  0  0
  1  2  1  0
  2  3  2  0
  3  4  1  0
  4  5  2  0
  5  6  1  0
  6  7  1  0
  7  8  1  0
  8  9  2  0
  8 10  1  0
 10 11  1  0
 11 12  2  0
 12 13  1  0
 13 14  2  0
 14 15  1  0
 15 16  2  0
 16 17  1  0
 17 18  1  0
 18 19  2  0
 19 20  1  0
 20 21  2  0
 21 22  1  0
 22 23  2  0
  5 24  1  0
 24 25  2  0
 25  2  1  0
 16 11  1  0
 23 18  1  0
  1 26  1  0
  1 27  1  0
  1 28  1  0
  3 29  1  0
  4 30  1  0
  7 31  1  0
  7 32  1  0
 10 33  1  0
 12 34  1  0
 13 35  1  0
 14 36  1  0
 15 37  1  0
 19 38  1  0
 20 39  1  0
 21 40  1  0
 22 41  1  0
 23 42  1  0
 24 43  1  0
 25 44  1  0
M  END
>  <UniqueID>  (41) 
36

>  <SMILES>  (41) 
Cc1ccc(SCC(=O)Nc2ccccc2Oc2ccccc2)cc1

>  <Energy>  (41) 
49.71464782268863

>  <Genealogy>  (41) 
Cc1ccc(SCC(=O)Nc2ccccc2Oc2ccccc2)cc1 (3D coordinates assigned)
Cc1ccc(SCC(=O)Nc2ccccc2Oc2ccccc2)cc1 (optimized conformer: 49.71464782268863 kcal/mol)

>  <smiles>  (41) 
Cc1ccc(SCC(=O)Nc2ccccc2Oc2ccccc2)cc1

>  <score_type>  (41) 
oracle

>  <origin>  (41) 
adg

>  <m_score__min__energy>  (41) 
-7.7400000000000002

>  <m_primary>  (41) 
energy

$$$$
42:0
     RDKit          3D

 31 33  0  0  0  0  0  0  0  0999 V2000
   59.4670   26.6790   46.6320 O   0  0  0  0  0  0  0  0  0  0  0  0
   58.2360   26.7060   46.3720 C   0  0  0  0  0  0  0  0  0  0  0  0
   57.6710   27.8270   45.7610 C   0  0  0  0  0  0  0  0  0  0  0  0
   56.3000   27.8180   45.4780 C   0  0  0  0  0  0  0  0  0  0  0  0
   55.6840   28.9680   44.8770 N   0  0  0  0  0  0  0  0  0  0  0  0
   56.4150   30.0480   44.2710 C   0  0  0  0  0  0  0  0  0  0  0  0
   56.4420   30.1610   42.8760 C   0  0  0  0  0  0  0  0  0  0  0  0
   57.1260   31.2140   42.2660 C   0  0  0  0  0  0  0  0  0  0  0  0
   57.7830   32.1690   43.0440 C   0  0  0  0  0  0  0  0  0  0  0  0
   57.7580   32.0860   44.4490 C   0  0  0  0  0  0  0  0  0  0  0  0
   58.4290   33.1070   45.2960 C   0  0  0  0  0  0  0  0  0  0  0  0
   59.0130   34.2610   44.7410 C   0  0  0  0  0  0  0  0  0  0  0  0
   59.6360   35.1880   45.5780 C   0  0  0  0  0  0  0  0  0  0  0  0
   59.6810   34.9640   46.9540 C   0  0  0  0  0  0  0  0  0  0  0  0
   59.1020   33.8060   47.4740 C   0  0  0  0  0  0  0  0  0  0  0  0
   58.4990   32.9140   46.6450 N   0  0  0  0  0  0  0  0  0  0  0  0
   57.0540   31.0270   45.0530 C   0  0  0  0  0  0  0  0  0  0  0  0
   55.5560   26.7320   45.8240 N   0  0  0  0  0  0  0  0  0  0  0  0
   56.1220   25.6500   46.4190 C   0  0  0  0  0  0  0  0  0  0  0  0
   55.4140   24.6550   46.7220 O   0  0  0  0  0  0  0  0  0  0  0  0
   57.4540   25.6400   46.6870 N   0  0  0  0  0  0  0  0  0  0  0  0
   58.2906   28.6997   45.5071 H   0  0  0  0  0  0  0  0  0  0  0  0
   54.6410   28.9830   44.8010 H   0  0  0  0  0  0  0  0  0  0  0  0
   55.9212   29.4157   42.2569 H   0  0  0  0  0  0  0  0  0  0  0  0
   57.1474   31.2915   41.1689 H   0  0  0  0  0  0  0  0  0  0  0  0
   58.3243   32.9926   42.5554 H   0  0  0  0  0  0  0  0  0  0  0  0
   58.9787   34.4312   43.6548 H   0  0  0  0  0  0  0  0  0  0  0  0
   60.0912   36.0946   45.1528 H   0  0  0  0  0  0  0  0  0  0  0  0
   60.1670   35.6913   47.6209 H   0  0  0  0  0  0  0  0  0  0  0  0
   59.1337   33.6148   48.5568 H   0  0  0  0  0  0  0  0  0  0  0  0
   57.0030   30.9644   46.1500 H   0  0  0  0  0  0  0  0  0  0  0  0
  1  2  2  0
  2  3  1  0
  3  4  2  0
  4  5  1  0
  5  6  1  0
  6  7  2  0
  7  8  1  0
  8  9  2  0
  9 10  1  0
 10 11  1  0
 11 12  2  0
 12 13  1  0
 13 14  2  0
 14 15  1  0
 15 16  2  0
 10 17  2  0
  4 18  1  0
 18 19  1  0
 19 20  2  0
 19 21  1  0
 21  2  1  0
 17  6  1  0
 16 11  1  0
  3 22  1  0
  5 23  1  0
  7 24  1  0
  8 25  1  0
  9 26  1  0
 12 27  1  0
 13 28  1  0
 14 29  1  0
 15 30  1  0
 17 31  1  0
M  CHG  2  18  -1  21  -1
M  END
>  <UniqueID>  (42) 
37

>  <SMILES>  (42) 
O=c1cc(Nc2cccc(-c3ccccn3)c2)[n-]c(=O)[n-]1

>  <Energy>  (42) 
43.71306214036191

>  <Genealogy>  (42) 
O=c1cc(Nc2cccc(-c3ccccn3)c2)[n-]c(=O)[n-]1 (protonated)
O=c1cc(Nc2cccc(-c3ccccn3)c2)[n-]c(=O)[n-]1 (3D coordinates assigned)
O=c1cc(Nc2cccc(-c3ccccn3)c2)[n-]c(=O)[n-]1 (optimized conformer: 43.71306214036191 kcal/mol)

>  <smiles>  (42) 
O=c1cc(Nc2cccc(-c3ccccn3)c2)[nH]c(=O)[nH]1

>  <score_type>  (42) 
oracle

>  <origin>  (42) 
adg

>  <m_score__min__energy>  (42) 
-12.33

>  <m_primary>  (42) 
energy

$$$$
43:0
     RDKit          3D

 48 50  0  0  0  0  0  0  0  0999 V2000
   57.8030   26.5540   42.8420 N   0  0  0  0  0  0  0  0  0  0  0  0
   59.8760   28.2880   45.1440 C   0  0  0  0  0  0  0  0  0  0  0  0
   59.3300   27.8380   43.9740 N   0  0  0  0  0  0  0  0  0  0  0  0
   58.3100   26.9660   43.9550 C   0  0  0  0  0  0  0  0  0  0  0  0
   60.8280   29.1020   45.1480 O   0  0  0  0  0  0  0  0  0  0  0  0
   59.3700   27.8390   46.2990 N   0  0  0  0  0  0  0  0  0  0  0  0
   59.8760   28.2460   47.6100 C   0  0  0  0  0  0  0  0  0  0  0  0
   58.9270   29.2120   48.2750 C   0  0  0  0  0  0  0  0  0  0  0  0
   58.8730   30.5350   47.5090 C   0  0  0  0  0  0  0  0  0  0  0  0
   58.3160   30.5520   46.3330 O   0  0  0  0  0  0  0  0  0  0  0  0
   57.7650   30.5690   45.1770 C   0  0  0  0  0  0  0  0  0  0  0  0
   56.7220   29.7370   44.8190 C   0  0  0  0  0  0  0  0  0  0  0  0
   56.1410   29.7690   43.5830 C   0  0  0  0  0  0  0  0  0  0  0  0
   56.6150   30.6690   42.6560 C   0  0  0  0  0  0  0  0  0  0  0  0
   57.6520   31.5290   42.9450 C   0  0  0  0  0  0  0  0  0  0  0  0
   58.2160   31.4750   44.1880 C   0  0  0  0  0  0  0  0  0  0  0  0
   58.3470   26.9630   46.3020 C   0  0  0  0  0  0  0  0  0  0  0  0
   57.7680   26.4840   45.1150 C   0  0  0  0  0  0  0  0  0  0  0  0
   56.6760   25.5360   45.2490 C   0  0  0  0  0  0  0  0  0  0  0  0
   56.9620   24.1660   44.8340 C   0  0  0  0  0  0  0  0  0  0  0  0
   56.6330   23.6830   43.5740 C   0  0  0  0  0  0  0  0  0  0  0  0
   56.8500   22.4050   43.1410 C   0  0  0  0  0  0  0  0  0  0  0  0
   57.4510   21.4590   43.9950 C   0  0  0  0  0  0  0  0  0  0  0  0
   57.7830   21.9250   45.2410 C   0  0  0  0  0  0  0  0  0  0  0  0
   58.4080   20.9480   46.1130 N   0  0  0  0  0  0  0  0  0  0  0  0
   57.5630   23.2120   45.6750 C   0  0  0  0  0  0  0  0  0  0  0  0
   56.8160   26.8020   42.6200 H   0  0  0  0  0  0  0  0  0  0  0  0
   59.6920   28.1570   43.0570 H   0  0  0  0  0  0  0  0  0  0  0  0
   59.9878   27.3553   48.2457 H   0  0  0  0  0  0  0  0  0  0  0  0
   60.8473   28.7439   47.4737 H   0  0  0  0  0  0  0  0  0  0  0  0
   57.9206   28.7688   48.3006 H   0  0  0  0  0  0  0  0  0  0  0  0
   59.2842   29.4103   49.2963 H   0  0  0  0  0  0  0  0  0  0  0  0
   58.3244   31.2516   48.1379 H   0  0  0  0  0  0  0  0  0  0  0  0
   59.9284   30.7722   47.3091 H   0  0  0  0  0  0  0  0  0  0  0  0
   56.3432   29.0183   45.5606 H   0  0  0  0  0  0  0  0  0  0  0  0
   55.3121   29.0900   43.3341 H   0  0  0  0  0  0  0  0  0  0  0  0
   56.1538   30.7027   41.6579 H   0  0  0  0  0  0  0  0  0  0  0  0
   58.0174   32.2428   42.1920 H   0  0  0  0  0  0  0  0  0  0  0  0
   59.0458   32.1563   44.4273 H   0  0  0  0  0  0  0  0  0  0  0  0
   57.9516   26.6108   47.2662 H   0  0  0  0  0  0  0  0  0  0  0  0
   56.3797   25.5117   46.3081 H   0  0  0  0  0  0  0  0  0  0  0  0
   55.8887   25.8932   44.5688 H   0  0  0  0  0  0  0  0  0  0  0  0
   56.1610   24.3838   42.8697 H   0  0  0  0  0  0  0  0  0  0  0  0
   56.5544   22.1139   42.1222 H   0  0  0  0  0  0  0  0  0  0  0  0
   57.6403   20.4209   43.6843 H   0  0  0  0  0  0  0  0  0  0  0  0
   58.5650   21.1280   47.1180 H   0  0  0  0  0  0  0  0  0  0  0  0
   58.6830   20.0420   45.6340 H   0  0  0  0  0  0  0  0  0  0  0  0
   57.8613   23.4990   46.6941 H   0  0  0  0  0  0  0  0  0  0  0  0
  1  2  2  3
  2  3  1  0
  3  4  1  0
  4  5  2  0
  4  6  1  0
  6  7  1  0
  7  8  1  0
  8  9  1  0
  9 10  1  0
 10 11  1  0
 11 12  2  0
 12 13  1  0
 13 14  2  0
 14 15  1  0
 15 16  2  0
  6 17  1  0
 17 18  2  0
 18 19  1  0
 19 20  1  0
 20 21  2  0
 21 22  1  0
 22 23  2  0
 23 24  1  0
 24 25  1  0
 24 26  2  0
 18  2  1  0
 26 20  1  0
 16 11  1  0
  1 27  1  0
  3 28  1  0
  7 29  1  0
  7 30  1  0
  8 31  1  0
  8 32  1  0
  9 33  1  0
  9 34  1  0
 12 35  1  0
 13 36  1  0
 14 37  1  0
 15 38  1  0
 16 39  1  0
 17 40  1  0
 19 41  1  0
 19 42  1  0
 21 43  1  0
 22 44  1  0
 23 45  1  0
 25 46  1  0
 25 47  1  0
 26 48  1  0
M  END
>  <smiles>  (43) 
N=c1[nH]c(=O)n(CCCOc2ccccc2)cc1Cc1cccc(N)c1

>  <score_type>  (43) 
oracle

>  <origin>  (43) 
adg

>  <m_score__min__energy>  (43) 
-7.8799999999999999

>  <m_primary>  (43) 
energy

$$$$
44:0
     RDKit          3D

 38 41  0  0  0  0  0  0  0  0999 V2000
   56.2410   20.5380   43.6740 O   0  0  0  0  0  0  0  0  0  0  0  0
   56.6330   21.8480   43.9330 C   0  0  0  0  0  0  0  0  0  0  0  0
   56.3400   22.8740   43.0260 C   0  0  0  0  0  0  0  0  0  0  0  0
   56.7390   24.1870   43.2960 C   0  0  0  0  0  0  0  0  0  0  0  0
   57.4340   24.4930   44.4800 C   0  0  0  0  0  0  0  0  0  0  0  0
   57.8510   25.8480   44.7570 N   0  0  0  0  0  0  0  0  0  0  0  0
   58.1260   26.7600   43.6330 C   0  0  0  0  0  0  0  0  0  0  0  0
   58.8650   28.0150   44.0990 C   0  0  0  0  0  0  0  0  0  0  0  0
   58.1760   28.5850   45.2600 N   0  0  0  0  0  0  0  0  0  0  0  0
   57.9930   30.0040   45.3810 C   0  0  0  0  0  0  0  0  0  0  0  0
   56.9280   30.6130   44.7840 N   0  0  0  0  0  0  0  0  0  0  0  0
   56.7370   31.9640   44.8690 C   0  0  0  0  0  0  0  0  0  0  0  0
   57.6250   32.7460   45.5490 N   0  0  0  0  0  0  0  0  0  0  0  0
   58.7010   32.1710   46.1420 C   0  0  0  0  0  0  0  0  0  0  0  0
   59.6990   32.8600   46.8340 C   0  0  0  0  0  0  0  0  0  0  0  0
   60.7050   32.0130   47.2980 C   0  0  0  0  0  0  0  0  0  0  0  0
   60.3430   30.4230   46.8420 S   0  0  0  0  0  0  0  0  0  0  0  0
   58.9020   30.8080   46.0690 C   0  0  0  0  0  0  0  0  0  0  0  0
   57.7800   27.7200   46.3790 C   0  0  0  0  0  0  0  0  0  0  0  0
   58.1730   26.2560   46.1340 C   0  0  0  0  0  0  0  0  0  0  0  0
   57.7260   23.4530   45.3830 C   0  0  0  0  0  0  0  0  0  0  0  0
   57.3270   22.1420   45.1100 C   0  0  0  0  0  0  0  0  0  0  0  0
   56.8900   19.7640   43.7530 H   0  0  0  0  0  0  0  0  0  0  0  0
   55.7944   22.6465   42.0984 H   0  0  0  0  0  0  0  0  0  0  0  0
   56.5075   24.9866   42.5769 H   0  0  0  0  0  0  0  0  0  0  0  0
   58.7450   26.2356   42.8901 H   0  0  0  0  0  0  0  0  0  0  0  0
   57.1652   27.0675   43.1944 H   0  0  0  0  0  0  0  0  0  0  0  0
   59.8959   27.7512   44.3775 H   0  0  0  0  0  0  0  0  0  0  0  0
   58.8828   28.7537   43.2842 H   0  0  0  0  0  0  0  0  0  0  0  0
   55.8620   32.4237   44.3862 H   0  0  0  0  0  0  0  0  0  0  0  0
   59.6925   33.9481   46.9950 H   0  0  0  0  0  0  0  0  0  0  0  0
   61.5913   32.3273   47.8686 H   0  0  0  0  0  0  0  0  0  0  0  0
   58.2758   28.0734   47.2951 H   0  0  0  0  0  0  0  0  0  0  0  0
   56.6856   27.7685   46.4783 H   0  0  0  0  0  0  0  0  0  0  0  0
   59.2543   26.1410   46.2999 H   0  0  0  0  0  0  0  0  0  0  0  0
   57.6070   25.6195   46.8301 H   0  0  0  0  0  0  0  0  0  0  0  0
   58.2729   23.6744   46.3114 H   0  0  0  0  0  0  0  0  0  0  0  0
   57.5600   21.3384   45.8241 H   0  0  0  0  0  0  0  0  0  0  0  0
  1  2  1  0
  2  3  2  0
  3  4  1  0
  4  5  2  0
  5  6  1  0
  6  7  1  0
  7  8  1  0
  8  9  1  0
  9 10  1  0
 10 11  2  0
 11 12  1  0
 12 13  2  0
 13 14  1  0
 14 15  1  0
 15 16  2  0
 16 17  1  0
 17 18  1  0
  9 19  1  0
 19 20  1  0
  5 21  1  0
 21 22  2  0
 22  2  1  0
 20  6  1  0
 18 10  1  0
 18 14  2  0
  1 23  1  0
  3 24  1  0
  4 25  1  0
  7 26  1  0
  7 27  1  0
  8 28  1  0
  8 29  1  0
 12 30  1  0
 15 31  1  0
 16 32  1  0
 19 33  1  0
 19 34  1  0
 20 35  1  0
 20 36  1  0
 21 37  1  0
 22 38  1  0
M  END
>  <UniqueID>  (44) 
38

>  <SMILES>  (44) 
Oc1ccc(N2CCN(c3ncnc4ccsc34)CC2)cc1

>  <Energy>  (44) 
82.44325719886034

>  <Genealogy>  (44) 
Oc1ccc(N2CCN(c3ncnc4ccsc34)CC2)cc1 (3D coordinates assigned)
Oc1ccc(N2CCN(c3ncnc4ccsc34)CC2)cc1 (nonaromatic ring conformer: 82.44325719886034 kcal/mol)

>  <smiles>  (44) 
Oc1ccc(N2CCN(c3ncnc4ccsc34)CC2)cc1

>  <score_type>  (44) 
oracle

>  <origin>  (44) 
adg

>  <m_score__min__energy>  (44) 
-7.2400000000000002

>  <m_primary>  (44) 
energy

$$$$
45:0
     RDKit          3D

 33 35  0  0  0  0  0  0  0  0999 V2000
   56.4490   30.3860   43.0780 O   0  0  0  0  0  0  0  0  0  0  0  0
   56.7250   30.5570   44.2970 C   0  0  0  0  0  0  0  0  0  0  0  0
   56.2900   29.5960   45.2650 N   0  0  0  0  0  0  0  0  0  0  0  0
   56.6130   28.1740   45.2000 C   0  0  0  0  0  0  0  0  0  0  0  0
   57.4520   27.7440   46.4080 C   0  0  0  0  0  0  0  0  0  0  0  0
   58.6640   28.6240   46.5770 C   0  0  0  0  0  0  0  0  0  0  0  0
   58.8910   29.2940   47.7910 C   0  0  0  0  0  0  0  0  0  0  0  0
   59.9930   30.1430   47.9320 C   0  0  0  0  0  0  0  0  0  0  0  0
   60.8720   30.3320   46.8620 C   0  0  0  0  0  0  0  0  0  0  0  0
   60.6480   29.6760   45.6490 C   0  0  0  0  0  0  0  0  0  0  0  0
   59.5460   28.8280   45.5030 C   0  0  0  0  0  0  0  0  0  0  0  0
   57.4860   31.7510   44.7250 C   0  0  0  0  0  0  0  0  0  0  0  0
   57.9410   32.6930   43.7680 C   0  0  0  0  0  0  0  0  0  0  0  0
   58.6560   33.8330   44.1660 C   0  0  0  0  0  0  0  0  0  0  0  0
   58.9030   34.0140   45.5220 C   0  0  0  0  0  0  0  0  0  0  0  0
   59.7160   35.2660   46.2850 S   0  0  0  0  0  0  0  0  0  0  0  0
   59.4750   34.5920   47.8190 C   0  0  0  0  0  0  0  0  0  0  0  0
   58.7840   33.4280   47.7570 N   0  0  0  0  0  0  0  0  0  0  0  0
   58.4680   33.1110   46.4750 C   0  0  0  0  0  0  0  0  0  0  0  0
   57.7570   31.9710   46.0970 C   0  0  0  0  0  0  0  0  0  0  0  0
   55.6788   27.5935   45.1863 H   0  0  0  0  0  0  0  0  0  0  0  0
   57.1960   27.9892   44.2857 H   0  0  0  0  0  0  0  0  0  0  0  0
   56.8331   27.8092   47.3150 H   0  0  0  0  0  0  0  0  0  0  0  0
   57.7940   26.7118   46.2422 H   0  0  0  0  0  0  0  0  0  0  0  0
   58.1990   29.1500   48.6339 H   0  0  0  0  0  0  0  0  0  0  0  0
   60.1682   30.6625   48.8857 H   0  0  0  0  0  0  0  0  0  0  0  0
   61.7405   30.9975   46.9749 H   0  0  0  0  0  0  0  0  0  0  0  0
   61.3399   29.8269   44.8073 H   0  0  0  0  0  0  0  0  0  0  0  0
   59.3692   28.3190   44.5440 H   0  0  0  0  0  0  0  0  0  0  0  0
   57.7310   32.5283   42.7009 H   0  0  0  0  0  0  0  0  0  0  0  0
   59.0115   34.5639   43.4248 H   0  0  0  0  0  0  0  0  0  0  0  0
   59.8361   35.0447   48.7542 H   0  0  0  0  0  0  0  0  0  0  0  0
   57.4117   31.2528   46.8553 H   0  0  0  0  0  0  0  0  0  0  0  0
  1  2  2  0
  2  3  1  0
  3  4  1  0
  4  5  1  0
  5  6  1  0
  6  7  2  0
  7  8  1  0
  8  9  2  0
  9 10  1  0
 10 11  2  0
  2 12  1  0
 12 13  2  0
 13 14  1  0
 14 15  2  0
 15 16  1  0
 16 17  1  0
 17 18  2  0
 18 19  1  0
 19 20  2  0
 11  6  1  0
 20 12  1  0
 19 15  1  0
  4 21  1  0
  4 22  1  0
  5 23  1  0
  5 24  1  0
  7 25  1  0
  8 26  1  0
  9 27  1  0
 10 28  1  0
 11 29  1  0
 13 30  1  0
 14 31  1  0
 17 32  1  0
 20 33  1  0
M  CHG  1   3  -1
M  END
>  <UniqueID>  (45) 
39

>  <SMILES>  (45) 
O=C([N-]CCc1ccccc1)c1ccc2scnc2c1

>  <Energy>  (45) 
65.72957816907851

>  <Genealogy>  (45) 
O=C([N-]CCc1ccccc1)c1ccc2scnc2c1 (protonated)
O=C([N-]CCc1ccccc1)c1ccc2scnc2c1 (3D coordinates assigned)
O=C([N-]CCc1ccccc1)c1ccc2scnc2c1 (optimized conformer: 65.72957816907851 kcal/mol)

>  <smiles>  (45) 
O=C(NCCc1ccccc1)c1ccc2scnc2c1

>  <score_type>  (45) 
oracle

>  <origin>  (45) 
adg

>  <m_score__min__energy>  (45) 
-8.9800000000000004

>  <m_primary>  (45) 
energy

$$$$
46:0
     RDKit          3D

 26 27  0  0  0  0  0  0  0  0999 V2000
   60.8223   35.6106   47.1763 H   0  0  0  0  0  0  0  0  0  0  0  0
   60.4630   34.6010   46.9280 C   0  0  0  0  0  0  0  0  0  0  0  0
   61.3120   33.4850   47.1370 C   0  0  0  0  0  0  0  0  0  0  0  0
   62.7160   33.6850   47.6480 C   0  0  0  0  0  0  0  0  0  0  0  0
   63.2880   32.4730   47.9930 F   0  0  0  0  0  0  0  0  0  0  0  0
   63.4790   34.2790   46.6600 F   0  0  0  0  0  0  0  0  0  0  0  0
   62.7160   34.4980   48.7680 F   0  0  0  0  0  0  0  0  0  0  0  0
   60.8610   32.1970   46.7770 C   0  0  0  0  0  0  0  0  0  0  0  0
   61.5128   31.3193   46.8988 H   0  0  0  0  0  0  0  0  0  0  0  0
   59.5750   32.0610   46.2650 C   0  0  0  0  0  0  0  0  0  0  0  0
   58.7870   30.6610   45.7710 S   0  0  0  0  0  0  0  0  0  0  0  0
   57.3970   31.5260   45.3470 C   0  0  0  0  0  0  0  0  0  0  0  0
   56.3320   30.9690   44.8590 N   0  0  0  0  0  0  0  0  0  0  0  0
   56.3590   29.7590   44.0410 C   0  0  0  0  0  0  0  0  0  0  0  0
   55.4043   29.2232   44.1478 H   0  0  0  0  0  0  0  0  0  0  0  0
   57.1834   29.1110   44.3734 H   0  0  0  0  0  0  0  0  0  0  0  0
   56.5690   30.1370   42.5760 C   0  0  0  0  0  0  0  0  0  0  0  0
   55.5896   30.2841   42.0973 H   0  0  0  0  0  0  0  0  0  0  0  0
   57.1201   29.3260   42.0775 H   0  0  0  0  0  0  0  0  0  0  0  0
   57.3450   31.3670   42.4660 N   0  0  0  0  0  0  0  0  0  0  0  0
   57.3030   32.0560   41.4460 N   0  0  0  0  0  0  0  0  0  0  0  0
   57.2610   32.7430   40.4270 N   0  0  0  0  0  0  0  0  0  0  0  0
   57.5130   32.8600   45.5680 N   0  0  0  0  0  0  0  0  0  0  0  0
   58.7360   33.1500   46.0820 C   0  0  0  0  0  0  0  0  0  0  0  0
   59.1690   34.4340   46.4080 C   0  0  0  0  0  0  0  0  0  0  0  0
   58.5089   35.3015   46.2606 H   0  0  0  0  0  0  0  0  0  0  0  0
  1  2  1  0
  2  3  2  0
  3  4  1  0
  4  5  1  0
  4  6  1  0
  4  7  1  0
  3  8  1  0
  8  9  1  0
  8 10  2  0
 10 11  1  0
 11 12  1  0
 12 13  2  0
 13 14  1  0
 14 15  1  0
 14 16  1  0
 14 17  1  0
 17 18  1  0
 17 19  1  0
 17 20  1  0
 20 21  2  0
 21 22  2  0
 12 23  1  0
 23 24  1  0
 24 25  2  0
 25 26  1  0
 25  2  1  0
 24 10  1  0
M  CHG  3  21   1  22  -1  23  -1
M  END
>  <UniqueID>  (46) 
40

>  <SMILES>  (46) 
[N-]=[N+]=NCC/N=c1\[n-]c2ccc(C(F)(F)F)cc2s1

>  <Energy>  (46) 
56.205553783028115

>  <Genealogy>  (46) 
[N-]=[N+]=NCCN=c1[n-]c2ccc(C(F)(F)F)cc2s1 (protonated)
[N-]=[N+]=NCC/N=c1\[n-]c2ccc(C(F)(F)F)cc2s1 (cis-trans isomerization)
[N-]=[N+]=NCC/N=c1\[n-]c2ccc(C(F)(F)F)cc2s1 (3D coordinates assigned)
[N-]=[N+]=NCC/N=c1\[n-]c2ccc(C(F)(F)F)cc2s1 (optimized conformer: 56.205553783028115 kcal/mol)

>  <smiles>  (46) 
[N-]=[N+]=NCCN=c1[nH]c2ccc(C(F)(F)F)cc2s1

>  <score_type>  (46) 
oracle

>  <origin>  (46) 
adg

>  <m_score__min__energy>  (46) 
-7.7000000000000002

>  <m_primary>  (46) 
energy

$$$$
47:0
     RDKit          3D

 42 44  0  0  0  0  0  0  0  0999 V2000
   59.5500   25.3040   46.4600 H   0  0  0  0  0  0  0  0  0  0  0  0
   59.5550   24.3240   46.2150 O   0  0  0  0  0  0  0  0  0  0  0  0
   58.5080   23.7070   45.5330 C   0  0  0  0  0  0  0  0  0  0  0  0
   58.7300   22.4700   44.9010 C   0  0  0  0  0  0  0  0  0  0  0  0
   59.7288   22.0109   44.9414 H   0  0  0  0  0  0  0  0  0  0  0  0
   57.6890   21.8120   44.2170 C   0  0  0  0  0  0  0  0  0  0  0  0
   57.8810   20.8427   43.7338 H   0  0  0  0  0  0  0  0  0  0  0  0
   56.4090   22.3830   44.1470 C   0  0  0  0  0  0  0  0  0  0  0  0
   55.5907   21.8722   43.6183 H   0  0  0  0  0  0  0  0  0  0  0  0
   56.2020   23.6180   44.7670 C   0  0  0  0  0  0  0  0  0  0  0  0
   57.2200   24.2640   45.4430 C   0  0  0  0  0  0  0  0  0  0  0  0
   56.6480   25.3910   46.0100 C   0  0  0  0  0  0  0  0  0  0  0  0
   57.2600   26.2940   46.9410 N   0  0  0  0  0  0  0  0  0  0  0  0
   58.5220   26.4200   47.1130 N   0  0  0  0  0  0  0  0  0  0  0  0
   59.3460   27.4410   46.5220 C   0  0  0  0  0  0  0  0  0  0  0  0
   60.5820   27.2300   46.4030 O   0  0  0  0  0  0  0  0  0  0  0  0
   58.7870   28.7530   46.1190 C   0  0  0  0  0  0  0  0  0  0  0  0
   57.8940   28.8190   45.0400 C   0  0  0  0  0  0  0  0  0  0  0  0
   57.5606   27.8913   44.5519 H   0  0  0  0  0  0  0  0  0  0  0  0
   57.4240   30.0490   44.5790 C   0  0  0  0  0  0  0  0  0  0  0  0
   56.2380   30.0880   43.0770 Br  0  0  0  0  0  0  0  0  0  0  0  0
   57.8320   31.2380   45.1950 C   0  0  0  0  0  0  0  0  0  0  0  0
   57.3550   32.4580   44.6860 O   0  0  0  0  0  0  0  0  0  0  0  0
   57.6840   33.7370   45.2170 C   0  0  0  0  0  0  0  0  0  0  0  0
   57.6724   33.6918   46.3160 H   0  0  0  0  0  0  0  0  0  0  0  0
   58.6868   34.0301   44.8727 H   0  0  0  0  0  0  0  0  0  0  0  0
   56.9471   34.4776   44.8727 H   0  0  0  0  0  0  0  0  0  0  0  0
   58.7060   31.1770   46.2960 C   0  0  0  0  0  0  0  0  0  0  0  0
   59.0150   32.1062   46.7971 H   0  0  0  0  0  0  0  0  0  0  0  0
   59.1900   29.9390   46.7640 C   0  0  0  0  0  0  0  0  0  0  0  0
   60.0930   29.8570   47.8380 O   0  0  0  0  0  0  0  0  0  0  0  0
   59.7190   29.6720   49.1990 C   0  0  0  0  0  0  0  0  0  0  0  0
   60.5114   30.0640   49.8535 H   0  0  0  0  0  0  0  0  0  0  0  0
   58.7801   30.2096   49.3976 H   0  0  0  0  0  0  0  0  0  0  0  0
   59.5765   28.5995   49.3976 H   0  0  0  0  0  0  0  0  0  0  0  0
   55.3140   25.3820   45.6280 C   0  0  0  0  0  0  0  0  0  0  0  0
   54.3690   26.3330   45.9980 O   0  0  0  0  0  0  0  0  0  0  0  0
   55.0430   24.3040   44.8600 N   0  0  0  0  0  0  0  0  0  0  0  0
   53.7280   23.8860   44.3790 C   0  0  0  0  0  0  0  0  0  0  0  0
   53.0727   23.6777   45.2376 H   0  0  0  0  0  0  0  0  0  0  0  0
   53.2886   24.6888   43.7687 H   0  0  0  0  0  0  0  0  0  0  0  0
   53.8328   22.9769   43.7687 H   0  0  0  0  0  0  0  0  0  0  0  0
  1  2  1  0
  2  3  1  0
  3  4  2  0
  4  5  1  0
  4  6  1  0
  6  7  1  0
  6  8  2  0
  8  9  1  0
  8 10  1  0
 10 11  2  0
 11 12  1  0
 12 13  1  0
 13 14  2  0
 14 15  1  0
 15 16  2  0
 15 17  1  0
 17 18  2  0
 18 19  1  0
 18 20  1  0
 20 21  1  0
 20 22  2  0
 22 23  1  0
 23 24  1  0
 24 25  1  0
 24 26  1  0
 24 27  1  0
 22 28  1  0
 28 29  1  0
 28 30  2  0
 30 31  1  0
 31 32  1  0
 32 33  1  0
 32 34  1  0
 32 35  1  0
 12 36  2  0
 36 37  1  0
 36 38  1  0
 38 39  1  0
 39 40  1  0
 39 41  1  0
 39 42  1  0
 11  3  1  0
 30 17  1  0
 38 10  1  0
M  CHG  1  37  -1
M  END
>  <UniqueID>  (47) 
41

>  <SMILES>  (47) 
COc1cc(OC)c(C(=O)/N=N\c2c([O-])n(C)c3cccc(O)c23)cc1Br

>  <Energy>  (47) 
92.41313580762791

>  <Genealogy>  (47) 
COc1cc(OC)c(C(=O)N=Nc2c([O-])n(C)c3cccc(O)c23)cc1Br (protonated)
COc1cc(OC)c(C(=O)/N=N\c2c([O-])n(C)c3cccc(O)c23)cc1Br (cis-trans isomerization)
COc1cc(OC)c(C(=O)/N=N\c2c([O-])n(C)c3cccc(O)c23)cc1Br (3D coordinates assigned)
COc1cc(OC)c(C(=O)/N=N\c2c([O-])n(C)c3cccc(O)c23)cc1Br (optimized conformer: 92.41313580762791 kcal/mol)

>  <smiles>  (47) 
COc1cc(OC)c(C(=O)N=Nc2c(O)n(C)c3cccc(O)c23)cc1Br

>  <score_type>  (47) 
oracle

>  <origin>  (47) 
adg

>  <m_score__min__energy>  (47) 
-11.050000000000001

>  <m_primary>  (47) 
energy

$$$$
48:0
     RDKit          3D

 35 37  0  0  0  0  0  0  0  0999 V2000
   59.1718   34.1433   49.5901 H   0  0  0  0  0  0  0  0  0  0  0  0
   59.2640   33.2990   48.8910 C   0  0  0  0  0  0  0  0  0  0  0  0
   58.4470   31.7130   44.2360 N   0  0  0  0  0  0  0  0  0  0  0  0
   58.5680   31.0450   49.2180 O   0  0  0  0  0  0  0  0  0  0  0  0
   58.9430   29.7470   48.7680 C   0  0  0  0  0  0  0  0  0  0  0  0
   59.1305   29.0980   49.6361 H   0  0  0  0  0  0  0  0  0  0  0  0
   58.1312   29.3209   48.1602 H   0  0  0  0  0  0  0  0  0  0  0  0
   59.8569   29.8195   48.1602 H   0  0  0  0  0  0  0  0  0  0  0  0
   59.1670   33.5430   47.4380 C   0  0  0  0  0  0  0  0  0  0  0  0
   59.3840   34.8370   46.9390 C   0  0  0  0  0  0  0  0  0  0  0  0
   59.6312   35.6554   47.6312 H   0  0  0  0  0  0  0  0  0  0  0  0
   59.2880   35.0920   45.5690 C   0  0  0  0  0  0  0  0  0  0  0  0
   59.4481   36.1113   45.1878 H   0  0  0  0  0  0  0  0  0  0  0  0
   58.9890   34.0550   44.6820 C   0  0  0  0  0  0  0  0  0  0  0  0
   58.8964   34.2641   43.6060 H   0  0  0  0  0  0  0  0  0  0  0  0
   58.8070   32.7530   45.1560 C   0  0  0  0  0  0  0  0  0  0  0  0
   59.4570   32.0990   49.3560 N   0  0  0  0  0  0  0  0  0  0  0  0
   57.5910   30.7310   44.3660 C   0  0  0  0  0  0  0  0  0  0  0  0
   56.2910   30.9770   43.9070 C   0  0  0  0  0  0  0  0  0  0  0  0
   56.0815   31.8848   43.3221 H   0  0  0  0  0  0  0  0  0  0  0  0
   55.2620   30.0820   44.1850 C   0  0  0  0  0  0  0  0  0  0  0  0
   54.2386   30.2997   43.8455 H   0  0  0  0  0  0  0  0  0  0  0  0
   55.5180   28.9430   44.8730 N   0  0  0  0  0  0  0  0  0  0  0  0
   56.7730   28.6080   45.2660 C   0  0  0  0  0  0  0  0  0  0  0  0
   56.9770   27.3870   45.9160 C   0  0  0  0  0  0  0  0  0  0  0  0
   56.1147   26.7583   46.1828 H   0  0  0  0  0  0  0  0  0  0  0  0
   58.2690   26.9620   46.2280 C   0  0  0  0  0  0  0  0  0  0  0  0
   58.5200   25.4220   47.0280 Cl  0  0  0  0  0  0  0  0  0  0  0  0
   59.3640   27.7400   45.8540 C   0  0  0  0  0  0  0  0  0  0  0  0
   60.3841   27.3866   46.0651 H   0  0  0  0  0  0  0  0  0  0  0  0
   59.1720   28.9670   45.2120 C   0  0  0  0  0  0  0  0  0  0  0  0
   60.0450   29.5512   44.8854 H   0  0  0  0  0  0  0  0  0  0  0  0
   57.8700   29.4670   44.9770 C   0  0  0  0  0  0  0  0  0  0  0  0
   58.8590   32.5040   46.5390 C   0  0  0  0  0  0  0  0  0  0  0  0
   58.6580   31.4921   46.9206 H   0  0  0  0  0  0  0  0  0  0  0  0
  1  2  1  0
  2  3  2  0
  3  4  1  0
  4  5  1  0
  5  6  1  0
  5  7  1  0
  5  8  1  0
  2  9  1  0
  9 10  2  0
 10 11  1  0
 10 12  1  0
 12 13  1  0
 12 14  2  0
 14 15  1  0
 14 16  1  0
 16 17  1  0
 17 18  2  0
 18 19  1  0
 19 20  1  0
 19 21  2  0
 21 22  1  0
 21 23  1  0
 23 24  1  0
 24 25  2  0
 25 26  1  0
 25 27  1  0
 27 28  1  0
 27 29  2  0
 29 30  1  0
 29 31  1  0
 31 32  1  0
 31 33  2  0
 16 34  2  0
 34 35  1  0
 34  9  1  0
 33 18  1  0
 33 24  1  0
M  CHG  1  23  -1
M  END
>  <UniqueID>  (48) 
42

>  <SMILES>  (48) 
CO/N=C/c1cccc(/N=c2/cc[n-]c3cc(Cl)ccc23)c1

>  <Energy>  (48) 
60.748474926193865

>  <Genealogy>  (48) 
CON=Cc1cccc(N=c2cc[n-]c3cc(Cl)ccc23)c1 (protonated)
CO/N=C/c1cccc(/N=c2/cc[n-]c3cc(Cl)ccc23)c1 (cis-trans isomerization)
CO/N=C/c1cccc(/N=c2/cc[n-]c3cc(Cl)ccc23)c1 (3D coordinates assigned)
CO/N=C/c1cccc(/N=c2/cc[n-]c3cc(Cl)ccc23)c1 (optimized conformer: 60.748474926193865 kcal/mol)

>  <smiles>  (48) 
CON=Cc1cccc(N=c2cc[nH]c3cc(Cl)ccc23)c1

>  <score_type>  (48) 
oracle

>  <origin>  (48) 
adg

>  <m_score__min__energy>  (48) 
-9.4100000000000001

>  <m_primary>  (48) 
energy

$$$$
49:0
     RDKit          3D

 49 52  0  0  0  0  0  0  0  0999 V2000
   57.0600   31.8580   53.4600 C   0  0  0  0  0  0  0  0  0  0  0  0
   57.5680   31.9190   52.0790 N   0  0  2  0  0  0  0  0  0  0  0  0
   58.1120   30.6040   51.6750 C   0  0  0  0  0  0  0  0  0  0  0  0
   58.4970   30.5780   50.1790 C   0  0  0  0  0  0  0  0  0  0  0  0
   58.8220   31.9910   49.6340 C   0  0  2  0  0  0  0  0  0  0  0  0
   59.6070   31.9660   48.3780 N   0  0  0  0  0  0  0  0  0  0  0  0
   60.6250   30.9610   48.2110 C   0  0  0  0  0  0  0  0  0  0  0  0
   61.7100   31.0440   48.8480 O   0  0  0  0  0  0  0  0  0  0  0  0
   60.4150   29.8290   47.2550 C   0  0  0  0  0  0  0  0  0  0  0  0
   60.1990   30.3560   45.9090 N   0  0  0  0  0  0  0  0  0  0  0  0
   59.2690   31.2080   45.5750 C   0  0  0  0  0  0  0  0  0  0  0  0
   58.1190   30.7260   44.7680 C   0  0  0  0  0  0  0  0  0  0  0  0
   57.2480   29.7400   45.2730 C   0  0  0  0  0  0  0  0  0  0  0  0
   56.1600   29.3000   44.5140 C   0  0  0  0  0  0  0  0  0  0  0  0
   55.9240   29.8410   43.2480 C   0  0  0  0  0  0  0  0  0  0  0  0
   56.7730   30.8270   42.7400 C   0  0  0  0  0  0  0  0  0  0  0  0
   57.8620   31.2710   43.4950 C   0  0  0  0  0  0  0  0  0  0  0  0
   59.3450   32.6340   46.0020 C   0  0  0  0  0  0  0  0  0  0  0  0
   59.2550   33.6480   45.0320 C   0  0  0  0  0  0  0  0  0  0  0  0
   59.2850   34.9930   45.4080 C   0  0  0  0  0  0  0  0  0  0  0  0
   59.3890   35.3400   46.7540 C   0  0  0  0  0  0  0  0  0  0  0  0
   59.4780   34.3450   47.7290 C   0  0  0  0  0  0  0  0  0  0  0  0
   59.4800   32.9880   47.3660 C   0  0  0  0  0  0  0  0  0  0  0  0
   59.4990   32.8410   50.7160 C   0  0  0  0  0  0  0  0  0  0  0  0
   58.5840   32.9990   51.9540 C   0  0  0  0  0  0  0  0  0  0  0  0
   57.8991   31.9588   54.1641 H   0  0  0  0  0  0  0  0  0  0  0  0
   56.3437   32.6766   53.6237 H   0  0  0  0  0  0  0  0  0  0  0  0
   56.5578   30.8931   53.6237 H   0  0  0  0  0  0  0  0  0  0  0  0
   56.7510   32.1470   51.4640 H   0  0  0  0  0  0  0  0  0  0  0  0
   59.0072   30.3888   52.2769 H   0  0  0  0  0  0  0  0  0  0  0  0
   57.3326   29.8457   51.8409 H   0  0  0  0  0  0  0  0  0  0  0  0
   59.3820   29.9371   50.0520 H   0  0  0  0  0  0  0  0  0  0  0  0
   57.6364   30.1883   49.6155 H   0  0  0  0  0  0  0  0  0  0  0  0
   57.8638   32.4626   49.3703 H   0  0  0  0  0  0  0  0  0  0  0  0
   61.3032   29.1801   47.2556 H   0  0  0  0  0  0  0  0  0  0  0  0
   59.5337   29.2484   47.5652 H   0  0  0  0  0  0  0  0  0  0  0  0
   57.4256   29.3137   46.2714 H   0  0  0  0  0  0  0  0  0  0  0  0
   55.4884   28.5263   44.9143 H   0  0  0  0  0  0  0  0  0  0  0  0
   55.0693   29.4904   42.6509 H   0  0  0  0  0  0  0  0  0  0  0  0
   56.5842   31.2546   41.7443 H   0  0  0  0  0  0  0  0  0  0  0  0
   58.5234   32.0521   43.0920 H   0  0  0  0  0  0  0  0  0  0  0  0
   59.1603   33.3801   43.9693 H   0  0  0  0  0  0  0  0  0  0  0  0
   59.2265   35.7793   44.6409 H   0  0  0  0  0  0  0  0  0  0  0  0
   59.4010   36.3998   47.0484 H   0  0  0  0  0  0  0  0  0  0  0  0
   59.5471   34.6259   48.7903 H   0  0  0  0  0  0  0  0  0  0  0  0
   60.4363   32.3532   51.0219 H   0  0  0  0  0  0  0  0  0  0  0  0
   59.7004   33.8395   50.3007 H   0  0  0  0  0  0  0  0  0  0  0  0
   59.2134   32.9918   52.8561 H   0  0  0  0  0  0  0  0  0  0  0  0
   58.0381   33.9466   51.8358 H   0  0  0  0  0  0  0  0  0  0  0  0
  1  2  1  0
  2  3  1  0
  3  4  1  0
  4  5  1  0
  5  6  1  0
  6  7  1  0
  7  8  2  0
  7  9  1  0
  9 10  1  0
 10 11  2  0
 11 12  1  0
 12 13  2  0
 13 14  1  0
 14 15  2  0
 15 16  1  0
 16 17  2  0
 11 18  1  0
 18 19  2  0
 19 20  1  0
 20 21  2  0
 21 22  1  0
 22 23  2  0
  5 24  1  0
 24 25  1  0
 25  2  1  0
 23  6  1  0
 17 12  1  0
 23 18  1  0
  1 26  1  0
  1 27  1  0
  1 28  1  0
  2 29  1  6
  3 30  1  0
  3 31  1  0
  4 32  1  0
  4 33  1  0
  5 34  1  6
  9 35  1  0
  9 36  1  0
 13 37  1  0
 14 38  1  0
 15 39  1  0
 16 40  1  0
 17 41  1  0
 19 42  1  0
 20 43  1  0
 21 44  1  0
 22 45  1  0
 24 46  1  0
 24 47  1  0
 25 48  1  0
 25 49  1  0
M  CHG  1   2   1
M  END
>  <UniqueID>  (49) 
43

>  <SMILES>  (49) 
C[NH+]1CCC(N2C(=O)CN=C(c3ccccc3)c3ccccc32)CC1

>  <Energy>  (49) 
77.79948036132846

>  <Genealogy>  (49) 
C[NH+]1CCC(N2C(=O)CN=C(c3ccccc3)c3ccccc32)CC1 (protonated)
C[NH+]1CCC(N2C(=O)CN=C(c3ccccc3)c3ccccc32)CC1 (3D coordinates assigned)
C[NH+]1CCC(N2C(=O)CN=C(c3ccccc3)c3ccccc32)CC1 (nonaromatic ring conformer: 77.79948036132846 kcal/mol)

>  <smiles>  (49) 
CN1CCC(N2C(=O)CN=C(c3ccccc3)c3ccccc32)CC1

>  <score_type>  (49) 
oracle

>  <origin>  (49) 
adg

>  <m_score__min__energy>  (49) 
-4.6799999999999997

>  <m_primary>  (49) 
energy

$$$$
50:0
     RDKit          3D

 28 29  0  0  0  0  0  0  0  0999 V2000
   59.9160   27.0320   48.2150 N   0  0  0  0  0  0  0  0  0  0  0  0
   59.1880   27.4930   47.4440 C   0  0  0  0  0  0  0  0  0  0  0  0
   58.2820   28.0690   46.4810 C   0  0  0  0  0  0  0  0  0  0  0  0
   58.6070   29.2630   45.8360 C   0  0  0  0  0  0  0  0  0  0  0  0
   57.7540   29.8240   44.9250 N   0  0  0  0  0  0  0  0  0  0  0  0
   58.1690   31.0750   44.2630 C   0  0  0  0  0  0  0  0  0  0  0  0
   57.2980   32.2430   44.7390 C   0  0  0  0  0  0  0  0  0  0  0  0
   58.1070   33.2040   45.5670 C   0  0  0  0  0  0  0  0  0  0  0  0
   58.8580   34.2170   44.9470 C   0  0  0  0  0  0  0  0  0  0  0  0
   59.6340   35.0890   45.7180 C   0  0  0  0  0  0  0  0  0  0  0  0
   59.6750   34.9480   47.1070 C   0  0  0  0  0  0  0  0  0  0  0  0
   58.9420   33.9350   47.7300 C   0  0  0  0  0  0  0  0  0  0  0  0
   58.1640   33.0610   46.9630 C   0  0  0  0  0  0  0  0  0  0  0  0
   56.5720   29.1840   44.6210 C   0  0  0  0  0  0  0  0  0  0  0  0
   55.5160   29.7730   43.5090 S   0  0  0  0  0  0  0  0  0  0  0  0
   56.2510   28.0200   45.2450 N   0  0  0  0  0  0  0  0  0  0  0  0
   57.0690   27.4530   46.1630 C   0  0  0  0  0  0  0  0  0  0  0  0
   56.7270   26.3740   46.7170 O   0  0  0  0  0  0  0  0  0  0  0  0
   59.5618   29.7599   46.0630 H   0  0  0  0  0  0  0  0  0  0  0  0
   59.2209   31.2835   44.5079 H   0  0  0  0  0  0  0  0  0  0  0  0
   58.0508   30.9605   43.1754 H   0  0  0  0  0  0  0  0  0  0  0  0
   56.8931   32.7721   43.8637 H   0  0  0  0  0  0  0  0  0  0  0  0
   56.4787   31.8458   45.3563 H   0  0  0  0  0  0  0  0  0  0  0  0
   58.8357   34.3246   43.8525 H   0  0  0  0  0  0  0  0  0  0  0  0
   60.2127   35.8869   45.2296 H   0  0  0  0  0  0  0  0  0  0  0  0
   60.2852   35.6355   47.7111 H   0  0  0  0  0  0  0  0  0  0  0  0
   58.9765   33.8245   48.8239 H   0  0  0  0  0  0  0  0  0  0  0  0
   57.5948   32.2587   47.4553 H   0  0  0  0  0  0  0  0  0  0  0  0
  1  2  3  0
  2  3  1  0
  3  4  2  0
  4  5  1  0
  5  6  1  0
  6  7  1  0
  7  8  1  0
  8  9  2  0
  9 10  1  0
 10 11  2  0
 11 12  1  0
 12 13  2  0
  5 14  1  0
 14 15  2  0
 14 16  1  0
 16 17  1  0
 17 18  2  0
 17  3  1  0
 13  8  1  0
  4 19  1  0
  6 20  1  0
  6 21  1  0
  7 22  1  0
  7 23  1  0
  9 24  1  0
 10 25  1  0
 11 26  1  0
 12 27  1  0
 13 28  1  0
M  CHG  1  16  -1
M  END
>  <UniqueID>  (50) 
44

>  <SMILES>  (50) 
N#Cc1cn(CCc2ccccc2)c(=S)[n-]c1=O

>  <Energy>  (50) 
30.099416573830737

>  <Genealogy>  (50) 
N#Cc1cn(CCc2ccccc2)c(=S)[n-]c1=O (protonated)
N#Cc1cn(CCc2ccccc2)c(=S)[n-]c1=O (3D coordinates assigned)
N#Cc1cn(CCc2ccccc2)c(=S)[n-]c1=O (optimized conformer: 30.099416573830737 kcal/mol)

>  <smiles>  (50) 
N#Cc1cn(CCc2ccccc2)c(=S)[nH]c1=O

>  <score_type>  (50) 
oracle

>  <origin>  (50) 
adg

>  <m_score__min__energy>  (50) 
-8.0899999999999999

>  <m_primary>  (50) 
energy

$$$$
51:0
     RDKit          3D

 23 24  0  0  0  0  0  0  0  0999 V2000
   58.8391   33.8084   48.6016 H   0  0  0  0  0  0  0  0  0  0  0  0
   58.7960   33.8420   47.5030 C   0  0  0  0  0  0  0  0  0  0  0  0
   59.3300   34.8980   46.8370 N   0  0  0  0  0  0  0  0  0  0  0  0
   59.2940   34.9760   45.4810 C   0  0  0  0  0  0  0  0  0  0  0  0
   59.7354   35.8439   44.9692 H   0  0  0  0  0  0  0  0  0  0  0  0
   58.6980   33.9570   44.7360 C   0  0  0  0  0  0  0  0  0  0  0  0
   58.6617   34.0251   43.6387 H   0  0  0  0  0  0  0  0  0  0  0  0
   58.1440   32.8430   45.3920 C   0  0  0  0  0  0  0  0  0  0  0  0
   57.5040   31.7600   44.6010 C   0  0  0  0  0  0  0  0  0  0  0  0
   56.9790   30.6820   45.2470 N   0  0  0  0  0  0  0  0  0  0  0  0
   56.3780   29.6660   44.5740 C   0  0  0  0  0  0  0  0  0  0  0  0
   55.8970   28.6580   45.2360 N   0  0  0  0  0  0  0  0  0  0  0  0
   56.6780   27.4880   45.6230 C   0  0  0  0  0  0  0  0  0  0  0  0
   56.7215   27.4228   46.7202 H   0  0  0  0  0  0  0  0  0  0  0  0
   56.2036   26.5809   45.2203 H   0  0  0  0  0  0  0  0  0  0  0  0
   57.6977   27.5782   45.2203 H   0  0  0  0  0  0  0  0  0  0  0  0
   56.2890   29.7180   43.2160 N   0  0  0  0  0  0  0  0  0  0  0  0
   56.7880   30.7730   42.5230 C   0  0  0  0  0  0  0  0  0  0  0  0
   56.7046   30.7994   41.4265 H   0  0  0  0  0  0  0  0  0  0  0  0
   57.4060   31.8230   43.2000 C   0  0  0  0  0  0  0  0  0  0  0  0
   57.8095   32.6849   42.6483 H   0  0  0  0  0  0  0  0  0  0  0  0
   58.1920   32.7980   46.7980 C   0  0  0  0  0  0  0  0  0  0  0  0
   57.7561   31.9451   47.3390 H   0  0  0  0  0  0  0  0  0  0  0  0
  1  2  1  0
  2  3  2  0
  3  4  1  0
  4  5  1  0
  4  6  2  0
  6  7  1  0
  6  8  1  0
  8  9  1  0
  9 10  2  0
 10 11  1  0
 11 12  2  0
 12 13  1  0
 13 14  1  0
 13 15  1  0
 13 16  1  0
 11 17  1  0
 17 18  1  0
 18 19  1  0
 18 20  2  0
 20 21  1  0
  8 22  2  0
 22 23  1  0
 22  2  1  0
 20  9  1  0
M  CHG  1  17  -1
M  END
>  <UniqueID>  (51) 
45

>  <SMILES>  (51) 
C/N=c1/nc(-c2ccncc2)cc[n-]1

>  <Energy>  (51) 
28.146380536115657

>  <Genealogy>  (51) 
CN=c1nc(-c2ccncc2)cc[n-]1 (protonated)
C/N=c1/nc(-c2ccncc2)cc[n-]1 (cis-trans isomerization)
C/N=c1/nc(-c2ccncc2)cc[n-]1 (3D coordinates assigned)
C/N=c1/nc(-c2ccncc2)cc[n-]1 (optimized conformer: 28.146380536115657 kcal/mol)

>  <smiles>  (51) 
CN=c1nc(-c2ccncc2)cc[nH]1

>  <score_type>  (51) 
oracle

>  <origin>  (51) 
adg

>  <m_score__min__energy>  (51) 
-7.6200000000000001

>  <m_primary>  (51) 
energy

$$$$
52:0
     RDKit          3D

 28 31  0  0  0  0  0  0  0  0999 V2000
   59.4420   34.5740   48.8970 O   0  0  0  0  0  0  0  0  0  0  0  0
   60.2900   33.8250   48.3460 C   0  0  0  0  0  0  0  0  0  0  0  0
   60.1330   33.0370   47.1160 C   0  0  0  0  0  0  0  0  0  0  0  0
   58.9040   32.8990   46.3170 C   0  0  0  0  0  0  0  0  0  0  0  0
   58.0910   33.9490   45.8910 C   0  0  0  0  0  0  0  0  0  0  0  0
   57.0410   33.4800   45.1790 N   0  0  0  0  0  0  0  0  0  0  0  0
   57.1950   32.1480   45.1430 C   0  0  0  0  0  0  0  0  0  0  0  0
   56.3910   31.2720   44.4900 N   0  0  0  0  0  0  0  0  0  0  0  0
   56.7090   29.9430   44.5000 C   0  0  0  0  0  0  0  0  0  0  0  0
   57.8730   29.4890   45.1590 C   0  0  0  0  0  0  0  0  0  0  0  0
   58.7040   30.4090   45.8220 C   0  0  0  0  0  0  0  0  0  0  0  0
   58.3190   31.7480   45.8150 C   0  0  0  0  0  0  0  0  0  0  0  0
   61.2620   32.5030   46.7530 N   0  0  0  0  0  0  0  0  0  0  0  0
   62.2250   32.8780   47.7400 C   0  0  0  0  0  0  0  0  0  0  0  0
   63.5760   32.5340   47.7650 C   0  0  0  0  0  0  0  0  0  0  0  0
   64.3650   33.0240   48.8220 C   0  0  0  0  0  0  0  0  0  0  0  0
   63.7940   33.8450   49.8200 C   0  0  0  0  0  0  0  0  0  0  0  0
   62.4290   34.1810   49.7700 C   0  0  0  0  0  0  0  0  0  0  0  0
   61.6760   33.6710   48.7150 C   0  0  0  0  0  0  0  0  0  0  0  0
   58.2779   35.0118   46.1045 H   0  0  0  0  0  0  0  0  0  0  0  0
   56.2800   34.0420   44.7360 H   0  0  0  0  0  0  0  0  0  0  0  0
   56.0534   29.2212   43.9909 H   0  0  0  0  0  0  0  0  0  0  0  0
   58.1284   28.4191   45.1535 H   0  0  0  0  0  0  0  0  0  0  0  0
   59.6249   30.0834   46.3280 H   0  0  0  0  0  0  0  0  0  0  0  0
   64.0125   31.8978   46.9809 H   0  0  0  0  0  0  0  0  0  0  0  0
   65.4332   32.7662   48.8716 H   0  0  0  0  0  0  0  0  0  0  0  0
   64.4206   34.2237   50.6410 H   0  0  0  0  0  0  0  0  0  0  0  0
   61.9723   34.8238   50.5370 H   0  0  0  0  0  0  0  0  0  0  0  0
  1  2  2  0
  2  3  1  0
  3  4  1  0
  4  5  2  0
  5  6  1  0
  6  7  1  0
  7  8  2  0
  8  9  1  0
  9 10  2  0
 10 11  1  0
 11 12  2  0
  3 13  2  0
 13 14  1  0
 14 15  2  0
 15 16  1  0
 16 17  2  0
 17 18  1  0
 18 19  2  0
 19  2  1  0
 12  4  1  0
 19 14  1  0
 12  7  1  0
  5 20  1  0
  6 21  1  0
  9 22  1  0
 10 23  1  0
 11 24  1  0
 15 25  1  0
 16 26  1  0
 17 27  1  0
 18 28  1  0
M  END
>  <UniqueID>  (52) 
46

>  <SMILES>  (52) 
O=C1C(c2c[nH]c3ncccc23)=Nc2ccccc21

>  <Energy>  (52) 
104.01088605108718

>  <Genealogy>  (52) 
O=C1C(c2c[nH]c3ncccc23)=Nc2ccccc21 (3D coordinates assigned)
O=C1C(c2c[nH]c3ncccc23)=Nc2ccccc21 (nonaromatic ring conformer: 104.01088605108718 kcal/mol)

>  <smiles>  (52) 
O=C1C(c2c[nH]c3ncccc23)=Nc2ccccc21

>  <score_type>  (52) 
oracle

>  <origin>  (52) 
adg

>  <m_score__min__energy>  (52) 
-7.0800000000000001

>  <m_primary>  (52) 
energy

$$$$
53:0
     RDKit          3D

 37 39  0  0  0  0  0  0  0  0999 V2000
   58.5060   34.1180   47.0150 C   0  0  0  0  0  0  0  0  0  0  0  0
   58.5840   33.9790   45.6860 C   0  0  0  0  0  0  0  0  0  0  0  0
   59.2060   35.0810   44.8700 C   0  0  0  0  0  0  0  0  0  0  0  0
   58.1490   32.7220   45.0180 C   0  0  0  0  0  0  0  0  0  0  0  0
   57.7520   32.6450   43.6810 C   0  0  0  0  0  0  0  0  0  0  0  0
   57.3650   31.0500   43.3340 S   0  0  0  0  0  0  0  0  0  0  0  0
   57.6840   30.4240   44.8640 C   0  0  0  0  0  0  0  0  0  0  0  0
   57.5740   29.0010   45.2680 C   0  0  0  0  0  0  0  0  0  0  0  0
   58.7240   28.3030   45.6820 C   0  0  0  0  0  0  0  0  0  0  0  0
   58.6480   26.9590   46.0540 C   0  0  0  0  0  0  0  0  0  0  0  0
   57.4270   26.2760   46.0060 C   0  0  0  0  0  0  0  0  0  0  0  0
   57.3750   24.8970   46.4130 N   0  0  0  0  0  0  0  0  0  0  0  0
   56.1550   24.1760   46.6540 C   0  0  0  0  0  0  0  0  0  0  0  0
   55.0470   24.6540   46.2870 O   0  0  0  0  0  0  0  0  0  0  0  0
   56.1970   22.8530   47.2930 C   0  0  0  0  0  0  0  0  0  0  0  0
   55.1020   22.0910   47.6550 C   0  0  0  0  0  0  0  0  0  0  0  0
   55.6180   20.9420   48.2150 C   0  0  0  0  0  0  0  0  0  0  0  0
   56.9910   21.0730   48.1620 C   0  0  0  0  0  0  0  0  0  0  0  0
   57.3050   22.2210   47.6080 O   0  0  0  0  0  0  0  0  0  0  0  0
   56.2690   26.9720   45.6210 C   0  0  0  0  0  0  0  0  0  0  0  0
   56.3370   28.3200   45.2530 C   0  0  0  0  0  0  0  0  0  0  0  0
   55.1620   28.9750   44.9020 O   0  0  0  0  0  0  0  0  0  0  0  0
   58.1160   31.4750   45.6720 C   0  0  0  0  0  0  0  0  0  0  0  0
   58.0545   33.3222   47.6257 H   0  0  0  0  0  0  0  0  0  0  0  0
   58.8934   35.0280   47.4965 H   0  0  0  0  0  0  0  0  0  0  0  0
   59.6337   35.8388   45.5429 H   0  0  0  0  0  0  0  0  0  0  0  0
   60.0015   34.6632   44.2355 H   0  0  0  0  0  0  0  0  0  0  0  0
   58.4372   35.5461   44.2355 H   0  0  0  0  0  0  0  0  0  0  0  0
   57.7017   33.4873   42.9753 H   0  0  0  0  0  0  0  0  0  0  0  0
   59.6934   28.8219   45.7129 H   0  0  0  0  0  0  0  0  0  0  0  0
   59.5547   26.4330   46.3873 H   0  0  0  0  0  0  0  0  0  0  0  0
   58.2730   24.3650   46.4520 H   0  0  0  0  0  0  0  0  0  0  0  0
   54.0405   22.3479   47.5236 H   0  0  0  0  0  0  0  0  0  0  0  0
   55.0502   20.0923   48.6219 H   0  0  0  0  0  0  0  0  0  0  0  0
   57.7128   20.3282   48.5285 H   0  0  0  0  0  0  0  0  0  0  0  0
   55.2997   26.4521   45.6088 H   0  0  0  0  0  0  0  0  0  0  0  0
   58.4049   31.3423   46.7250 H   0  0  0  0  0  0  0  0  0  0  0  0
  1  2  2  0
  2  3  1  0
  2  4  1  0
  4  5  2  0
  5  6  1  0
  6  7  1  0
  7  8  1  0
  8  9  2  0
  9 10  1  0
 10 11  2  0
 11 12  1  0
 12 13  1  0
 13 14  2  0
 13 15  1  0
 15 16  2  0
 16 17  1  0
 17 18  2  0
 18 19  1  0
 11 20  1  0
 20 21  2  0
 21 22  1  0
  7 23  2  0
 23  4  1  0
 21  8  1  0
 19 15  1  0
  1 24  1  0
  1 25  1  0
  3 26  1  0
  3 27  1  0
  3 28  1  0
  5 29  1  0
  9 30  1  0
 10 31  1  0
 12 32  1  0
 16 33  1  0
 17 34  1  0
 18 35  1  0
 20 36  1  0
 23 37  1  0
M  CHG  1  22  -1
M  END
>  <UniqueID>  (53) 
47

>  <SMILES>  (53) 
C=C(C)c1csc(-c2ccc(NC(=O)c3ccco3)cc2[O-])c1

>  <Energy>  (53) 
99.02265250210229

>  <Genealogy>  (53) 
C=C(C)c1csc(-c2ccc(NC(=O)c3ccco3)cc2[O-])c1 (protonated)
C=C(C)c1csc(-c2ccc(NC(=O)c3ccco3)cc2[O-])c1 (3D coordinates assigned)
C=C(C)c1csc(-c2ccc(NC(=O)c3ccco3)cc2[O-])c1 (optimized conformer: 99.02265250210229 kcal/mol)

>  <smiles>  (53) 
C=C(C)c1csc(-c2ccc(NC(=O)c3ccco3)cc2O)c1

>  <score_type>  (53) 
oracle

>  <origin>  (53) 
adg

>  <m_score__min__energy>  (53) 
-11.43

>  <m_primary>  (53) 
energy

$$$$
54:0
     RDKit          3D

 46 48  0  0  0  0  0  0  0  0999 V2000
   60.9690   33.5460   50.4740 C   0  0  0  0  0  0  0  0  0  0  0  0
   61.8250   33.1530   49.2960 C   0  0  0  0  0  0  0  0  0  0  0  0
   62.5690   34.1470   48.6350 C   0  0  0  0  0  0  0  0  0  0  0  0
   63.3510   33.8280   47.5230 C   0  0  0  0  0  0  0  0  0  0  0  0
   63.3940   32.5170   47.0520 C   0  0  0  0  0  0  0  0  0  0  0  0
   62.6520   31.5190   47.6860 C   0  0  0  0  0  0  0  0  0  0  0  0
   61.8590   31.8190   48.8080 C   0  0  0  0  0  0  0  0  0  0  0  0
   61.0590   30.7180   49.4560 C   0  0  0  0  0  0  0  0  0  0  0  0
   60.0330   30.2940   48.5650 O   0  0  0  0  0  0  0  0  0  0  0  0
   59.8310   28.9580   48.2090 C   0  0  0  0  0  0  0  0  0  0  0  0
   60.0590   28.0410   49.0450 O   0  0  0  0  0  0  0  0  0  0  0  0
   59.3220   28.6380   46.8540 C   0  0  0  0  0  0  0  0  0  0  0  0
   58.3250   29.4490   46.2820 C   0  0  0  0  0  0  0  0  0  0  0  0
   57.7720   29.1370   45.0350 C   0  0  0  0  0  0  0  0  0  0  0  0
   56.4800   30.1340   44.3720 S   0  0  0  0  0  0  0  0  0  0  0  0
   56.5150   30.0730   42.8700 O   0  0  0  0  0  0  0  0  0  0  0  0
   55.1520   29.6000   44.8340 O   0  0  0  0  0  0  0  0  0  0  0  0
   56.6440   31.7810   44.9030 N   0  0  0  0  0  0  0  0  0  0  0  0
   57.8940   32.3480   44.3920 C   0  0  0  0  0  0  0  0  0  0  0  0
   58.5170   33.2270   45.4280 C   0  0  0  0  0  0  0  0  0  0  0  0
   59.3000   34.3480   45.1800 C   0  0  0  0  0  0  0  0  0  0  0  0
   59.6900   35.0130   46.3480 C   0  0  0  0  0  0  0  0  0  0  0  0
   59.2060   34.4280   47.5120 C   0  0  0  0  0  0  0  0  0  0  0  0
   58.2890   33.0840   47.0870 S   0  0  0  0  0  0  0  0  0  0  0  0
   58.2290   28.0120   44.3380 C   0  0  0  0  0  0  0  0  0  0  0  0
   59.2350   27.2110   44.8830 C   0  0  0  0  0  0  0  0  0  0  0  0
   59.7810   27.5150   46.1340 C   0  0  0  0  0  0  0  0  0  0  0  0
   60.7430   26.7020   46.6400 F   0  0  0  0  0  0  0  0  0  0  0  0
   61.4970   33.3036   51.4080 H   0  0  0  0  0  0  0  0  0  0  0  0
   60.7676   34.6268   50.4365 H   0  0  0  0  0  0  0  0  0  0  0  0
   60.0181   32.9943   50.4365 H   0  0  0  0  0  0  0  0  0  0  0  0
   62.5345   35.1850   48.9973 H   0  0  0  0  0  0  0  0  0  0  0  0
   63.9339   34.6124   47.0181 H   0  0  0  0  0  0  0  0  0  0  0  0
   64.0143   32.2681   46.1783 H   0  0  0  0  0  0  0  0  0  0  0  0
   62.6879   30.4880   47.3043 H   0  0  0  0  0  0  0  0  0  0  0  0
   61.7204   29.8694   49.6851 H   0  0  0  0  0  0  0  0  0  0  0  0
   60.6072   31.0904   50.3872 H   0  0  0  0  0  0  0  0  0  0  0  0
   57.9752   30.3409   46.8225 H   0  0  0  0  0  0  0  0  0  0  0  0
   55.8480   32.3110   44.4780 H   0  0  0  0  0  0  0  0  0  0  0  0
   58.5882   31.5325   44.1407 H   0  0  0  0  0  0  0  0  0  0  0  0
   57.6793   32.9449   43.4933 H   0  0  0  0  0  0  0  0  0  0  0  0
   59.5839   34.6785   44.1700 H   0  0  0  0  0  0  0  0  0  0  0  0
   60.3206   35.9143   46.3450 H   0  0  0  0  0  0  0  0  0  0  0  0
   59.3911   34.7834   48.5364 H   0  0  0  0  0  0  0  0  0  0  0  0
   57.7950   27.7586   43.3595 H   0  0  0  0  0  0  0  0  0  0  0  0
   59.5999   26.3361   44.3250 H   0  0  0  0  0  0  0  0  0  0  0  0
  1  2  1  0
  2  3  2  0
  3  4  1  0
  4  5  2  0
  5  6  1  0
  6  7  2  0
  7  8  1  0
  8  9  1  0
  9 10  1  0
 10 11  2  0
 10 12  1  0
 12 13  2  0
 13 14  1  0
 14 15  1  0
 15 16  2  0
 15 17  2  0
 15 18  1  0
 18 19  1  0
 19 20  1  0
 20 21  2  0
 21 22  1  0
 22 23  2  0
 23 24  1  0
 14 25  2  0
 25 26  1  0
 26 27  2  0
 27 28  1  0
  7  2  1  0
 27 12  1  0
 24 20  1  0
  1 29  1  0
  1 30  1  0
  1 31  1  0
  3 32  1  0
  4 33  1  0
  5 34  1  0
  6 35  1  0
  8 36  1  0
  8 37  1  0
 13 38  1  0
 18 39  1  0
 19 40  1  0
 19 41  1  0
 21 42  1  0
 22 43  1  0
 23 44  1  0
 25 45  1  0
 26 46  1  0
M  END
>  <UniqueID>  (54) 
48

>  <SMILES>  (54) 
Cc1ccccc1COC(=O)c1cc(S(=O)(=O)NCc2cccs2)ccc1F

>  <Energy>  (54) 
69.6973120612279

>  <Genealogy>  (54) 
Cc1ccccc1COC(=O)c1cc(S(=O)(=O)NCc2cccs2)ccc1F (3D coordinates assigned)
Cc1ccccc1COC(=O)c1cc(S(=O)(=O)NCc2cccs2)ccc1F (optimized conformer: 69.6973120612279 kcal/mol)

>  <smiles>  (54) 
Cc1ccccc1COC(=O)c1cc(S(=O)(=O)NCc2cccs2)ccc1F

>  <score_type>  (54) 
oracle

>  <origin>  (54) 
adg

>  <m_score__min__energy>  (54) 
-9.1799999999999997

>  <m_primary>  (54) 
energy

$$$$
55:0
     RDKit          3D

 46 48  0  0  0  0  0  0  0  0999 V2000
   59.9276   34.8065   44.9708 H   0  0  0  0  0  0  0  0  0  0  0  0
   59.7410   34.3090   45.9340 C   0  0  0  0  0  0  0  0  0  0  0  0
   60.8010   34.0750   46.8170 C   0  0  0  0  0  0  0  0  0  0  0  0
   61.8201   34.3847   46.5423 H   0  0  0  0  0  0  0  0  0  0  0  0
   60.5710   33.4470   48.0520 C   0  0  0  0  0  0  0  0  0  0  0  0
   61.7150   33.2030   49.0160 C   0  0  0  0  0  0  0  0  0  0  0  0
   61.2954   33.0493   50.0211 H   0  0  0  0  0  0  0  0  0  0  0  0
   62.3715   34.0842   48.9656 H   0  0  0  0  0  0  0  0  0  0  0  0
   62.5440   32.0250   48.6700 N   0  0  0  0  0  0  0  0  0  0  0  0
   63.5600   32.3460   47.6500 C   0  0  0  0  0  0  0  0  0  0  0  0
   64.4964   32.6419   48.1456 H   0  0  0  0  0  0  0  0  0  0  0  0
   63.7412   31.4614   47.0219 H   0  0  0  0  0  0  0  0  0  0  0  0
   63.2001   33.1742   47.0219 H   0  0  0  0  0  0  0  0  0  0  0  0
   61.7270   30.8500   48.2950 C   0  0  0  0  0  0  0  0  0  0  0  0
   60.8970   31.1828   47.6544 H   0  0  0  0  0  0  0  0  0  0  0  0
   62.3748   30.1378   47.7629 H   0  0  0  0  0  0  0  0  0  0  0  0
   61.1500   30.1420   49.5290 C   0  0  0  0  0  0  0  0  0  0  0  0
   61.8725   29.3893   49.8775 H   0  0  0  0  0  0  0  0  0  0  0  0
   60.9649   30.9017   50.3027 H   0  0  0  0  0  0  0  0  0  0  0  0
   59.8180   29.4450   49.2180 C   0  0  0  0  0  0  0  0  0  0  0  0
   59.5055   28.8550   50.0922 H   0  0  0  0  0  0  0  0  0  0  0  0
   59.0621   30.2099   48.9864 H   0  0  0  0  0  0  0  0  0  0  0  0
   59.9610   28.5560   48.0630 N   0  0  0  0  0  0  0  0  0  0  0  0
   59.0250   28.1580   47.2410 C   0  0  0  0  0  0  0  0  0  0  0  0
   58.3660   26.9230   47.4020 C   0  0  0  0  0  0  0  0  0  0  0  0
   58.6353   26.2626   48.2395 H   0  0  0  0  0  0  0  0  0  0  0  0
   57.3740   26.5360   46.5030 C   0  0  0  0  0  0  0  0  0  0  0  0
   56.8642   25.5702   46.6348 H   0  0  0  0  0  0  0  0  0  0  0  0
   57.0320   27.3430   45.4650 N   0  0  0  0  0  0  0  0  0  0  0  0
   56.2820   27.0170   44.8120 H   0  0  0  0  0  0  0  0  0  0  0  0
   57.6370   28.5490   45.2690 C   0  0  0  0  0  0  0  0  0  0  0  0
   57.2560   29.3590   44.1870 C   0  0  0  0  0  0  0  0  0  0  0  0
   56.4682   29.0184   43.4990 H   0  0  0  0  0  0  0  0  0  0  0  0
   57.8730   30.5960   43.9800 C   0  0  0  0  0  0  0  0  0  0  0  0
   57.3900   31.5990   42.6250 Cl  0  0  0  0  0  0  0  0  0  0  0  0
   58.8740   31.0330   44.8500 C   0  0  0  0  0  0  0  0  0  0  0  0
   59.3576   32.0069   44.6833 H   0  0  0  0  0  0  0  0  0  0  0  0
   59.2640   30.2390   45.9310 C   0  0  0  0  0  0  0  0  0  0  0  0
   60.0535   30.5917   46.6109 H   0  0  0  0  0  0  0  0  0  0  0  0
   58.6520   28.9870   46.1570 C   0  0  0  0  0  0  0  0  0  0  0  0
   59.2660   33.0420   48.3830 C   0  0  0  0  0  0  0  0  0  0  0  0
   59.0756   32.5388   49.3425 H   0  0  0  0  0  0  0  0  0  0  0  0
   58.2090   33.2760   47.4980 C   0  0  0  0  0  0  0  0  0  0  0  0
   57.1897   32.9598   47.7646 H   0  0  0  0  0  0  0  0  0  0  0  0
   58.4450   33.9110   46.2750 C   0  0  0  0  0  0  0  0  0  0  0  0
   56.9980   34.2300   45.0690 Br  0  0  0  0  0  0  0  0  0  0  0  0
  1  2  1  0
  2  3  2  0
  3  4  1  0
  3  5  1  0
  5  6  1  0
  6  7  1  0
  6  8  1  0
  6  9  1  0
  9 10  1  0
 10 11  1  0
 10 12  1  0
 10 13  1  0
  9 14  1  0
 14 15  1  0
 14 16  1  0
 14 17  1  0
 17 18  1  0
 17 19  1  0
 17 20  1  0
 20 21  1  0
 20 22  1  0
 20 23  1  0
 23 24  2  0
 24 25  1  0
 25 26  1  0
 25 27  2  0
 27 28  1  0
 27 29  1  0
 29 30  1  0
 29 31  1  0
 31 32  2  0
 32 33  1  0
 32 34  1  0
 34 35  1  0
 34 36  2  0
 36 37  1  0
 36 38  1  0
 38 39  1  0
 38 40  2  0
  5 41  2  0
 41 42  1  0
 41 43  1  0
 43 44  1  0
 43 45  2  0
 45 46  1  0
 45  2  1  0
 40 24  1  0
 40 31  1  0
M  END
>  <UniqueID>  (55) 
49

>  <SMILES>  (55) 
CN(CCC/N=c1\cc[nH]c2cc(Cl)ccc12)Cc1ccc(Br)cc1

>  <Energy>  (55) 
54.624920199302956

>  <Genealogy>  (55) 
CN(CCC/N=c1\cc[nH]c2cc(Cl)ccc12)Cc1ccc(Br)cc1 (cis-trans isomerization)
CN(CCC/N=c1\cc[nH]c2cc(Cl)ccc12)Cc1ccc(Br)cc1 (3D coordinates assigned)
CN(CCC/N=c1\cc[nH]c2cc(Cl)ccc12)Cc1ccc(Br)cc1 (optimized conformer: 54.624920199302956 kcal/mol)

>  <smiles>  (55) 
CN(CCCN=c1cc[nH]c2cc(Cl)ccc12)Cc1ccc(Br)cc1

>  <score_type>  (55) 
oracle

>  <origin>  (55) 
adg

>  <m_score__min__energy>  (55) 
-8.6699999999999999

>  <m_primary>  (55) 
energy

$$$$
56:0
     RDKit          3D

 25 27  0  0  0  0  0  0  0  0999 V2000
   55.4740   29.1630   44.5660 N   0  0  0  0  0  0  0  0  0  0  0  0
   56.6520   29.5350   44.8960 C   0  0  0  0  0  0  0  0  0  0  0  0
   56.9710   30.8600   44.8960 N   0  0  0  0  0  0  0  0  0  0  0  0
   58.2070   31.2790   45.2400 C   0  0  0  0  0  0  0  0  0  0  0  0
   58.5110   32.7250   45.2270 C   0  0  0  0  0  0  0  0  0  0  0  0
   57.7850   33.7250   44.6120 C   0  0  0  0  0  0  0  0  0  0  0  0
   58.4750   34.8920   44.8900 C   0  0  0  0  0  0  0  0  0  0  0  0
   59.5900   34.5640   45.6580 C   0  0  0  0  0  0  0  0  0  0  0  0
   59.5540   33.2530   45.8260 O   0  0  0  0  0  0  0  0  0  0  0  0
   59.1530   30.3690   45.5910 N   0  0  0  0  0  0  0  0  0  0  0  0
   58.8720   29.0420   45.6020 C   0  0  0  0  0  0  0  0  0  0  0  0
   59.8840   28.1640   45.9710 C   0  0  0  0  0  0  0  0  0  0  0  0
   59.5730   26.8080   45.9750 C   0  0  0  0  0  0  0  0  0  0  0  0
   58.3200   26.3410   45.6310 C   0  0  0  0  0  0  0  0  0  0  0  0
   57.3500   27.2430   45.2710 C   0  0  0  0  0  0  0  0  0  0  0  0
   57.6080   28.5880   45.2530 C   0  0  0  0  0  0  0  0  0  0  0  0
   55.1500   28.2190   44.8700 H   0  0  0  0  0  0  0  0  0  0  0  0
   56.8591   33.6177   44.0278 H   0  0  0  0  0  0  0  0  0  0  0  0
   58.1921   35.9030   44.5616 H   0  0  0  0  0  0  0  0  0  0  0  0
   60.3496   35.2579   46.0474 H   0  0  0  0  0  0  0  0  0  0  0  0
   60.1110   30.6770   45.8580 H   0  0  0  0  0  0  0  0  0  0  0  0
   60.8857   28.5249   46.2474 H   0  0  0  0  0  0  0  0  0  0  0  0
   60.3505   26.0845   46.2615 H   0  0  0  0  0  0  0  0  0  0  0  0
   58.1025   25.2628   45.6452 H   0  0  0  0  0  0  0  0  0  0  0  0
   56.3497   26.8799   44.9926 H   0  0  0  0  0  0  0  0  0  0  0  0
  1  2  2  3
  2  3  1  0
  3  4  2  0
  4  5  1  0
  5  6  2  0
  6  7  1  0
  7  8  2  0
  8  9  1  0
  4 10  1  0
 10 11  1  0
 11 12  2  0
 12 13  1  0
 13 14  2  0
 14 15  1  0
 15 16  2  0
 16  2  1  0
  9  5  1  0
 16 11  1  0
  1 17  1  0
  6 18  1  0
  7 19  1  0
  8 20  1  0
 10 21  1  0
 12 22  1  0
 13 23  1  0
 14 24  1  0
 15 25  1  0
M  END
>  <smiles>  (56) 
N=c1nc(-c2ccco2)[nH]c2ccccc12

>  <score_type>  (56) 
oracle

>  <origin>  (56) 
adg

>  <m_score__min__energy>  (56) 
-6.2400000000000002

>  <m_primary>  (56) 
energy

$$$$
57:0
     RDKit          3D

 31 34  0  0  0  0  0  0  0  0999 V2000
   57.9030   32.3030   42.2280 C   0  0  0  0  0  0  0  0  0  0  0  0
   58.2070   32.6480   43.4760 C   0  0  0  0  0  0  0  0  0  0  0  0
   58.8720   33.8610   43.8220 N   0  0  0  0  0  0  0  0  0  0  0  0
   58.9380   33.8210   45.1150 C   0  0  0  0  0  0  0  0  0  0  0  0
   59.5310   34.7960   45.9160 C   0  0  0  0  0  0  0  0  0  0  0  0
   59.5590   34.5950   47.3060 C   0  0  0  0  0  0  0  0  0  0  0  0
   59.0060   33.4280   47.8690 C   0  0  0  0  0  0  0  0  0  0  0  0
   58.4130   32.4530   47.0500 C   0  0  0  0  0  0  0  0  0  0  0  0
   58.3740   32.6810   45.6700 C   0  0  0  0  0  0  0  0  0  0  0  0
   57.8900   31.9130   44.7010 C   0  0  0  0  0  0  0  0  0  0  0  0
   57.2380   30.5970   44.8250 C   0  0  0  0  0  0  0  0  0  0  0  0
   55.9440   30.2790   44.4250 C   0  0  0  0  0  0  0  0  0  0  0  0
   55.6700   28.9840   44.7010 N   0  0  0  0  0  0  0  0  0  0  0  0
   56.7750   28.4840   45.2800 C   0  0  0  0  0  0  0  0  0  0  0  0
   56.9600   27.1920   45.7690 C   0  0  0  0  0  0  0  0  0  0  0  0
   58.1910   26.8900   46.3820 C   0  0  0  0  0  0  0  0  0  0  0  0
   59.1920   27.8790   46.5010 C   0  0  0  0  0  0  0  0  0  0  0  0
   58.9750   29.1760   46.0030 C   0  0  0  0  0  0  0  0  0  0  0  0
   57.7550   29.4410   45.3790 C   0  0  0  0  0  0  0  0  0  0  0  0
   57.3885   31.3510   42.0303 H   0  0  0  0  0  0  0  0  0  0  0  0
   58.1661   32.9696   41.3935 H   0  0  0  0  0  0  0  0  0  0  0  0
   59.9670   35.7019   45.4697 H   0  0  0  0  0  0  0  0  0  0  0  0
   60.0155   35.3535   47.9589 H   0  0  0  0  0  0  0  0  0  0  0  0
   59.0389   33.2792   48.9584 H   0  0  0  0  0  0  0  0  0  0  0  0
   57.9902   31.5341   47.4823 H   0  0  0  0  0  0  0  0  0  0  0  0
   55.2429   30.9818   43.9512 H   0  0  0  0  0  0  0  0  0  0  0  0
   54.7750   28.4800   44.5100 H   0  0  0  0  0  0  0  0  0  0  0  0
   56.1694   26.4325   45.6789 H   0  0  0  0  0  0  0  0  0  0  0  0
   58.3742   25.8774   46.7706 H   0  0  0  0  0  0  0  0  0  0  0  0
   60.1479   27.6331   46.9865 H   0  0  0  0  0  0  0  0  0  0  0  0
   59.7428   29.9574   46.1021 H   0  0  0  0  0  0  0  0  0  0  0  0
  1  2  2  0
  2  3  1  0
  3  4  2  0
  4  5  1  0
  5  6  2  0
  6  7  1  0
  7  8  2  0
  8  9  1  0
  9 10  2  0
 10 11  1  0
 11 12  2  0
 12 13  1  0
 13 14  1  0
 14 15  2  0
 15 16  1  0
 16 17  2  0
 17 18  1  0
 18 19  2  0
 10  2  1  0
 19 11  1  0
  9  4  1  0
 19 14  1  0
  1 20  1  0
  1 21  1  0
  5 22  1  0
  6 23  1  0
  7 24  1  0
  8 25  1  0
 12 26  1  0
 13 27  1  0
 15 28  1  0
 16 29  1  0
 17 30  1  0
 18 31  1  0
M  END
>  <UniqueID>  (57) 
50

>  <SMILES>  (57) 
C=C1N=c2ccccc2=C1c1c[nH]c2ccccc12

>  <Energy>  (57) 
104.12266386354422

>  <Genealogy>  (57) 
C=C1N=c2ccccc2=C1c1c[nH]c2ccccc12 (3D coordinates assigned)
C=C1N=c2ccccc2=C1c1c[nH]c2ccccc12 (nonaromatic ring conformer: 104.12266386354422 kcal/mol)

>  <smiles>  (57) 
C=C1N=c2ccccc2=C1c1c[nH]c2ccccc12

>  <score_type>  (57) 
oracle

>  <origin>  (57) 
adg

>  <m_score__min__energy>  (57) 
-8.6799999999999997

>  <m_primary>  (57) 
energy

$$$$
58:0
     RDKit          3D

 32 34  0  0  0  0  0  0  0  0999 V2000
   57.1040   25.2600   44.5560 C   0  0  0  0  0  0  0  0  0  0  0  0
   56.7310   25.8990   45.7210 C   0  0  0  0  0  0  0  0  0  0  0  0
   57.0070   27.2350   45.9430 C   0  0  0  0  0  0  0  0  0  0  0  0
   57.6740   27.9880   44.9940 C   0  0  0  0  0  0  0  0  0  0  0  0
   57.9830   29.4010   45.1900 C   0  0  0  0  0  0  0  0  0  0  0  0
   59.2260   29.8800   45.5480 C   0  0  0  0  0  0  0  0  0  0  0  0
   59.0780   31.2150   45.6210 N   0  0  0  0  0  0  0  0  0  0  0  0
   57.8200   31.5770   45.3290 C   0  0  0  0  0  0  0  0  0  0  0  0
   57.0520   33.1720   45.2630 S   0  0  0  0  0  0  0  0  0  0  0  0
   58.2160   34.5210   45.3580 C   0  0  0  0  0  0  0  0  0  0  0  0
   59.3780   34.2830   46.2350 C   0  0  0  0  0  0  0  0  0  0  0  0
   59.1930   34.5000   47.5990 C   0  0  0  0  0  0  0  0  0  0  0  0
   60.2330   34.2930   48.4870 C   0  0  0  0  0  0  0  0  0  0  0  0
   61.4810   33.8650   48.0450 C   0  0  0  0  0  0  0  0  0  0  0  0
   61.6090   33.6640   46.6700 C   0  0  0  0  0  0  0  0  0  0  0  0
   60.5850   33.8740   45.8360 N   0  0  0  0  0  0  0  0  0  0  0  0
   57.1280   30.4290   45.0570 N   0  0  0  0  0  0  0  0  0  0  0  0
   58.0430   27.3430   43.8320 C   0  0  0  0  0  0  0  0  0  0  0  0
   57.7710   26.0050   43.6020 C   0  0  0  0  0  0  0  0  0  0  0  0
   56.8785   24.1958   44.3926 H   0  0  0  0  0  0  0  0  0  0  0  0
   56.1983   25.3281   46.4958 H   0  0  0  0  0  0  0  0  0  0  0  0
   56.6922   27.7052   46.8863 H   0  0  0  0  0  0  0  0  0  0  0  0
   60.1400   29.2968   45.7336 H   0  0  0  0  0  0  0  0  0  0  0  0
   59.8540   31.8490   45.8760 H   0  0  0  0  0  0  0  0  0  0  0  0
   58.5901   34.7207   44.3430 H   0  0  0  0  0  0  0  0  0  0  0  0
   57.6687   35.3681   45.7971 H   0  0  0  0  0  0  0  0  0  0  0  0
   58.2146   34.8377   47.9715 H   0  0  0  0  0  0  0  0  0  0  0  0
   60.0708   34.4697   49.5605 H   0  0  0  0  0  0  0  0  0  0  0  0
   62.3176   33.6951   48.7387 H   0  0  0  0  0  0  0  0  0  0  0  0
   62.5733   33.3254   46.2633 H   0  0  0  0  0  0  0  0  0  0  0  0
   58.5747   27.9145   43.0569 H   0  0  0  0  0  0  0  0  0  0  0  0
   58.0861   25.5345   42.6590 H   0  0  0  0  0  0  0  0  0  0  0  0
  1  2  2  0
  2  3  1  0
  3  4  2  0
  4  5  1  0
  5  6  2  0
  6  7  1  0
  7  8  1  0
  8  9  1  0
  9 10  1  0
 10 11  1  0
 11 12  2  0
 12 13  1  0
 13 14  2  0
 14 15  1  0
 15 16  2  0
  8 17  2  0
  4 18  1  0
 18 19  2  0
 19  1  1  0
 17  5  1  0
 16 11  1  0
  1 20  1  0
  2 21  1  0
  3 22  1  0
  6 23  1  0
  7 24  1  0
 10 25  1  0
 10 26  1  0
 12 27  1  0
 13 28  1  0
 14 29  1  0
 15 30  1  0
 18 31  1  0
 19 32  1  0
M  END
>  <smiles>  (58) 
c1ccc(-c2c[nH]c(SCc3ccccn3)n2)cc1

>  <score_type>  (58) 
oracle

>  <origin>  (58) 
adg

>  <m_score__min__energy>  (58) 
-7

>  <m_primary>  (58) 
energy

$$$$
59:0
     RDKit          3D

 48 51  0  0  1  0  0  0  0  0999 V2000
   58.1320   32.6910   42.9880 C   0  0  0  0  0  0  0  0  0  0  0  0
   58.2440   33.0720   44.4310 C   0  0  0  0  0  0  0  0  0  0  0  0
   58.9110   34.2290   44.7690 C   0  0  0  0  0  0  0  0  0  0  0  0
   59.0110   34.5740   46.1050 C   0  0  0  0  0  0  0  0  0  0  0  0
   59.6910   35.7440   46.3990 O   0  0  0  0  0  0  0  0  0  0  0  0
   58.4460   33.7630   47.0770 C   0  0  0  0  0  0  0  0  0  0  0  0
   57.7700   32.5960   46.7650 C   0  0  0  0  0  0  0  0  0  0  0  0
   57.6840   32.2740   45.4300 C   0  0  0  0  0  0  0  0  0  0  0  0
   57.0150   31.0960   44.9590 N   0  0  0  0  0  0  0  0  0  0  0  0
   57.6810   29.9910   45.0780 C   0  0  0  0  0  0  0  0  0  0  0  0
   58.0320   29.2690   44.0040 N   0  0  0  0  0  0  0  0  0  0  0  0
   58.7330   28.1080   44.1010 C   0  0  0  0  0  0  0  0  0  0  0  0
   59.0790   27.6860   45.3690 C   0  0  0  0  0  0  0  0  0  0  0  0
   58.6980   28.4590   46.4520 C   0  0  0  0  0  0  0  0  0  0  0  0
   59.0140   28.0800   47.6250 N   0  0  0  0  0  0  0  0  0  0  0  0
   59.8690   28.7770   48.5240 C   0  0  0  0  0  0  0  0  0  0  0  0
   60.0190   28.4370   49.8490 C   0  0  0  0  0  0  0  0  0  0  0  0
   60.8800   29.1780   50.6590 C   0  0  0  0  0  0  0  0  0  0  0  0
   61.5800   30.2520   50.1240 C   0  0  0  0  0  0  0  0  0  0  0  0
   61.4390   30.6050   48.7930 C   0  0  0  0  0  0  0  0  0  0  0  0
   62.1750   31.7350   48.2300 C   0  0  0  0  0  0  0  0  0  0  0  0
   61.7550   32.4570   47.1470 C   0  0  0  0  0  0  0  0  0  0  0  0
   62.5170   33.4980   46.6950 C   0  0  0  0  0  0  0  0  0  0  0  0
   63.7230   33.8590   47.3030 C   0  0  0  0  0  0  0  0  0  0  0  0
   64.1440   33.1190   48.4040 C   0  0  0  0  0  0  0  0  0  0  0  0
   63.3700   32.0640   48.8620 C   0  0  0  0  0  0  0  0  0  0  0  0
   60.5880   29.8620   48.0200 C   0  0  0  0  0  0  0  0  0  0  0  0
   58.0050   29.6040   46.3260 N   0  0  0  0  0  0  0  0  0  0  0  0
   57.8226   31.6383   42.9097 H   0  0  0  0  0  0  0  0  0  0  0  0
   57.3839   33.3306   42.4969 H   0  0  0  0  0  0  0  0  0  0  0  0
   59.1072   32.8240   42.4969 H   0  0  0  0  0  0  0  0  0  0  0  0
   59.3559   34.8668   43.9910 H   0  0  0  0  0  0  0  0  0  0  0  0
   59.4250   36.4080   47.1160 H   0  0  0  0  0  0  0  0  0  0  0  0
   58.5381   34.0571   48.1330 H   0  0  0  0  0  0  0  0  0  0  0  0
   57.3248   31.9593   47.5437 H   0  0  0  0  0  0  0  0  0  0  0  0
   57.7810   29.5700   43.0230 H   0  0  0  0  0  0  0  0  0  0  0  0
   59.0123   27.5300   43.2077 H   0  0  0  0  0  0  0  0  0  0  0  0
   59.6457   26.7547   45.5156 H   0  0  0  0  0  0  0  0  0  0  0  0
   59.4628   27.5852   50.2674 H   0  0  0  0  0  0  0  0  0  0  0  0
   61.0043   28.9123   51.7192 H   0  0  0  0  0  0  0  0  0  0  0  0
   62.2574   30.8314   50.7686 H   0  0  0  0  0  0  0  0  0  0  0  0
   60.8109   32.2019   46.6434 H   0  0  0  0  0  0  0  0  0  0  0  0
   62.1693   34.0713   45.8230 H   0  0  0  0  0  0  0  0  0  0  0  0
   64.3202   34.7011   46.9233 H   0  0  0  0  0  0  0  0  0  0  0  0
   65.0881   33.3705   48.9093 H   0  0  0  0  0  0  0  0  0  0  0  0
   63.7038   31.4815   49.7333 H   0  0  0  0  0  0  0  0  0  0  0  0
   60.4660   30.1305   46.9603 H   0  0  0  0  0  0  0  0  0  0  0  0
   57.7360   30.1570   47.1450 H   0  0  0  0  0  0  0  0  0  0  0  0
  1  2  1  0
  2  3  2  0
  3  4  1  0
  4  5  1  0
  4  6  2  0
  6  7  1  0
  7  8  2  0
  8  9  1  0
  9 10  2  0
 10 11  1  0
 11 12  1  0
 12 13  2  0
 13 14  1  0
 14 15  2  0
 15 16  1  0
 16 17  2  0
 17 18  1  0
 18 19  2  0
 19 20  1  0
 20 21  1  0
 21 22  2  0
 22 23  1  0
 23 24  2  0
 24 25  1  0
 25 26  2  0
 20 27  2  0
 14 28  1  0
  8  2  1  0
 28 10  1  0
 27 16  1  0
 26 21  1  0
  1 29  1  0
  1 30  1  0
  1 31  1  0
  3 32  1  0
  5 33  1  0
  6 34  1  0
  7 35  1  0
 11 36  1  0
 12 37  1  0
 13 38  1  0
 17 39  1  0
 18 40  1  0
 19 41  1  0
 22 42  1  0
 23 43  1  0
 24 44  1  0
 25 45  1  0
 26 46  1  0
 27 47  1  0
 28 48  1  0
M  END
>  <smiles>  (59) 
Cc1cc(O)ccc1N=c1[nH]ccc(=Nc2cccc(-c3ccccc3)c2)[nH]1

>  <score_type>  (59) 
oracle

>  <origin>  (59) 
adg

>  <m_score__min__energy>  (59) 
-10.5

>  <m_primary>  (59) 
energy

$$$$
60:0
     RDKit          3D

 34 35  0  0  0  0  0  0  0  0999 V2000
   55.4204   24.7373   46.6579 H   0  0  0  0  0  0  0  0  0  0  0  0
   56.0960   25.5570   46.3720 C   0  0  0  0  0  0  0  0  0  0  0  0
   55.5850   26.7530   45.9800 N   0  0  0  0  0  0  0  0  0  0  0  0
   56.3830   27.7990   45.6200 C   0  0  0  0  0  0  0  0  0  0  0  0
   55.8760   28.9360   45.2420 N   0  0  0  0  0  0  0  0  0  0  0  0
   56.3590   29.8040   44.1600 C   0  0  1  0  0  0  0  0  0  0  0  0
   55.5026   30.2845   43.6643 H   0  0  0  0  0  0  0  0  0  0  0  0
   57.1840   30.9580   44.7110 C   0  0  0  0  0  0  0  0  0  0  0  0
   57.8080   30.8020   45.9600 C   0  0  0  0  0  0  0  0  0  0  0  0
   57.6687   29.8682   46.5244 H   0  0  0  0  0  0  0  0  0  0  0  0
   58.6040   31.8200   46.4940 C   0  0  0  0  0  0  0  0  0  0  0  0
   59.0767   31.6872   47.4783 H   0  0  0  0  0  0  0  0  0  0  0  0
   58.8010   33.0070   45.7800 C   0  0  0  0  0  0  0  0  0  0  0  0
   59.7930   34.2940   46.4570 S   0  0  0  0  0  0  0  0  0  0  0  0
   59.3320   34.6130   47.8520 O   0  0  0  0  0  0  0  0  0  0  0  0
   59.6670   35.5310   45.6130 O   0  0  0  0  0  0  0  0  0  0  0  0
   61.4910   33.7700   46.4960 C   0  0  0  0  0  0  0  0  0  0  0  0
   61.8195   33.6686   47.5409 H   0  0  0  0  0  0  0  0  0  0  0  0
   61.5873   32.8003   45.9856 H   0  0  0  0  0  0  0  0  0  0  0  0
   62.1170   34.5168   45.9856 H   0  0  0  0  0  0  0  0  0  0  0  0
   58.1880   33.1730   44.5330 C   0  0  0  0  0  0  0  0  0  0  0  0
   58.3340   34.1076   43.9716 H   0  0  0  0  0  0  0  0  0  0  0  0
   57.3910   32.1570   43.9970 C   0  0  0  0  0  0  0  0  0  0  0  0
   56.9219   32.2935   43.0114 H   0  0  0  0  0  0  0  0  0  0  0  0
   57.0400   28.9810   43.0560 C   0  0  0  0  0  0  0  0  0  0  0  0
   57.6777   28.2103   43.5137 H   0  0  0  0  0  0  0  0  0  0  0  0
   56.2730   28.4991   42.4319 H   0  0  0  0  0  0  0  0  0  0  0  0
   57.6569   29.6442   42.4319 H   0  0  0  0  0  0  0  0  0  0  0  0
   57.7750   27.6430   45.6500 C   0  0  0  0  0  0  0  0  0  0  0  0
   58.4326   28.4763   45.3616 H   0  0  0  0  0  0  0  0  0  0  0  0
   58.3210   26.4210   46.0490 C   0  0  0  0  0  0  0  0  0  0  0  0
   59.4126   26.2886   46.0771 H   0  0  0  0  0  0  0  0  0  0  0  0
   57.4800   25.3680   46.4120 C   0  0  0  0  0  0  0  0  0  0  0  0
   57.9013   24.4015   46.7256 H   0  0  0  0  0  0  0  0  0  0  0  0
  1  2  1  0
  2  3  1  0
  3  4  1  0
  4  5  2  0
  5  6  1  0
  6  7  1  6
  6  8  1  0
  8  9  2  0
  9 10  1  0
  9 11  1  0
 11 12  1  0
 11 13  2  0
 13 14  1  0
 14 15  2  0
 14 16  2  0
 14 17  1  0
 17 18  1  0
 17 19  1  0
 17 20  1  0
 13 21  1  0
 21 22  1  0
 21 23  2  0
 23 24  1  0
  6 25  1  0
 25 26  1  0
 25 27  1  0
 25 28  1  0
  4 29  1  0
 29 30  1  0
 29 31  2  0
 31 32  1  0
 31 33  1  0
 33 34  1  0
 33  2  2  0
 23  8  1  0
M  CHG  1   3  -1
M  END
>  <UniqueID>  (60) 
51

>  <SMILES>  (60) 
C[C@@H](/N=c1/cccc[n-]1)c1ccc(S(C)(=O)=O)cc1

>  <Energy>  (60) 
34.06658903974112

>  <Genealogy>  (60) 
CC(N=c1cccc[n-]1)c1ccc(S(C)(=O)=O)cc1 (protonated)
C[C@@H](N=c1cccc[n-]1)c1ccc(S(C)(=O)=O)cc1 (chirality)
C[C@@H](/N=c1/cccc[n-]1)c1ccc(S(C)(=O)=O)cc1 (cis-trans isomerization)
C[C@@H](/N=c1/cccc[n-]1)c1ccc(S(C)(=O)=O)cc1 (3D coordinates assigned)
C[C@@H](/N=c1/cccc[n-]1)c1ccc(S(C)(=O)=O)cc1 (optimized conformer: 34.06658903974112 kcal/mol)

>  <smiles>  (60) 
CC(N=c1cccc[nH]1)c1ccc(S(C)(=O)=O)cc1

>  <score_type>  (60) 
oracle

>  <origin>  (60) 
adg

>  <m_score__min__energy>  (60) 
-9.5199999999999996

>  <m_primary>  (60) 
energy

$$$$
61:0
     RDKit          3D

 35 36  0  0  1  0  0  0  0  0999 V2000
   54.5090   24.1560   45.0310 C   0  0  0  0  0  0  0  0  0  0  0  0
   55.4670   24.7730   45.9520 C   0  0  0  0  0  0  0  0  0  0  0  0
   55.6150   24.2910   47.1160 O   0  0  0  0  0  0  0  0  0  0  0  0
   56.2670   25.9010   45.6300 N   0  0  0  0  0  0  0  0  0  0  0  0
   57.1670   26.3870   46.6580 C   0  0  0  0  0  0  0  0  0  0  0  0
   57.5950   27.8200   46.4130 C   0  0  0  0  0  0  0  0  0  0  0  0
   56.6600   28.3410   45.4370 N   0  0  0  0  0  0  0  0  0  0  0  0
   56.8680   29.3950   44.7320 C   0  0  0  0  0  0  0  0  0  0  0  0
   57.4050   30.4950   45.3360 N   0  0  0  0  0  0  0  0  0  0  0  0
   57.6240   31.6020   44.6030 C   0  0  0  0  0  0  0  0  0  0  0  0
   58.1990   32.7600   45.2790 C   0  0  0  0  0  0  0  0  0  0  0  0
   58.1950   32.7610   46.6580 C   0  0  0  0  0  0  0  0  0  0  0  0
   58.7390   33.8580   47.3260 C   0  0  0  0  0  0  0  0  0  0  0  0
   59.2790   34.9340   46.6560 C   0  0  0  0  0  0  0  0  0  0  0  0
   59.2820   34.9300   45.2660 C   0  0  0  0  0  0  0  0  0  0  0  0
   58.7390   33.8380   44.6170 C   0  0  0  0  0  0  0  0  0  0  0  0
   57.2980   31.5890   43.2640 C   0  0  0  0  0  0  0  0  0  0  0  0
   56.7540   30.4740   42.6510 C   0  0  0  0  0  0  0  0  0  0  0  0
   56.5520   29.3900   43.4240 N   0  0  0  0  0  0  0  0  0  0  0  0
   53.7212   23.6486   45.6071 H   0  0  0  0  0  0  0  0  0  0  0  0
   54.0570   24.9332   44.3972 H   0  0  0  0  0  0  0  0  0  0  0  0
   55.0296   23.4230   44.3972 H   0  0  0  0  0  0  0  0  0  0  0  0
   56.1830   26.3370   44.6810 H   0  0  0  0  0  0  0  0  0  0  0  0
   56.6568   26.3310   47.6309 H   0  0  0  0  0  0  0  0  0  0  0  0
   58.0690   25.7577   46.6423 H   0  0  0  0  0  0  0  0  0  0  0  0
   57.5421   28.4018   47.3450 H   0  0  0  0  0  0  0  0  0  0  0  0
   58.6338   27.8806   46.0563 H   0  0  0  0  0  0  0  0  0  0  0  0
   57.7719   31.9148   47.2192 H   0  0  0  0  0  0  0  0  0  0  0  0
   58.7368   33.8643   48.4260 H   0  0  0  0  0  0  0  0  0  0  0  0
   59.7014   35.7835   47.2127 H   0  0  0  0  0  0  0  0  0  0  0  0
   59.7047   35.7724   44.6989 H   0  0  0  0  0  0  0  0  0  0  0  0
   58.7385   33.8302   43.5170 H   0  0  0  0  0  0  0  0  0  0  0  0
   57.4758   32.4934   42.6637 H   0  0  0  0  0  0  0  0  0  0  0  0
   56.4983   30.4732   41.5811 H   0  0  0  0  0  0  0  0  0  0  0  0
   56.1480   28.5210   43.0260 H   0  0  0  0  0  0  0  0  0  0  0  0
  1  2  1  0
  2  3  2  0
  2  4  1  0
  4  5  1  0
  5  6  1  0
  6  7  1  0
  7  8  2  0
  8  9  1  0
  9 10  2  0
 10 11  1  0
 11 12  2  0
 12 13  1  0
 13 14  2  0
 14 15  1  0
 15 16  2  0
 10 17  1  0
 17 18  2  0
 18 19  1  0
 19  8  1  0
 16 11  1  0
  1 20  1  0
  1 21  1  0
  1 22  1  0
  4 23  1  0
  5 24  1  0
  5 25  1  0
  6 26  1  0
  6 27  1  0
 12 28  1  0
 13 29  1  0
 14 30  1  0
 15 31  1  0
 16 32  1  0
 17 33  1  0
 18 34  1  0
 19 35  1  0
M  END
>  <smiles>  (61) 
CC(=O)NCCN=c1nc(-c2ccccc2)cc[nH]1

>  <score_type>  (61) 
oracle

>  <origin>  (61) 
adg

>  <m_score__min__energy>  (61) 
-7.3399999999999999

>  <m_primary>  (61) 
energy

$$$$
62:0
     RDKit          3D

 50 53  0  0  0  0  0  0  0  0999 V2000
   56.2720   22.7450   47.3100 C   0  0  0  0  0  0  0  0  0  0  0  0
   56.3430   22.7710   45.8050 C   0  0  0  0  0  0  0  0  0  0  0  0
   57.1760   21.8400   45.1610 C   0  0  0  0  0  0  0  0  0  0  0  0
   57.3120   21.8490   43.7720 C   0  0  0  0  0  0  0  0  0  0  0  0
   56.6190   22.7870   43.0080 C   0  0  0  0  0  0  0  0  0  0  0  0
   55.7710   23.7060   43.6280 C   0  0  0  0  0  0  0  0  0  0  0  0
   55.6000   23.6940   45.0230 C   0  0  0  0  0  0  0  0  0  0  0  0
   54.6490   24.6600   45.6200 C   0  0  0  0  0  0  0  0  0  0  0  0
   53.5160   24.2530   45.9900 O   0  0  0  0  0  0  0  0  0  0  0  0
   54.9670   26.0500   45.7760 N   0  0  0  0  0  0  0  0  0  0  0  0
   56.2350   26.5930   46.1710 C   0  0  0  0  0  0  0  0  0  0  0  0
   57.0500   25.9570   47.1230 C   0  0  0  0  0  0  0  0  0  0  0  0
   58.2830   26.5130   47.4790 C   0  0  0  0  0  0  0  0  0  0  0  0
   58.7170   27.7150   46.8960 C   0  0  0  0  0  0  0  0  0  0  0  0
   60.0230   28.3010   47.2740 C   0  0  0  0  0  0  0  0  0  0  0  0
   60.9690   27.5410   47.6210 O   0  0  0  0  0  0  0  0  0  0  0  0
   60.2290   29.7250   47.2780 N   0  0  0  0  0  0  0  0  0  0  0  0
   60.6360   30.3750   48.5340 C   0  0  0  0  0  0  0  0  0  0  0  0
   60.8970   31.8860   48.3740 C   0  0  0  0  0  0  0  0  0  0  0  0
   59.8870   32.5350   47.4530 C   0  0  0  0  0  0  0  0  0  0  0  0
   59.3730   33.8420   47.6630 C   0  0  0  0  0  0  0  0  0  0  0  0
   59.7830   34.6550   48.7220 O   0  0  0  0  0  0  0  0  0  0  0  0
   58.4280   34.3620   46.7720 C   0  0  0  0  0  0  0  0  0  0  0  0
   58.0260   33.6330   45.6520 C   0  0  0  0  0  0  0  0  0  0  0  0
   58.5720   32.3740   45.4050 C   0  0  0  0  0  0  0  0  0  0  0  0
   59.4990   31.8230   46.3000 C   0  0  0  0  0  0  0  0  0  0  0  0
   60.1290   30.4880   46.0280 C   0  0  0  0  0  0  0  0  0  0  0  0
   57.8770   28.3700   45.9770 C   0  0  0  0  0  0  0  0  0  0  0  0
   56.6460   27.8140   45.6240 C   0  0  0  0  0  0  0  0  0  0  0  0
   57.2273   23.0948   47.7282 H   0  0  0  0  0  0  0  0  0  0  0  0
   55.4596   23.4040   47.6502 H   0  0  0  0  0  0  0  0  0  0  0  0
   56.0772   21.7172   47.6502 H   0  0  0  0  0  0  0  0  0  0  0  0
   57.7260   21.0972   45.7574 H   0  0  0  0  0  0  0  0  0  0  0  0
   57.9668   21.1151   43.2794 H   0  0  0  0  0  0  0  0  0  0  0  0
   56.7407   22.8028   41.9149 H   0  0  0  0  0  0  0  0  0  0  0  0
   55.2315   24.4465   43.0192 H   0  0  0  0  0  0  0  0  0  0  0  0
   56.7169   25.0184   47.5899 H   0  0  0  0  0  0  0  0  0  0  0  0
   58.9173   26.0055   48.2207 H   0  0  0  0  0  0  0  0  0  0  0  0
   59.8367   30.2342   49.2765 H   0  0  0  0  0  0  0  0  0  0  0  0
   61.5804   29.9103   48.8537 H   0  0  0  0  0  0  0  0  0  0  0  0
   60.8368   32.3646   49.3626 H   0  0  0  0  0  0  0  0  0  0  0  0
   61.8961   32.0161   47.9326 H   0  0  0  0  0  0  0  0  0  0  0  0
   59.3100   35.5040   48.9960 H   0  0  0  0  0  0  0  0  0  0  0  0
   57.9969   35.3570   46.9564 H   0  0  0  0  0  0  0  0  0  0  0  0
   57.2776   34.0520   44.9633 H   0  0  0  0  0  0  0  0  0  0  0  0
   58.2748   31.8128   44.5068 H   0  0  0  0  0  0  0  0  0  0  0  0
   59.5106   29.9316   45.3083 H   0  0  0  0  0  0  0  0  0  0  0  0
   61.1358   30.6381   45.6110 H   0  0  0  0  0  0  0  0  0  0  0  0
   58.1921   29.3262   45.5338 H   0  0  0  0  0  0  0  0  0  0  0  0
   55.9942   28.3395   44.9106 H   0  0  0  0  0  0  0  0  0  0  0  0
  1  2  1  0
  2  3  2  0
  3  4  1  0
  4  5  2  0
  5  6  1  0
  6  7  2  0
  7  8  1  0
  8  9  2  0
  8 10  1  0
 10 11  1  0
 11 12  2  0
 12 13  1  0
 13 14  2  0
 14 15  1  0
 15 16  2  0
 15 17  1  0
 17 18  1  0
 18 19  1  0
 19 20  1  0
 20 21  2  0
 21 22  1  0
 21 23  1  0
 23 24  2  0
 24 25  1  0
 25 26  2  0
 26 27  1  0
 14 28  1  0
 28 29  2  0
  7  2  1  0
 29 11  1  0
 27 17  1  0
 26 20  1  0
  1 30  1  0
  1 31  1  0
  1 32  1  0
  3 33  1  0
  4 34  1  0
  5 35  1  0
  6 36  1  0
 12 37  1  0
 13 38  1  0
 18 39  1  0
 18 40  1  0
 19 41  1  0
 19 42  1  0
 22 43  1  0
 23 44  1  0
 24 45  1  0
 25 46  1  0
 27 47  1  0
 27 48  1  0
 28 49  1  0
 29 50  1  0
M  CHG  1  10  -1
M  END
>  <UniqueID>  (62) 
52

>  <SMILES>  (62) 
Cc1ccccc1C(=O)[N-]c1ccc(C(=O)N2CCc3c(O)cccc3C2)cc1

>  <Energy>  (62) 
73.56365832898679

>  <Genealogy>  (62) 
Cc1ccccc1C(=O)[N-]c1ccc(C(=O)N2CCc3c(O)cccc3C2)cc1 (protonated)
Cc1ccccc1C(=O)[N-]c1ccc(C(=O)N2CCc3c(O)cccc3C2)cc1 (3D coordinates assigned)
Cc1ccccc1C(=O)[N-]c1ccc(C(=O)N2CCc3c(O)cccc3C2)cc1 (nonaromatic ring conformer: 73.56365832898679 kcal/mol)

>  <smiles>  (62) 
Cc1ccccc1C(=O)Nc1ccc(C(=O)N2CCc3c(O)cccc3C2)cc1

>  <score_type>  (62) 
oracle

>  <origin>  (62) 
adg

>  <m_score__min__energy>  (62) 
-10.27

>  <m_primary>  (62) 
energy

$$$$
63:0
     RDKit          3D

 22 23  0  0  0  0  0  0  0  0999 V2000
   54.7320   28.9680   45.4500 H   0  0  0  0  0  0  0  0  0  0  0  0
   55.5910   28.9930   44.8550 N   0  0  0  0  0  0  0  0  0  0  0  0
   56.7500   28.6340   45.3130 C   0  0  0  0  0  0  0  0  0  0  0  0
   57.0680   27.4030   45.8550 C   0  0  0  0  0  0  0  0  0  0  0  0
   56.2200   26.2520   46.0060 C   0  0  0  0  0  0  0  0  0  0  0  0
   55.5370   25.3250   46.1270 N   0  0  0  0  0  0  0  0  0  0  0  0
   58.3860   27.5210   46.2530 C   0  0  0  0  0  0  0  0  0  0  0  0
   58.9851   26.7328   46.7324 H   0  0  0  0  0  0  0  0  0  0  0  0
   58.8150   28.7650   45.9550 N   0  0  0  0  0  0  0  0  0  0  0  0
   59.7770   29.1340   46.1310 H   0  0  0  0  0  0  0  0  0  0  0  0
   57.8300   29.4430   45.3800 N   0  0  0  0  0  0  0  0  0  0  0  0
   57.9400   30.8110   44.9400 C   0  0  0  0  0  0  0  0  0  0  0  0
   58.0100   31.8640   45.8690 C   0  0  0  0  0  0  0  0  0  0  0  0
   57.9899   31.6450   46.9468 H   0  0  0  0  0  0  0  0  0  0  0  0
   58.1050   33.1880   45.4300 C   0  0  0  0  0  0  0  0  0  0  0  0
   58.1618   34.0064   46.1628 H   0  0  0  0  0  0  0  0  0  0  0  0
   58.1280   33.4740   44.0620 C   0  0  0  0  0  0  0  0  0  0  0  0
   58.2074   34.5160   43.7187 H   0  0  0  0  0  0  0  0  0  0  0  0
   58.0500   32.4350   43.1310 C   0  0  0  0  0  0  0  0  0  0  0  0
   58.0700   32.7120   41.8040 F   0  0  0  0  0  0  0  0  0  0  0  0
   57.9520   31.1090   43.5660 C   0  0  0  0  0  0  0  0  0  0  0  0
   57.8840   30.2951   42.8291 H   0  0  0  0  0  0  0  0  0  0  0  0
  1  2  1  0
  2  3  2  0
  3  4  1  0
  4  5  1  0
  5  6  3  0
  4  7  2  0
  7  8  1  0
  7  9  1  0
  9 10  1  0
  9 11  1  0
 11 12  1  0
 12 13  2  0
 13 14  1  0
 13 15  1  0
 15 16  1  0
 15 17  2  0
 17 18  1  0
 17 19  1  0
 19 20  1  0
 19 21  2  0
 21 22  1  0
 11  3  1  0
 21 12  1  0
M  END
>  <UniqueID>  (63) 
53

>  <SMILES>  (63) 
[H]/N=c1\c(C#N)c[nH]n1-c1cccc(F)c1

>  <Energy>  (63) 
60.489017413714386

>  <Genealogy>  (63) 
[H]/N=c1\c(C#N)c[nH]n1-c1cccc(F)c1 (cis-trans isomerization)
[H]/N=c1\c(C#N)c[nH]n1-c1cccc(F)c1 (3D coordinates assigned)
[H]/N=c1\c(C#N)c[nH]n1-c1cccc(F)c1 (optimized conformer: 60.489017413714386 kcal/mol)

>  <smiles>  (63) 
N#Cc1c[nH]n(-c2cccc(F)c2)c1=N

>  <score_type>  (63) 
oracle

>  <origin>  (63) 
adg

>  <m_score__min__energy>  (63) 
-5.6299999999999999

>  <m_primary>  (63) 
energy

$$$$
64:0
     RDKit          3D

 48 51  0  0  0  0  0  0  0  0999 V2000
   53.8690   21.7400   47.0120 C   0  0  0  0  0  0  0  0  0  0  0  0
   54.7540   22.4930   46.0630 C   0  0  0  0  0  0  0  0  0  0  0  0
   55.6830   21.8060   45.2660 C   0  0  0  0  0  0  0  0  0  0  0  0
   56.5330   22.5100   44.4080 C   0  0  0  0  0  0  0  0  0  0  0  0
   56.4780   23.9110   44.3480 C   0  0  0  0  0  0  0  0  0  0  0  0
   57.3820   24.6590   43.4070 C   0  0  0  0  0  0  0  0  0  0  0  0
   57.5170   26.0500   43.8320 N   0  0  0  0  0  0  0  0  0  0  0  0
   58.2340   26.4230   45.0210 C   0  0  0  0  0  0  0  0  0  0  0  0
   58.6980   25.5240   45.7760 O   0  0  0  0  0  0  0  0  0  0  0  0
   58.4250   27.8460   45.3890 C   0  0  0  0  0  0  0  0  0  0  0  0
   59.4820   28.2440   46.2530 C   0  0  0  0  0  0  0  0  0  0  0  0
   59.6570   29.5960   46.6020 C   0  0  0  0  0  0  0  0  0  0  0  0
   58.7510   30.5220   46.0870 C   0  0  0  0  0  0  0  0  0  0  0  0
   57.7360   30.1510   45.2570 C   0  0  0  0  0  0  0  0  0  0  0  0
   57.5330   28.8240   44.8890 C   0  0  0  0  0  0  0  0  0  0  0  0
   57.0230   31.2250   44.8690 N   0  0  0  0  0  0  0  0  0  0  0  0
   57.6470   32.2530   45.5020 C   0  0  0  0  0  0  0  0  0  0  0  0
   57.1890   33.6710   45.3670 C   0  0  0  0  0  0  0  0  0  0  0  0
   58.7150   31.8570   46.2500 N   0  0  0  0  0  0  0  0  0  0  0  0
   59.5920   32.6710   47.0440 C   0  0  0  0  0  0  0  0  0  0  0  0
   60.9660   32.7210   46.7560 C   0  0  0  0  0  0  0  0  0  0  0  0
   61.8200   33.5110   47.5310 C   0  0  0  0  0  0  0  0  0  0  0  0
   61.3090   34.2570   48.5970 C   0  0  0  0  0  0  0  0  0  0  0  0
   59.9430   34.2130   48.8900 C   0  0  0  0  0  0  0  0  0  0  0  0
   59.0860   33.4230   48.1160 C   0  0  0  0  0  0  0  0  0  0  0  0
   55.5590   24.5990   45.1570 C   0  0  0  0  0  0  0  0  0  0  0  0
   54.7090   23.8950   46.0140 C   0  0  0  0  0  0  0  0  0  0  0  0
   54.1523   21.9811   48.0472 H   0  0  0  0  0  0  0  0  0  0  0  0
   52.8209   22.0275   46.8423 H   0  0  0  0  0  0  0  0  0  0  0  0
   53.9849   20.6594   46.8423 H   0  0  0  0  0  0  0  0  0  0  0  0
   55.7425   20.7088   45.3168 H   0  0  0  0  0  0  0  0  0  0  0  0
   57.2486   21.9630   43.7766 H   0  0  0  0  0  0  0  0  0  0  0  0
   58.3738   24.1833   43.4017 H   0  0  0  0  0  0  0  0  0  0  0  0
   56.9467   24.6341   42.3971 H   0  0  0  0  0  0  0  0  0  0  0  0
   57.0130   26.7760   43.2770 H   0  0  0  0  0  0  0  0  0  0  0  0
   60.1712   27.4859   46.6534 H   0  0  0  0  0  0  0  0  0  0  0  0
   60.4809   29.9115   47.2590 H   0  0  0  0  0  0  0  0  0  0  0  0
   56.7009   28.5430   44.2268 H   0  0  0  0  0  0  0  0  0  0  0  0
   57.0480   34.1075   46.3668 H   0  0  0  0  0  0  0  0  0  0  0  0
   57.9458   34.2500   44.8175 H   0  0  0  0  0  0  0  0  0  0  0  0
   56.2365   33.6979   44.8175 H   0  0  0  0  0  0  0  0  0  0  0  0
   61.3715   32.1361   45.9173 H   0  0  0  0  0  0  0  0  0  0  0  0
   62.8953   33.5457   47.3017 H   0  0  0  0  0  0  0  0  0  0  0  0
   61.9821   34.8789   49.2055 H   0  0  0  0  0  0  0  0  0  0  0  0
   59.5416   34.7997   49.7294 H   0  0  0  0  0  0  0  0  0  0  0  0
   58.0113   33.3910   48.3484 H   0  0  0  0  0  0  0  0  0  0  0  0
   55.5081   25.6971   45.1158 H   0  0  0  0  0  0  0  0  0  0  0  0
   54.0009   24.4424   46.6535 H   0  0  0  0  0  0  0  0  0  0  0  0
  1  2  1  0
  2  3  2  0
  3  4  1  0
  4  5  2  0
  5  6  1  0
  6  7  1  0
  7  8  1  0
  8  9  2  0
  8 10  1  0
 10 11  2  0
 11 12  1  0
 12 13  2  0
 13 14  1  0
 14 15  2  0
 14 16  1  0
 16 17  2  0
 17 18  1  0
 17 19  1  0
 19 20  1  0
 20 21  2  0
 21 22  1  0
 22 23  2  0
 23 24  1  0
 24 25  2  0
  5 26  1  0
 26 27  2  0
 27  2  1  0
 15 10  1  0
 25 20  1  0
 19 13  1  0
  1 28  1  0
  1 29  1  0
  1 30  1  0
  3 31  1  0
  4 32  1  0
  6 33  1  0
  6 34  1  0
  7 35  1  0
 11 36  1  0
 12 37  1  0
 15 38  1  0
 18 39  1  0
 18 40  1  0
 18 41  1  0
 21 42  1  0
 22 43  1  0
 23 44  1  0
 24 45  1  0
 25 46  1  0
 26 47  1  0
 27 48  1  0
M  END
>  <UniqueID>  (64) 
54

>  <SMILES>  (64) 
Cc1ccc(CNC(=O)c2ccc3c(c2)nc(C)n3-c2ccccc2)cc1

>  <Energy>  (64) 
94.02647363060152

>  <Genealogy>  (64) 
Cc1ccc(CNC(=O)c2ccc3c(c2)nc(C)n3-c2ccccc2)cc1 (3D coordinates assigned)
Cc1ccc(CNC(=O)c2ccc3c(c2)nc(C)n3-c2ccccc2)cc1 (optimized conformer: 94.02647363060152 kcal/mol)

>  <smiles>  (64) 
Cc1ccc(CNC(=O)c2ccc3c(c2)nc(C)n3-c2ccccc2)cc1

>  <score_type>  (64) 
oracle

>  <origin>  (64) 
adg

>  <m_score__min__energy>  (64) 
-8.3100000000000005

>  <m_primary>  (64) 
energy

$$$$
65:0
     RDKit          3D

 49 53  0  0  0  0  0  0  0  0999 V2000
   55.1520   30.1830   44.2280 N   0  0  0  0  0  0  0  0  0  0  0  0
   56.2880   29.9900   44.0990 C   0  0  0  0  0  0  0  0  0  0  0  0
   57.7250   29.7370   43.9440 C   0  0  0  0  0  0  0  0  0  0  0  0
   58.3200   29.3770   45.2320 N   0  0  0  0  0  0  0  0  0  0  0  0
   59.0900   30.1540   46.0360 C   0  0  0  0  0  0  0  0  0  0  0  0
   59.3950   31.3450   45.7600 O   0  0  0  0  0  0  0  0  0  0  0  0
   59.5190   29.5080   47.1520 N   0  0  0  0  0  0  0  0  0  0  0  0
   60.4390   30.0150   48.1770 C   0  0  0  0  0  0  0  0  0  0  0  0
   59.6850   30.5920   49.3410 C   0  0  0  0  0  0  0  0  0  0  0  0
   59.0340   29.8050   50.2380 N   0  0  0  0  0  0  0  0  0  0  0  0
   58.5420   30.6900   51.1220 C   0  0  0  0  0  0  0  0  0  0  0  0
   57.8010   30.4170   52.2700 C   0  0  0  0  0  0  0  0  0  0  0  0
   57.4120   31.5040   53.0730 C   0  0  0  0  0  0  0  0  0  0  0  0
   57.7740   32.8230   52.7160 C   0  0  0  0  0  0  0  0  0  0  0  0
   58.5250   33.0650   51.5500 C   0  0  0  0  0  0  0  0  0  0  0  0
   58.8870   31.9630   50.7700 C   0  0  0  0  0  0  0  0  0  0  0  0
   59.6120   31.9210   49.6370 N   0  0  0  0  0  0  0  0  0  0  0  0
   60.2200   33.0480   48.9180 C   0  0  0  0  0  0  0  0  0  0  0  0
   59.3960   33.4670   47.7230 C   0  0  0  0  0  0  0  0  0  0  0  0
   59.9300   34.2910   46.7120 C   0  0  0  0  0  0  0  0  0  0  0  0
   59.1410   34.6730   45.6240 C   0  0  0  0  0  0  0  0  0  0  0  0
   57.8120   34.2480   45.5360 C   0  0  0  0  0  0  0  0  0  0  0  0
   57.0520   34.6110   44.4740 F   0  0  0  0  0  0  0  0  0  0  0  0
   57.2630   33.4610   46.5520 C   0  0  0  0  0  0  0  0  0  0  0  0
   58.0440   33.0880   47.6490 C   0  0  0  0  0  0  0  0  0  0  0  0
   59.0100   28.2620   47.0240 C   0  0  0  0  0  0  0  0  0  0  0  0
   59.1680   27.1530   47.8590 C   0  0  0  0  0  0  0  0  0  0  0  0
   58.5150   25.9600   47.4970 C   0  0  0  0  0  0  0  0  0  0  0  0
   57.7380   25.8960   46.3200 C   0  0  0  0  0  0  0  0  0  0  0  0
   57.6110   27.0210   45.4860 C   0  0  0  0  0  0  0  0  0  0  0  0
   58.2680   28.1920   45.8720 C   0  0  0  0  0  0  0  0  0  0  0  0
   57.8733   28.9113   43.2325 H   0  0  0  0  0  0  0  0  0  0  0  0
   58.2103   30.6500   43.5687 H   0  0  0  0  0  0  0  0  0  0  0  0
   61.0717   29.1885   48.5327 H   0  0  0  0  0  0  0  0  0  0  0  0
   61.0559   30.8092   47.7314 H   0  0  0  0  0  0  0  0  0  0  0  0
   57.5293   29.3856   52.5392 H   0  0  0  0  0  0  0  0  0  0  0  0
   56.8224   31.3268   53.9846 H   0  0  0  0  0  0  0  0  0  0  0  0
   57.4670   33.6655   53.3531 H   0  0  0  0  0  0  0  0  0  0  0  0
   58.8168   34.0860   51.2627 H   0  0  0  0  0  0  0  0  0  0  0  0
   60.3083   33.9020   49.6057 H   0  0  0  0  0  0  0  0  0  0  0  0
   61.2072   32.7265   48.5544 H   0  0  0  0  0  0  0  0  0  0  0  0
   60.9726   34.6349   46.7798 H   0  0  0  0  0  0  0  0  0  0  0  0
   59.5666   35.3099   44.8345 H   0  0  0  0  0  0  0  0  0  0  0  0
   56.2145   33.1347   46.4880 H   0  0  0  0  0  0  0  0  0  0  0  0
   57.5981   32.4938   48.4602 H   0  0  0  0  0  0  0  0  0  0  0  0
   59.7826   27.2104   48.7695 H   0  0  0  0  0  0  0  0  0  0  0  0
   58.6108   25.0701   48.1364 H   0  0  0  0  0  0  0  0  0  0  0  0
   57.2279   24.9586   46.0532 H   0  0  0  0  0  0  0  0  0  0  0  0
   57.0153   26.9805   44.5621 H   0  0  0  0  0  0  0  0  0  0  0  0
  1  2  3  0
  2  3  1  0
  3  4  1  0
  4  5  1  0
  5  6  2  0
  5  7  1  0
  7  8  1  0
  8  9  1  0
  9 10  2  0
 10 11  1  0
 11 12  2  0
 12 13  1  0
 13 14  2  0
 14 15  1  0
 15 16  2  0
 16 17  1  0
 17 18  1  0
 18 19  1  0
 19 20  2  0
 20 21  1  0
 21 22  2  0
 22 23  1  0
 22 24  1  0
 24 25  2  0
  7 26  1  0
 26 27  2  0
 27 28  1  0
 28 29  2  0
 29 30  1  0
 30 31  2  0
 31  4  1  0
 17  9  1  0
 25 19  1  0
 31 26  1  0
 16 11  1  0
  3 32  1  0
  3 33  1  0
  8 34  1  0
  8 35  1  0
 12 36  1  0
 13 37  1  0
 14 38  1  0
 15 39  1  0
 18 40  1  0
 18 41  1  0
 20 42  1  0
 21 43  1  0
 24 44  1  0
 25 45  1  0
 27 46  1  0
 28 47  1  0
 29 48  1  0
 30 49  1  0
M  END
>  <UniqueID>  (65) 
55

>  <SMILES>  (65) 
N#CCn1c(=O)n(Cc2nc3ccccc3n2Cc2ccc(F)cc2)c2ccccc21

>  <Energy>  (65) 
126.27842925989373

>  <Genealogy>  (65) 
N#CCn1c(=O)n(Cc2nc3ccccc3n2Cc2ccc(F)cc2)c2ccccc21 (3D coordinates assigned)
N#CCn1c(=O)n(Cc2nc3ccccc3n2Cc2ccc(F)cc2)c2ccccc21 (optimized conformer: 126.27842925989373 kcal/mol)

>  <smiles>  (65) 
N#CCn1c(=O)n(Cc2nc3ccccc3n2Cc2ccc(F)cc2)c2ccccc21

>  <score_type>  (65) 
oracle

>  <origin>  (65) 
adg

>  <m_score__min__energy>  (65) 
-8.5999999999999996

>  <m_primary>  (65) 
energy

$$$$
66:0
     RDKit          3D

 40 42  0  0  0  0  0  0  0  0999 V2000
   62.6700   33.4560   46.7580 C   0  0  0  0  0  0  0  0  0  0  0  0
   61.5660   34.1720   47.3030 O   0  0  0  0  0  0  0  0  0  0  0  0
   60.2380   34.0490   46.8600 C   0  0  0  0  0  0  0  0  0  0  0  0
   59.7640   34.7550   45.7350 C   0  0  0  0  0  0  0  0  0  0  0  0
   58.4430   34.6070   45.3130 C   0  0  0  0  0  0  0  0  0  0  0  0
   57.5780   33.7610   46.0060 C   0  0  0  0  0  0  0  0  0  0  0  0
   58.0320   33.0570   47.1220 C   0  0  0  0  0  0  0  0  0  0  0  0
   59.3640   33.1880   47.5570 C   0  0  0  0  0  0  0  0  0  0  0  0
   59.8390   32.4760   48.7150 N   0  0  0  0  0  0  0  0  0  0  0  0
   60.1050   30.7610   48.7400 S   0  0  0  0  0  0  0  0  0  0  0  0
   61.5430   30.4910   49.0830 O   0  0  0  0  0  0  0  0  0  0  0  0
   59.2090   30.1140   49.7600 O   0  0  0  0  0  0  0  0  0  0  0  0
   59.7230   30.0940   47.1550 C   0  0  0  0  0  0  0  0  0  0  0  0
   60.7420   29.6300   46.3130 C   0  0  0  0  0  0  0  0  0  0  0  0
   60.4260   29.1000   45.0600 C   0  0  0  0  0  0  0  0  0  0  0  0
   59.0960   29.0260   44.6420 C   0  0  0  0  0  0  0  0  0  0  0  0
   58.0600   29.4820   45.4780 C   0  0  0  0  0  0  0  0  0  0  0  0
   56.6470   29.4080   45.0350 C   0  0  0  0  0  0  0  0  0  0  0  0
   56.1120   30.4090   44.4830 O   0  0  0  0  0  0  0  0  0  0  0  0
   55.8980   28.1960   45.2400 N   0  0  0  0  0  0  0  0  0  0  0  0
   56.3450   27.0380   45.6260 C   0  0  0  0  0  0  0  0  0  0  0  0
   55.6220   26.2250   46.4260 N   0  0  0  0  0  0  0  0  0  0  0  0
   56.2810   25.0690   46.7020 C   0  0  0  0  0  0  0  0  0  0  0  0
   57.5390   24.9500   46.1210 C   0  0  0  0  0  0  0  0  0  0  0  0
   57.8330   26.3460   45.2300 S   0  0  0  0  0  0  0  0  0  0  0  0
   58.3870   30.0120   46.7390 C   0  0  0  0  0  0  0  0  0  0  0  0
   63.2872   33.0557   47.5759 H   0  0  0  0  0  0  0  0  0  0  0  0
   62.2990   32.6261   46.1386 H   0  0  0  0  0  0  0  0  0  0  0  0
   63.2765   34.1332   46.1386 H   0  0  0  0  0  0  0  0  0  0  0  0
   60.4407   35.4269   45.1867 H   0  0  0  0  0  0  0  0  0  0  0  0
   58.0829   35.1586   44.4320 H   0  0  0  0  0  0  0  0  0  0  0  0
   56.5359   33.6484   45.6724 H   0  0  0  0  0  0  0  0  0  0  0  0
   57.3431   32.3942   47.6662 H   0  0  0  0  0  0  0  0  0  0  0  0
   60.1260   33.0090   49.5660 H   0  0  0  0  0  0  0  0  0  0  0  0
   61.7913   29.6831   46.6388 H   0  0  0  0  0  0  0  0  0  0  0  0
   61.2285   28.7394   44.3997 H   0  0  0  0  0  0  0  0  0  0  0  0
   58.8564   28.6086   43.6529 H   0  0  0  0  0  0  0  0  0  0  0  0
   55.8500   24.2831   47.3397 H   0  0  0  0  0  0  0  0  0  0  0  0
   58.2215   24.0937   46.2257 H   0  0  0  0  0  0  0  0  0  0  0  0
   57.5864   30.3657   47.4054 H   0  0  0  0  0  0  0  0  0  0  0  0
  1  2  1  0
  2  3  1  0
  3  4  2  0
  4  5  1  0
  5  6  2  0
  6  7  1  0
  7  8  2  0
  8  9  1  0
  9 10  1  0
 10 11  2  0
 10 12  2  0
 10 13  1  0
 13 14  2  0
 14 15  1  0
 15 16  2  0
 16 17  1  0
 17 18  1  0
 18 19  2  0
 18 20  1  0
 20 21  2  3
 21 22  1  0
 22 23  1  0
 23 24  2  0
 24 25  1  0
 17 26  2  0
  8  3  1  0
 26 13  1  0
 25 21  1  0
  1 27  1  0
  1 28  1  0
  1 29  1  0
  4 30  1  0
  5 31  1  0
  6 32  1  0
  7 33  1  0
  9 34  1  0
 14 35  1  0
 15 36  1  0
 16 37  1  0
 23 38  1  0
 24 39  1  0
 26 40  1  0
M  CHG  1  22  -1
M  END
>  <UniqueID>  (66) 
56

>  <SMILES>  (66) 
COc1ccccc1NS(=O)(=O)c1cccc(C(=O)N=c2[n-]ccs2)c1

>  <Energy>  (66) 
80.84482661982393

>  <Genealogy>  (66) 
COc1ccccc1NS(=O)(=O)c1cccc(C(=O)N=c2[n-]ccs2)c1 (protonated)
COc1ccccc1NS(=O)(=O)c1cccc(C(=O)N=c2[n-]ccs2)c1 (3D coordinates assigned)
COc1ccccc1NS(=O)(=O)c1cccc(C(=O)N=c2[n-]ccs2)c1 (optimized conformer: 80.84482661982393 kcal/mol)

>  <smiles>  (66) 
COc1ccccc1NS(=O)(=O)c1cccc(C(=O)N=c2[nH]ccs2)c1

>  <score_type>  (66) 
oracle

>  <origin>  (66) 
adg

>  <m_score__min__energy>  (66) 
-10.449999999999999

>  <m_primary>  (66) 
energy

$$$$
67:0
     RDKit          3D

 36 38  0  0  0  0  0  0  0  0999 V2000
   61.4110   33.8070   46.0880 C   0  0  0  0  0  0  0  0  0  0  0  0
   60.3600   33.4070   47.0970 C   0  0  0  0  0  0  0  0  0  0  0  0
   60.7150   33.2200   48.4550 C   0  0  0  0  0  0  0  0  0  0  0  0
   62.3580   33.4730   49.0430 Cl  0  0  0  0  0  0  0  0  0  0  0  0
   59.7490   32.8340   49.3890 C   0  0  0  0  0  0  0  0  0  0  0  0
   58.4280   32.6400   48.9970 C   0  0  0  0  0  0  0  0  0  0  0  0
   58.0540   32.8540   47.6720 C   0  0  0  0  0  0  0  0  0  0  0  0
   58.9970   33.2630   46.7170 C   0  0  0  0  0  0  0  0  0  0  0  0
   58.4340   33.5830   45.0650 S   0  0  0  0  0  0  0  0  0  0  0  0
   57.0520   34.1750   45.0740 O   0  0  0  0  0  0  0  0  0  0  0  0
   59.3780   34.5530   44.4120 O   0  0  0  0  0  0  0  0  0  0  0  0
   58.4020   32.1210   44.1310 N   0  0  0  0  0  0  0  0  0  0  0  0
   57.6500   30.9470   44.4920 C   0  0  0  0  0  0  0  0  0  0  0  0
   56.2700   30.8350   44.2370 C   0  0  0  0  0  0  0  0  0  0  0  0
   55.5720   29.6840   44.6140 C   0  0  0  0  0  0  0  0  0  0  0  0
   56.2370   28.6330   45.2520 C   0  0  0  0  0  0  0  0  0  0  0  0
   55.5290   27.4960   45.6220 O   0  0  0  0  0  0  0  0  0  0  0  0
   57.6100   28.7340   45.5160 C   0  0  0  0  0  0  0  0  0  0  0  0
   58.4820   27.4040   46.3450 S   0  0  0  0  0  0  0  0  0  0  0  0
   59.3040   28.5270   47.4680 C   0  0  0  0  0  0  0  0  0  0  0  0
   58.8840   28.7620   48.7260 N   0  0  0  0  0  0  0  0  0  0  0  0
   59.8050   29.6450   49.1600 C   0  0  0  0  0  0  0  0  0  0  0  0
   60.7270   29.9260   48.2210 N   0  0  0  0  0  0  0  0  0  0  0  0
   60.4100   29.2190   47.1510 N   0  0  0  0  0  0  0  0  0  0  0  0
   58.3100   29.8850   45.1330 C   0  0  0  0  0  0  0  0  0  0  0  0
   62.3134   34.1504   46.6150 H   0  0  0  0  0  0  0  0  0  0  0  0
   61.6619   32.9415   45.4572 H   0  0  0  0  0  0  0  0  0  0  0  0
   61.0229   34.6203   45.4572 H   0  0  0  0  0  0  0  0  0  0  0  0
   60.0350   32.6827   50.4403 H   0  0  0  0  0  0  0  0  0  0  0  0
   57.6780   32.3173   49.7342 H   0  0  0  0  0  0  0  0  0  0  0  0
   57.0071   32.7005   47.3711 H   0  0  0  0  0  0  0  0  0  0  0  0
   58.9780   32.1050   43.2600 H   0  0  0  0  0  0  0  0  0  0  0  0
   55.7377   31.6582   43.7380 H   0  0  0  0  0  0  0  0  0  0  0  0
   54.4944   29.6050   44.4076 H   0  0  0  0  0  0  0  0  0  0  0  0
   59.8032   30.0861   50.1677 H   0  0  0  0  0  0  0  0  0  0  0  0
   59.3886   29.9584   45.3363 H   0  0  0  0  0  0  0  0  0  0  0  0
  1  2  1  0
  2  3  2  0
  3  4  1  0
  3  5  1  0
  5  6  2  0
  6  7  1  0
  7  8  2  0
  8  9  1  0
  9 10  2  0
  9 11  2  0
  9 12  1  0
 12 13  1  0
 13 14  2  0
 14 15  1  0
 15 16  2  0
 16 17  1  0
 16 18  1  0
 18 19  1  0
 19 20  1  0
 20 21  1  0
 21 22  2  0
 22 23  1  0
 23 24  1  0
 18 25  2  0
  8  2  1  0
 25 13  1  0
 24 20  2  0
  1 26  1  0
  1 27  1  0
  1 28  1  0
  5 29  1  0
  6 30  1  0
  7 31  1  0
 12 32  1  0
 14 33  1  0
 15 34  1  0
 22 35  1  0
 25 36  1  0
M  CHG  2  17  -1  23  -1
M  END
>  <UniqueID>  (67) 
57

>  <SMILES>  (67) 
Cc1c(Cl)cccc1S(=O)(=O)Nc1ccc([O-])c(Sc2nc[n-]n2)c1

>  <Energy>  (67) 
73.36221716991471

>  <Genealogy>  (67) 
Cc1c(Cl)cccc1S(=O)(=O)Nc1ccc([O-])c(Sc2nc[n-]n2)c1 (protonated)
Cc1c(Cl)cccc1S(=O)(=O)Nc1ccc([O-])c(Sc2nc[n-]n2)c1 (3D coordinates assigned)
Cc1c(Cl)cccc1S(=O)(=O)Nc1ccc([O-])c(Sc2nc[n-]n2)c1 (optimized conformer: 73.36221716991471 kcal/mol)

>  <smiles>  (67) 
Cc1c(Cl)cccc1S(=O)(=O)Nc1ccc(O)c(Sc2nc[nH]n2)c1

>  <score_type>  (67) 
oracle

>  <origin>  (67) 
adg

>  <m_score__min__energy>  (67) 
-12.369999999999999

>  <m_primary>  (67) 
energy

$$$$
68:0
     RDKit          3D

 40 41  0  0  1  0  0  0  0  0999 V2000
   55.5450   29.4270   44.9190 N   0  0  0  0  0  0  0  0  0  0  0  0
   56.7910   29.1000   45.0190 C   0  0  0  0  0  0  0  0  0  0  0  0
   57.2190   28.0210   45.6990 N   0  0  0  0  0  0  0  0  0  0  0  0
   58.5190   27.6870   45.7980 C   0  0  0  0  0  0  0  0  0  0  0  0
   58.8390   26.6390   46.4700 N   0  0  0  0  0  0  0  0  0  0  0  0
   59.0170   26.5930   47.8870 C   0  0  0  0  0  0  0  0  0  0  0  0
   60.3820   27.0720   48.3520 C   0  0  0  0  0  0  0  0  0  0  0  0
   60.1190   28.3520   49.0950 C   0  0  0  0  0  0  0  0  0  0  0  0
   60.9720   29.4440   48.7300 N   0  0  0  0  0  0  0  0  0  0  0  0
   60.4360   30.4420   47.8530 C   0  0  0  0  0  0  0  0  0  0  0  0
   59.2370   30.2540   47.4830 O   0  0  0  0  0  0  0  0  0  0  0  0
   61.2160   31.5770   47.4290 C   0  0  0  0  0  0  0  0  0  0  0  0
   60.6810   32.7740   46.9930 C   0  0  0  0  0  0  0  0  0  0  0  0
   61.5320   33.7960   46.6110 C   0  0  0  0  0  0  0  0  0  0  0  0
   62.9040   33.6510   46.6510 C   0  0  0  0  0  0  0  0  0  0  0  0
   63.7080   34.5560   46.3110 O   0  0  0  0  0  0  0  0  0  0  0  0
   63.3970   32.4710   47.0810 N   0  0  0  0  0  0  0  0  0  0  0  0
   62.5980   31.4560   47.4610 C   0  0  0  0  0  0  0  0  0  0  0  0
   59.4470   28.4540   45.1950 N   0  0  0  0  0  0  0  0  0  0  0  0
   59.1000   29.5550   44.4910 C   0  0  0  0  0  0  0  0  0  0  0  0
   57.7460   29.8930   44.3940 C   0  0  0  0  0  0  0  0  0  0  0  0
   57.2970   31.0880   43.6380 C   0  0  0  0  0  0  0  0  0  0  0  0
   56.4280   30.6590   42.6460 F   0  0  0  0  0  0  0  0  0  0  0  0
   56.7040   31.9470   44.5210 F   0  0  0  0  0  0  0  0  0  0  0  0
   58.4030   31.6680   43.0540 F   0  0  0  0  0  0  0  0  0  0  0  0
   55.1790   30.1000   45.6210 H   0  0  0  0  0  0  0  0  0  0  0  0
   56.4920   27.4330   46.1630 H   0  0  0  0  0  0  0  0  0  0  0  0
   58.2496   27.2284   48.3533 H   0  0  0  0  0  0  0  0  0  0  0  0
   58.9301   25.5379   48.1856 H   0  0  0  0  0  0  0  0  0  0  0  0
   60.8457   26.3284   49.0169 H   0  0  0  0  0  0  0  0  0  0  0  0
   61.0742   27.2204   47.5101 H   0  0  0  0  0  0  0  0  0  0  0  0
   59.0782   28.6516   48.9030 H   0  0  0  0  0  0  0  0  0  0  0  0
   60.3211   28.1419   50.1557 H   0  0  0  0  0  0  0  0  0  0  0  0
   61.9440   29.5030   49.0930 H   0  0  0  0  0  0  0  0  0  0  0  0
   59.5907   32.9129   46.9500 H   0  0  0  0  0  0  0  0  0  0  0  0
   61.1039   34.7489   46.2664 H   0  0  0  0  0  0  0  0  0  0  0  0
   64.4490   32.3140   47.1280 H   0  0  0  0  0  0  0  0  0  0  0  0
   63.0493   30.5130   47.8033 H   0  0  0  0  0  0  0  0  0  0  0  0
   60.4600   28.1920   45.2740 H   0  0  0  0  0  0  0  0  0  0  0  0
   59.8681   30.1734   44.0036 H   0  0  0  0  0  0  0  0  0  0  0  0
  1  2  2  3
  2  3  1  0
  3  4  1  0
  4  5  2  0
  5  6  1  0
  6  7  1  0
  7  8  1  0
  8  9  1  0
  9 10  1  0
 10 11  2  0
 10 12  1  0
 12 13  1  0
 13 14  2  0
 14 15  1  0
 15 16  2  0
 15 17  1  0
 17 18  1  0
  4 19  1  0
 19 20  1  0
 20 21  2  0
 21 22  1  0
 22 23  1  0
 22 24  1  0
 22 25  1  0
 21  2  1  0
 18 12  2  0
  1 26  1  0
  3 27  1  0
  6 28  1  0
  6 29  1  0
  7 30  1  0
  7 31  1  0
  8 32  1  0
  8 33  1  0
  9 34  1  0
 13 35  1  0
 14 36  1  0
 17 37  1  0
 18 38  1  0
 19 39  1  0
 20 40  1  0
M  END
>  <smiles>  (68) 
N=c1[nH]c(=NCCCNC(=O)c2ccc(=O)[nH]c2)[nH]cc1C(F)(F)F

>  <score_type>  (68) 
oracle

>  <origin>  (68) 
adg

>  <m_score__min__energy>  (68) 
-6.7199999999999998

>  <m_primary>  (68) 
energy

$$$$
69:0
     RDKit          3D

 46 49  0  0  0  0  0  0  0  0999 V2000
   58.1700   29.7120   49.3070 O   0  0  0  0  0  0  0  0  0  0  0  0
   59.1830   29.9260   48.5850 C   0  0  0  0  0  0  0  0  0  0  0  0
   60.2910   30.6210   49.1140 C   0  0  0  0  0  0  0  0  0  0  0  0
   60.2120   31.2010   50.5140 C   0  0  0  0  0  0  0  0  0  0  0  0
   59.6530   32.5900   50.4610 C   0  0  0  0  0  0  0  0  0  0  0  0
   58.5250   33.0530   51.5630 S   0  0  0  0  0  0  0  0  0  0  0  0
   60.2650   33.5530   49.5890 N   0  0  0  0  0  0  0  0  0  0  0  0
   59.6640   34.3640   48.7650 C   0  0  0  0  0  0  0  0  0  0  0  0
   59.2140   33.9900   47.4060 C   0  0  0  0  0  0  0  0  0  0  0  0
   59.7070   34.6450   46.2620 C   0  0  0  0  0  0  0  0  0  0  0  0
   59.2360   34.2980   44.9930 C   0  0  0  0  0  0  0  0  0  0  0  0
   58.2560   33.3110   44.8550 C   0  0  0  0  0  0  0  0  0  0  0  0
   57.7400   32.6770   45.9890 C   0  0  0  0  0  0  0  0  0  0  0  0
   58.2090   33.0220   47.2600 C   0  0  0  0  0  0  0  0  0  0  0  0
   61.4050   30.8640   48.2690 C   0  0  0  0  0  0  0  0  0  0  0  0
   62.5890   31.6170   48.7360 C   0  0  0  0  0  0  0  0  0  0  0  0
   63.2370   31.2350   49.9210 C   0  0  0  0  0  0  0  0  0  0  0  0
   64.3470   31.9520   50.3780 C   0  0  0  0  0  0  0  0  0  0  0  0
   64.8030   33.0650   49.6660 C   0  0  0  0  0  0  0  0  0  0  0  0
   65.8790   33.7610   50.1110 F   0  0  0  0  0  0  0  0  0  0  0  0
   64.1440   33.4670   48.5010 C   0  0  0  0  0  0  0  0  0  0  0  0
   63.0350   32.7520   48.0390 C   0  0  0  0  0  0  0  0  0  0  0  0
   61.3870   30.4320   46.9750 N   0  0  0  0  0  0  0  0  0  0  0  0
   60.3300   29.7530   46.4520 C   0  0  0  0  0  0  0  0  0  0  0  0
   60.3570   29.3230   45.1150 C   0  0  0  0  0  0  0  0  0  0  0  0
   59.2730   28.6290   44.5740 C   0  0  0  0  0  0  0  0  0  0  0  0
   58.1530   28.3590   45.3610 C   0  0  0  0  0  0  0  0  0  0  0  0
   58.1110   28.7810   46.6930 C   0  0  0  0  0  0  0  0  0  0  0  0
   59.1980   29.4800   47.2520 C   0  0  0  0  0  0  0  0  0  0  0  0
   59.5594   30.5689   51.1342 H   0  0  0  0  0  0  0  0  0  0  0  0
   61.2217   31.2339   50.9493 H   0  0  0  0  0  0  0  0  0  0  0  0
   59.4790   35.3946   49.1019 H   0  0  0  0  0  0  0  0  0  0  0  0
   60.4665   35.4337   46.3673 H   0  0  0  0  0  0  0  0  0  0  0  0
   59.6370   34.8023   44.1014 H   0  0  0  0  0  0  0  0  0  0  0  0
   57.8911   33.0334   43.8551 H   0  0  0  0  0  0  0  0  0  0  0  0
   56.9636   31.9053   45.8811 H   0  0  0  0  0  0  0  0  0  0  0  0
   57.7879   32.5320   48.1502 H   0  0  0  0  0  0  0  0  0  0  0  0
   62.8705   30.3691   50.4918 H   0  0  0  0  0  0  0  0  0  0  0  0
   64.8618   31.6399   51.2986 H   0  0  0  0  0  0  0  0  0  0  0  0
   64.4987   34.3481   47.9462 H   0  0  0  0  0  0  0  0  0  0  0  0
   62.5111   33.0787   47.1286 H   0  0  0  0  0  0  0  0  0  0  0  0
   62.2170   30.6280   46.3690 H   0  0  0  0  0  0  0  0  0  0  0  0
   61.2375   29.5343   44.4905 H   0  0  0  0  0  0  0  0  0  0  0  0
   59.3020   28.2948   43.5264 H   0  0  0  0  0  0  0  0  0  0  0  0
   57.3003   27.8123   44.9319 H   0  0  0  0  0  0  0  0  0  0  0  0
   57.2244   28.5659   47.3075 H   0  0  0  0  0  0  0  0  0  0  0  0
  1  2  2  0
  2  3  1  0
  3  4  1  0
  4  5  1  0
  5  6  2  0
  5  7  1  0
  7  8  2  3
  8  9  1  0
  9 10  2  0
 10 11  1  0
 11 12  2  0
 12 13  1  0
 13 14  2  0
  3 15  2  0
 15 16  1  0
 16 17  2  0
 17 18  1  0
 18 19  2  0
 19 20  1  0
 19 21  1  0
 21 22  2  0
 15 23  1  0
 23 24  1  0
 24 25  2  0
 25 26  1  0
 26 27  2  0
 27 28  1  0
 28 29  2  0
 29  2  1  0
 14  9  1  0
 22 16  1  0
 29 24  1  0
  4 30  1  0
  4 31  1  0
  8 32  1  0
 10 33  1  0
 11 34  1  0
 12 35  1  0
 13 36  1  0
 14 37  1  0
 17 38  1  0
 18 39  1  0
 21 40  1  0
 22 41  1  0
 23 42  1  0
 25 43  1  0
 26 44  1  0
 27 45  1  0
 28 46  1  0
M  END
>  <UniqueID>  (69) 
58

>  <SMILES>  (69) 
O=c1c(CC(=S)N=Cc2ccccc2)c(-c2ccc(F)cc2)[nH]c2ccccc12

>  <Energy>  (69) 
71.68981496480056

>  <Genealogy>  (69) 
O=c1c(CC(=S)N=Cc2ccccc2)c(-c2ccc(F)cc2)[nH]c2ccccc12 (3D coordinates assigned)
O=c1c(CC(=S)N=Cc2ccccc2)c(-c2ccc(F)cc2)[nH]c2ccccc12 (optimized conformer: 71.68981496480056 kcal/mol)

>  <smiles>  (69) 
O=c1c(CC(=S)N=Cc2ccccc2)c(-c2ccc(F)cc2)[nH]c2ccccc12

>  <score_type>  (69) 
oracle

>  <origin>  (69) 
adg

>  <m_score__min__energy>  (69) 
-8.75

>  <m_primary>  (69) 
energy

$$$$
70:0
     RDKit          3D

 38 39  0  0  0  0  0  0  0  0999 V2000
   64.1510   33.4620   48.8660 C   0  0  0  0  0  0  0  0  0  0  0  0
   62.6700   33.5780   48.8800 C   0  0  0  0  0  0  0  0  0  0  0  0
   62.0680   33.6630   50.1260 C   0  0  0  0  0  0  0  0  0  0  0  0
   60.7040   33.7720   50.1990 C   0  0  0  0  0  0  0  0  0  0  0  0
   59.9420   33.7990   49.0430 C   0  0  0  0  0  0  0  0  0  0  0  0
   60.5610   33.7130   47.7860 C   0  0  0  0  0  0  0  0  0  0  0  0
   59.6620   33.7490   46.6430 C   0  0  0  0  0  0  0  0  0  0  0  0
   59.3020   34.8790   46.2250 O   0  0  0  0  0  0  0  0  0  0  0  0
   59.1700   32.6150   45.9720 N   0  0  0  0  0  0  0  0  0  0  0  0
   58.1190   32.8640   44.6200 S   0  0  0  0  0  0  0  0  0  0  0  0
   58.8920   33.6880   43.6180 O   0  0  0  0  0  0  0  0  0  0  0  0
   56.9450   33.6560   45.1160 O   0  0  0  0  0  0  0  0  0  0  0  0
   57.5530   31.3830   43.9420 C   0  0  0  0  0  0  0  0  0  0  0  0
   57.1230   31.0610   42.6740 C   0  0  0  0  0  0  0  0  0  0  0  0
   57.0450   31.9720   41.5070 C   0  0  0  0  0  0  0  0  0  0  0  0
   56.7680   29.7510   42.6380 N   0  0  0  0  0  0  0  0  0  0  0  0
   56.9650   29.2300   43.8590 N   0  0  0  0  0  0  0  0  0  0  0  0
   57.4380   30.1910   44.6600 C   0  0  0  0  0  0  0  0  0  0  0  0
   57.7690   29.9760   46.0940 C   0  0  0  0  0  0  0  0  0  0  0  0
   61.9250   33.6030   47.7000 C   0  0  0  0  0  0  0  0  0  0  0  0
   62.5730   33.5140   46.3780 C   0  0  0  0  0  0  0  0  0  0  0  0
   64.5263   33.4326   49.8996 H   0  0  0  0  0  0  0  0  0  0  0  0
   64.4415   32.5384   48.3440 H   0  0  0  0  0  0  0  0  0  0  0  0
   64.5818   34.3292   48.3440 H   0  0  0  0  0  0  0  0  0  0  0  0
   62.6762   33.6432   51.0423 H   0  0  0  0  0  0  0  0  0  0  0  0
   60.2120   33.8384   51.1806 H   0  0  0  0  0  0  0  0  0  0  0  0
   58.8477   33.8882   49.1100 H   0  0  0  0  0  0  0  0  0  0  0  0
   59.4510   31.6700   46.3130 H   0  0  0  0  0  0  0  0  0  0  0  0
   56.9561   33.0107   41.8580 H   0  0  0  0  0  0  0  0  0  0  0  0
   57.9554   31.8672   40.8986 H   0  0  0  0  0  0  0  0  0  0  0  0
   56.1657   31.7140   40.8986 H   0  0  0  0  0  0  0  0  0  0  0  0
   56.7570   28.2230   44.0670 H   0  0  0  0  0  0  0  0  0  0  0  0
   57.0121   30.4677   46.7227 H   0  0  0  0  0  0  0  0  0  0  0  0
   57.7806   28.8975   46.3099 H   0  0  0  0  0  0  0  0  0  0  0  0
   58.7591   30.4039   46.3099 H   0  0  0  0  0  0  0  0  0  0  0  0
   63.6550   33.3654   46.5093 H   0  0  0  0  0  0  0  0  0  0  0  0
   62.1514   32.6653   45.8194 H   0  0  0  0  0  0  0  0  0  0  0  0
   62.3959   34.4449   45.8194 H   0  0  0  0  0  0  0  0  0  0  0  0
  1  2  1  0
  2  3  2  0
  3  4  1  0
  4  5  2  0
  5  6  1  0
  6  7  1  0
  7  8  2  0
  7  9  1  0
  9 10  1  0
 10 11  2  0
 10 12  2  0
 10 13  1  0
 13 14  1  0
 14 15  1  0
 14 16  2  0
 16 17  1  0
 17 18  1  0
 18 19  1  0
  6 20  2  0
 20 21  1  0
 20  2  1  0
 18 13  2  0
  1 22  1  0
  1 23  1  0
  1 24  1  0
  3 25  1  0
  4 26  1  0
  5 27  1  0
  9 28  1  0
 15 29  1  0
 15 30  1  0
 15 31  1  0
 17 32  1  0
 19 33  1  0
 19 34  1  0
 19 35  1  0
 21 36  1  0
 21 37  1  0
 21 38  1  0
M  END
>  <smiles>  (70) 
Cc1cccc(C(=O)NS(=O)(=O)c2c(C)n[nH]c2C)c1C

>  <score_type>  (70) 
oracle

>  <origin>  (70) 
adg

>  <m_score__min__energy>  (70) 
-8.1899999999999995

>  <m_primary>  (70) 
energy

$$$$
71:0
     RDKit          3D

 37 40  0  0  0  0  0  0  0  0999 V2000
   57.3390   23.3350   46.3180 H   0  0  0  0  0  0  0  0  0  0  0  0
   57.8850   24.0350   46.8070 O   0  0  0  0  0  0  0  0  0  0  0  0
   57.9580   25.3480   46.3520 C   0  0  0  0  0  0  0  0  0  0  0  0
   59.2270   25.9600   46.2000 C   0  0  0  0  0  0  0  0  0  0  0  0
   60.1370   25.3911   46.4413 H   0  0  0  0  0  0  0  0  0  0  0  0
   59.3370   27.2870   45.7440 C   0  0  0  0  0  0  0  0  0  0  0  0
   60.3157   27.7743   45.6228 H   0  0  0  0  0  0  0  0  0  0  0  0
   58.1530   27.9530   45.4540 C   0  0  0  0  0  0  0  0  0  0  0  0
   56.9090   27.3760   45.5960 C   0  0  0  0  0  0  0  0  0  0  0  0
   55.9100   28.2400   45.2470 N   0  0  0  0  0  0  0  0  0  0  0  0
   56.6450   29.3250   44.9040 C   0  0  0  0  0  0  0  0  0  0  0  0
   56.2440   30.5310   44.4630 N   0  0  0  0  0  0  0  0  0  0  0  0
   57.4470   31.1670   44.2990 C   0  0  0  0  0  0  0  0  0  0  0  0
   57.5940   32.5520   43.8210 C   0  0  0  0  0  0  0  0  0  0  0  0
   57.8152   32.7299   42.7582 H   0  0  0  0  0  0  0  0  0  0  0  0
   57.4660   33.6020   44.6440 C   0  0  0  0  0  0  0  0  0  0  0  0
   56.7457   34.3879   44.3729 H   0  0  0  0  0  0  0  0  0  0  0  0
   58.2390   33.7660   45.8990 C   0  0  0  0  0  0  0  0  0  0  0  0
   58.0290   32.9530   47.0310 C   0  0  0  0  0  0  0  0  0  0  0  0
   57.2602   32.1667   47.0038 H   0  0  0  0  0  0  0  0  0  0  0  0
   58.7910   33.1390   48.1880 C   0  0  0  0  0  0  0  0  0  0  0  0
   58.6133   32.5027   49.0675 H   0  0  0  0  0  0  0  0  0  0  0  0
   59.7840   34.1350   48.2350 C   0  0  0  0  0  0  0  0  0  0  0  0
   60.5730   34.3600   49.3720 O   0  0  0  0  0  0  0  0  0  0  0  0
   61.9900   34.2190   49.4080 C   0  0  0  0  0  0  0  0  0  0  0  0
   62.3287   34.1853   50.4540 H   0  0  0  0  0  0  0  0  0  0  0  0
   62.2789   33.2877   48.8989 H   0  0  0  0  0  0  0  0  0  0  0  0
   62.4567   35.0751   48.8989 H   0  0  0  0  0  0  0  0  0  0  0  0
   60.0020   34.9310   47.1050 C   0  0  0  0  0  0  0  0  0  0  0  0
   60.7784   35.7098   47.1288 H   0  0  0  0  0  0  0  0  0  0  0  0
   59.2430   34.7460   45.9470 C   0  0  0  0  0  0  0  0  0  0  0  0
   59.4338   35.3742   45.0644 H   0  0  0  0  0  0  0  0  0  0  0  0
   58.5190   30.3330   44.6420 C   0  0  0  0  0  0  0  0  0  0  0  0
   59.5928   30.5695   44.6112 H   0  0  0  0  0  0  0  0  0  0  0  0
   57.9460   29.1890   45.0140 N   0  0  0  0  0  0  0  0  0  0  0  0
   56.7770   26.0640   46.0470 C   0  0  0  0  0  0  0  0  0  0  0  0
   55.7862   25.6002   46.1621 H   0  0  0  0  0  0  0  0  0  0  0  0
  1  2  1  0
  2  3  1  0
  3  4  2  0
  4  5  1  0
  4  6  1  0
  6  7  1  0
  6  8  2  0
  8  9  1  0
  9 10  1  0
 10 11  1  0
 11 12  2  0
 12 13  1  0
 13 14  1  0
 14 15  1  0
 14 16  2  0
 16 17  1  0
 16 18  1  0
 18 19  2  0
 19 20  1  0
 19 21  1  0
 21 22  1  0
 21 23  2  0
 23 24  1  0
 24 25  1  0
 25 26  1  0
 25 27  1  0
 25 28  1  0
 23 29  1  0
 29 30  1  0
 29 31  2  0
 31 32  1  0
 13 33  2  0
 33 34  1  0
 33 35  1  0
  9 36  2  0
 36 37  1  0
 36  3  1  0
 35  8  1  0
 35 11  1  0
 31 18  1  0
M  CHG  1  10  -1
M  END
>  <UniqueID>  (71) 
59

>  <SMILES>  (71) 
COc1ccc(/C=C/c2cn3c(n2)[n-]c2cc(O)ccc23)cc1

>  <Energy>  (71) 
136.373825619098

>  <Genealogy>  (71) 
COc1ccc(C=Cc2cn3c(n2)[n-]c2cc(O)ccc23)cc1 (protonated)
COc1ccc(/C=C/c2cn3c(n2)[n-]c2cc(O)ccc23)cc1 (cis-trans isomerization)
COc1ccc(/C=C/c2cn3c(n2)[n-]c2cc(O)ccc23)cc1 (3D coordinates assigned)
COc1ccc(/C=C/c2cn3c(n2)[n-]c2cc(O)ccc23)cc1 (optimized conformer: 136.373825619098 kcal/mol)

>  <smiles>  (71) 
COc1ccc(C=Cc2cn3c(n2)[nH]c2cc(O)ccc23)cc1

>  <score_type>  (71) 
oracle

>  <origin>  (71) 
adg

>  <m_score__min__energy>  (71) 
-9.4600000000000009

>  <m_primary>  (71) 
energy

$$$$
72:0
     RDKit          3D

 56 59  0  0  0  0  0  0  0  0999 V2000
   55.0470   29.3020   53.2000 C   0  0  0  0  0  0  0  0  0  0  0  0
   56.1980   29.1740   52.3700 O   0  0  0  0  0  0  0  0  0  0  0  0
   57.0480   30.2360   52.0250 C   0  0  0  0  0  0  0  0  0  0  0  0
   58.3150   30.0310   51.4440 C   0  0  0  0  0  0  0  0  0  0  0  0
   59.1250   31.1220   51.1190 C   0  0  0  0  0  0  0  0  0  0  0  0
   58.6910   32.4310   51.3790 C   0  0  0  0  0  0  0  0  0  0  0  0
   59.5450   33.6050   50.9880 C   0  0  0  0  0  0  0  0  0  0  0  0
   59.6450   33.6810   49.5360 N   0  0  0  0  0  0  0  0  0  0  0  0
   58.9130   32.9940   48.6430 C   0  0  0  0  0  0  0  0  0  0  0  0
   59.2930   33.4570   47.3970 C   0  0  0  0  0  0  0  0  0  0  0  0
   58.7780   33.0290   46.0740 C   0  0  0  0  0  0  0  0  0  0  0  0
   58.8490   33.8760   44.9600 C   0  0  0  0  0  0  0  0  0  0  0  0
   58.3840   33.4490   43.7190 C   0  0  0  0  0  0  0  0  0  0  0  0
   57.8230   32.1710   43.5580 C   0  0  0  0  0  0  0  0  0  0  0  0
   57.3940   31.7550   42.1760 C   0  0  0  0  0  0  0  0  0  0  0  0
   57.6840   31.3240   44.6910 C   0  0  0  0  0  0  0  0  0  0  0  0
   56.9520   29.6940   44.5900 S   0  0  0  0  0  0  0  0  0  0  0  0
   55.4770   29.7680   44.8710 O   0  0  0  0  0  0  0  0  0  0  0  0
   57.1380   29.1790   43.1900 O   0  0  0  0  0  0  0  0  0  0  0  0
   57.6060   28.5440   45.7370 N   0  0  0  0  0  0  0  0  0  0  0  0
   59.0770   28.5080   45.7060 C   0  0  0  0  0  0  0  0  0  0  0  0
   59.6150   27.7540   46.9350 C   0  0  0  0  0  0  0  0  0  0  0  0
   58.6890   26.6050   47.3800 C   0  0  0  0  0  0  0  0  0  0  0  0
   57.8390   26.0840   46.2170 C   0  0  0  0  0  0  0  0  0  0  0  0
   56.9700   27.2120   45.6240 C   0  0  0  0  0  0  0  0  0  0  0  0
   58.2070   31.7560   45.9230 C   0  0  0  0  0  0  0  0  0  0  0  0
   60.2310   34.4120   47.5770 N   0  0  0  0  0  0  0  0  0  0  0  0
   60.4200   34.5320   48.8830 N   0  0  0  0  0  0  0  0  0  0  0  0
   57.4220   32.6350   51.9420 C   0  0  0  0  0  0  0  0  0  0  0  0
   56.6110   31.5440   52.2670 C   0  0  0  0  0  0  0  0  0  0  0  0
   55.3512   29.2682   54.2565 H   0  0  0  0  0  0  0  0  0  0  0  0
   54.5498   30.2610   52.9921 H   0  0  0  0  0  0  0  0  0  0  0  0
   54.3513   28.4757   52.9921 H   0  0  0  0  0  0  0  0  0  0  0  0
   58.6678   29.0082   51.2455 H   0  0  0  0  0  0  0  0  0  0  0  0
   60.1088   30.9539   50.6565 H   0  0  0  0  0  0  0  0  0  0  0  0
   59.0911   34.5306   51.3717 H   0  0  0  0  0  0  0  0  0  0  0  0
   60.5510   33.4806   51.4153 H   0  0  0  0  0  0  0  0  0  0  0  0
   58.1627   32.2194   48.8596 H   0  0  0  0  0  0  0  0  0  0  0  0
   59.2748   34.8846   45.0666 H   0  0  0  0  0  0  0  0  0  0  0  0
   58.4569   34.1221   42.8520 H   0  0  0  0  0  0  0  0  0  0  0  0
   56.6062   30.9910   42.2511 H   0  0  0  0  0  0  0  0  0  0  0  0
   57.0060   32.6298   41.6336 H   0  0  0  0  0  0  0  0  0  0  0  0
   58.2565   31.3402   41.6336 H   0  0  0  0  0  0  0  0  0  0  0  0
   59.4089   27.9955   44.7910 H   0  0  0  0  0  0  0  0  0  0  0  0
   59.4621   29.5383   45.7194 H   0  0  0  0  0  0  0  0  0  0  0  0
   60.6014   27.3351   46.6869 H   0  0  0  0  0  0  0  0  0  0  0  0
   59.6756   28.4727   47.7656 H   0  0  0  0  0  0  0  0  0  0  0  0
   59.3045   25.7808   47.7697 H   0  0  0  0  0  0  0  0  0  0  0  0
   58.0114   26.9899   48.1563 H   0  0  0  0  0  0  0  0  0  0  0  0
   58.5030   25.6906   45.4332 H   0  0  0  0  0  0  0  0  0  0  0  0
   57.1769   25.2900   46.5928 H   0  0  0  0  0  0  0  0  0  0  0  0
   56.7919   26.9964   44.5601 H   0  0  0  0  0  0  0  0  0  0  0  0
   56.0310   27.2431   46.1961 H   0  0  0  0  0  0  0  0  0  0  0  0
   58.1675   31.0795   46.7895 H   0  0  0  0  0  0  0  0  0  0  0  0
   57.0638   33.6582   52.1284 H   0  0  0  0  0  0  0  0  0  0  0  0
   55.6216   31.7144   52.7165 H   0  0  0  0  0  0  0  0  0  0  0  0
  1  2  1  0
  2  3  1  0
  3  4  2  0
  4  5  1  0
  5  6  2  0
  6  7  1  0
  7  8  1  0
  8  9  1  0
  9 10  2  0
 10 11  1  0
 11 12  2  0
 12 13  1  0
 13 14  2  0
 14 15  1  0
 14 16  1  0
 16 17  1  0
 17 18  2  0
 17 19  2  0
 17 20  1  0
 20 21  1  0
 21 22  1  0
 22 23  1  0
 23 24  1  0
 24 25  1  0
 16 26  2  0
 10 27  1  0
 27 28  2  0
  6 29  1  0
 29 30  2  0
 30  3  1  0
 28  8  1  0
 26 11  1  0
 25 20  1  0
  1 31  1  0
  1 32  1  0
  1 33  1  0
  4 34  1  0
  5 35  1  0
  7 36  1  0
  7 37  1  0
  9 38  1  0
 12 39  1  0
 13 40  1  0
 15 41  1  0
 15 42  1  0
 15 43  1  0
 21 44  1  0
 21 45  1  0
 22 46  1  0
 22 47  1  0
 23 48  1  0
 23 49  1  0
 24 50  1  0
 24 51  1  0
 25 52  1  0
 25 53  1  0
 26 54  1  0
 29 55  1  0
 30 56  1  0
M  END
>  <UniqueID>  (72) 
60

>  <SMILES>  (72) 
COc1ccc(Cn2cc(-c3ccc(C)c(S(=O)(=O)N4CCCCC4)c3)nn2)cc1

>  <Energy>  (72) 
102.15138367774338

>  <Genealogy>  (72) 
COc1ccc(Cn2cc(-c3ccc(C)c(S(=O)(=O)N4CCCCC4)c3)nn2)cc1 (3D coordinates assigned)
COc1ccc(Cn2cc(-c3ccc(C)c(S(=O)(=O)N4CCCCC4)c3)nn2)cc1 (nonaromatic ring conformer: 102.15138367774338 kcal/mol)

>  <smiles>  (72) 
COc1ccc(Cn2cc(-c3ccc(C)c(S(=O)(=O)N4CCCCC4)c3)nn2)cc1

>  <score_type>  (72) 
oracle

>  <origin>  (72) 
adg

>  <m_score__min__energy>  (72) 
-10.58

>  <m_primary>  (72) 
energy

$$$$
73:0
     RDKit          3D

 40 41  0  0  0  0  0  0  0  0999 V2000
   59.2580   34.9670   45.2060 C   0  0  0  0  0  0  0  0  0  0  0  0
   58.5100   33.8380   44.5050 C   0  0  0  0  0  0  0  0  0  0  0  0
   57.9300   32.9150   45.4910 N   0  0  0  0  0  0  0  0  0  0  0  0
   57.4900   33.4100   46.8020 C   0  0  0  0  0  0  0  0  0  0  0  0
   58.5400   33.1100   47.8670 C   0  0  0  0  0  0  0  0  0  0  0  0
   57.7920   31.5160   45.1680 C   0  0  0  0  0  0  0  0  0  0  0  0
   56.8140   31.0920   44.2560 C   0  0  0  0  0  0  0  0  0  0  0  0
   56.6780   29.7370   43.9440 C   0  0  0  0  0  0  0  0  0  0  0  0
   57.5300   28.7840   44.5290 C   0  0  0  0  0  0  0  0  0  0  0  0
   57.3960   27.3810   44.2400 N   0  0  0  0  0  0  0  0  0  0  0  0
   57.2130   26.3720   45.2470 C   0  0  0  0  0  0  0  0  0  0  0  0
   56.7540   26.6940   46.3780 O   0  0  0  0  0  0  0  0  0  0  0  0
   57.5090   24.9470   44.9600 C   0  0  0  0  0  0  0  0  0  0  0  0
   58.5530   24.2760   45.6250 C   0  0  0  0  0  0  0  0  0  0  0  0
   58.8180   22.9310   45.3520 C   0  0  0  0  0  0  0  0  0  0  0  0
   58.0440   22.2400   44.4180 C   0  0  0  0  0  0  0  0  0  0  0  0
   56.9990   22.8910   43.7580 C   0  0  0  0  0  0  0  0  0  0  0  0
   56.7290   24.2350   44.0280 C   0  0  0  0  0  0  0  0  0  0  0  0
   58.4940   29.2080   45.4560 C   0  0  0  0  0  0  0  0  0  0  0  0
   58.6280   30.5630   45.7690 C   0  0  0  0  0  0  0  0  0  0  0  0
   59.1745   34.8410   46.2956 H   0  0  0  0  0  0  0  0  0  0  0  0
   60.3182   34.9411   44.9140 H   0  0  0  0  0  0  0  0  0  0  0  0
   58.8208   35.9332   44.9140 H   0  0  0  0  0  0  0  0  0  0  0  0
   57.7036   34.2648   43.8905 H   0  0  0  0  0  0  0  0  0  0  0  0
   59.2168   33.2829   43.8707 H   0  0  0  0  0  0  0  0  0  0  0  0
   57.3334   34.4973   46.7443 H   0  0  0  0  0  0  0  0  0  0  0  0
   56.5517   32.9054   47.0758 H   0  0  0  0  0  0  0  0  0  0  0  0
   58.0962   33.2368   48.8655 H   0  0  0  0  0  0  0  0  0  0  0  0
   58.8938   32.0748   47.7518 H   0  0  0  0  0  0  0  0  0  0  0  0
   59.3873   33.8020   47.7518 H   0  0  0  0  0  0  0  0  0  0  0  0
   56.1501   31.8310   43.7836 H   0  0  0  0  0  0  0  0  0  0  0  0
   55.8999   29.4140   43.2367 H   0  0  0  0  0  0  0  0  0  0  0  0
   57.3120   27.0950   43.2380 H   0  0  0  0  0  0  0  0  0  0  0  0
   59.1643   24.8140   46.3645 H   0  0  0  0  0  0  0  0  0  0  0  0
   59.6379   22.4161   45.8741 H   0  0  0  0  0  0  0  0  0  0  0  0
   58.2570   21.1827   44.2017 H   0  0  0  0  0  0  0  0  0  0  0  0
   56.3878   22.3447   43.0246 H   0  0  0  0  0  0  0  0  0  0  0  0
   55.9014   24.7407   43.5090 H   0  0  0  0  0  0  0  0  0  0  0  0
   59.1489   28.4684   45.9398 H   0  0  0  0  0  0  0  0  0  0  0  0
   59.3933   30.8845   46.4908 H   0  0  0  0  0  0  0  0  0  0  0  0
  1  2  1  0
  2  3  1  0
  3  4  1  0
  4  5  1  0
  3  6  1  0
  6  7  2  0
  7  8  1  0
  8  9  2  0
  9 10  1  0
 10 11  1  0
 11 12  2  0
 11 13  1  0
 13 14  2  0
 14 15  1  0
 15 16  2  0
 16 17  1  0
 17 18  2  0
  9 19  1  0
 19 20  2  0
 20  6  1  0
 18 13  1  0
  1 21  1  0
  1 22  1  0
  1 23  1  0
  2 24  1  0
  2 25  1  0
  4 26  1  0
  4 27  1  0
  5 28  1  0
  5 29  1  0
  5 30  1  0
  7 31  1  0
  8 32  1  0
 10 33  1  0
 14 34  1  0
 15 35  1  0
 16 36  1  0
 17 37  1  0
 18 38  1  0
 19 39  1  0
 20 40  1  0
M  END
>  <UniqueID>  (73) 
61

>  <SMILES>  (73) 
CCN(CC)c1ccc(NC(=O)c2ccccc2)cc1

>  <Energy>  (73) 
43.01789623257417

>  <Genealogy>  (73) 
CCN(CC)c1ccc(NC(=O)c2ccccc2)cc1 (3D coordinates assigned)
CCN(CC)c1ccc(NC(=O)c2ccccc2)cc1 (optimized conformer: 43.01789623257417 kcal/mol)

>  <smiles>  (73) 
CCN(CC)c1ccc(NC(=O)c2ccccc2)cc1

>  <score_type>  (73) 
oracle

>  <origin>  (73) 
adg

>  <m_score__min__energy>  (73) 
-6.6299999999999999

>  <m_primary>  (73) 
energy

$$$$
74:0
     RDKit          3D

 46 51  0  0  0  0  0  0  0  0999 V2000
   56.4770   24.3690   44.7470 C   0  0  0  0  0  0  0  0  0  0  0  0
   55.4090   24.7020   45.5530 C   0  0  0  0  0  0  0  0  0  0  0  0
   55.6320   25.8870   46.1480 N   0  0  0  0  0  0  0  0  0  0  0  0
   56.8400   26.3200   45.7310 C   0  0  0  0  0  0  0  0  0  0  0  0
   57.4650   27.5990   46.1580 C   0  0  0  0  0  0  0  0  0  0  0  0
   58.3320   27.6400   47.2530 C   0  0  0  0  0  0  0  0  0  0  0  0
   58.9460   28.8360   47.6700 C   0  0  0  0  0  0  0  0  0  0  0  0
   58.5850   30.0700   47.0300 C   0  0  0  0  0  0  0  0  0  0  0  0
   58.9780   31.3690   47.4910 C   0  0  0  0  0  0  0  0  0  0  0  0
   58.8300   32.4910   46.6230 C   0  0  0  0  0  0  0  0  0  0  0  0
   59.4160   33.7450   46.9170 C   0  0  0  0  0  0  0  0  0  0  0  0
   59.2350   34.8370   46.0660 C   0  0  0  0  0  0  0  0  0  0  0  0
   58.4790   34.7010   44.9030 C   0  0  0  0  0  0  0  0  0  0  0  0
   57.9130   33.4690   44.5790 C   0  0  0  0  0  0  0  0  0  0  0  0
   58.0960   32.3590   45.4220 C   0  0  0  0  0  0  0  0  0  0  0  0
   57.5420   31.1300   45.0780 C   0  0  0  0  0  0  0  0  0  0  0  0
   57.7850   29.9930   45.8550 C   0  0  0  0  0  0  0  0  0  0  0  0
   57.2260   28.7740   45.4450 C   0  0  0  0  0  0  0  0  0  0  0  0
   59.3790   31.6100   48.9100 C   0  0  0  0  0  0  0  0  0  0  0  0
   58.6670   32.5520   49.6800 C   0  0  0  0  0  0  0  0  0  0  0  0
   59.0650   32.8510   50.9850 C   0  0  0  0  0  0  0  0  0  0  0  0
   60.1650   32.2020   51.5460 C   0  0  0  0  0  0  0  0  0  0  0  0
   60.8530   31.2370   50.8100 C   0  0  0  0  0  0  0  0  0  0  0  0
   60.4650   30.9380   49.4910 C   0  0  0  0  0  0  0  0  0  0  0  0
   61.0650   29.7720   48.7800 C   0  0  0  0  0  0  0  0  0  0  0  0
   60.0160   28.6640   48.7380 C   0  0  0  0  0  0  0  0  0  0  0  0
   57.3910   25.3960   44.8570 C   0  0  0  0  0  0  0  0  0  0  0  0
   56.5800   23.4607   44.1351 H   0  0  0  0  0  0  0  0  0  0  0  0
   54.5065   24.0880   45.6893 H   0  0  0  0  0  0  0  0  0  0  0  0
   54.9890   26.3560   46.8240 H   0  0  0  0  0  0  0  0  0  0  0  0
   58.5406   26.7115   47.8047 H   0  0  0  0  0  0  0  0  0  0  0  0
   60.0219   33.8610   47.8277 H   0  0  0  0  0  0  0  0  0  0  0  0
   59.6902   35.8072   46.3141 H   0  0  0  0  0  0  0  0  0  0  0  0
   58.3289   35.5662   44.2405 H   0  0  0  0  0  0  0  0  0  0  0  0
   57.3198   33.3648   43.6585 H   0  0  0  0  0  0  0  0  0  0  0  0
   56.9054   31.0518   44.1844 H   0  0  0  0  0  0  0  0  0  0  0  0
   56.5898   28.7439   44.5481 H   0  0  0  0  0  0  0  0  0  0  0  0
   57.7896   33.0564   49.2490 H   0  0  0  0  0  0  0  0  0  0  0  0
   58.5106   33.5989   51.5709 H   0  0  0  0  0  0  0  0  0  0  0  0
   60.4895   32.4507   52.5672 H   0  0  0  0  0  0  0  0  0  0  0  0
   61.7036   30.7069   51.2634 H   0  0  0  0  0  0  0  0  0  0  0  0
   61.3456   30.0612   47.7565 H   0  0  0  0  0  0  0  0  0  0  0  0
   61.9696   29.4265   49.3018 H   0  0  0  0  0  0  0  0  0  0  0  0
   60.5329   27.7107   48.5536 H   0  0  0  0  0  0  0  0  0  0  0  0
   59.4942   28.6958   49.7059 H   0  0  0  0  0  0  0  0  0  0  0  0
   58.3651   25.4677   44.3510 H   0  0  0  0  0  0  0  0  0  0  0  0
  1  2  2  0
  2  3  1  0
  3  4  1  0
  4  5  1  0
  5  6  2  0
  6  7  1  0
  7  8  2  0
  8  9  1  0
  9 10  2  0
 10 11  1  0
 11 12  2  0
 12 13  1  0
 13 14  2  0
 14 15  1  0
 15 16  2  0
 16 17  1  0
 17 18  2  0
  9 19  1  0
 19 20  2  0
 20 21  1  0
 21 22  2  0
 22 23  1  0
 23 24  2  0
 24 25  1  0
 25 26  1  0
  4 27  2  0
 27  1  1  0
 18  5  1  0
 24 19  1  0
 26  7  1  0
 17  8  1  0
 15 10  1  0
  1 28  1  0
  2 29  1  0
  3 30  1  0
  6 31  1  0
 11 32  1  0
 12 33  1  0
 13 34  1  0
 14 35  1  0
 16 36  1  0
 18 37  1  0
 20 38  1  0
 21 39  1  0
 22 40  1  0
 23 41  1  0
 25 42  1  0
 25 43  1  0
 26 44  1  0
 26 45  1  0
 27 46  1  0
M  END
>  <UniqueID>  (74) 
62

>  <SMILES>  (74) 
c1c[nH]c(-c2cc3c4c(c5ccccc5cc4c2)-c2ccccc2CC3)c1

>  <Energy>  (74) 
115.27114009416711

>  <Genealogy>  (74) 
c1c[nH]c(-c2cc3c4c(c5ccccc5cc4c2)-c2ccccc2CC3)c1 (3D coordinates assigned)
c1c[nH]c(-c2cc3c4c(c5ccccc5cc4c2)-c2ccccc2CC3)c1 (nonaromatic ring conformer: 115.27114009416711 kcal/mol)

>  <smiles>  (74) 
c1c[nH]c(-c2cc3c4c(c5ccccc5cc4c2)-c2ccccc2CC3)c1

>  <score_type>  (74) 
oracle

>  <origin>  (74) 
adg

>  <m_score__min__energy>  (74) 
-8.2300000000000004

>  <m_primary>  (74) 
energy

$$$$
75:0
     RDKit          3D

 20 21  0  0  0  0  0  0  0  0999 V2000
   56.6110   30.3550   42.7710 C   0  0  0  0  0  0  0  0  0  0  0  0
   57.3880   30.7510   43.7870 C   0  0  0  0  0  0  0  0  0  0  0  0
   57.3960   32.0970   44.2010 C   0  0  0  0  0  0  0  0  0  0  0  0
   58.0950   32.3260   45.3770 C   0  0  0  0  0  0  0  0  0  0  0  0
   58.7210   30.8620   45.9010 S   0  0  0  0  0  0  0  0  0  0  0  0
   58.1520   29.9140   44.6320 C   0  0  0  0  0  0  0  0  0  0  0  0
   58.4510   28.6060   44.5390 C   0  0  0  0  0  0  0  0  0  0  0  0
   57.7640   27.5150   45.2490 C   0  0  0  0  0  0  0  0  0  0  0  0
   58.5170   26.1960   45.9940 S   0  0  0  0  0  0  0  0  0  0  0  0
   57.0870   25.6670   46.7000 C   0  0  0  0  0  0  0  0  0  0  0  0
   56.9860   24.6420   47.4240 O   0  0  0  0  0  0  0  0  0  0  0  0
   56.0480   26.4790   46.4140 N   0  0  0  0  0  0  0  0  0  0  0  0
   56.4240   27.5190   45.6260 C   0  0  0  0  0  0  0  0  0  0  0  0
   55.5290   28.5080   45.2370 O   0  0  0  0  0  0  0  0  0  0  0  0
   56.6125   29.3011   42.4558 H   0  0  0  0  0  0  0  0  0  0  0  0
   55.9712   31.0835   42.2515 H   0  0  0  0  0  0  0  0  0  0  0  0
   56.8915   32.8976   43.6402 H   0  0  0  0  0  0  0  0  0  0  0  0
   58.2171   33.2977   45.8778 H   0  0  0  0  0  0  0  0  0  0  0  0
   59.2817   28.3272   43.8741 H   0  0  0  0  0  0  0  0  0  0  0  0
   55.0760   26.3370   46.7700 H   0  0  0  0  0  0  0  0  0  0  0  0
  1  2  2  0
  2  3  1  0
  3  4  2  0
  4  5  1  0
  5  6  1  0
  6  7  2  3
  7  8  1  0
  8  9  1  0
  9 10  1  0
 10 11  2  0
 10 12  1  0
 12 13  1  0
 13 14  1  0
  6  2  1  0
 13  8  2  0
  1 15  1  0
  1 16  1  0
  3 17  1  0
  4 18  1  0
  7 19  1  0
 12 20  1  0
M  CHG  1  14  -1
M  END
>  <UniqueID>  (75) 
63

>  <SMILES>  (75) 
C=c1ccsc1=Cc1sc(=O)[nH]c1[O-]

>  <Energy>  (75) 
90.82256378113327

>  <Genealogy>  (75) 
C=c1ccsc1=Cc1sc(=O)[nH]c1[O-] (protonated)
C=c1ccsc1=Cc1sc(=O)[nH]c1[O-] (3D coordinates assigned)
C=c1ccsc1=Cc1sc(=O)[nH]c1[O-] (optimized conformer: 90.82256378113327 kcal/mol)

>  <smiles>  (75) 
C=c1ccsc1=Cc1sc(=O)[nH]c1O

>  <score_type>  (75) 
oracle

>  <origin>  (75) 
adg

>  <m_score__min__energy>  (75) 
-9.9100000000000001

>  <m_primary>  (75) 
energy

$$$$
76:0
     RDKit          3D

 29 31  0  0  0  0  0  0  0  0999 V2000
   55.1540   28.1370   44.8570 H   0  0  0  0  0  0  0  0  0  0  0  0
   55.1560   29.1510   44.6020 N   0  0  0  0  0  0  0  0  0  0  0  0
   56.2340   29.8600   44.6940 C   0  0  0  0  0  0  0  0  0  0  0  0
   56.2840   31.1990   44.4920 N   0  0  0  0  0  0  0  0  0  0  0  0
   57.5460   31.5800   44.6720 N   0  0  0  0  0  0  0  0  0  0  0  0
   57.9910   32.9700   44.6070 C   0  0  0  0  0  0  0  0  0  0  0  0
   58.7538   33.0714   43.8210 H   0  0  0  0  0  0  0  0  0  0  0  0
   57.1290   33.6136   44.3773 H   0  0  0  0  0  0  0  0  0  0  0  0
   58.5790   33.3870   45.9280 C   0  0  0  0  0  0  0  0  0  0  0  0
   59.4650   34.4750   45.9890 C   0  0  0  0  0  0  0  0  0  0  0  0
   59.7415   35.0089   45.0679 H   0  0  0  0  0  0  0  0  0  0  0  0
   59.9970   34.8820   47.2170 C   0  0  0  0  0  0  0  0  0  0  0  0
   60.6949   35.7312   47.2589 H   0  0  0  0  0  0  0  0  0  0  0  0
   59.6430   34.2110   48.3910 C   0  0  0  0  0  0  0  0  0  0  0  0
   60.0593   34.5345   49.3564 H   0  0  0  0  0  0  0  0  0  0  0  0
   58.7600   33.1290   48.3380 C   0  0  0  0  0  0  0  0  0  0  0  0
   58.4838   32.5998   49.2620 H   0  0  0  0  0  0  0  0  0  0  0  0
   58.2270   32.7180   47.1120 C   0  0  0  0  0  0  0  0  0  0  0  0
   57.5298   31.8680   47.0748 H   0  0  0  0  0  0  0  0  0  0  0  0
   58.2780   30.4940   44.9980 C   0  0  0  0  0  0  0  0  0  0  0  0
   57.4840   29.3870   45.0180 C   0  0  0  0  0  0  0  0  0  0  0  0
   57.9910   28.1320   45.3360 C   0  0  0  0  0  0  0  0  0  0  0  0
   57.3483   27.2394   45.3529 H   0  0  0  0  0  0  0  0  0  0  0  0
   59.3630   28.0560   45.6350 C   0  0  0  0  0  0  0  0  0  0  0  0
   59.8176   27.0877   45.8912 H   0  0  0  0  0  0  0  0  0  0  0  0
   60.1590   29.2270   45.6060 C   0  0  0  0  0  0  0  0  0  0  0  0
   61.2315   29.1629   45.8420 H   0  0  0  0  0  0  0  0  0  0  0  0
   59.6060   30.4380   45.2870 N   0  0  0  0  0  0  0  0  0  0  0  0
   60.2010   31.2940   45.2670 H   0  0  0  0  0  0  0  0  0  0  0  0
  1  2  1  0
  2  3  2  0
  3  4  1  0
  4  5  1  0
  5  6  1  0
  6  7  1  0
  6  8  1  0
  6  9  1  0
  9 10  2  0
 10 11  1  0
 10 12  1  0
 12 13  1  0
 12 14  2  0
 14 15  1  0
 14 16  1  0
 16 17  1  0
 16 18  2  0
 18 19  1  0
  5 20  1  0
 20 21  2  0
 21 22  1  0
 22 23  1  0
 22 24  2  0
 24 25  1  0
 24 26  1  0
 26 27  1  0
 26 28  2  0
 28 29  1  0
 21  3  1  0
 18  9  1  0
 28 20  1  0
M  CHG  2   4  -1  28   1
M  END
>  <UniqueID>  (76) 
64

>  <SMILES>  (76) 
[H]/N=c1\[n-]n(Cc2ccccc2)c2[nH+]cccc12

>  <Energy>  (76) 
72.17420724460897

>  <Genealogy>  (76) 
N=c1[n-]n(Cc2ccccc2)c2[nH+]cccc12 (protonated)
[H]/N=c1\[n-]n(Cc2ccccc2)c2[nH+]cccc12 (cis-trans isomerization)
[H]/N=c1\[n-]n(Cc2ccccc2)c2[nH+]cccc12 (3D coordinates assigned)
[H]/N=c1\[n-]n(Cc2ccccc2)c2[nH+]cccc12 (optimized conformer: 72.17420724460897 kcal/mol)

>  <smiles>  (76) 
N=c1[nH]n(Cc2ccccc2)c2ncccc12

>  <score_type>  (76) 
oracle

>  <origin>  (76) 
adg

>  <m_score__min__energy>  (76) 
-7.5700000000000003

>  <m_primary>  (76) 
energy

$$$$
77:0
     RDKit          3D

 41 44  0  0  1  0  0  0  0  0999 V2000
   57.7540   32.2810   42.2490 C   0  0  0  0  0  0  0  0  0  0  0  0
   57.5160   31.2170   43.2400 C   0  0  0  0  0  0  0  0  0  0  0  0
   57.9880   31.4320   44.5270 C   0  0  0  0  0  0  0  0  0  0  0  0
   57.7870   30.4620   45.4880 C   0  0  0  0  0  0  0  0  0  0  0  0
   57.1250   29.2710   45.2100 C   0  0  0  0  0  0  0  0  0  0  0  0
   56.9680   28.3380   46.2640 N   0  0  0  0  0  0  0  0  0  0  0  0
   56.8600   27.0620   46.0640 C   0  0  0  0  0  0  0  0  0  0  0  0
   55.6310   26.5170   45.9150 N   0  0  0  0  0  0  0  0  0  0  0  0
   55.4910   25.1860   45.7070 C   0  0  0  0  0  0  0  0  0  0  0  0
   56.5750   24.3620   45.6400 N   0  0  0  0  0  0  0  0  0  0  0  0
   57.8210   24.8730   45.7840 C   0  0  0  0  0  0  0  0  0  0  0  0
   57.9510   26.2190   45.9950 C   0  0  0  0  0  0  0  0  0  0  0  0
   59.2900   26.5040   46.1100 C   0  0  0  0  0  0  0  0  0  0  0  0
   59.9540   27.7840   46.3400 C   0  0  0  0  0  0  0  0  0  0  0  0
   60.5770   28.5010   45.3370 C   0  0  0  0  0  0  0  0  0  0  0  0
   61.1510   29.6690   45.6890 N   0  0  0  0  0  0  0  0  0  0  0  0
   61.1380   30.1520   46.9550 C   0  0  0  0  0  0  0  0  0  0  0  0
   60.5200   29.4610   47.9940 C   0  0  0  0  0  0  0  0  0  0  0  0
   59.9280   28.2610   47.6480 C   0  0  0  0  0  0  0  0  0  0  0  0
   59.3060   27.5410   48.6340 F   0  0  0  0  0  0  0  0  0  0  0  0
   59.9530   25.2920   45.9620 C   0  0  0  0  0  0  0  0  0  0  0  0
   59.0480   24.3240   45.7670 N   0  0  0  0  0  0  0  0  0  0  0  0
   59.3620   22.9320   45.5730 C   0  0  0  0  0  0  0  0  0  0  0  0
   56.6670   29.0690   43.9460 C   0  0  0  0  0  0  0  0  0  0  0  0
   56.8640   30.0360   42.9800 C   0  0  0  0  0  0  0  0  0  0  0  0
   57.9655   33.2265   42.7698 H   0  0  0  0  0  0  0  0  0  0  0  0
   58.6136   32.0094   41.6187 H   0  0  0  0  0  0  0  0  0  0  0  0
   56.8606   32.4015   41.6187 H   0  0  0  0  0  0  0  0  0  0  0  0
   58.5158   32.3639   44.7782 H   0  0  0  0  0  0  0  0  0  0  0  0
   58.1627   30.6366   46.5070 H   0  0  0  0  0  0  0  0  0  0  0  0
   54.7650   27.1140   45.9600 H   0  0  0  0  0  0  0  0  0  0  0  0
   54.4830   24.7616   45.5898 H   0  0  0  0  0  0  0  0  0  0  0  0
   60.6035   28.1360   44.2996 H   0  0  0  0  0  0  0  0  0  0  0  0
   61.6278   31.1138   47.1672 H   0  0  0  0  0  0  0  0  0  0  0  0
   60.5040   29.8457   49.0244 H   0  0  0  0  0  0  0  0  0  0  0  0
   61.0432   25.1505   45.9989 H   0  0  0  0  0  0  0  0  0  0  0  0
   59.4727   22.4413   46.5512 H   0  0  0  0  0  0  0  0  0  0  0  0
   58.5504   22.4481   45.0098 H   0  0  0  0  0  0  0  0  0  0  0  0
   60.3027   22.8434   45.0098 H   0  0  0  0  0  0  0  0  0  0  0  0
   56.1404   28.1369   43.6932 H   0  0  0  0  0  0  0  0  0  0  0  0
   56.4845   29.8537   41.9638 H   0  0  0  0  0  0  0  0  0  0  0  0
  1  2  1  0
  2  3  2  0
  3  4  1  0
  4  5  2  0
  5  6  1  0
  6  7  2  0
  7  8  1  0
  8  9  1  0
  9 10  2  0
 10 11  1  0
 11 12  2  0
 12 13  1  0
 13 14  1  0
 14 15  2  0
 15 16  1  0
 16 17  2  0
 17 18  1  0
 18 19  2  0
 19 20  1  0
 13 21  2  0
 21 22  1  0
 22 23  1  0
  5 24  1  0
 24 25  2  0
 25  2  1  0
 12  7  1  0
 19 14  1  0
 22 11  1  0
  1 26  1  0
  1 27  1  0
  1 28  1  0
  3 29  1  0
  4 30  1  0
  8 31  1  0
  9 32  1  0
 15 33  1  0
 17 34  1  0
 18 35  1  0
 21 36  1  0
 23 37  1  0
 23 38  1  0
 23 39  1  0
 24 40  1  0
 25 41  1  0
M  END
>  <smiles>  (77) 
Cc1ccc(N=c2[nH]cnc3c2c(-c2cnccc2F)cn3C)cc1

>  <score_type>  (77) 
oracle

>  <origin>  (77) 
adg

>  <m_score__min__energy>  (77) 
-7.2199999999999998

>  <m_primary>  (77) 
energy

$$$$
78:0
     RDKit          3D

 36 37  0  0  0  0  0  0  0  0999 V2000
   59.7530   34.5320   48.9340 C   0  0  0  0  0  0  0  0  0  0  0  0
   59.2130   33.9360   47.6670 C   0  0  0  0  0  0  0  0  0  0  0  0
   58.6120   32.6700   47.6810 C   0  0  0  0  0  0  0  0  0  0  0  0
   58.1440   32.0990   46.4950 C   0  0  0  0  0  0  0  0  0  0  0  0
   58.2710   32.7800   45.2720 C   0  0  0  0  0  0  0  0  0  0  0  0
   57.7630   32.1270   44.0410 C   0  0  0  0  0  0  0  0  0  0  0  0
   57.9140   30.8270   43.7690 C   0  0  0  0  0  0  0  0  0  0  0  0
   56.5280   29.7480   43.7710 S   0  0  0  0  0  0  0  0  0  0  0  0
   55.9380   29.6530   42.3920 O   0  0  0  0  0  0  0  0  0  0  0  0
   55.4980   30.2840   44.7240 O   0  0  0  0  0  0  0  0  0  0  0  0
   57.0160   28.1690   44.2970 N   0  0  0  0  0  0  0  0  0  0  0  0
   57.8340   27.9560   45.4600 C   0  0  0  0  0  0  0  0  0  0  0  0
   59.0290   28.6840   45.6140 C   0  0  0  0  0  0  0  0  0  0  0  0
   59.8820   28.4340   46.6900 C   0  0  0  0  0  0  0  0  0  0  0  0
   59.5620   27.4500   47.6210 C   0  0  0  0  0  0  0  0  0  0  0  0
   58.3800   26.7200   47.4890 C   0  0  0  0  0  0  0  0  0  0  0  0
   57.4960   26.9680   46.4230 C   0  0  0  0  0  0  0  0  0  0  0  0
   56.2190   26.2170   46.3790 C   0  0  0  0  0  0  0  0  0  0  0  0
   55.1910   26.7170   45.8480 O   0  0  0  0  0  0  0  0  0  0  0  0
   56.1240   24.9650   46.9760 O   0  0  0  0  0  0  0  0  0  0  0  0
   58.9060   34.0380   45.2590 C   0  0  0  0  0  0  0  0  0  0  0  0
   59.3740   34.6080   46.4470 C   0  0  0  0  0  0  0  0  0  0  0  0
   59.2970   34.0288   49.7994 H   0  0  0  0  0  0  0  0  0  0  0  0
   60.8445   34.3990   48.9657 H   0  0  0  0  0  0  0  0  0  0  0  0
   59.5133   35.6051   48.9657 H   0  0  0  0  0  0  0  0  0  0  0  0
   58.5083   32.1235   48.6300 H   0  0  0  0  0  0  0  0  0  0  0  0
   57.6712   31.1061   46.5185 H   0  0  0  0  0  0  0  0  0  0  0  0
   57.2299   32.7500   43.3077 H   0  0  0  0  0  0  0  0  0  0  0  0
   58.9143   30.4297   43.5421 H   0  0  0  0  0  0  0  0  0  0  0  0
   56.6740   27.3520   43.7450 H   0  0  0  0  0  0  0  0  0  0  0  0
   59.2933   29.4581   44.8785 H   0  0  0  0  0  0  0  0  0  0  0  0
   60.8088   29.0156   46.8025 H   0  0  0  0  0  0  0  0  0  0  0  0
   60.2417   27.2475   48.4619 H   0  0  0  0  0  0  0  0  0  0  0  0
   58.1366   25.9415   48.2271 H   0  0  0  0  0  0  0  0  0  0  0  0
   59.0344   34.5752   44.3077 H   0  0  0  0  0  0  0  0  0  0  0  0
   59.8712   35.5890   46.4243 H   0  0  0  0  0  0  0  0  0  0  0  0
  1  2  1  0
  2  3  2  0
  3  4  1  0
  4  5  2  0
  5  6  1  0
  6  7  2  3
  7  8  1  0
  8  9  2  0
  8 10  2  0
  8 11  1  0
 11 12  1  0
 12 13  2  0
 13 14  1  0
 14 15  2  0
 15 16  1  0
 16 17  2  0
 17 18  1  0
 18 19  2  0
 18 20  1  0
  5 21  1  0
 21 22  2  0
 22  2  1  0
 17 12  1  0
  1 23  1  0
  1 24  1  0
  1 25  1  0
  3 26  1  0
  4 27  1  0
  6 28  1  0
  7 29  1  0
 11 30  1  0
 13 31  1  0
 14 32  1  0
 15 33  1  0
 16 34  1  0
 21 35  1  0
 22 36  1  0
M  CHG  1  20  -1
M  END
>  <UniqueID>  (78) 
65

>  <SMILES>  (78) 
Cc1ccc(C=CS(=O)(=O)Nc2ccccc2C(=O)[O-])cc1

>  <Energy>  (78) 
46.02844832039111

>  <Genealogy>  (78) 
Cc1ccc(C=CS(=O)(=O)Nc2ccccc2C(=O)[O-])cc1 (protonated)
Cc1ccc(C=CS(=O)(=O)Nc2ccccc2C(=O)[O-])cc1 (3D coordinates assigned)
Cc1ccc(C=CS(=O)(=O)Nc2ccccc2C(=O)[O-])cc1 (optimized conformer: 46.02844832039111 kcal/mol)

>  <smiles>  (78) 
Cc1ccc(C=CS(=O)(=O)Nc2ccccc2C(=O)O)cc1

>  <score_type>  (78) 
oracle

>  <origin>  (78) 
adg

>  <m_score__min__energy>  (78) 
-12.039999999999999

>  <m_primary>  (78) 
energy

$$$$
79:0
     RDKit          3D

 55 58  0  0  0  0  0  0  0  0999 V2000
   60.3762   32.1237   48.6849 H   0  0  0  0  0  0  0  0  0  0  0  0
   60.1330   31.0790   48.4410 C   0  0  0  0  0  0  0  0  0  0  0  0
   61.0160   30.3170   47.6630 C   0  0  0  0  0  0  0  0  0  0  0  0
   61.9530   30.7647   47.3002 H   0  0  0  0  0  0  0  0  0  0  0  0
   60.7090   28.9870   47.3460 C   0  0  0  0  0  0  0  0  0  0  0  0
   61.4092   28.3894   46.7438 H   0  0  0  0  0  0  0  0  0  0  0  0
   59.5050   28.4160   47.7980 C   0  0  0  0  0  0  0  0  0  0  0  0
   59.1780   26.9790   47.4800 C   0  0  0  0  0  0  0  0  0  0  0  0
   59.3402   26.3655   48.3785 H   0  0  0  0  0  0  0  0  0  0  0  0
   59.8318   26.6430   46.6617 H   0  0  0  0  0  0  0  0  0  0  0  0
   57.8160   26.8450   47.0610 O   0  0  0  0  0  0  0  0  0  0  0  0
   57.3090   25.8440   46.2110 C   0  0  0  0  0  0  0  0  0  0  0  0
   56.4630   24.8230   46.6920 C   0  0  0  0  0  0  0  0  0  0  0  0
   56.1604   24.8181   47.7495 H   0  0  0  0  0  0  0  0  0  0  0  0
   56.0060   23.8170   45.8350 C   0  0  0  0  0  0  0  0  0  0  0  0
   55.3420   23.0290   46.2199 H   0  0  0  0  0  0  0  0  0  0  0  0
   56.3890   23.8090   44.4940 C   0  0  0  0  0  0  0  0  0  0  0  0
   56.0398   23.0074   43.8266 H   0  0  0  0  0  0  0  0  0  0  0  0
   57.2150   24.8180   44.0000 C   0  0  0  0  0  0  0  0  0  0  0  0
   57.5249   24.7995   42.9447 H   0  0  0  0  0  0  0  0  0  0  0  0
   57.6570   25.8610   44.8380 C   0  0  0  0  0  0  0  0  0  0  0  0
   58.5430   26.9440   44.2590 C   0  0  0  0  0  0  0  0  0  0  0  0
   59.2133   26.4938   43.5120 H   0  0  0  0  0  0  0  0  0  0  0  0
   59.1148   27.3944   45.0837 H   0  0  0  0  0  0  0  0  0  0  0  0
   57.7600   28.0040   43.6160 N   0  0  0  0  0  0  0  0  0  0  0  0
   56.9110   27.6930   43.0900 H   0  0  0  0  0  0  0  0  0  0  0  0
   57.7550   29.3650   44.0870 C   0  0  0  0  0  0  0  0  0  0  0  0
   58.9090   29.8550   44.7180 C   0  0  0  0  0  0  0  0  0  0  0  0
   59.7934   29.2075   44.8109 H   0  0  0  0  0  0  0  0  0  0  0  0
   58.9490   31.1530   45.2290 C   0  0  0  0  0  0  0  0  0  0  0  0
   59.8649   31.5246   45.7117 H   0  0  0  0  0  0  0  0  0  0  0  0
   57.8280   31.9820   45.1290 C   0  0  0  0  0  0  0  0  0  0  0  0
   57.8810   33.6190   45.7750 S   0  0  0  0  0  0  0  0  0  0  0  0
   57.0040   34.5310   44.9570 O   0  0  0  0  0  0  0  0  0  0  0  0
   57.3830   33.6020   47.1950 O   0  0  0  0  0  0  0  0  0  0  0  0
   59.5080   34.2290   45.7540 N   0  0  0  0  0  0  0  0  0  0  0  0
   60.3520   34.1070   46.7380 C   0  0  0  0  0  0  0  0  0  0  0  0
   61.9940   33.7170   46.5980 S   0  0  0  0  0  0  0  0  0  0  0  0
   62.2390   33.7810   48.2670 C   0  0  0  0  0  0  0  0  0  0  0  0
   63.7710   33.4940   49.0780 Cl  0  0  0  0  0  0  0  0  0  0  0  0
   61.0370   34.1040   48.8870 C   0  0  0  0  0  0  0  0  0  0  0  0
   60.9374   34.2064   49.9777 H   0  0  0  0  0  0  0  0  0  0  0  0
   59.9930   34.2830   48.0300 N   0  0  0  0  0  0  0  0  0  0  0  0
   59.0260   34.5300   48.3400 H   0  0  0  0  0  0  0  0  0  0  0  0
   56.6720   31.5080   44.4960 C   0  0  0  0  0  0  0  0  0  0  0  0
   55.8006   32.1707   44.3887 H   0  0  0  0  0  0  0  0  0  0  0  0
   56.6120   30.1950   43.9960 C   0  0  0  0  0  0  0  0  0  0  0  0
   55.3240   29.7100   43.3920 C   0  0  0  0  0  0  0  0  0  0  0  0
   54.6198   29.4448   44.1943 H   0  0  0  0  0  0  0  0  0  0  0  0
   54.8883   30.5056   42.7698 H   0  0  0  0  0  0  0  0  0  0  0  0
   55.5213   28.8246   42.7698 H   0  0  0  0  0  0  0  0  0  0  0  0
   58.6290   29.1840   48.5890 C   0  0  0  0  0  0  0  0  0  0  0  0
   57.6934   28.7393   48.9589 H   0  0  0  0  0  0  0  0  0  0  0  0
   58.9430   30.5110   48.9070 C   0  0  0  0  0  0  0  0  0  0  0  0
   58.2537   31.1067   49.5234 H   0  0  0  0  0  0  0  0  0  0  0  0
  1  2  1  0
  2  3  2  0
  3  4  1  0
  3  5  1  0
  5  6  1  0
  5  7  2  0
  7  8  1  0
  8  9  1  0
  8 10  1  0
  8 11  1  0
 11 12  1  0
 12 13  2  0
 13 14  1  0
 13 15  1  0
 15 16  1  0
 15 17  2  0
 17 18  1  0
 17 19  1  0
 19 20  1  0
 19 21  2  0
 21 22  1  0
 22 23  1  0
 22 24  1  0
 22 25  1  0
 25 26  1  0
 25 27  1  0
 27 28  2  0
 28 29  1  0
 28 30  1  0
 30 31  1  0
 30 32  2  0
 32 33  1  0
 33 34  2  0
 33 35  2  0
 33 36  1  0
 36 37  2  0
 37 38  1  0
 38 39  1  0
 39 40  1  0
 39 41  2  0
 41 42  1  0
 41 43  1  0
 43 44  1  0
 32 45  1  0
 45 46  1  0
 45 47  2  0
 47 48  1  0
 48 49  1  0
 48 50  1  0
 48 51  1  0
  7 52  1  0
 52 53  1  0
 52 54  2  0
 54 55  1  0
 54  2  1  0
 21 12  1  0
 47 27  1  0
 43 37  1  0
M  END
>  <UniqueID>  (79) 
66

>  <SMILES>  (79) 
Cc1cc(S(=O)(=O)/N=c2/[nH]cc(Cl)s2)ccc1NCc1ccccc1OCc1ccccc1

>  <Energy>  (79) 
98.87836389760176

>  <Genealogy>  (79) 
Cc1cc(S(=O)(=O)/N=c2/[nH]cc(Cl)s2)ccc1NCc1ccccc1OCc1ccccc1 (cis-trans isomerization)
Cc1cc(S(=O)(=O)/N=c2/[nH]cc(Cl)s2)ccc1NCc1ccccc1OCc1ccccc1 (3D coordinates assigned)
Cc1cc(S(=O)(=O)/N=c2/[nH]cc(Cl)s2)ccc1NCc1ccccc1OCc1ccccc1 (optimized conformer: 98.87836389760176 kcal/mol)

>  <smiles>  (79) 
Cc1cc(S(=O)(=O)N=c2[nH]cc(Cl)s2)ccc1NCc1ccccc1OCc1ccccc1

>  <score_type>  (79) 
oracle

>  <origin>  (79) 
adg

>  <m_score__min__energy>  (79) 
-9.8499999999999996

>  <m_primary>  (79) 
energy

$$$$
80:0
     RDKit          3D

 56 59  0  0  0  0  0  0  0  0999 V2000
   61.0320   29.5900   45.7990 O   0  0  0  0  0  0  0  0  0  0  0  0
   60.6350   28.5970   44.9000 C   0  0  0  0  0  0  0  0  0  0  0  0
   59.1170   28.6440   44.6670 C   0  0  2  0  0  0  0  0  0  0  0  0
   58.7200   29.9590   44.3830 O   0  0  0  0  0  0  0  0  0  0  0  0
   57.3570   30.0630   44.7310 C   0  0  2  0  0  0  0  0  0  0  0  0
   57.1360   31.3420   45.3150 O   0  0  0  0  0  0  0  0  0  0  0  0
   58.1330   32.2780   44.9280 C   0  0  1  0  0  0  0  0  0  0  0  0
   57.4950   33.6860   44.8350 C   0  0  0  0  0  0  0  0  0  0  0  0
   57.7500   34.5440   46.0790 C   0  0  0  0  0  0  0  0  0  0  0  0
   59.2570   34.7360   46.3490 C   0  0  0  0  0  0  0  0  0  0  0  0
   60.1240   33.5550   45.8650 C   0  0  0  0  0  0  0  0  0  0  0  0
   59.3600   32.2170   45.8850 C   0  0  1  0  0  0  0  0  0  0  0  0
   58.8710   31.7650   47.6050 S   0  0  0  0  0  0  0  0  0  0  0  0
   60.4510   32.1820   48.3530 C   0  0  0  0  0  0  0  0  0  0  0  0
   60.5450   33.2330   49.2690 C   0  0  0  0  0  0  0  0  0  0  0  0
   61.7440   33.5210   49.8400 N   0  0  0  0  0  0  0  0  0  0  0  0
   62.8620   32.8000   49.5510 C   0  0  0  0  0  0  0  0  0  0  0  0
   64.1510   33.1540   50.1940 C   0  0  0  0  0  0  0  0  0  0  0  0
   64.2000   34.0780   51.2630 C   0  0  0  0  0  0  0  0  0  0  0  0
   65.4150   34.3840   51.8780 C   0  0  0  0  0  0  0  0  0  0  0  0
   66.5920   33.7680   51.4440 C   0  0  0  0  0  0  0  0  0  0  0  0
   66.5570   32.8610   50.3770 C   0  0  0  0  0  0  0  0  0  0  0  0
   65.3480   32.5640   49.7440 C   0  0  0  0  0  0  0  0  0  0  0  0
   62.7630   31.7430   48.6270 C   0  0  0  0  0  0  0  0  0  0  0  0
   61.5620   31.4590   48.0520 N   0  0  0  0  0  0  0  0  0  0  0  0
   57.0150   28.9520   45.7410 C   0  0  1  0  0  0  0  0  0  0  0  0
   56.0100   28.1150   45.2340 O   0  0  0  0  0  0  0  0  0  0  0  0
   58.3230   28.2050   45.8930 C   0  0  1  0  0  0  0  0  0  0  0  0
   58.1700   26.8090   45.9830 O   0  0  0  0  0  0  0  0  0  0  0  0
   60.3600   30.3170   45.7360 H   0  0  0  0  0  0  0  0  0  0  0  0
   61.1516   28.7517   43.9412 H   0  0  0  0  0  0  0  0  0  0  0  0
   60.8956   27.6155   45.3227 H   0  0  0  0  0  0  0  0  0  0  0  0
   58.9126   27.9576   43.8321 H   0  0  0  0  0  0  0  0  0  0  0  0
   56.7184   29.9508   43.8424 H   0  0  0  0  0  0  0  0  0  0  0  0
   58.5251   32.0234   43.9323 H   0  0  0  0  0  0  0  0  0  0  0  0
   57.9152   34.2038   43.9602 H   0  0  0  0  0  0  0  0  0  0  0  0
   56.4071   33.5485   44.7483 H   0  0  0  0  0  0  0  0  0  0  0  0
   57.2871   35.5308   45.9309 H   0  0  0  0  0  0  0  0  0  0  0  0
   57.3127   34.0256   46.9451 H   0  0  0  0  0  0  0  0  0  0  0  0
   59.5901   35.6477   45.8314 H   0  0  0  0  0  0  0  0  0  0  0  0
   59.3842   34.8054   47.4394 H   0  0  0  0  0  0  0  0  0  0  0  0
   60.4538   33.7578   44.8354 H   0  0  0  0  0  0  0  0  0  0  0  0
   60.9783   33.4631   46.5519 H   0  0  0  0  0  0  0  0  0  0  0  0
   60.0278   31.4231   45.5194 H   0  0  0  0  0  0  0  0  0  0  0  0
   59.6536   33.8238   49.5264 H   0  0  0  0  0  0  0  0  0  0  0  0
   63.2744   34.5589   51.6123 H   0  0  0  0  0  0  0  0  0  0  0  0
   65.4461   35.1098   52.7040 H   0  0  0  0  0  0  0  0  0  0  0  0
   67.5467   33.9956   51.9407 H   0  0  0  0  0  0  0  0  0  0  0  0
   67.4860   32.3805   50.0362 H   0  0  0  0  0  0  0  0  0  0  0  0
   65.3307   31.8680   48.8924 H   0  0  0  0  0  0  0  0  0  0  0  0
   63.6524   31.1487   48.3704 H   0  0  0  0  0  0  0  0  0  0  0  0
   61.5000   30.6740   47.3650 H   0  0  0  0  0  0  0  0  0  0  0  0
   56.6297   29.3363   46.6969 H   0  0  0  0  0  0  0  0  0  0  0  0
   56.4630   27.3820   44.7440 H   0  0  0  0  0  0  0  0  0  0  0  0
   58.8319   28.4423   46.8389 H   0  0  0  0  0  0  0  0  0  0  0  0
   57.2200   26.6040   46.1770 H   0  0  0  0  0  0  0  0  0  0  0  0
  1  2  1  0
  2  3  1  0
  3  4  1  0
  4  5  1  0
  5  6  1  0
  6  7  1  0
  7  8  1  0
  8  9  1  0
  9 10  1  0
 10 11  1  0
 11 12  1  0
 12 13  1  0
 13 14  1  0
 14 15  2  0
 15 16  1  0
 16 17  2  0
 17 18  1  0
 18 19  2  0
 19 20  1  0
 20 21  2  0
 21 22  1  0
 22 23  2  0
 17 24  1  0
 24 25  2  0
  5 26  1  0
 26 27  1  0
 26 28  1  0
 28 29  1  0
 28  3  1  0
 12  7  1  0
 25 14  1  0
 23 18  1  0
  1 30  1  0
  2 31  1  0
  2 32  1  0
  3 33  1  6
  5 34  1  6
  7 35  1  6
  8 36  1  0
  8 37  1  0
  9 38  1  0
  9 39  1  0
 10 40  1  0
 10 41  1  0
 11 42  1  0
 11 43  1  0
 12 44  1  6
 15 45  1  0
 19 46  1  0
 20 47  1  0
 21 48  1  0
 22 49  1  0
 23 50  1  0
 24 51  1  0
 25 52  1  0
 26 53  1  1
 27 54  1  0
 28 55  1  1
 29 56  1  0
M  CHG  1  25   1
M  END
>  <UniqueID>  (80) 
67

>  <SMILES>  (80) 
OC[C@@H]1O[C@H](OC2CCCCC2Sc2cnc(-c3ccccc3)c[nH+]2)C(O)C1O

>  <Energy>  (80) 
70.91272238170477

>  <Genealogy>  (80) 
OCC1OC(OC2CCCCC2Sc2cnc(-c3ccccc3)c[nH+]2)C(O)C1O (protonated)
OC[C@@H]1O[C@H](OC2CCCCC2Sc2cnc(-c3ccccc3)c[nH+]2)C(O)C1O (chirality)
OC[C@@H]1O[C@H](OC2CCCCC2Sc2cnc(-c3ccccc3)c[nH+]2)C(O)C1O (3D coordinates assigned)
OC[C@@H]1O[C@H](OC2CCCCC2Sc2cnc(-c3ccccc3)c[nH+]2)C(O)C1O (nonaromatic ring conformer: 70.91272238170477 kcal/mol)

>  <smiles>  (80) 
OCC1OC(OC2CCCCC2Sc2cnc(-c3ccccc3)cn2)C(O)C1O

>  <score_type>  (80) 
oracle

>  <origin>  (80) 
adg

>  <m_score__min__energy>  (80) 
-6.7599999999999998

>  <m_primary>  (80) 
energy

$$$$
81:0
     RDKit          3D

 37 39  0  0  0  0  0  0  0  0999 V2000
   59.5000   34.8310   45.9850 C   0  0  0  0  0  0  0  0  0  0  0  0
   58.7670   33.6190   45.4930 C   0  0  0  0  0  0  0  0  0  0  0  0
   58.4490   32.5780   46.3790 C   0  0  0  0  0  0  0  0  0  0  0  0
   57.7960   31.4320   45.9150 C   0  0  0  0  0  0  0  0  0  0  0  0
   57.4670   31.3100   44.5580 C   0  0  0  0  0  0  0  0  0  0  0  0
   56.6050   29.8940   43.9650 S   0  0  0  0  0  0  0  0  0  0  0  0
   56.1030   30.1320   42.5660 O   0  0  0  0  0  0  0  0  0  0  0  0
   55.4210   29.6450   44.8570 O   0  0  0  0  0  0  0  0  0  0  0  0
   57.6410   28.4960   43.9950 N   0  0  0  0  0  0  0  0  0  0  0  0
   58.3470   28.3670   45.2750 C   0  0  0  0  0  0  0  0  0  0  0  0
   57.4110   27.8910   46.3910 C   0  0  0  0  0  0  0  0  0  0  0  0
   56.7700   26.5810   46.0530 C   0  0  0  0  0  0  0  0  0  0  0  0
   55.4220   26.4200   45.9970 N   0  0  0  0  0  0  0  0  0  0  0  0
   55.3000   25.1400   45.6200 C   0  0  0  0  0  0  0  0  0  0  0  0
   54.1250   24.4240   45.4000 C   0  0  0  0  0  0  0  0  0  0  0  0
   54.2460   23.0800   44.9980 C   0  0  0  0  0  0  0  0  0  0  0  0
   55.5220   22.4970   44.8250 C   0  0  0  0  0  0  0  0  0  0  0  0
   56.6870   23.2540   45.0540 C   0  0  0  0  0  0  0  0  0  0  0  0
   56.5300   24.5780   45.4540 C   0  0  0  0  0  0  0  0  0  0  0  0
   57.4890   25.4760   45.7190 N   0  0  0  0  0  0  0  0  0  0  0  0
   57.8000   32.3400   43.6690 C   0  0  0  0  0  0  0  0  0  0  0  0
   58.4520   33.4860   44.1320 C   0  0  0  0  0  0  0  0  0  0  0  0
   59.5031   34.8362   47.0850 H   0  0  0  0  0  0  0  0  0  0  0  0
   60.5358   34.8082   45.6155 H   0  0  0  0  0  0  0  0  0  0  0  0
   58.9988   35.7378   45.6155 H   0  0  0  0  0  0  0  0  0  0  0  0
   58.7146   32.6640   47.4430 H   0  0  0  0  0  0  0  0  0  0  0  0
   57.5399   30.6244   46.6165 H   0  0  0  0  0  0  0  0  0  0  0  0
   59.1641   27.6396   45.1601 H   0  0  0  0  0  0  0  0  0  0  0  0
   58.7379   29.3569   45.5532 H   0  0  0  0  0  0  0  0  0  0  0  0
   57.9913   27.7755   47.3183 H   0  0  0  0  0  0  0  0  0  0  0  0
   56.6157   28.6407   46.5154 H   0  0  0  0  0  0  0  0  0  0  0  0
   53.1387   24.8918   45.5355 H   0  0  0  0  0  0  0  0  0  0  0  0
   53.3419   22.4800   44.8175 H   0  0  0  0  0  0  0  0  0  0  0  0
   55.6053   21.4464   44.5098 H   0  0  0  0  0  0  0  0  0  0  0  0
   57.6865   22.8143   44.9214 H   0  0  0  0  0  0  0  0  0  0  0  0
   57.5473   32.2464   42.6025 H   0  0  0  0  0  0  0  0  0  0  0  0
   58.7193   34.2869   43.4269 H   0  0  0  0  0  0  0  0  0  0  0  0
  1  2  1  0
  2  3  2  0
  3  4  1  0
  4  5  2  0
  5  6  1  0
  6  7  2  0
  6  8  2  0
  6  9  1  0
  9 10  1  0
 10 11  1  0
 11 12  1  0
 12 13  2  0
 13 14  1  0
 14 15  2  0
 15 16  1  0
 16 17  2  0
 17 18  1  0
 18 19  2  0
 19 20  1  0
  5 21  1  0
 21 22  2  0
 22  2  1  0
 20 12  1  0
 19 14  1  0
  1 23  1  0
  1 24  1  0
  1 25  1  0
  3 26  1  0
  4 27  1  0
 10 28  1  0
 10 29  1  0
 11 30  1  0
 11 31  1  0
 15 32  1  0
 16 33  1  0
 17 34  1  0
 18 35  1  0
 21 36  1  0
 22 37  1  0
M  CHG  2   9  -1  20  -1
M  END
>  <UniqueID>  (81) 
68

>  <SMILES>  (81) 
Cc1ccc(S(=O)(=O)[N-]CCc2nc3ccccc3[n-]2)cc1

>  <Energy>  (81) 
69.0577840258803

>  <Genealogy>  (81) 
Cc1ccc(S(=O)(=O)[N-]CCc2nc3ccccc3[n-]2)cc1 (protonated)
Cc1ccc(S(=O)(=O)[N-]CCc2nc3ccccc3[n-]2)cc1 (3D coordinates assigned)
Cc1ccc(S(=O)(=O)[N-]CCc2nc3ccccc3[n-]2)cc1 (optimized conformer: 69.0577840258803 kcal/mol)

>  <smiles>  (81) 
Cc1ccc(S(=O)(=O)NCCc2nc3ccccc3[nH]2)cc1

>  <score_type>  (81) 
oracle

>  <origin>  (81) 
adg

>  <m_score__min__energy>  (81) 
-10.73

>  <m_primary>  (81) 
energy

$$$$
82:0
     RDKit          3D

 36 37  0  0  0  0  0  0  0  0999 V2000
   55.2030   26.7240   45.9950 N   0  0  0  0  0  0  0  0  0  0  0  0
   56.4620   25.5410   45.9550 S   0  0  0  0  0  0  0  0  0  0  0  0
   56.3240   24.7240   44.6990 O   0  0  0  0  0  0  0  0  0  0  0  0
   56.3330   24.6230   47.1380 O   0  0  0  0  0  0  0  0  0  0  0  0
   58.0380   26.3460   45.9930 C   0  0  0  0  0  0  0  0  0  0  0  0
   58.9810   25.9420   46.9510 C   0  0  0  0  0  0  0  0  0  0  0  0
   60.2240   26.5710   47.0320 C   0  0  0  0  0  0  0  0  0  0  0  0
   60.5400   27.6080   46.1570 C   0  0  0  0  0  0  0  0  0  0  0  0
   59.6180   28.0170   45.1940 C   0  0  0  0  0  0  0  0  0  0  0  0
   58.3560   27.3970   45.0970 C   0  0  0  0  0  0  0  0  0  0  0  0
   57.4250   27.8050   44.0770 N   0  0  0  0  0  0  0  0  0  0  0  0
   56.7300   29.3930   43.9980 S   0  0  0  0  0  0  0  0  0  0  0  0
   55.7500   29.4380   42.8590 O   0  0  0  0  0  0  0  0  0  0  0  0
   55.9950   29.6940   45.2750 O   0  0  0  0  0  0  0  0  0  0  0  0
   58.0180   30.5980   43.7210 C   0  0  0  0  0  0  0  0  0  0  0  0
   58.2730   31.3890   44.9720 C   0  0  0  0  0  0  0  0  0  0  0  0
   57.4250   32.4490   45.3260 C   0  0  0  0  0  0  0  0  0  0  0  0
   57.6440   33.1640   46.5070 C   0  0  0  0  0  0  0  0  0  0  0  0
   58.7110   32.8250   47.3610 C   0  0  0  0  0  0  0  0  0  0  0  0
   58.9390   33.5580   48.5770 N   0  0  0  0  0  0  0  0  0  0  0  0
   58.7470   33.0240   49.6900 O   0  0  0  0  0  0  0  0  0  0  0  0
   59.3720   34.8640   48.5360 O   0  0  0  0  0  0  0  0  0  0  0  0
   59.5500   31.7540   47.0060 C   0  0  0  0  0  0  0  0  0  0  0  0
   59.3310   31.0400   45.8250 C   0  0  0  0  0  0  0  0  0  0  0  0
   55.5340   27.5390   45.4320 H   0  0  0  0  0  0  0  0  0  0  0  0
   58.7381   25.1227   47.6437 H   0  0  0  0  0  0  0  0  0  0  0  0
   60.9551   26.2477   47.7876 H   0  0  0  0  0  0  0  0  0  0  0  0
   61.5188   28.1052   46.2259 H   0  0  0  0  0  0  0  0  0  0  0  0
   59.8784   28.8321   44.5028 H   0  0  0  0  0  0  0  0  0  0  0  0
   57.0860   27.1150   43.3730 H   0  0  0  0  0  0  0  0  0  0  0  0
   58.9420   30.0794   43.4255 H   0  0  0  0  0  0  0  0  0  0  0  0
   57.6984   31.2849   42.9235 H   0  0  0  0  0  0  0  0  0  0  0  0
   56.5835   32.7189   44.6709 H   0  0  0  0  0  0  0  0  0  0  0  0
   56.9775   33.9982   46.7713 H   0  0  0  0  0  0  0  0  0  0  0  0
   60.3864   31.4757   47.6640 H   0  0  0  0  0  0  0  0  0  0  0  0
   59.9913   30.2002   45.5627 H   0  0  0  0  0  0  0  0  0  0  0  0
  1  2  1  0
  2  3  2  0
  2  4  2  0
  2  5  1  0
  5  6  2  0
  6  7  1  0
  7  8  2  0
  8  9  1  0
  9 10  2  0
 10 11  1  0
 11 12  1  0
 12 13  2  0
 12 14  2  0
 12 15  1  0
 15 16  1  0
 16 17  2  0
 17 18  1  0
 18 19  2  0
 19 20  1  0
 20 21  2  0
 20 22  1  0
 19 23  1  0
 23 24  2  0
 10  5  1  0
 24 16  1  0
  1 25  1  0
  6 26  1  0
  7 27  1  0
  8 28  1  0
  9 29  1  0
 11 30  1  0
 15 31  1  0
 15 32  1  0
 17 33  1  0
 18 34  1  0
 23 35  1  0
 24 36  1  0
M  CHG  3   1  -1  20   1  22  -1
M  END
>  <UniqueID>  (82) 
69

>  <SMILES>  (82) 
[NH-]S(=O)(=O)c1ccccc1NS(=O)(=O)Cc1ccc([N+](=O)[O-])cc1

>  <Energy>  (82) 
38.36321946777192

>  <Genealogy>  (82) 
[NH-]S(=O)(=O)c1ccccc1NS(=O)(=O)Cc1ccc([N+](=O)[O-])cc1 (protonated)
[NH-]S(=O)(=O)c1ccccc1NS(=O)(=O)Cc1ccc([N+](=O)[O-])cc1 (3D coordinates assigned)
[NH-]S(=O)(=O)c1ccccc1NS(=O)(=O)Cc1ccc([N+](=O)[O-])cc1 (optimized conformer: 38.36321946777192 kcal/mol)

>  <smiles>  (82) 
NS(=O)(=O)c1ccccc1NS(=O)(=O)Cc1ccc([N+](=O)[O-])cc1

>  <score_type>  (82) 
oracle

>  <origin>  (82) 
adg

>  <m_score__min__energy>  (82) 
-12.050000000000001

>  <m_primary>  (82) 
energy

$$$$
83:0
     RDKit          3D

 58 61  0  0  0  0  0  0  0  0999 V2000
   56.7480   22.2070   45.9710 C   0  0  0  0  0  0  0  0  0  0  0  0
   56.9820   23.6610   45.6830 C   0  0  0  0  0  0  0  0  0  0  0  0
   56.8410   24.6160   46.6980 C   0  0  0  0  0  0  0  0  0  0  0  0
   57.0900   25.9670   46.4360 C   0  0  0  0  0  0  0  0  0  0  0  0
   57.5080   26.3810   45.1590 C   0  0  0  0  0  0  0  0  0  0  0  0
   57.7850   27.8090   44.8790 C   0  0  0  0  0  0  0  0  0  0  0  0
   58.1440   28.1640   43.7240 O   0  0  0  0  0  0  0  0  0  0  0  0
   57.6950   28.7760   45.9370 N   0  0  0  0  0  0  0  0  0  0  0  0
   58.7570   29.5830   46.4660 C   0  0  0  0  0  0  0  0  0  0  0  0
   60.0740   29.1420   46.2990 C   0  0  0  0  0  0  0  0  0  0  0  0
   61.1420   29.9050   46.7720 C   0  0  0  0  0  0  0  0  0  0  0  0
   60.9140   31.1140   47.4460 C   0  0  0  0  0  0  0  0  0  0  0  0
   62.0860   31.9210   47.8550 C   0  0  0  0  0  0  0  0  0  0  0  0
   62.7750   31.6410   49.0460 C   0  0  0  0  0  0  0  0  0  0  0  0
   63.8720   32.4190   49.4230 C   0  0  0  0  0  0  0  0  0  0  0  0
   64.3030   33.4650   48.6050 C   0  0  0  0  0  0  0  0  0  0  0  0
   63.6460   33.7270   47.4010 C   0  0  0  0  0  0  0  0  0  0  0  0
   62.5450   32.9540   47.0220 C   0  0  0  0  0  0  0  0  0  0  0  0
   59.5840   31.5550   47.6480 C   0  0  0  0  0  0  0  0  0  0  0  0
   59.2720   32.8320   48.3260 C   0  0  0  0  0  0  0  0  0  0  0  0
   58.8170   32.8120   49.4980 O   0  0  0  0  0  0  0  0  0  0  0  0
   59.4360   34.0970   47.6720 N   0  0  0  0  0  0  0  0  0  0  0  0
   59.6670   34.2970   46.2450 C   0  0  0  0  0  0  0  0  0  0  0  0
   58.3550   34.5380   45.4920 C   0  0  0  0  0  0  0  0  0  0  0  0
   57.9450   33.3320   44.6860 C   0  0  0  0  0  0  0  0  0  0  0  0
   58.5100   33.0970   43.4220 C   0  0  0  0  0  0  0  0  0  0  0  0
   58.1230   31.9810   42.6720 C   0  0  0  0  0  0  0  0  0  0  0  0
   57.1730   31.0860   43.1820 C   0  0  0  0  0  0  0  0  0  0  0  0
   56.7700   29.9780   42.4400 O   0  0  0  0  0  0  0  0  0  0  0  0
   56.6250   31.3050   44.4480 C   0  0  0  0  0  0  0  0  0  0  0  0
   57.0120   32.4170   45.2000 C   0  0  0  0  0  0  0  0  0  0  0  0
   58.5170   30.7740   47.1720 C   0  0  0  0  0  0  0  0  0  0  0  0
   57.6660   25.4150   44.1490 C   0  0  0  0  0  0  0  0  0  0  0  0
   57.4100   24.0660   44.4110 C   0  0  0  0  0  0  0  0  0  0  0  0
   56.7225   22.0482   47.0592 H   0  0  0  0  0  0  0  0  0  0  0  0
   55.7883   21.8962   45.5325 H   0  0  0  0  0  0  0  0  0  0  0  0
   57.5617   21.6108   45.5325 H   0  0  0  0  0  0  0  0  0  0  0  0
   56.5329   24.3018   47.7061 H   0  0  0  0  0  0  0  0  0  0  0  0
   56.9578   26.7114   47.2350 H   0  0  0  0  0  0  0  0  0  0  0  0
   60.2691   28.1862   45.7908 H   0  0  0  0  0  0  0  0  0  0  0  0
   62.1730   29.5551   46.6149 H   0  0  0  0  0  0  0  0  0  0  0  0
   62.4497   30.8062   49.6842 H   0  0  0  0  0  0  0  0  0  0  0  0
   64.3972   32.2072   50.3660 H   0  0  0  0  0  0  0  0  0  0  0  0
   65.1606   34.0831   48.9091 H   0  0  0  0  0  0  0  0  0  0  0  0
   63.9952   34.5423   46.7504 H   0  0  0  0  0  0  0  0  0  0  0  0
   62.0362   33.1556   46.0678 H   0  0  0  0  0  0  0  0  0  0  0  0
   60.3231   35.1692   46.1080 H   0  0  0  0  0  0  0  0  0  0  0  0
   60.1349   33.3874   45.8404 H   0  0  0  0  0  0  0  0  0  0  0  0
   57.5628   34.7662   46.2202 H   0  0  0  0  0  0  0  0  0  0  0  0
   58.5070   35.3783   44.7986 H   0  0  0  0  0  0  0  0  0  0  0  0
   59.2603   33.7935   43.0197 H   0  0  0  0  0  0  0  0  0  0  0  0
   58.5653   31.8059   41.6802 H   0  0  0  0  0  0  0  0  0  0  0  0
   57.3970   29.2040   42.2650 H   0  0  0  0  0  0  0  0  0  0  0  0
   55.8858   30.5991   44.8545 H   0  0  0  0  0  0  0  0  0  0  0  0
   56.5834   32.5767   46.2004 H   0  0  0  0  0  0  0  0  0  0  0  0
   57.4820   31.0988   47.3542 H   0  0  0  0  0  0  0  0  0  0  0  0
   57.9935   25.7234   43.1452 H   0  0  0  0  0  0  0  0  0  0  0  0
   57.5450   23.3186   43.6152 H   0  0  0  0  0  0  0  0  0  0  0  0
  1  2  1  0
  2  3  2  0
  3  4  1  0
  4  5  2  0
  5  6  1  0
  6  7  2  0
  6  8  1  0
  8  9  1  0
  9 10  2  0
 10 11  1  0
 11 12  2  0
 12 13  1  0
 13 14  2  0
 14 15  1  0
 15 16  2  0
 16 17  1  0
 17 18  2  0
 12 19  1  0
 19 20  1  0
 20 21  2  0
 20 22  1  0
 22 23  1  0
 23 24  1  0
 24 25  1  0
 25 26  2  0
 26 27  1  0
 27 28  2  0
 28 29  1  0
 28 30  1  0
 30 31  2  0
 19 32  2  0
  5 33  1  0
 33 34  2  0
 34  2  1  0
 32  9  1  0
 18 13  1  0
 31 25  1  0
  1 35  1  0
  1 36  1  0
  1 37  1  0
  3 38  1  0
  4 39  1  0
 10 40  1  0
 11 41  1  0
 14 42  1  0
 15 43  1  0
 16 44  1  0
 17 45  1  0
 18 46  1  0
 23 47  1  0
 23 48  1  0
 24 49  1  0
 24 50  1  0
 26 51  1  0
 27 52  1  0
 29 53  1  0
 30 54  1  0
 31 55  1  0
 32 56  1  0
 33 57  1  0
 34 58  1  0
M  CHG  2   8  -1  22  -1
M  END
>  <UniqueID>  (83) 
70

>  <SMILES>  (83) 
Cc1ccc(C(=O)[N-]c2ccc(-c3ccccc3)c(C(=O)[N-]CCc3ccc(O)cc3)c2)cc1

>  <Energy>  (83) 
74.19142240207287

>  <Genealogy>  (83) 
Cc1ccc(C(=O)[N-]c2ccc(-c3ccccc3)c(C(=O)[N-]CCc3ccc(O)cc3)c2)cc1 (protonated)
Cc1ccc(C(=O)[N-]c2ccc(-c3ccccc3)c(C(=O)[N-]CCc3ccc(O)cc3)c2)cc1 (3D coordinates assigned)
Cc1ccc(C(=O)[N-]c2ccc(-c3ccccc3)c(C(=O)[N-]CCc3ccc(O)cc3)c2)cc1 (optimized conformer: 74.19142240207287 kcal/mol)

>  <smiles>  (83) 
Cc1ccc(C(=O)Nc2ccc(-c3ccccc3)c(C(=O)NCCc3ccc(O)cc3)c2)cc1

>  <score_type>  (83) 
oracle

>  <origin>  (83) 
adg

>  <m_score__min__energy>  (83) 
-11.869999999999999

>  <m_primary>  (83) 
energy

$$$$
84:0
     RDKit          3D

 38 40  0  0  0  0  0  0  0  0999 V2000
   53.6850   24.2800   45.9290 O   0  0  0  0  0  0  0  0  0  0  0  0
   55.1420   24.5360   46.1880 S   0  0  0  0  0  0  0  0  0  0  0  0
   55.4870   24.0730   47.5760 O   0  0  0  0  0  0  0  0  0  0  0  0
   55.4570   26.2350   46.0500 N   0  0  0  0  0  0  0  0  0  0  0  0
   56.7670   26.8130   45.9890 C   0  0  0  0  0  0  0  0  0  0  0  0
   56.9530   27.9550   45.2000 C   0  0  0  0  0  0  0  0  0  0  0  0
   58.2320   28.4960   45.0160 C   0  0  0  0  0  0  0  0  0  0  0  0
   58.4130   29.5950   44.1120 N   0  0  0  0  0  0  0  0  0  0  0  0
   57.6850   31.1390   44.4130 S   0  0  0  0  0  0  0  0  0  0  0  0
   56.2530   30.9360   44.8240 O   0  0  0  0  0  0  0  0  0  0  0  0
   57.7160   31.9650   43.1590 O   0  0  0  0  0  0  0  0  0  0  0  0
   58.5920   31.9800   45.6780 C   0  0  0  0  0  0  0  0  0  0  0  0
   59.6230   31.3080   46.3550 C   0  0  0  0  0  0  0  0  0  0  0  0
   60.3860   31.9710   47.3200 C   0  0  0  0  0  0  0  0  0  0  0  0
   60.1260   33.3090   47.6190 C   0  0  0  0  0  0  0  0  0  0  0  0
   59.1010   33.9880   46.9570 C   0  0  0  0  0  0  0  0  0  0  0  0
   58.3320   33.3330   45.9860 C   0  0  0  0  0  0  0  0  0  0  0  0
   57.0630   34.2470   45.1770 Cl  0  0  0  0  0  0  0  0  0  0  0  0
   59.3260   27.9220   45.6830 C   0  0  0  0  0  0  0  0  0  0  0  0
   59.1400   26.8130   46.5100 C   0  0  0  0  0  0  0  0  0  0  0  0
   57.8690   26.2530   46.6640 C   0  0  0  0  0  0  0  0  0  0  0  0
   57.7220   25.1950   47.4970 F   0  0  0  0  0  0  0  0  0  0  0  0
   56.0870   23.6560   44.9980 C   0  0  0  0  0  0  0  0  0  0  0  0
   57.3370   23.0950   45.2140 C   0  0  0  0  0  0  0  0  0  0  0  0
   57.8320   22.4210   44.0910 C   0  0  0  0  0  0  0  0  0  0  0  0
   56.9730   22.4520   42.9990 C   0  0  0  0  0  0  0  0  0  0  0  0
   55.5950   23.3170   43.4300 S   0  0  0  0  0  0  0  0  0  0  0  0
   56.0859   28.4321   44.7198 H   0  0  0  0  0  0  0  0  0  0  0  0
   59.2020   29.5640   43.4280 H   0  0  0  0  0  0  0  0  0  0  0  0
   59.8312   30.2529   46.1241 H   0  0  0  0  0  0  0  0  0  0  0  0
   61.1924   31.4375   47.8445 H   0  0  0  0  0  0  0  0  0  0  0  0
   60.7293   33.8296   48.3773 H   0  0  0  0  0  0  0  0  0  0  0  0
   58.8964   35.0414   47.1988 H   0  0  0  0  0  0  0  0  0  0  0  0
   60.3322   28.3473   45.5535 H   0  0  0  0  0  0  0  0  0  0  0  0
   59.9981   26.3777   47.0431 H   0  0  0  0  0  0  0  0  0  0  0  0
   57.8817   23.1715   46.1666 H   0  0  0  0  0  0  0  0  0  0  0  0
   58.8085   21.9148   44.0746 H   0  0  0  0  0  0  0  0  0  0  0  0
   57.1617   21.9895   42.0189 H   0  0  0  0  0  0  0  0  0  0  0  0
  1  2  2  0
  2  3  2  0
  2  4  1  0
  4  5  1  0
  5  6  2  0
  6  7  1  0
  7  8  1  0
  8  9  1  0
  9 10  2  0
  9 11  2  0
  9 12  1  0
 12 13  2  0
 13 14  1  0
 14 15  2  0
 15 16  1  0
 16 17  2  0
 17 18  1  0
  7 19  2  0
 19 20  1  0
 20 21  2  0
 21 22  1  0
  2 23  1  0
 23 24  2  0
 24 25  1  0
 25 26  2  0
 26 27  1  0
 21  5  1  0
 27 23  1  0
 17 12  1  0
  6 28  1  0
  8 29  1  0
 13 30  1  0
 14 31  1  0
 15 32  1  0
 16 33  1  0
 19 34  1  0
 20 35  1  0
 24 36  1  0
 25 37  1  0
 26 38  1  0
M  CHG  1   4  -1
M  END
>  <UniqueID>  (84) 
71

>  <SMILES>  (84) 
O=S(=O)([N-]c1cc(NS(=O)(=O)c2ccccc2Cl)ccc1F)c1cccs1

>  <Energy>  (84) 
75.52729894599142

>  <Genealogy>  (84) 
O=S(=O)([N-]c1cc(NS(=O)(=O)c2ccccc2Cl)ccc1F)c1cccs1 (protonated)
O=S(=O)([N-]c1cc(NS(=O)(=O)c2ccccc2Cl)ccc1F)c1cccs1 (3D coordinates assigned)
O=S(=O)([N-]c1cc(NS(=O)(=O)c2ccccc2Cl)ccc1F)c1cccs1 (optimized conformer: 75.52729894599142 kcal/mol)

>  <smiles>  (84) 
O=S(=O)(Nc1cc(NS(=O)(=O)c2ccccc2Cl)ccc1F)c1cccs1

>  <score_type>  (84) 
oracle

>  <origin>  (84) 
adg

>  <m_score__min__energy>  (84) 
-11.859999999999999

>  <m_primary>  (84) 
energy

$$$$
85:0
     RDKit          3D

 27 28  0  0  0  0  0  0  0  0999 V2000
   59.5050   27.4040   45.8180 C   0  0  0  0  0  0  0  0  0  0  0  0
   58.3210   28.2340   45.4050 C   0  0  0  0  0  0  0  0  0  0  0  0
   58.4980   29.4950   44.8230 C   0  0  0  0  0  0  0  0  0  0  0  0
   57.4220   30.2580   44.4660 N   0  0  0  0  0  0  0  0  0  0  0  0
   57.6480   31.5620   43.8210 C   0  0  0  0  0  0  0  0  0  0  0  0
   58.0420   32.5900   44.8480 C   0  0  0  0  0  0  0  0  0  0  0  0
   57.7470   32.3820   46.2060 C   0  0  0  0  0  0  0  0  0  0  0  0
   58.1420   33.3210   47.1640 C   0  0  0  0  0  0  0  0  0  0  0  0
   58.8380   34.4690   46.7750 C   0  0  0  0  0  0  0  0  0  0  0  0
   59.1410   34.6800   45.4280 C   0  0  0  0  0  0  0  0  0  0  0  0
   58.7490   33.7430   44.4660 C   0  0  0  0  0  0  0  0  0  0  0  0
   56.1520   29.7800   44.6700 C   0  0  0  0  0  0  0  0  0  0  0  0
   55.1450   30.4580   44.3350 O   0  0  0  0  0  0  0  0  0  0  0  0
   55.9660   28.5620   45.2430 N   0  0  0  0  0  0  0  0  0  0  0  0
   57.0120   27.7870   45.6170 C   0  0  0  0  0  0  0  0  0  0  0  0
   56.7930   26.6660   46.1510 O   0  0  0  0  0  0  0  0  0  0  0  0
   59.5605   27.3651   46.9159 H   0  0  0  0  0  0  0  0  0  0  0  0
   59.3948   26.3844   45.4201 H   0  0  0  0  0  0  0  0  0  0  0  0
   60.4259   27.8553   45.4201 H   0  0  0  0  0  0  0  0  0  0  0  0
   59.5154   29.8761   44.6510 H   0  0  0  0  0  0  0  0  0  0  0  0
   58.4527   31.4647   43.0773 H   0  0  0  0  0  0  0  0  0  0  0  0
   56.7184   31.8846   43.3293 H   0  0  0  0  0  0  0  0  0  0  0  0
   57.2035   31.4775   46.5166 H   0  0  0  0  0  0  0  0  0  0  0  0
   57.9046   33.1559   48.2253 H   0  0  0  0  0  0  0  0  0  0  0  0
   59.1473   35.2067   47.5301 H   0  0  0  0  0  0  0  0  0  0  0  0
   59.6885   35.5840   45.1232 H   0  0  0  0  0  0  0  0  0  0  0  0
   58.9950   33.9093   43.4068 H   0  0  0  0  0  0  0  0  0  0  0  0
  1  2  1  0
  2  3  2  0
  3  4  1  0
  4  5  1  0
  5  6  1  0
  6  7  2  0
  7  8  1  0
  8  9  2  0
  9 10  1  0
 10 11  2  0
  4 12  1  0
 12 13  2  0
 12 14  1  0
 14 15  1  0
 15 16  2  0
 15  2  1  0
 11  6  1  0
  1 17  1  0
  1 18  1  0
  1 19  1  0
  3 20  1  0
  5 21  1  0
  5 22  1  0
  7 23  1  0
  8 24  1  0
  9 25  1  0
 10 26  1  0
 11 27  1  0
M  CHG  1  14  -1
M  END
>  <UniqueID>  (85) 
72

>  <SMILES>  (85) 
Cc1cn(Cc2ccccc2)c(=O)[n-]c1=O

>  <Energy>  (85) 
29.315239323199282

>  <Genealogy>  (85) 
Cc1cn(Cc2ccccc2)c(=O)[n-]c1=O (protonated)
Cc1cn(Cc2ccccc2)c(=O)[n-]c1=O (3D coordinates assigned)
Cc1cn(Cc2ccccc2)c(=O)[n-]c1=O (optimized conformer: 29.315239323199282 kcal/mol)

>  <smiles>  (85) 
Cc1cn(Cc2ccccc2)c(=O)[nH]c1=O

>  <score_type>  (85) 
oracle

>  <origin>  (85) 
adg

>  <m_score__min__energy>  (85) 
-8.2200000000000006

>  <m_primary>  (85) 
energy

$$$$
86:0
     RDKit          3D

 48 51  0  0  0  0  0  0  0  0999 V2000
   55.2300   23.9230   47.2910 O   0  0  0  0  0  0  0  0  0  0  0  0
   56.0890   24.5220   46.3680 C   0  0  0  0  0  0  0  0  0  0  0  0
   56.8090   23.6870   45.5280 C   0  0  0  0  0  0  0  0  0  0  0  0
   57.6710   24.2780   44.6020 C   0  0  0  0  0  0  0  0  0  0  0  0
   57.7930   25.6360   44.5350 C   0  0  0  0  0  0  0  0  0  0  0  0
   57.0790   26.4720   45.3690 C   0  0  0  0  0  0  0  0  0  0  0  0
   57.1990   27.9300   45.3080 C   0  0  0  0  0  0  0  0  0  0  0  0
   58.3760   28.6520   45.2950 C   0  0  0  0  0  0  0  0  0  0  0  0
   58.0110   29.9800   45.2330 C   0  0  0  0  0  0  0  0  0  0  0  0
   58.8950   31.1910   45.1940 C   0  0  0  0  0  0  0  0  0  0  0  0
   59.7670   31.2250   46.4170 C   0  0  0  0  0  0  0  0  0  0  0  0
   59.1400   31.9260   47.5840 C   0  0  0  0  0  0  0  0  0  0  0  0
   58.4430   33.1140   47.2690 N   0  0  0  0  0  0  0  0  0  0  0  0
   59.2000   34.3150   47.1680 C   0  0  0  0  0  0  0  0  0  0  0  0
   60.6100   34.1480   47.5200 C   0  0  0  0  0  0  0  0  0  0  0  0
   61.5270   33.9070   46.5030 C   0  0  0  0  0  0  0  0  0  0  0  0
   62.8720   33.7330   46.7380 C   0  0  0  0  0  0  0  0  0  0  0  0
   63.3720   33.7930   48.0220 C   0  0  0  0  0  0  0  0  0  0  0  0
   62.4730   34.0320   49.0490 C   0  0  0  0  0  0  0  0  0  0  0  0
   61.1210   34.2050   48.7970 C   0  0  0  0  0  0  0  0  0  0  0  0
   57.4490   32.9670   46.2330 C   0  0  0  0  0  0  0  0  0  0  0  0
   58.0980   32.4440   44.9720 C   0  0  0  0  0  0  0  0  0  0  0  0
   56.6610   30.0350   45.2100 N   0  0  0  0  0  0  0  0  0  0  0  0
   56.1590   28.8120   45.2550 N   0  0  0  0  0  0  0  0  0  0  0  0
   56.2250   25.9000   46.2870 C   0  0  0  0  0  0  0  0  0  0  0  0
   55.0870   22.9260   47.3510 H   0  0  0  0  0  0  0  0  0  0  0  0
   56.7047   22.5937   45.5889 H   0  0  0  0  0  0  0  0  0  0  0  0
   58.2569   23.6437   43.9205 H   0  0  0  0  0  0  0  0  0  0  0  0
   58.4791   26.0758   43.7962 H   0  0  0  0  0  0  0  0  0  0  0  0
   59.3989   28.2487   45.3276 H   0  0  0  0  0  0  0  0  0  0  0  0
   59.5704   31.1288   44.3280 H   0  0  0  0  0  0  0  0  0  0  0  0
   59.9907   30.1895   46.7131 H   0  0  0  0  0  0  0  0  0  0  0  0
   60.6725   31.7900   46.1509 H   0  0  0  0  0  0  0  0  0  0  0  0
   58.4310   31.2310   48.0575 H   0  0  0  0  0  0  0  0  0  0  0  0
   59.9693   32.2243   48.2422 H   0  0  0  0  0  0  0  0  0  0  0  0
   59.1407   34.6777   46.1312 H   0  0  0  0  0  0  0  0  0  0  0  0
   58.7701   35.0294   47.8855 H   0  0  0  0  0  0  0  0  0  0  0  0
   61.1621   33.8531   45.4667 H   0  0  0  0  0  0  0  0  0  0  0  0
   63.5534   33.5446   45.8952 H   0  0  0  0  0  0  0  0  0  0  0  0
   64.4447   33.6562   48.2233 H   0  0  0  0  0  0  0  0  0  0  0  0
   62.8395   34.0855   50.0848 H   0  0  0  0  0  0  0  0  0  0  0  0
   60.4387   34.3927   49.6392 H   0  0  0  0  0  0  0  0  0  0  0  0
   56.6758   32.2592   46.5664 H   0  0  0  0  0  0  0  0  0  0  0  0
   56.9912   33.9458   46.0271 H   0  0  0  0  0  0  0  0  0  0  0  0
   57.3095   32.2311   44.2352 H   0  0  0  0  0  0  0  0  0  0  0  0
   58.7957   33.2173   44.6180 H   0  0  0  0  0  0  0  0  0  0  0  0
   55.1340   28.5650   45.2500 H   0  0  0  0  0  0  0  0  0  0  0  0
   55.6442   26.5440   46.9637 H   0  0  0  0  0  0  0  0  0  0  0  0
  1  2  1  0
  2  3  2  0
  3  4  1  0
  4  5  2  0
  5  6  1  0
  6  7  1  0
  7  8  2  0
  8  9  1  0
  9 10  1  0
 10 11  1  0
 11 12  1  0
 12 13  1  0
 13 14  1  0
 14 15  1  0
 15 16  2  0
 16 17  1  0
 17 18  2  0
 18 19  1  0
 19 20  2  0
 13 21  1  0
 21 22  1  0
  9 23  2  0
 23 24  1  0
  6 25  2  0
 25  2  1  0
 24  7  1  0
 22 10  1  0
 20 15  1  0
  1 26  1  0
  3 27  1  0
  4 28  1  0
  5 29  1  0
  8 30  1  0
 10 31  1  0
 11 32  1  0
 11 33  1  0
 12 34  1  0
 12 35  1  0
 14 36  1  0
 14 37  1  0
 16 38  1  0
 17 39  1  0
 18 40  1  0
 19 41  1  0
 20 42  1  0
 21 43  1  0
 21 44  1  0
 22 45  1  0
 22 46  1  0
 24 47  1  0
 25 48  1  0
M  END
>  <smiles>  (86) 
Oc1cccc(-c2cc(C3CCN(Cc4ccccc4)CC3)n[nH]2)c1

>  <score_type>  (86) 
oracle

>  <origin>  (86) 
adg

>  <m_score__min__energy>  (86) 
-9.9299999999999997

>  <m_primary>  (86) 
energy

$$$$
87:0
     RDKit          3D

 50 52  0  0  0  0  0  0  0  0999 V2000
   60.8940   33.2590   54.2430 C   0  0  0  0  0  0  0  0  0  0  0  0
   59.7910   34.2790   53.9610 C   0  0  0  0  0  0  0  0  0  0  0  0
   58.7690   33.7080   53.0780 N   0  0  0  0  0  0  0  0  0  0  0  0
   59.0610   32.9150   51.9070 C   0  0  0  0  0  0  0  0  0  0  0  0
   60.2000   33.1900   51.1270 C   0  0  0  0  0  0  0  0  0  0  0  0
   60.5250   32.3880   50.0320 C   0  0  0  0  0  0  0  0  0  0  0  0
   59.7270   31.2940   49.6980 C   0  0  0  0  0  0  0  0  0  0  0  0
   60.1250   30.3220   48.2830 S   0  0  0  0  0  0  0  0  0  0  0  0
   61.4470   30.7820   47.7360 O   0  0  0  0  0  0  0  0  0  0  0  0
   60.2230   28.8640   48.6390 O   0  0  0  0  0  0  0  0  0  0  0  0
   58.9010   30.5320   47.0720 N   0  0  0  0  0  0  0  0  0  0  0  0
   58.5900   31.7710   46.4180 C   0  0  0  0  0  0  0  0  0  0  0  0
   59.0030   33.0110   46.9460 C   0  0  0  0  0  0  0  0  0  0  0  0
   58.6860   34.2020   46.2840 C   0  0  0  0  0  0  0  0  0  0  0  0
   57.9540   34.1700   45.0940 C   0  0  0  0  0  0  0  0  0  0  0  0
   57.5370   32.9450   44.5650 C   0  0  0  0  0  0  0  0  0  0  0  0
   57.8480   31.7490   45.2240 C   0  0  0  0  0  0  0  0  0  0  0  0
   57.3130   30.2240   44.5260 Cl  0  0  0  0  0  0  0  0  0  0  0  0
   58.5960   31.0000   50.4680 C   0  0  0  0  0  0  0  0  0  0  0  0
   58.2440   31.8080   51.5630 C   0  0  0  0  0  0  0  0  0  0  0  0
   56.9860   31.5060   52.2830 C   0  0  0  0  0  0  0  0  0  0  0  0
   56.8170   31.9430   53.4540 O   0  0  0  0  0  0  0  0  0  0  0  0
   55.9670   30.7180   51.6500 N   0  0  0  0  0  0  0  0  0  0  0  0
   54.6100   30.6350   52.1210 C   0  0  0  0  0  0  0  0  0  0  0  0
   54.2500   29.7660   53.1640 C   0  0  0  0  0  0  0  0  0  0  0  0
   52.9310   29.7240   53.6220 C   0  0  0  0  0  0  0  0  0  0  0  0
   51.9610   30.5510   53.0520 C   0  0  0  0  0  0  0  0  0  0  0  0
   52.3040   31.4400   52.0190 C   0  0  0  0  0  0  0  0  0  0  0  0
   51.2760   32.3200   51.4200 C   0  0  0  0  0  0  0  0  0  0  0  0
   50.2810   32.6960   52.0970 O   0  0  0  0  0  0  0  0  0  0  0  0
   51.3930   32.7450   50.1000 O   0  0  0  0  0  0  0  0  0  0  0  0
   53.6350   31.4800   51.5650 C   0  0  0  0  0  0  0  0  0  0  0  0
   61.0181   33.1442   55.3299 H   0  0  0  0  0  0  0  0  0  0  0  0
   60.6190   32.2900   53.8010 H   0  0  0  0  0  0  0  0  0  0  0  0
   61.8386   33.6088   53.8010 H   0  0  0  0  0  0  0  0  0  0  0  0
   59.3223   34.5757   54.9109 H   0  0  0  0  0  0  0  0  0  0  0  0
   60.2372   35.1538   53.4654 H   0  0  0  0  0  0  0  0  0  0  0  0
   57.7710   33.8960   53.3250 H   0  0  0  0  0  0  0  0  0  0  0  0
   60.8410   34.0464   51.3833 H   0  0  0  0  0  0  0  0  0  0  0  0
   61.4154   32.6200   49.4291 H   0  0  0  0  0  0  0  0  0  0  0  0
   59.5776   33.0424   47.8835 H   0  0  0  0  0  0  0  0  0  0  0  0
   59.0136   35.1657   46.7011 H   0  0  0  0  0  0  0  0  0  0  0  0
   57.7063   35.1073   44.5743 H   0  0  0  0  0  0  0  0  0  0  0  0
   56.9623   32.9204   43.6274 H   0  0  0  0  0  0  0  0  0  0  0  0
   57.9761   30.1276   50.2137 H   0  0  0  0  0  0  0  0  0  0  0  0
   56.2540   30.0920   50.8650 H   0  0  0  0  0  0  0  0  0  0  0  0
   55.0098   29.1158   53.6221 H   0  0  0  0  0  0  0  0  0  0  0  0
   52.6553   29.0365   54.4352 H   0  0  0  0  0  0  0  0  0  0  0  0
   50.9230   30.5064   53.4134 H   0  0  0  0  0  0  0  0  0  0  0  0
   53.9156   32.1812   50.7652 H   0  0  0  0  0  0  0  0  0  0  0  0
  1  2  1  0
  2  3  1  0
  3  4  1  0
  4  5  2  0
  5  6  1  0
  6  7  2  0
  7  8  1  0
  8  9  2  0
  8 10  2  0
  8 11  1  0
 11 12  1  0
 12 13  2  0
 13 14  1  0
 14 15  2  0
 15 16  1  0
 16 17  2  0
 17 18  1  0
  7 19  1  0
 19 20  2  0
 20 21  1  0
 21 22  2  0
 21 23  1  0
 23 24  1  0
 24 25  2  0
 25 26  1  0
 26 27  2  0
 27 28  1  0
 28 29  1  0
 29 30  2  0
 29 31  1  0
 28 32  2  0
 20  4  1  0
 32 24  1  0
 17 12  1  0
  1 33  1  0
  1 34  1  0
  1 35  1  0
  2 36  1  0
  2 37  1  0
  3 38  1  0
  5 39  1  0
  6 40  1  0
 13 41  1  0
 14 42  1  0
 15 43  1  0
 16 44  1  0
 19 45  1  0
 23 46  1  0
 25 47  1  0
 26 48  1  0
 27 49  1  0
 32 50  1  0
M  CHG  2  11  -1  31  -1
M  END
>  <UniqueID>  (87) 
73

>  <SMILES>  (87) 
CCNc1ccc(S(=O)(=O)[N-]c2ccccc2Cl)cc1C(=O)Nc1cccc(C(=O)[O-])c1

>  <Energy>  (87) 
63.244239248617205

>  <Genealogy>  (87) 
CCNc1ccc(S(=O)(=O)[N-]c2ccccc2Cl)cc1C(=O)Nc1cccc(C(=O)[O-])c1 (protonated)
CCNc1ccc(S(=O)(=O)[N-]c2ccccc2Cl)cc1C(=O)Nc1cccc(C(=O)[O-])c1 (3D coordinates assigned)
CCNc1ccc(S(=O)(=O)[N-]c2ccccc2Cl)cc1C(=O)Nc1cccc(C(=O)[O-])c1 (optimized conformer: 63.244239248617205 kcal/mol)

>  <smiles>  (87) 
CCNc1ccc(S(=O)(=O)Nc2ccccc2Cl)cc1C(=O)Nc1cccc(C(=O)O)c1

>  <score_type>  (87) 
oracle

>  <origin>  (87) 
adg

>  <m_score__min__energy>  (87) 
-13.84

>  <m_primary>  (87) 
energy

$$$$
88:0
     RDKit          3D

 34 36  0  0  0  0  0  0  0  0999 V2000
   60.7328   33.8523   49.4422 H   0  0  0  0  0  0  0  0  0  0  0  0
   60.0770   33.8120   48.5600 C   0  0  0  0  0  0  0  0  0  0  0  0
   60.3700   34.5890   47.4360 C   0  0  0  0  0  0  0  0  0  0  0  0
   61.2563   35.2406   47.4343 H   0  0  0  0  0  0  0  0  0  0  0  0
   59.5380   34.5390   46.3140 C   0  0  0  0  0  0  0  0  0  0  0  0
   59.7747   35.1507   45.4309 H   0  0  0  0  0  0  0  0  0  0  0  0
   58.4000   33.7120   46.3060 C   0  0  0  0  0  0  0  0  0  0  0  0
   57.5310   33.6350   45.1080 C   0  0  0  0  0  0  0  0  0  0  0  0
   57.0040   34.6840   44.6460 O   0  0  0  0  0  0  0  0  0  0  0  0
   57.3130   32.3740   44.4530 N   0  0  0  0  0  0  0  0  0  0  0  0
   56.5280   31.4530   44.8620 N   0  0  0  0  0  0  0  0  0  0  0  0
   56.9160   30.1010   45.1430 C   0  0  0  0  0  0  0  0  0  0  0  0
   56.1470   28.9710   44.9220 C   0  0  0  0  0  0  0  0  0  0  0  0
   54.8260   28.9730   44.4910 O   0  0  0  0  0  0  0  0  0  0  0  0
   56.8500   27.8470   45.1770 N   0  0  0  0  0  0  0  0  0  0  0  0
   56.5160   26.8600   45.0910 H   0  0  0  0  0  0  0  0  0  0  0  0
   58.0820   28.2650   45.5260 C   0  0  0  0  0  0  0  0  0  0  0  0
   59.1840   27.4720   45.8380 C   0  0  0  0  0  0  0  0  0  0  0  0
   59.1044   26.3751   45.8592 H   0  0  0  0  0  0  0  0  0  0  0  0
   60.4010   28.1150   46.1250 C   0  0  0  0  0  0  0  0  0  0  0  0
   61.2830   27.5133   46.3898 H   0  0  0  0  0  0  0  0  0  0  0  0
   60.5070   29.5240   46.0780 C   0  0  0  0  0  0  0  0  0  0  0  0
   61.7470   30.1090   46.3740 O   0  0  0  0  0  0  0  0  0  0  0  0
   61.9260   31.1970   47.2750 C   0  0  0  0  0  0  0  0  0  0  0  0
   61.8656   30.8296   48.3101 H   0  0  0  0  0  0  0  0  0  0  0  0
   62.9116   31.6551   47.1055 H   0  0  0  0  0  0  0  0  0  0  0  0
   61.1391   31.9467   47.1055 H   0  0  0  0  0  0  0  0  0  0  0  0
   59.3730   30.3000   45.7380 C   0  0  0  0  0  0  0  0  0  0  0  0
   59.4391   31.3955   45.6644 H   0  0  0  0  0  0  0  0  0  0  0  0
   58.1700   29.6370   45.4990 C   0  0  0  0  0  0  0  0  0  0  0  0
   58.1170   32.9320   47.4440 C   0  0  0  0  0  0  0  0  0  0  0  0
   57.2332   32.2772   47.4520 H   0  0  0  0  0  0  0  0  0  0  0  0
   58.9530   32.9850   48.5640 C   0  0  0  0  0  0  0  0  0  0  0  0
   58.7241   32.3738   49.4495 H   0  0  0  0  0  0  0  0  0  0  0  0
  1  2  1  0
  2  3  2  0
  3  4  1  0
  3  5  1  0
  5  6  1  0
  5  7  2  0
  7  8  1  0
  8  9  2  0
  8 10  1  0
 10 11  2  0
 11 12  1  0
 12 13  2  0
 13 14  1  0
 13 15  1  0
 15 16  1  0
 15 17  1  0
 17 18  2  0
 18 19  1  0
 18 20  1  0
 20 21  1  0
 20 22  2  0
 22 23  1  0
 23 24  1  0
 24 25  1  0
 24 26  1  0
 24 27  1  0
 22 28  1  0
 28 29  1  0
 28 30  2  0
  7 31  1  0
 31 32  1  0
 31 33  2  0
 33 34  1  0
 33  2  1  0
 30 12  1  0
 30 17  1  0
M  CHG  1  14  -1
M  END
>  <UniqueID>  (88) 
74

>  <SMILES>  (88) 
COc1ccc2[nH]c([O-])c(/N=N\C(=O)c3ccccc3)c2c1

>  <Energy>  (88) 
82.5305872275308

>  <Genealogy>  (88) 
COc1ccc2[nH]c([O-])c(N=NC(=O)c3ccccc3)c2c1 (protonated)
COc1ccc2[nH]c([O-])c(/N=N\C(=O)c3ccccc3)c2c1 (cis-trans isomerization)
COc1ccc2[nH]c([O-])c(/N=N\C(=O)c3ccccc3)c2c1 (3D coordinates assigned)
COc1ccc2[nH]c([O-])c(/N=N\C(=O)c3ccccc3)c2c1 (optimized conformer: 82.5305872275308 kcal/mol)

>  <smiles>  (88) 
COc1ccc2[nH]c(O)c(N=NC(=O)c3ccccc3)c2c1

>  <score_type>  (88) 
oracle

>  <origin>  (88) 
adg

>  <m_score__min__energy>  (88) 
-10.869999999999999

>  <m_primary>  (88) 
energy

$$$$
89:0
     RDKit          3D

 23 24  0  0  0  0  0  0  0  0999 V2000
   58.2320   29.1310   46.4250 C   0  0  0  0  0  0  0  0  0  0  0  0
   57.4080   30.2790   46.2630 O   0  0  0  0  0  0  0  0  0  0  0  0
   57.6410   31.2040   45.2410 C   0  0  0  0  0  0  0  0  0  0  0  0
   57.1790   30.9630   43.9300 C   0  0  0  0  0  0  0  0  0  0  0  0
   56.5180   29.7290   43.5910 N   0  0  0  0  0  0  0  0  0  0  0  0
   56.9480   29.0130   42.6630 O   0  0  0  0  0  0  0  0  0  0  0  0
   55.3730   29.3430   44.2500 O   0  0  0  0  0  0  0  0  0  0  0  0
   57.4050   31.9550   42.9530 C   0  0  0  0  0  0  0  0  0  0  0  0
   57.0170   31.7850   41.7670 O   0  0  0  0  0  0  0  0  0  0  0  0
   58.0480   33.0760   43.2620 O   0  0  0  0  0  0  0  0  0  0  0  0
   58.5130   33.3290   44.4790 C   0  0  0  0  0  0  0  0  0  0  0  0
   59.1870   34.5300   44.7270 C   0  0  0  0  0  0  0  0  0  0  0  0
   59.6810   34.8070   46.0040 C   0  0  0  0  0  0  0  0  0  0  0  0
   59.5030   33.8860   47.0400 C   0  0  0  0  0  0  0  0  0  0  0  0
   58.8300   32.6830   46.8040 C   0  0  0  0  0  0  0  0  0  0  0  0
   58.3320   32.3940   45.5200 C   0  0  0  0  0  0  0  0  0  0  0  0
   58.3755   28.9310   47.4971 H   0  0  0  0  0  0  0  0  0  0  0  0
   57.7492   28.2634   45.9516 H   0  0  0  0  0  0  0  0  0  0  0  0
   59.2085   29.3108   45.9516 H   0  0  0  0  0  0  0  0  0  0  0  0
   59.3282   35.2578   43.9144 H   0  0  0  0  0  0  0  0  0  0  0  0
   60.2111   35.7518   46.1945 H   0  0  0  0  0  0  0  0  0  0  0  0
   59.8934   34.1080   48.0441 H   0  0  0  0  0  0  0  0  0  0  0  0
   58.6898   31.9620   47.6229 H   0  0  0  0  0  0  0  0  0  0  0  0
  1  2  1  0
  2  3  1  0
  3  4  2  0
  4  5  1  0
  5  6  2  0
  5  7  1  0
  4  8  1  0
  8  9  2  0
  8 10  1  0
 10 11  1  0
 11 12  2  0
 12 13  1  0
 13 14  2  0
 14 15  1  0
 15 16  2  0
 16  3  1  0
 16 11  1  0
  1 17  1  0
  1 18  1  0
  1 19  1  0
 12 20  1  0
 13 21  1  0
 14 22  1  0
 15 23  1  0
M  CHG  2   5   1   7  -1
M  END
>  <UniqueID>  (89) 
75

>  <SMILES>  (89) 
COc1c([N+](=O)[O-])c(=O)oc2ccccc12

>  <Energy>  (89) 
38.901106181746734

>  <Genealogy>  (89) 
COc1c([N+](=O)[O-])c(=O)oc2ccccc12 (3D coordinates assigned)
COc1c([N+](=O)[O-])c(=O)oc2ccccc12 (optimized conformer: 38.901106181746734 kcal/mol)

>  <smiles>  (89) 
COc1c([N+](=O)[O-])c(=O)oc2ccccc12

>  <score_type>  (89) 
oracle

>  <origin>  (89) 
adg

>  <m_score__min__energy>  (89) 
-5.8200000000000003

>  <m_primary>  (89) 
energy

$$$$
90:0
     RDKit          3D

 35 37  0  0  1  0  0  0  0  0999 V2000
   55.5890   23.0640   47.6390 C   0  0  0  0  0  0  0  0  0  0  0  0
   55.5190   24.0810   46.6600 O   0  0  0  0  0  0  0  0  0  0  0  0
   56.5640   24.9810   46.5730 C   0  0  0  0  0  0  0  0  0  0  0  0
   57.8870   24.6710   46.6980 C   0  0  0  0  0  0  0  0  0  0  0  0
   58.9000   25.6170   46.6060 C   0  0  0  0  0  0  0  0  0  0  0  0
   58.5840   26.9520   46.3770 C   0  0  0  0  0  0  0  0  0  0  0  0
   59.6160   27.9860   46.2680 C   0  0  0  0  0  0  0  0  0  0  0  0
   59.5440   29.0210   47.1060 C   0  0  0  0  0  0  0  0  0  0  0  0
   59.7790   28.8520   48.5330 C   0  0  0  0  0  0  0  0  0  0  0  0
   59.9810   28.7040   49.6720 N   0  0  0  0  0  0  0  0  0  0  0  0
   59.2270   30.3810   46.6340 C   0  0  0  0  0  0  0  0  0  0  0  0
   58.0460   30.7680   46.0610 N   0  0  0  0  0  0  0  0  0  0  0  0
   58.1030   32.0710   45.7470 C   0  0  0  0  0  0  0  0  0  0  0  0
   57.1360   32.8540   45.1600 C   0  0  0  0  0  0  0  0  0  0  0  0
   57.4030   34.1700   44.9260 C   0  0  0  0  0  0  0  0  0  0  0  0
   58.6480   34.6590   45.2970 C   0  0  0  0  0  0  0  0  0  0  0  0
   59.6110   33.8650   45.8850 C   0  0  0  0  0  0  0  0  0  0  0  0
   59.3450   32.5370   46.1230 C   0  0  0  0  0  0  0  0  0  0  0  0
   59.9790   31.4810   46.6490 N   0  0  0  0  0  0  0  0  0  0  0  0
   57.2460   27.2660   46.2480 C   0  0  0  0  0  0  0  0  0  0  0  0
   56.2400   26.3070   46.3430 C   0  0  0  0  0  0  0  0  0  0  0  0
   54.8930   26.6710   46.2050 O   0  0  0  0  0  0  0  0  0  0  0  0
   55.5578   23.5168   48.6410 H   0  0  0  0  0  0  0  0  0  0  0  0
   54.7358   22.3802   47.5190 H   0  0  0  0  0  0  0  0  0  0  0  0
   56.5278   22.5035   47.5190 H   0  0  0  0  0  0  0  0  0  0  0  0
   58.1645   23.6223   46.8803 H   0  0  0  0  0  0  0  0  0  0  0  0
   59.9509   25.3107   46.7141 H   0  0  0  0  0  0  0  0  0  0  0  0
   60.4210   27.9115   45.5221 H   0  0  0  0  0  0  0  0  0  0  0  0
   56.1618   32.4244   44.8836 H   0  0  0  0  0  0  0  0  0  0  0  0
   56.6541   34.8251   44.4570 H   0  0  0  0  0  0  0  0  0  0  0  0
   58.8755   35.7198   45.1153 H   0  0  0  0  0  0  0  0  0  0  0  0
   60.5862   34.2919   46.1619 H   0  0  0  0  0  0  0  0  0  0  0  0
   60.9530   31.5480   47.0230 H   0  0  0  0  0  0  0  0  0  0  0  0
   56.9635   28.3129   46.0632 H   0  0  0  0  0  0  0  0  0  0  0  0
   54.1740   25.9670   46.3720 H   0  0  0  0  0  0  0  0  0  0  0  0
  1  2  1  0
  2  3  1  0
  3  4  2  0
  4  5  1  0
  5  6  2  0
  6  7  1  0
  7  8  2  0
  8  9  1  0
  9 10  3  0
  8 11  1  0
 11 12  2  0
 12 13  1  0
 13 14  2  0
 14 15  1  0
 15 16  2  0
 16 17  1  0
 17 18  2  0
 18 19  1  0
  6 20  1  0
 20 21  2  0
 21 22  1  0
 21  3  1  0
 19 11  1  0
 18 13  1  0
  1 23  1  0
  1 24  1  0
  1 25  1  0
  4 26  1  0
  5 27  1  0
  7 28  1  0
 14 29  1  0
 15 30  1  0
 16 31  1  0
 17 32  1  0
 19 33  1  0
 20 34  1  0
 22 35  1  0
M  END
>  <smiles>  (90) 
COc1ccc(C=C(C#N)c2nc3ccccc3[nH]2)cc1O

>  <score_type>  (90) 
oracle

>  <origin>  (90) 
adg

>  <m_score__min__energy>  (90) 
-8.0099999999999998

>  <m_primary>  (90) 
energy

$$$$
91:0
     RDKit          3D

 33 35  0  0  0  0  0  0  0  0999 V2000
   58.0120   21.0880   43.3080 N   0  0  0  0  0  0  0  0  0  0  0  0
   56.6970   22.0770   43.8410 S   0  0  0  0  0  0  0  0  0  0  0  0
   55.7990   21.2740   44.7400 O   0  0  0  0  0  0  0  0  0  0  0  0
   55.9000   22.5340   42.6510 O   0  0  0  0  0  0  0  0  0  0  0  0
   57.3220   23.4730   44.7120 C   0  0  0  0  0  0  0  0  0  0  0  0
   58.6240   23.4570   45.2270 C   0  0  0  0  0  0  0  0  0  0  0  0
   59.1180   24.5660   45.9190 C   0  0  0  0  0  0  0  0  0  0  0  0
   58.3210   25.7010   46.0860 C   0  0  0  0  0  0  0  0  0  0  0  0
   57.0240   25.7440   45.5400 C   0  0  0  0  0  0  0  0  0  0  0  0
   56.1590   26.8790   45.7090 N   0  0  0  0  0  0  0  0  0  0  0  0
   56.4670   28.1260   45.5070 C   0  0  0  0  0  0  0  0  0  0  0  0
   55.6940   29.0080   44.8360 N   0  0  0  0  0  0  0  0  0  0  0  0
   56.2120   30.2350   44.8060 N   0  0  0  0  0  0  0  0  0  0  0  0
   57.3960   30.3430   45.4570 C   0  0  0  0  0  0  0  0  0  0  0  0
   58.1580   31.6070   45.5620 C   0  0  0  0  0  0  0  0  0  0  0  0
   59.2770   31.7110   46.4120 C   0  0  0  0  0  0  0  0  0  0  0  0
   59.9900   32.9100   46.5010 C   0  0  0  0  0  0  0  0  0  0  0  0
   59.5970   34.0180   45.7450 C   0  0  0  0  0  0  0  0  0  0  0  0
   60.2890   35.1800   45.8340 F   0  0  0  0  0  0  0  0  0  0  0  0
   58.4900   33.9270   44.8990 C   0  0  0  0  0  0  0  0  0  0  0  0
   57.7740   32.7300   44.8060 C   0  0  0  0  0  0  0  0  0  0  0  0
   57.8490   28.8540   46.1220 S   0  0  0  0  0  0  0  0  0  0  0  0
   56.5260   24.6160   44.8740 C   0  0  0  0  0  0  0  0  0  0  0  0
   57.5940   20.2390   42.8670 H   0  0  0  0  0  0  0  0  0  0  0  0
   58.5160   20.7660   44.1640 H   0  0  0  0  0  0  0  0  0  0  0  0
   59.2591   22.5699   45.0866 H   0  0  0  0  0  0  0  0  0  0  0  0
   60.1368   24.5452   46.3332 H   0  0  0  0  0  0  0  0  0  0  0  0
   58.7083   26.5647   46.6464 H   0  0  0  0  0  0  0  0  0  0  0  0
   59.5916   30.8427   47.0096 H   0  0  0  0  0  0  0  0  0  0  0  0
   60.8622   32.9817   47.1674 H   0  0  0  0  0  0  0  0  0  0  0  0
   58.1806   34.7992   44.3043 H   0  0  0  0  0  0  0  0  0  0  0  0
   56.9035   32.6654   44.1366 H   0  0  0  0  0  0  0  0  0  0  0  0
   55.5011   24.6273   44.4746 H   0  0  0  0  0  0  0  0  0  0  0  0
  1  2  1  0
  2  3  2  0
  2  4  2  0
  2  5  1  0
  5  6  2  0
  6  7  1  0
  7  8  2  0
  8  9  1  0
  9 10  1  0
 10 11  2  3
 11 12  1  0
 12 13  1  0
 13 14  2  0
 14 15  1  0
 15 16  2  0
 16 17  1  0
 17 18  2  0
 18 19  1  0
 18 20  1  0
 20 21  2  0
 14 22  1  0
  9 23  2  0
 23  5  1  0
 22 11  1  0
 21 15  1  0
  1 24  1  0
  1 25  1  0
  6 26  1  0
  7 27  1  0
  8 28  1  0
 16 29  1  0
 17 30  1  0
 20 31  1  0
 21 32  1  0
 23 33  1  0
M  CHG  1  12  -1
M  END
>  <UniqueID>  (91) 
76

>  <SMILES>  (91) 
NS(=O)(=O)c1cccc(N=c2[n-]nc(-c3ccc(F)cc3)s2)c1

>  <Energy>  (91) 
75.56745817955841

>  <Genealogy>  (91) 
NS(=O)(=O)c1cccc(N=c2[n-]nc(-c3ccc(F)cc3)s2)c1 (protonated)
NS(=O)(=O)c1cccc(N=c2[n-]nc(-c3ccc(F)cc3)s2)c1 (3D coordinates assigned)
NS(=O)(=O)c1cccc(N=c2[n-]nc(-c3ccc(F)cc3)s2)c1 (optimized conformer: 75.56745817955841 kcal/mol)

>  <smiles>  (91) 
NS(=O)(=O)c1cccc(N=c2[nH]nc(-c3ccc(F)cc3)s2)c1

>  <score_type>  (91) 
oracle

>  <origin>  (91) 
adg

>  <m_score__min__energy>  (91) 
-10.44

>  <m_primary>  (91) 
energy

$$$$
