0:0
     RDKit          3D

 31 32  0  0  0  0  0  0  0  0999 V2000
   58.1490   29.1320   47.4800 O   0  0  0  0  0  0  0  0  0  0  0  0
   58.8390   30.1450   47.1940 C   0  0  0  0  0  0  0  0  0  0  0  0
   59.1730   30.4210   45.7510 C   0  0  0  0  0  0  0  0  0  0  0  0
   58.7450   29.3190   44.8860 N   0  0  0  0  0  0  0  0  0  0  0  0
   59.5330   28.3100   44.4600 C   0  0  0  0  0  0  0  0  0  0  0  0
   58.7690   27.4360   43.7150 C   0  0  0  0  0  0  0  0  0  0  0  0
   57.5070   27.8990   43.6680 N   0  0  0  0  0  0  0  0  0  0  0  0
   57.5190   29.0470   44.3760 C   0  0  0  0  0  0  0  0  0  0  0  0
   56.3570   29.8760   44.5290 N   0  0  0  0  0  0  0  0  0  0  0  0
   56.4810   31.1170   44.5360 O   0  0  0  0  0  0  0  0  0  0  0  0
   55.1340   29.3310   44.8390 O   0  0  0  0  0  0  0  0  0  0  0  0
   59.2630   31.0080   48.2570 N   0  0  0  0  0  0  0  0  0  0  0  0
   58.6740   32.3040   48.5680 C   0  0  0  0  0  0  0  0  0  0  0  0
   58.5810   33.1200   47.3120 C   0  0  0  0  0  0  0  0  0  0  0  0
   59.7110   33.7920   46.8180 C   0  0  0  0  0  0  0  0  0  0  0  0
   59.6300   34.5240   45.6290 C   0  0  0  0  0  0  0  0  0  0  0  0
   58.4270   34.5810   44.9210 C   0  0  0  0  0  0  0  0  0  0  0  0
   57.3020   33.9020   45.3990 C   0  0  0  0  0  0  0  0  0  0  0  0
   57.3780   33.1690   46.5880 C   0  0  0  0  0  0  0  0  0  0  0  0
   58.6634   31.3433   45.4352 H   0  0  0  0  0  0  0  0  0  0  0  0
   60.2640   30.5294   45.6615 H   0  0  0  0  0  0  0  0  0  0  0  0
   60.6070   28.2022   44.6718 H   0  0  0  0  0  0  0  0  0  0  0  0
   59.1317   26.5133   43.2383 H   0  0  0  0  0  0  0  0  0  0  0  0
   56.6990   27.4650   43.1700 H   0  0  0  0  0  0  0  0  0  0  0  0
   57.6675   32.1592   48.9876 H   0  0  0  0  0  0  0  0  0  0  0  0
   59.3029   32.8282   49.3026 H   0  0  0  0  0  0  0  0  0  0  0  0
   60.6625   33.7425   47.3678 H   0  0  0  0  0  0  0  0  0  0  0  0
   60.5153   35.0559   45.2505 H   0  0  0  0  0  0  0  0  0  0  0  0
   58.3648   35.1599   43.9877 H   0  0  0  0  0  0  0  0  0  0  0  0
   56.3560   33.9443   44.8393 H   0  0  0  0  0  0  0  0  0  0  0  0
   56.4934   32.6294   46.9572 H   0  0  0  0  0  0  0  0  0  0  0  0
  1  2  2  0
  2  3  1  0
  3  4  1  0
  4  5  1  0
  5  6  2  0
  6  7  1  0
  7  8  2  0
  8  9  1  0
  9 10  2  0
  9 11  1  0
  2 12  1  0
 12 13  1  0
 13 14  1  0
 14 15  2  0
 15 16  1  0
 16 17  2  0
 17 18  1  0
 18 19  2  0
  8  4  1  0
 19 14  1  0
  3 20  1  0
  3 21  1  0
  5 22  1  0
  6 23  1  0
  7 24  1  0
 13 25  1  0
 13 26  1  0
 15 27  1  0
 16 28  1  0
 17 29  1  0
 18 30  1  0
 19 31  1  0
M  CHG  4   7   1   9   1  11  -1  12  -1
M  END
>  <UniqueID>  (1) 
1

>  <SMILES>  (1) 
O=C(Cn1cc[nH+]c1[N+](=O)[O-])[N-]Cc1ccccc1

>  <Energy>  (1) 
60.35951772502632

>  <Genealogy>  (1) 
O=C(Cn1cc[nH+]c1[N+](=O)[O-])[N-]Cc1ccccc1 (protonated)
O=C(Cn1cc[nH+]c1[N+](=O)[O-])[N-]Cc1ccccc1 (3D coordinates assigned)
O=C(Cn1cc[nH+]c1[N+](=O)[O-])[N-]Cc1ccccc1 (optimized conformer: 60.35951772502632 kcal/mol)

>  <smiles>  (1) 
O=C(Cn1ccnc1[N+](=O)[O-])NCc1ccccc1

>  <score_type>  (1) 
oracle

>  <origin>  (1) 
adg

>  <m_score__min__energy>  (1) 
-7.9500000000000002

>  <m_primary>  (1) 
energy

$$$$
1:0
     RDKit          3D

 48 50  0  0  0  0  0  0  0  0999 V2000
   57.0570   26.3800   47.2230 O   0  0  0  0  0  0  0  0  0  0  0  0
   56.5410   26.4620   46.0770 C   0  0  0  0  0  0  0  0  0  0  0  0
   57.4160   26.8590   44.9170 C   0  0  0  0  0  0  0  0  0  0  0  0
   57.7750   28.2840   45.0130 N   0  0  0  0  0  0  0  0  0  0  0  0
   59.0930   28.6250   45.1480 C   0  0  0  0  0  0  0  0  0  0  0  0
   59.4810   29.9630   45.2290 C   0  0  0  0  0  0  0  0  0  0  0  0
   58.5170   30.9690   45.1790 C   0  0  0  0  0  0  0  0  0  0  0  0
   58.9340   32.3390   45.2470 N   0  0  0  0  0  0  0  0  0  0  0  0
   58.4140   33.3170   46.1550 C   0  0  0  0  0  0  0  0  0  0  0  0
   57.1980   33.6380   46.0740 O   0  0  0  0  0  0  0  0  0  0  0  0
   59.3060   34.0660   47.1070 C   0  0  0  0  0  0  0  0  0  0  0  0
   60.6120   33.3370   47.2700 C   0  0  0  0  0  0  0  0  0  0  0  0
   60.6490   32.0750   47.8930 C   0  0  0  0  0  0  0  0  0  0  0  0
   61.8610   31.3850   48.0140 C   0  0  0  0  0  0  0  0  0  0  0  0
   63.0400   31.9460   47.5130 C   0  0  0  0  0  0  0  0  0  0  0  0
   63.0110   33.1970   46.8860 C   0  0  0  0  0  0  0  0  0  0  0  0
   61.8010   33.8890   46.7580 C   0  0  0  0  0  0  0  0  0  0  0  0
   57.1690   30.6220   44.9860 C   0  0  0  0  0  0  0  0  0  0  0  0
   56.2070   31.6260   44.8380 O   0  0  0  0  0  0  0  0  0  0  0  0
   56.8120   29.2630   44.9190 C   0  0  0  0  0  0  0  0  0  0  0  0
   55.5970   28.9490   44.7660 O   0  0  0  0  0  0  0  0  0  0  0  0
   55.1370   26.2050   45.9370 N   0  0  0  0  0  0  0  0  0  0  0  0
   54.5200   24.9180   45.6280 C   0  0  0  0  0  0  0  0  0  0  0  0
   55.5180   23.9850   44.9950 C   0  0  0  0  0  0  0  0  0  0  0  0
   56.4930   23.3510   45.7850 C   0  0  0  0  0  0  0  0  0  0  0  0
   57.4070   22.4690   45.2020 C   0  0  0  0  0  0  0  0  0  0  0  0
   57.3470   22.2040   43.8300 C   0  0  0  0  0  0  0  0  0  0  0  0
   56.3700   22.8160   43.0410 C   0  0  0  0  0  0  0  0  0  0  0  0
   55.4550   23.6990   43.6200 C   0  0  0  0  0  0  0  0  0  0  0  0
   58.3332   26.2519   44.9297 H   0  0  0  0  0  0  0  0  0  0  0  0
   56.8660   26.6905   43.9794 H   0  0  0  0  0  0  0  0  0  0  0  0
   59.8566   27.8345   45.1933 H   0  0  0  0  0  0  0  0  0  0  0  0
   60.5448   30.2233   45.3320 H   0  0  0  0  0  0  0  0  0  0  0  0
   59.4983   35.0735   46.7097 H   0  0  0  0  0  0  0  0  0  0  0  0
   58.8089   34.1395   48.0855 H   0  0  0  0  0  0  0  0  0  0  0  0
   59.7229   31.6299   48.2858 H   0  0  0  0  0  0  0  0  0  0  0  0
   61.8860   30.4004   48.5037 H   0  0  0  0  0  0  0  0  0  0  0  0
   63.9916   31.4032   47.6119 H   0  0  0  0  0  0  0  0  0  0  0  0
   63.9398   33.6367   46.4935 H   0  0  0  0  0  0  0  0  0  0  0  0
   61.7794   34.8673   46.2556 H   0  0  0  0  0  0  0  0  0  0  0  0
   56.4270   32.6070   44.9570 H   0  0  0  0  0  0  0  0  0  0  0  0
   54.1431   24.4663   46.5575 H   0  0  0  0  0  0  0  0  0  0  0  0
   53.6941   25.0837   44.9206 H   0  0  0  0  0  0  0  0  0  0  0  0
   56.5366   23.5499   46.8660 H   0  0  0  0  0  0  0  0  0  0  0  0
   58.1741   21.9829   45.8226 H   0  0  0  0  0  0  0  0  0  0  0  0
   58.0698   21.5130   43.3718 H   0  0  0  0  0  0  0  0  0  0  0  0
   56.3210   22.6025   41.9630 H   0  0  0  0  0  0  0  0  0  0  0  0
   54.6818   24.1725   42.9971 H   0  0  0  0  0  0  0  0  0  0  0  0
  1  2  2  0
  2  3  1  0
  3  4  1  0
  4  5  1  0
  5  6  2  0
  6  7  1  0
  7  8  1  0
  8  9  1  0
  9 10  2  0
  9 11  1  0
 11 12  1  0
 12 13  2  0
 13 14  1  0
 14 15  2  0
 15 16  1  0
 16 17  2  0
  7 18  2  0
 18 19  1  0
 18 20  1  0
 20 21  2  0
  2 22  1  0
 22 23  1  0
 23 24  1  0
 24 25  2  0
 25 26  1  0
 26 27  2  0
 27 28  1  0
 28 29  2  0
 20  4  1  0
 29 24  1  0
 17 12  1  0
  3 30  1  0
  3 31  1  0
  5 32  1  0
  6 33  1  0
 11 34  1  0
 11 35  1  0
 13 36  1  0
 14 37  1  0
 15 38  1  0
 16 39  1  0
 17 40  1  0
 19 41  1  0
 23 42  1  0
 23 43  1  0
 25 44  1  0
 26 45  1  0
 27 46  1  0
 28 47  1  0
 29 48  1  0
M  CHG  2   8  -1  22  -1
M  END
>  <UniqueID>  (2) 
2

>  <SMILES>  (2) 
O=C(Cn1ccc([N-]C(=O)Cc2ccccc2)c(O)c1=O)[N-]Cc1ccccc1

>  <Energy>  (2) 
55.83852081266237

>  <Genealogy>  (2) 
O=C(Cn1ccc([N-]C(=O)Cc2ccccc2)c(O)c1=O)[N-]Cc1ccccc1 (protonated)
O=C(Cn1ccc([N-]C(=O)Cc2ccccc2)c(O)c1=O)[N-]Cc1ccccc1 (3D coordinates assigned)
O=C(Cn1ccc([N-]C(=O)Cc2ccccc2)c(O)c1=O)[N-]Cc1ccccc1 (optimized conformer: 55.83852081266237 kcal/mol)

>  <smiles>  (2) 
O=C(Cn1ccc(NC(=O)Cc2ccccc2)c(O)c1=O)NCc1ccccc1

>  <score_type>  (2) 
oracle

>  <origin>  (2) 
adg

>  <m_score__min__energy>  (2) 
-12.16

>  <m_primary>  (2) 
energy

$$$$
2:0
     RDKit          3D

 31 33  0  0  0  0  0  0  0  0999 V2000
   55.2080   26.6380   45.9870 N   0  0  0  0  0  0  0  0  0  0  0  0
   56.9180   26.6610   45.7400 S   0  0  0  0  0  0  0  0  0  0  0  0
   57.2550   25.7700   44.5760 O   0  0  0  0  0  0  0  0  0  0  0  0
   57.6160   26.1470   46.9670 O   0  0  0  0  0  0  0  0  0  0  0  0
   57.4390   28.3150   45.4190 C   0  0  0  0  0  0  0  0  0  0  0  0
   58.7860   28.6750   45.5730 C   0  0  0  0  0  0  0  0  0  0  0  0
   59.2010   29.9840   45.3150 C   0  0  0  0  0  0  0  0  0  0  0  0
   58.2810   30.9500   44.8870 C   0  0  0  0  0  0  0  0  0  0  0  0
   58.7300   32.2940   44.6410 N   0  0  0  0  0  0  0  0  0  0  0  0
   58.9740   33.2600   45.6720 C   0  0  0  0  0  0  0  0  0  0  0  0
   59.9690   33.2970   46.5500 C   0  0  0  0  0  0  0  0  0  0  0  0
   61.0680   32.4450   46.6990 C   0  0  0  0  0  0  0  0  0  0  0  0
   61.9780   32.7060   47.7370 C   0  0  0  0  0  0  0  0  0  0  0  0
   63.3780   31.6710   47.9500 Cl  0  0  0  0  0  0  0  0  0  0  0  0
   61.7690   33.7920   48.6140 C   0  0  0  0  0  0  0  0  0  0  0  0
   60.6420   34.6190   48.4680 C   0  0  0  0  0  0  0  0  0  0  0  0
   59.7490   34.3490   47.4320 C   0  0  0  0  0  0  0  0  0  0  0  0
   58.6500   35.0020   47.2110 N   0  0  0  0  0  0  0  0  0  0  0  0
   58.0900   34.3310   46.0870 C   0  0  0  0  0  0  0  0  0  0  0  0
   56.9940   34.6380   45.5500 O   0  0  0  0  0  0  0  0  0  0  0  0
   56.9270   30.5960   44.7550 C   0  0  0  0  0  0  0  0  0  0  0  0
   56.5090   29.2860   45.0120 C   0  0  0  0  0  0  0  0  0  0  0  0
   55.1650   28.9590   44.8630 O   0  0  0  0  0  0  0  0  0  0  0  0
   54.7620   26.7270   45.0480 H   0  0  0  0  0  0  0  0  0  0  0  0
   59.5195   27.9227   45.8986 H   0  0  0  0  0  0  0  0  0  0  0  0
   60.2579   30.2581   45.4489 H   0  0  0  0  0  0  0  0  0  0  0  0
   58.9740   32.5620   43.6610 H   0  0  0  0  0  0  0  0  0  0  0  0
   61.2162   31.5919   46.0205 H   0  0  0  0  0  0  0  0  0  0  0  0
   62.4932   33.9925   49.4173 H   0  0  0  0  0  0  0  0  0  0  0  0
   60.4685   35.4600   49.1554 H   0  0  0  0  0  0  0  0  0  0  0  0
   56.1914   31.3540   44.4476 H   0  0  0  0  0  0  0  0  0  0  0  0
  1  2  1  0
  2  3  2  0
  2  4  2  0
  2  5  1  0
  5  6  2  0
  6  7  1  0
  7  8  2  0
  8  9  1  0
  9 10  1  0
 10 11  2  0
 11 12  1  0
 12 13  2  0
 13 14  1  0
 13 15  1  0
 15 16  2  0
 16 17  1  0
 17 18  2  0
 18 19  1  0
 19 20  2  0
  8 21  1  0
 21 22  2  0
 22 23  1  0
 22  5  1  0
 19 10  1  0
 17 11  1  0
  1 24  1  0
  6 25  1  0
  7 26  1  0
  9 27  1  0
 12 28  1  0
 15 29  1  0
 16 30  1  0
 21 31  1  0
M  CHG  2   1  -1  23  -1
M  END
>  <UniqueID>  (3) 
3

>  <SMILES>  (3) 
[NH-]S(=O)(=O)c1ccc(NC2=c3cc(Cl)ccc3=NC2=O)cc1[O-]

>  <Energy>  (3) 
73.61387343623879

>  <Genealogy>  (3) 
[NH-]S(=O)(=O)c1ccc(NC2=c3cc(Cl)ccc3=NC2=O)cc1[O-] (protonated)
[NH-]S(=O)(=O)c1ccc(NC2=c3cc(Cl)ccc3=NC2=O)cc1[O-] (3D coordinates assigned)
[NH-]S(=O)(=O)c1ccc(NC2=c3cc(Cl)ccc3=NC2=O)cc1[O-] (nonaromatic ring conformer: 73.61387343623879 kcal/mol)

>  <smiles>  (3) 
NS(=O)(=O)c1ccc(NC2=c3cc(Cl)ccc3=NC2=O)cc1O

>  <score_type>  (3) 
oracle

>  <origin>  (3) 
adg

>  <m_score__min__energy>  (3) 
-14.960000000000001

>  <m_primary>  (3) 
energy

$$$$
3:0
     RDKit          3D

 47 49  0  0  0  0  0  0  0  0999 V2000
   57.3990   32.2930   52.0040 C   0  0  0  0  0  0  0  0  0  0  0  0
   58.6560   32.2310   52.7420 N   0  0  0  0  0  0  0  0  0  0  0  0
   59.4920   33.7480   52.6070 S   0  0  0  0  0  0  0  0  0  0  0  0
   58.5050   34.8810   52.6790 O   0  0  0  0  0  0  0  0  0  0  0  0
   60.4570   33.8840   53.7510 O   0  0  0  0  0  0  0  0  0  0  0  0
   60.3880   33.8130   51.0900 C   0  0  0  0  0  0  0  0  0  0  0  0
   61.7860   33.8420   51.1150 C   0  0  0  0  0  0  0  0  0  0  0  0
   62.5090   33.8670   49.9200 C   0  0  0  0  0  0  0  0  0  0  0  0
   61.8390   33.8520   48.6940 C   0  0  0  0  0  0  0  0  0  0  0  0
   60.4330   33.8070   48.6500 C   0  0  0  0  0  0  0  0  0  0  0  0
   59.7140   33.7780   47.3530 C   0  0  0  0  0  0  0  0  0  0  0  0
   59.8990   34.7080   46.5200 O   0  0  0  0  0  0  0  0  0  0  0  0
   58.7690   32.7350   47.0600 N   0  0  0  0  0  0  0  0  0  0  0  0
   58.3150   32.4140   45.7340 C   0  0  0  0  0  0  0  0  0  0  0  0
   58.3930   33.3870   44.7260 C   0  0  0  0  0  0  0  0  0  0  0  0
   57.9370   33.1060   43.4360 C   0  0  0  0  0  0  0  0  0  0  0  0
   57.3960   31.8530   43.1390 C   0  0  0  0  0  0  0  0  0  0  0  0
   57.2920   30.8800   44.1410 C   0  0  0  0  0  0  0  0  0  0  0  0
   56.6040   29.2990   43.7810 S   0  0  0  0  0  0  0  0  0  0  0  0
   55.4370   29.4770   42.8530 O   0  0  0  0  0  0  0  0  0  0  0  0
   57.6220   28.4090   43.1230 O   0  0  0  0  0  0  0  0  0  0  0  0
   56.0560   28.5460   45.2450 N   0  0  0  0  0  0  0  0  0  0  0  0
   56.6540   27.3970   45.8620 C   0  0  0  0  0  0  0  0  0  0  0  0
   58.0280   27.3400   46.1580 C   0  0  0  0  0  0  0  0  0  0  0  0
   58.5680   26.2050   46.7740 C   0  0  0  0  0  0  0  0  0  0  0  0
   57.7500   25.1200   47.0890 C   0  0  0  0  0  0  0  0  0  0  0  0
   56.3840   25.1700   46.8040 C   0  0  0  0  0  0  0  0  0  0  0  0
   55.8370   26.3030   46.1930 C   0  0  0  0  0  0  0  0  0  0  0  0
   54.4750   26.3390   45.9150 O   0  0  0  0  0  0  0  0  0  0  0  0
   57.7420   31.1640   45.4380 C   0  0  0  0  0  0  0  0  0  0  0  0
   59.7150   33.7980   49.8600 C   0  0  0  0  0  0  0  0  0  0  0  0
   56.5591   32.3344   52.7131 H   0  0  0  0  0  0  0  0  0  0  0  0
   57.3893   33.1927   51.3712 H   0  0  0  0  0  0  0  0  0  0  0  0
   57.3008   31.3986   51.3712 H   0  0  0  0  0  0  0  0  0  0  0  0
   62.3176   33.8451   52.0780 H   0  0  0  0  0  0  0  0  0  0  0  0
   63.6083   33.8986   49.9443 H   0  0  0  0  0  0  0  0  0  0  0  0
   62.4144   33.8755   47.7568 H   0  0  0  0  0  0  0  0  0  0  0  0
   58.3040   32.2550   47.8640 H   0  0  0  0  0  0  0  0  0  0  0  0
   58.8157   34.3768   44.9530 H   0  0  0  0  0  0  0  0  0  0  0  0
   58.0042   33.8740   42.6514 H   0  0  0  0  0  0  0  0  0  0  0  0
   57.0517   31.6304   42.1183 H   0  0  0  0  0  0  0  0  0  0  0  0
   58.6796   28.1893   45.9048 H   0  0  0  0  0  0  0  0  0  0  0  0
   59.6416   26.1686   47.0106 H   0  0  0  0  0  0  0  0  0  0  0  0
   58.1809   24.2252   47.5618 H   0  0  0  0  0  0  0  0  0  0  0  0
   55.7376   24.3177   47.0602 H   0  0  0  0  0  0  0  0  0  0  0  0
   57.6465   30.4051   46.2285 H   0  0  0  0  0  0  0  0  0  0  0  0
   58.6153   33.7790   49.8409 H   0  0  0  0  0  0  0  0  0  0  0  0
  1  2  1  0
  2  3  1  0
  3  4  2  0
  3  5  2  0
  3  6  1  0
  6  7  2  0
  7  8  1  0
  8  9  2  0
  9 10  1  0
 10 11  1  0
 11 12  2  0
 11 13  1  0
 13 14  1  0
 14 15  2  0
 15 16  1  0
 16 17  2  0
 17 18  1  0
 18 19  1  0
 19 20  2  0
 19 21  2  0
 19 22  1  0
 22 23  1  0
 23 24  2  0
 24 25  1  0
 25 26  2  0
 26 27  1  0
 27 28  2  0
 28 29  1  0
 18 30  2  0
 10 31  2  0
 31  6  1  0
 30 14  1  0
 28 23  1  0
  1 32  1  0
  1 33  1  0
  1 34  1  0
  7 35  1  0
  8 36  1  0
  9 37  1  0
 13 38  1  0
 15 39  1  0
 16 40  1  0
 17 41  1  0
 24 42  1  0
 25 43  1  0
 26 44  1  0
 27 45  1  0
 30 46  1  0
 31 47  1  0
M  CHG  3   2  -1  22  -1  29  -1
M  END
>  <UniqueID>  (4) 
4

>  <SMILES>  (4) 
C[N-]S(=O)(=O)c1cccc(C(=O)Nc2cccc(S(=O)(=O)[N-]c3ccccc3[O-])c2)c1

>  <Energy>  (4) 
56.1145374394709

>  <Genealogy>  (4) 
C[N-]S(=O)(=O)c1cccc(C(=O)Nc2cccc(S(=O)(=O)[N-]c3ccccc3[O-])c2)c1 (protonated)
C[N-]S(=O)(=O)c1cccc(C(=O)Nc2cccc(S(=O)(=O)[N-]c3ccccc3[O-])c2)c1 (3D coordinates assigned)
C[N-]S(=O)(=O)c1cccc(C(=O)Nc2cccc(S(=O)(=O)[N-]c3ccccc3[O-])c2)c1 (optimized conformer: 56.1145374394709 kcal/mol)

>  <smiles>  (4) 
CNS(=O)(=O)c1cccc(C(=O)Nc2cccc(S(=O)(=O)Nc3ccccc3O)c2)c1

>  <score_type>  (4) 
oracle

>  <origin>  (4) 
adg

>  <m_score__min__energy>  (4) 
-16.260000000000002

>  <m_primary>  (4) 
energy

$$$$
4:0
     RDKit          3D

 41 43  0  0  0  0  0  0  0  0999 V2000
   56.8583   27.3117   43.5137 H   0  0  0  0  0  0  0  0  0  0  0  0
   57.3950   28.2600   43.6640 C   0  0  0  0  0  0  0  0  0  0  0  0
   56.6780   29.5320   43.4290 C   0  0  0  0  0  0  0  0  0  0  0  0
   56.3300   29.8560   42.2610 O   0  0  0  0  0  0  0  0  0  0  0  0
   56.4300   30.4520   44.4990 N   0  0  0  0  0  0  0  0  0  0  0  0
   57.3440   31.4360   45.0030 C   0  0  0  0  0  0  0  0  0  0  0  0
   57.7050   32.5100   44.1810 C   0  0  0  0  0  0  0  0  0  0  0  0
   57.3033   32.5754   43.1591 H   0  0  0  0  0  0  0  0  0  0  0  0
   58.5730   33.5000   44.6510 C   0  0  0  0  0  0  0  0  0  0  0  0
   58.8605   34.3338   43.9937 H   0  0  0  0  0  0  0  0  0  0  0  0
   59.0780   33.4340   45.9560 C   0  0  0  0  0  0  0  0  0  0  0  0
   60.1520   34.7010   46.5420 S   0  0  0  0  0  0  0  0  0  0  0  0
   59.9440   35.9750   45.7710 O   0  0  0  0  0  0  0  0  0  0  0  0
   59.8530   34.9640   47.9910 O   0  0  0  0  0  0  0  0  0  0  0  0
   61.8020   34.1910   46.3820 N   0  0  0  0  0  0  0  0  0  0  0  0
   62.4240   33.4720   47.2650 C   0  0  0  0  0  0  0  0  0  0  0  0
   61.8300   32.3810   47.8260 N   0  0  0  0  0  0  0  0  0  0  0  0
   62.4770   31.6300   48.7540 C   0  0  0  0  0  0  0  0  0  0  0  0
   61.9812   30.7537   49.1971 H   0  0  0  0  0  0  0  0  0  0  0  0
   63.7710   31.9720   49.1440 C   0  0  0  0  0  0  0  0  0  0  0  0
   64.3096   31.3738   49.8938 H   0  0  0  0  0  0  0  0  0  0  0  0
   64.3660   33.0890   48.5620 C   0  0  0  0  0  0  0  0  0  0  0  0
   65.3861   33.3825   48.8507 H   0  0  0  0  0  0  0  0  0  0  0  0
   63.6850   33.8160   47.6370 N   0  0  0  0  0  0  0  0  0  0  0  0
   58.6950   32.3770   46.7930 C   0  0  0  0  0  0  0  0  0  0  0  0
   59.0792   32.3255   47.8224 H   0  0  0  0  0  0  0  0  0  0  0  0
   57.8260   31.3880   46.3230 C   0  0  0  0  0  0  0  0  0  0  0  0
   57.5179   30.5685   46.9889 H   0  0  0  0  0  0  0  0  0  0  0  0
   58.6770   28.2240   44.0540 C   0  0  0  0  0  0  0  0  0  0  0  0
   59.4421   27.9762   43.3035 H   0  0  0  0  0  0  0  0  0  0  0  0
   59.1200   28.5000   45.4420 C   0  0  0  0  0  0  0  0  0  0  0  0
   58.4550   27.9720   46.5690 C   0  0  0  0  0  0  0  0  0  0  0  0
   57.5662   27.3384   46.4328 H   0  0  0  0  0  0  0  0  0  0  0  0
   58.9200   28.2500   47.8580 C   0  0  0  0  0  0  0  0  0  0  0  0
   58.3923   27.8395   48.7315 H   0  0  0  0  0  0  0  0  0  0  0  0
   60.0520   29.0470   48.0400 C   0  0  0  0  0  0  0  0  0  0  0  0
   60.5010   29.3130   49.2910 F   0  0  0  0  0  0  0  0  0  0  0  0
   60.7290   29.5600   46.9310 C   0  0  0  0  0  0  0  0  0  0  0  0
   61.6251   30.1818   47.0737 H   0  0  0  0  0  0  0  0  0  0  0  0
   60.2690   29.2840   45.6400 C   0  0  0  0  0  0  0  0  0  0  0  0
   60.8117   29.6844   44.7710 H   0  0  0  0  0  0  0  0  0  0  0  0
  1  2  1  0
  2  3  1  0
  3  4  2  0
  3  5  1  0
  5  6  1  0
  6  7  2  0
  7  8  1  0
  7  9  1  0
  9 10  1  0
  9 11  2  0
 11 12  1  0
 12 13  2  0
 12 14  2  0
 12 15  1  0
 15 16  2  3
 16 17  1  0
 17 18  2  0
 18 19  1  0
 18 20  1  0
 20 21  1  0
 20 22  2  0
 22 23  1  0
 22 24  1  0
 11 25  1  0
 25 26  1  0
 25 27  2  0
 27 28  1  0
  2 29  2  0
 29 30  1  0
 29 31  1  0
 31 32  2  0
 32 33  1  0
 32 34  1  0
 34 35  1  0
 34 36  2  0
 36 37  1  0
 36 38  1  0
 38 39  1  0
 38 40  2  0
 40 41  1  0
 27  6  1  0
 40 31  1  0
 24 16  1  0
M  CHG  2   5  -1  24  -1
M  END
>  <UniqueID>  (5) 
5

>  <SMILES>  (5) 
O=C(/C=C/c1ccc(F)cc1)[N-]c1ccc(S(=O)(=O)N=c2nccc[n-]2)cc1

>  <Energy>  (5) 
54.10778940092767

>  <Genealogy>  (5) 
O=C(C=Cc1ccc(F)cc1)[N-]c1ccc(S(=O)(=O)N=c2nccc[n-]2)cc1 (protonated)
O=C(/C=C/c1ccc(F)cc1)[N-]c1ccc(S(=O)(=O)N=c2nccc[n-]2)cc1 (cis-trans isomerization)
O=C(/C=C/c1ccc(F)cc1)[N-]c1ccc(S(=O)(=O)N=c2nccc[n-]2)cc1 (3D coordinates assigned)
O=C(/C=C/c1ccc(F)cc1)[N-]c1ccc(S(=O)(=O)N=c2nccc[n-]2)cc1 (optimized conformer: 54.10778940092767 kcal/mol)

>  <smiles>  (5) 
O=C(C=Cc1ccc(F)cc1)Nc1ccc(S(=O)(=O)N=c2nccc[nH]2)cc1

>  <score_type>  (5) 
oracle

>  <origin>  (5) 
adg

>  <m_score__min__energy>  (5) 
-11.09

>  <m_primary>  (5) 
energy

$$$$
5:0
     RDKit          3D

 32 34  0  0  0  0  0  0  0  0999 V2000
   59.6266   29.2180   44.2932 H   0  0  0  0  0  0  0  0  0  0  0  0
   58.7740   29.3530   44.9750 C   0  0  0  0  0  0  0  0  0  0  0  0
   58.3670   30.6060   45.2270 C   0  0  0  0  0  0  0  0  0  0  0  0
   57.0640   31.1650   44.8520 C   0  0  0  0  0  0  0  0  0  0  0  0
   56.1340   30.5320   44.2870 O   0  0  0  0  0  0  0  0  0  0  0  0
   56.9780   32.5420   45.1970 N   0  0  0  0  0  0  0  0  0  0  0  0
   56.1610   33.1800   45.0680 H   0  0  0  0  0  0  0  0  0  0  0  0
   58.2180   32.8340   45.8290 C   0  0  0  0  0  0  0  0  0  0  0  0
   58.5670   34.0480   46.4180 C   0  0  0  0  0  0  0  0  0  0  0  0
   57.8954   34.9171   46.3573 H   0  0  0  0  0  0  0  0  0  0  0  0
   59.7950   34.1350   47.0900 C   0  0  0  0  0  0  0  0  0  0  0  0
   60.1037   35.0883   47.5439 H   0  0  0  0  0  0  0  0  0  0  0  0
   60.6350   33.0090   47.1870 C   0  0  0  0  0  0  0  0  0  0  0  0
   61.8000   33.0950   47.8760 F   0  0  0  0  0  0  0  0  0  0  0  0
   60.2610   31.7890   46.5990 C   0  0  0  0  0  0  0  0  0  0  0  0
   60.8986   30.8982   46.6986 H   0  0  0  0  0  0  0  0  0  0  0  0
   59.0580   31.7320   45.8830 C   0  0  0  0  0  0  0  0  0  0  0  0
   58.1570   28.1470   45.5490 C   0  0  0  0  0  0  0  0  0  0  0  0
   58.9530   27.0980   46.0370 C   0  0  0  0  0  0  0  0  0  0  0  0
   60.0490   27.1908   46.0255 H   0  0  0  0  0  0  0  0  0  0  0  0
   58.3580   25.9370   46.5370 C   0  0  0  0  0  0  0  0  0  0  0  0
   58.9875   25.1279   46.9359 H   0  0  0  0  0  0  0  0  0  0  0  0
   56.9570   25.7970   46.5330 C   0  0  0  0  0  0  0  0  0  0  0  0
   56.3170   24.6510   47.0280 O   0  0  0  0  0  0  0  0  0  0  0  0
   55.4760   23.8000   46.2540 C   0  0  0  0  0  0  0  0  0  0  0  0
   54.8636   23.1804   46.9256 H   0  0  0  0  0  0  0  0  0  0  0  0
   54.8188   24.4127   45.6195 H   0  0  0  0  0  0  0  0  0  0  0  0
   56.0964   23.1500   45.6195 H   0  0  0  0  0  0  0  0  0  0  0  0
   56.1680   26.8340   46.0140 C   0  0  0  0  0  0  0  0  0  0  0  0
   54.7840   26.7110   45.9910 O   0  0  0  0  0  0  0  0  0  0  0  0
   56.7650   27.9970   45.5150 C   0  0  0  0  0  0  0  0  0  0  0  0
   56.1382   28.7970   45.0942 H   0  0  0  0  0  0  0  0  0  0  0  0
  1  2  1  0
  2  3  2  0
  3  4  1  0
  4  5  2  0
  4  6  1  0
  6  7  1  0
  6  8  1  0
  8  9  2  0
  9 10  1  0
  9 11  1  0
 11 12  1  0
 11 13  2  0
 13 14  1  0
 13 15  1  0
 15 16  1  0
 15 17  2  0
  2 18  1  0
 18 19  2  0
 19 20  1  0
 19 21  1  0
 21 22  1  0
 21 23  2  0
 23 24  1  0
 24 25  1  0
 25 26  1  0
 25 27  1  0
 25 28  1  0
 23 29  1  0
 29 30  1  0
 29 31  2  0
 31 32  1  0
 17  3  1  0
 31 18  1  0
 17  8  1  0
M  CHG  1  30  -1
M  END
>  <UniqueID>  (6) 
6

>  <SMILES>  (6) 
COc1ccc(/C=C2/C(=O)Nc3ccc(F)cc32)cc1[O-]

>  <Energy>  (6) 
72.40954598013883

>  <Genealogy>  (6) 
COc1ccc(C=C2C(=O)Nc3ccc(F)cc32)cc1[O-] (protonated)
COc1ccc(/C=C2/C(=O)Nc3ccc(F)cc32)cc1[O-] (cis-trans isomerization)
COc1ccc(/C=C2/C(=O)Nc3ccc(F)cc32)cc1[O-] (3D coordinates assigned)
COc1ccc(/C=C2/C(=O)Nc3ccc(F)cc32)cc1[O-] (nonaromatic ring conformer: 72.40954598013883 kcal/mol)

>  <smiles>  (6) 
COc1ccc(C=C2C(=O)Nc3ccc(F)cc32)cc1O

>  <score_type>  (6) 
oracle

>  <origin>  (6) 
adg

>  <m_score__min__energy>  (6) 
-11.25

>  <m_primary>  (6) 
energy

$$$$
6:0
     RDKit          3D

 49 51  0  0  0  0  0  0  0  0999 V2000
   66.6680   31.2350   50.5240 C   0  0  0  0  0  0  0  0  0  0  0  0
   66.9040   32.6600   50.9530 C   0  0  0  0  0  0  0  0  0  0  0  0
   68.1790   33.2240   50.7720 C   0  0  0  0  0  0  0  0  0  0  0  0
   68.4370   34.5380   51.1670 C   0  0  0  0  0  0  0  0  0  0  0  0
   67.4240   35.3080   51.7380 C   0  0  0  0  0  0  0  0  0  0  0  0
   66.1480   34.7700   51.9100 C   0  0  0  0  0  0  0  0  0  0  0  0
   65.8710   33.4470   51.5220 C   0  0  0  0  0  0  0  0  0  0  0  0
   64.4930   32.9280   51.6890 C   0  0  0  0  0  0  0  0  0  0  0  0
   64.2140   32.2350   52.7050 O   0  0  0  0  0  0  0  0  0  0  0  0
   63.4420   33.1870   50.6820 C   0  0  0  0  0  0  0  0  0  0  0  0
   63.7280   33.4920   49.3520 C   0  0  0  0  0  0  0  0  0  0  0  0
   62.2700   33.7180   48.5430 S   0  0  0  0  0  0  0  0  0  0  0  0
   61.3330   33.3990   49.9020 C   0  0  0  0  0  0  0  0  0  0  0  0
   59.8300   33.4620   49.9430 C   0  0  2  0  0  0  0  0  0  0  0  0
   59.2710   34.0820   48.6470 C   0  0  0  0  0  0  0  0  0  0  0  0
   58.8520   33.0230   47.6570 C   0  0  0  0  0  0  0  0  0  0  0  0
   58.8160   31.6740   48.0360 C   0  0  0  0  0  0  0  0  0  0  0  0
   58.4760   30.6870   47.1080 C   0  0  0  0  0  0  0  0  0  0  0  0
   58.1730   31.0340   45.7770 C   0  0  0  0  0  0  0  0  0  0  0  0
   57.8260   30.0440   44.7920 N   0  0  0  0  0  0  0  0  0  0  0  0
   56.2050   29.7240   44.2660 S   0  0  0  0  0  0  0  0  0  0  0  0
   55.3900   30.9800   44.3880 O   0  0  0  0  0  0  0  0  0  0  0  0
   56.2140   29.2820   42.8290 O   0  0  0  0  0  0  0  0  0  0  0  0
   55.5200   28.5320   45.2300 O   0  0  0  0  0  0  0  0  0  0  0  0
   58.2160   32.3860   45.4010 C   0  0  0  0  0  0  0  0  0  0  0  0
   58.5550   33.3710   46.3300 C   0  0  0  0  0  0  0  0  0  0  0  0
   59.4010   34.2430   51.1070 N   0  0  0  0  0  0  0  0  0  0  0  0
   59.6660   33.8220   52.4500 C   0  0  0  0  0  0  0  0  0  0  0  0
   60.2790   32.7450   52.6780 O   0  0  0  0  0  0  0  0  0  0  0  0
   59.2470   34.6100   53.5150 O   0  0  0  0  0  0  0  0  0  0  0  0
   62.1110   33.1310   50.9740 N   0  0  0  0  0  0  0  0  0  0  0  0
   66.5623   30.5969   51.4138 H   0  0  0  0  0  0  0  0  0  0  0  0
   65.7486   31.1806   49.9225 H   0  0  0  0  0  0  0  0  0  0  0  0
   67.5208   30.8871   49.9225 H   0  0  0  0  0  0  0  0  0  0  0  0
   68.9804   32.6247   50.3152 H   0  0  0  0  0  0  0  0  0  0  0  0
   69.4405   34.9665   51.0277 H   0  0  0  0  0  0  0  0  0  0  0  0
   67.6313   36.3412   52.0533 H   0  0  0  0  0  0  0  0  0  0  0  0
   65.3518   35.3862   52.3530 H   0  0  0  0  0  0  0  0  0  0  0  0
   64.7317   33.5711   48.9088 H   0  0  0  0  0  0  0  0  0  0  0  0
   59.4363   32.4384   50.0277 H   0  0  0  0  0  0  0  0  0  0  0  0
   58.3975   34.7023   48.8965 H   0  0  0  0  0  0  0  0  0  0  0  0
   60.0655   34.6871   48.1860 H   0  0  0  0  0  0  0  0  0  0  0  0
   59.0571   31.3907   49.0712 H   0  0  0  0  0  0  0  0  0  0  0  0
   58.4447   29.6322   47.4186 H   0  0  0  0  0  0  0  0  0  0  0  0
   58.5860   29.4780   44.3510 H   0  0  0  0  0  0  0  0  0  0  0  0
   57.9805   32.6715   44.3651 H   0  0  0  0  0  0  0  0  0  0  0  0
   58.5896   34.4260   46.0205 H   0  0  0  0  0  0  0  0  0  0  0  0
   58.8900   35.1440   50.9690 H   0  0  0  0  0  0  0  0  0  0  0  0
   61.7230   32.9000   51.9150 H   0  0  0  0  0  0  0  0  0  0  0  0
  1  2  1  0
  2  3  2  0
  3  4  1  0
  4  5  2  0
  5  6  1  0
  6  7  2  0
  7  8  1  0
  8  9  2  0
  8 10  1  0
 10 11  2  0
 11 12  1  0
 12 13  1  0
 13 14  1  0
 14 15  1  0
 15 16  1  0
 16 17  2  0
 17 18  1  0
 18 19  2  0
 19 20  1  0
 20 21  1  0
 21 22  2  0
 21 23  2  0
 21 24  1  0
 19 25  1  0
 25 26  2  0
 14 27  1  0
 27 28  1  0
 28 29  2  0
 28 30  1  0
 13 31  2  0
  7  2  1  0
 31 10  1  0
 26 16  1  0
  1 32  1  0
  1 33  1  0
  1 34  1  0
  3 35  1  0
  4 36  1  0
  5 37  1  0
  6 38  1  0
 11 39  1  0
 14 40  1  1
 15 41  1  0
 15 42  1  0
 17 43  1  0
 18 44  1  0
 20 45  1  0
 25 46  1  0
 26 47  1  0
 27 48  1  0
 31 49  1  0
M  CHG  3  24  -1  30  -1  31   1
M  END
>  <UniqueID>  (7) 
7

>  <SMILES>  (7) 
Cc1ccccc1C(=O)c1csc([C@H](Cc2ccc(NS(=O)(=O)[O-])cc2)NC(=O)[O-])[nH+]1

>  <Energy>  (7) 
81.54599554747278

>  <Genealogy>  (7) 
Cc1ccccc1C(=O)c1csc(C(Cc2ccc(NS(=O)(=O)[O-])cc2)NC(=O)[O-])[nH+]1 (protonated)
Cc1ccccc1C(=O)c1csc([C@H](Cc2ccc(NS(=O)(=O)[O-])cc2)NC(=O)[O-])[nH+]1 (chirality)
Cc1ccccc1C(=O)c1csc([C@H](Cc2ccc(NS(=O)(=O)[O-])cc2)NC(=O)[O-])[nH+]1 (3D coordinates assigned)
Cc1ccccc1C(=O)c1csc([C@H](Cc2ccc(NS(=O)(=O)[O-])cc2)NC(=O)[O-])[nH+]1 (optimized conformer: 81.54599554747278 kcal/mol)

>  <smiles>  (7) 
Cc1ccccc1C(=O)c1csc(C(Cc2ccc(NS(=O)(=O)O)cc2)NC(=O)O)n1

>  <score_type>  (7) 
oracle

>  <origin>  (7) 
adg

>  <m_score__min__energy>  (7) 
-12.07

>  <m_primary>  (7) 
energy

$$$$
7:0
     RDKit          3D

 30 31  0  0  0  0  0  0  0  0999 V2000
   55.1550   26.7000   46.0160 N   0  0  0  0  0  0  0  0  0  0  0  0
   56.2670   25.9080   46.4310 C   0  0  0  0  0  0  0  0  0  0  0  0
   56.0740   24.7080   46.7640 O   0  0  0  0  0  0  0  0  0  0  0  0
   57.6310   26.4870   46.4730 C   0  0  0  0  0  0  0  0  0  0  0  0
   58.7600   25.6480   46.5040 C   0  0  0  0  0  0  0  0  0  0  0  0
   60.0450   26.1920   46.5260 C   0  0  0  0  0  0  0  0  0  0  0  0
   60.2230   27.5760   46.5250 C   0  0  0  0  0  0  0  0  0  0  0  0
   59.1140   28.4330   46.5210 C   0  0  0  0  0  0  0  0  0  0  0  0
   59.3240   29.8550   46.4990 N   0  0  0  0  0  0  0  0  0  0  0  0
   58.4260   30.7890   45.8740 C   0  0  0  0  0  0  0  0  0  0  0  0
   57.2920   30.4090   45.4740 O   0  0  0  0  0  0  0  0  0  0  0  0
   58.7960   32.2160   45.7550 C   0  0  0  0  0  0  0  0  0  0  0  0
   59.6200   32.7970   46.7310 C   0  0  0  0  0  0  0  0  0  0  0  0
   59.9370   34.1540   46.6700 C   0  0  0  0  0  0  0  0  0  0  0  0
   59.4250   34.9280   45.6290 C   0  0  0  0  0  0  0  0  0  0  0  0
   59.6960   36.1560   45.5620 O   0  0  0  0  0  0  0  0  0  0  0  0
   58.6360   34.3570   44.6830 N   0  0  0  0  0  0  0  0  0  0  0  0
   58.3090   33.0350   44.7080 C   0  0  0  0  0  0  0  0  0  0  0  0
   57.5150   32.5060   43.6400 N   0  0  0  0  0  0  0  0  0  0  0  0
   57.8190   27.8820   46.4740 C   0  0  0  0  0  0  0  0  0  0  0  0
   54.4840   27.0900   46.7150 H   0  0  0  0  0  0  0  0  0  0  0  0
   58.6290   24.5559   46.5109 H   0  0  0  0  0  0  0  0  0  0  0  0
   60.9211   25.5271   46.5442 H   0  0  0  0  0  0  0  0  0  0  0  0
   61.2394   27.9967   46.5274 H   0  0  0  0  0  0  0  0  0  0  0  0
   60.1510   30.2290   47.0160 H   0  0  0  0  0  0  0  0  0  0  0  0
   60.0183   32.1787   47.5490 H   0  0  0  0  0  0  0  0  0  0  0  0
   60.5838   34.6087   47.4347 H   0  0  0  0  0  0  0  0  0  0  0  0
   57.3240   33.0930   42.7980 H   0  0  0  0  0  0  0  0  0  0  0  0
   57.1860   31.5160   43.6270 H   0  0  0  0  0  0  0  0  0  0  0  0
   56.9449   28.5489   46.4377 H   0  0  0  0  0  0  0  0  0  0  0  0
  1  2  1  0
  2  3  2  0
  2  4  1  0
  4  5  2  0
  5  6  1  0
  6  7  2  0
  7  8  1  0
  8  9  1  0
  9 10  1  0
 10 11  2  0
 10 12  1  0
 12 13  1  0
 13 14  2  0
 14 15  1  0
 15 16  2  0
 15 17  1  0
 17 18  1  0
 18 19  1  0
  8 20  2  0
 20  4  1  0
 18 12  2  0
  1 21  1  0
  5 22  1  0
  6 23  1  0
  7 24  1  0
  9 25  1  0
 13 26  1  0
 14 27  1  0
 19 28  1  0
 19 29  1  0
 20 30  1  0
M  CHG  2   1  -1  17  -1
M  END
>  <UniqueID>  (8) 
8

>  <SMILES>  (8) 
[NH-]C(=O)c1cccc(NC(=O)c2ccc(=O)[n-]c2N)c1

>  <Energy>  (8) 
40.71762385108503

>  <Genealogy>  (8) 
[NH-]C(=O)c1cccc(NC(=O)c2ccc(=O)[n-]c2N)c1 (protonated)
[NH-]C(=O)c1cccc(NC(=O)c2ccc(=O)[n-]c2N)c1 (3D coordinates assigned)
[NH-]C(=O)c1cccc(NC(=O)c2ccc(=O)[n-]c2N)c1 (optimized conformer: 40.71762385108503 kcal/mol)

>  <smiles>  (8) 
NC(=O)c1cccc(NC(=O)c2ccc(=O)[nH]c2N)c1

>  <score_type>  (8) 
oracle

>  <origin>  (8) 
adg

>  <m_score__min__energy>  (8) 
-11.16

>  <m_primary>  (8) 
energy

$$$$
8:0
     RDKit          3D

 69 72  0  0  0  0  0  0  0  0999 V2000
   59.2900   35.3080   45.1080 C   0  0  0  0  0  0  0  0  0  0  0  0
   59.1820   34.4700   46.3550 C   0  0  0  0  0  0  0  0  0  0  0  0
   60.1680   34.5940   47.3500 C   0  0  0  0  0  0  0  0  0  0  0  0
   60.0830   33.8670   48.5490 C   0  0  0  0  0  0  0  0  0  0  0  0
   61.0970   34.0510   49.6120 C   0  0  0  0  0  0  0  0  0  0  0  0
   60.7370   34.1820   50.8150 O   0  0  0  0  0  0  0  0  0  0  0  0
   62.4890   34.0670   49.2810 N   0  0  0  0  0  0  0  0  0  0  0  0
   63.3540   32.6580   48.7660 S   0  0  0  0  0  0  0  0  0  0  0  0
   64.7890   32.7400   49.2070 O   0  0  0  0  0  0  0  0  0  0  0  0
   63.3030   32.5590   47.2680 O   0  0  0  0  0  0  0  0  0  0  0  0
   62.6130   31.2430   49.5020 C   0  0  0  0  0  0  0  0  0  0  0  0
   61.4900   30.6360   48.9180 C   0  0  0  0  0  0  0  0  0  0  0  0
   60.9030   29.5200   49.5230 C   0  0  0  0  0  0  0  0  0  0  0  0
   61.4310   29.0080   50.7120 C   0  0  0  0  0  0  0  0  0  0  0  0
   62.5480   29.6110   51.2980 C   0  0  0  0  0  0  0  0  0  0  0  0
   63.1370   30.7260   50.6950 C   0  0  0  0  0  0  0  0  0  0  0  0
   59.0060   32.9870   48.7340 C   0  0  0  0  0  0  0  0  0  0  0  0
   58.0240   32.8510   47.7530 C   0  0  0  0  0  0  0  0  0  0  0  0
   58.0860   33.5990   46.5670 C   0  0  0  0  0  0  0  0  0  0  0  0
   56.9870   33.4390   45.5420 C   0  0  0  0  0  0  0  0  0  0  0  0
   57.2820   32.3350   44.7030 O   0  0  0  0  0  0  0  0  0  0  0  0
   58.6730   32.0820   44.6360 C   0  0  0  0  0  0  0  0  0  0  0  0
   58.9600   30.6450   44.9820 C   0  0  0  0  0  0  0  0  0  0  0  0
   59.9060   30.3380   45.9660 C   0  0  0  0  0  0  0  0  0  0  0  0
   60.1450   29.0130   46.3300 C   0  0  0  0  0  0  0  0  0  0  0  0
   59.4150   27.9650   45.7370 C   0  0  0  0  0  0  0  0  0  0  0  0
   59.6160   26.6150   46.0770 O   0  0  0  0  0  0  0  0  0  0  0  0
   58.6070   25.6250   46.2900 C   0  0  0  0  0  0  0  0  0  0  0  0
   58.0790   25.6670   47.7300 C   0  0  0  0  0  0  0  0  0  0  0  0
   56.7750   24.8870   47.9100 C   0  0  0  0  0  0  0  0  0  0  0  0
   56.2910   24.4050   46.6170 N   0  0  0  0  0  0  0  0  0  0  0  0
   56.6380   23.2580   46.0020 C   0  0  0  0  0  0  0  0  0  0  0  0
   57.4900   22.3060   46.5530 O   0  0  0  0  0  0  0  0  0  0  0  0
   56.0460   23.1640   44.7580 C   0  0  0  0  0  0  0  0  0  0  0  0
   55.3080   24.3240   44.5970 C   0  0  0  0  0  0  0  0  0  0  0  0
   55.4900   25.0590   45.7530 C   0  0  0  0  0  0  0  0  0  0  0  0
   54.9370   26.3110   45.9960 O   0  0  0  0  0  0  0  0  0  0  0  0
   58.4540   28.2720   44.7530 C   0  0  0  0  0  0  0  0  0  0  0  0
   57.6520   27.1730   44.1150 C   0  0  0  0  0  0  0  0  0  0  0  0
   58.2390   29.6070   44.3750 C   0  0  0  0  0  0  0  0  0  0  0  0
   59.4260   36.3635   45.3862 H   0  0  0  0  0  0  0  0  0  0  0  0
   60.1522   34.9714   44.5136 H   0  0  0  0  0  0  0  0  0  0  0  0
   58.3706   35.2010   44.5136 H   0  0  0  0  0  0  0  0  0  0  0  0
   61.0194   35.2711   47.1868 H   0  0  0  0  0  0  0  0  0  0  0  0
   61.0714   31.0384   47.9838 H   0  0  0  0  0  0  0  0  0  0  0  0
   60.0245   29.0443   49.0626 H   0  0  0  0  0  0  0  0  0  0  0  0
   60.9675   28.1305   51.1866 H   0  0  0  0  0  0  0  0  0  0  0  0
   62.9633   29.2080   52.2335 H   0  0  0  0  0  0  0  0  0  0  0  0
   64.0151   31.1996   51.1584 H   0  0  0  0  0  0  0  0  0  0  0  0
   58.9355   32.3991   49.6610 H   0  0  0  0  0  0  0  0  0  0  0  0
   57.1915   32.1495   47.9106 H   0  0  0  0  0  0  0  0  0  0  0  0
   56.0296   33.2646   46.0548 H   0  0  0  0  0  0  0  0  0  0  0  0
   56.9156   34.3532   44.9344 H   0  0  0  0  0  0  0  0  0  0  0  0
   59.0306   32.2881   43.6164 H   0  0  0  0  0  0  0  0  0  0  0  0
   59.1903   32.7335   45.3557 H   0  0  0  0  0  0  0  0  0  0  0  0
   60.4657   31.1481   46.4565 H   0  0  0  0  0  0  0  0  0  0  0  0
   60.9101   28.7848   47.0866 H   0  0  0  0  0  0  0  0  0  0  0  0
   57.7727   25.8090   45.5971 H   0  0  0  0  0  0  0  0  0  0  0  0
   59.0501   24.6341   46.1117 H   0  0  0  0  0  0  0  0  0  0  0  0
   58.8408   25.2352   48.3957 H   0  0  0  0  0  0  0  0  0  0  0  0
   57.8703   26.7191   47.9741 H   0  0  0  0  0  0  0  0  0  0  0  0
   56.9541   24.0283   48.5737 H   0  0  0  0  0  0  0  0  0  0  0  0
   56.0177   25.5517   48.3511 H   0  0  0  0  0  0  0  0  0  0  0  0
   56.1415   22.3356   44.0407 H   0  0  0  0  0  0  0  0  0  0  0  0
   54.6993   24.6043   43.7247 H   0  0  0  0  0  0  0  0  0  0  0  0
   57.1967   26.5492   44.8983 H   0  0  0  0  0  0  0  0  0  0  0  0
   56.8606   27.6121   43.4898 H   0  0  0  0  0  0  0  0  0  0  0  0
   58.3116   26.5532   43.4898 H   0  0  0  0  0  0  0  0  0  0  0  0
   57.4985   29.8406   43.5959 H   0  0  0  0  0  0  0  0  0  0  0  0
  1  2  1  0
  2  3  2  0
  3  4  1  0
  4  5  1  0
  5  6  2  0
  5  7  1  0
  7  8  1  0
  8  9  2  0
  8 10  2  0
  8 11  1  0
 11 12  2  0
 12 13  1  0
 13 14  2  0
 14 15  1  0
 15 16  2  0
  4 17  2  0
 17 18  1  0
 18 19  2  0
 19 20  1  0
 20 21  1  0
 21 22  1  0
 22 23  1  0
 23 24  2  0
 24 25  1  0
 25 26  2  0
 26 27  1  0
 27 28  1  0
 28 29  1  0
 29 30  1  0
 30 31  1  0
 31 32  1  0
 32 33  1  0
 32 34  2  0
 34 35  1  0
 35 36  2  0
 36 37  1  0
 26 38  1  0
 38 39  1  0
 38 40  2  0
 19  2  1  0
 40 23  1  0
 16 11  1  0
 36 31  1  0
  1 41  1  0
  1 42  1  0
  1 43  1  0
  3 44  1  0
 12 45  1  0
 13 46  1  0
 14 47  1  0
 15 48  1  0
 16 49  1  0
 17 50  1  0
 18 51  1  0
 20 52  1  0
 20 53  1  0
 22 54  1  0
 22 55  1  0
 24 56  1  0
 25 57  1  0
 28 58  1  0
 28 59  1  0
 29 60  1  0
 29 61  1  0
 30 62  1  0
 30 63  1  0
 34 64  1  0
 35 65  1  0
 39 66  1  0
 39 67  1  0
 39 68  1  0
 40 69  1  0
M  CHG  3   7  -1  33  -1  37  -1
M  END
>  <UniqueID>  (9) 
9

>  <SMILES>  (9) 
Cc1cc(C(=O)[N-]S(=O)(=O)c2ccccc2)ccc1COCc1ccc(OCCCn2c([O-])ccc2[O-])c(C)c1

>  <Energy>  (9) 
102.26003185962912

>  <Genealogy>  (9) 
Cc1cc(C(=O)[N-]S(=O)(=O)c2ccccc2)ccc1COCc1ccc(OCCCn2c([O-])ccc2[O-])c(C)c1 (protonated)
Cc1cc(C(=O)[N-]S(=O)(=O)c2ccccc2)ccc1COCc1ccc(OCCCn2c([O-])ccc2[O-])c(C)c1 (3D coordinates assigned)
Cc1cc(C(=O)[N-]S(=O)(=O)c2ccccc2)ccc1COCc1ccc(OCCCn2c([O-])ccc2[O-])c(C)c1 (optimized conformer: 102.26003185962912 kcal/mol)

>  <smiles>  (9) 
Cc1cc(C(=O)NS(=O)(=O)c2ccccc2)ccc1COCc1ccc(OCCCn2c(O)ccc2O)c(C)c1

>  <score_type>  (9) 
oracle

>  <origin>  (9) 
adg

>  <m_score__min__energy>  (9) 
-15.82

>  <m_primary>  (9) 
energy

$$$$
9:0
     RDKit          3D

 60 63  0  0  0  0  0  0  0  0999 V2000
   59.9060   29.3780   44.5060 C   0  0  0  0  0  0  0  0  0  0  0  0
   58.6270   29.6210   45.7230 S   0  0  0  0  0  0  0  0  0  0  0  0
   57.4710   30.7170   45.1890 O   0  0  0  0  0  0  0  0  0  0  0  0
   57.8730   28.0980   46.1860 C   0  0  0  0  0  0  0  0  0  0  0  0
   56.5800   27.8120   45.7260 C   0  0  0  0  0  0  0  0  0  0  0  0
   55.9530   26.6130   46.0850 C   0  0  0  0  0  0  0  0  0  0  0  0
   54.6700   26.3360   45.6280 O   0  0  0  0  0  0  0  0  0  0  0  0
   56.6140   25.6930   46.9080 C   0  0  0  0  0  0  0  0  0  0  0  0
   57.9000   25.9730   47.3750 C   0  0  0  0  0  0  0  0  0  0  0  0
   58.5390   27.1700   47.0140 C   0  0  0  0  0  0  0  0  0  0  0  0
   60.2040   27.4800   47.6220 S   0  0  0  0  0  0  0  0  0  0  0  0
   59.6830   28.8620   48.6930 C   0  0  0  0  0  0  0  0  0  0  0  0
   60.7740   29.8900   48.7650 C   0  0  0  0  0  0  0  0  0  0  0  0
   61.6520   29.9240   49.8560 C   0  0  0  0  0  0  0  0  0  0  0  0
   62.6600   30.8890   49.9190 C   0  0  0  0  0  0  0  0  0  0  0  0
   62.8110   31.8300   48.8830 C   0  0  0  0  0  0  0  0  0  0  0  0
   63.7990   32.8280   48.9170 O   0  0  0  0  0  0  0  0  0  0  0  0
   64.2480   33.5000   50.0940 C   0  0  0  0  0  0  0  0  0  0  0  0
   65.4970   32.8490   50.6250 C   0  0  0  0  0  0  0  0  0  0  0  0
   66.7430   33.4870   50.5120 C   0  0  0  0  0  0  0  0  0  0  0  0
   67.9020   32.8610   50.9880 C   0  0  0  0  0  0  0  0  0  0  0  0
   67.8220   31.5980   51.5830 C   0  0  0  0  0  0  0  0  0  0  0  0
   66.5840   30.9620   51.7090 C   0  0  0  0  0  0  0  0  0  0  0  0
   65.4240   31.5850   51.2370 C   0  0  0  0  0  0  0  0  0  0  0  0
   61.9520   31.7870   47.7750 C   0  0  0  0  0  0  0  0  0  0  0  0
   62.1390   32.7350   46.7550 O   0  0  0  0  0  0  0  0  0  0  0  0
   61.5300   34.0330   46.7030 C   0  0  0  0  0  0  0  0  0  0  0  0
   60.0540   33.9220   46.3960 C   0  0  0  0  0  0  0  0  0  0  0  0
   59.1490   33.5430   47.4030 C   0  0  0  0  0  0  0  0  0  0  0  0
   57.7770   33.4750   47.1290 C   0  0  0  0  0  0  0  0  0  0  0  0
   57.3020   33.7940   45.8540 C   0  0  0  0  0  0  0  0  0  0  0  0
   58.1950   34.1790   44.8500 C   0  0  0  0  0  0  0  0  0  0  0  0
   59.5660   34.2460   45.1180 C   0  0  0  0  0  0  0  0  0  0  0  0
   60.9330   30.8150   47.7230 C   0  0  0  0  0  0  0  0  0  0  0  0
   60.8649   29.1958   45.0132 H   0  0  0  0  0  0  0  0  0  0  0  0
   59.6536   28.5117   43.8768 H   0  0  0  0  0  0  0  0  0  0  0  0
   59.9889   30.2765   43.8768 H   0  0  0  0  0  0  0  0  0  0  0  0
   57.0190   31.0210   46.0130 H   0  0  0  0  0  0  0  0  0  0  0  0
   56.0562   28.5324   45.0806 H   0  0  0  0  0  0  0  0  0  0  0  0
   56.1206   24.7502   47.1866 H   0  0  0  0  0  0  0  0  0  0  0  0
   58.4144   25.2529   48.0283 H   0  0  0  0  0  0  0  0  0  0  0  0
   58.7743   29.3226   48.2783 H   0  0  0  0  0  0  0  0  0  0  0  0
   59.4773   28.4800   49.7038 H   0  0  0  0  0  0  0  0  0  0  0  0
   61.5472   29.1877   50.6665 H   0  0  0  0  0  0  0  0  0  0  0  0
   63.3399   30.9137   50.7834 H   0  0  0  0  0  0  0  0  0  0  0  0
   64.4620   34.5514   49.8518 H   0  0  0  0  0  0  0  0  0  0  0  0
   63.4613   33.4416   50.8606 H   0  0  0  0  0  0  0  0  0  0  0  0
   66.8089   34.4821   50.0479 H   0  0  0  0  0  0  0  0  0  0  0  0
   68.8761   33.3633   50.8937 H   0  0  0  0  0  0  0  0  0  0  0  0
   68.7336   31.1051   51.9519 H   0  0  0  0  0  0  0  0  0  0  0  0
   66.5217   29.9699   52.1801 H   0  0  0  0  0  0  0  0  0  0  0  0
   64.4506   31.0841   51.3450 H   0  0  0  0  0  0  0  0  0  0  0  0
   61.6596   34.5313   47.6751 H   0  0  0  0  0  0  0  0  0  0  0  0
   62.0128   34.6171   45.9057 H   0  0  0  0  0  0  0  0  0  0  0  0
   59.5197   33.2990   48.4095 H   0  0  0  0  0  0  0  0  0  0  0  0
   57.0732   33.1704   47.9176 H   0  0  0  0  0  0  0  0  0  0  0  0
   56.2242   33.7420   45.6403 H   0  0  0  0  0  0  0  0  0  0  0  0
   57.8188   34.4298   43.8472 H   0  0  0  0  0  0  0  0  0  0  0  0
   60.2649   34.5533   44.3261 H   0  0  0  0  0  0  0  0  0  0  0  0
   60.2558   30.7815   46.8568 H   0  0  0  0  0  0  0  0  0  0  0  0
  1  2  1  0
  2  3  1  6
  2  4  1  0
  4  5  2  0
  5  6  1  0
  6  7  1  0
  6  8  2  0
  8  9  1  0
  9 10  2  0
 10 11  1  0
 11 12  1  0
 12 13  1  0
 13 14  2  0
 14 15  1  0
 15 16  2  0
 16 17  1  0
 17 18  1  0
 18 19  1  0
 19 20  2  0
 20 21  1  0
 21 22  2  0
 22 23  1  0
 23 24  2  0
 16 25  1  0
 25 26  1  0
 26 27  1  0
 27 28  1  0
 28 29  2  0
 29 30  1  0
 30 31  2  0
 31 32  1  0
 32 33  2  0
 25 34  2  0
 10  4  1  0
 34 13  1  0
 24 19  1  0
 33 28  1  0
  1 35  1  0
  1 36  1  0
  1 37  1  0
  3 38  1  0
  5 39  1  0
  8 40  1  0
  9 41  1  0
 12 42  1  0
 12 43  1  0
 14 44  1  0
 15 45  1  0
 18 46  1  0
 18 47  1  0
 20 48  1  0
 21 49  1  0
 22 50  1  0
 23 51  1  0
 24 52  1  0
 27 53  1  0
 27 54  1  0
 29 55  1  0
 30 56  1  0
 31 57  1  0
 32 58  1  0
 33 59  1  0
 34 60  1  0
M  CHG  2   2   1   7  -1
M  END
>  <UniqueID>  (10) 
10

>  <SMILES>  (10) 
C[S@@+](O)c1cc([O-])ccc1SCc1ccc(OCc2ccccc2)c(OCc2ccccc2)c1

>  <Energy>  (10) 
55.15811768367333

>  <Genealogy>  (10) 
C[S+](O)c1cc([O-])ccc1SCc1ccc(OCc2ccccc2)c(OCc2ccccc2)c1 (protonated)
C[S@@+](O)c1cc([O-])ccc1SCc1ccc(OCc2ccccc2)c(OCc2ccccc2)c1 (chirality)
C[S@@+](O)c1cc([O-])ccc1SCc1ccc(OCc2ccccc2)c(OCc2ccccc2)c1 (3D coordinates assigned)
C[S@@+](O)c1cc([O-])ccc1SCc1ccc(OCc2ccccc2)c(OCc2ccccc2)c1 (optimized conformer: 55.15811768367333 kcal/mol)

>  <smiles>  (10) 
C[S+]([O-])c1cc(O)ccc1SCc1ccc(OCc2ccccc2)c(OCc2ccccc2)c1

>  <score_type>  (10) 
oracle

>  <origin>  (10) 
adg

>  <m_score__min__energy>  (10) 
-11.640000000000001

>  <m_primary>  (10) 
energy

$$$$
10:0
     RDKit          3D

 41 43  0  0  0  0  0  0  0  0999 V2000
   59.2349   29.7941   44.8885 H   0  0  0  0  0  0  0  0  0  0  0  0
   58.6600   29.1650   45.5840 C   0  0  0  0  0  0  0  0  0  0  0  0
   57.4750   28.6820   45.1540 C   0  0  0  0  0  0  0  0  0  0  0  0
   56.3090   29.5510   44.8550 C   0  0  0  0  0  0  0  0  0  0  0  0
   55.1500   29.0590   44.8140 O   0  0  0  0  0  0  0  0  0  0  0  0
   56.4620   30.9200   44.6670 O   0  0  0  0  0  0  0  0  0  0  0  0
   57.3330   27.1920   44.9580 C   0  0  0  0  0  0  0  0  0  0  0  0
   58.3304   26.7282   44.9642 H   0  0  0  0  0  0  0  0  0  0  0  0
   56.8364   27.0027   43.9949 H   0  0  0  0  0  0  0  0  0  0  0  0
   56.5070   26.6020   46.0570 C   0  0  0  0  0  0  0  0  0  0  0  0
   57.0630   26.0040   47.0150 O   0  0  0  0  0  0  0  0  0  0  0  0
   55.1200   26.6710   46.0000 O   0  0  0  0  0  0  0  0  0  0  0  0
   59.2430   28.9130   46.9170 C   0  0  0  0  0  0  0  0  0  0  0  0
   59.8750   27.6870   47.1610 C   0  0  0  0  0  0  0  0  0  0  0  0
   59.9142   26.9245   46.3691 H   0  0  0  0  0  0  0  0  0  0  0  0
   60.4550   27.4280   48.4030 C   0  0  0  0  0  0  0  0  0  0  0  0
   60.9349   26.4565   48.5923 H   0  0  0  0  0  0  0  0  0  0  0  0
   60.4280   28.3990   49.4070 C   0  0  0  0  0  0  0  0  0  0  0  0
   60.8763   28.1846   50.3884 H   0  0  0  0  0  0  0  0  0  0  0  0
   59.8290   29.6520   49.1680 C   0  0  0  0  0  0  0  0  0  0  0  0
   59.7960   30.6680   50.1390 O   0  0  0  0  0  0  0  0  0  0  0  0
   60.9140   31.4550   50.5500 C   0  0  0  0  0  0  0  0  0  0  0  0
   60.6188   32.0867   51.4008 H   0  0  0  0  0  0  0  0  0  0  0  0
   61.7337   30.7827   50.8433 H   0  0  0  0  0  0  0  0  0  0  0  0
   61.3820   32.3280   49.4270 C   0  0  0  0  0  0  0  0  0  0  0  0
   62.8980   33.0480   49.3440 S   0  0  0  0  0  0  0  0  0  0  0  0
   62.5860   33.7980   47.8700 C   0  0  0  0  0  0  0  0  0  0  0  0
   63.2826   34.4429   47.3143 H   0  0  0  0  0  0  0  0  0  0  0  0
   61.2930   33.4610   47.4750 C   0  0  0  0  0  0  0  0  0  0  0  0
   60.7070   33.9920   46.1880 C   0  0  0  0  0  0  0  0  0  0  0  0
   61.6485   33.8977   45.6270 H   0  0  0  0  0  0  0  0  0  0  0  0
   59.2510   33.6500   45.9070 C   0  0  0  0  0  0  0  0  0  0  0  0
   58.9212   33.4529   44.8763 H   0  0  0  0  0  0  0  0  0  0  0  0
   58.5440   32.8932   46.2777 H   0  0  0  0  0  0  0  0  0  0  0  0
   59.6350   35.0630   46.3270 C   0  0  0  0  0  0  0  0  0  0  0  0
   59.5826   35.8865   45.5996 H   0  0  0  0  0  0  0  0  0  0  0  0
   59.3202   35.7495   47.1267 H   0  0  0  0  0  0  0  0  0  0  0  0
   60.6340   32.6400   48.3470 N   0  0  0  0  0  0  0  0  0  0  0  0
   59.6610   32.2880   48.2150 H   0  0  0  0  0  0  0  0  0  0  0  0
   59.2450   29.9060   47.9190 C   0  0  0  0  0  0  0  0  0  0  0  0
   58.6830   31.1540   47.6690 O   0  0  0  0  0  0  0  0  0  0  0  0
  1  2  1  0
  2  3  2  0
  3  4  1  0
  4  5  2  0
  4  6  1  0
  3  7  1  0
  7  8  1  0
  7  9  1  0
  7 10  1  0
 10 11  2  0
 10 12  1  0
  2 13  1  0
 13 14  2  0
 14 15  1  0
 14 16  1  0
 16 17  1  0
 16 18  2  0
 18 19  1  0
 18 20  1  0
 20 21  1  0
 21 22  1  0
 22 23  1  0
 22 24  1  0
 22 25  1  0
 25 26  1  0
 26 27  1  0
 27 28  1  0
 27 29  2  0
 29 30  1  0
 30 31  1  0
 30 32  1  0
 32 33  1  0
 32 34  1  0
 32 35  1  0
 35 36  1  0
 35 37  1  0
 29 38  1  0
 38 39  1  0
 20 40  2  0
 40 41  1  0
 40 13  1  0
 38 25  2  0
 35 30  1  0
M  CHG  4   6  -1  12  -1  38   1  41  -1
M  END
>  <UniqueID>  (11) 
11

>  <SMILES>  (11) 
O=C([O-])C/C(=C/c1cccc(OCc2[nH+]c(C3CC3)cs2)c1[O-])C(=O)[O-]

>  <Energy>  (11) 
343.95542898322014

>  <Genealogy>  (11) 
O=C([O-])CC(=Cc1cccc(OCc2[nH+]c(C3CC3)cs2)c1[O-])C(=O)[O-] (protonated)
O=C([O-])C/C(=C/c1cccc(OCc2[nH+]c(C3CC3)cs2)c1[O-])C(=O)[O-] (cis-trans isomerization)
O=C([O-])C/C(=C/c1cccc(OCc2[nH+]c(C3CC3)cs2)c1[O-])C(=O)[O-] (3D coordinates assigned)
O=C([O-])C/C(=C/c1cccc(OCc2[nH+]c(C3CC3)cs2)c1[O-])C(=O)[O-] (nonaromatic ring conformer: 343.95542898322014 kcal/mol)

>  <smiles>  (11) 
O=C(O)CC(=Cc1cccc(OCc2nc(C3CC3)cs2)c1O)C(=O)O

>  <score_type>  (11) 
oracle

>  <origin>  (11) 
adg

>  <m_score__min__energy>  (11) 
-14.73

>  <m_primary>  (11) 
energy

$$$$
11:0
     RDKit          3D

 36 38  0  0  0  0  0  0  0  0999 V2000
   57.2418   31.6860   41.5059 H   0  0  0  0  0  0  0  0  0  0  0  0
   57.2590   31.4360   42.5770 C   0  0  0  0  0  0  0  0  0  0  0  0
   57.1370   30.1440   42.9750 N   0  0  0  0  0  0  0  0  0  0  0  0
   57.1610   29.8100   44.2950 C   0  0  0  0  0  0  0  0  0  0  0  0
   57.0150   28.5760   44.6830 N   0  0  0  0  0  0  0  0  0  0  0  0
   57.6890   27.9330   45.7820 C   0  0  0  0  0  0  0  0  0  0  0  0
   58.7580   28.5790   46.4330 C   0  0  0  0  0  0  0  0  0  0  0  0
   59.0958   29.5637   46.0778 H   0  0  0  0  0  0  0  0  0  0  0  0
   59.3930   27.9840   47.5230 C   0  0  0  0  0  0  0  0  0  0  0  0
   60.7290   28.7990   48.3170 Cl  0  0  0  0  0  0  0  0  0  0  0  0
   58.9560   26.7460   47.9920 C   0  0  0  0  0  0  0  0  0  0  0  0
   59.4622   26.2733   48.8466 H   0  0  0  0  0  0  0  0  0  0  0  0
   57.8780   26.1050   47.3800 C   0  0  0  0  0  0  0  0  0  0  0  0
   57.5349   25.1330   47.7640 H   0  0  0  0  0  0  0  0  0  0  0  0
   57.2240   26.6870   46.2770 C   0  0  0  0  0  0  0  0  0  0  0  0
   56.0770   25.9640   45.6630 C   0  0  0  0  0  0  0  0  0  0  0  0
   56.2580   24.9990   44.8750 O   0  0  0  0  0  0  0  0  0  0  0  0
   54.7730   26.3430   45.9590 O   0  0  0  0  0  0  0  0  0  0  0  0
   57.2930   30.7850   45.2310 N   0  0  0  0  0  0  0  0  0  0  0  0
   57.4370   32.0930   44.8830 C   0  0  0  0  0  0  0  0  0  0  0  0
   57.5450   33.0850   45.9160 N   0  0  0  0  0  0  0  0  0  0  0  0
   56.7110   33.6870   46.0930 H   0  0  0  0  0  0  0  0  0  0  0  0
   58.7150   33.2910   46.7260 C   0  0  0  0  0  0  0  0  0  0  0  0
   58.7210   32.9490   48.0910 C   0  0  0  0  0  0  0  0  0  0  0  0
   57.8279   32.4953   48.5455 H   0  0  0  0  0  0  0  0  0  0  0  0
   59.8560   33.1830   48.8720 C   0  0  0  0  0  0  0  0  0  0  0  0
   59.8574   32.9019   49.9355 H   0  0  0  0  0  0  0  0  0  0  0  0
   60.9910   33.7740   48.3050 C   0  0  0  0  0  0  0  0  0  0  0  0
   62.1580   34.0170   49.1110 C   0  0  0  0  0  0  0  0  0  0  0  0
   63.0970   34.2110   49.7600 N   0  0  0  0  0  0  0  0  0  0  0  0
   60.9830   34.1390   46.9540 C   0  0  0  0  0  0  0  0  0  0  0  0
   61.8712   34.6103   46.5079 H   0  0  0  0  0  0  0  0  0  0  0  0
   59.8480   33.9060   46.1690 C   0  0  0  0  0  0  0  0  0  0  0  0
   59.8600   34.2640   44.8600 F   0  0  0  0  0  0  0  0  0  0  0  0
   57.4060   32.4450   43.5260 C   0  0  0  0  0  0  0  0  0  0  0  0
   57.4960   33.4969   43.2171 H   0  0  0  0  0  0  0  0  0  0  0  0
  1  2  1  0
  2  3  1  0
  3  4  1  0
  4  5  2  0
  5  6  1  0
  6  7  2  0
  7  8  1  0
  7  9  1  0
  9 10  1  0
  9 11  2  0
 11 12  1  0
 11 13  1  0
 13 14  1  0
 13 15  2  0
 15 16  1  0
 16 17  2  0
 16 18  1  0
  4 19  1  0
 19 20  2  0
 20 21  1  0
 21 22  1  0
 21 23  1  0
 23 24  2  0
 24 25  1  0
 24 26  1  0
 26 27  1  0
 26 28  2  0
 28 29  1  0
 29 30  3  0
 28 31  1  0
 31 32  1  0
 31 33  2  0
 33 34  1  0
 20 35  1  0
 35 36  1  0
 35  2  2  0
 15  6  1  0
 33 23  1  0
M  CHG  2   3  -1  18  -1
M  END
>  <UniqueID>  (12) 
12

>  <SMILES>  (12) 
N#Cc1ccc(Nc2cc[n-]/c(=N\c3cc(Cl)ccc3C(=O)[O-])n2)c(F)c1

>  <Energy>  (12) 
54.20892227422496

>  <Genealogy>  (12) 
N#Cc1ccc(Nc2cc[n-]c(=Nc3cc(Cl)ccc3C(=O)[O-])n2)c(F)c1 (protonated)
N#Cc1ccc(Nc2cc[n-]/c(=N\c3cc(Cl)ccc3C(=O)[O-])n2)c(F)c1 (cis-trans isomerization)
N#Cc1ccc(Nc2cc[n-]/c(=N\c3cc(Cl)ccc3C(=O)[O-])n2)c(F)c1 (3D coordinates assigned)
N#Cc1ccc(Nc2cc[n-]/c(=N\c3cc(Cl)ccc3C(=O)[O-])n2)c(F)c1 (optimized conformer: 54.20892227422496 kcal/mol)

>  <smiles>  (12) 
N#Cc1ccc(Nc2cc[nH]c(=Nc3cc(Cl)ccc3C(=O)O)n2)c(F)c1

>  <score_type>  (12) 
oracle

>  <origin>  (12) 
adg

>  <m_score__min__energy>  (12) 
-12.470000000000001

>  <m_primary>  (12) 
energy

$$$$
12:0
     RDKit          3D

 32 33  0  0  0  0  0  0  0  0999 V2000
   56.4600   29.6900   43.1930 O   0  0  0  0  0  0  0  0  0  0  0  0
   56.7750   30.1970   44.3030 C   0  0  0  0  0  0  0  0  0  0  0  0
   57.2820   29.3240   45.4070 C   0  0  0  0  0  0  0  0  0  0  0  0
   56.3740   28.2470   45.6410 O   0  0  0  0  0  0  0  0  0  0  0  0
   56.7440   26.9050   45.8410 C   0  0  0  0  0  0  0  0  0  0  0  0
   58.0910   26.4890   45.8730 C   0  0  0  0  0  0  0  0  0  0  0  0
   58.4070   25.1390   46.0590 C   0  0  0  0  0  0  0  0  0  0  0  0
   57.3890   24.1970   46.2190 C   0  0  0  0  0  0  0  0  0  0  0  0
   56.0530   24.6010   46.1960 C   0  0  0  0  0  0  0  0  0  0  0  0
   55.7310   25.9500   46.0100 C   0  0  0  0  0  0  0  0  0  0  0  0
   54.3960   26.3390   45.9860 O   0  0  0  0  0  0  0  0  0  0  0  0
   56.6320   31.6030   44.5260 N   0  0  0  0  0  0  0  0  0  0  0  0
   57.5870   32.5870   44.0350 C   0  0  0  0  0  0  0  0  0  0  0  0
   58.1860   33.3310   45.1970 C   0  0  0  0  0  0  0  0  0  0  0  0
   57.9460   32.9100   46.5160 C   0  0  0  0  0  0  0  0  0  0  0  0
   58.5530   33.5730   47.5870 C   0  0  0  0  0  0  0  0  0  0  0  0
   59.4070   34.6530   47.3500 C   0  0  0  0  0  0  0  0  0  0  0  0
   59.6600   35.0700   46.0400 C   0  0  0  0  0  0  0  0  0  0  0  0
   59.0560   34.4090   44.9670 C   0  0  0  0  0  0  0  0  0  0  0  0
   58.2643   28.9165   45.1259 H   0  0  0  0  0  0  0  0  0  0  0  0
   57.3725   29.9229   46.3252 H   0  0  0  0  0  0  0  0  0  0  0  0
   58.8961   27.2286   45.7513 H   0  0  0  0  0  0  0  0  0  0  0  0
   59.4593   24.8191   46.0792 H   0  0  0  0  0  0  0  0  0  0  0  0
   57.6399   23.1358   46.3633 H   0  0  0  0  0  0  0  0  0  0  0  0
   55.2522   23.8578   46.3243 H   0  0  0  0  0  0  0  0  0  0  0  0
   58.3852   32.0759   43.4767 H   0  0  0  0  0  0  0  0  0  0  0  0
   57.0717   33.2977   43.3722 H   0  0  0  0  0  0  0  0  0  0  0  0
   57.2787   32.0565   46.7065 H   0  0  0  0  0  0  0  0  0  0  0  0
   58.3578   33.2436   48.6182 H   0  0  0  0  0  0  0  0  0  0  0  0
   59.8804   35.1753   48.1944 H   0  0  0  0  0  0  0  0  0  0  0  0
   60.3346   35.9186   45.8537 H   0  0  0  0  0  0  0  0  0  0  0  0
   59.2632   34.7348   43.9370 H   0  0  0  0  0  0  0  0  0  0  0  0
  1  2  2  0
  2  3  1  0
  3  4  1  0
  4  5  1  0
  5  6  2  0
  6  7  1  0
  7  8  2  0
  8  9  1  0
  9 10  2  0
 10 11  1  0
  2 12  1  0
 12 13  1  0
 13 14  1  0
 14 15  2  0
 15 16  1  0
 16 17  2  0
 17 18  1  0
 18 19  2  0
 10  5  1  0
 19 14  1  0
  3 20  1  0
  3 21  1  0
  6 22  1  0
  7 23  1  0
  8 24  1  0
  9 25  1  0
 13 26  1  0
 13 27  1  0
 15 28  1  0
 16 29  1  0
 17 30  1  0
 18 31  1  0
 19 32  1  0
M  CHG  2  11  -1  12  -1
M  END
>  <UniqueID>  (13) 
13

>  <SMILES>  (13) 
O=C(COc1ccccc1[O-])[N-]Cc1ccccc1

>  <Energy>  (13) 
26.372916445403796

>  <Genealogy>  (13) 
O=C(COc1ccccc1[O-])[N-]Cc1ccccc1 (protonated)
O=C(COc1ccccc1[O-])[N-]Cc1ccccc1 (3D coordinates assigned)
O=C(COc1ccccc1[O-])[N-]Cc1ccccc1 (optimized conformer: 26.372916445403796 kcal/mol)

>  <smiles>  (13) 
O=C(COc1ccccc1O)NCc1ccccc1

>  <score_type>  (13) 
oracle

>  <origin>  (13) 
adg

>  <m_score__min__energy>  (13) 
-12.859999999999999

>  <m_primary>  (13) 
energy

$$$$
13:0
     RDKit          3D

 50 52  0  0  1  0  0  0  0  0999 V2000
   57.3880   33.4940   46.7750 C   0  0  0  0  0  0  0  0  0  0  0  0
   58.1780   33.6440   45.5140 C   0  0  2  0  0  0  0  0  0  0  0  0
   57.1540   31.4470   44.9910 N   0  0  0  0  0  0  0  0  0  0  0  0
   57.6600   30.2470   44.9240 C   0  0  0  0  0  0  0  0  0  0  0  0
   56.8590   29.1160   45.0090 C   0  0  0  0  0  0  0  0  0  0  0  0
   61.9100   33.2900   48.2340 C   0  0  0  0  0  0  0  0  0  0  0  0
   62.7070   33.9620   49.1800 N   0  0  0  0  0  0  0  0  0  0  0  0
   63.8740   33.5090   49.5160 C   0  0  0  0  0  0  0  0  0  0  0  0
   64.3460   33.3520   50.8070 C   0  0  0  0  0  0  0  0  0  0  0  0
   65.6190   32.8460   50.6820 C   0  0  0  0  0  0  0  0  0  0  0  0
   66.5970   32.4840   51.7540 C   0  0  0  0  0  0  0  0  0  0  0  0
   67.8630   33.3040   51.5100 C   0  0  0  0  0  0  0  0  0  0  0  0
   66.9940   31.0430   51.7020 C   0  0  0  0  0  0  0  0  0  0  0  0
   65.9000   32.7050   49.3750 N   0  0  0  0  0  0  0  0  0  0  0  0
   64.8520   33.1030   48.6730 N   0  0  0  0  0  0  0  0  0  0  0  0
   61.9530   31.9450   48.1680 N   0  0  0  0  0  0  0  0  0  0  0  0
   61.2120   31.2440   47.2820 C   0  0  0  0  0  0  0  0  0  0  0  0
   60.4060   31.9340   46.4430 N   0  0  0  0  0  0  0  0  0  0  0  0
   57.8720   32.5740   44.4990 C   0  0  0  0  0  0  0  0  0  0  0  0
   58.2120   32.6460   43.3100 O   0  0  0  0  0  0  0  0  0  0  0  0
   59.5700   33.8940   45.6760 N   0  0  0  0  0  0  0  0  0  0  0  0
   60.3420   33.2840   46.4850 C   0  0  0  0  0  0  0  0  0  0  0  0
   58.9830   30.0510   44.7690 N   0  0  0  0  0  0  0  0  0  0  0  0
   59.5410   28.8250   44.6960 C   0  0  0  0  0  0  0  0  0  0  0  0
   58.7580   27.6920   44.7800 C   0  0  0  0  0  0  0  0  0  0  0  0
   57.3920   27.8370   44.9390 C   0  0  0  0  0  0  0  0  0  0  0  0
   61.0930   34.0060   47.3840 C   0  0  0  0  0  0  0  0  0  0  0  0
   55.4750   29.2480   45.1700 O   0  0  0  0  0  0  0  0  0  0  0  0
   58.0534   33.6203   47.6418 H   0  0  0  0  0  0  0  0  0  0  0  0
   56.5972   34.2580   46.8054 H   0  0  0  0  0  0  0  0  0  0  0  0
   56.9323   32.4933   46.8054 H   0  0  0  0  0  0  0  0  0  0  0  0
   57.8105   34.5910   45.0919 H   0  0  0  0  0  0  0  0  0  0  0  0
   61.0440   35.1042   47.4230 H   0  0  0  0  0  0  0  0  0  0  0  0
   63.8131   33.5840   51.7409 H   0  0  0  0  0  0  0  0  0  0  0  0
   66.1264   32.6816   52.7284 H   0  0  0  0  0  0  0  0  0  0  0  0
   68.3058   33.5908   52.4752 H   0  0  0  0  0  0  0  0  0  0  0  0
   68.5856   32.7019   50.9396 H   0  0  0  0  0  0  0  0  0  0  0  0
   67.6090   34.2096   50.9396 H   0  0  0  0  0  0  0  0  0  0  0  0
   67.1009   30.6550   52.7257 H   0  0  0  0  0  0  0  0  0  0  0  0
   66.2207   30.4685   51.1710 H   0  0  0  0  0  0  0  0  0  0  0  0
   67.9524   30.9457   51.1710 H   0  0  0  0  0  0  0  0  0  0  0  0
   66.7730   32.3500   48.9340 H   0  0  0  0  0  0  0  0  0  0  0  0
   64.7640   33.1140   47.6340 H   0  0  0  0  0  0  0  0  0  0  0  0
   62.5910   31.4220   48.8350 H   0  0  0  0  0  0  0  0  0  0  0  0
   61.2626   30.1458   47.2441 H   0  0  0  0  0  0  0  0  0  0  0  0
   59.6200   30.8760   44.7010 H   0  0  0  0  0  0  0  0  0  0  0  0
   60.6292   28.7277   44.5684 H   0  0  0  0  0  0  0  0  0  0  0  0
   59.2120   26.6918   44.7216 H   0  0  0  0  0  0  0  0  0  0  0  0
   56.7397   26.9541   45.0087 H   0  0  0  0  0  0  0  0  0  0  0  0
   55.1510   30.1080   45.6080 H   0  0  0  0  0  0  0  0  0  0  0  0
  1  2  1  0
  2  3  1  0
  3  4  2  0
  4  5  1  0
  5  6  2  0
  6  7  1  0
  7  8  2  0
  8  9  1  0
  9 10  2  0
 10 11  1  0
 11 12  1  0
 11 13  1  0
 10 14  1  0
 14 15  1  0
  6 16  1  0
 16 17  1  0
 17 18  2  0
  2 19  1  0
 19 20  2  0
 19 21  1  0
 21 22  2  0
 22 23  1  0
 23 24  1  0
 24 25  2  0
 25 26  1  0
 26 27  2  0
 27 28  1  0
 18  4  1  0
 27 22  1  0
 15  8  1  0
  1 29  1  0
  1 30  1  0
  1 31  1  0
  2 32  1  1
  5 33  1  0
  9 34  1  0
 11 35  1  0
 12 36  1  0
 12 37  1  0
 12 38  1  0
 13 39  1  0
 13 40  1  0
 13 41  1  0
 14 42  1  0
 15 43  1  0
 16 44  1  0
 17 45  1  0
 23 46  1  0
 24 47  1  0
 25 48  1  0
 26 49  1  0
 28 50  1  0
M  END
>  <smiles>  (14) 
CC(N=c1cc(N=c2cc(C(C)C)[nH][nH]2)[nH]cn1)C(=O)N=c1[nH]cccc1O

>  <score_type>  (14) 
oracle

>  <origin>  (14) 
adg

>  <m_score__min__energy>  (14) 
-9.6500000000000004

>  <m_primary>  (14) 
energy

$$$$
14:0
     RDKit          3D

 66 69  0  0  0  0  0  0  0  0999 V2000
   59.5360   24.4420   46.0620 O   0  0  0  0  0  0  0  0  0  0  0  0
   59.2630   25.6710   46.0270 C   0  0  0  0  0  0  0  0  0  0  0  0
   58.4470   26.1690   44.9580 N   0  0  0  0  0  0  0  0  0  0  0  0
   57.3330   27.1050   45.1100 C   0  0  2  0  0  0  0  0  0  0  0  0
   57.8670   28.4890   45.5130 C   0  0  0  0  0  0  0  0  0  0  0  0
   57.6150   29.5060   44.4250 C   0  0  0  0  0  0  0  0  0  0  0  0
   56.5410   29.3430   43.5310 C   0  0  0  0  0  0  0  0  0  0  0  0
   56.2790   30.3160   42.5570 C   0  0  0  0  0  0  0  0  0  0  0  0
   57.0790   31.4590   42.4760 C   0  0  0  0  0  0  0  0  0  0  0  0
   58.1450   31.6290   43.3660 C   0  0  0  0  0  0  0  0  0  0  0  0
   58.4120   30.6570   44.3380 C   0  0  0  0  0  0  0  0  0  0  0  0
   56.3910   26.5890   46.1610 C   0  0  0  0  0  0  0  0  0  0  0  0
   55.1460   26.7030   46.0070 O   0  0  0  0  0  0  0  0  0  0  0  0
   56.8870   26.0210   47.3300 O   0  0  0  0  0  0  0  0  0  0  0  0
   59.7590   26.5410   47.1110 C   0  0  0  0  0  0  0  0  0  0  0  0
   61.0550   26.6480   47.5830 C   0  0  0  0  0  0  0  0  0  0  0  0
   61.0630   27.5580   48.5310 O   0  0  0  0  0  0  0  0  0  0  0  0
   59.8360   28.0180   48.6420 C   0  0  0  0  0  0  0  0  0  0  0  0
   59.4240   29.0620   49.6310 C   0  0  0  0  0  0  0  0  0  0  0  0
   59.7080   30.4000   49.0920 N   0  0  0  0  0  0  0  0  0  0  0  0
   59.4360   31.5730   49.9430 C   0  0  0  0  0  0  0  0  0  0  0  0
   58.2040   32.3390   49.4440 C   0  0  0  0  0  0  0  0  0  0  0  0
   58.5340   33.1750   48.2340 C   0  0  0  0  0  0  0  0  0  0  0  0
   57.6830   33.1730   47.1160 C   0  0  0  0  0  0  0  0  0  0  0  0
   57.9660   33.9880   46.0140 C   0  0  0  0  0  0  0  0  0  0  0  0
   59.0950   34.8130   46.0250 C   0  0  0  0  0  0  0  0  0  0  0  0
   59.9410   34.8260   47.1380 C   0  0  0  0  0  0  0  0  0  0  0  0
   59.6610   34.0140   48.2420 C   0  0  0  0  0  0  0  0  0  0  0  0
   60.1100   30.5970   47.7170 C   0  0  0  0  0  0  0  0  0  0  0  0
   59.2370   30.8440   46.8420 O   0  0  0  0  0  0  0  0  0  0  0  0
   61.5550   30.5710   47.2900 C   0  0  0  0  0  0  0  0  0  0  0  0
   62.3600   31.7080   47.8700 C   0  0  0  0  0  0  0  0  0  0  0  0
   62.6830   32.8410   47.0950 C   0  0  0  0  0  0  0  0  0  0  0  0
   63.3930   33.9040   47.6630 C   0  0  0  0  0  0  0  0  0  0  0  0
   63.7550   33.8630   49.0130 C   0  0  0  0  0  0  0  0  0  0  0  0
   63.4190   32.7550   49.7950 C   0  0  0  0  0  0  0  0  0  0  0  0
   62.7180   31.6820   49.2310 C   0  0  0  0  0  0  0  0  0  0  0  0
   58.9970   27.4360   47.7630 N   0  0  0  0  0  0  0  0  0  0  0  0
   56.7960   27.1973   44.1544 H   0  0  0  0  0  0  0  0  0  0  0  0
   57.3615   28.8151   46.4339 H   0  0  0  0  0  0  0  0  0  0  0  0
   58.9523   28.4116   45.6749 H   0  0  0  0  0  0  0  0  0  0  0  0
   55.9044   28.4483   43.5968 H   0  0  0  0  0  0  0  0  0  0  0  0
   55.4427   30.1799   41.8555 H   0  0  0  0  0  0  0  0  0  0  0  0
   56.8708   32.2240   41.7135 H   0  0  0  0  0  0  0  0  0  0  0  0
   58.7750   32.5285   43.3021 H   0  0  0  0  0  0  0  0  0  0  0  0
   59.2503   30.7967   45.0363 H   0  0  0  0  0  0  0  0  0  0  0  0
   61.9236   26.0739   47.2282 H   0  0  0  0  0  0  0  0  0  0  0  0
   58.3462   28.9703   49.8308 H   0  0  0  0  0  0  0  0  0  0  0  0
   59.9881   28.9199   50.5646 H   0  0  0  0  0  0  0  0  0  0  0  0
   59.2566   31.2355   50.9745 H   0  0  0  0  0  0  0  0  0  0  0  0
   60.3064   32.2445   49.9037 H   0  0  0  0  0  0  0  0  0  0  0  0
   57.4169   31.6181   49.1780 H   0  0  0  0  0  0  0  0  0  0  0  0
   57.8620   33.0087   50.2468 H   0  0  0  0  0  0  0  0  0  0  0  0
   56.7914   32.5288   47.1068 H   0  0  0  0  0  0  0  0  0  0  0  0
   57.2999   33.9796   45.1387 H   0  0  0  0  0  0  0  0  0  0  0  0
   59.3176   35.4519   45.1577 H   0  0  0  0  0  0  0  0  0  0  0  0
   60.8284   35.4760   47.1455 H   0  0  0  0  0  0  0  0  0  0  0  0
   60.3249   34.0323   49.1188 H   0  0  0  0  0  0  0  0  0  0  0  0
   62.0013   29.6212   47.6197 H   0  0  0  0  0  0  0  0  0  0  0  0
   61.5773   30.6759   46.1952 H   0  0  0  0  0  0  0  0  0  0  0  0
   62.3755   32.8890   46.0400 H   0  0  0  0  0  0  0  0  0  0  0  0
   63.6669   34.7732   47.0469 H   0  0  0  0  0  0  0  0  0  0  0  0
   64.3051   34.7042   49.4599 H   0  0  0  0  0  0  0  0  0  0  0  0
   63.7059   32.7255   50.8565 H   0  0  0  0  0  0  0  0  0  0  0  0
   62.4464   30.8165   49.8532 H   0  0  0  0  0  0  0  0  0  0  0  0
   57.9820   27.6310   47.6240 H   0  0  0  0  0  0  0  0  0  0  0  0
  1  2  2  0
  2  3  1  0
  3  4  1  0
  4  5  1  0
  5  6  1  0
  6  7  2  0
  7  8  1  0
  8  9  2  0
  9 10  1  0
 10 11  2  0
  4 12  1  0
 12 13  2  0
 12 14  1  0
  2 15  1  0
 15 16  2  0
 16 17  1  0
 17 18  1  0
 18 19  1  0
 19 20  1  0
 20 21  1  0
 21 22  1  0
 22 23  1  0
 23 24  2  0
 24 25  1  0
 25 26  2  0
 26 27  1  0
 27 28  2  0
 20 29  1  0
 29 30  2  0
 29 31  1  0
 31 32  1  0
 32 33  2  0
 33 34  1  0
 34 35  2  0
 35 36  1  0
 36 37  2  0
 18 38  2  0
 11  6  1  0
 38 15  1  0
 28 23  1  0
 37 32  1  0
  4 39  1  6
  5 40  1  0
  5 41  1  0
  7 42  1  0
  8 43  1  0
  9 44  1  0
 10 45  1  0
 11 46  1  0
 16 47  1  0
 19 48  1  0
 19 49  1  0
 21 50  1  0
 21 51  1  0
 22 52  1  0
 22 53  1  0
 24 54  1  0
 25 55  1  0
 26 56  1  0
 27 57  1  0
 28 58  1  0
 31 59  1  0
 31 60  1  0
 33 61  1  0
 34 62  1  0
 35 63  1  0
 36 64  1  0
 37 65  1  0
 38 66  1  0
M  CHG  3   3  -1  14  -1  38   1
M  END
>  <UniqueID>  (15) 
14

>  <SMILES>  (15) 
O=C([N-][C@H](Cc1ccccc1)C(=O)[O-])c1coc(CN(CCc2ccccc2)C(=O)Cc2ccccc2)[nH+]1

>  <Energy>  (15) 
92.09007125590394

>  <Genealogy>  (15) 
O=C([N-]C(Cc1ccccc1)C(=O)[O-])c1coc(CN(CCc2ccccc2)C(=O)Cc2ccccc2)[nH+]1 (protonated)
O=C([N-][C@H](Cc1ccccc1)C(=O)[O-])c1coc(CN(CCc2ccccc2)C(=O)Cc2ccccc2)[nH+]1 (chirality)
O=C([N-][C@H](Cc1ccccc1)C(=O)[O-])c1coc(CN(CCc2ccccc2)C(=O)Cc2ccccc2)[nH+]1 (3D coordinates assigned)
O=C([N-][C@H](Cc1ccccc1)C(=O)[O-])c1coc(CN(CCc2ccccc2)C(=O)Cc2ccccc2)[nH+]1 (optimized conformer: 92.09007125590394 kcal/mol)

>  <smiles>  (15) 
O=C(NC(Cc1ccccc1)C(=O)O)c1coc(CN(CCc2ccccc2)C(=O)Cc2ccccc2)n1

>  <score_type>  (15) 
oracle

>  <origin>  (15) 
adg

>  <m_score__min__energy>  (15) 
-12.710000000000001

>  <m_primary>  (15) 
energy

$$$$
15:0
     RDKit          3D

 42 44  0  0  0  0  0  0  0  0999 V2000
   57.1750   29.4520   52.0810 O   0  0  0  0  0  0  0  0  0  0  0  0
   56.9240   30.6010   51.6230 C   0  0  0  0  0  0  0  0  0  0  0  0
   55.5870   31.1220   51.7140 N   0  0  0  0  0  0  0  0  0  0  0  0
   54.5530   30.4800   52.5210 C   0  0  0  0  0  0  0  0  0  0  0  0
   53.1990   30.9310   52.0720 C   0  0  0  0  0  0  0  0  0  0  0  0
   52.0080   30.6460   52.7170 C   0  0  0  0  0  0  0  0  0  0  0  0
   51.0230   31.2910   52.0060 C   0  0  0  0  0  0  0  0  0  0  0  0
   51.6700   31.9360   50.9750 C   0  0  0  0  0  0  0  0  0  0  0  0
   51.0420   32.7150   50.0140 O   0  0  0  0  0  0  0  0  0  0  0  0
   53.0010   31.7300   51.0050 N   0  0  0  0  0  0  0  0  0  0  0  0
   58.0090   31.3820   50.9840 C   0  0  0  0  0  0  0  0  0  0  0  0
   59.2760   31.4860   51.5830 C   0  0  0  0  0  0  0  0  0  0  0  0
   60.2870   32.2290   50.9720 C   0  0  0  0  0  0  0  0  0  0  0  0
   60.0630   32.8640   49.7480 C   0  0  0  0  0  0  0  0  0  0  0  0
   61.3690   33.8310   49.0710 Cl  0  0  0  0  0  0  0  0  0  0  0  0
   58.8100   32.7360   49.1100 C   0  0  0  0  0  0  0  0  0  0  0  0
   58.4680   33.5180   47.5570 S   0  0  0  0  0  0  0  0  0  0  0  0
   58.9000   34.9570   47.5950 O   0  0  0  0  0  0  0  0  0  0  0  0
   56.9820   33.4530   47.3290 O   0  0  0  0  0  0  0  0  0  0  0  0
   59.3050   32.6860   46.2590 N   0  0  0  0  0  0  0  0  0  0  0  0
   58.8590   33.1550   44.9330 C   0  0  0  0  0  0  0  0  0  0  0  0
   57.4930   32.5570   44.5140 C   0  0  0  0  0  0  0  0  0  0  0  0
   57.0870   31.4660   45.3190 O   0  0  0  0  0  0  0  0  0  0  0  0
   58.1650   30.5760   45.4970 C   0  0  0  0  0  0  0  0  0  0  0  0
   59.2400   31.2140   46.3940 C   0  0  0  0  0  0  0  0  0  0  0  0
   57.7890   32.0120   49.7480 C   0  0  0  0  0  0  0  0  0  0  0  0
   55.3160   31.9560   51.1460 H   0  0  0  0  0  0  0  0  0  0  0  0
   54.6290   29.3884   52.4089 H   0  0  0  0  0  0  0  0  0  0  0  0
   54.6943   30.7577   53.5759 H   0  0  0  0  0  0  0  0  0  0  0  0
   51.8758   30.0279   53.6173 H   0  0  0  0  0  0  0  0  0  0  0  0
   49.9434   31.2917   52.2168 H   0  0  0  0  0  0  0  0  0  0  0  0
   59.4720   30.9787   52.5392 H   0  0  0  0  0  0  0  0  0  0  0  0
   61.2696   32.3155   51.4588 H   0  0  0  0  0  0  0  0  0  0  0  0
   58.7698   34.2511   44.9594 H   0  0  0  0  0  0  0  0  0  0  0  0
   59.6057   32.8245   44.1960 H   0  0  0  0  0  0  0  0  0  0  0  0
   56.7301   33.3462   44.5855 H   0  0  0  0  0  0  0  0  0  0  0  0
   57.6049   32.1792   43.4870 H   0  0  0  0  0  0  0  0  0  0  0  0
   57.7992   29.6525   45.9695 H   0  0  0  0  0  0  0  0  0  0  0  0
   58.6066   30.3472   44.5158 H   0  0  0  0  0  0  0  0  0  0  0  0
   59.0139   30.9676   47.4419 H   0  0  0  0  0  0  0  0  0  0  0  0
   60.2138   30.8109   46.0789 H   0  0  0  0  0  0  0  0  0  0  0  0
   56.8004   31.9372   49.2715 H   0  0  0  0  0  0  0  0  0  0  0  0
  1  2  2  0
  2  3  1  0
  3  4  1  0
  4  5  1  0
  5  6  2  0
  6  7  1  0
  7  8  2  0
  8  9  1  0
  8 10  1  0
  2 11  1  0
 11 12  2  0
 12 13  1  0
 13 14  2  0
 14 15  1  0
 14 16  1  0
 16 17  1  0
 17 18  2  0
 17 19  2  0
 17 20  1  0
 20 21  1  0
 21 22  1  0
 22 23  1  0
 23 24  1  0
 24 25  1  0
 16 26  2  0
 10  5  1  0
 26 11  1  0
 25 20  1  0
  3 27  1  0
  4 28  1  0
  4 29  1  0
  6 30  1  0
  7 31  1  0
 12 32  1  0
 13 33  1  0
 21 34  1  0
 21 35  1  0
 22 36  1  0
 22 37  1  0
 24 38  1  0
 24 39  1  0
 25 40  1  0
 25 41  1  0
 26 42  1  0
M  CHG  2   9  -1  10  -1
M  END
>  <UniqueID>  (16) 
15

>  <SMILES>  (16) 
O=C(NCc1ccc([O-])[n-]1)c1ccc(Cl)c(S(=O)(=O)N2CCOCC2)c1

>  <Energy>  (16) 
81.53820031471273

>  <Genealogy>  (16) 
O=C(NCc1ccc([O-])[n-]1)c1ccc(Cl)c(S(=O)(=O)N2CCOCC2)c1 (protonated)
O=C(NCc1ccc([O-])[n-]1)c1ccc(Cl)c(S(=O)(=O)N2CCOCC2)c1 (3D coordinates assigned)
O=C(NCc1ccc([O-])[n-]1)c1ccc(Cl)c(S(=O)(=O)N2CCOCC2)c1 (nonaromatic ring conformer: 81.53820031471273 kcal/mol)

>  <smiles>  (16) 
O=C(NCc1ccc(O)[nH]1)c1ccc(Cl)c(S(=O)(=O)N2CCOCC2)c1

>  <score_type>  (16) 
oracle

>  <origin>  (16) 
adg

>  <m_score__min__energy>  (16) 
-14.58

>  <m_primary>  (16) 
energy

$$$$
16:0
     RDKit          3D

 66 68  0  0  0  0  0  0  0  0999 V2000
   57.7210   33.4950   46.6830 C   0  0  0  0  0  0  0  0  0  0  0  0
   58.8940   34.2070   46.0190 C   0  0  0  0  0  0  0  0  0  0  0  0
   58.9150   33.9420   44.5070 C   0  0  0  0  0  0  0  0  0  0  0  0
   57.6790   33.1710   44.0130 C   0  0  0  0  0  0  0  0  0  0  0  0
   57.7460   32.6820   42.5510 C   0  0  0  0  0  0  0  0  0  0  0  0
   57.3020   31.2230   42.3610 C   0  0  0  0  0  0  0  0  0  0  0  0
   57.8200   30.3700   43.4320 N   0  0  0  0  0  0  0  0  0  0  0  0
   57.0530   30.0470   44.6050 C   0  0  0  0  0  0  0  0  0  0  0  0
   55.8640   30.4580   44.7010 O   0  0  0  0  0  0  0  0  0  0  0  0
   57.6140   29.2080   45.6970 C   0  0  0  0  0  0  0  0  0  0  0  0
   57.2230   27.8630   45.8090 C   0  0  0  0  0  0  0  0  0  0  0  0
   57.7250   27.0600   46.8320 C   0  0  0  0  0  0  0  0  0  0  0  0
   58.6230   27.5830   47.7610 C   0  0  0  0  0  0  0  0  0  0  0  0
   59.0410   28.9240   47.6730 C   0  0  0  0  0  0  0  0  0  0  0  0
   59.9750   29.5110   48.6740 C   0  0  0  0  0  0  0  0  0  0  0  0
   60.5900   28.7510   49.4710 O   0  0  0  0  0  0  0  0  0  0  0  0
   60.2520   30.9610   48.7420 C   0  0  0  0  0  0  0  0  0  0  0  0
   61.3730   31.5010   48.0940 C   0  0  0  0  0  0  0  0  0  0  0  0
   61.6290   32.8730   48.1550 C   0  0  0  0  0  0  0  0  0  0  0  0
   63.1600   33.5990   47.2750 Br  0  0  0  0  0  0  0  0  0  0  0  0
   60.7630   33.7150   48.8590 C   0  0  0  0  0  0  0  0  0  0  0  0
   59.6400   33.1880   49.5040 C   0  0  0  0  0  0  0  0  0  0  0  0
   59.3780   31.8070   49.4500 C   0  0  0  0  0  0  0  0  0  0  0  0
   58.2740   31.2310   50.0920 O   0  0  0  0  0  0  0  0  0  0  0  0
   58.3110   30.4950   51.3100 C   0  0  0  0  0  0  0  0  0  0  0  0
   56.9870   30.6370   51.9870 C   0  0  0  0  0  0  0  0  0  0  0  0
   56.6760   31.7220   52.5470 O   0  0  0  0  0  0  0  0  0  0  0  0
   56.0940   29.5210   52.0180 N   0  0  0  0  0  0  0  0  0  0  0  0
   55.0360   29.3540   53.0010 C   0  0  0  0  0  0  0  0  0  0  0  0
   53.8960   30.2670   52.6490 C   0  0  0  0  0  0  0  0  0  0  0  0
   52.8990   30.5600   53.5920 C   0  0  0  0  0  0  0  0  0  0  0  0
   51.8200   31.3780   53.2440 C   0  0  0  0  0  0  0  0  0  0  0  0
   51.7220   31.8990   51.9500 C   0  0  0  0  0  0  0  0  0  0  0  0
   50.6570   32.7260   51.6140 O   0  0  0  0  0  0  0  0  0  0  0  0
   52.6980   31.5910   50.9980 C   0  0  0  0  0  0  0  0  0  0  0  0
   53.7810   30.7750   51.3440 C   0  0  0  0  0  0  0  0  0  0  0  0
   58.5160   29.7310   46.6440 C   0  0  0  0  0  0  0  0  0  0  0  0
   57.8250   33.5581   47.7762 H   0  0  0  0  0  0  0  0  0  0  0  0
   56.7797   33.9743   46.3759 H   0  0  0  0  0  0  0  0  0  0  0  0
   57.7118   32.4388   46.3759 H   0  0  0  0  0  0  0  0  0  0  0  0
   58.8029   35.2893   46.1931 H   0  0  0  0  0  0  0  0  0  0  0  0
   59.8284   33.8235   46.4547 H   0  0  0  0  0  0  0  0  0  0  0  0
   58.9578   34.9081   43.9827 H   0  0  0  0  0  0  0  0  0  0  0  0
   59.7967   33.3194   44.2950 H   0  0  0  0  0  0  0  0  0  0  0  0
   57.5469   32.2910   44.6597 H   0  0  0  0  0  0  0  0  0  0  0  0
   56.8403   33.8814   44.0573 H   0  0  0  0  0  0  0  0  0  0  0  0
   57.0943   33.3245   41.9407 H   0  0  0  0  0  0  0  0  0  0  0  0
   58.8009   32.7371   42.2441 H   0  0  0  0  0  0  0  0  0  0  0  0
   56.2029   31.1785   42.3663 H   0  0  0  0  0  0  0  0  0  0  0  0
   57.6994   30.8593   41.4020 H   0  0  0  0  0  0  0  0  0  0  0  0
   58.8110   30.0560   43.3560 H   0  0  0  0  0  0  0  0  0  0  0  0
   56.5139   27.4396   45.0824 H   0  0  0  0  0  0  0  0  0  0  0  0
   57.4109   26.0084   46.9065 H   0  0  0  0  0  0  0  0  0  0  0  0
   59.0077   26.9430   48.5687 H   0  0  0  0  0  0  0  0  0  0  0  0
   62.0533   30.8413   47.5355 H   0  0  0  0  0  0  0  0  0  0  0  0
   60.9657   34.7952   48.9056 H   0  0  0  0  0  0  0  0  0  0  0  0
   58.9601   33.8546   50.0547 H   0  0  0  0  0  0  0  0  0  0  0  0
   58.5075   29.4338   51.0970 H   0  0  0  0  0  0  0  0  0  0  0  0
   59.1110   30.8795   51.9598 H   0  0  0  0  0  0  0  0  0  0  0  0
   54.6884   28.3104   52.9957 H   0  0  0  0  0  0  0  0  0  0  0  0
   55.4160   29.6016   54.0031 H   0  0  0  0  0  0  0  0  0  0  0  0
   52.9667   30.1447   54.6083 H   0  0  0  0  0  0  0  0  0  0  0  0
   51.0462   31.6124   53.9899 H   0  0  0  0  0  0  0  0  0  0  0  0
   52.6148   31.9902   49.9764 H   0  0  0  0  0  0  0  0  0  0  0  0
   54.5451   30.5304   50.5915 H   0  0  0  0  0  0  0  0  0  0  0  0
   58.8157   30.7874   46.5792 H   0  0  0  0  0  0  0  0  0  0  0  0
  1  2  1  0
  2  3  1  0
  3  4  1  0
  4  5  1  0
  5  6  1  0
  6  7  1  0
  7  8  1  0
  8  9  2  0
  8 10  1  0
 10 11  2  0
 11 12  1  0
 12 13  2  0
 13 14  1  0
 14 15  1  0
 15 16  2  0
 15 17  1  0
 17 18  2  0
 18 19  1  0
 19 20  1  0
 19 21  2  0
 21 22  1  0
 22 23  2  0
 23 24  1  0
 24 25  1  0
 25 26  1  0
 26 27  2  0
 26 28  1  0
 28 29  1  0
 29 30  1  0
 30 31  2  0
 31 32  1  0
 32 33  2  0
 33 34  1  0
 33 35  1  0
 35 36  2  0
 14 37  2  0
 37 10  1  0
 23 17  1  0
 36 30  1  0
  1 38  1  0
  1 39  1  0
  1 40  1  0
  2 41  1  0
  2 42  1  0
  3 43  1  0
  3 44  1  0
  4 45  1  0
  4 46  1  0
  5 47  1  0
  5 48  1  0
  6 49  1  0
  6 50  1  0
  7 51  1  0
 11 52  1  0
 12 53  1  0
 13 54  1  0
 18 55  1  0
 21 56  1  0
 22 57  1  0
 25 58  1  0
 25 59  1  0
 29 60  1  0
 29 61  1  0
 31 62  1  0
 32 63  1  0
 35 64  1  0
 36 65  1  0
 37 66  1  0
M  CHG  2  28  -1  34  -1
M  END
>  <UniqueID>  (17) 
16

>  <SMILES>  (17) 
CCCCCCNC(=O)c1cccc(C(=O)c2cc(Br)ccc2OCC(=O)[N-]Cc2ccc([O-])cc2)c1

>  <Energy>  (17) 
60.73485319360817

>  <Genealogy>  (17) 
CCCCCCNC(=O)c1cccc(C(=O)c2cc(Br)ccc2OCC(=O)[N-]Cc2ccc([O-])cc2)c1 (protonated)
CCCCCCNC(=O)c1cccc(C(=O)c2cc(Br)ccc2OCC(=O)[N-]Cc2ccc([O-])cc2)c1 (3D coordinates assigned)
CCCCCCNC(=O)c1cccc(C(=O)c2cc(Br)ccc2OCC(=O)[N-]Cc2ccc([O-])cc2)c1 (optimized conformer: 60.73485319360817 kcal/mol)

>  <smiles>  (17) 
CCCCCCNC(=O)c1cccc(C(=O)c2cc(Br)ccc2OCC(=O)NCc2ccc(O)cc2)c1

>  <score_type>  (17) 
oracle

>  <origin>  (17) 
adg

>  <m_score__min__energy>  (17) 
-16.489999999999998

>  <m_primary>  (17) 
energy

$$$$
17:0
     RDKit          3D

 48 50  0  0  1  0  0  0  0  0999 V2000
   62.8940   31.3730   49.1250 N   0  0  0  0  0  0  0  0  0  0  0  0
   62.4150   31.7520   47.5090 S   0  0  0  0  0  0  0  0  0  0  0  0
   63.6290   32.3510   46.8380 O   0  0  0  0  0  0  0  0  0  0  0  0
   61.8880   30.5880   46.7710 O   0  0  0  0  0  0  0  0  0  0  0  0
   61.1830   32.9980   47.5850 C   0  0  0  0  0  0  0  0  0  0  0  0
   60.5900   33.4880   46.4450 C   0  0  0  0  0  0  0  0  0  0  0  0
   59.6120   34.4550   46.4730 C   0  0  0  0  0  0  0  0  0  0  0  0
   58.9890   34.9330   45.2110 C   0  0  0  0  0  0  0  0  0  0  0  0
   59.4900   35.8640   44.5410 O   0  0  0  0  0  0  0  0  0  0  0  0
   57.7930   34.2410   44.8520 N   0  0  0  0  0  0  0  0  0  0  0  0
   57.8680   32.9640   44.7120 C   0  0  0  0  0  0  0  0  0  0  0  0
   57.8570   31.9680   45.6720 C   0  0  0  0  0  0  0  0  0  0  0  0
   58.0110   30.7650   45.0250 C   0  0  0  0  0  0  0  0  0  0  0  0
   58.0380   29.4250   45.6650 C   0  0  0  0  0  0  0  0  0  0  0  0
   57.0820   28.6840   45.3840 O   0  0  0  0  0  0  0  0  0  0  0  0
   59.1090   29.1190   46.5150 N   0  0  0  0  0  0  0  0  0  0  0  0
   59.3950   27.9380   47.2440 C   0  0  0  0  0  0  0  0  0  0  0  0
   60.0840   28.0390   48.5300 C   0  0  0  0  0  0  0  0  0  0  0  0
   60.3920   26.8150   49.1580 C   0  0  0  0  0  0  0  0  0  0  0  0
   61.0210   26.7420   50.3730 C   0  0  0  0  0  0  0  0  0  0  0  0
   61.3880   27.8970   51.0470 C   0  0  0  0  0  0  0  0  0  0  0  0
   61.0930   29.0830   50.4430 C   0  0  0  0  0  0  0  0  0  0  0  0
   61.4570   30.2630   51.1160 O   0  0  0  0  0  0  0  0  0  0  0  0
   60.4550   29.1610   49.2070 C   0  0  0  0  0  0  0  0  0  0  0  0
   60.2260   30.4240   48.7150 O   0  0  0  0  0  0  0  0  0  0  0  0
   58.1080   31.0630   43.7220 N   0  0  0  0  0  0  0  0  0  0  0  0
   58.0250   32.3670   43.5190 N   0  0  0  0  0  0  0  0  0  0  0  0
   59.2050   34.9590   47.6900 C   0  0  0  0  0  0  0  0  0  0  0  0
   59.7960   34.4730   48.8430 C   0  0  0  0  0  0  0  0  0  0  0  0
   60.7780   33.5000   48.8080 C   0  0  0  0  0  0  0  0  0  0  0  0
   61.3400   33.0430   49.9910 O   0  0  0  0  0  0  0  0  0  0  0  0
   63.3050   32.2170   49.5920 H   0  0  0  0  0  0  0  0  0  0  0  0
   62.1000   30.9670   49.6680 H   0  0  0  0  0  0  0  0  0  0  0  0
   60.9109   33.0904   45.4709 H   0  0  0  0  0  0  0  0  0  0  0  0
   57.7452   32.1125   46.7567 H   0  0  0  0  0  0  0  0  0  0  0  0
   59.8320   29.9180   46.6270 H   0  0  0  0  0  0  0  0  0  0  0  0
   58.4340   27.4374   47.4335 H   0  0  0  0  0  0  0  0  0  0  0  0
   60.1144   27.4054   46.6046 H   0  0  0  0  0  0  0  0  0  0  0  0
   60.1156   25.8788   48.6510 H   0  0  0  0  0  0  0  0  0  0  0  0
   61.2366   25.7592   50.8175 H   0  0  0  0  0  0  0  0  0  0  0  0
   61.8934   27.8580   52.0232 H   0  0  0  0  0  0  0  0  0  0  0  0
   61.2290   31.1630   50.7060 H   0  0  0  0  0  0  0  0  0  0  0  0
   60.7630   31.2430   48.9950 H   0  0  0  0  0  0  0  0  0  0  0  0
   58.2340   30.3500   42.9610 H   0  0  0  0  0  0  0  0  0  0  0  0
   58.0770   32.8030   42.5810 H   0  0  0  0  0  0  0  0  0  0  0  0
   58.4251   35.7329   47.7435 H   0  0  0  0  0  0  0  0  0  0  0  0
   59.4751   34.8725   49.8163 H   0  0  0  0  0  0  0  0  0  0  0  0
   61.8510   32.1820   50.1040 H   0  0  0  0  0  0  0  0  0  0  0  0
  1  2  1  0
  2  3  2  0
  2  4  2  0
  2  5  1  0
  5  6  2  0
  6  7  1  0
  7  8  1  0
  8  9  2  0
  8 10  1  0
 10 11  2  0
 11 12  1  0
 12 13  2  0
 13 14  1  0
 14 15  2  0
 14 16  1  0
 16 17  1  0
 17 18  1  0
 18 19  2  0
 19 20  1  0
 20 21  2  0
 21 22  1  0
 22 23  1  0
 22 24  2  0
 24 25  1  0
 13 26  1  0
 26 27  1  0
  7 28  2  0
 28 29  1  0
 29 30  2  0
 30 31  1  0
 30  5  1  0
 27 11  1  0
 24 18  1  0
  1 32  1  0
  1 33  1  0
  6 34  1  0
 12 35  1  0
 16 36  1  0
 17 37  1  0
 17 38  1  0
 19 39  1  0
 20 40  1  0
 21 41  1  0
 23 42  1  0
 25 43  1  0
 26 44  1  0
 27 45  1  0
 28 46  1  0
 29 47  1  0
 31 48  1  0
M  END
>  <smiles>  (18) 
NS(=O)(=O)c1cc(C(=O)N=c2cc(C(=O)NCc3cccc(O)c3O)[nH][nH]2)ccc1O

>  <score_type>  (18) 
oracle

>  <origin>  (18) 
adg

>  <m_score__min__energy>  (18) 
-9.0600000000000005

>  <m_primary>  (18) 
energy

$$$$
18:0
     RDKit          3D

 44 45  0  0  0  0  0  0  0  0999 V2000
   59.8960   34.3970   46.8050 C   0  0  0  0  0  0  0  0  0  0  0  0
   59.9190   33.4860   48.0220 C   0  0  0  0  0  0  0  0  0  0  0  0
   59.1440   32.3210   47.7590 O   0  0  0  0  0  0  0  0  0  0  0  0
   58.2000   32.2630   46.7290 C   0  0  0  0  0  0  0  0  0  0  0  0
   57.1800   33.0060   46.7490 O   0  0  0  0  0  0  0  0  0  0  0  0
   58.4050   31.2950   45.5990 C   0  0  2  0  0  0  0  0  0  0  0  0
   57.7570   31.8400   44.3370 C   0  0  0  0  0  0  0  0  0  0  0  0
   58.3130   33.0670   43.6800 C   0  0  0  0  0  0  0  0  0  0  0  0
   56.6920   31.2940   43.8340 N   0  0  0  0  0  0  0  0  0  0  0  0
   56.1270   30.1080   44.3930 C   0  0  0  0  0  0  0  0  0  0  0  0
   55.0550   29.6410   43.9300 O   0  0  0  0  0  0  0  0  0  0  0  0
   56.8030   29.4350   45.4540 N   0  0  0  0  0  0  0  0  0  0  0  0
   57.8750   29.9280   45.9980 C   0  0  0  0  0  0  0  0  0  0  0  0
   58.5540   29.1550   47.0920 C   0  0  0  0  0  0  0  0  0  0  0  0
   58.6230   27.4170   46.6810 S   0  0  0  0  0  0  0  0  0  0  0  0
   59.5540   27.1780   45.5250 O   0  0  0  0  0  0  0  0  0  0  0  0
   59.1270   26.6540   47.8730 O   0  0  0  0  0  0  0  0  0  0  0  0
   57.0350   26.8440   46.2870 N   0  0  0  0  0  0  0  0  0  0  0  0
   56.7340   25.6520   45.5470 C   0  0  0  0  0  0  0  0  0  0  0  0
   57.5450   25.3230   44.4540 C   0  0  0  0  0  0  0  0  0  0  0  0
   57.2910   24.1720   43.7020 C   0  0  0  0  0  0  0  0  0  0  0  0
   56.2140   23.3300   44.0360 C   0  0  0  0  0  0  0  0  0  0  0  0
   55.9170   22.1650   43.3140 O   0  0  0  0  0  0  0  0  0  0  0  0
   56.8710   21.1610   42.9810 C   0  0  0  0  0  0  0  0  0  0  0  0
   55.4030   23.6610   45.1280 C   0  0  0  0  0  0  0  0  0  0  0  0
   55.6570   24.8130   45.8800 C   0  0  0  0  0  0  0  0  0  0  0  0
   59.8695   35.4466   47.1331 H   0  0  0  0  0  0  0  0  0  0  0  0
   60.7988   34.2244   46.2007 H   0  0  0  0  0  0  0  0  0  0  0  0
   59.0031   34.1791   46.2007 H   0  0  0  0  0  0  0  0  0  0  0  0
   60.9566   33.1940   48.2416 H   0  0  0  0  0  0  0  0  0  0  0  0
   59.4967   34.0192   48.8865 H   0  0  0  0  0  0  0  0  0  0  0  0
   59.4765   31.1734   45.3821 H   0  0  0  0  0  0  0  0  0  0  0  0
   58.6367   33.7813   44.4514 H   0  0  0  0  0  0  0  0  0  0  0  0
   59.1733   32.7894   43.0532 H   0  0  0  0  0  0  0  0  0  0  0  0
   57.5371   33.5308   43.0532 H   0  0  0  0  0  0  0  0  0  0  0  0
   59.5772   29.5367   47.2235 H   0  0  0  0  0  0  0  0  0  0  0  0
   57.9807   29.2778   48.0227 H   0  0  0  0  0  0  0  0  0  0  0  0
   58.3888   25.9754   44.1848 H   0  0  0  0  0  0  0  0  0  0  0  0
   57.9355   23.9236   42.8459 H   0  0  0  0  0  0  0  0  0  0  0  0
   57.2836   20.7268   43.9036 H   0  0  0  0  0  0  0  0  0  0  0  0
   56.3820   20.3718   42.3911 H   0  0  0  0  0  0  0  0  0  0  0  0
   57.6842   21.6091   42.3911 H   0  0  0  0  0  0  0  0  0  0  0  0
   54.5585   23.0095   45.3971 H   0  0  0  0  0  0  0  0  0  0  0  0
   55.0115   25.0629   46.7349 H   0  0  0  0  0  0  0  0  0  0  0  0
  1  2  1  0
  2  3  1  0
  3  4  1  0
  4  5  2  0
  4  6  1  0
  6  7  1  0
  7  8  1  0
  7  9  2  0
  9 10  1  0
 10 11  2  0
 10 12  1  0
 12 13  2  0
 13 14  1  0
 14 15  1  0
 15 16  2  0
 15 17  2  0
 15 18  1  0
 18 19  1  0
 19 20  2  0
 20 21  1  0
 21 22  2  0
 22 23  1  0
 23 24  1  0
 22 25  1  0
 25 26  2  0
 13  6  1  0
 26 19  1  0
  1 27  1  0
  1 28  1  0
  1 29  1  0
  2 30  1  0
  2 31  1  0
  6 32  1  6
  8 33  1  0
  8 34  1  0
  8 35  1  0
 14 36  1  0
 14 37  1  0
 20 38  1  0
 21 39  1  0
 24 40  1  0
 24 41  1  0
 24 42  1  0
 25 43  1  0
 26 44  1  0
M  CHG  1  18  -1
M  END
>  <UniqueID>  (19) 
17

>  <SMILES>  (19) 
CCOC(=O)[C@@H]1C(C)=NC(=O)N=C1CS(=O)(=O)[N-]c1ccc(OC)cc1

>  <Energy>  (19) 
32.334908497567966

>  <Genealogy>  (19) 
CCOC(=O)C1C(C)=NC(=O)N=C1CS(=O)(=O)[N-]c1ccc(OC)cc1 (protonated)
CCOC(=O)[C@@H]1C(C)=NC(=O)N=C1CS(=O)(=O)[N-]c1ccc(OC)cc1 (chirality)
CCOC(=O)[C@@H]1C(C)=NC(=O)N=C1CS(=O)(=O)[N-]c1ccc(OC)cc1 (3D coordinates assigned)
CCOC(=O)[C@@H]1C(C)=NC(=O)N=C1CS(=O)(=O)[N-]c1ccc(OC)cc1 (nonaromatic ring conformer: 32.334908497567966 kcal/mol)

>  <smiles>  (19) 
CCOC(=O)C1C(C)=NC(=O)N=C1CS(=O)(=O)Nc1ccc(OC)cc1

>  <score_type>  (19) 
oracle

>  <origin>  (19) 
adg

>  <m_score__min__energy>  (19) 
-9.3200000000000003

>  <m_primary>  (19) 
energy

$$$$
19:0
     RDKit          3D

 49 52  0  0  1  0  0  0  0  0999 V2000
   59.2160   29.8170   48.0620 O   0  0  0  0  0  0  0  0  0  0  0  0
   60.1500   29.7090   47.2360 C   0  0  0  0  0  0  0  0  0  0  0  0
   60.3140   28.4130   46.4860 C   0  0  0  0  0  0  0  0  0  0  0  0
   59.1090   28.2330   45.6740 N   0  0  0  0  0  0  0  0  0  0  0  0
   58.3750   27.1130   45.5590 C   0  0  0  0  0  0  0  0  0  0  0  0
   58.5390   25.7940   46.2360 C   0  0  0  0  0  0  0  0  0  0  0  0
   57.2230   25.1690   46.1860 N   0  0  0  0  0  0  0  0  0  0  0  0
   57.0250   24.1990   45.3690 C   0  0  0  0  0  0  0  0  0  0  0  0
   56.7110   24.5390   44.0850 N   0  0  0  0  0  0  0  0  0  0  0  0
   56.4880   23.5790   43.1720 N   0  0  0  0  0  0  0  0  0  0  0  0
   56.5730   22.2770   43.5180 C   0  0  0  0  0  0  0  0  0  0  0  0
   56.3510   21.4310   42.6130 O   0  0  0  0  0  0  0  0  0  0  0  0
   56.8840   21.9200   44.7920 N   0  0  0  0  0  0  0  0  0  0  0  0
   57.1120   22.8610   45.7260 C   0  0  0  0  0  0  0  0  0  0  0  0
   57.3990   22.5390   46.9040 O   0  0  0  0  0  0  0  0  0  0  0  0
   57.3770   27.3820   44.6970 N   0  0  0  0  0  0  0  0  0  0  0  0
   57.4300   28.6260   44.2490 C   0  0  0  0  0  0  0  0  0  0  0  0
   56.6480   29.3400   43.3790 C   0  0  0  0  0  0  0  0  0  0  0  0
   56.9850   30.6670   43.1140 C   0  0  0  0  0  0  0  0  0  0  0  0
   58.0720   31.2620   43.7020 C   0  0  0  0  0  0  0  0  0  0  0  0
   58.8340   30.4970   44.5790 C   0  0  0  0  0  0  0  0  0  0  0  0
   58.5500   29.1890   44.8760 C   0  0  0  0  0  0  0  0  0  0  0  0
   61.0010   30.8130   47.0490 N   0  0  0  0  0  0  0  0  0  0  0  0
   60.9080   32.0770   47.7290 C   0  0  0  0  0  0  0  0  0  0  0  0
   59.9930   32.9630   47.0050 C   0  0  0  0  0  0  0  0  0  0  0  0
   58.6360   32.6980   47.0830 C   0  0  0  0  0  0  0  0  0  0  0  0
   57.6870   33.4590   46.4380 C   0  0  0  0  0  0  0  0  0  0  0  0
   58.0800   34.5470   45.6690 C   0  0  0  0  0  0  0  0  0  0  0  0
   59.4320   34.8030   45.5970 C   0  0  0  0  0  0  0  0  0  0  0  0
   60.3670   34.0420   46.2400 C   0  0  0  0  0  0  0  0  0  0  0  0
   61.2021   28.4609   45.8387 H   0  0  0  0  0  0  0  0  0  0  0  0
   60.4482   27.5713   47.1813 H   0  0  0  0  0  0  0  0  0  0  0  0
   59.2787   25.1775   45.7043 H   0  0  0  0  0  0  0  0  0  0  0  0
   58.9007   25.9056   47.2688 H   0  0  0  0  0  0  0  0  0  0  0  0
   56.6460   25.5630   43.8230 H   0  0  0  0  0  0  0  0  0  0  0  0
   56.2510   23.8800   42.1890 H   0  0  0  0  0  0  0  0  0  0  0  0
   56.9450   20.9060   45.0480 H   0  0  0  0  0  0  0  0  0  0  0  0
   55.7731   28.8762   42.8999 H   0  0  0  0  0  0  0  0  0  0  0  0
   56.3648   31.2500   42.4173 H   0  0  0  0  0  0  0  0  0  0  0  0
   58.3324   32.3089   43.4873 H   0  0  0  0  0  0  0  0  0  0  0  0
   59.7072   30.9644   45.0577 H   0  0  0  0  0  0  0  0  0  0  0  0
   61.7780   30.6860   46.3330 H   0  0  0  0  0  0  0  0  0  0  0  0
   60.5297   31.9160   48.7493 H   0  0  0  0  0  0  0  0  0  0  0  0
   61.9046   32.5406   47.7725 H   0  0  0  0  0  0  0  0  0  0  0  0
   58.3015   31.8417   47.6870 H   0  0  0  0  0  0  0  0  0  0  0  0
   56.6206   33.2061   46.5314 H   0  0  0  0  0  0  0  0  0  0  0  0
   57.3463   35.1748   45.1422 H   0  0  0  0  0  0  0  0  0  0  0  0
   59.7737   35.6580   44.9951 H   0  0  0  0  0  0  0  0  0  0  0  0
   61.4329   34.2961   46.1442 H   0  0  0  0  0  0  0  0  0  0  0  0
  1  2  2  0
  2  3  1  0
  3  4  1  0
  4  5  1  0
  5  6  1  0
  6  7  1  0
  7  8  2  0
  8  9  1  0
  9 10  1  0
 10 11  1  0
 11 12  2  0
 11 13  1  0
 13 14  1  0
 14 15  2  0
  5 16  2  0
 16 17  1  0
 17 18  2  0
 18 19  1  0
 19 20  2  0
 20 21  1  0
 21 22  2  0
  2 23  1  0
 23 24  1  0
 24 25  1  0
 25 26  2  0
 26 27  1  0
 27 28  2  0
 28 29  1  0
 29 30  2  0
 22  4  1  0
 30 25  1  0
 14  8  1  0
 22 17  1  0
  3 31  1  0
  3 32  1  0
  6 33  1  0
  6 34  1  0
  9 35  1  0
 10 36  1  0
 13 37  1  0
 18 38  1  0
 19 39  1  0
 20 40  1  0
 21 41  1  0
 23 42  1  0
 24 43  1  0
 24 44  1  0
 26 45  1  0
 27 46  1  0
 28 47  1  0
 29 48  1  0
 30 49  1  0
M  END
>  <smiles>  (20) 
O=C(Cn1c(CN=c2[nH][nH]c(=O)[nH]c2=O)nc2ccccc21)NCc1ccccc1

>  <score_type>  (20) 
oracle

>  <origin>  (20) 
adg

>  <m_score__min__energy>  (20) 
-9.9800000000000004

>  <m_primary>  (20) 
energy

$$$$
20:0
     RDKit          3D

 33 34  0  0  0  0  0  0  0  0999 V2000
   56.9890   24.4980   43.1470 C   0  0  0  0  0  0  0  0  0  0  0  0
   56.7370   22.9930   44.0670 S   0  0  0  0  0  0  0  0  0  0  0  0
   58.0730   22.5190   44.5650 O   0  0  0  0  0  0  0  0  0  0  0  0
   56.1460   21.9370   43.1770 O   0  0  0  0  0  0  0  0  0  0  0  0
   55.7050   23.2690   45.4340 N   0  0  0  0  0  0  0  0  0  0  0  0
   55.9830   24.1720   46.5110 C   0  0  0  0  0  0  0  0  0  0  0  0
   55.5260   23.9100   47.6550 O   0  0  0  0  0  0  0  0  0  0  0  0
   56.7850   25.3960   46.3220 C   0  0  0  0  0  0  0  0  0  0  0  0
   58.1840   25.3340   46.3820 C   0  0  0  0  0  0  0  0  0  0  0  0
   58.9550   26.4900   46.2040 C   0  0  0  0  0  0  0  0  0  0  0  0
   60.3910   26.4020   46.2820 C   0  0  0  0  0  0  0  0  0  0  0  0
   61.5450   26.3320   46.3460 N   0  0  0  0  0  0  0  0  0  0  0  0
   58.3310   27.7190   45.9340 C   0  0  0  0  0  0  0  0  0  0  0  0
   59.1190   28.8710   45.7740 O   0  0  0  0  0  0  0  0  0  0  0  0
   58.6510   30.1270   45.3630 C   0  0  0  0  0  0  0  0  0  0  0  0
   58.0580   30.3250   44.1020 C   0  0  0  0  0  0  0  0  0  0  0  0
   57.6190   31.5970   43.7230 C   0  0  0  0  0  0  0  0  0  0  0  0
   57.7810   32.6820   44.5900 C   0  0  0  0  0  0  0  0  0  0  0  0
   58.3880   32.4940   45.8350 C   0  0  0  0  0  0  0  0  0  0  0  0
   58.8270   31.2230   46.2170 C   0  0  0  0  0  0  0  0  0  0  0  0
   56.9270   27.7790   45.8730 C   0  0  0  0  0  0  0  0  0  0  0  0
   56.1580   26.6260   46.0560 C   0  0  0  0  0  0  0  0  0  0  0  0
   54.7720   26.7160   45.9930 O   0  0  0  0  0  0  0  0  0  0  0  0
   57.1293   25.3358   43.8458 H   0  0  0  0  0  0  0  0  0  0  0  0
   57.8825   24.3953   42.5136 H   0  0  0  0  0  0  0  0  0  0  0  0
   56.1108   24.6920   42.5136 H   0  0  0  0  0  0  0  0  0  0  0  0
   58.6802   24.3705   46.5703 H   0  0  0  0  0  0  0  0  0  0  0  0
   57.9396   29.4762   43.4125 H   0  0  0  0  0  0  0  0  0  0  0  0
   57.1454   31.7445   42.7412 H   0  0  0  0  0  0  0  0  0  0  0  0
   57.4314   33.6817   44.2928 H   0  0  0  0  0  0  0  0  0  0  0  0
   58.5205   33.3480   46.5156 H   0  0  0  0  0  0  0  0  0  0  0  0
   59.3133   31.0829   47.1937 H   0  0  0  0  0  0  0  0  0  0  0  0
   56.4300   28.7411   45.6797 H   0  0  0  0  0  0  0  0  0  0  0  0
  1  2  1  0
  2  3  2  0
  2  4  2  0
  2  5  1  0
  5  6  1  0
  6  7  2  0
  6  8  1  0
  8  9  2  0
  9 10  1  0
 10 11  1  0
 11 12  3  0
 10 13  2  0
 13 14  1  0
 14 15  1  0
 15 16  2  0
 16 17  1  0
 17 18  2  0
 18 19  1  0
 19 20  2  0
 13 21  1  0
 21 22  2  0
 22 23  1  0
 22  8  1  0
 20 15  1  0
  1 24  1  0
  1 25  1  0
  1 26  1  0
  9 27  1  0
 16 28  1  0
 17 29  1  0
 18 30  1  0
 19 31  1  0
 20 32  1  0
 21 33  1  0
M  CHG  2   5  -1  23  -1
M  END
>  <UniqueID>  (21) 
18

>  <SMILES>  (21) 
CS(=O)(=O)[N-]C(=O)c1cc(C#N)c(Oc2ccccc2)cc1[O-]

>  <Energy>  (21) 
43.853280807283745

>  <Genealogy>  (21) 
CS(=O)(=O)[N-]C(=O)c1cc(C#N)c(Oc2ccccc2)cc1[O-] (protonated)
CS(=O)(=O)[N-]C(=O)c1cc(C#N)c(Oc2ccccc2)cc1[O-] (3D coordinates assigned)
CS(=O)(=O)[N-]C(=O)c1cc(C#N)c(Oc2ccccc2)cc1[O-] (optimized conformer: 43.853280807283745 kcal/mol)

>  <smiles>  (21) 
CS(=O)(=O)NC(=O)c1cc(C#N)c(Oc2ccccc2)cc1O

>  <score_type>  (21) 
oracle

>  <origin>  (21) 
adg

>  <m_score__min__energy>  (21) 
-12.84

>  <m_primary>  (21) 
energy

$$$$
21:0
     RDKit          3D

 35 36  0  0  0  0  0  0  0  0999 V2000
   59.8080   28.4580   45.5320 C   0  0  0  0  0  0  0  0  0  0  0  0
   58.6500   29.3300   45.1700 C   0  0  0  0  0  0  0  0  0  0  0  0
   57.3510   28.8520   45.1740 C   0  0  0  0  0  0  0  0  0  0  0  0
   56.3430   29.7260   44.8300 C   0  0  0  0  0  0  0  0  0  0  0  0
   55.1520   29.3110   44.8260 O   0  0  0  0  0  0  0  0  0  0  0  0
   56.5710   31.0180   44.4920 N   0  0  0  0  0  0  0  0  0  0  0  0
   57.8430   31.4460   44.4990 C   0  0  0  0  0  0  0  0  0  0  0  0
   58.3300   33.1090   44.0730 S   0  0  0  0  0  0  0  0  0  0  0  0
   57.8760   34.1820   45.4780 C   0  0  0  0  0  0  0  0  0  0  0  0
   58.1360   33.3780   46.7090 C   0  0  0  0  0  0  0  0  0  0  0  0
   57.1390   33.2730   47.5030 O   0  0  0  0  0  0  0  0  0  0  0  0
   59.3810   32.7730   46.9960 N   0  0  0  0  0  0  0  0  0  0  0  0
   59.6440   31.9890   48.1950 C   0  0  0  0  0  0  0  0  0  0  0  0
   60.8270   32.5190   48.9620 C   0  0  0  0  0  0  0  0  0  0  0  0
   61.9400   32.8440   48.0100 C   0  0  0  0  0  0  0  0  0  0  0  0
   63.1540   32.1970   47.9000 C   0  0  0  0  0  0  0  0  0  0  0  0
   63.8720   32.7780   46.9280 N   0  0  0  0  0  0  0  0  0  0  0  0
   63.1260   33.7860   46.4200 C   0  0  0  0  0  0  0  0  0  0  0  0
   61.9520   33.8170   47.0860 N   0  0  0  0  0  0  0  0  0  0  0  0
   58.8590   30.5960   44.8380 N   0  0  0  0  0  0  0  0  0  0  0  0
   59.8914   28.3952   46.6270 H   0  0  0  0  0  0  0  0  0  0  0  0
   59.6523   27.4510   45.1177 H   0  0  0  0  0  0  0  0  0  0  0  0
   60.7328   28.8859   45.1177 H   0  0  0  0  0  0  0  0  0  0  0  0
   57.1306   27.8084   45.4430 H   0  0  0  0  0  0  0  0  0  0  0  0
   58.4929   35.0927   45.4787 H   0  0  0  0  0  0  0  0  0  0  0  0
   56.8249   34.5009   45.4189 H   0  0  0  0  0  0  0  0  0  0  0  0
   60.1750   32.8880   46.3020 H   0  0  0  0  0  0  0  0  0  0  0  0
   58.7560   32.0213   48.8433 H   0  0  0  0  0  0  0  0  0  0  0  0
   59.8710   30.9579   47.8862 H   0  0  0  0  0  0  0  0  0  0  0  0
   60.5329   33.4290   49.5056 H   0  0  0  0  0  0  0  0  0  0  0  0
   61.1694   31.7569   49.6775 H   0  0  0  0  0  0  0  0  0  0  0  0
   63.4800   31.3425   48.5112 H   0  0  0  0  0  0  0  0  0  0  0  0
   64.8240   32.5700   46.5600 H   0  0  0  0  0  0  0  0  0  0  0  0
   63.4242   34.4628   45.6057 H   0  0  0  0  0  0  0  0  0  0  0  0
   59.8670   30.9340   44.8440 H   0  0  0  0  0  0  0  0  0  0  0  0
  1  2  1  0
  2  3  2  0
  3  4  1  0
  4  5  2  0
  4  6  1  0
  6  7  2  0
  7  8  1  0
  8  9  1  0
  9 10  1  0
 10 11  2  0
 10 12  1  0
 12 13  1  0
 13 14  1  0
 14 15  1  0
 15 16  2  0
 16 17  1  0
 17 18  1  0
 18 19  2  0
  7 20  1  0
 20  2  1  0
 19 15  1  0
  1 21  1  0
  1 22  1  0
  1 23  1  0
  3 24  1  0
  9 25  1  0
  9 26  1  0
 12 27  1  0
 13 28  1  0
 13 29  1  0
 14 30  1  0
 14 31  1  0
 16 32  1  0
 17 33  1  0
 18 34  1  0
 20 35  1  0
M  END
>  <smiles>  (22) 
Cc1cc(=O)nc(SCC(=O)NCCc2c[nH]cn2)[nH]1

>  <score_type>  (22) 
oracle

>  <origin>  (22) 
adg

>  <m_score__min__energy>  (22) 
-6.8600000000000003

>  <m_primary>  (22) 
energy

$$$$
22:0
     RDKit          3D

 72 77  0  0  0  0  0  0  0  0999 V2000
   64.2450   33.0150   48.9710 C   0  0  0  0  0  0  0  0  0  0  0  0
   63.3430   34.0560   49.3310 O   0  0  0  0  0  0  0  0  0  0  0  0
   62.0560   33.8540   49.8560 C   0  0  0  0  0  0  0  0  0  0  0  0
   61.8560   33.4900   51.2020 C   0  0  0  0  0  0  0  0  0  0  0  0
   60.5670   33.2670   51.6910 C   0  0  0  0  0  0  0  0  0  0  0  0
   59.4640   33.4110   50.8500 C   0  0  0  0  0  0  0  0  0  0  0  0
   59.6450   33.7840   49.5170 C   0  0  0  0  0  0  0  0  0  0  0  0
   60.9350   34.0160   49.0120 C   0  0  0  0  0  0  0  0  0  0  0  0
   61.1020   34.3740   47.5510 C   0  0  0  0  0  0  0  0  0  0  0  0
   61.7020   33.2150   46.7430 C   0  0  0  0  0  0  0  0  0  0  0  0
   60.9910   31.9620   47.0020 N   0  0  0  0  0  0  0  0  0  0  0  0
   61.4630   30.9000   47.7030 C   0  0  0  0  0  0  0  0  0  0  0  0
   60.5660   29.8340   47.6340 C   0  0  0  0  0  0  0  0  0  0  0  0
   60.7480   28.4640   48.2140 C   0  0  0  0  0  0  0  0  0  0  0  0
   60.1350   28.3880   49.5550 N   0  0  0  0  0  0  0  0  0  0  0  0
   61.1490   28.1750   50.6230 C   0  0  0  0  0  0  0  0  0  0  0  0
   61.5000   29.4650   51.3770 C   0  0  0  0  0  0  0  0  0  0  0  0
   60.2550   30.0690   52.0470 C   0  0  0  0  0  0  0  0  0  0  0  0
   58.9590   29.7610   51.2780 C   0  0  0  0  0  0  0  0  0  0  0  0
   59.2430   29.5510   49.7860 C   0  0  0  0  0  0  0  0  0  0  0  0
   59.5270   30.2800   46.8440 C   0  0  0  0  0  0  0  0  0  0  0  0
   59.8120   31.5720   46.4870 C   0  0  0  0  0  0  0  0  0  0  0  0
   59.0130   32.2910   45.6440 N   0  0  0  0  0  0  0  0  0  0  0  0
   57.8780   31.7010   45.1500 C   0  0  0  0  0  0  0  0  0  0  0  0
   57.1040   32.3610   44.3490 N   0  0  0  0  0  0  0  0  0  0  0  0
   57.5980   30.4100   45.5130 N   0  0  0  0  0  0  0  0  0  0  0  0
   56.5900   29.6500   45.1290 N   0  0  0  0  0  0  0  0  0  0  0  0
   56.8050   28.4660   45.7580 C   0  0  0  0  0  0  0  0  0  0  0  0
   56.0460   27.4200   45.6170 N   0  0  0  0  0  0  0  0  0  0  0  0
   56.4610   26.0460   45.6900 C   0  0  0  0  0  0  0  0  0  0  0  0
   57.7810   25.6470   45.4130 C   0  0  0  0  0  0  0  0  0  0  0  0
   58.1360   24.2960   45.4720 C   0  0  0  0  0  0  0  0  0  0  0  0
   57.1780   23.3260   45.7910 C   0  0  0  0  0  0  0  0  0  0  0  0
   57.6460   21.6300   45.8720 S   0  0  0  0  0  0  0  0  0  0  0  0
   59.3300   21.4720   45.5130 N   0  0  0  0  0  0  0  0  0  0  0  0
   57.3840   21.0840   47.2480 O   0  0  0  0  0  0  0  0  0  0  0  0
   56.8410   20.8420   44.8770 O   0  0  0  0  0  0  0  0  0  0  0  0
   55.8550   23.7180   46.0370 C   0  0  0  0  0  0  0  0  0  0  0  0
   55.4990   25.0700   45.9760 C   0  0  0  0  0  0  0  0  0  0  0  0
   57.9300   28.4450   46.5190 N   0  0  0  0  0  0  0  0  0  0  0  0
   58.3830   29.6960   46.3310 C   0  0  0  0  0  0  0  0  0  0  0  0
   64.6490   32.5487   49.8817 H   0  0  0  0  0  0  0  0  0  0  0  0
   63.7127   32.2578   48.3766 H   0  0  0  0  0  0  0  0  0  0  0  0
   65.0702   33.4341   48.3766 H   0  0  0  0  0  0  0  0  0  0  0  0
   62.7211   33.3806   51.8726 H   0  0  0  0  0  0  0  0  0  0  0  0
   60.4214   32.9771   52.7421 H   0  0  0  0  0  0  0  0  0  0  0  0
   58.4504   33.2305   51.2373 H   0  0  0  0  0  0  0  0  0  0  0  0
   58.7717   33.8970   48.8578 H   0  0  0  0  0  0  0  0  0  0  0  0
   60.1170   34.6272   47.1320 H   0  0  0  0  0  0  0  0  0  0  0  0
   61.7919   35.2282   47.4859 H   0  0  0  0  0  0  0  0  0  0  0  0
   61.6322   33.4516   45.6710 H   0  0  0  0  0  0  0  0  0  0  0  0
   62.7518   33.0875   47.0458 H   0  0  0  0  0  0  0  0  0  0  0  0
   62.4180   30.8824   48.2485 H   0  0  0  0  0  0  0  0  0  0  0  0
   60.2701   27.7246   47.5545 H   0  0  0  0  0  0  0  0  0  0  0  0
   61.8241   28.2530   48.3007 H   0  0  0  0  0  0  0  0  0  0  0  0
   60.7525   27.4440   51.3431 H   0  0  0  0  0  0  0  0  0  0  0  0
   62.0685   27.8142   50.1389 H   0  0  0  0  0  0  0  0  0  0  0  0
   62.2493   29.2374   52.1495 H   0  0  0  0  0  0  0  0  0  0  0  0
   61.8982   30.1944   50.6562 H   0  0  0  0  0  0  0  0  0  0  0  0
   60.1675   29.6573   53.0633 H   0  0  0  0  0  0  0  0  0  0  0  0
   60.3818   31.1616   52.0604 H   0  0  0  0  0  0  0  0  0  0  0  0
   58.5046   28.8478   51.6898 H   0  0  0  0  0  0  0  0  0  0  0  0
   58.2745   30.6150   51.3880 H   0  0  0  0  0  0  0  0  0  0  0  0
   58.2908   29.3793   49.2627 H   0  0  0  0  0  0  0  0  0  0  0  0
   59.7469   30.4507   49.4031 H   0  0  0  0  0  0  0  0  0  0  0  0
   56.2700   31.9260   43.8950 H   0  0  0  0  0  0  0  0  0  0  0  0
   58.5371   26.4010   45.1489 H   0  0  0  0  0  0  0  0  0  0  0  0
   59.1735   23.9935   45.2667 H   0  0  0  0  0  0  0  0  0  0  0  0
   59.4060   21.2630   44.4920 H   0  0  0  0  0  0  0  0  0  0  0  0
   59.6750   20.6260   46.0200 H   0  0  0  0  0  0  0  0  0  0  0  0
   55.0945   22.9609   46.2787 H   0  0  0  0  0  0  0  0  0  0  0  0
   54.4553   25.3681   46.1542 H   0  0  0  0  0  0  0  0  0  0  0  0
  1  2  1  0
  2  3  1  0
  3  4  2  0
  4  5  1  0
  5  6  2  0
  6  7  1  0
  7  8  2  0
  8  9  1  0
  9 10  1  0
 10 11  1  0
 11 12  1  0
 12 13  2  0
 13 14  1  0
 14 15  1  0
 15 16  1  0
 16 17  1  0
 17 18  1  0
 18 19  1  0
 19 20  1  0
 13 21  1  0
 21 22  2  0
 22 23  1  0
 23 24  1  0
 24 25  2  3
 24 26  1  0
 26 27  1  0
 27 28  1  0
 28 29  2  3
 29 30  1  0
 30 31  2  0
 31 32  1  0
 32 33  2  0
 33 34  1  0
 34 35  1  0
 34 36  2  0
 34 37  2  0
 33 38  1  0
 38 39  2  0
 28 40  1  0
 40 41  2  0
  8  3  1  0
 22 11  1  0
 41 26  1  0
 20 15  1  0
 41 21  1  0
 39 30  1  0
  1 42  1  0
  1 43  1  0
  1 44  1  0
  4 45  1  0
  5 46  1  0
  6 47  1  0
  7 48  1  0
  9 49  1  0
  9 50  1  0
 10 51  1  0
 10 52  1  0
 12 53  1  0
 14 54  1  0
 14 55  1  0
 16 56  1  0
 16 57  1  0
 17 58  1  0
 17 59  1  0
 18 60  1  0
 18 61  1  0
 19 62  1  0
 19 63  1  0
 20 64  1  0
 20 65  1  0
 25 66  1  0
 31 67  1  0
 32 68  1  0
 35 69  1  0
 35 70  1  0
 38 71  1  0
 39 72  1  0
M  CHG  2  23  -1  27  -1
M  END
>  <UniqueID>  (23) 
19

>  <SMILES>  (23) 
COc1ccccc1CCn1cc(CN2CCCCC2)c2c1[n-]c(=N)n1[n-]c(=Nc3ccc(S(N)(=O)=O)cc3)nc21

>  <Energy>  (23) 
156.30501276216359

>  <Genealogy>  (23) 
COc1ccccc1CCn1cc(CN2CCCCC2)c2c1[n-]c(=N)n1[n-]c(=Nc3ccc(S(N)(=O)=O)cc3)nc21 (protonated)
COc1ccccc1CCn1cc(CN2CCCCC2)c2c1[n-]c(=N)n1[n-]c(=Nc3ccc(S(N)(=O)=O)cc3)nc21 (3D coordinates assigned)
COc1ccccc1CCn1cc(CN2CCCCC2)c2c1[n-]c(=N)n1[n-]c(=Nc3ccc(S(N)(=O)=O)cc3)nc21 (nonaromatic ring conformer: 156.30501276216359 kcal/mol)

>  <smiles>  (23) 
COc1ccccc1CCn1cc(CN2CCCCC2)c2c1[nH]c(=N)n1[nH]c(=Nc3ccc(S(N)(=O)=O)cc3)nc21

>  <score_type>  (23) 
oracle

>  <origin>  (23) 
adg

>  <m_score__min__energy>  (23) 
-12.5

>  <m_primary>  (23) 
energy

$$$$
23:0
     RDKit          3D

 41 43  0  0  0  0  0  0  0  0999 V2000
   57.7530   32.7510   47.3240 C   0  0  0  0  0  0  0  0  0  0  0  0
   58.1960   33.3160   46.0530 N   0  0  0  0  0  0  0  0  0  0  0  0
   57.8670   32.9090   44.8080 C   0  0  0  0  0  0  0  0  0  0  0  0
   56.7650   31.5440   44.4250 S   0  0  0  0  0  0  0  0  0  0  0  0
   58.0990   30.3150   44.1510 C   0  0  0  0  0  0  0  0  0  0  0  0
   58.5880   29.6930   45.4430 C   0  0  0  0  0  0  0  0  0  0  0  0
   59.8090   30.1590   45.9710 C   0  0  0  0  0  0  0  0  0  0  0  0
   60.3600   29.5840   47.1160 C   0  0  0  0  0  0  0  0  0  0  0  0
   59.7100   28.5290   47.7470 C   0  0  0  0  0  0  0  0  0  0  0  0
   58.5020   28.0480   47.2430 C   0  0  0  0  0  0  0  0  0  0  0  0
   57.9150   28.6180   46.0960 C   0  0  0  0  0  0  0  0  0  0  0  0
   56.6240   28.0500   45.6250 C   0  0  0  0  0  0  0  0  0  0  0  0
   56.4190   26.8100   45.6110 O   0  0  0  0  0  0  0  0  0  0  0  0
   55.6260   28.8940   45.1520 O   0  0  0  0  0  0  0  0  0  0  0  0
   58.5470   33.5870   43.8640 N   0  0  0  0  0  0  0  0  0  0  0  0
   59.3340   34.4290   44.5120 N   0  0  0  0  0  0  0  0  0  0  0  0
   59.1420   34.2560   45.8330 C   0  0  0  0  0  0  0  0  0  0  0  0
   59.9760   34.9220   46.8930 C   0  0  0  0  0  0  0  0  0  0  0  0
   61.1290   34.0360   47.3020 C   0  0  0  0  0  0  0  0  0  0  0  0
   62.1980   33.8390   46.4080 C   0  0  0  0  0  0  0  0  0  0  0  0
   63.3020   33.0660   46.7770 C   0  0  0  0  0  0  0  0  0  0  0  0
   63.3520   32.4780   48.0400 C   0  0  0  0  0  0  0  0  0  0  0  0
   62.2950   32.6510   48.9350 C   0  0  0  0  0  0  0  0  0  0  0  0
   61.1830   33.4230   48.5760 C   0  0  0  0  0  0  0  0  0  0  0  0
   59.8740   33.5750   49.7430 Cl  0  0  0  0  0  0  0  0  0  0  0  0
   58.1989   33.3197   48.1533 H   0  0  0  0  0  0  0  0  0  0  0  0
   56.6564   32.8080   47.3882 H   0  0  0  0  0  0  0  0  0  0  0  0
   58.0699   31.6996   47.3882 H   0  0  0  0  0  0  0  0  0  0  0  0
   57.7151   29.5171   43.4983 H   0  0  0  0  0  0  0  0  0  0  0  0
   58.9484   30.8404   43.6901 H   0  0  0  0  0  0  0  0  0  0  0  0
   60.3344   30.9874   45.4733 H   0  0  0  0  0  0  0  0  0  0  0  0
   61.3094   29.9653   47.5202 H   0  0  0  0  0  0  0  0  0  0  0  0
   60.1499   28.0727   48.6461 H   0  0  0  0  0  0  0  0  0  0  0  0
   57.9995   27.2104   47.7489 H   0  0  0  0  0  0  0  0  0  0  0  0
   60.0030   35.0860   44.0530 H   0  0  0  0  0  0  0  0  0  0  0  0
   60.3714   35.8697   46.4986 H   0  0  0  0  0  0  0  0  0  0  0  0
   59.3442   35.1085   47.7740 H   0  0  0  0  0  0  0  0  0  0  0  0
   62.1641   34.2981   45.4090 H   0  0  0  0  0  0  0  0  0  0  0  0
   64.1324   32.9213   46.0702 H   0  0  0  0  0  0  0  0  0  0  0  0
   64.2258   31.8768   48.3317 H   0  0  0  0  0  0  0  0  0  0  0  0
   62.3356   32.1785   49.9275 H   0  0  0  0  0  0  0  0  0  0  0  0
  1  2  1  0
  2  3  1  0
  3  4  1  0
  4  5  1  0
  5  6  1  0
  6  7  2  0
  7  8  1  0
  8  9  2  0
  9 10  1  0
 10 11  2  0
 11 12  1  0
 12 13  2  0
 12 14  1  0
  3 15  2  0
 15 16  1  0
 16 17  2  0
 17 18  1  0
 18 19  1  0
 19 20  2  0
 20 21  1  0
 21 22  2  0
 22 23  1  0
 23 24  2  0
 24 25  1  0
 17  2  1  0
 24 19  1  0
 11  6  1  0
  1 26  1  0
  1 27  1  0
  1 28  1  0
  5 29  1  0
  5 30  1  0
  7 31  1  0
  8 32  1  0
  9 33  1  0
 10 34  1  0
 16 35  1  0
 18 36  1  0
 18 37  1  0
 20 38  1  0
 21 39  1  0
 22 40  1  0
 23 41  1  0
M  CHG  2  14  -1  16   1
M  END
>  <UniqueID>  (24) 
20

>  <SMILES>  (24) 
Cn1c(SCc2ccccc2C(=O)[O-])n[nH+]c1Cc1ccccc1Cl

>  <Energy>  (24) 
76.89867316605701

>  <Genealogy>  (24) 
Cn1c(SCc2ccccc2C(=O)[O-])n[nH+]c1Cc1ccccc1Cl (protonated)
Cn1c(SCc2ccccc2C(=O)[O-])n[nH+]c1Cc1ccccc1Cl (3D coordinates assigned)
Cn1c(SCc2ccccc2C(=O)[O-])n[nH+]c1Cc1ccccc1Cl (optimized conformer: 76.89867316605701 kcal/mol)

>  <smiles>  (24) 
Cn1c(Cc2ccccc2Cl)nnc1SCc1ccccc1C(=O)O

>  <score_type>  (24) 
oracle

>  <origin>  (24) 
adg

>  <m_score__min__energy>  (24) 
-10.31

>  <m_primary>  (24) 
energy

$$$$
24:0
     RDKit          3D

 54 56  0  0  0  0  0  0  0  0999 V2000
   59.2260   29.1740   44.1650 C   0  0  0  0  0  0  0  0  0  0  0  0
   58.0100   29.6990   44.3500 C   0  0  0  0  0  0  0  0  0  0  0  0
   57.4030   30.5550   43.2670 C   0  0  0  0  0  0  0  0  0  0  0  0
   57.5500   31.9760   43.5820 N   0  0  0  0  0  0  0  0  0  0  0  0
   57.4470   32.5740   44.8810 C   0  0  0  0  0  0  0  0  0  0  0  0
   56.3040   32.8770   45.3120 O   0  0  0  0  0  0  0  0  0  0  0  0
   58.6180   32.8290   45.7430 C   0  0  0  0  0  0  0  0  0  0  0  0
   58.9200   34.1130   46.2120 C   0  0  0  0  0  0  0  0  0  0  0  0
   60.0410   34.3060   47.0200 C   0  0  0  0  0  0  0  0  0  0  0  0
   60.8970   33.2320   47.3210 C   0  0  0  0  0  0  0  0  0  0  0  0
   62.0590   33.4140   48.1670 N   0  0  0  0  0  0  0  0  0  0  0  0
   63.3920   33.6150   47.5810 C   0  0  0  0  0  0  0  0  0  0  0  0
   64.4610   33.0450   48.5160 C   0  0  0  0  0  0  0  0  0  0  0  0
   64.4320   33.6930   49.8430 N   0  0  0  0  0  0  0  0  0  0  0  0
   65.2440   32.6970   51.0280 S   0  0  0  0  0  0  0  0  0  0  0  0
   64.9670   33.2840   52.6890 C   0  0  0  0  0  0  0  0  0  0  0  0
   66.7200   32.7050   50.7490 O   0  0  0  0  0  0  0  0  0  0  0  0
   64.7420   31.2840   50.9240 O   0  0  0  0  0  0  0  0  0  0  0  0
   63.0890   34.1120   50.3100 C   0  0  0  0  0  0  0  0  0  0  0  0
   61.9370   33.3540   49.6320 C   0  0  0  0  0  0  0  0  0  0  0  0
   60.5900   31.9730   46.7700 C   0  0  0  0  0  0  0  0  0  0  0  0
   59.4740   31.8060   46.0130 N   0  0  0  0  0  0  0  0  0  0  0  0
   57.2470   29.4040   45.5810 C   0  0  0  0  0  0  0  0  0  0  0  0
   57.4130   30.1070   46.6160 O   0  0  0  0  0  0  0  0  0  0  0  0
   56.2970   28.3360   45.5940 N   0  0  0  0  0  0  0  0  0  0  0  0
   56.6370   26.9640   45.8240 C   0  0  0  0  0  0  0  0  0  0  0  0
   57.9850   26.6030   45.9080 C   0  0  0  0  0  0  0  0  0  0  0  0
   58.3490   25.2770   46.1540 C   0  0  0  0  0  0  0  0  0  0  0  0
   57.3650   24.3040   46.3270 C   0  0  0  0  0  0  0  0  0  0  0  0
   56.0130   24.6550   46.2600 C   0  0  0  0  0  0  0  0  0  0  0  0
   54.7890   23.4210   46.5020 Cl  0  0  0  0  0  0  0  0  0  0  0  0
   55.6440   25.9870   46.0170 C   0  0  0  0  0  0  0  0  0  0  0  0
   54.2980   26.3400   45.9920 O   0  0  0  0  0  0  0  0  0  0  0  0
   59.6796   28.5479   44.9475 H   0  0  0  0  0  0  0  0  0  0  0  0
   59.7726   29.3683   43.2304 H   0  0  0  0  0  0  0  0  0  0  0  0
   57.9095   30.3430   42.3138 H   0  0  0  0  0  0  0  0  0  0  0  0
   56.3309   30.3202   43.1925 H   0  0  0  0  0  0  0  0  0  0  0  0
   58.2772   34.9648   45.9451 H   0  0  0  0  0  0  0  0  0  0  0  0
   60.2567   35.3059   47.4246 H   0  0  0  0  0  0  0  0  0  0  0  0
   63.4451   33.1015   46.6097 H   0  0  0  0  0  0  0  0  0  0  0  0
   63.5686   34.6917   47.4413 H   0  0  0  0  0  0  0  0  0  0  0  0
   64.2848   31.9666   48.6426 H   0  0  0  0  0  0  0  0  0  0  0  0
   65.4460   33.2347   48.0646 H   0  0  0  0  0  0  0  0  0  0  0  0
   65.3223   32.5311   53.4080 H   0  0  0  0  0  0  0  0  0  0  0  0
   65.5162   34.2248   52.8418 H   0  0  0  0  0  0  0  0  0  0  0  0
   63.8917   33.4582   52.8418 H   0  0  0  0  0  0  0  0  0  0  0  0
   63.0284   33.9387   51.3946 H   0  0  0  0  0  0  0  0  0  0  0  0
   62.9738   35.1743   50.0486 H   0  0  0  0  0  0  0  0  0  0  0  0
   61.9603   32.3020   49.9525 H   0  0  0  0  0  0  0  0  0  0  0  0
   60.9866   33.8241   49.9249 H   0  0  0  0  0  0  0  0  0  0  0  0
   61.2583   31.1188   46.9537 H   0  0  0  0  0  0  0  0  0  0  0  0
   58.7644   27.3685   45.7795 H   0  0  0  0  0  0  0  0  0  0  0  0
   59.4121   25.0002   46.2113 H   0  0  0  0  0  0  0  0  0  0  0  0
   57.6527   23.2593   46.5164 H   0  0  0  0  0  0  0  0  0  0  0  0
  1  2  2  0
  2  3  1  0
  3  4  1  0
  4  5  1  0
  5  6  2  0
  5  7  1  0
  7  8  2  0
  8  9  1  0
  9 10  2  0
 10 11  1  0
 11 12  1  0
 12 13  1  0
 13 14  1  0
 14 15  1  0
 15 16  1  0
 15 17  2  0
 15 18  2  0
 14 19  1  0
 19 20  1  0
 10 21  1  0
 21 22  2  0
  2 23  1  0
 23 24  2  0
 23 25  1  0
 25 26  1  0
 26 27  2  0
 27 28  1  0
 28 29  2  0
 29 30  1  0
 30 31  1  0
 30 32  2  0
 32 33  1  0
 22  7  1  0
 32 26  1  0
 20 11  1  0
  1 34  1  0
  1 35  1  0
  3 36  1  0
  3 37  1  0
  8 38  1  0
  9 39  1  0
 12 40  1  0
 12 41  1  0
 13 42  1  0
 13 43  1  0
 16 44  1  0
 16 45  1  0
 16 46  1  0
 19 47  1  0
 19 48  1  0
 20 49  1  0
 20 50  1  0
 21 51  1  0
 27 52  1  0
 28 53  1  0
 29 54  1  0
M  CHG  3   4  -1  25  -1  33  -1
M  END
>  <UniqueID>  (25) 
21

>  <SMILES>  (25) 
C=C(C[N-]C(=O)c1ccc(N2CCN(S(C)(=O)=O)CC2)cn1)C(=O)[N-]c1cccc(Cl)c1[O-]

>  <Energy>  (25) 
66.1359083248249

>  <Genealogy>  (25) 
C=C(C[N-]C(=O)c1ccc(N2CCN(S(C)(=O)=O)CC2)cn1)C(=O)[N-]c1cccc(Cl)c1[O-] (protonated)
C=C(C[N-]C(=O)c1ccc(N2CCN(S(C)(=O)=O)CC2)cn1)C(=O)[N-]c1cccc(Cl)c1[O-] (3D coordinates assigned)
C=C(C[N-]C(=O)c1ccc(N2CCN(S(C)(=O)=O)CC2)cn1)C(=O)[N-]c1cccc(Cl)c1[O-] (nonaromatic ring conformer: 66.1359083248249 kcal/mol)

>  <smiles>  (25) 
C=C(CNC(=O)c1ccc(N2CCN(S(C)(=O)=O)CC2)cn1)C(=O)Nc1cccc(Cl)c1O

>  <score_type>  (25) 
oracle

>  <origin>  (25) 
adg

>  <m_score__min__energy>  (25) 
-16.010000000000002

>  <m_primary>  (25) 
energy

$$$$
25:0
     RDKit          3D

 43 45  0  0  1  0  0  0  0  0999 V2000
   57.0990   28.9200   42.9990 N   0  0  0  0  0  0  0  0  0  0  0  0
   56.8250   29.5690   44.5740 S   0  0  0  0  0  0  0  0  0  0  0  0
   55.5290   28.9730   45.0750 O   0  0  0  0  0  0  0  0  0  0  0  0
   56.6440   31.0470   44.5070 O   0  0  0  0  0  0  0  0  0  0  0  0
   58.1160   29.1770   45.6670 C   0  0  0  0  0  0  0  0  0  0  0  0
   57.9640   28.1620   46.5620 C   0  0  0  0  0  0  0  0  0  0  0  0
   59.0030   27.8760   47.4120 C   0  0  0  0  0  0  0  0  0  0  0  0
   60.1750   28.5950   47.3640 C   0  0  0  0  0  0  0  0  0  0  0  0
   60.3440   29.6280   46.4600 C   0  0  0  0  0  0  0  0  0  0  0  0
   60.6430   33.6160   49.3950 N   0  0  0  0  0  0  0  0  0  0  0  0
   61.4740   32.8560   48.8200 C   0  0  0  0  0  0  0  0  0  0  0  0
   63.2560   31.2350   47.5930 N   0  0  0  0  0  0  0  0  0  0  0  0
   63.6870   32.0880   48.5340 C   0  0  0  0  0  0  0  0  0  0  0  0
   62.8060   32.9060   49.1560 C   0  0  0  0  0  0  0  0  0  0  0  0
   63.3740   34.1130   50.4770 Br  0  0  0  0  0  0  0  0  0  0  0  0
   61.9440   31.2140   47.2900 C   0  0  0  0  0  0  0  0  0  0  0  0
   61.5440   30.3900   46.3850 N   0  0  0  0  0  0  0  0  0  0  0  0
   59.7820   34.5850   48.8390 C   0  0  0  0  0  0  0  0  0  0  0  0
   59.1350   34.2700   47.5440 C   0  0  0  0  0  0  0  0  0  0  0  0
   59.3930   35.1150   46.4880 C   0  0  0  0  0  0  0  0  0  0  0  0
   58.8370   34.9010   45.2440 C   0  0  0  0  0  0  0  0  0  0  0  0
   58.0020   33.8300   45.0270 C   0  0  0  0  0  0  0  0  0  0  0  0
   57.4390   33.5980   43.8070 F   0  0  0  0  0  0  0  0  0  0  0  0
   57.7430   32.9840   46.0880 C   0  0  0  0  0  0  0  0  0  0  0  0
   58.3060   33.2070   47.3260 C   0  0  0  0  0  0  0  0  0  0  0  0
   58.0330   32.3480   48.3730 O   0  0  0  0  0  0  0  0  0  0  0  0
   61.0340   32.0080   47.8820 N   0  0  0  0  0  0  0  0  0  0  0  0
   59.2900   29.9050   45.6100 C   0  0  0  0  0  0  0  0  0  0  0  0
   58.1250   29.0770   42.7700 H   0  0  0  0  0  0  0  0  0  0  0  0
   56.9020   27.8990   42.9910 H   0  0  0  0  0  0  0  0  0  0  0  0
   57.0290   27.5840   46.6028 H   0  0  0  0  0  0  0  0  0  0  0  0
   58.8971   27.0601   48.1422 H   0  0  0  0  0  0  0  0  0  0  0  0
   60.9918   28.3439   48.0566 H   0  0  0  0  0  0  0  0  0  0  0  0
   63.9000   30.6010   47.1020 H   0  0  0  0  0  0  0  0  0  0  0  0
   64.7539   32.1228   48.7997 H   0  0  0  0  0  0  0  0  0  0  0  0
   58.9810   34.7707   49.5697 H   0  0  0  0  0  0  0  0  0  0  0  0
   60.4338   35.4442   48.6222 H   0  0  0  0  0  0  0  0  0  0  0  0
   60.0566   35.9791   46.6396 H   0  0  0  0  0  0  0  0  0  0  0  0
   59.0633   35.5924   44.4189 H   0  0  0  0  0  0  0  0  0  0  0  0
   57.0779   32.1200   45.9426 H   0  0  0  0  0  0  0  0  0  0  0  0
   58.6540   32.3190   49.1740 H   0  0  0  0  0  0  0  0  0  0  0  0
   60.0390   31.9590   47.6190 H   0  0  0  0  0  0  0  0  0  0  0  0
   59.3868   30.7184   44.8758 H   0  0  0  0  0  0  0  0  0  0  0  0
  1  2  1  0
  2  3  2  0
  2  4  2  0
  2  5  1  0
  5  6  2  0
  6  7  1  0
  7  8  2  0
  8  9  1  0
  9 10  1  0
 10 11  2  0
 11 12  1  0
 12 13  1  0
 13 14  2  0
 14 15  1  0
 14 16  1  0
 16 17  2  0
 17 18  1  0
 18 19  1  0
 19 20  2  0
 20 21  1  0
 21 22  2  0
 22 23  1  0
 22 24  1  0
 24 25  2  0
 25 26  1  0
 16 27  1  0
  9 28  2  0
 28  5  1  0
 27 11  1  0
 25 19  1  0
  1 29  1  0
  1 30  1  0
  6 31  1  0
  7 32  1  0
  8 33  1  0
 12 34  1  0
 13 35  1  0
 18 36  1  0
 18 37  1  0
 20 38  1  0
 21 39  1  0
 24 40  1  0
 26 41  1  0
 27 42  1  0
 28 43  1  0
M  END
>  <smiles>  (26) 
NS(=O)(=O)c1cccc(N=c2[nH]cc(Br)c(=NCc3ccc(F)cc3O)[nH]2)c1

>  <score_type>  (26) 
oracle

>  <origin>  (26) 
adg

>  <m_score__min__energy>  (26) 
-9.4900000000000002

>  <m_primary>  (26) 
energy

$$$$
26:0
     RDKit          3D

 44 47  0  0  1  0  0  0  0  0999 V2000
   58.2350   34.6710   46.4660 O   0  0  0  0  0  0  0  0  0  0  0  0
   58.4380   33.1910   46.1670 S   0  0  0  0  0  0  0  0  0  0  0  0
   57.3870   32.4470   46.9280 O   0  0  0  0  0  0  0  0  0  0  0  0
   58.1740   33.0640   44.4580 N   0  0  0  0  0  0  0  0  0  0  0  0
   57.4840   32.0820   43.9930 C   0  0  0  0  0  0  0  0  0  0  0  0
   57.5930   31.8540   42.6200 C   0  0  0  0  0  0  0  0  0  0  0  0
   56.8950   30.8270   42.0160 C   0  0  0  0  0  0  0  0  0  0  0  0
   56.0930   30.0420   42.8260 C   0  0  0  0  0  0  0  0  0  0  0  0
   56.0050   30.2930   44.1870 C   0  0  0  0  0  0  0  0  0  0  0  0
   55.1800   29.4700   44.9630 O   0  0  0  0  0  0  0  0  0  0  0  0
   56.6980   31.3070   44.7630 N   0  0  0  0  0  0  0  0  0  0  0  0
   60.0550   32.7650   46.5930 C   0  0  0  0  0  0  0  0  0  0  0  0
   60.9810   33.7910   46.7410 C   0  0  0  0  0  0  0  0  0  0  0  0
   62.2950   33.5800   47.0600 C   0  0  0  0  0  0  0  0  0  0  0  0
   62.7150   32.2880   47.2400 C   0  0  0  0  0  0  0  0  0  0  0  0
   61.8160   31.2580   47.0990 C   0  0  0  0  0  0  0  0  0  0  0  0
   60.4740   31.4730   46.7740 C   0  0  0  0  0  0  0  0  0  0  0  0
   59.6380   30.3040   46.6770 C   0  0  0  0  0  0  0  0  0  0  0  0
   58.9580   29.6910   47.6820 C   0  0  0  0  0  0  0  0  0  0  0  0
   58.1580   28.5860   47.4600 C   0  0  0  0  0  0  0  0  0  0  0  0
   58.0150   28.0490   46.1890 C   0  0  0  0  0  0  0  0  0  0  0  0
   57.1580   26.8800   46.0080 C   0  0  0  0  0  0  0  0  0  0  0  0
   57.5630   25.6020   45.9370 N   0  0  0  0  0  0  0  0  0  0  0  0
   56.4460   24.8490   45.7660 C   0  0  0  0  0  0  0  0  0  0  0  0
   55.3470   25.6760   45.7320 C   0  0  0  0  0  0  0  0  0  0  0  0
   55.8210   26.9350   45.8850 N   0  0  0  0  0  0  0  0  0  0  0  0
   58.6880   28.6490   45.1720 C   0  0  0  0  0  0  0  0  0  0  0  0
   59.4860   29.7530   45.3960 C   0  0  0  0  0  0  0  0  0  0  0  0
   58.2429   32.5004   42.0119 H   0  0  0  0  0  0  0  0  0  0  0  0
   56.9732   30.6403   40.9348 H   0  0  0  0  0  0  0  0  0  0  0  0
   55.5205   29.2119   42.3864 H   0  0  0  0  0  0  0  0  0  0  0  0
   54.3870   28.9710   44.5660 H   0  0  0  0  0  0  0  0  0  0  0  0
   56.6390   31.5050   45.7900 H   0  0  0  0  0  0  0  0  0  0  0  0
   60.6399   34.8264   46.5941 H   0  0  0  0  0  0  0  0  0  0  0  0
   62.9936   34.4227   47.1687 H   0  0  0  0  0  0  0  0  0  0  0  0
   63.7639   32.0769   47.4954 H   0  0  0  0  0  0  0  0  0  0  0  0
   62.1659   30.2258   47.2475 H   0  0  0  0  0  0  0  0  0  0  0  0
   59.0473   30.0870   48.7043 H   0  0  0  0  0  0  0  0  0  0  0  0
   57.6259   28.1248   48.3051 H   0  0  0  0  0  0  0  0  0  0  0  0
   56.4234   23.7534   45.6700 H   0  0  0  0  0  0  0  0  0  0  0  0
   54.2964   25.3753   45.6061 H   0  0  0  0  0  0  0  0  0  0  0  0
   55.1730   27.7560   45.8940 H   0  0  0  0  0  0  0  0  0  0  0  0
   58.5952   28.2477   44.1520 H   0  0  0  0  0  0  0  0  0  0  0  0
   60.0160   30.2122   44.5485 H   0  0  0  0  0  0  0  0  0  0  0  0
  1  2  2  0
  2  3  2  0
  2  4  1  0
  4  5  2  0
  5  6  1  0
  6  7  2  0
  7  8  1  0
  8  9  2  0
  9 10  1  0
  9 11  1  0
  2 12  1  0
 12 13  2  0
 13 14  1  0
 14 15  2  0
 15 16  1  0
 16 17  2  0
 17 18  1  0
 18 19  2  0
 19 20  1  0
 20 21  2  0
 21 22  1  0
 22 23  2  0
 23 24  1  0
 24 25  2  0
 25 26  1  0
 21 27  1  0
 27 28  2  0
 11  5  1  0
 17 12  1  0
 28 18  1  0
 26 22  1  0
  6 29  1  0
  7 30  1  0
  8 31  1  0
 10 32  1  0
 11 33  1  0
 13 34  1  0
 14 35  1  0
 15 36  1  0
 16 37  1  0
 19 38  1  0
 20 39  1  0
 24 40  1  0
 25 41  1  0
 26 42  1  0
 27 43  1  0
 28 44  1  0
M  END
>  <smiles>  (27) 
O=S(=O)(N=c1cccc(O)[nH]1)c1ccccc1-c1ccc(-c2ncc[nH]2)cc1

>  <score_type>  (27) 
oracle

>  <origin>  (27) 
adg

>  <m_score__min__energy>  (27) 
-9.9299999999999997

>  <m_primary>  (27) 
energy

$$$$
27:0
     RDKit          3D

 46 48  0  0  0  0  0  0  0  0999 V2000
   56.8590   34.2700   44.9110 O   0  0  0  0  0  0  0  0  0  0  0  0
   57.6830   33.3180   44.9630 C   0  0  0  0  0  0  0  0  0  0  0  0
   57.9220   32.5970   46.2660 C   0  0  0  0  0  0  0  0  0  0  0  0
   59.3510   32.6050   46.6270 N   0  0  0  0  0  0  0  0  0  0  0  0
   59.9810   31.4140   46.8660 C   0  0  0  0  0  0  0  0  0  0  0  0
   61.3290   31.3800   47.2290 C   0  0  0  0  0  0  0  0  0  0  0  0
   62.0480   32.5720   47.3440 C   0  0  0  0  0  0  0  0  0  0  0  0
   63.4290   32.5310   47.7440 N   0  0  0  0  0  0  0  0  0  0  0  0
   63.9170   32.9650   49.0250 C   0  0  0  0  0  0  0  0  0  0  0  0
   63.1150   33.7280   49.8930 C   0  0  0  0  0  0  0  0  0  0  0  0
   63.6210   34.1620   51.1220 C   0  0  0  0  0  0  0  0  0  0  0  0
   64.9340   33.8530   51.4880 C   0  0  0  0  0  0  0  0  0  0  0  0
   65.7460   33.1160   50.6220 C   0  0  0  0  0  0  0  0  0  0  0  0
   67.3980   32.7390   51.0760 Cl  0  0  0  0  0  0  0  0  0  0  0  0
   65.2410   32.6800   49.3910 C   0  0  0  0  0  0  0  0  0  0  0  0
   61.3830   33.7870   47.1340 C   0  0  0  0  0  0  0  0  0  0  0  0
   60.0310   33.7880   46.7740 C   0  0  0  0  0  0  0  0  0  0  0  0
   59.4470   34.8920   46.5940 O   0  0  0  0  0  0  0  0  0  0  0  0
   58.3400   32.9110   43.7590 N   0  0  0  0  0  0  0  0  0  0  0  0
   57.9250   31.7740   42.9440 C   0  0  0  0  0  0  0  0  0  0  0  0
   56.8220   30.9880   43.6550 C   0  0  0  0  0  0  0  0  0  0  0  0
   57.3830   29.7940   44.3890 C   0  0  0  0  0  0  0  0  0  0  0  0
   58.7750   29.6080   44.4600 C   0  0  0  0  0  0  0  0  0  0  0  0
   59.3060   28.4910   45.1110 C   0  0  0  0  0  0  0  0  0  0  0  0
   58.4540   27.5480   45.6920 C   0  0  0  0  0  0  0  0  0  0  0  0
   57.0690   27.7180   45.6180 C   0  0  0  0  0  0  0  0  0  0  0  0
   56.5290   28.8320   44.9670 C   0  0  0  0  0  0  0  0  0  0  0  0
   55.1480   28.9770   44.8970 O   0  0  0  0  0  0  0  0  0  0  0  0
   57.3484   33.0949   47.0617 H   0  0  0  0  0  0  0  0  0  0  0  0
   57.5987   31.5521   46.1495 H   0  0  0  0  0  0  0  0  0  0  0  0
   59.4194   30.4730   46.7711 H   0  0  0  0  0  0  0  0  0  0  0  0
   61.8234   30.4169   47.4239 H   0  0  0  0  0  0  0  0  0  0  0  0
   64.1250   32.1610   47.0570 H   0  0  0  0  0  0  0  0  0  0  0  0
   62.0852   33.9843   49.6035 H   0  0  0  0  0  0  0  0  0  0  0  0
   62.9847   34.7475   51.8019 H   0  0  0  0  0  0  0  0  0  0  0  0
   65.3282   34.1901   52.4580 H   0  0  0  0  0  0  0  0  0  0  0  0
   65.8866   32.1103   48.7064 H   0  0  0  0  0  0  0  0  0  0  0  0
   61.9227   34.7382   47.2519 H   0  0  0  0  0  0  0  0  0  0  0  0
   57.5461   32.1387   41.9779 H   0  0  0  0  0  0  0  0  0  0  0  0
   58.7897   31.1133   42.7835 H   0  0  0  0  0  0  0  0  0  0  0  0
   56.3201   31.6488   44.3771 H   0  0  0  0  0  0  0  0  0  0  0  0
   56.1109   30.6264   42.8976 H   0  0  0  0  0  0  0  0  0  0  0  0
   59.4496   30.3455   44.0007 H   0  0  0  0  0  0  0  0  0  0  0  0
   60.3960   28.3540   45.1661 H   0  0  0  0  0  0  0  0  0  0  0  0
   58.8737   26.6717   46.2077 H   0  0  0  0  0  0  0  0  0  0  0  0
   56.4006   26.9726   46.0736 H   0  0  0  0  0  0  0  0  0  0  0  0
  1  2  2  0
  2  3  1  0
  3  4  1  0
  4  5  1  0
  5  6  2  0
  6  7  1  0
  7  8  1  0
  8  9  1  0
  9 10  2  0
 10 11  1  0
 11 12  2  0
 12 13  1  0
 13 14  1  0
 13 15  2  0
  7 16  2  0
 16 17  1  0
 17 18  2  0
  2 19  1  0
 19 20  1  0
 20 21  1  0
 21 22  1  0
 22 23  2  0
 23 24  1  0
 24 25  2  0
 25 26  1  0
 26 27  2  0
 27 28  1  0
 17  4  1  0
 27 22  1  0
 15  9  1  0
  3 29  1  0
  3 30  1  0
  5 31  1  0
  6 32  1  0
  8 33  1  0
 10 34  1  0
 11 35  1  0
 12 36  1  0
 15 37  1  0
 16 38  1  0
 20 39  1  0
 20 40  1  0
 21 41  1  0
 21 42  1  0
 23 43  1  0
 24 44  1  0
 25 45  1  0
 26 46  1  0
M  CHG  2  19  -1  28  -1
M  END
>  <UniqueID>  (28) 
22

>  <SMILES>  (28) 
O=C(Cn1ccc(Nc2cccc(Cl)c2)cc1=O)[N-]CCc1ccccc1[O-]

>  <Energy>  (28) 
52.172232078447905

>  <Genealogy>  (28) 
O=C(Cn1ccc(Nc2cccc(Cl)c2)cc1=O)[N-]CCc1ccccc1[O-] (protonated)
O=C(Cn1ccc(Nc2cccc(Cl)c2)cc1=O)[N-]CCc1ccccc1[O-] (3D coordinates assigned)
O=C(Cn1ccc(Nc2cccc(Cl)c2)cc1=O)[N-]CCc1ccccc1[O-] (optimized conformer: 52.172232078447905 kcal/mol)

>  <smiles>  (28) 
O=C(Cn1ccc(Nc2cccc(Cl)c2)cc1=O)NCCc1ccccc1O

>  <score_type>  (28) 
oracle

>  <origin>  (28) 
adg

>  <m_score__min__energy>  (28) 
-14.359999999999999

>  <m_primary>  (28) 
energy

$$$$
28:0
     RDKit          3D

 63 66  0  0  0  0  0  0  0  0999 V2000
   57.3920   28.0250   42.7020 N   0  0  0  0  0  0  0  0  0  0  0  0
   58.1470   26.8130   42.9990 C   0  0  0  0  0  0  0  0  0  0  0  0
   58.0390   26.4800   44.4690 C   0  0  0  0  0  0  0  0  0  0  0  0
   57.0570   25.5570   44.8720 C   0  0  0  0  0  0  0  0  0  0  0  0
   56.8780   25.2470   46.2210 C   0  0  0  0  0  0  0  0  0  0  0  0
   57.6660   25.8660   47.1890 C   0  0  0  0  0  0  0  0  0  0  0  0
   58.6360   26.7960   46.8140 C   0  0  0  0  0  0  0  0  0  0  0  0
   58.8410   27.1150   45.4580 C   0  0  0  0  0  0  0  0  0  0  0  0
   59.8890   28.1460   45.1080 C   0  0  0  0  0  0  0  0  0  0  0  0
   59.5760   29.4230   45.7490 N   0  0  0  0  0  0  0  0  0  0  0  0
   58.4520   30.2340   45.3650 C   0  0  0  0  0  0  0  0  0  0  0  0
   57.5860   29.7570   44.5830 O   0  0  0  0  0  0  0  0  0  0  0  0
   58.2790   31.6070   45.9220 C   0  0  0  0  0  0  0  0  0  0  0  0
   57.3890   32.4960   45.2940 C   0  0  0  0  0  0  0  0  0  0  0  0
   57.2860   33.8170   45.7180 C   0  0  0  0  0  0  0  0  0  0  0  0
   58.0880   34.2860   46.7540 C   0  0  0  0  0  0  0  0  0  0  0  0
   58.9550   33.4180   47.4370 C   0  0  0  0  0  0  0  0  0  0  0  0
   59.9270   34.0090   48.4410 C   0  0  0  0  0  0  0  0  0  0  0  0
   61.3770   33.7410   48.1100 C   0  0  0  0  0  0  0  0  0  0  0  0
   61.8420   33.8090   46.7830 C   0  0  0  0  0  0  0  0  0  0  0  0
   63.1760   33.5160   46.4850 C   0  0  0  0  0  0  0  0  0  0  0  0
   64.0550   33.1350   47.5010 C   0  0  0  0  0  0  0  0  0  0  0  0
   63.5970   33.0330   48.8160 C   0  0  0  0  0  0  0  0  0  0  0  0
   62.2640   33.3220   49.1190 C   0  0  0  0  0  0  0  0  0  0  0  0
   58.9960   32.0470   47.0650 C   0  0  0  0  0  0  0  0  0  0  0  0
   59.7930   31.1150   47.8090 N   0  0  0  0  0  0  0  0  0  0  0  0
   59.2500   30.0790   48.6430 C   0  0  0  0  0  0  0  0  0  0  0  0
   59.6040   28.8890   48.4450 O   0  0  0  0  0  0  0  0  0  0  0  0
   58.3480   30.3720   49.7190 N   0  0  0  0  0  0  0  0  0  0  0  0
   58.5630   31.3920   50.7000 C   0  0  0  0  0  0  0  0  0  0  0  0
   59.8560   31.8530   50.9820 C   0  0  0  0  0  0  0  0  0  0  0  0
   60.0630   32.8100   51.9790 C   0  0  0  0  0  0  0  0  0  0  0  0
   58.9740   33.3340   52.6970 C   0  0  0  0  0  0  0  0  0  0  0  0
   59.2000   34.3250   53.7710 C   0  0  0  0  0  0  0  0  0  0  0  0
   58.8150   35.5180   53.6320 O   0  0  0  0  0  0  0  0  0  0  0  0
   59.8360   33.9540   54.9510 O   0  0  0  0  0  0  0  0  0  0  0  0
   57.6740   32.9050   52.3740 C   0  0  0  0  0  0  0  0  0  0  0  0
   57.4730   31.9540   51.3690 C   0  0  0  0  0  0  0  0  0  0  0  0
   56.6750   28.1460   43.4520 H   0  0  0  0  0  0  0  0  0  0  0  0
   58.0410   28.8420   42.7760 H   0  0  0  0  0  0  0  0  0  0  0  0
   57.7433   25.9787   42.4065 H   0  0  0  0  0  0  0  0  0  0  0  0
   59.2045   26.9765   42.7440 H   0  0  0  0  0  0  0  0  0  0  0  0
   56.4224   25.0736   44.1147 H   0  0  0  0  0  0  0  0  0  0  0  0
   56.1145   24.5137   46.5200 H   0  0  0  0  0  0  0  0  0  0  0  0
   57.5230   25.6208   48.2517 H   0  0  0  0  0  0  0  0  0  0  0  0
   59.2475   27.2855   47.5863 H   0  0  0  0  0  0  0  0  0  0  0  0
   60.8725   27.7966   45.4554 H   0  0  0  0  0  0  0  0  0  0  0  0
   59.9038   28.2864   44.0171 H   0  0  0  0  0  0  0  0  0  0  0  0
   60.2250   29.7580   46.4960 H   0  0  0  0  0  0  0  0  0  0  0  0
   56.7672   32.1431   44.4581 H   0  0  0  0  0  0  0  0  0  0  0  0
   56.5675   34.4937   45.2322 H   0  0  0  0  0  0  0  0  0  0  0  0
   58.0423   35.3470   47.0407 H   0  0  0  0  0  0  0  0  0  0  0  0
   59.7734   35.0977   48.4742 H   0  0  0  0  0  0  0  0  0  0  0  0
   59.7230   33.5278   49.4089 H   0  0  0  0  0  0  0  0  0  0  0  0
   61.1515   34.0944   45.9757 H   0  0  0  0  0  0  0  0  0  0  0  0
   63.5343   33.5858   45.4473 H   0  0  0  0  0  0  0  0  0  0  0  0
   65.1069   32.9155   47.2656 H   0  0  0  0  0  0  0  0  0  0  0  0
   64.2871   32.7245   49.6152 H   0  0  0  0  0  0  0  0  0  0  0  0
   61.9052   33.2213   50.1539 H   0  0  0  0  0  0  0  0  0  0  0  0
   60.7127   31.4593   50.4154 H   0  0  0  0  0  0  0  0  0  0  0  0
   61.0832   33.1550   52.2031 H   0  0  0  0  0  0  0  0  0  0  0  0
   56.8108   33.3199   52.9150 H   0  0  0  0  0  0  0  0  0  0  0  0
   56.4507   31.6466   51.1036 H   0  0  0  0  0  0  0  0  0  0  0  0
  1  2  1  0
  2  3  1  0
  3  4  2  0
  4  5  1  0
  5  6  2  0
  6  7  1  0
  7  8  2  0
  8  9  1  0
  9 10  1  0
 10 11  1  0
 11 12  2  0
 11 13  1  0
 13 14  2  0
 14 15  1  0
 15 16  2  0
 16 17  1  0
 17 18  1  0
 18 19  1  0
 19 20  2  0
 20 21  1  0
 21 22  2  0
 22 23  1  0
 23 24  2  0
 17 25  2  0
 25 26  1  0
 26 27  1  0
 27 28  2  0
 27 29  1  0
 29 30  1  0
 30 31  2  0
 31 32  1  0
 32 33  2  0
 33 34  1  0
 34 35  2  0
 34 36  1  0
 33 37  1  0
 37 38  2  0
  8  3  1  0
 25 13  1  0
 38 30  1  0
 24 19  1  0
  1 39  1  0
  1 40  1  0
  2 41  1  0
  2 42  1  0
  4 43  1  0
  5 44  1  0
  6 45  1  0
  7 46  1  0
  9 47  1  0
  9 48  1  0
 10 49  1  0
 14 50  1  0
 15 51  1  0
 16 52  1  0
 18 53  1  0
 18 54  1  0
 20 55  1  0
 21 56  1  0
 22 57  1  0
 23 58  1  0
 24 59  1  0
 31 60  1  0
 32 61  1  0
 37 62  1  0
 38 63  1  0
M  CHG  3  26  -1  29  -1  36  -1
M  END
>  <UniqueID>  (29) 
23

>  <SMILES>  (29) 
NCc1ccccc1CNC(=O)c1cccc(Cc2ccccc2)c1[N-]C(=O)[N-]c1ccc(C(=O)[O-])cc1

>  <Energy>  (29) 
82.73516094959247

>  <Genealogy>  (29) 
NCc1ccccc1CNC(=O)c1cccc(Cc2ccccc2)c1[N-]C(=O)[N-]c1ccc(C(=O)[O-])cc1 (protonated)
NCc1ccccc1CNC(=O)c1cccc(Cc2ccccc2)c1[N-]C(=O)[N-]c1ccc(C(=O)[O-])cc1 (3D coordinates assigned)
NCc1ccccc1CNC(=O)c1cccc(Cc2ccccc2)c1[N-]C(=O)[N-]c1ccc(C(=O)[O-])cc1 (optimized conformer: 82.73516094959247 kcal/mol)

>  <smiles>  (29) 
NCc1ccccc1CNC(=O)c1cccc(Cc2ccccc2)c1NC(=O)Nc1ccc(C(=O)O)cc1

>  <score_type>  (29) 
oracle

>  <origin>  (29) 
adg

>  <m_score__min__energy>  (29) 
-12.050000000000001

>  <m_primary>  (29) 
energy

$$$$
29:0
     RDKit          3D

 32 33  0  0  0  0  0  0  0  0999 V2000
   58.5430   31.9080   49.6680 C   0  0  0  0  0  0  0  0  0  0  0  0
   59.0060   32.4830   48.3670 C   0  0  0  0  0  0  0  0  0  0  0  0
   60.3470   32.8320   48.1850 C   0  0  0  0  0  0  0  0  0  0  0  0
   60.7380   33.3710   46.9550 C   0  0  0  0  0  0  0  0  0  0  0  0
   62.1600   33.7690   46.7180 C   0  0  0  0  0  0  0  0  0  0  0  0
   59.8120   33.5490   45.9750 N   0  0  0  0  0  0  0  0  0  0  0  0
   58.5120   33.2130   46.1720 C   0  0  0  0  0  0  0  0  0  0  0  0
   57.3150   33.4850   44.8680 S   0  0  0  0  0  0  0  0  0  0  0  0
   57.8100   32.0190   43.8980 C   0  0  0  0  0  0  0  0  0  0  0  0
   57.6810   30.7730   44.7130 C   0  0  0  0  0  0  0  0  0  0  0  0
   56.5250   30.0860   44.8490 N   0  0  0  0  0  0  0  0  0  0  0  0
   56.6550   28.9750   45.5720 N   0  0  0  0  0  0  0  0  0  0  0  0
   57.9140   28.7740   46.0120 C   0  0  0  0  0  0  0  0  0  0  0  0
   58.4110   27.3560   46.9870 S   0  0  0  0  0  0  0  0  0  0  0  0
   57.6770   26.1270   45.8560 C   0  0  0  0  0  0  0  0  0  0  0  0
   56.3390   25.6840   46.3550 C   0  0  0  0  0  0  0  0  0  0  0  0
   55.1680   26.4140   45.9960 N   0  0  0  0  0  0  0  0  0  0  0  0
   56.2410   24.6560   47.0780 O   0  0  0  0  0  0  0  0  0  0  0  0
   58.9540   29.9950   45.4980 S   0  0  0  0  0  0  0  0  0  0  0  0
   58.1160   32.6830   47.3580 N   0  0  0  0  0  0  0  0  0  0  0  0
   58.9952   32.4696   50.4987 H   0  0  0  0  0  0  0  0  0  0  0  0
   57.4471   31.9791   49.7310 H   0  0  0  0  0  0  0  0  0  0  0  0
   58.8462   30.8525   49.7310 H   0  0  0  0  0  0  0  0  0  0  0  0
   61.0797   32.6858   48.9923 H   0  0  0  0  0  0  0  0  0  0  0  0
   62.6669   33.9109   47.6839 H   0  0  0  0  0  0  0  0  0  0  0  0
   62.6716   32.9795   46.1479 H   0  0  0  0  0  0  0  0  0  0  0  0
   62.1874   34.7093   46.1479 H   0  0  0  0  0  0  0  0  0  0  0  0
   57.1636   31.9383   43.0117 H   0  0  0  0  0  0  0  0  0  0  0  0
   58.8616   32.1351   43.5967 H   0  0  0  0  0  0  0  0  0  0  0  0
   57.5598   26.5777   44.8595 H   0  0  0  0  0  0  0  0  0  0  0  0
   58.3424   25.2527   45.8030 H   0  0  0  0  0  0  0  0  0  0  0  0
   55.1600   27.4590   46.0220 H   0  0  0  0  0  0  0  0  0  0  0  0
  1  2  1  0
  2  3  2  0
  3  4  1  0
  4  5  1  0
  4  6  2  0
  6  7  1  0
  7  8  1  0
  8  9  1  0
  9 10  1  0
 10 11  2  0
 11 12  1  0
 12 13  2  0
 13 14  1  0
 14 15  1  0
 15 16  1  0
 16 17  1  0
 16 18  2  0
 13 19  1  0
  7 20  2  0
 20  2  1  0
 19 10  1  0
  1 21  1  0
  1 22  1  0
  1 23  1  0
  3 24  1  0
  5 25  1  0
  5 26  1  0
  5 27  1  0
  9 28  1  0
  9 29  1  0
 15 30  1  0
 15 31  1  0
 17 32  1  0
M  CHG  1  17  -1
M  END
>  <UniqueID>  (30) 
24

>  <SMILES>  (30) 
Cc1cc(C)nc(SCc2nnc(SCC([NH-])=O)s2)n1

>  <Energy>  (30) 
53.25888599433625

>  <Genealogy>  (30) 
Cc1cc(C)nc(SCc2nnc(SCC([NH-])=O)s2)n1 (protonated)
Cc1cc(C)nc(SCc2nnc(SCC([NH-])=O)s2)n1 (3D coordinates assigned)
Cc1cc(C)nc(SCc2nnc(SCC([NH-])=O)s2)n1 (optimized conformer: 53.25888599433625 kcal/mol)

>  <smiles>  (30) 
Cc1cc(C)nc(SCc2nnc(SCC(N)=O)s2)n1

>  <score_type>  (30) 
oracle

>  <origin>  (30) 
adg

>  <m_score__min__energy>  (30) 
-11.029999999999999

>  <m_primary>  (30) 
energy

$$$$
30:0
     RDKit          3D

 61 65  0  0  0  0  0  0  0  0999 V2000
   56.6001   32.0955   52.1662 H   0  0  0  0  0  0  0  0  0  0  0  0
   57.2010   31.4580   51.5010 C   0  0  0  0  0  0  0  0  0  0  0  0
   57.3860   30.1300   51.6540 N   0  0  0  0  0  0  0  0  0  0  0  0
   58.1790   29.7810   50.6200 C   0  0  0  0  0  0  0  0  0  0  0  0
   58.5310   28.7549   50.4380 H   0  0  0  0  0  0  0  0  0  0  0  0
   58.4910   30.8300   49.8360 N   0  0  0  0  0  0  0  0  0  0  0  0
   59.3050   30.8100   48.6230 C   0  0  0  0  0  0  0  0  0  0  0  0
   60.1214   31.5396   48.7287 H   0  0  0  0  0  0  0  0  0  0  0  0
   58.6587   31.0652   47.7702 H   0  0  0  0  0  0  0  0  0  0  0  0
   59.9070   29.4220   48.3710 C   0  0  0  0  0  0  0  0  0  0  0  0
   59.4280   28.6952   49.0436 H   0  0  0  0  0  0  0  0  0  0  0  0
   60.9892   29.4709   48.5618 H   0  0  0  0  0  0  0  0  0  0  0  0
   59.7030   29.0100   47.0170 O   0  0  0  0  0  0  0  0  0  0  0  0
   58.4670   28.6870   46.4340 C   0  0  0  0  0  0  0  0  0  0  0  0
   57.8340   27.4320   46.5970 C   0  0  0  0  0  0  0  0  0  0  0  0
   58.3282   26.6401   47.1789 H   0  0  0  0  0  0  0  0  0  0  0  0
   56.5590   27.1910   46.0100 C   0  0  0  0  0  0  0  0  0  0  0  0
   55.9140   26.0630   46.1370 N   0  0  0  0  0  0  0  0  0  0  0  0
   56.3320   24.8150   46.7170 C   0  0  0  0  0  0  0  0  0  0  0  0
   55.6160   24.2000   47.5510 O   0  0  0  0  0  0  0  0  0  0  0  0
   57.5770   24.1620   46.2070 C   0  0  0  0  0  0  0  0  0  0  0  0
   58.3304   24.9334   45.9897 H   0  0  0  0  0  0  0  0  0  0  0  0
   57.9616   23.4704   46.9711 H   0  0  0  0  0  0  0  0  0  0  0  0
   57.2750   23.3920   44.9500 C   0  0  0  0  0  0  0  0  0  0  0  0
   58.0060   22.2340   44.6360 C   0  0  0  0  0  0  0  0  0  0  0  0
   58.8226   21.9055   45.2957 H   0  0  0  0  0  0  0  0  0  0  0  0
   57.6990   21.4980   43.4880 C   0  0  0  0  0  0  0  0  0  0  0  0
   58.2805   20.5974   43.2415 H   0  0  0  0  0  0  0  0  0  0  0  0
   56.6550   21.9040   42.6530 C   0  0  0  0  0  0  0  0  0  0  0  0
   56.4162   21.3245   41.7490 H   0  0  0  0  0  0  0  0  0  0  0  0
   55.9140   23.0470   42.9670 C   0  0  0  0  0  0  0  0  0  0  0  0
   55.0902   23.3644   42.3108 H   0  0  0  0  0  0  0  0  0  0  0  0
   56.2180   23.7880   44.1140 C   0  0  0  0  0  0  0  0  0  0  0  0
   55.6280   24.6827   44.3617 H   0  0  0  0  0  0  0  0  0  0  0  0
   55.9810   28.1680   45.2520 N   0  0  0  0  0  0  0  0  0  0  0  0
   56.6030   29.3570   45.0810 C   0  0  0  0  0  0  0  0  0  0  0  0
   56.0540   30.6730   44.2010 S   0  0  0  0  0  0  0  0  0  0  0  0
   57.4390   31.5790   44.6080 C   0  0  0  0  0  0  0  0  0  0  0  0
   57.7100   32.7830   44.1950 N   0  0  0  0  0  0  0  0  0  0  0  0
   58.4190   33.7920   44.9270 C   0  0  0  0  0  0  0  0  0  0  0  0
   58.2580   35.0000   44.6090 O   0  0  0  0  0  0  0  0  0  0  0  0
   59.3620   33.4410   45.9490 N   0  0  0  0  0  0  0  0  0  0  0  0
   59.6710   32.4450   46.0300 H   0  0  0  0  0  0  0  0  0  0  0  0
   59.9620   34.4560   46.8130 C   0  0  0  0  0  0  0  0  0  0  0  0
   60.0807   35.3903   46.2447 H   0  0  0  0  0  0  0  0  0  0  0  0
   59.3038   34.6187   47.6792 H   0  0  0  0  0  0  0  0  0  0  0  0
   61.3130   34.0010   47.3070 C   0  0  0  0  0  0  0  0  0  0  0  0
   62.3500   33.7860   46.3830 C   0  0  0  0  0  0  0  0  0  0  0  0
   62.1756   33.9750   45.3135 H   0  0  0  0  0  0  0  0  0  0  0  0
   63.6010   33.3340   46.8120 C   0  0  0  0  0  0  0  0  0  0  0  0
   64.4095   33.1791   46.0823 H   0  0  0  0  0  0  0  0  0  0  0  0
   63.8250   33.0790   48.1660 C   0  0  0  0  0  0  0  0  0  0  0  0
   64.8108   32.7256   48.5026 H   0  0  0  0  0  0  0  0  0  0  0  0
   62.7990   33.2720   49.0940 C   0  0  0  0  0  0  0  0  0  0  0  0
   62.9787   33.0664   50.1596 H   0  0  0  0  0  0  0  0  0  0  0  0
   61.5430   33.7260   48.6740 C   0  0  0  0  0  0  0  0  0  0  0  0
   60.2800   33.9300   49.8840 Cl  0  0  0  0  0  0  0  0  0  0  0  0
   58.3050   30.8830   45.3850 N   0  0  0  0  0  0  0  0  0  0  0  0
   57.8250   29.6410   45.6490 C   0  0  0  0  0  0  0  0  0  0  0  0
   57.8800   31.8930   50.3840 C   0  0  0  0  0  0  0  0  0  0  0  0
   57.9154   32.9262   50.0082 H   0  0  0  0  0  0  0  0  0  0  0  0
  1  2  1  0
  2  3  1  0
  3  4  2  0
  4  5  1  0
  4  6  1  0
  6  7  1  0
  7  8  1  0
  7  9  1  0
  7 10  1  0
 10 11  1  0
 10 12  1  0
 10 13  1  0
 13 14  1  0
 14 15  2  0
 15 16  1  0
 15 17  1  0
 17 18  2  0
 18 19  1  0
 19 20  2  0
 19 21  1  0
 21 22  1  0
 21 23  1  0
 21 24  1  0
 24 25  2  0
 25 26  1  0
 25 27  1  0
 27 28  1  0
 27 29  2  0
 29 30  1  0
 29 31  1  0
 31 32  1  0
 31 33  2  0
 33 34  1  0
 17 35  1  0
 35 36  1  0
 36 37  1  0
 37 38  1  0
 38 39  2  0
 39 40  1  0
 40 41  2  0
 40 42  1  0
 42 43  1  0
 42 44  1  0
 44 45  1  0
 44 46  1  0
 44 47  1  0
 47 48  2  0
 48 49  1  0
 48 50  1  0
 50 51  1  0
 50 52  2  0
 52 53  1  0
 52 54  1  0
 54 55  1  0
 54 56  2  0
 56 57  1  0
 38 58  1  0
 58 59  1  0
  6 60  1  0
 60 61  1  0
 60  2  2  0
 59 14  1  0
 33 24  1  0
 59 36  2  0
 56 47  1  0
M  CHG  2  35  -1  58  -1
M  END
>  <UniqueID>  (31) 
25

>  <SMILES>  (31) 
O=C(Cc1ccccc1)/N=c1\cc(OCCn2ccnc2)c2[n-]/c(=N/C(=O)NCc3ccccc3Cl)sc2[n-]1

>  <Energy>  (31) 
138.94247718464797

>  <Genealogy>  (31) 
O=C(Cc1ccccc1)N=c1cc(OCCn2ccnc2)c2[n-]c(=NC(=O)NCc3ccccc3Cl)sc2[n-]1 (protonated)
O=C(Cc1ccccc1)/N=c1\cc(OCCn2ccnc2)c2[n-]/c(=N/C(=O)NCc3ccccc3Cl)sc2[n-]1 (cis-trans isomerization)
O=C(Cc1ccccc1)/N=c1\cc(OCCn2ccnc2)c2[n-]/c(=N/C(=O)NCc3ccccc3Cl)sc2[n-]1 (3D coordinates assigned)
O=C(Cc1ccccc1)/N=c1\cc(OCCn2ccnc2)c2[n-]/c(=N/C(=O)NCc3ccccc3Cl)sc2[n-]1 (optimized conformer: 138.94247718464797 kcal/mol)

>  <smiles>  (31) 
O=C(Cc1ccccc1)N=c1cc(OCCn2ccnc2)c2[nH]c(=NC(=O)NCc3ccccc3Cl)sc2[nH]1

>  <score_type>  (31) 
oracle

>  <origin>  (31) 
adg

>  <m_score__min__energy>  (31) 
-12.960000000000001

>  <m_primary>  (31) 
energy

$$$$
31:0
     RDKit          3D

 38 41  0  0  0  0  0  0  0  0999 V2000
   54.7760   24.6380   46.1470 O   0  0  0  0  0  0  0  0  0  0  0  0
   56.0350   24.6480   46.1580 C   0  0  0  0  0  0  0  0  0  0  0  0
   56.7680   25.9150   46.1710 C   0  0  0  0  0  0  0  0  0  0  0  0
   58.0080   25.9080   46.3930 O   0  0  0  0  0  0  0  0  0  0  0  0
   56.0800   27.1390   45.8810 N   0  0  0  0  0  0  0  0  0  0  0  0
   56.6840   28.4110   45.5970 C   0  0  0  0  0  0  0  0  0  0  0  0
   57.9090   28.7950   46.1730 C   0  0  0  0  0  0  0  0  0  0  0  0
   58.4730   30.0560   45.8930 C   0  0  0  0  0  0  0  0  0  0  0  0
   59.7330   30.4570   46.4690 N   0  0  0  0  0  0  0  0  0  0  0  0
   59.9450   31.3440   47.4620 C   0  0  0  0  0  0  0  0  0  0  0  0
   61.3100   31.3770   47.6700 C   0  0  0  0  0  0  0  0  0  0  0  0
   62.0620   32.1830   48.6510 C   0  0  0  0  0  0  0  0  0  0  0  0
   61.4360   33.1650   49.4380 C   0  0  0  0  0  0  0  0  0  0  0  0
   62.1900   33.9020   50.3530 C   0  0  0  0  0  0  0  0  0  0  0  0
   63.5620   33.6610   50.4810 C   0  0  0  0  0  0  0  0  0  0  0  0
   64.3480   34.3840   51.3910 C   0  0  0  0  0  0  0  0  0  0  0  0
   65.7190   34.1190   51.4940 C   0  0  0  0  0  0  0  0  0  0  0  0
   66.3070   33.1340   50.6930 C   0  0  0  0  0  0  0  0  0  0  0  0
   65.5300   32.4100   49.7840 C   0  0  0  0  0  0  0  0  0  0  0  0
   64.1590   32.6680   49.6740 C   0  0  0  0  0  0  0  0  0  0  0  0
   63.3990   31.9660   48.7910 N   0  0  0  0  0  0  0  0  0  0  0  0
   61.8850   30.5160   46.8060 N   0  0  0  0  0  0  0  0  0  0  0  0
   60.9080   29.9740   46.0960 N   0  0  0  0  0  0  0  0  0  0  0  0
   57.7740   30.9380   45.0500 C   0  0  0  0  0  0  0  0  0  0  0  0
   56.5450   30.5710   44.5000 C   0  0  0  0  0  0  0  0  0  0  0  0
   55.9980   29.3160   44.7750 C   0  0  0  0  0  0  0  0  0  0  0  0
   54.7690   28.9690   44.2230 O   0  0  0  0  0  0  0  0  0  0  0  0
   56.5884   23.6973   46.1578 H   0  0  0  0  0  0  0  0  0  0  0  0
   58.4324   28.1033   46.8494 H   0  0  0  0  0  0  0  0  0  0  0  0
   59.1821   31.9260   47.9999 H   0  0  0  0  0  0  0  0  0  0  0  0
   60.3571   33.3519   49.3334 H   0  0  0  0  0  0  0  0  0  0  0  0
   61.7058   34.6713   50.9725 H   0  0  0  0  0  0  0  0  0  0  0  0
   63.8877   35.1580   52.0227 H   0  0  0  0  0  0  0  0  0  0  0  0
   66.3354   34.6867   52.2065 H   0  0  0  0  0  0  0  0  0  0  0  0
   67.3842   32.9286   50.7788 H   0  0  0  0  0  0  0  0  0  0  0  0
   65.9964   31.6374   49.1551 H   0  0  0  0  0  0  0  0  0  0  0  0
   58.1998   31.9263   44.8220 H   0  0  0  0  0  0  0  0  0  0  0  0
   56.0052   31.2730   43.8474 H   0  0  0  0  0  0  0  0  0  0  0  0
  1  2  2  0
  2  3  1  0
  3  4  2  0
  3  5  1  0
  5  6  1  0
  6  7  2  0
  7  8  1  0
  8  9  1  0
  9 10  1  0
 10 11  2  0
 11 12  1  0
 12 13  2  0
 13 14  1  0
 14 15  2  0
 15 16  1  0
 16 17  2  0
 17 18  1  0
 18 19  2  0
 19 20  1  0
 20 21  2  0
 11 22  1  0
 22 23  2  0
  8 24  2  0
 24 25  1  0
 25 26  2  0
 26 27  1  0
 26  6  1  0
 23  9  1  0
 21 12  1  0
 20 15  1  0
  2 28  1  0
  7 29  1  0
 10 30  1  0
 13 31  1  0
 14 32  1  0
 16 33  1  0
 17 34  1  0
 18 35  1  0
 19 36  1  0
 24 37  1  0
 25 38  1  0
M  CHG  2   5  -1  27  -1
M  END
>  <UniqueID>  (32) 
26

>  <SMILES>  (32) 
O=CC(=O)[N-]c1cc(-n2cc(-c3ccc4ccccc4n3)nn2)ccc1[O-]

>  <Energy>  (32) 
86.14229667884837

>  <Genealogy>  (32) 
O=CC(=O)[N-]c1cc(-n2cc(-c3ccc4ccccc4n3)nn2)ccc1[O-] (protonated)
O=CC(=O)[N-]c1cc(-n2cc(-c3ccc4ccccc4n3)nn2)ccc1[O-] (3D coordinates assigned)
O=CC(=O)[N-]c1cc(-n2cc(-c3ccc4ccccc4n3)nn2)ccc1[O-] (optimized conformer: 86.14229667884837 kcal/mol)

>  <smiles>  (32) 
O=CC(=O)Nc1cc(-n2cc(-c3ccc4ccccc4n3)nn2)ccc1O

>  <score_type>  (32) 
oracle

>  <origin>  (32) 
adg

>  <m_score__min__energy>  (32) 
-12.09

>  <m_primary>  (32) 
energy

$$$$
32:0
     RDKit          3D

 22 22  0  0  0  0  0  0  0  0999 V2000
   58.1440   33.0090   43.7940 C   0  0  0  0  0  0  0  0  0  0  0  0
   57.1520   31.9290   44.8780 S   0  0  0  0  0  0  0  0  0  0  0  0
   56.8290   30.6530   43.6090 C   0  0  0  0  0  0  0  0  0  0  0  0
   55.7290   29.7250   44.0410 C   0  0  0  0  0  0  0  0  0  0  0  0
   54.6440   29.7160   43.4010 O   0  0  0  0  0  0  0  0  0  0  0  0
   55.8840   28.8250   45.1450 N   0  0  0  0  0  0  0  0  0  0  0  0
   57.0620   28.0730   45.4610 C   0  0  0  0  0  0  0  0  0  0  0  0
   58.3730   28.5030   45.3630 C   0  0  0  0  0  0  0  0  0  0  0  0
   59.1450   27.4790   45.8790 C   0  0  0  0  0  0  0  0  0  0  0  0
   58.3600   26.4640   46.2940 N   0  0  0  0  0  0  0  0  0  0  0  0
   57.0840   26.8240   46.0530 C   0  0  0  0  0  0  0  0  0  0  0  0
   55.9190   25.9900   46.3900 C   0  0  0  0  0  0  0  0  0  0  0  0
   56.0670   24.9470   47.0800 O   0  0  0  0  0  0  0  0  0  0  0  0
   54.6480   26.3420   45.9520 O   0  0  0  0  0  0  0  0  0  0  0  0
   58.7605   33.6802   44.4100 H   0  0  0  0  0  0  0  0  0  0  0  0
   58.7964   32.3916   43.1591 H   0  0  0  0  0  0  0  0  0  0  0  0
   57.4735   33.6067   43.1591 H   0  0  0  0  0  0  0  0  0  0  0  0
   56.5349   31.1461   42.6707 H   0  0  0  0  0  0  0  0  0  0  0  0
   57.7466   30.0635   43.4656 H   0  0  0  0  0  0  0  0  0  0  0  0
   58.7281   29.4621   44.9580 H   0  0  0  0  0  0  0  0  0  0  0  0
   60.2431   27.4904   45.9421 H   0  0  0  0  0  0  0  0  0  0  0  0
   58.6890   25.5760   46.7340 H   0  0  0  0  0  0  0  0  0  0  0  0
  1  2  1  0
  2  3  1  0
  3  4  1  0
  4  5  2  0
  4  6  1  0
  6  7  1  0
  7  8  1  0
  8  9  2  0
  9 10  1  0
 10 11  1  0
 11 12  1  0
 12 13  2  0
 12 14  1  0
 11  7  2  0
  1 15  1  0
  1 16  1  0
  1 17  1  0
  3 18  1  0
  3 19  1  0
  8 20  1  0
  9 21  1  0
 10 22  1  0
M  CHG  2   6  -1  14  -1
M  END
>  <UniqueID>  (33) 
27

>  <SMILES>  (33) 
CSCC(=O)[N-]c1cc[nH]c1C(=O)[O-]

>  <Energy>  (33) 
45.65687988503248

>  <Genealogy>  (33) 
CSCC(=O)[N-]c1cc[nH]c1C(=O)[O-] (protonated)
CSCC(=O)[N-]c1cc[nH]c1C(=O)[O-] (3D coordinates assigned)
CSCC(=O)[N-]c1cc[nH]c1C(=O)[O-] (optimized conformer: 45.65687988503248 kcal/mol)

>  <smiles>  (33) 
CSCC(=O)Nc1cc[nH]c1C(=O)O

>  <score_type>  (33) 
oracle

>  <origin>  (33) 
adg

>  <m_score__min__energy>  (33) 
-10.26

>  <m_primary>  (33) 
energy

$$$$
33:0
     RDKit          3D

 47 48  0  0  0  0  0  0  0  0999 V2000
   58.6486   28.0535   52.4092 H   0  0  0  0  0  0  0  0  0  0  0  0
   58.0490   28.9720   52.3270 C   0  0  0  0  0  0  0  0  0  0  0  0
   58.4480   29.9680   51.5050 N   0  0  0  0  0  0  0  0  0  0  0  0
   57.7550   31.1240   51.3750 C   0  0  0  0  0  0  0  0  0  0  0  0
   58.2450   32.0230   50.5610 N   0  0  0  0  0  0  0  0  0  0  0  0
   59.0530   31.8950   49.3440 C   0  0  0  0  0  0  0  0  0  0  0  0
   59.9170   31.2473   49.5539 H   0  0  0  0  0  0  0  0  0  0  0  0
   58.4237   31.4601   48.5535 H   0  0  0  0  0  0  0  0  0  0  0  0
   59.5580   33.2620   48.8640 C   0  0  0  0  0  0  0  0  0  0  0  0
   59.2306   34.0287   49.5816 H   0  0  0  0  0  0  0  0  0  0  0  0
   60.6545   33.2040   48.7982 H   0  0  0  0  0  0  0  0  0  0  0  0
   59.0430   33.6310   47.4990 C   0  0  0  0  0  0  0  0  0  0  0  0
   59.7540   34.5330   46.6890 C   0  0  0  0  0  0  0  0  0  0  0  0
   60.6918   34.9767   47.0547 H   0  0  0  0  0  0  0  0  0  0  0  0
   59.2730   34.8680   45.4200 C   0  0  0  0  0  0  0  0  0  0  0  0
   59.8297   35.5793   44.7922 H   0  0  0  0  0  0  0  0  0  0  0  0
   58.0860   34.3010   44.9470 C   0  0  0  0  0  0  0  0  0  0  0  0
   57.7078   34.5691   43.9494 H   0  0  0  0  0  0  0  0  0  0  0  0
   57.3800   33.3940   45.7410 C   0  0  0  0  0  0  0  0  0  0  0  0
   56.4515   32.9405   45.3639 H   0  0  0  0  0  0  0  0  0  0  0  0
   57.8520   33.0620   47.0140 C   0  0  0  0  0  0  0  0  0  0  0  0
   57.2896   32.3528   47.6390 H   0  0  0  0  0  0  0  0  0  0  0  0
   56.5540   31.2750   52.1200 C   0  0  0  0  0  0  0  0  0  0  0  0
   55.8760   32.3330   52.0400 O   0  0  0  0  0  0  0  0  0  0  0  0
   56.1160   30.2530   52.9330 N   0  0  0  0  0  0  0  0  0  0  0  0
   54.8270   30.4120   53.6440 C   0  0  0  0  0  0  0  0  0  0  0  0
   54.7634   31.4325   54.0497 H   0  0  0  0  0  0  0  0  0  0  0  0
   54.7807   29.6711   54.4558 H   0  0  0  0  0  0  0  0  0  0  0  0
   53.6690   30.1790   52.7170 C   0  0  0  0  0  0  0  0  0  0  0  0
   53.0210   29.1000   52.7900 O   0  0  0  0  0  0  0  0  0  0  0  0
   53.3240   31.1630   51.7330 N   0  0  0  0  0  0  0  0  0  0  0  0
   53.7470   32.1170   51.7950 H   0  0  0  0  0  0  0  0  0  0  0  0
   52.4260   30.8750   50.6190 C   0  0  0  0  0  0  0  0  0  0  0  0
   51.9451   29.8996   50.7842 H   0  0  0  0  0  0  0  0  0  0  0  0
   53.0094   30.8564   49.6866 H   0  0  0  0  0  0  0  0  0  0  0  0
   51.3680   31.9360   50.5100 C   0  0  0  0  0  0  0  0  0  0  0  0
   50.7780   32.1050   49.4110 O   0  0  0  0  0  0  0  0  0  0  0  0
   51.0300   32.7840   51.6140 N   0  0  0  0  0  0  0  0  0  0  0  0
   50.1820   32.3850   52.7290 C   0  0  0  0  0  0  0  0  0  0  0  0
   50.6869   32.6226   53.6770 H   0  0  0  0  0  0  0  0  0  0  0  0
   49.2270   32.9282   52.6760 H   0  0  0  0  0  0  0  0  0  0  0  0
   49.9917   31.3029   52.6760 H   0  0  0  0  0  0  0  0  0  0  0  0
   56.8740   29.1090   53.0730 C   0  0  0  0  0  0  0  0  0  0  0  0
   56.4600   27.9660   53.9680 C   0  0  0  0  0  0  0  0  0  0  0  0
   56.5688   28.2665   55.0205 H   0  0  0  0  0  0  0  0  0  0  0  0
   55.4103   27.7052   53.7678 H   0  0  0  0  0  0  0  0  0  0  0  0
   57.0992   27.0935   53.7678 H   0  0  0  0  0  0  0  0  0  0  0  0
  1  2  1  0
  2  3  1  0
  3  4  1  0
  4  5  2  0
  5  6  1  0
  6  7  1  0
  6  8  1  0
  6  9  1  0
  9 10  1  0
  9 11  1  0
  9 12  1  0
 12 13  2  0
 13 14  1  0
 13 15  1  0
 15 16  1  0
 15 17  2  0
 17 18  1  0
 17 19  1  0
 19 20  1  0
 19 21  2  0
 21 22  1  0
  4 23  1  0
 23 24  2  0
 23 25  1  0
 25 26  1  0
 26 27  1  0
 26 28  1  0
 26 29  1  0
 29 30  2  0
 29 31  1  0
 31 32  1  0
 31 33  1  0
 33 34  1  0
 33 35  1  0
 33 36  1  0
 36 37  2  0
 36 38  1  0
 38 39  1  0
 39 40  1  0
 39 41  1  0
 39 42  1  0
 25 43  1  0
 43 44  1  0
 44 45  1  0
 44 46  1  0
 44 47  1  0
 43  2  2  0
 21 12  1  0
M  CHG  2   3  -1  38  -1
M  END
>  <UniqueID>  (34) 
28

>  <SMILES>  (34) 
C[N-]C(=O)CNC(=O)Cn1c(C)c[n-]/c(=N/CCc2ccccc2)c1=O

>  <Energy>  (34) 
49.425275587857605

>  <Genealogy>  (34) 
C[N-]C(=O)CNC(=O)Cn1c(C)c[n-]c(=NCCc2ccccc2)c1=O (protonated)
C[N-]C(=O)CNC(=O)Cn1c(C)c[n-]/c(=N/CCc2ccccc2)c1=O (cis-trans isomerization)
C[N-]C(=O)CNC(=O)Cn1c(C)c[n-]/c(=N/CCc2ccccc2)c1=O (3D coordinates assigned)
C[N-]C(=O)CNC(=O)Cn1c(C)c[n-]/c(=N/CCc2ccccc2)c1=O (optimized conformer: 49.425275587857605 kcal/mol)

>  <smiles>  (34) 
CNC(=O)CNC(=O)Cn1c(C)c[nH]c(=NCCc2ccccc2)c1=O

>  <score_type>  (34) 
oracle

>  <origin>  (34) 
adg

>  <m_score__min__energy>  (34) 
-11.42

>  <m_primary>  (34) 
energy

$$$$
34:0
     RDKit          3D

 48 50  0  0  0  0  0  0  0  0999 V2000
   59.6650   22.2150   44.5230 C   0  0  0  0  0  0  0  0  0  0  0  0
   58.4090   21.5410   43.9880 C   0  0  0  0  0  0  0  0  0  0  0  0
   57.7450   20.8300   45.0300 O   0  0  0  0  0  0  0  0  0  0  0  0
   57.2600   21.4350   46.1960 C   0  0  0  0  0  0  0  0  0  0  0  0
   57.4660   20.9030   47.3210 O   0  0  0  0  0  0  0  0  0  0  0  0
   56.5190   22.7110   46.1030 C   0  0  0  0  0  0  0  0  0  0  0  0
   55.2090   22.7510   45.6010 C   0  0  0  0  0  0  0  0  0  0  0  0
   54.5060   23.9580   45.5630 C   0  0  0  0  0  0  0  0  0  0  0  0
   55.1100   25.1410   46.0020 C   0  0  0  0  0  0  0  0  0  0  0  0
   54.3970   26.3330   45.9600 O   0  0  0  0  0  0  0  0  0  0  0  0
   56.4320   25.1240   46.4680 C   0  0  0  0  0  0  0  0  0  0  0  0
   57.0390   26.3480   46.9000 N   0  0  0  0  0  0  0  0  0  0  0  0
   58.6140   26.8830   46.4030 S   0  0  0  0  0  0  0  0  0  0  0  0
   59.6320   26.3680   47.3810 O   0  0  0  0  0  0  0  0  0  0  0  0
   58.9210   26.3030   45.0510 O   0  0  0  0  0  0  0  0  0  0  0  0
   58.7040   28.6390   46.2920 C   0  0  0  0  0  0  0  0  0  0  0  0
   59.7560   29.3360   46.9030 C   0  0  0  0  0  0  0  0  0  0  0  0
   59.7810   30.7300   46.8800 C   0  0  0  0  0  0  0  0  0  0  0  0
   58.7570   31.4510   46.2450 C   0  0  0  0  0  0  0  0  0  0  0  0
   58.7870   32.8900   46.2620 N   0  0  0  0  0  0  0  0  0  0  0  0
   59.0530   33.6270   47.4990 C   0  0  0  0  0  0  0  0  0  0  0  0
   59.9210   34.8490   47.1800 C   0  0  0  0  0  0  0  0  0  0  0  0
   59.3380   35.6240   46.1480 O   0  0  0  0  0  0  0  0  0  0  0  0
   59.3090   34.8800   44.9430 C   0  0  0  0  0  0  0  0  0  0  0  0
   58.3940   33.6590   45.0790 C   0  0  0  0  0  0  0  0  0  0  0  0
   57.7090   30.7490   45.6190 C   0  0  0  0  0  0  0  0  0  0  0  0
   56.6940   31.4320   44.9560 O   0  0  0  0  0  0  0  0  0  0  0  0
   57.6850   29.3510   45.6480 C   0  0  0  0  0  0  0  0  0  0  0  0
   57.1220   23.9040   46.5350 C   0  0  0  0  0  0  0  0  0  0  0  0
   59.6464   22.2050   45.6228 H   0  0  0  0  0  0  0  0  0  0  0  0
   60.5527   21.6721   44.1664 H   0  0  0  0  0  0  0  0  0  0  0  0
   59.7034   23.2549   44.1664 H   0  0  0  0  0  0  0  0  0  0  0  0
   57.7313   22.3067   43.5826 H   0  0  0  0  0  0  0  0  0  0  0  0
   58.6938   20.8317   43.1969 H   0  0  0  0  0  0  0  0  0  0  0  0
   54.7338   21.8285   45.2360 H   0  0  0  0  0  0  0  0  0  0  0  0
   53.4728   23.9781   45.1861 H   0  0  0  0  0  0  0  0  0  0  0  0
   60.5642   28.7814   47.4021 H   0  0  0  0  0  0  0  0  0  0  0  0
   60.6093   31.2690   47.3631 H   0  0  0  0  0  0  0  0  0  0  0  0
   58.1020   33.9568   47.9427 H   0  0  0  0  0  0  0  0  0  0  0  0
   59.5795   32.9753   48.2118 H   0  0  0  0  0  0  0  0  0  0  0  0
   60.0191   35.4677   48.0842 H   0  0  0  0  0  0  0  0  0  0  0  0
   60.9095   34.5017   46.8448 H   0  0  0  0  0  0  0  0  0  0  0  0
   58.9353   35.5220   44.1317 H   0  0  0  0  0  0  0  0  0  0  0  0
   60.3284   34.5332   44.7184 H   0  0  0  0  0  0  0  0  0  0  0  0
   57.3510   33.9914   45.1865 H   0  0  0  0  0  0  0  0  0  0  0  0
   58.4847   33.0284   44.1823 H   0  0  0  0  0  0  0  0  0  0  0  0
   56.8610   28.8079   45.1622 H   0  0  0  0  0  0  0  0  0  0  0  0
   58.1481   23.8815   46.9308 H   0  0  0  0  0  0  0  0  0  0  0  0
  1  2  1  0
  2  3  1  0
  3  4  1  0
  4  5  2  0
  4  6  1  0
  6  7  2  0
  7  8  1  0
  8  9  2  0
  9 10  1  0
  9 11  1  0
 11 12  1  0
 12 13  1  0
 13 14  2  0
 13 15  2  0
 13 16  1  0
 16 17  2  0
 17 18  1  0
 18 19  2  0
 19 20  1  0
 20 21  1  0
 21 22  1  0
 22 23  1  0
 23 24  1  0
 24 25  1  0
 19 26  1  0
 26 27  1  0
 26 28  2  0
 11 29  2  0
 29  6  1  0
 28 16  1  0
 25 20  1  0
  1 30  1  0
  1 31  1  0
  1 32  1  0
  2 33  1  0
  2 34  1  0
  7 35  1  0
  8 36  1  0
 17 37  1  0
 18 38  1  0
 21 39  1  0
 21 40  1  0
 22 41  1  0
 22 42  1  0
 24 43  1  0
 24 44  1  0
 25 45  1  0
 25 46  1  0
 28 47  1  0
 29 48  1  0
M  CHG  3  10  -1  12  -1  27  -1
M  END
>  <UniqueID>  (35) 
29

>  <SMILES>  (35) 
CCOC(=O)c1ccc([O-])c([N-]S(=O)(=O)c2ccc(N3CCOCC3)c([O-])c2)c1

>  <Energy>  (35) 
57.487190676297914

>  <Genealogy>  (35) 
CCOC(=O)c1ccc([O-])c([N-]S(=O)(=O)c2ccc(N3CCOCC3)c([O-])c2)c1 (protonated)
CCOC(=O)c1ccc([O-])c([N-]S(=O)(=O)c2ccc(N3CCOCC3)c([O-])c2)c1 (3D coordinates assigned)
CCOC(=O)c1ccc([O-])c([N-]S(=O)(=O)c2ccc(N3CCOCC3)c([O-])c2)c1 (nonaromatic ring conformer: 57.487190676297914 kcal/mol)

>  <smiles>  (35) 
CCOC(=O)c1ccc(O)c(NS(=O)(=O)c2ccc(N3CCOCC3)c(O)c2)c1

>  <score_type>  (35) 
oracle

>  <origin>  (35) 
adg

>  <m_score__min__energy>  (35) 
-14.77

>  <m_primary>  (35) 
energy

$$$$
35:0
     RDKit          3D

 36 38  0  0  0  0  0  0  0  0999 V2000
   60.2390   34.2260   48.0650 C   0  0  0  0  0  0  0  0  0  0  0  0
   59.6710   33.4420   46.9690 N   0  0  0  0  0  0  0  0  0  0  0  0
   59.8000   32.1130   46.9950 N   0  0  0  0  0  0  0  0  0  0  0  0
   59.3060   31.3150   46.0110 C   0  0  0  0  0  0  0  0  0  0  0  0
   58.6040   31.8950   44.9450 C   0  0  0  0  0  0  0  0  0  0  0  0
   58.4780   33.2850   44.9050 C   0  0  0  0  0  0  0  0  0  0  0  0
   59.0170   34.0560   45.9350 C   0  0  0  0  0  0  0  0  0  0  0  0
   58.8960   35.3110   45.9030 O   0  0  0  0  0  0  0  0  0  0  0  0
   58.0790   31.0560   43.8000 C   0  0  0  0  0  0  0  0  0  0  0  0
   57.9420   29.6230   44.1460 N   0  0  2  0  0  0  0  0  0  0  0  0
   56.7500   29.3380   44.9180 C   0  0  0  0  0  0  0  0  0  0  0  0
   55.7070   30.0350   44.7670 O   0  0  0  0  0  0  0  0  0  0  0  0
   56.7600   28.2340   45.8390 N   0  0  0  0  0  0  0  0  0  0  0  0
   56.6410   26.9610   45.5850 C   0  0  0  0  0  0  0  0  0  0  0  0
   57.6140   26.2220   44.8760 C   0  0  0  0  0  0  0  0  0  0  0  0
   57.4040   24.8620   44.6350 C   0  0  0  0  0  0  0  0  0  0  0  0
   56.2340   24.2460   45.0830 C   0  0  0  0  0  0  0  0  0  0  0  0
   55.9580   22.5410   44.7820 Cl  0  0  0  0  0  0  0  0  0  0  0  0
   55.2820   25.0070   45.7630 C   0  0  0  0  0  0  0  0  0  0  0  0
   55.5040   26.3290   45.9900 N   0  0  0  0  0  0  0  0  0  0  0  0
   59.1510   29.1030   44.8180 C   0  0  0  0  0  0  0  0  0  0  0  0
   59.4380   29.8260   46.1440 C   0  0  0  0  0  0  0  0  0  0  0  0
   59.9254   33.7931   49.0264 H   0  0  0  0  0  0  0  0  0  0  0  0
   61.3368   34.2104   47.9965 H   0  0  0  0  0  0  0  0  0  0  0  0
   59.8821   35.2642   47.9965 H   0  0  0  0  0  0  0  0  0  0  0  0
   57.9567   33.7693   44.0661 H   0  0  0  0  0  0  0  0  0  0  0  0
   57.0912   31.4416   43.5075 H   0  0  0  0  0  0  0  0  0  0  0  0
   58.8081   31.1273   42.9795 H   0  0  0  0  0  0  0  0  0  0  0  0
   57.8470   29.1040   43.2400 H   0  0  0  0  0  0  0  0  0  0  0  0
   58.5300   26.7136   44.5164 H   0  0  0  0  0  0  0  0  0  0  0  0
   58.1606   24.2765   44.0922 H   0  0  0  0  0  0  0  0  0  0  0  0
   54.3519   24.5371   46.1154 H   0  0  0  0  0  0  0  0  0  0  0  0
   59.0087   28.0316   45.0228 H   0  0  0  0  0  0  0  0  0  0  0  0
   60.0075   29.2739   44.1493 H   0  0  0  0  0  0  0  0  0  0  0  0
   58.7248   29.4724   46.9032 H   0  0  0  0  0  0  0  0  0  0  0  0
   60.4741   29.6010   46.4370 H   0  0  0  0  0  0  0  0  0  0  0  0
  1  2  1  0
  2  3  1  0
  3  4  2  0
  4  5  1  0
  5  6  2  0
  6  7  1  0
  7  8  2  0
  5  9  1  0
  9 10  1  0
 10 11  1  0
 11 12  2  0
 11 13  1  0
 13 14  2  3
 14 15  1  0
 15 16  2  0
 16 17  1  0
 17 18  1  0
 17 19  2  0
 19 20  1  0
 10 21  1  0
 21 22  1  0
  7  2  1  0
 20 14  1  0
 22  4  1  0
  1 23  1  0
  1 24  1  0
  1 25  1  0
  6 26  1  0
  9 27  1  0
  9 28  1  0
 10 29  1  6
 15 30  1  0
 16 31  1  0
 19 32  1  0
 21 33  1  0
 21 34  1  0
 22 35  1  0
 22 36  1  0
M  CHG  2  10   1  20  -1
M  END
>  <UniqueID>  (36) 
30

>  <SMILES>  (36) 
Cn1nc2c(cc1=O)C[N@H+](C(=O)N=c1ccc(Cl)c[n-]1)CC2

>  <Energy>  (36) 
53.80526878611337

>  <Genealogy>  (36) 
Cn1nc2c(cc1=O)C[NH+](C(=O)N=c1ccc(Cl)c[n-]1)CC2 (protonated)
Cn1nc2c(cc1=O)C[N@H+](C(=O)N=c1ccc(Cl)c[n-]1)CC2 (chirality)
Cn1nc2c(cc1=O)C[N@H+](C(=O)N=c1ccc(Cl)c[n-]1)CC2 (3D coordinates assigned)
Cn1nc2c(cc1=O)C[N@H+](C(=O)N=c1ccc(Cl)c[n-]1)CC2 (nonaromatic ring conformer: 53.80526878611337 kcal/mol)

>  <smiles>  (36) 
Cn1nc2c(cc1=O)CN(C(=O)N=c1ccc(Cl)c[nH]1)CC2

>  <score_type>  (36) 
oracle

>  <origin>  (36) 
adg

>  <m_score__min__energy>  (36) 
-8.3300000000000001

>  <m_primary>  (36) 
energy

$$$$
36:0
     RDKit          3D

 48 50  0  0  0  0  0  0  0  0999 V2000
   59.9370   34.2180   49.7420 O   0  0  0  0  0  0  0  0  0  0  0  0
   60.5560   33.7420   48.7550 C   0  0  0  0  0  0  0  0  0  0  0  0
   60.3690   34.3870   47.4080 C   0  0  0  0  0  0  0  0  0  0  0  0
   58.8790   34.5710   47.1020 C   0  0  0  0  0  0  0  0  0  0  0  0
   58.4260   33.5820   46.0620 C   0  0  0  0  0  0  0  0  0  0  0  0
   58.6010   33.8490   44.6960 C   0  0  0  0  0  0  0  0  0  0  0  0
   58.1420   32.9390   43.7420 C   0  0  0  0  0  0  0  0  0  0  0  0
   57.5020   31.7710   44.1620 C   0  0  0  0  0  0  0  0  0  0  0  0
   57.3280   31.5310   45.4900 N   0  0  0  0  0  0  0  0  0  0  0  0
   57.7670   32.4010   46.4380 C   0  0  0  0  0  0  0  0  0  0  0  0
   61.3970   32.5980   48.9610 N   0  0  0  0  0  0  0  0  0  0  0  0
   61.3010   31.3030   48.2880 C   0  0  0  0  0  0  0  0  0  0  0  0
   60.1890   30.4780   48.9500 C   0  0  0  0  0  0  0  0  0  0  0  0
   60.0170   29.0970   48.2770 C   0  0  0  0  0  0  0  0  0  0  0  0
   60.6210   29.0570   46.9260 N   0  0  0  0  0  0  0  0  0  0  0  0
   60.3350   27.8000   46.1970 C   0  0  0  0  0  0  0  0  0  0  0  0
   58.8630   27.4420   46.1390 C   0  0  0  0  0  0  0  0  0  0  0  0
   57.9610   28.2630   45.4390 C   0  0  0  0  0  0  0  0  0  0  0  0
   56.6030   27.9330   45.3860 C   0  0  0  0  0  0  0  0  0  0  0  0
   56.1330   26.7910   46.0400 C   0  0  0  0  0  0  0  0  0  0  0  0
   54.7830   26.4650   45.9860 O   0  0  0  0  0  0  0  0  0  0  0  0
   57.0200   25.9760   46.7490 C   0  0  0  0  0  0  0  0  0  0  0  0
   58.3800   26.3020   46.8020 C   0  0  0  0  0  0  0  0  0  0  0  0
   60.3100   30.2710   46.1530 C   0  0  0  0  0  0  0  0  0  0  0  0
   61.0150   31.4900   46.7800 C   0  0  0  0  0  0  0  0  0  0  0  0
   60.8628   35.3699   47.4059 H   0  0  0  0  0  0  0  0  0  0  0  0
   60.8121   33.7376   46.6386 H   0  0  0  0  0  0  0  0  0  0  0  0
   58.2989   34.4174   48.0239 H   0  0  0  0  0  0  0  0  0  0  0  0
   58.7190   35.5889   46.7170 H   0  0  0  0  0  0  0  0  0  0  0  0
   59.1001   34.7757   44.3765 H   0  0  0  0  0  0  0  0  0  0  0  0
   58.2831   33.1400   42.6698 H   0  0  0  0  0  0  0  0  0  0  0  0
   57.1387   31.0453   43.4195 H   0  0  0  0  0  0  0  0  0  0  0  0
   57.6053   32.1787   47.5031 H   0  0  0  0  0  0  0  0  0  0  0  0
   62.2590   30.7708   48.3831 H   0  0  0  0  0  0  0  0  0  0  0  0
   60.4407   30.3280   50.0102 H   0  0  0  0  0  0  0  0  0  0  0  0
   59.2440   31.0303   48.8410 H   0  0  0  0  0  0  0  0  0  0  0  0
   60.5006   28.3339   48.9045 H   0  0  0  0  0  0  0  0  0  0  0  0
   58.9393   28.9030   48.1722 H   0  0  0  0  0  0  0  0  0  0  0  0
   60.7062   27.9054   45.1669 H   0  0  0  0  0  0  0  0  0  0  0  0
   60.8377   26.9913   46.7477 H   0  0  0  0  0  0  0  0  0  0  0  0
   58.3250   29.1683   44.9311 H   0  0  0  0  0  0  0  0  0  0  0  0
   55.9037   28.5735   44.8286 H   0  0  0  0  0  0  0  0  0  0  0  0
   56.6491   25.0783   47.2653 H   0  0  0  0  0  0  0  0  0  0  0  0
   59.0744   25.6619   47.3660 H   0  0  0  0  0  0  0  0  0  0  0  0
   60.6572   30.1423   45.1172 H   0  0  0  0  0  0  0  0  0  0  0  0
   59.2227   30.4375   46.1639 H   0  0  0  0  0  0  0  0  0  0  0  0
   61.9697   31.6514   46.2580 H   0  0  0  0  0  0  0  0  0  0  0  0
   60.3424   32.3539   46.6738 H   0  0  0  0  0  0  0  0  0  0  0  0
  1  2  2  0
  2  3  1  0
  3  4  1  0
  4  5  1  0
  5  6  2  0
  6  7  1  0
  7  8  2  0
  8  9  1  0
  9 10  2  0
  2 11  1  0
 11 12  1  0
 12 13  1  0
 13 14  1  0
 14 15  1  0
 15 16  1  0
 16 17  1  0
 17 18  2  0
 18 19  1  0
 19 20  2  0
 20 21  1  0
 20 22  1  0
 22 23  2  0
 15 24  1  0
 24 25  1  0
 10  5  1  0
 25 12  1  0
 23 17  1  0
  3 26  1  0
  3 27  1  0
  4 28  1  0
  4 29  1  0
  6 30  1  0
  7 31  1  0
  8 32  1  0
 10 33  1  0
 12 34  1  0
 13 35  1  0
 13 36  1  0
 14 37  1  0
 14 38  1  0
 16 39  1  0
 16 40  1  0
 18 41  1  0
 19 42  1  0
 22 43  1  0
 23 44  1  0
 24 45  1  0
 24 46  1  0
 25 47  1  0
 25 48  1  0
M  CHG  2  11  -1  21  -1
M  END
>  <UniqueID>  (37) 
31

>  <SMILES>  (37) 
O=C(CCc1cccnc1)[N-]C1CCN(Cc2ccc([O-])cc2)CC1

>  <Energy>  (37) 
53.12635760751173

>  <Genealogy>  (37) 
O=C(CCc1cccnc1)[N-]C1CCN(Cc2ccc([O-])cc2)CC1 (protonated)
O=C(CCc1cccnc1)[N-]C1CCN(Cc2ccc([O-])cc2)CC1 (3D coordinates assigned)
O=C(CCc1cccnc1)[N-]C1CCN(Cc2ccc([O-])cc2)CC1 (nonaromatic ring conformer: 53.12635760751173 kcal/mol)

>  <smiles>  (37) 
O=C(CCc1cccnc1)NC1CCN(Cc2ccc(O)cc2)CC1

>  <score_type>  (37) 
oracle

>  <origin>  (37) 
adg

>  <m_score__min__energy>  (37) 
-12.949999999999999

>  <m_primary>  (37) 
energy

$$$$
37:0
     RDKit          3D

 45 48  0  0  0  0  0  0  0  0999 V2000
   58.0760   26.0430   44.1770 O   0  0  0  0  0  0  0  0  0  0  0  0
   57.1530   26.1060   45.0340 C   0  0  0  0  0  0  0  0  0  0  0  0
   56.9840   27.2910   45.8330 N   0  0  0  0  0  0  0  0  0  0  0  0
   57.8580   28.4300   45.7630 C   0  0  0  0  0  0  0  0  0  0  0  0
   59.2400   28.2310   45.6460 C   0  0  0  0  0  0  0  0  0  0  0  0
   60.1060   29.3250   45.5770 C   0  0  0  0  0  0  0  0  0  0  0  0
   59.5970   30.6250   45.6160 C   0  0  0  0  0  0  0  0  0  0  0  0
   58.2190   30.8460   45.7080 C   0  0  0  0  0  0  0  0  0  0  0  0
   57.7590   32.1730   45.7500 O   0  0  0  0  0  0  0  0  0  0  0  0
   58.5740   33.3330   45.5750 C   0  0  0  0  0  0  0  0  0  0  0  0
   59.5800   33.4510   46.6850 C   0  0  0  0  0  0  0  0  0  0  0  0
   59.1880   33.8150   47.9730 C   0  0  0  0  0  0  0  0  0  0  0  0
   60.1520   33.8970   48.9780 C   0  0  0  0  0  0  0  0  0  0  0  0
   59.7890   34.2130   50.1450 O   0  0  0  0  0  0  0  0  0  0  0  0
   61.4720   33.6350   48.6940 N   0  0  0  0  0  0  0  0  0  0  0  0
   62.4290   33.7100   49.6750 C   0  0  0  0  0  0  0  0  0  0  0  0
   63.7700   33.4450   49.3860 C   0  0  0  0  0  0  0  0  0  0  0  0
   64.9840   33.5430   50.6480 Cl  0  0  0  0  0  0  0  0  0  0  0  0
   64.1380   33.1030   48.0860 C   0  0  0  0  0  0  0  0  0  0  0  0
   63.1680   33.0270   47.0910 C   0  0  0  0  0  0  0  0  0  0  0  0
   61.8320   33.2950   47.4070 C   0  0  0  0  0  0  0  0  0  0  0  0
   60.8920   33.2110   46.4310 N   0  0  0  0  0  0  0  0  0  0  0  0
   57.3490   29.7390   45.7590 C   0  0  0  0  0  0  0  0  0  0  0  0
   56.2600   24.9410   45.2070 C   0  0  0  0  0  0  0  0  0  0  0  0
   56.7260   23.6630   44.8490 C   0  0  0  0  0  0  0  0  0  0  0  0
   55.9080   22.5410   45.0080 C   0  0  0  0  0  0  0  0  0  0  0  0
   54.6140   22.6840   45.5130 C   0  0  0  0  0  0  0  0  0  0  0  0
   54.1310   23.9500   45.8520 C   0  0  0  0  0  0  0  0  0  0  0  0
   54.9410   25.0800   45.6910 C   0  0  0  0  0  0  0  0  0  0  0  0
   54.4150   26.3330   45.9850 O   0  0  0  0  0  0  0  0  0  0  0  0
   56.1580   27.3600   46.4680 H   0  0  0  0  0  0  0  0  0  0  0  0
   59.6448   27.2089   45.6083 H   0  0  0  0  0  0  0  0  0  0  0  0
   61.1906   29.1623   45.4918 H   0  0  0  0  0  0  0  0  0  0  0  0
   60.2854   31.4819   45.5740 H   0  0  0  0  0  0  0  0  0  0  0  0
   59.1043   33.2595   44.6141 H   0  0  0  0  0  0  0  0  0  0  0  0
   57.9279   34.2231   45.5888 H   0  0  0  0  0  0  0  0  0  0  0  0
   58.1329   34.0345   48.1934 H   0  0  0  0  0  0  0  0  0  0  0  0
   62.1369   33.9818   50.7001 H   0  0  0  0  0  0  0  0  0  0  0  0
   65.1912   32.8939   47.8473 H   0  0  0  0  0  0  0  0  0  0  0  0
   63.4502   32.7579   46.0624 H   0  0  0  0  0  0  0  0  0  0  0  0
   56.2617   29.9013   45.7960 H   0  0  0  0  0  0  0  0  0  0  0  0
   57.7409   23.5459   44.4412 H   0  0  0  0  0  0  0  0  0  0  0  0
   56.2840   21.5440   44.7350 H   0  0  0  0  0  0  0  0  0  0  0  0
   53.9744   21.7987   45.6440 H   0  0  0  0  0  0  0  0  0  0  0  0
   53.1102   24.0593   46.2470 H   0  0  0  0  0  0  0  0  0  0  0  0
  1  2  2  0
  2  3  1  0
  3  4  1  0
  4  5  2  0
  5  6  1  0
  6  7  2  0
  7  8  1  0
  8  9  1  0
  9 10  1  0
 10 11  1  0
 11 12  2  0
 12 13  1  0
 13 14  2  0
 13 15  1  0
 15 16  1  0
 16 17  2  0
 17 18  1  0
 17 19  1  0
 19 20  2  0
 20 21  1  0
 21 22  2  0
  8 23  2  0
  2 24  1  0
 24 25  2  0
 25 26  1  0
 26 27  2  0
 27 28  1  0
 28 29  2  0
 29 30  1  0
 23  4  1  0
 29 24  1  0
 22 11  1  0
 21 15  1  0
  3 31  1  0
  5 32  1  0
  6 33  1  0
  7 34  1  0
 10 35  1  0
 10 36  1  0
 12 37  1  0
 16 38  1  0
 19 39  1  0
 20 40  1  0
 23 41  1  0
 25 42  1  0
 26 43  1  0
 27 44  1  0
 28 45  1  0
M  CHG  1  30  -1
M  END
>  <UniqueID>  (38) 
32

>  <SMILES>  (38) 
O=C(Nc1cccc(OCc2cc(=O)n3cc(Cl)ccc3n2)c1)c1ccccc1[O-]

>  <Energy>  (38) 
62.79551038310097

>  <Genealogy>  (38) 
O=C(Nc1cccc(OCc2cc(=O)n3cc(Cl)ccc3n2)c1)c1ccccc1[O-] (protonated)
O=C(Nc1cccc(OCc2cc(=O)n3cc(Cl)ccc3n2)c1)c1ccccc1[O-] (3D coordinates assigned)
O=C(Nc1cccc(OCc2cc(=O)n3cc(Cl)ccc3n2)c1)c1ccccc1[O-] (optimized conformer: 62.79551038310097 kcal/mol)

>  <smiles>  (38) 
O=C(Nc1cccc(OCc2cc(=O)n3cc(Cl)ccc3n2)c1)c1ccccc1O

>  <score_type>  (38) 
oracle

>  <origin>  (38) 
adg

>  <m_score__min__energy>  (38) 
-13.460000000000001

>  <m_primary>  (38) 
energy

$$$$
38:0
     RDKit          3D

 50 53  0  0  0  0  0  0  0  0999 V2000
   59.7155   26.7671   47.1498 H   0  0  0  0  0  0  0  0  0  0  0  0
   58.8520   27.2510   46.6700 C   0  0  0  0  0  0  0  0  0  0  0  0
   57.6770   26.5800   46.5610 N   0  0  0  0  0  0  0  0  0  0  0  0
   56.5750   27.1250   45.9790 C   0  0  0  0  0  0  0  0  0  0  0  0
   55.4880   26.4080   45.9310 N   0  0  0  0  0  0  0  0  0  0  0  0
   55.3380   25.0180   45.6000 C   0  0  0  0  0  0  0  0  0  0  0  0
   54.3610   24.3500   46.0330 O   0  0  0  0  0  0  0  0  0  0  0  0
   56.2870   24.3820   44.6290 C   0  0  0  0  0  0  0  0  0  0  0  0
   55.7301   24.0523   43.7396 H   0  0  0  0  0  0  0  0  0  0  0  0
   57.0527   25.1175   44.3413 H   0  0  0  0  0  0  0  0  0  0  0  0
   56.9480   23.2160   45.2510 N   0  0  0  0  0  0  0  0  0  0  0  0
   58.3680   23.4660   45.5500 C   0  0  0  0  0  0  0  0  0  0  0  0
   58.6794   24.5023   45.3523 H   0  0  0  0  0  0  0  0  0  0  0  0
   58.7177   23.3465   46.5861 H   0  0  0  0  0  0  0  0  0  0  0  0
   58.8510   22.4830   44.5020 C   0  0  0  0  0  0  0  0  0  0  0  0
   59.4135   22.9276   43.6678 H   0  0  0  0  0  0  0  0  0  0  0  0
   59.5578   21.6700   44.7245 H   0  0  0  0  0  0  0  0  0  0  0  0
   57.3780   22.2450   44.2320 C   0  0  0  0  0  0  0  0  0  0  0  0
   57.0718   22.5192   43.2117 H   0  0  0  0  0  0  0  0  0  0  0  0
   56.9913   21.2167   44.2871 H   0  0  0  0  0  0  0  0  0  0  0  0
   56.6470   28.4470   45.4920 C   0  0  0  0  0  0  0  0  0  0  0  0
   55.7580   28.9189   45.0481 H   0  0  0  0  0  0  0  0  0  0  0  0
   57.8530   29.1600   45.5740 C   0  0  0  0  0  0  0  0  0  0  0  0
   57.9060   30.5420   45.0460 C   0  0  0  0  0  0  0  0  0  0  0  0
   57.7440   30.7820   43.6740 C   0  0  0  0  0  0  0  0  0  0  0  0
   57.6029   29.9422   42.9777 H   0  0  0  0  0  0  0  0  0  0  0  0
   57.7630   32.0910   43.1990 C   0  0  0  0  0  0  0  0  0  0  0  0
   57.6387   32.2892   42.1242 H   0  0  0  0  0  0  0  0  0  0  0  0
   57.9400   33.1500   44.0890 C   0  0  0  0  0  0  0  0  0  0  0  0
   57.9569   34.1858   43.7190 H   0  0  0  0  0  0  0  0  0  0  0  0
   58.0960   32.8890   45.4550 C   0  0  0  0  0  0  0  0  0  0  0  0
   58.2710   33.8980   46.2660 N   0  0  0  0  0  0  0  0  0  0  0  0
   58.9120   33.8680   47.5810 C   0  0  0  0  0  0  0  0  0  0  0  0
   58.8072   34.8552   48.0548 H   0  0  0  0  0  0  0  0  0  0  0  0
   58.4238   33.0938   48.1911 H   0  0  0  0  0  0  0  0  0  0  0  0
   60.3760   33.5320   47.4610 C   0  0  0  0  0  0  0  0  0  0  0  0
   61.1820   34.1770   46.5060 C   0  0  0  0  0  0  0  0  0  0  0  0
   60.7441   34.9400   45.8456 H   0  0  0  0  0  0  0  0  0  0  0  0
   62.5370   33.8530   46.3920 C   0  0  0  0  0  0  0  0  0  0  0  0
   63.1636   34.3646   45.6466 H   0  0  0  0  0  0  0  0  0  0  0  0
   63.0960   32.8800   47.2240 C   0  0  0  0  0  0  0  0  0  0  0  0
   64.1632   32.6282   47.1359 H   0  0  0  0  0  0  0  0  0  0  0  0
   62.2990   32.2260   48.1690 C   0  0  0  0  0  0  0  0  0  0  0  0
   62.8420   31.2770   48.9700 F   0  0  0  0  0  0  0  0  0  0  0  0
   60.9440   32.5460   48.2840 C   0  0  0  0  0  0  0  0  0  0  0  0
   60.3189   32.0231   49.0228 H   0  0  0  0  0  0  0  0  0  0  0  0
   58.0620   31.5950   45.9030 N   0  0  0  0  0  0  0  0  0  0  0  0
   58.1630   31.3820   46.9190 H   0  0  0  0  0  0  0  0  0  0  0  0
   58.9710   28.5510   46.1770 C   0  0  0  0  0  0  0  0  0  0  0  0
   60.4960   29.4030   46.4030 Cl  0  0  0  0  0  0  0  0  0  0  0  0
  1  2  1  0
  2  3  1  0
  3  4  1  0
  4  5  2  3
  5  6  1  0
  6  7  2  0
  6  8  1  0
  8  9  1  0
  8 10  1  0
  8 11  1  0
 11 12  1  0
 12 13  1  0
 12 14  1  0
 12 15  1  0
 15 16  1  0
 15 17  1  0
 15 18  1  0
 18 19  1  0
 18 20  1  0
  4 21  1  0
 21 22  1  0
 21 23  2  0
 23 24  1  0
 24 25  2  0
 25 26  1  0
 25 27  1  0
 27 28  1  0
 27 29  2  0
 29 30  1  0
 29 31  1  0
 31 32  2  0
 32 33  1  0
 33 34  1  0
 33 35  1  0
 33 36  1  0
 36 37  2  0
 37 38  1  0
 37 39  1  0
 39 40  1  0
 39 41  2  0
 41 42  1  0
 41 43  1  0
 43 44  1  0
 43 45  2  0
 45 46  1  0
 31 47  1  0
 47 48  1  0
 23 49  1  0
 49 50  1  0
 49  2  2  0
 18 11  1  0
 47 24  1  0
 45 36  1  0
M  CHG  1   3  -1
M  END
>  <UniqueID>  (39) 
33

>  <SMILES>  (39) 
O=C(CN1CCC1)N=c1cc(-c2ccc/c(=N/Cc3cccc(F)c3)[nH]2)c(Cl)c[n-]1

>  <Energy>  (39) 
137.65853825827622

>  <Genealogy>  (39) 
O=C(CN1CCC1)N=c1cc(-c2cccc(=NCc3cccc(F)c3)[nH]2)c(Cl)c[n-]1 (protonated)
O=C(CN1CCC1)N=c1cc(-c2ccc/c(=N/Cc3cccc(F)c3)[nH]2)c(Cl)c[n-]1 (cis-trans isomerization)
O=C(CN1CCC1)N=c1cc(-c2ccc/c(=N/Cc3cccc(F)c3)[nH]2)c(Cl)c[n-]1 (3D coordinates assigned)
O=C(CN1CCC1)N=c1cc(-c2ccc/c(=N/Cc3cccc(F)c3)[nH]2)c(Cl)c[n-]1 (nonaromatic ring conformer: 137.65853825827622 kcal/mol)

>  <smiles>  (39) 
O=C(CN1CCC1)N=c1cc(-c2cccc(=NCc3cccc(F)c3)[nH]2)c(Cl)c[nH]1

>  <score_type>  (39) 
oracle

>  <origin>  (39) 
adg

>  <m_score__min__energy>  (39) 
-10.74

>  <m_primary>  (39) 
energy

$$$$
39:0
     RDKit          3D

 28 29  0  0  0  0  0  0  0  0999 V2000
   56.5730   31.3370   44.6970 O   0  0  0  0  0  0  0  0  0  0  0  0
   57.7260   31.3630   45.2080 C   0  0  0  0  0  0  0  0  0  0  0  0
   58.4670   30.1850   45.3390 O   0  0  0  0  0  0  0  0  0  0  0  0
   58.2210   29.0280   44.5470 C   0  0  0  0  0  0  0  0  0  0  0  0
   57.0480   28.2790   45.1090 C   0  0  0  0  0  0  0  0  0  0  0  0
   55.9120   28.8220   45.0420 O   0  0  0  0  0  0  0  0  0  0  0  0
   57.1890   26.9140   45.6940 C   0  0  0  0  0  0  0  0  0  0  0  0
   58.4640   26.3260   45.8370 C   0  0  0  0  0  0  0  0  0  0  0  0
   58.6020   25.0430   46.3760 C   0  0  0  0  0  0  0  0  0  0  0  0
   57.4760   24.3270   46.7800 C   0  0  0  0  0  0  0  0  0  0  0  0
   57.6180   23.0520   47.3140 O   0  0  0  0  0  0  0  0  0  0  0  0
   56.2070   24.8910   46.6470 C   0  0  0  0  0  0  0  0  0  0  0  0
   56.0560   26.1760   46.1110 C   0  0  0  0  0  0  0  0  0  0  0  0
   54.7740   26.7070   46.0100 O   0  0  0  0  0  0  0  0  0  0  0  0
   58.2900   32.6420   45.6700 C   0  0  0  0  0  0  0  0  0  0  0  0
   58.4900   33.7120   44.7850 C   0  0  0  0  0  0  0  0  0  0  0  0
   59.0160   34.8760   45.2510 N   0  0  0  0  0  0  0  0  0  0  0  0
   59.3530   35.0240   46.5590 C   0  0  0  0  0  0  0  0  0  0  0  0
   59.1560   33.9630   47.4430 C   0  0  0  0  0  0  0  0  0  0  0  0
   58.6300   32.7980   46.9800 N   0  0  0  0  0  0  0  0  0  0  0  0
   58.0013   29.3312   43.5127 H   0  0  0  0  0  0  0  0  0  0  0  0
   59.1098   28.3800   44.5574 H   0  0  0  0  0  0  0  0  0  0  0  0
   59.3586   26.8827   45.5212 H   0  0  0  0  0  0  0  0  0  0  0  0
   59.6021   24.5973   46.4815 H   0  0  0  0  0  0  0  0  0  0  0  0
   55.3201   24.3233   46.9649 H   0  0  0  0  0  0  0  0  0  0  0  0
   58.2234   33.6101   43.7227 H   0  0  0  0  0  0  0  0  0  0  0  0
   59.7778   35.9730   46.9180 H   0  0  0  0  0  0  0  0  0  0  0  0
   59.4237   34.0680   48.5047 H   0  0  0  0  0  0  0  0  0  0  0  0
  1  2  2  0
  2  3  1  0
  3  4  1  0
  4  5  1  0
  5  6  2  0
  5  7  1  0
  7  8  2  0
  8  9  1  0
  9 10  2  0
 10 11  1  0
 10 12  1  0
 12 13  2  0
 13 14  1  0
  2 15  1  0
 15 16  2  0
 16 17  1  0
 17 18  2  0
 18 19  1  0
 19 20  2  0
 13  7  1  0
 20 15  1  0
  4 21  1  0
  4 22  1  0
  8 23  1  0
  9 24  1  0
 12 25  1  0
 16 26  1  0
 18 27  1  0
 19 28  1  0
M  CHG  2  11  -1  14  -1
M  END
>  <UniqueID>  (40) 
34

>  <SMILES>  (40) 
O=C(OCC(=O)c1ccc([O-])cc1[O-])c1cnccn1

>  <Energy>  (40) 
31.0593623866167

>  <Genealogy>  (40) 
O=C(OCC(=O)c1ccc([O-])cc1[O-])c1cnccn1 (protonated)
O=C(OCC(=O)c1ccc([O-])cc1[O-])c1cnccn1 (3D coordinates assigned)
O=C(OCC(=O)c1ccc([O-])cc1[O-])c1cnccn1 (optimized conformer: 31.0593623866167 kcal/mol)

>  <smiles>  (40) 
O=C(OCC(=O)c1ccc(O)cc1O)c1cnccn1

>  <score_type>  (40) 
oracle

>  <origin>  (40) 
adg

>  <m_score__min__energy>  (40) 
-12.85

>  <m_primary>  (40) 
energy

$$$$
40:0
     RDKit          3D

 50 53  0  0  0  0  0  0  0  0999 V2000
   55.5350   29.0600   45.0210 O   0  0  0  0  0  0  0  0  0  0  0  0
   56.7660   29.1370   45.2780 C   0  0  0  0  0  0  0  0  0  0  0  0
   57.3740   28.2070   46.2790 C   0  0  0  0  0  0  0  0  0  0  0  0
   57.1970   26.8210   45.8480 N   0  0  0  0  0  0  0  0  0  0  0  0
   58.1720   25.9310   45.5570 C   0  0  0  0  0  0  0  0  0  0  0  0
   59.5310   26.2250   45.5710 O   0  0  0  0  0  0  0  0  0  0  0  0
   57.6230   24.7010   45.2560 C   0  0  0  0  0  0  0  0  0  0  0  0
   56.2640   24.8370   45.3790 C   0  0  0  0  0  0  0  0  0  0  0  0
   56.0310   26.1470   45.7490 C   0  0  0  0  0  0  0  0  0  0  0  0
   54.7820   26.7050   45.9960 O   0  0  0  0  0  0  0  0  0  0  0  0
   55.2850   23.7320   45.1420 C   0  0  0  0  0  0  0  0  0  0  0  0
   55.9820   22.4250   44.8190 C   0  0  0  0  0  0  0  0  0  0  0  0
   57.3220   22.2910   44.6960 C   0  0  0  0  0  0  0  0  0  0  0  0
   58.3090   23.4290   44.8700 C   0  0  0  0  0  0  0  0  0  0  0  0
   57.5810   30.1480   44.6730 N   0  0  0  0  0  0  0  0  0  0  0  0
   57.9090   31.4260   45.2350 C   0  0  0  0  0  0  0  0  0  0  0  0
   57.3110   32.5710   44.6950 C   0  0  0  0  0  0  0  0  0  0  0  0
   57.5970   33.8340   45.2220 C   0  0  0  0  0  0  0  0  0  0  0  0
   58.4670   33.9600   46.3080 C   0  0  0  0  0  0  0  0  0  0  0  0
   59.0500   32.8190   46.8770 C   0  0  0  0  0  0  0  0  0  0  0  0
   60.1230   32.9560   48.2680 S   0  0  0  0  0  0  0  0  0  0  0  0
   59.3400   33.3630   49.4850 O   0  0  0  0  0  0  0  0  0  0  0  0
   60.7350   31.6070   48.5190 O   0  0  0  0  0  0  0  0  0  0  0  0
   61.3920   34.1210   47.9450 N   0  0  0  0  0  0  0  0  0  0  0  0
   62.3480   34.2190   49.0620 C   0  0  0  0  0  0  0  0  0  0  0  0
   63.3020   33.0010   49.1300 C   0  0  0  0  0  0  0  0  0  0  0  0
   63.3650   32.2590   47.9230 O   0  0  0  0  0  0  0  0  0  0  0  0
   63.4100   33.1310   46.8170 C   0  0  0  0  0  0  0  0  0  0  0  0
   62.0630   33.8580   46.6510 C   0  0  0  0  0  0  0  0  0  0  0  0
   58.7650   31.5540   46.3450 C   0  0  0  0  0  0  0  0  0  0  0  0
   58.4482   28.4247   46.3727 H   0  0  0  0  0  0  0  0  0  0  0  0
   56.8778   28.3486   47.2505 H   0  0  0  0  0  0  0  0  0  0  0  0
   54.6746   23.5963   46.0470 H   0  0  0  0  0  0  0  0  0  0  0  0
   54.6580   24.0081   44.2814 H   0  0  0  0  0  0  0  0  0  0  0  0
   55.3589   21.5299   44.6758 H   0  0  0  0  0  0  0  0  0  0  0  0
   57.7208   21.2946   44.4547 H   0  0  0  0  0  0  0  0  0  0  0  0
   59.0292   23.1593   45.6565 H   0  0  0  0  0  0  0  0  0  0  0  0
   58.8183   23.5917   43.9087 H   0  0  0  0  0  0  0  0  0  0  0  0
   56.6119   32.4763   43.8510 H   0  0  0  0  0  0  0  0  0  0  0  0
   57.1362   34.7301   44.7808 H   0  0  0  0  0  0  0  0  0  0  0  0
   58.6947   34.9554   46.7170 H   0  0  0  0  0  0  0  0  0  0  0  0
   62.9486   35.1316   48.9341 H   0  0  0  0  0  0  0  0  0  0  0  0
   61.7698   34.2453   49.9974 H   0  0  0  0  0  0  0  0  0  0  0  0
   64.3127   33.3642   49.3677 H   0  0  0  0  0  0  0  0  0  0  0  0
   62.9067   32.3254   49.9028 H   0  0  0  0  0  0  0  0  0  0  0  0
   64.2059   33.8740   46.9735 H   0  0  0  0  0  0  0  0  0  0  0  0
   63.6132   32.5448   45.9087 H   0  0  0  0  0  0  0  0  0  0  0  0
   62.2415   34.8186   46.1456 H   0  0  0  0  0  0  0  0  0  0  0  0
   61.4032   33.2045   46.0614 H   0  0  0  0  0  0  0  0  0  0  0  0
   59.2126   30.6567   46.7972 H   0  0  0  0  0  0  0  0  0  0  0  0
  1  2  2  0
  2  3  1  0
  3  4  1  0
  4  5  1  0
  5  6  1  0
  5  7  2  0
  7  8  1  0
  8  9  2  0
  9 10  1  0
  8 11  1  0
 11 12  1  0
 12 13  2  0
 13 14  1  0
  2 15  1  0
 15 16  1  0
 16 17  2  0
 17 18  1  0
 18 19  2  0
 19 20  1  0
 20 21  1  0
 21 22  2  0
 21 23  2  0
 21 24  1  0
 24 25  1  0
 25 26  1  0
 26 27  1  0
 27 28  1  0
 28 29  1  0
 20 30  2  0
  9  4  1  0
 30 16  1  0
 14  7  1  0
 29 24  1  0
  3 31  1  0
  3 32  1  0
 11 33  1  0
 11 34  1  0
 12 35  1  0
 13 36  1  0
 14 37  1  0
 14 38  1  0
 17 39  1  0
 18 40  1  0
 19 41  1  0
 25 42  1  0
 25 43  1  0
 26 44  1  0
 26 45  1  0
 28 46  1  0
 28 47  1  0
 29 48  1  0
 29 49  1  0
 30 50  1  0
M  CHG  3   6  -1  10  -1  15  -1
M  END
>  <UniqueID>  (41) 
35

>  <SMILES>  (41) 
O=C(Cn1c([O-])c2c(c1[O-])CC=CC2)[N-]c1cccc(S(=O)(=O)N2CCOCC2)c1

>  <Energy>  (41) 
97.57795556028452

>  <Genealogy>  (41) 
O=C(Cn1c([O-])c2c(c1[O-])CC=CC2)[N-]c1cccc(S(=O)(=O)N2CCOCC2)c1 (protonated)
O=C(Cn1c([O-])c2c(c1[O-])CC=CC2)[N-]c1cccc(S(=O)(=O)N2CCOCC2)c1 (3D coordinates assigned)
O=C(Cn1c([O-])c2c(c1[O-])CC=CC2)[N-]c1cccc(S(=O)(=O)N2CCOCC2)c1 (nonaromatic ring conformer: 97.57795556028452 kcal/mol)

>  <smiles>  (41) 
O=C(Cn1c(O)c2c(c1O)CC=CC2)Nc1cccc(S(=O)(=O)N2CCOCC2)c1

>  <score_type>  (41) 
oracle

>  <origin>  (41) 
adg

>  <m_score__min__energy>  (41) 
-15.32

>  <m_primary>  (41) 
energy

$$$$
41:0
     RDKit          3D

 65 69  0  0  0  0  0  0  0  0999 V2000
   55.6610   29.9910   44.8110 O   0  0  0  0  0  0  0  0  0  0  0  0
   56.8780   29.6880   44.9370 C   0  0  0  0  0  0  0  0  0  0  0  0
   57.8660   30.5880   44.4170 N   0  0  0  0  0  0  0  0  0  0  0  0
   58.1260   31.9080   44.9120 C   0  0  0  0  0  0  0  0  0  0  0  0
   58.0440   33.0110   44.0420 C   0  0  0  0  0  0  0  0  0  0  0  0
   58.3030   34.3180   44.5120 C   0  0  0  0  0  0  0  0  0  0  0  0
   58.6200   34.5430   45.8630 C   0  0  0  0  0  0  0  0  0  0  0  0
   58.6620   33.4410   46.7150 C   0  0  0  0  0  0  0  0  0  0  0  0
   58.8780   33.4520   48.0410 N   0  0  0  0  0  0  0  0  0  0  0  0
   58.7680   32.1640   48.4310 C   0  0  0  0  0  0  0  0  0  0  0  0
   58.9560   31.6180   50.0880 S   0  0  0  0  0  0  0  0  0  0  0  0
   59.5600   30.2420   50.1280 O   0  0  0  0  0  0  0  0  0  0  0  0
   59.8680   32.5690   50.8080 O   0  0  0  0  0  0  0  0  0  0  0  0
   57.4060   31.6010   50.8660 N   0  0  0  0  0  0  0  0  0  0  0  0
   57.1200   30.8130   52.0330 C   0  0  0  0  0  0  0  0  0  0  0  0
   56.1750   31.2250   52.9890 C   0  0  0  0  0  0  0  0  0  0  0  0
   55.9160   30.4370   54.1110 C   0  0  0  0  0  0  0  0  0  0  0  0
   56.5880   29.2200   54.3000 C   0  0  0  0  0  0  0  0  0  0  0  0
   56.3400   28.4160   55.5490 C   0  0  0  0  0  0  0  0  0  0  0  0
   54.9660   27.9010   55.5440 N   0  0  0  0  0  0  0  0  0  0  0  0
   54.7490   26.8980   54.4860 C   0  0  0  0  0  0  0  0  0  0  0  0
   53.6570   27.2980   53.4810 C   0  0  0  0  0  0  0  0  0  0  0  0
   53.0720   28.5580   53.8210 O   0  0  0  0  0  0  0  0  0  0  0  0
   52.8010   29.6250   52.9460 C   0  0  0  0  0  0  0  0  0  0  0  0
   53.4520   29.8010   51.7060 C   0  0  0  0  0  0  0  0  0  0  0  0
   53.1220   30.8870   50.8870 C   0  0  0  0  0  0  0  0  0  0  0  0
   52.1470   31.8040   51.2920 C   0  0  0  0  0  0  0  0  0  0  0  0
   51.5040   31.6410   52.5220 C   0  0  0  0  0  0  0  0  0  0  0  0
   51.8350   30.5580   53.3450 C   0  0  0  0  0  0  0  0  0  0  0  0
   57.5340   28.8060   53.3470 C   0  0  0  0  0  0  0  0  0  0  0  0
   58.2180   27.6450   53.5090 F   0  0  0  0  0  0  0  0  0  0  0  0
   57.7900   29.5950   52.2220 C   0  0  0  0  0  0  0  0  0  0  0  0
   58.4840   31.3290   47.3580 C   0  0  0  0  0  0  0  0  0  0  0  0
   58.4240   32.1660   46.2600 C   0  0  0  0  0  0  0  0  0  0  0  0
   57.2550   28.3990   45.5610 C   0  0  0  0  0  0  0  0  0  0  0  0
   58.5450   28.1990   46.0820 C   0  0  0  0  0  0  0  0  0  0  0  0
   58.8560   26.9890   46.7020 C   0  0  0  0  0  0  0  0  0  0  0  0
   57.8870   25.9920   46.8050 C   0  0  0  0  0  0  0  0  0  0  0  0
   56.6180   26.2150   46.2680 C   0  0  0  0  0  0  0  0  0  0  0  0
   56.3320   27.4020   45.6700 N   0  0  0  0  0  0  0  0  0  0  0  0
   57.7759   32.8543   42.9867 H   0  0  0  0  0  0  0  0  0  0  0  0
   58.2562   35.1673   43.8145 H   0  0  0  0  0  0  0  0  0  0  0  0
   58.8283   35.5567   46.2358 H   0  0  0  0  0  0  0  0  0  0  0  0
   59.0750   34.2820   48.6440 H   0  0  0  0  0  0  0  0  0  0  0  0
   56.6180   32.0630   50.3600 H   0  0  0  0  0  0  0  0  0  0  0  0
   55.6366   32.1743   52.8516 H   0  0  0  0  0  0  0  0  0  0  0  0
   55.1781   30.7731   54.8543 H   0  0  0  0  0  0  0  0  0  0  0  0
   57.0458   27.5731   55.5869 H   0  0  0  0  0  0  0  0  0  0  0  0
   56.4835   29.0594   56.4296 H   0  0  0  0  0  0  0  0  0  0  0  0
   54.2940   28.6950   55.4450 H   0  0  0  0  0  0  0  0  0  0  0  0
   55.6928   26.7588   53.9385 H   0  0  0  0  0  0  0  0  0  0  0  0
   54.4142   25.9733   54.9787 H   0  0  0  0  0  0  0  0  0  0  0  0
   54.1025   27.3692   52.4778 H   0  0  0  0  0  0  0  0  0  0  0  0
   52.8678   26.5321   53.5038 H   0  0  0  0  0  0  0  0  0  0  0  0
   54.2202   29.0832   51.3827 H   0  0  0  0  0  0  0  0  0  0  0  0
   53.6315   31.0197   49.9212 H   0  0  0  0  0  0  0  0  0  0  0  0
   51.8864   32.6530   50.6429 H   0  0  0  0  0  0  0  0  0  0  0  0
   50.7386   32.3629   52.8431 H   0  0  0  0  0  0  0  0  0  0  0  0
   51.3312   30.4383   54.3155 H   0  0  0  0  0  0  0  0  0  0  0  0
   58.5250   29.2572   51.4766 H   0  0  0  0  0  0  0  0  0  0  0  0
   58.3385   30.2388   47.3779 H   0  0  0  0  0  0  0  0  0  0  0  0
   59.3039   28.9912   46.0013 H   0  0  0  0  0  0  0  0  0  0  0  0
   59.8641   26.8216   47.1090 H   0  0  0  0  0  0  0  0  0  0  0  0
   58.1200   25.0398   47.3041 H   0  0  0  0  0  0  0  0  0  0  0  0
   55.8494   25.4304   46.3287 H   0  0  0  0  0  0  0  0  0  0  0  0
  1  2  2  0
  2  3  1  0
  3  4  1  0
  4  5  2  0
  5  6  1  0
  6  7  2  0
  7  8  1  0
  8  9  1  0
  9 10  1  0
 10 11  1  0
 11 12  2  0
 11 13  2  0
 11 14  1  0
 14 15  1  0
 15 16  2  0
 16 17  1  0
 17 18  2  0
 18 19  1  0
 19 20  1  0
 20 21  1  0
 21 22  1  0
 22 23  1  0
 23 24  1  0
 24 25  2  0
 25 26  1  0
 26 27  2  0
 27 28  1  0
 28 29  2  0
 18 30  1  0
 30 31  1  0
 30 32  2  0
 10 33  2  0
 33 34  1  0
  2 35  1  0
 35 36  2  0
 36 37  1  0
 37 38  2  0
 38 39  1  0
 39 40  2  0
 34  4  1  0
 40 35  1  0
 34  8  2  0
 32 15  1  0
 29 24  1  0
  5 41  1  0
  6 42  1  0
  7 43  1  0
  9 44  1  0
 14 45  1  0
 16 46  1  0
 17 47  1  0
 19 48  1  0
 19 49  1  0
 20 50  1  0
 21 51  1  0
 21 52  1  0
 22 53  1  0
 22 54  1  0
 25 55  1  0
 26 56  1  0
 27 57  1  0
 28 58  1  0
 29 59  1  0
 32 60  1  0
 33 61  1  0
 36 62  1  0
 37 63  1  0
 38 64  1  0
 39 65  1  0
M  CHG  1   3  -1
M  END
>  <UniqueID>  (42) 
36

>  <SMILES>  (42) 
O=C([N-]c1cccc2[nH]c(S(=O)(=O)Nc3ccc(CNCCOc4ccccc4)c(F)c3)cc12)c1ccccn1

>  <Energy>  (42) 
109.72369926957438

>  <Genealogy>  (42) 
O=C([N-]c1cccc2[nH]c(S(=O)(=O)Nc3ccc(CNCCOc4ccccc4)c(F)c3)cc12)c1ccccn1 (protonated)
O=C([N-]c1cccc2[nH]c(S(=O)(=O)Nc3ccc(CNCCOc4ccccc4)c(F)c3)cc12)c1ccccn1 (3D coordinates assigned)
O=C([N-]c1cccc2[nH]c(S(=O)(=O)Nc3ccc(CNCCOc4ccccc4)c(F)c3)cc12)c1ccccn1 (optimized conformer: 109.72369926957438 kcal/mol)

>  <smiles>  (42) 
O=C(Nc1cccc2[nH]c(S(=O)(=O)Nc3ccc(CNCCOc4ccccc4)c(F)c3)cc12)c1ccccn1

>  <score_type>  (42) 
oracle

>  <origin>  (42) 
adg

>  <m_score__min__energy>  (42) 
-11.99

>  <m_primary>  (42) 
energy

$$$$
42:0
     RDKit          3D

 44 45  0  0  0  0  0  0  0  0999 V2000
   56.2540   20.9340   44.3830 C   0  0  0  0  0  0  0  0  0  0  0  0
   57.7790   21.3220   44.4180 C   0  0  0  0  0  0  0  0  0  0  0  0
   58.1050   21.9020   45.6630 O   0  0  0  0  0  0  0  0  0  0  0  0
   59.2620   22.6730   45.5960 C   0  0  0  0  0  0  0  0  0  0  0  0
   60.3680   21.8480   45.1780 O   0  0  0  0  0  0  0  0  0  0  0  0
   59.3000   24.2440   46.0370 N   0  0  0  0  0  0  0  0  0  0  0  0
   59.7830   25.6850   46.2750 C   0  0  0  0  0  0  0  0  0  0  0  0
   61.0110   26.4020   46.0930 O   0  0  0  0  0  0  0  0  0  0  0  0
   58.8390   26.4680   46.8320 N   0  0  0  0  0  0  0  0  0  0  0  0
   59.1720   27.8030   47.0320 C   0  0  0  0  0  0  0  0  0  0  0  0
   59.8160   28.0940   48.2650 C   0  0  0  0  0  0  0  0  0  0  0  0
   60.0090   29.3990   48.6710 C   0  0  0  0  0  0  0  0  0  0  0  0
   59.4700   30.4250   47.9110 C   0  0  0  0  0  0  0  0  0  0  0  0
   58.7150   30.1530   46.8040 C   0  0  0  0  0  0  0  0  0  0  0  0
   58.4760   28.8410   46.3490 C   0  0  0  0  0  0  0  0  0  0  0  0
   57.6400   28.6320   45.0770 C   0  0  2  0  0  0  0  0  0  0  0  0
   58.4900   28.8440   43.9550 O   0  0  0  0  0  0  0  0  0  0  0  0
   56.5610   29.6760   44.8830 C   0  0  0  0  0  0  0  0  0  0  0  0
   55.1580   29.4230   44.8430 N   0  0  0  0  0  0  0  0  0  0  0  0
   56.9280   30.8860   44.7280 O   0  0  0  0  0  0  0  0  0  0  0  0
   57.1830   27.1930   44.9400 C   0  0  0  0  0  0  0  0  0  0  0  0
   57.7490   26.3000   44.0130 C   0  0  0  0  0  0  0  0  0  0  0  0
   57.3610   24.9710   43.9940 C   0  0  0  0  0  0  0  0  0  0  0  0
   56.4120   24.4950   44.9000 C   0  0  0  0  0  0  0  0  0  0  0  0
   55.8510   25.3660   45.8250 C   0  0  0  0  0  0  0  0  0  0  0  0
   56.2220   26.6970   45.8390 C   0  0  0  0  0  0  0  0  0  0  0  0
   55.8764   20.8379   45.4117 H   0  0  0  0  0  0  0  0  0  0  0  0
   55.6885   21.7169   43.8564 H   0  0  0  0  0  0  0  0  0  0  0  0
   56.1314   19.9760   43.8564 H   0  0  0  0  0  0  0  0  0  0  0  0
   58.3876   20.4182   44.2675 H   0  0  0  0  0  0  0  0  0  0  0  0
   57.9833   22.0491   43.6183 H   0  0  0  0  0  0  0  0  0  0  0  0
   59.6470   23.5760   45.6060 H   0  0  0  0  0  0  0  0  0  0  0  0
   57.7800   26.1870   47.0480 H   0  0  0  0  0  0  0  0  0  0  0  0
   60.1649   27.2691   48.9036 H   0  0  0  0  0  0  0  0  0  0  0  0
   60.5817   29.6212   49.5835 H   0  0  0  0  0  0  0  0  0  0  0  0
   59.6517   31.4702   48.2017 H   0  0  0  0  0  0  0  0  0  0  0  0
   58.2761   30.9930   46.2456 H   0  0  0  0  0  0  0  0  0  0  0  0
   58.1860   29.6150   43.4420 H   0  0  0  0  0  0  0  0  0  0  0  0
   54.6590   29.3440   45.7600 H   0  0  0  0  0  0  0  0  0  0  0  0
   58.5044   26.6593   43.2987 H   0  0  0  0  0  0  0  0  0  0  0  0
   57.8047   24.2841   43.2582 H   0  0  0  0  0  0  0  0  0  0  0  0
   56.1105   23.4373   44.8816 H   0  0  0  0  0  0  0  0  0  0  0  0
   55.1096   24.9954   46.5482 H   0  0  0  0  0  0  0  0  0  0  0  0
   55.7578   27.3801   46.5656 H   0  0  0  0  0  0  0  0  0  0  0  0
  1  2  1  0
  2  3  1  0
  3  4  1  0
  4  5  2  0
  4  6  1  0
  6  7  1  0
  7  8  2  0
  7  9  1  0
  9 10  1  0
 10 11  2  0
 11 12  1  0
 12 13  2  0
 13 14  1  0
 14 15  2  0
 15 16  1  0
 16 17  1  6
 16 18  1  0
 18 19  1  0
 18 20  2  0
 16 21  1  0
 21 22  2  0
 22 23  1  0
 23 24  2  0
 24 25  1  0
 25 26  2  0
 15 10  1  0
 26 21  1  0
  1 27  1  0
  1 28  1  0
  1 29  1  0
  2 30  1  0
  2 31  1  0
  6 32  1  0
  9 33  1  0
 11 34  1  0
 12 35  1  0
 13 36  1  0
 14 37  1  0
 17 38  1  0
 19 39  1  0
 22 40  1  0
 23 41  1  0
 24 42  1  0
 25 43  1  0
 26 44  1  0
M  CHG  1  19  -1
M  END
>  <UniqueID>  (43) 
37

>  <SMILES>  (43) 
CCOC(=O)NC(=O)Nc1ccccc1[C@](O)(C([NH-])=O)c1ccccc1

>  <Energy>  (43) 
330.83579937772754

>  <Genealogy>  (43) 
CCOC(=O)NC(=O)Nc1ccccc1C(O)(C([NH-])=O)c1ccccc1 (protonated)
CCOC(=O)NC(=O)Nc1ccccc1[C@](O)(C([NH-])=O)c1ccccc1 (chirality)
CCOC(=O)NC(=O)Nc1ccccc1[C@](O)(C([NH-])=O)c1ccccc1 (3D coordinates assigned)
CCOC(=O)NC(=O)Nc1ccccc1[C@](O)(C([NH-])=O)c1ccccc1 (optimized conformer: 330.83579937772754 kcal/mol)

>  <smiles>  (43) 
CCOC(=O)NC(=O)Nc1ccccc1C(O)(C(N)=O)c1ccccc1

>  <score_type>  (43) 
oracle

>  <origin>  (43) 
adg

>  <m_score__min__energy>  (43) 
-9.6300000000000008

>  <m_primary>  (43) 
energy

$$$$
43:0
     RDKit          3D

 46 48  0  0  0  0  0  0  0  0999 V2000
   57.8450   33.7250   46.4810 O   0  0  0  0  0  0  0  0  0  0  0  0
   58.0780   32.5690   46.9320 C   0  0  0  0  0  0  0  0  0  0  0  0
   58.4860   32.4060   48.3600 C   0  0  0  0  0  0  0  0  0  0  0  0
   58.6580   30.9840   48.6450 N   0  0  0  0  0  0  0  0  0  0  0  0
   60.2250   30.7080   49.3410 S   0  0  0  0  0  0  0  0  0  0  0  0
   60.7080   29.3340   48.9620 O   0  0  0  0  0  0  0  0  0  0  0  0
   60.1280   30.7950   50.8360 O   0  0  0  0  0  0  0  0  0  0  0  0
   61.3430   31.9380   48.7600 C   0  0  0  0  0  0  0  0  0  0  0  0
   61.4220   33.1910   49.3860 C   0  0  0  0  0  0  0  0  0  0  0  0
   62.3460   34.1420   48.9390 C   0  0  0  0  0  0  0  0  0  0  0  0
   63.1910   33.8470   47.8660 C   0  0  0  0  0  0  0  0  0  0  0  0
   63.1130   32.5990   47.2370 C   0  0  0  0  0  0  0  0  0  0  0  0
   62.1910   31.6470   47.6830 C   0  0  0  0  0  0  0  0  0  0  0  0
   57.9690   31.4170   46.0830 N   0  0  0  0  0  0  0  0  0  0  0  0
   57.7390   31.5140   44.6700 C   0  0  0  0  0  0  0  0  0  0  0  0
   58.3660   32.5450   43.9540 C   0  0  0  0  0  0  0  0  0  0  0  0
   58.1710   32.6690   42.5760 C   0  0  0  0  0  0  0  0  0  0  0  0
   57.3300   31.7800   41.9070 C   0  0  0  0  0  0  0  0  0  0  0  0
   56.6780   30.7660   42.6120 C   0  0  0  0  0  0  0  0  0  0  0  0
   56.8790   30.6160   43.9950 C   0  0  0  0  0  0  0  0  0  0  0  0
   56.1020   29.5960   44.7330 C   0  0  0  0  0  0  0  0  0  0  0  0
   54.9070   29.3770   44.3990 O   0  0  0  0  0  0  0  0  0  0  0  0
   56.6570   28.8660   45.8340 N   0  0  0  0  0  0  0  0  0  0  0  0
   57.6290   27.7870   45.7080 C   0  0  0  0  0  0  0  0  0  0  0  0
   58.9990   28.3670   45.5770 C   0  0  0  0  0  0  0  0  0  0  0  0
   59.8370   28.2240   44.4890 C   0  0  0  0  0  0  0  0  0  0  0  0
   60.9760   28.9340   44.8050 C   0  0  0  0  0  0  0  0  0  0  0  0
   60.7620   29.4620   46.0620 C   0  0  0  0  0  0  0  0  0  0  0  0
   59.5730   29.1080   46.4950 O   0  0  0  0  0  0  0  0  0  0  0  0
   59.4345   32.9348   48.5354 H   0  0  0  0  0  0  0  0  0  0  0  0
   57.7117   32.8264   49.0185 H   0  0  0  0  0  0  0  0  0  0  0  0
   60.7565   33.4263   50.2296 H   0  0  0  0  0  0  0  0  0  0  0  0
   62.4072   35.1230   49.4329 H   0  0  0  0  0  0  0  0  0  0  0  0
   63.9173   34.5952   47.5157 H   0  0  0  0  0  0  0  0  0  0  0  0
   63.7773   32.3670   46.3915 H   0  0  0  0  0  0  0  0  0  0  0  0
   62.1312   30.6670   47.1871 H   0  0  0  0  0  0  0  0  0  0  0  0
   57.9130   30.4730   46.5280 H   0  0  0  0  0  0  0  0  0  0  0  0
   59.0150   33.2600   44.4808 H   0  0  0  0  0  0  0  0  0  0  0  0
   58.6811   33.4683   42.0184 H   0  0  0  0  0  0  0  0  0  0  0  0
   57.1799   31.8777   40.8217 H   0  0  0  0  0  0  0  0  0  0  0  0
   56.0021   30.0796   42.0810 H   0  0  0  0  0  0  0  0  0  0  0  0
   57.5851   27.1472   46.6017 H   0  0  0  0  0  0  0  0  0  0  0  0
   57.3975   27.1858   44.8164 H   0  0  0  0  0  0  0  0  0  0  0  0
   59.6379   27.6619   43.5646 H   0  0  0  0  0  0  0  0  0  0  0  0
   61.8739   29.0551   44.1812 H   0  0  0  0  0  0  0  0  0  0  0  0
   61.4785   30.0850   46.6174 H   0  0  0  0  0  0  0  0  0  0  0  0
  1  2  2  0
  2  3  1  0
  3  4  1  0
  4  5  1  0
  5  6  2  0
  5  7  2  0
  5  8  1  0
  8  9  2  0
  9 10  1  0
 10 11  2  0
 11 12  1  0
 12 13  2  0
  2 14  1  0
 14 15  1  0
 15 16  2  0
 16 17  1  0
 17 18  2  0
 18 19  1  0
 19 20  2  0
 20 21  1  0
 21 22  2  0
 21 23  1  0
 23 24  1  0
 24 25  1  0
 25 26  2  0
 26 27  1  0
 27 28  2  0
 28 29  1  0
 13  8  1  0
 20 15  1  0
 29 25  1  0
  3 30  1  0
  3 31  1  0
  9 32  1  0
 10 33  1  0
 11 34  1  0
 12 35  1  0
 13 36  1  0
 14 37  1  0
 16 38  1  0
 17 39  1  0
 18 40  1  0
 19 41  1  0
 24 42  1  0
 24 43  1  0
 26 44  1  0
 27 45  1  0
 28 46  1  0
M  CHG  2   4  -1  23  -1
M  END
>  <UniqueID>  (44) 
38

>  <SMILES>  (44) 
O=C(C[N-]S(=O)(=O)c1ccccc1)Nc1ccccc1C(=O)[N-]Cc1ccco1

>  <Energy>  (44) 
79.1655132997956

>  <Genealogy>  (44) 
O=C(C[N-]S(=O)(=O)c1ccccc1)Nc1ccccc1C(=O)[N-]Cc1ccco1 (protonated)
O=C(C[N-]S(=O)(=O)c1ccccc1)Nc1ccccc1C(=O)[N-]Cc1ccco1 (3D coordinates assigned)
O=C(C[N-]S(=O)(=O)c1ccccc1)Nc1ccccc1C(=O)[N-]Cc1ccco1 (optimized conformer: 79.1655132997956 kcal/mol)

>  <smiles>  (44) 
O=C(CNS(=O)(=O)c1ccccc1)Nc1ccccc1C(=O)NCc1ccco1

>  <score_type>  (44) 
oracle

>  <origin>  (44) 
adg

>  <m_score__min__energy>  (44) 
-13.1

>  <m_primary>  (44) 
energy

$$$$
44:0
     RDKit          3D

 51 53  0  0  0  0  0  0  0  0999 V2000
   55.1290   27.1110   46.3740 H   0  0  0  0  0  0  0  0  0  0  0  0
   54.5690   26.3330   45.9580 N   0  0  0  0  0  0  0  0  0  0  0  0
   55.6570   25.0160   45.6920 S   0  0  0  0  0  0  0  0  0  0  0  0
   55.3820   23.9360   46.7010 O   0  0  0  0  0  0  0  0  0  0  0  0
   55.4440   24.4560   44.3130 O   0  0  0  0  0  0  0  0  0  0  0  0
   57.3170   25.5830   45.8470 C   0  0  0  0  0  0  0  0  0  0  0  0
   58.3560   24.6560   45.9920 C   0  0  0  0  0  0  0  0  0  0  0  0
   58.1318   23.5793   46.0130 H   0  0  0  0  0  0  0  0  0  0  0  0
   59.6760   25.0950   46.1100 C   0  0  0  0  0  0  0  0  0  0  0  0
   60.4885   24.3636   46.2316 H   0  0  0  0  0  0  0  0  0  0  0  0
   59.9680   26.4620   46.0740 C   0  0  0  0  0  0  0  0  0  0  0  0
   61.0094   26.8016   46.1746 H   0  0  0  0  0  0  0  0  0  0  0  0
   58.9380   27.4050   45.9100 C   0  0  0  0  0  0  0  0  0  0  0  0
   59.2260   28.8590   45.8880 C   0  0  0  0  0  0  0  0  0  0  0  0
   60.4270   29.2400   45.8990 O   0  0  0  0  0  0  0  0  0  0  0  0
   58.1600   29.8270   45.8360 N   0  0  0  0  0  0  0  0  0  0  0  0
   57.1760   29.4880   45.7620 H   0  0  0  0  0  0  0  0  0  0  0  0
   58.3600   31.2500   45.8100 C   0  0  0  0  0  0  0  0  0  0  0  0
   57.5280   32.0990   45.0580 C   0  0  0  0  0  0  0  0  0  0  0  0
   56.6876   31.6768   44.4875 H   0  0  0  0  0  0  0  0  0  0  0  0
   57.7640   33.4770   45.0320 C   0  0  0  0  0  0  0  0  0  0  0  0
   57.1000   34.1369   44.4543 H   0  0  0  0  0  0  0  0  0  0  0  0
   58.8410   34.0170   45.7380 C   0  0  0  0  0  0  0  0  0  0  0  0
   59.0178   35.1026   45.7234 H   0  0  0  0  0  0  0  0  0  0  0  0
   59.6970   33.1790   46.4650 C   0  0  0  0  0  0  0  0  0  0  0  0
   61.0830   33.8380   47.3270 S   0  0  0  0  0  0  0  0  0  0  0  0
   62.1200   34.3510   46.3660 O   0  0  0  0  0  0  0  0  0  0  0  0
   60.6140   34.9820   48.1810 O   0  0  0  0  0  0  0  0  0  0  0  0
   61.7870   32.6220   48.3500 N   0  0  0  0  0  0  0  0  0  0  0  0
   61.1840   31.9550   49.2940 C   0  0  0  0  0  0  0  0  0  0  0  0
   60.1140   32.6290   49.9840 N   0  0  0  0  0  0  0  0  0  0  0  0
   60.0410   33.6650   49.8710 H   0  0  0  0  0  0  0  0  0  0  0  0
   58.9610   31.9460   50.5590 C   0  0  0  0  0  0  0  0  0  0  0  0
   58.0967   32.6263   50.5441 H   0  0  0  0  0  0  0  0  0  0  0  0
   59.2074   31.6547   51.5907 H   0  0  0  0  0  0  0  0  0  0  0  0
   58.6150   30.6810   49.7670 C   0  0  0  0  0  0  0  0  0  0  0  0
   58.7985   30.8774   48.7003 H   0  0  0  0  0  0  0  0  0  0  0  0
   57.5599   30.4491   49.9741 H   0  0  0  0  0  0  0  0  0  0  0  0
   59.4370   29.4510   50.1830 C   0  0  0  0  0  0  0  0  0  0  0  0
   58.8530   28.5454   49.9619 H   0  0  0  0  0  0  0  0  0  0  0  0
   59.6525   29.5415   51.2579 H   0  0  0  0  0  0  0  0  0  0  0  0
   60.7790   29.3630   49.4450 C   0  0  0  0  0  0  0  0  0  0  0  0
   60.5814   29.2982   48.3648 H   0  0  0  0  0  0  0  0  0  0  0  0
   61.3032   28.4720   49.8208 H   0  0  0  0  0  0  0  0  0  0  0  0
   61.6890   30.5760   49.7050 C   0  0  0  0  0  0  0  0  0  0  0  0
   62.6310   30.3991   49.1652 H   0  0  0  0  0  0  0  0  0  0  0  0
   61.7672   30.6291   50.8009 H   0  0  0  0  0  0  0  0  0  0  0  0
   59.4560   31.7990   46.4940 C   0  0  0  0  0  0  0  0  0  0  0  0
   60.1320   31.1396   47.0581 H   0  0  0  0  0  0  0  0  0  0  0  0
   57.6090   26.9540   45.8040 C   0  0  0  0  0  0  0  0  0  0  0  0
   56.7931   27.6824   45.6865 H   0  0  0  0  0  0  0  0  0  0  0  0
  1  2  1  0
  2  3  1  0
  3  4  2  0
  3  5  2  0
  3  6  1  0
  6  7  2  0
  7  8  1  0
  7  9  1  0
  9 10  1  0
  9 11  2  0
 11 12  1  0
 11 13  1  0
 13 14  1  0
 14 15  2  0
 14 16  1  0
 16 17  1  0
 16 18  1  0
 18 19  2  0
 19 20  1  0
 19 21  1  0
 21 22  1  0
 21 23  2  0
 23 24  1  0
 23 25  1  0
 25 26  1  0
 26 27  2  0
 26 28  2  0
 26 29  1  0
 29 30  2  0
 30 31  1  0
 31 32  1  0
 31 33  1  0
 33 34  1  0
 33 35  1  0
 33 36  1  0
 36 37  1  0
 36 38  1  0
 36 39  1  0
 39 40  1  0
 39 41  1  0
 39 42  1  0
 42 43  1  0
 42 44  1  0
 42 45  1  0
 45 46  1  0
 45 47  1  0
 25 48  2  0
 48 49  1  0
 13 50  2  0
 50 51  1  0
 50  6  1  0
 48 18  1  0
 45 30  1  0
M  CHG  1   2  -1
M  END
>  <UniqueID>  (45) 
39

>  <SMILES>  (45) 
[NH-]S(=O)(=O)c1cccc(C(=O)Nc2cccc(S(=O)(=O)/N=C3\CCCCCN3)c2)c1

>  <Energy>  (45) 
67.21411999038581

>  <Genealogy>  (45) 
[NH-]S(=O)(=O)c1cccc(C(=O)Nc2cccc(S(=O)(=O)N=C3CCCCCN3)c2)c1 (protonated)
[NH-]S(=O)(=O)c1cccc(C(=O)Nc2cccc(S(=O)(=O)/N=C3\CCCCCN3)c2)c1 (cis-trans isomerization)
[NH-]S(=O)(=O)c1cccc(C(=O)Nc2cccc(S(=O)(=O)/N=C3\CCCCCN3)c2)c1 (3D coordinates assigned)
[NH-]S(=O)(=O)c1cccc(C(=O)Nc2cccc(S(=O)(=O)/N=C3\CCCCCN3)c2)c1 (nonaromatic ring conformer: 67.21411999038581 kcal/mol)

>  <smiles>  (45) 
NS(=O)(=O)c1cccc(C(=O)Nc2cccc(S(=O)(=O)N=C3CCCCCN3)c2)c1

>  <score_type>  (45) 
oracle

>  <origin>  (45) 
adg

>  <m_score__min__energy>  (45) 
-9.8200000000000003

>  <m_primary>  (45) 
energy

$$$$
45:0
     RDKit          3D

 38 40  0  0  0  0  0  0  0  0999 V2000
   56.4620   33.2230   45.2440 O   0  0  0  0  0  0  0  0  0  0  0  0
   57.3930   32.7620   45.9620 C   0  0  0  0  0  0  0  0  0  0  0  0
   57.4740   33.1420   47.2590 N   0  0  0  0  0  0  0  0  0  0  0  0
   58.4650   32.6740   48.0560 C   0  0  0  0  0  0  0  0  0  0  0  0
   58.5220   33.0610   49.2560 O   0  0  0  0  0  0  0  0  0  0  0  0
   59.3900   31.7950   47.5600 N   0  0  0  0  0  0  0  0  0  0  0  0
   60.4900   31.2990   48.4100 C   0  0  0  0  0  0  0  0  0  0  0  0
   61.7430   32.0770   48.1470 C   0  0  0  0  0  0  0  0  0  0  0  0
   62.9730   31.8720   48.7560 C   0  0  0  0  0  0  0  0  0  0  0  0
   63.9570   32.7680   48.3210 C   0  0  0  0  0  0  0  0  0  0  0  0
   63.5040   33.6790   47.3770 C   0  0  0  0  0  0  0  0  0  0  0  0
   61.8760   33.3730   47.0850 S   0  0  0  0  0  0  0  0  0  0  0  0
   59.3140   31.4170   46.2450 C   0  0  0  0  0  0  0  0  0  0  0  0
   60.1810   30.6280   45.7700 O   0  0  0  0  0  0  0  0  0  0  0  0
   58.3130   31.8960   45.4380 N   0  0  0  0  0  0  0  0  0  0  0  0
   58.2570   31.5340   44.0050 C   0  0  0  0  0  0  0  0  0  0  0  0
   57.1750   30.4770   43.7380 C   0  0  0  0  0  0  0  0  0  0  0  0
   57.4700   29.1780   44.4460 C   0  0  0  0  0  0  0  0  0  0  0  0
   58.7810   28.6670   44.4510 C   0  0  0  0  0  0  0  0  0  0  0  0
   59.0750   27.4820   45.1280 C   0  0  0  0  0  0  0  0  0  0  0  0
   58.0680   26.7980   45.8110 C   0  0  0  0  0  0  0  0  0  0  0  0
   56.7650   27.3030   45.8270 C   0  0  0  0  0  0  0  0  0  0  0  0
   56.4620   28.4900   45.1510 C   0  0  0  0  0  0  0  0  0  0  0  0
   55.1620   28.9810   45.1860 O   0  0  0  0  0  0  0  0  0  0  0  0
   56.7690   33.8090   47.6480 H   0  0  0  0  0  0  0  0  0  0  0  0
   60.2094   31.4101   49.4678 H   0  0  0  0  0  0  0  0  0  0  0  0
   60.6717   30.2394   48.1771 H   0  0  0  0  0  0  0  0  0  0  0  0
   63.1561   31.0862   49.5037 H   0  0  0  0  0  0  0  0  0  0  0  0
   64.9922   32.7515   48.6926 H   0  0  0  0  0  0  0  0  0  0  0  0
   64.1067   34.4666   46.9011 H   0  0  0  0  0  0  0  0  0  0  0  0
   58.0304   32.4352   43.4164 H   0  0  0  0  0  0  0  0  0  0  0  0
   59.2314   31.1142   43.7147 H   0  0  0  0  0  0  0  0  0  0  0  0
   56.2069   30.8623   44.0907 H   0  0  0  0  0  0  0  0  0  0  0  0
   57.1527   30.2780   42.6564 H   0  0  0  0  0  0  0  0  0  0  0  0
   59.5792   29.2046   43.9182 H   0  0  0  0  0  0  0  0  0  0  0  0
   60.1016   27.0868   45.1232 H   0  0  0  0  0  0  0  0  0  0  0  0
   58.3003   25.8604   46.3373 H   0  0  0  0  0  0  0  0  0  0  0  0
   55.9753   26.7657   46.3726 H   0  0  0  0  0  0  0  0  0  0  0  0
  1  2  2  0
  2  3  1  0
  3  4  1  0
  4  5  2  0
  4  6  1  0
  6  7  1  0
  7  8  1  0
  8  9  2  0
  9 10  1  0
 10 11  2  0
 11 12  1  0
  6 13  1  0
 13 14  2  0
 13 15  1  0
 15 16  1  0
 16 17  1  0
 17 18  1  0
 18 19  2  0
 19 20  1  0
 20 21  2  0
 21 22  1  0
 22 23  2  0
 23 24  1  0
 15  2  1  0
 23 18  1  0
 12  8  1  0
  3 25  1  0
  7 26  1  0
  7 27  1  0
  9 28  1  0
 10 29  1  0
 11 30  1  0
 16 31  1  0
 16 32  1  0
 17 33  1  0
 17 34  1  0
 19 35  1  0
 20 36  1  0
 21 37  1  0
 22 38  1  0
M  CHG  1  24  -1
M  END
>  <UniqueID>  (46) 
40

>  <SMILES>  (46) 
O=c1[nH]c(=O)n(Cc2cccs2)c(=O)n1CCc1ccccc1[O-]

>  <Energy>  (46) 
66.1186945819458

>  <Genealogy>  (46) 
O=c1[nH]c(=O)n(Cc2cccs2)c(=O)n1CCc1ccccc1[O-] (protonated)
O=c1[nH]c(=O)n(Cc2cccs2)c(=O)n1CCc1ccccc1[O-] (3D coordinates assigned)
O=c1[nH]c(=O)n(Cc2cccs2)c(=O)n1CCc1ccccc1[O-] (optimized conformer: 66.1186945819458 kcal/mol)

>  <smiles>  (46) 
O=c1[nH]c(=O)n(Cc2cccs2)c(=O)n1CCc1ccccc1O

>  <score_type>  (46) 
oracle

>  <origin>  (46) 
adg

>  <m_score__min__energy>  (46) 
-11.4

>  <m_primary>  (46) 
energy

$$$$
46:0
     RDKit          3D

 45 47  0  0  0  0  0  0  0  0999 V2000
   57.9130   32.7610   43.3230 O   0  0  0  0  0  0  0  0  0  0  0  0
   57.5670   32.5550   44.5180 C   0  0  0  0  0  0  0  0  0  0  0  0
   56.4760   31.6730   44.7980 N   0  0  0  0  0  0  0  0  0  0  0  0
   56.4970   29.9960   44.3720 S   0  0  0  0  0  0  0  0  0  0  0  0
   55.2380   29.3320   44.8540 O   0  0  0  0  0  0  0  0  0  0  0  0
   56.5540   29.8690   42.8740 O   0  0  0  0  0  0  0  0  0  0  0  0
   57.9100   29.2250   45.0840 C   0  0  0  0  0  0  0  0  0  0  0  0
   57.7870   28.4620   46.2550 C   0  0  0  0  0  0  0  0  0  0  0  0
   58.9150   27.8640   46.8260 C   0  0  0  0  0  0  0  0  0  0  0  0
   60.1700   28.0280   46.2320 C   0  0  0  0  0  0  0  0  0  0  0  0
   60.2990   28.7900   45.0680 C   0  0  0  0  0  0  0  0  0  0  0  0
   59.1720   29.3900   44.4950 C   0  0  0  0  0  0  0  0  0  0  0  0
   58.2860   33.2280   45.6250 C   0  0  0  0  0  0  0  0  0  0  0  0
   58.9630   34.4410   45.4070 C   0  0  0  0  0  0  0  0  0  0  0  0
   59.6490   35.0640   46.4520 C   0  0  0  0  0  0  0  0  0  0  0  0
   59.6670   34.4900   47.7240 C   0  0  0  0  0  0  0  0  0  0  0  0
   58.9960   33.2840   47.9590 C   0  0  0  0  0  0  0  0  0  0  0  0
   59.0240   32.5340   49.5540 S   0  0  0  0  0  0  0  0  0  0  0  0
   59.7230   33.4270   50.5400 O   0  0  0  0  0  0  0  0  0  0  0  0
   57.6070   32.3320   50.0130 O   0  0  0  0  0  0  0  0  0  0  0  0
   59.8270   30.9890   49.5040 N   0  0  0  0  0  0  0  0  0  0  0  0
   60.6050   30.8270   48.2740 C   0  0  0  0  0  0  0  0  0  0  0  0
   61.7820   31.7650   48.2460 C   0  0  0  0  0  0  0  0  0  0  0  0
   62.6290   31.7940   47.1270 C   0  0  0  0  0  0  0  0  0  0  0  0
   63.7240   32.6580   47.1200 C   0  0  0  0  0  0  0  0  0  0  0  0
   63.9710   33.4770   48.2210 C   0  0  0  0  0  0  0  0  0  0  0  0
   63.1120   33.4200   49.3210 C   0  0  0  0  0  0  0  0  0  0  0  0
   62.0450   32.5760   49.3130 N   0  0  0  0  0  0  0  0  0  0  0  0
   58.3070   32.6580   46.9120 C   0  0  0  0  0  0  0  0  0  0  0  0
   56.8008   28.3338   46.7252 H   0  0  0  0  0  0  0  0  0  0  0  0
   58.8148   27.2644   47.7428 H   0  0  0  0  0  0  0  0  0  0  0  0
   61.0565   27.5567   46.6814 H   0  0  0  0  0  0  0  0  0  0  0  0
   61.2870   28.9184   44.6017 H   0  0  0  0  0  0  0  0  0  0  0  0
   59.2762   29.9924   43.5805 H   0  0  0  0  0  0  0  0  0  0  0  0
   58.9523   34.9017   44.4082 H   0  0  0  0  0  0  0  0  0  0  0  0
   60.1776   36.0116   46.2716 H   0  0  0  0  0  0  0  0  0  0  0  0
   60.2090   34.9857   48.5428 H   0  0  0  0  0  0  0  0  0  0  0  0
   60.9704   29.7912   48.2145 H   0  0  0  0  0  0  0  0  0  0  0  0
   59.9546   31.0590   47.4177 H   0  0  0  0  0  0  0  0  0  0  0  0
   62.4311   31.1415   46.2638 H   0  0  0  0  0  0  0  0  0  0  0  0
   64.3920   32.6932   46.2467 H   0  0  0  0  0  0  0  0  0  0  0  0
   64.8329   34.1605   48.2234 H   0  0  0  0  0  0  0  0  0  0  0  0
   63.2988   34.0594   50.1963 H   0  0  0  0  0  0  0  0  0  0  0  0
   61.4210   32.5560   50.1510 H   0  0  0  0  0  0  0  0  0  0  0  0
   57.7773   31.7119   47.0974 H   0  0  0  0  0  0  0  0  0  0  0  0
  1  2  2  0
  2  3  1  0
  3  4  1  0
  4  5  2  0
  4  6  2  0
  4  7  1  0
  7  8  2  0
  8  9  1  0
  9 10  2  0
 10 11  1  0
 11 12  2  0
  2 13  1  0
 13 14  2  0
 14 15  1  0
 15 16  2  0
 16 17  1  0
 17 18  1  0
 18 19  2  0
 18 20  2  0
 18 21  1  0
 21 22  1  0
 22 23  1  0
 23 24  2  0
 24 25  1  0
 25 26  2  0
 26 27  1  0
 27 28  2  0
 17 29  2  0
 12  7  1  0
 29 13  1  0
 28 23  1  0
  8 30  1  0
  9 31  1  0
 10 32  1  0
 11 33  1  0
 12 34  1  0
 14 35  1  0
 15 36  1  0
 16 37  1  0
 22 38  1  0
 22 39  1  0
 24 40  1  0
 25 41  1  0
 26 42  1  0
 27 43  1  0
 28 44  1  0
 29 45  1  0
M  CHG  3   3  -1  21  -1  28   1
M  END
>  <UniqueID>  (47) 
41

>  <SMILES>  (47) 
O=C([N-]S(=O)(=O)c1ccccc1)c1cccc(S(=O)(=O)[N-]Cc2cccc[nH+]2)c1

>  <Energy>  (47) 
48.997810539880966

>  <Genealogy>  (47) 
O=C([N-]S(=O)(=O)c1ccccc1)c1cccc(S(=O)(=O)[N-]Cc2cccc[nH+]2)c1 (protonated)
O=C([N-]S(=O)(=O)c1ccccc1)c1cccc(S(=O)(=O)[N-]Cc2cccc[nH+]2)c1 (3D coordinates assigned)
O=C([N-]S(=O)(=O)c1ccccc1)c1cccc(S(=O)(=O)[N-]Cc2cccc[nH+]2)c1 (optimized conformer: 48.997810539880966 kcal/mol)

>  <smiles>  (47) 
O=C(NS(=O)(=O)c1ccccc1)c1cccc(S(=O)(=O)NCc2ccccn2)c1

>  <score_type>  (47) 
oracle

>  <origin>  (47) 
adg

>  <m_score__min__energy>  (47) 
-11.09

>  <m_primary>  (47) 
energy

$$$$
47:0
     RDKit          3D

 40 44  0  0  0  0  0  0  0  0999 V2000
   53.1528   32.1563   53.0826 H   0  0  0  0  0  0  0  0  0  0  0  0
   53.2930   31.3930   52.3030 C   0  0  0  0  0  0  0  0  0  0  0  0
   52.3310   31.3580   51.1870 C   0  0  0  0  0  0  0  0  0  0  0  0
   52.3860   30.4530   50.1950 N   0  0  0  0  0  0  0  0  0  0  0  0
   51.3890   30.8320   49.3680 C   0  0  0  0  0  0  0  0  0  0  0  0
   51.1120   30.2090   48.3100 O   0  0  0  0  0  0  0  0  0  0  0  0
   50.7180   31.9360   49.7570 N   0  0  0  0  0  0  0  0  0  0  0  0
   51.3330   32.2650   50.9040 C   0  0  0  0  0  0  0  0  0  0  0  0
   51.0200   33.3990   51.6440 O   0  0  0  0  0  0  0  0  0  0  0  0
   54.3280   30.5510   52.4250 C   0  0  0  0  0  0  0  0  0  0  0  0
   54.3300   29.1750   52.6770 C   0  0  0  0  0  0  0  0  0  0  0  0
   53.4325   28.5636   52.8524 H   0  0  0  0  0  0  0  0  0  0  0  0
   55.6020   28.7070   52.6730 N   0  0  0  0  0  0  0  0  0  0  0  0
   56.3870   29.7440   52.4250 N   0  0  0  0  0  0  0  0  0  0  0  0
   57.7370   29.7620   52.3220 C   0  0  0  0  0  0  0  0  0  0  0  0
   58.4280   28.6740   52.4840 N   0  0  0  0  0  0  0  0  0  0  0  0
   59.8430   28.5620   52.1420 C   0  0  0  0  0  0  0  0  0  0  0  0
   59.7287   28.5169   51.0489 H   0  0  0  0  0  0  0  0  0  0  0  0
   60.6400   27.7950   53.1790 C   0  0  0  0  0  0  0  0  0  0  0  0
   60.1274   27.3328   54.0355 H   0  0  0  0  0  0  0  0  0  0  0  0
   61.3492   26.9546   53.1503 H   0  0  0  0  0  0  0  0  0  0  0  0
   60.7610   29.3100   53.0910 C   0  0  0  0  0  0  0  0  0  0  0  0
   60.3357   29.9431   53.8836 H   0  0  0  0  0  0  0  0  0  0  0  0
   61.5934   30.0192   52.9721 H   0  0  0  0  0  0  0  0  0  0  0  0
   58.3430   30.9540   52.0470 N   0  0  0  0  0  0  0  0  0  0  0  0
   57.6000   32.0900   51.8760 C   0  0  0  0  0  0  0  0  0  0  0  0
   58.2550   33.2970   51.6110 O   0  0  0  0  0  0  0  0  0  0  0  0
   59.4130   33.4130   50.8300 C   0  0  0  0  0  0  0  0  0  0  0  0
   59.2760   33.5050   49.4390 C   0  0  0  0  0  0  0  0  0  0  0  0
   58.2734   33.4914   48.9866 H   0  0  0  0  0  0  0  0  0  0  0  0
   60.4050   33.6140   48.6220 C   0  0  0  0  0  0  0  0  0  0  0  0
   60.2894   33.6746   47.5298 H   0  0  0  0  0  0  0  0  0  0  0  0
   61.6800   33.6460   49.1920 C   0  0  0  0  0  0  0  0  0  0  0  0
   62.5685   33.7216   48.5479 H   0  0  0  0  0  0  0  0  0  0  0  0
   61.8270   33.5820   50.5800 C   0  0  0  0  0  0  0  0  0  0  0  0
   62.8316   33.6127   51.0271 H   0  0  0  0  0  0  0  0  0  0  0  0
   60.7000   33.4790   51.4030 C   0  0  0  0  0  0  0  0  0  0  0  0
   60.8660   33.4750   52.7840 O   0  0  0  0  0  0  0  0  0  0  0  0
   56.2390   32.0430   51.9950 N   0  0  0  0  0  0  0  0  0  0  0  0
   55.6620   30.8490   52.2670 C   0  0  0  0  0  0  0  0  0  0  0  0
  1  2  1  0
  2  3  1  0
  3  4  1  0
  4  5  1  0
  5  6  2  0
  5  7  1  0
  7  8  1  0
  8  9  1  0
  2 10  2  3
 10 11  1  0
 11 12  1  0
 11 13  2  0
 13 14  1  0
 14 15  1  0
 15 16  2  0
 16 17  1  0
 17 18  1  0
 17 19  1  0
 19 20  1  0
 19 21  1  0
 19 22  1  0
 22 23  1  0
 22 24  1  0
 15 25  1  0
 25 26  2  0
 26 27  1  0
 27 28  1  0
 28 29  2  0
 29 30  1  0
 29 31  1  0
 31 32  1  0
 31 33  2  0
 33 34  1  0
 33 35  1  0
 35 36  1  0
 35 37  2  0
 37 38  1  0
 26 39  1  0
 39 40  2  0
  8  3  2  0
 40 10  1  0
 40 14  1  0
 22 17  1  0
 37 28  1  0
M  CHG  4   4  -1   7  -1   9  -1  38  -1
M  END
>  <UniqueID>  (48) 
42

>  <SMILES>  (48) 
O=c1[n-]c([O-])c(C=c2cnn3/c(=N/C4CC4)nc(Oc4ccccc4[O-])nc23)[n-]1

>  <Energy>  (48) 
390.3398204375516

>  <Genealogy>  (48) 
O=c1[n-]c([O-])c(C=c2cnn3c(=NC4CC4)nc(Oc4ccccc4[O-])nc23)[n-]1 (protonated)
O=c1[n-]c([O-])c(C=c2cnn3/c(=N/C4CC4)nc(Oc4ccccc4[O-])nc23)[n-]1 (cis-trans isomerization)
O=c1[n-]c([O-])c(C=c2cnn3/c(=N/C4CC4)nc(Oc4ccccc4[O-])nc23)[n-]1 (3D coordinates assigned)
O=c1[n-]c([O-])c(C=c2cnn3/c(=N/C4CC4)nc(Oc4ccccc4[O-])nc23)[n-]1 (nonaromatic ring conformer: 390.3398204375516 kcal/mol)

>  <smiles>  (48) 
O=c1[nH]c(O)c(C=c2cnn3c(=NC4CC4)nc(Oc4ccccc4O)nc23)[nH]1

>  <score_type>  (48) 
oracle

>  <origin>  (48) 
adg

>  <m_score__min__energy>  (48) 
-16.870000000000001

>  <m_primary>  (48) 
energy

$$$$
48:0
     RDKit          3D

 43 45  0  0  0  0  0  0  0  0999 V2000
   60.7610   28.9620   45.4690 C   0  0  0  0  0  0  0  0  0  0  0  0
   59.7800   28.3360   44.4780 C   0  0  0  0  0  0  0  0  0  0  0  0
   58.6650   27.5330   45.1690 C   0  0  0  0  0  0  0  0  0  0  0  0
   57.8500   28.3420   46.1910 C   0  0  0  0  0  0  0  0  0  0  0  0
   57.5660   29.6940   45.7040 N   0  0  0  0  0  0  0  0  0  0  0  0
   56.7540   30.0190   44.6670 C   0  0  0  0  0  0  0  0  0  0  0  0
   56.6430   31.3580   44.4730 N   0  0  0  0  0  0  0  0  0  0  0  0
   57.4280   31.8680   45.4430 C   0  0  0  0  0  0  0  0  0  0  0  0
   57.9820   30.8810   46.1840 C   0  0  0  0  0  0  0  0  0  0  0  0
   58.8260   31.1890   47.2450 C   0  0  0  0  0  0  0  0  0  0  0  0
   59.3570   30.2720   47.9280 O   0  0  0  0  0  0  0  0  0  0  0  0
   59.0630   32.5160   47.5280 N   0  0  0  0  0  0  0  0  0  0  0  0
   59.9750   32.8790   48.6320 C   0  0  0  0  0  0  0  0  0  0  0  0
   61.3960   32.9580   48.1370 C   0  0  0  0  0  0  0  0  0  0  0  0
   62.4250   32.2940   48.8250 C   0  0  0  0  0  0  0  0  0  0  0  0
   63.7480   32.3950   48.3850 C   0  0  0  0  0  0  0  0  0  0  0  0
   64.0540   33.1620   47.2570 C   0  0  0  0  0  0  0  0  0  0  0  0
   63.0390   33.8280   46.5690 C   0  0  0  0  0  0  0  0  0  0  0  0
   61.7140   33.7290   47.0060 C   0  0  0  0  0  0  0  0  0  0  0  0
   58.4780   33.5080   46.7540 C   0  0  0  0  0  0  0  0  0  0  0  0
   58.6850   34.7240   47.0290 O   0  0  0  0  0  0  0  0  0  0  0  0
   57.6660   33.1850   45.6890 N   0  0  0  0  0  0  0  0  0  0  0  0
   57.0170   34.2290   44.8850 C   0  0  0  0  0  0  0  0  0  0  0  0
   60.4295   28.7505   46.4963 H   0  0  0  0  0  0  0  0  0  0  0  0
   61.7629   28.5359   45.3119 H   0  0  0  0  0  0  0  0  0  0  0  0
   60.7966   30.0501   45.3119 H   0  0  0  0  0  0  0  0  0  0  0  0
   59.3186   29.1396   43.8852 H   0  0  0  0  0  0  0  0  0  0  0  0
   60.3482   27.6374   43.8463 H   0  0  0  0  0  0  0  0  0  0  0  0
   57.9772   27.1608   44.3955 H   0  0  0  0  0  0  0  0  0  0  0  0
   59.1568   26.7219   45.7261 H   0  0  0  0  0  0  0  0  0  0  0  0
   56.8986   27.8233   46.3801 H   0  0  0  0  0  0  0  0  0  0  0  0
   58.4416   28.4257   47.1146 H   0  0  0  0  0  0  0  0  0  0  0  0
   56.2374   29.2725   44.0458 H   0  0  0  0  0  0  0  0  0  0  0  0
   59.6787   33.8567   49.0399 H   0  0  0  0  0  0  0  0  0  0  0  0
   59.9125   32.1077   49.4138 H   0  0  0  0  0  0  0  0  0  0  0  0
   62.1886   31.6915   49.7145 H   0  0  0  0  0  0  0  0  0  0  0  0
   64.5489   31.8706   48.9268 H   0  0  0  0  0  0  0  0  0  0  0  0
   65.0954   33.2405   46.9116 H   0  0  0  0  0  0  0  0  0  0  0  0
   63.2812   34.4316   45.6819 H   0  0  0  0  0  0  0  0  0  0  0  0
   60.9172   34.2571   46.4618 H   0  0  0  0  0  0  0  0  0  0  0  0
   56.5553   34.9717   45.5522 H   0  0  0  0  0  0  0  0  0  0  0  0
   57.7676   34.7227   44.2503 H   0  0  0  0  0  0  0  0  0  0  0  0
   56.2421   33.7744   44.2503 H   0  0  0  0  0  0  0  0  0  0  0  0
  1  2  1  0
  2  3  1  0
  3  4  1  0
  4  5  1  0
  5  6  1  0
  6  7  2  0
  7  8  1  0
  8  9  2  0
  9 10  1  0
 10 11  2  0
 10 12  1  0
 12 13  1  0
 13 14  1  0
 14 15  2  0
 15 16  1  0
 16 17  2  0
 17 18  1  0
 18 19  2  0
 12 20  1  0
 20 21  2  0
 20 22  1  0
 22 23  1  0
  9  5  1  0
 19 14  1  0
 22  8  1  0
  1 24  1  0
  1 25  1  0
  1 26  1  0
  2 27  1  0
  2 28  1  0
  3 29  1  0
  3 30  1  0
  4 31  1  0
  4 32  1  0
  6 33  1  0
 13 34  1  0
 13 35  1  0
 15 36  1  0
 16 37  1  0
 17 38  1  0
 18 39  1  0
 19 40  1  0
 23 41  1  0
 23 42  1  0
 23 43  1  0
M  END
>  <UniqueID>  (49) 
43

>  <SMILES>  (49) 
CCCCn1cnc2c1c(=O)n(Cc1ccccc1)c(=O)n2C

>  <Energy>  (49) 
83.73713400602271

>  <Genealogy>  (49) 
CCCCn1cnc2c1c(=O)n(Cc1ccccc1)c(=O)n2C (3D coordinates assigned)
CCCCn1cnc2c1c(=O)n(Cc1ccccc1)c(=O)n2C (optimized conformer: 83.73713400602271 kcal/mol)

>  <smiles>  (49) 
CCCCn1cnc2c1c(=O)n(Cc1ccccc1)c(=O)n2C

>  <score_type>  (49) 
oracle

>  <origin>  (49) 
adg

>  <m_score__min__energy>  (49) 
-6.7699999999999996

>  <m_primary>  (49) 
energy

$$$$
49:0
     RDKit          3D

 46 49  0  0  0  0  0  0  0  0999 V2000
   55.4380   29.5190   44.8740 O   0  0  0  0  0  0  0  0  0  0  0  0
   56.5600   29.7540   43.8950 S   0  0  0  0  0  0  0  0  0  0  0  0
   55.9770   29.9680   42.5200 O   0  0  0  0  0  0  0  0  0  0  0  0
   57.6100   28.3740   43.8880 N   0  0  0  0  0  0  0  0  0  0  0  0
   58.2360   27.8780   45.0730 C   0  0  0  0  0  0  0  0  0  0  0  0
   59.6200   28.0590   45.2310 C   0  0  0  0  0  0  0  0  0  0  0  0
   60.2570   27.6080   46.3910 C   0  0  0  0  0  0  0  0  0  0  0  0
   59.5080   26.9890   47.4060 C   0  0  0  0  0  0  0  0  0  0  0  0
   60.1210   26.5790   48.5430 F   0  0  0  0  0  0  0  0  0  0  0  0
   58.1230   26.8080   47.2590 C   0  0  0  0  0  0  0  0  0  0  0  0
   57.4840   27.2460   46.0950 C   0  0  0  0  0  0  0  0  0  0  0  0
   56.1350   27.1000   45.9950 F   0  0  0  0  0  0  0  0  0  0  0  0
   57.4820   31.1620   44.4130 C   0  0  0  0  0  0  0  0  0  0  0  0
   57.4070   32.3750   43.7070 C   0  0  0  0  0  0  0  0  0  0  0  0
   58.1700   33.4740   44.1180 C   0  0  0  0  0  0  0  0  0  0  0  0
   58.9900   33.3780   45.2480 C   0  0  0  0  0  0  0  0  0  0  0  0
   59.0420   32.1790   45.9880 C   0  0  0  0  0  0  0  0  0  0  0  0
   58.3060   31.0630   45.5450 C   0  0  0  0  0  0  0  0  0  0  0  0
   59.8710   32.1360   47.1730 N   0  0  0  0  0  0  0  0  0  0  0  0
   59.6060   30.9620   48.4420 S   0  0  0  0  0  0  0  0  0  0  0  0
   58.5120   30.0050   48.0510 O   0  0  0  0  0  0  0  0  0  0  0  0
   60.8700   30.1690   48.6580 O   0  0  0  0  0  0  0  0  0  0  0  0
   59.1370   31.7980   49.9210 C   0  0  0  0  0  0  0  0  0  0  0  0
   59.6400   33.0790   50.2170 C   0  0  0  0  0  0  0  0  0  0  0  0
   59.2650   33.7270   51.4000 C   0  0  0  0  0  0  0  0  0  0  0  0
   58.3900   33.0980   52.2920 C   0  0  0  0  0  0  0  0  0  0  0  0
   58.0160   33.7380   53.4310 F   0  0  0  0  0  0  0  0  0  0  0  0
   57.8790   31.8260   51.9970 C   0  0  0  0  0  0  0  0  0  0  0  0
   58.2560   31.1760   50.8160 C   0  0  0  0  0  0  0  0  0  0  0  0
   60.9240   33.1500   47.3200 C   0  0  0  0  0  0  0  0  0  0  0  0
   60.3750   34.5310   46.9400 C   0  0  0  0  0  0  0  0  0  0  0  0
   59.7590   34.4800   45.6500 O   0  0  0  0  0  0  0  0  0  0  0  0
   60.2030   28.5559   44.4416 H   0  0  0  0  0  0  0  0  0  0  0  0
   61.3430   27.7376   46.5089 H   0  0  0  0  0  0  0  0  0  0  0  0
   57.5425   26.3229   48.0575 H   0  0  0  0  0  0  0  0  0  0  0  0
   56.7479   32.4607   42.8305 H   0  0  0  0  0  0  0  0  0  0  0  0
   58.1250   34.4157   43.5513 H   0  0  0  0  0  0  0  0  0  0  0  0
   58.3772   30.1094   46.0886 H   0  0  0  0  0  0  0  0  0  0  0  0
   60.3299   33.5724   49.5166 H   0  0  0  0  0  0  0  0  0  0  0  0
   59.6577   34.7290   51.6277 H   0  0  0  0  0  0  0  0  0  0  0  0
   57.1815   31.3386   52.6941 H   0  0  0  0  0  0  0  0  0  0  0  0
   57.8600   30.1750   50.5900 H   0  0  0  0  0  0  0  0  0  0  0  0
   61.2687   33.1692   48.3644 H   0  0  0  0  0  0  0  0  0  0  0  0
   61.7642   32.8988   46.6559 H   0  0  0  0  0  0  0  0  0  0  0  0
   59.6299   34.8437   47.6863 H   0  0  0  0  0  0  0  0  0  0  0  0
   61.2051   35.2522   46.9130 H   0  0  0  0  0  0  0  0  0  0  0  0
  1  2  2  0
  2  3  2  0
  2  4  1  0
  4  5  1  0
  5  6  2  0
  6  7  1  0
  7  8  2  0
  8  9  1  0
  8 10  1  0
 10 11  2  0
 11 12  1  0
  2 13  1  0
 13 14  2  0
 14 15  1  0
 15 16  2  0
 16 17  1  0
 17 18  2  0
 17 19  1  0
 19 20  1  0
 20 21  2  0
 20 22  2  0
 20 23  1  0
 23 24  2  0
 24 25  1  0
 25 26  2  0
 26 27  1  0
 26 28  1  0
 28 29  2  0
 19 30  1  0
 30 31  1  0
 31 32  1  0
 11  5  1  0
 18 13  1  0
 29 23  1  0
 32 16  1  0
  6 33  1  0
  7 34  1  0
 10 35  1  0
 14 36  1  0
 15 37  1  0
 18 38  1  0
 24 39  1  0
 25 40  1  0
 28 41  1  0
 29 42  1  0
 30 43  1  0
 30 44  1  0
 31 45  1  0
 31 46  1  0
M  CHG  1   4  -1
M  END
>  <UniqueID>  (50) 
44

>  <SMILES>  (50) 
O=S(=O)([N-]c1ccc(F)cc1F)c1ccc2c(c1)N(S(=O)(=O)c1ccc(F)cc1)CCO2

>  <Energy>  (50) 
59.581102164607756

>  <Genealogy>  (50) 
O=S(=O)([N-]c1ccc(F)cc1F)c1ccc2c(c1)N(S(=O)(=O)c1ccc(F)cc1)CCO2 (protonated)
O=S(=O)([N-]c1ccc(F)cc1F)c1ccc2c(c1)N(S(=O)(=O)c1ccc(F)cc1)CCO2 (3D coordinates assigned)
O=S(=O)([N-]c1ccc(F)cc1F)c1ccc2c(c1)N(S(=O)(=O)c1ccc(F)cc1)CCO2 (nonaromatic ring conformer: 59.581102164607756 kcal/mol)

>  <smiles>  (50) 
O=S(=O)(Nc1ccc(F)cc1F)c1ccc2c(c1)N(S(=O)(=O)c1ccc(F)cc1)CCO2

>  <score_type>  (50) 
oracle

>  <origin>  (50) 
adg

>  <m_score__min__energy>  (50) 
-10.609999999999999

>  <m_primary>  (50) 
energy

$$$$
50:0
     RDKit          3D

 37 39  0  0  0  0  0  0  0  0999 V2000
   57.9170   32.0440   50.3780 N   0  0  0  0  0  0  0  0  0  0  0  0
   58.8780   31.3610   49.1140 S   0  0  0  0  0  0  0  0  0  0  0  0
   58.5170   29.9150   48.9300 O   0  0  0  0  0  0  0  0  0  0  0  0
   60.3280   31.4340   49.5050 O   0  0  0  0  0  0  0  0  0  0  0  0
   58.6320   32.2860   47.6230 C   0  0  0  0  0  0  0  0  0  0  0  0
   58.0550   31.6170   46.5320 C   0  0  0  0  0  0  0  0  0  0  0  0
   57.7900   32.2860   45.3270 C   0  0  0  0  0  0  0  0  0  0  0  0
   57.1730   31.5720   44.1830 C   0  0  0  0  0  0  0  0  0  0  0  0
   57.4100   31.9640   43.0080 O   0  0  0  0  0  0  0  0  0  0  0  0
   56.3650   30.3990   44.3640 N   0  0  0  0  0  0  0  0  0  0  0  0
   56.7940   29.2340   44.7520 C   0  0  0  0  0  0  0  0  0  0  0  0
   55.9630   28.2940   45.2480 N   0  0  0  0  0  0  0  0  0  0  0  0
   56.6380   27.1720   45.6200 C   0  0  0  0  0  0  0  0  0  0  0  0
   58.0150   27.2200   45.4300 C   0  0  0  0  0  0  0  0  0  0  0  0
   58.4010   28.7200   44.7750 S   0  0  0  0  0  0  0  0  0  0  0  0
   58.1400   33.6370   45.2080 C   0  0  0  0  0  0  0  0  0  0  0  0
   58.7290   34.3110   46.2770 C   0  0  0  0  0  0  0  0  0  0  0  0
   58.9950   33.6470   47.4830 C   0  0  0  0  0  0  0  0  0  0  0  0
   59.7760   34.6020   48.7960 S   0  0  0  0  0  0  0  0  0  0  0  0
   61.4310   34.0260   48.4060 C   0  0  0  0  0  0  0  0  0  0  0  0
   62.3580   33.7980   49.4320 C   0  0  0  0  0  0  0  0  0  0  0  0
   63.6460   33.3500   49.1250 C   0  0  0  0  0  0  0  0  0  0  0  0
   64.0070   33.1150   47.7940 C   0  0  0  0  0  0  0  0  0  0  0  0
   63.0770   33.3220   46.7710 C   0  0  0  0  0  0  0  0  0  0  0  0
   61.7880   33.7700   47.0770 C   0  0  0  0  0  0  0  0  0  0  0  0
   57.0100   32.3350   49.9480 H   0  0  0  0  0  0  0  0  0  0  0  0
   58.3970   32.9160   50.6910 H   0  0  0  0  0  0  0  0  0  0  0  0
   57.8061   30.5494   46.6232 H   0  0  0  0  0  0  0  0  0  0  0  0
   56.1311   26.2910   46.0405 H   0  0  0  0  0  0  0  0  0  0  0  0
   58.7277   26.4164   45.6670 H   0  0  0  0  0  0  0  0  0  0  0  0
   57.9489   34.1698   44.2648 H   0  0  0  0  0  0  0  0  0  0  0  0
   58.9878   35.3751   46.1732 H   0  0  0  0  0  0  0  0  0  0  0  0
   62.0718   33.9717   50.4798 H   0  0  0  0  0  0  0  0  0  0  0  0
   64.3761   33.1821   49.9304 H   0  0  0  0  0  0  0  0  0  0  0  0
   65.0223   32.7675   47.5525 H   0  0  0  0  0  0  0  0  0  0  0  0
   63.3592   33.1324   45.7249 H   0  0  0  0  0  0  0  0  0  0  0  0
   61.0537   33.9214   46.2721 H   0  0  0  0  0  0  0  0  0  0  0  0
  1  2  1  0
  2  3  2  0
  2  4  2  0
  2  5  1  0
  5  6  2  0
  6  7  1  0
  7  8  1  0
  8  9  2  0
  8 10  1  0
 10 11  2  3
 11 12  1  0
 12 13  1  0
 13 14  2  0
 14 15  1  0
  7 16  2  0
 16 17  1  0
 17 18  2  0
 18 19  1  0
 19 20  1  0
 20 21  2  0
 21 22  1  0
 22 23  2  0
 23 24  1  0
 24 25  2  0
 18  5  1  0
 25 20  1  0
 15 11  1  0
  1 26  1  0
  1 27  1  0
  6 28  1  0
 13 29  1  0
 14 30  1  0
 16 31  1  0
 17 32  1  0
 21 33  1  0
 22 34  1  0
 23 35  1  0
 24 36  1  0
 25 37  1  0
M  CHG  1  12  -1
M  END
>  <UniqueID>  (51) 
45

>  <SMILES>  (51) 
NS(=O)(=O)c1cc(C(=O)N=c2[n-]ccs2)ccc1Sc1ccccc1

>  <Energy>  (51) 
75.03021902739579

>  <Genealogy>  (51) 
NS(=O)(=O)c1cc(C(=O)N=c2[n-]ccs2)ccc1Sc1ccccc1 (protonated)
NS(=O)(=O)c1cc(C(=O)N=c2[n-]ccs2)ccc1Sc1ccccc1 (3D coordinates assigned)
NS(=O)(=O)c1cc(C(=O)N=c2[n-]ccs2)ccc1Sc1ccccc1 (optimized conformer: 75.03021902739579 kcal/mol)

>  <smiles>  (51) 
NS(=O)(=O)c1cc(C(=O)N=c2[nH]ccs2)ccc1Sc1ccccc1

>  <score_type>  (51) 
oracle

>  <origin>  (51) 
adg

>  <m_score__min__energy>  (51) 
-10.710000000000001

>  <m_primary>  (51) 
energy

$$$$
51:0
     RDKit          3D

 29 30  0  0  0  0  0  0  0  0999 V2000
   54.8070   26.6900   45.2580 H   0  0  0  0  0  0  0  0  0  0  0  0
   55.5280   27.0700   45.9100 N   0  0  0  0  0  0  0  0  0  0  0  0
   56.6730   25.8060   46.1920 S   0  0  0  0  0  0  0  0  0  0  0  0
   55.9410   24.5620   46.6080 O   0  0  0  0  0  0  0  0  0  0  0  0
   57.4380   25.5300   44.9290 O   0  0  0  0  0  0  0  0  0  0  0  0
   57.7990   26.2830   47.4970 C   0  0  0  0  0  0  0  0  0  0  0  0
   57.3268   27.0687   48.1050 H   0  0  0  0  0  0  0  0  0  0  0  0
   58.0171   25.3912   48.1029 H   0  0  0  0  0  0  0  0  0  0  0  0
   59.1270   26.8170   46.9390 C   0  0  0  0  0  0  0  0  0  0  0  0
   59.4906   27.6236   47.5926 H   0  0  0  0  0  0  0  0  0  0  0  0
   59.8461   25.9852   46.9055 H   0  0  0  0  0  0  0  0  0  0  0  0
   58.9680   27.3400   45.5830 N   0  0  0  0  0  0  0  0  0  0  0  0
   59.4090   26.7590   44.8340 H   0  0  0  0  0  0  0  0  0  0  0  0
   58.3530   28.4330   45.2040 C   0  0  0  0  0  0  0  0  0  0  0  0
   58.7000   29.8630   45.5160 C   0  0  0  0  0  0  0  0  0  0  0  0
   59.7730   30.4120   46.2480 C   0  0  0  0  0  0  0  0  0  0  0  0
   60.5239   29.7521   46.7070 H   0  0  0  0  0  0  0  0  0  0  0  0
   59.8780   31.8040   46.3880 C   0  0  0  0  0  0  0  0  0  0  0  0
   60.7111   32.2319   46.9650 H   0  0  0  0  0  0  0  0  0  0  0  0
   58.9320   32.6550   45.8000 C   0  0  0  0  0  0  0  0  0  0  0  0
   59.0257   33.7448   45.9164 H   0  0  0  0  0  0  0  0  0  0  0  0
   57.8700   32.1200   45.0660 C   0  0  0  0  0  0  0  0  0  0  0  0
   57.1234   32.7794   44.5993 H   0  0  0  0  0  0  0  0  0  0  0  0
   57.7740   30.7350   44.9360 C   0  0  0  0  0  0  0  0  0  0  0  0
   56.5490   29.8930   44.0520 S   0  0  0  0  0  0  0  0  0  0  0  0
   55.1810   30.0720   44.6470 O   0  0  0  0  0  0  0  0  0  0  0  0
   56.5830   30.2020   42.5820 O   0  0  0  0  0  0  0  0  0  0  0  0
   57.1830   28.3330   44.3820 N   0  0  0  0  0  0  0  0  0  0  0  0
   56.7480   27.4420   44.0530 H   0  0  0  0  0  0  0  0  0  0  0  0
  1  2  1  0
  2  3  1  0
  3  4  2  0
  3  5  2  0
  3  6  1  0
  6  7  1  0
  6  8  1  0
  6  9  1  0
  9 10  1  0
  9 11  1  0
  9 12  1  0
 12 13  1  0
 12 14  2  0
 14 15  1  0
 15 16  2  0
 16 17  1  0
 16 18  1  0
 18 19  1  0
 18 20  2  0
 20 21  1  0
 20 22  1  0
 22 23  1  0
 22 24  2  0
 24 25  1  0
 25 26  2  0
 25 27  2  0
 25 28  1  0
 28 29  1  0
 28 14  1  0
 24 15  1  0
M  CHG  2   2  -1  12   1
M  END
>  <UniqueID>  (52) 
46

>  <SMILES>  (52) 
[NH-]S(=O)(=O)CC/[NH+]=C1/NS(=O)(=O)c2ccccc21

>  <Energy>  (52) 
52.60690784509812

>  <Genealogy>  (52) 
[NH-]S(=O)(=O)CC[NH+]=C1NS(=O)(=O)c2ccccc21 (protonated)
[NH-]S(=O)(=O)CC/[NH+]=C1/NS(=O)(=O)c2ccccc21 (cis-trans isomerization)
[NH-]S(=O)(=O)CC/[NH+]=C1/NS(=O)(=O)c2ccccc21 (3D coordinates assigned)
[NH-]S(=O)(=O)CC/[NH+]=C1/NS(=O)(=O)c2ccccc21 (nonaromatic ring conformer: 52.60690784509812 kcal/mol)

>  <smiles>  (52) 
NS(=O)(=O)CCN=C1NS(=O)(=O)c2ccccc21

>  <score_type>  (52) 
oracle

>  <origin>  (52) 
adg

>  <m_score__min__energy>  (52) 
-8.6699999999999999

>  <m_primary>  (52) 
energy

$$$$
52:0
     RDKit          3D

 39 41  0  0  0  0  0  0  0  0999 V2000
   59.6320   34.5880   49.1200 N   0  0  0  0  0  0  0  0  0  0  0  0
   60.0240   34.4310   47.4450 S   0  0  0  0  0  0  0  0  0  0  0  0
   59.6300   35.6870   46.7200 O   0  0  0  0  0  0  0  0  0  0  0  0
   61.5050   34.2300   47.2920 O   0  0  0  0  0  0  0  0  0  0  0  0
   59.1620   33.0540   46.7670 C   0  0  0  0  0  0  0  0  0  0  0  0
   59.3910   31.7630   47.2630 C   0  0  0  0  0  0  0  0  0  0  0  0
   58.7160   30.6690   46.7140 C   0  0  0  0  0  0  0  0  0  0  0  0
   57.7920   30.8540   45.6790 C   0  0  0  0  0  0  0  0  0  0  0  0
   57.1560   29.7070   45.0950 N   0  0  0  0  0  0  0  0  0  0  0  0
   57.1040   28.4960   45.5740 C   0  0  0  0  0  0  0  0  0  0  0  0
   58.2360   27.8290   46.0870 C   0  0  0  0  0  0  0  0  0  0  0  0
   58.1040   26.5260   46.5740 C   0  0  0  0  0  0  0  0  0  0  0  0
   56.8640   25.8900   46.5330 C   0  0  0  0  0  0  0  0  0  0  0  0
   55.7670   26.5600   45.9890 C   0  0  0  0  0  0  0  0  0  0  0  0
   54.4900   25.9120   45.9470 N   0  0  0  0  0  0  0  0  0  0  0  0
   54.2630   24.5450   45.5760 C   0  0  0  0  0  0  0  0  0  0  0  0
   53.1330   24.0390   45.8050 O   0  0  0  0  0  0  0  0  0  0  0  0
   55.3200   23.7060   44.9680 C   0  0  0  0  0  0  0  0  0  0  0  0
   55.5210   23.7210   43.5760 C   0  0  0  0  0  0  0  0  0  0  0  0
   56.5130   22.9250   42.9970 C   0  0  0  0  0  0  0  0  0  0  0  0
   57.3050   22.0990   43.7980 C   0  0  0  0  0  0  0  0  0  0  0  0
   57.1020   22.0620   45.1790 C   0  0  0  0  0  0  0  0  0  0  0  0
   56.1100   22.8550   45.7630 C   0  0  0  0  0  0  0  0  0  0  0  0
   55.9150   27.8370   45.5370 N   0  0  0  0  0  0  0  0  0  0  0  0
   57.5960   32.1430   45.1530 C   0  0  0  0  0  0  0  0  0  0  0  0
   58.2700   33.2370   45.7010 C   0  0  0  0  0  0  0  0  0  0  0  0
   59.2820   35.5620   49.2620 H   0  0  0  0  0  0  0  0  0  0  0  0
   60.1040   31.6104   48.0867 H   0  0  0  0  0  0  0  0  0  0  0  0
   58.9121   29.6569   47.0976 H   0  0  0  0  0  0  0  0  0  0  0  0
   59.2149   28.3306   46.1036 H   0  0  0  0  0  0  0  0  0  0  0  0
   58.9777   26.0025   46.9894 H   0  0  0  0  0  0  0  0  0  0  0  0
   56.7511   24.8688   46.9260 H   0  0  0  0  0  0  0  0  0  0  0  0
   54.8940   24.3628   42.9397 H   0  0  0  0  0  0  0  0  0  0  0  0
   56.6704   22.9489   41.9086 H   0  0  0  0  0  0  0  0  0  0  0  0
   58.0889   21.4774   43.3407 H   0  0  0  0  0  0  0  0  0  0  0  0
   57.7235   21.4079   45.8082 H   0  0  0  0  0  0  0  0  0  0  0  0
   55.9460   22.8136   46.8499 H   0  0  0  0  0  0  0  0  0  0  0  0
   56.9092   32.2907   44.3066 H   0  0  0  0  0  0  0  0  0  0  0  0
   58.1003   34.2451   45.2949 H   0  0  0  0  0  0  0  0  0  0  0  0
  1  2  1  0
  2  3  2  0
  2  4  2  0
  2  5  1  0
  5  6  2  0
  6  7  1  0
  7  8  2  0
  8  9  1  0
  9 10  2  3
 10 11  1  0
 11 12  2  0
 12 13  1  0
 13 14  2  0
 14 15  1  0
 15 16  1  0
 16 17  2  0
 16 18  1  0
 18 19  2  0
 19 20  1  0
 20 21  2  0
 21 22  1  0
 22 23  2  0
 14 24  1  0
  8 25  1  0
 25 26  2  0
 26  5  1  0
 24 10  1  0
 23 18  1  0
  1 27  1  0
  6 28  1  0
  7 29  1  0
 11 30  1  0
 12 31  1  0
 13 32  1  0
 19 33  1  0
 20 34  1  0
 21 35  1  0
 22 36  1  0
 23 37  1  0
 25 38  1  0
 26 39  1  0
M  CHG  3   1  -1  15  -1  24  -1
M  END
>  <UniqueID>  (53) 
47

>  <SMILES>  (53) 
[NH-]S(=O)(=O)c1ccc(N=c2cccc([N-]C(=O)c3ccccc3)[n-]2)cc1

>  <Energy>  (53) 
56.90716461708649

>  <Genealogy>  (53) 
[NH-]S(=O)(=O)c1ccc(N=c2cccc([N-]C(=O)c3ccccc3)[n-]2)cc1 (protonated)
[NH-]S(=O)(=O)c1ccc(N=c2cccc([N-]C(=O)c3ccccc3)[n-]2)cc1 (3D coordinates assigned)
[NH-]S(=O)(=O)c1ccc(N=c2cccc([N-]C(=O)c3ccccc3)[n-]2)cc1 (optimized conformer: 56.90716461708649 kcal/mol)

>  <smiles>  (53) 
NS(=O)(=O)c1ccc(N=c2cccc(NC(=O)c3ccccc3)[nH]2)cc1

>  <score_type>  (53) 
oracle

>  <origin>  (53) 
adg

>  <m_score__min__energy>  (53) 
-13.51

>  <m_primary>  (53) 
energy

$$$$
53:0
     RDKit          3D

 18 18  0  0  0  0  0  0  0  0999 V2000
   59.2575   27.2773   44.5018 H   0  0  0  0  0  0  0  0  0  0  0  0
   58.4070   26.9780   45.1320 C   0  0  0  0  0  0  0  0  0  0  0  0
   57.7780   27.8970   45.8700 C   0  0  0  0  0  0  0  0  0  0  0  0
   57.4373   27.6224   46.8792 H   0  0  0  0  0  0  0  0  0  0  0  0
   57.5230   29.2660   45.3830 C   0  0  0  0  0  0  0  0  0  0  0  0
   58.6420   30.5260   45.2710 S   0  0  0  0  0  0  0  0  0  0  0  0
   57.5090   31.6030   44.6540 C   0  0  0  0  0  0  0  0  0  0  0  0
   57.8320   33.1520   44.2540 S   0  0  0  0  0  0  0  0  0  0  0  0
   56.2880   31.0420   44.5240 N   0  0  0  0  0  0  0  0  0  0  0  0
   56.2950   29.7450   44.9290 C   0  0  0  0  0  0  0  0  0  0  0  0
   55.1470   28.9630   44.8840 O   0  0  0  0  0  0  0  0  0  0  0  0
   57.9770   25.5700   45.1510 C   0  0  0  0  0  0  0  0  0  0  0  0
   58.7192   24.7786   45.3323 H   0  0  0  0  0  0  0  0  0  0  0  0
   56.6970   25.2400   44.9510 C   0  0  0  0  0  0  0  0  0  0  0  0
   56.3858   24.8925   43.9548 H   0  0  0  0  0  0  0  0  0  0  0  0
   55.6920   25.3270   46.0210 C   0  0  0  0  0  0  0  0  0  0  0  0
   55.7220   24.5020   46.9710 O   0  0  0  0  0  0  0  0  0  0  0  0
   54.7050   26.3070   45.9990 O   0  0  0  0  0  0  0  0  0  0  0  0
  1  2  1  0
  2  3  2  0
  3  4  1  0
  3  5  1  0
  5  6  1  0
  6  7  1  0
  7  8  2  0
  7  9  1  0
  9 10  1  0
 10 11  1  0
  2 12  1  0
 12 13  1  0
 12 14  2  0
 14 15  1  0
 14 16  1  0
 16 17  2  0
 16 18  1  0
 10  5  2  0
M  CHG  3   9  -1  11  -1  18  -1
M  END
>  <UniqueID>  (54) 
48

>  <SMILES>  (54) 
O=C([O-])/C=C/C=Cc1sc(=S)[n-]c1[O-]

>  <Energy>  (54) 
42.95363093633309

>  <Genealogy>  (54) 
O=C([O-])C=CC=Cc1sc(=S)[n-]c1[O-] (protonated)
O=C([O-])/C=C/C=Cc1sc(=S)[n-]c1[O-] (cis-trans isomerization)
O=C([O-])/C=C/C=Cc1sc(=S)[n-]c1[O-] (3D coordinates assigned)
O=C([O-])/C=C/C=Cc1sc(=S)[n-]c1[O-] (optimized conformer: 42.95363093633309 kcal/mol)

>  <smiles>  (54) 
O=C(O)C=CC=Cc1sc(=S)[nH]c1O

>  <score_type>  (54) 
oracle

>  <origin>  (54) 
adg

>  <m_score__min__energy>  (54) 
-14.1

>  <m_primary>  (54) 
energy

$$$$
54:0
     RDKit          3D

 24 24  0  0  0  0  0  0  0  0999 V2000
   55.1450   27.5690   45.5070 H   0  0  0  0  0  0  0  0  0  0  0  0
   55.0700   26.7140   46.0390 O   0  0  0  0  0  0  0  0  0  0  0  0
   56.1550   25.8920   46.3490 C   0  0  0  0  0  0  0  0  0  0  0  0
   55.9020   24.5910   46.6480 N   0  0  0  0  0  0  0  0  0  0  0  0
   56.8970   23.7330   46.9840 C   0  0  0  0  0  0  0  0  0  0  0  0
   56.6280   22.5340   47.2540 O   0  0  0  0  0  0  0  0  0  0  0  0
   58.1790   24.1670   47.0360 N   0  0  0  0  0  0  0  0  0  0  0  0
   58.4980   25.4550   46.7430 C   0  0  0  0  0  0  0  0  0  0  0  0
   59.7010   25.8190   46.8150 O   0  0  0  0  0  0  0  0  0  0  0  0
   57.4890   26.3650   46.3680 C   0  0  0  0  0  0  0  0  0  0  0  0
   57.8400   27.8040   46.0500 C   0  0  0  0  0  0  0  0  0  0  0  0
   58.9240   27.8821   45.8800 H   0  0  0  0  0  0  0  0  0  0  0  0
   57.5399   28.4367   46.8983 H   0  0  0  0  0  0  0  0  0  0  0  0
   57.1150   28.2680   44.8230 C   0  0  0  0  0  0  0  0  0  0  0  0
   57.4471   27.9298   43.8304 H   0  0  0  0  0  0  0  0  0  0  0  0
   56.1060   29.0600   44.9250 N   0  0  0  0  0  0  0  0  0  0  0  0
   55.8710   30.1280   43.9810 C   0  0  0  0  0  0  0  0  0  0  0  0
   55.3824   30.9692   44.4945 H   0  0  0  0  0  0  0  0  0  0  0  0
   55.2220   29.7629   43.1713 H   0  0  0  0  0  0  0  0  0  0  0  0
   57.1770   30.5870   43.4030 C   0  0  0  0  0  0  0  0  0  0  0  0
   57.6581   29.9863   42.6171 H   0  0  0  0  0  0  0  0  0  0  0  0
   57.7690   31.7100   43.8220 C   0  0  0  0  0  0  0  0  0  0  0  0
   58.7267   32.0242   43.3815 H   0  0  0  0  0  0  0  0  0  0  0  0
   57.2984   32.3198   44.6073 H   0  0  0  0  0  0  0  0  0  0  0  0
  1  2  1  0
  2  3  1  0
  3  4  1  0
  4  5  1  0
  5  6  2  0
  5  7  1  0
  7  8  1  0
  8  9  2  0
  8 10  1  0
 10 11  1  0
 11 12  1  0
 11 13  1  0
 11 14  1  0
 14 15  1  0
 14 16  2  0
 16 17  1  0
 17 18  1  0
 17 19  1  0
 17 20  1  0
 20 21  1  0
 20 22  2  0
 22 23  1  0
 22 24  1  0
 10  3  2  0
M  CHG  2   4  -1   7  -1
M  END
>  <UniqueID>  (55) 
49

>  <SMILES>  (55) 
C=CC/N=C/Cc1c(O)[n-]c(=O)[n-]c1=O

>  <Energy>  (55) 
18.741128289616903

>  <Genealogy>  (55) 
C=CCN=CCc1c(O)[n-]c(=O)[n-]c1=O (protonated)
C=CC/N=C/Cc1c(O)[n-]c(=O)[n-]c1=O (cis-trans isomerization)
C=CC/N=C/Cc1c(O)[n-]c(=O)[n-]c1=O (3D coordinates assigned)
C=CC/N=C/Cc1c(O)[n-]c(=O)[n-]c1=O (optimized conformer: 18.741128289616903 kcal/mol)

>  <smiles>  (55) 
C=CCN=CCc1c(O)[nH]c(=O)[nH]c1=O

>  <score_type>  (55) 
oracle

>  <origin>  (55) 
adg

>  <m_score__min__energy>  (55) 
-9.9900000000000002

>  <m_primary>  (55) 
energy

$$$$
55:0
     RDKit          3D

 56 59  0  0  0  0  0  0  0  0999 V2000
   50.4580   23.9020   42.3800 C   0  0  0  0  0  0  0  0  0  0  0  0
   51.4390   23.6520   43.8400 S   0  0  0  0  0  0  0  0  0  0  0  0
   51.1290   24.7350   44.8360 O   0  0  0  0  0  0  0  0  0  0  0  0
   52.8960   23.7090   43.4710 O   0  0  0  0  0  0  0  0  0  0  0  0
   51.0580   22.0980   44.5170 N   0  0  0  0  0  0  0  0  0  0  0  0
   51.2440   22.1320   45.9650 C   0  0  0  0  0  0  0  0  0  0  0  0
   52.7130   22.1330   46.2720 C   0  0  0  0  0  0  0  0  0  0  0  0
   53.4070   20.9230   46.4250 C   0  0  0  0  0  0  0  0  0  0  0  0
   54.7760   20.9280   46.7020 C   0  0  0  0  0  0  0  0  0  0  0  0
   55.4680   22.1370   46.8020 C   0  0  0  0  0  0  0  0  0  0  0  0
   54.8020   23.3530   46.6010 C   0  0  0  0  0  0  0  0  0  0  0  0
   55.5460   24.5760   46.7320 N   0  0  0  0  0  0  0  0  0  0  0  0
   56.2530   25.1620   45.8080 C   0  0  0  0  0  0  0  0  0  0  0  0
   56.5800   26.4710   45.9560 N   0  0  0  0  0  0  0  0  0  0  0  0
   57.3330   27.1320   45.0340 C   0  0  0  0  0  0  0  0  0  0  0  0
   57.6510   28.5630   45.2570 C   0  0  0  0  0  0  0  0  0  0  0  0
   57.9950   29.0500   46.5260 C   0  0  0  0  0  0  0  0  0  0  0  0
   58.2990   30.3620   46.6970 N   0  0  0  0  0  0  0  0  0  0  0  0
   58.2950   31.2540   45.6690 C   0  0  0  0  0  0  0  0  0  0  0  0
   58.6260   32.6290   45.9370 N   0  0  0  0  0  0  0  0  0  0  0  0
   57.7060   33.7120   45.5630 C   0  0  0  0  0  0  0  0  0  0  0  0
   58.4820   34.8480   44.8900 C   0  0  0  0  0  0  0  0  0  0  0  0
   59.6420   35.3730   45.7620 C   0  0  0  0  0  0  0  0  0  0  0  0
   60.0580   34.4110   46.8900 C   0  0  0  0  0  0  0  0  0  0  0  0
   59.9650   32.9460   46.4530 C   0  0  0  0  0  0  0  0  0  0  0  0
   57.9530   30.8090   44.3750 C   0  0  0  0  0  0  0  0  0  0  0  0
   57.8530   31.7180   43.2580 C   0  0  0  0  0  0  0  0  0  0  0  0
   57.7700   32.4460   42.3620 N   0  0  0  0  0  0  0  0  0  0  0  0
   57.6430   29.4590   44.1780 C   0  0  0  0  0  0  0  0  0  0  0  0
   57.8050   26.4290   43.9120 C   0  0  0  0  0  0  0  0  0  0  0  0
   58.6190   27.0080   42.9940 F   0  0  0  0  0  0  0  0  0  0  0  0
   57.4690   25.0830   43.7790 C   0  0  0  0  0  0  0  0  0  0  0  0
   56.7060   24.4760   44.7230 N   0  0  0  0  0  0  0  0  0  0  0  0
   53.4150   23.3470   46.3570 C   0  0  0  0  0  0  0  0  0  0  0  0
   49.4297   24.1641   42.6696 H   0  0  0  0  0  0  0  0  0  0  0  0
   50.8903   24.7187   41.7832 H   0  0  0  0  0  0  0  0  0  0  0  0
   50.4467   22.9780   41.7832 H   0  0  0  0  0  0  0  0  0  0  0  0
   50.7816   23.0423   46.3744 H   0  0  0  0  0  0  0  0  0  0  0  0
   50.7711   21.2492   46.4200 H   0  0  0  0  0  0  0  0  0  0  0  0
   52.8711   19.9674   46.3265 H   0  0  0  0  0  0  0  0  0  0  0  0
   55.3107   19.9769   46.8418 H   0  0  0  0  0  0  0  0  0  0  0  0
   56.5420   22.1344   47.0399 H   0  0  0  0  0  0  0  0  0  0  0  0
   58.0187   28.3658   47.3870 H   0  0  0  0  0  0  0  0  0  0  0  0
   56.9501   33.3233   44.8647 H   0  0  0  0  0  0  0  0  0  0  0  0
   57.2138   34.0971   46.4683 H   0  0  0  0  0  0  0  0  0  0  0  0
   58.8950   34.4779   43.9400 H   0  0  0  0  0  0  0  0  0  0  0  0
   57.7816   35.6811   44.7310 H   0  0  0  0  0  0  0  0  0  0  0  0
   60.5136   35.5437   45.1131 H   0  0  0  0  0  0  0  0  0  0  0  0
   59.2875   36.2963   46.2436 H   0  0  0  0  0  0  0  0  0  0  0  0
   61.0961   34.6306   47.1801 H   0  0  0  0  0  0  0  0  0  0  0  0
   59.3706   34.5592   47.7359 H   0  0  0  0  0  0  0  0  0  0  0  0
   60.7073   32.7595   45.6630 H   0  0  0  0  0  0  0  0  0  0  0  0
   60.1609   32.3086   47.3278 H   0  0  0  0  0  0  0  0  0  0  0  0
   57.3913   29.0978   43.1699 H   0  0  0  0  0  0  0  0  0  0  0  0
   57.8227   24.5120   42.9079 H   0  0  0  0  0  0  0  0  0  0  0  0
   52.8779   24.2988   46.2322 H   0  0  0  0  0  0  0  0  0  0  0  0
  1  2  1  0
  2  3  2  0
  2  4  2  0
  2  5  1  0
  5  6  1  0
  6  7  1  0
  7  8  2  0
  8  9  1  0
  9 10  2  0
 10 11  1  0
 11 12  1  0
 12 13  2  3
 13 14  1  0
 14 15  2  0
 15 16  1  0
 16 17  2  0
 17 18  1  0
 18 19  2  0
 19 20  1  0
 20 21  1  0
 21 22  1  0
 22 23  1  0
 23 24  1  0
 24 25  1  0
 19 26  1  0
 26 27  1  0
 27 28  3  0
 26 29  2  0
 15 30  1  0
 30 31  1  0
 30 32  2  0
 32 33  1  0
 11 34  2  0
 34  7  1  0
 33 13  1  0
 29 16  1  0
 25 20  1  0
  1 35  1  0
  1 36  1  0
  1 37  1  0
  6 38  1  0
  6 39  1  0
  8 40  1  0
  9 41  1  0
 10 42  1  0
 17 43  1  0
 21 44  1  0
 21 45  1  0
 22 46  1  0
 22 47  1  0
 23 48  1  0
 23 49  1  0
 24 50  1  0
 24 51  1  0
 25 52  1  0
 25 53  1  0
 29 54  1  0
 32 55  1  0
 34 56  1  0
M  CHG  2   5  -1  33  -1
M  END
>  <UniqueID>  (56) 
50

>  <SMILES>  (56) 
CS(=O)(=O)[N-]Cc1cccc(N=c2nc(-c3cnc(N4CCCCC4)c(C#N)c3)c(F)c[n-]2)c1

>  <Energy>  (56) 
70.50437371682708

>  <Genealogy>  (56) 
CS(=O)(=O)[N-]Cc1cccc(N=c2nc(-c3cnc(N4CCCCC4)c(C#N)c3)c(F)c[n-]2)c1 (protonated)
CS(=O)(=O)[N-]Cc1cccc(N=c2nc(-c3cnc(N4CCCCC4)c(C#N)c3)c(F)c[n-]2)c1 (3D coordinates assigned)
CS(=O)(=O)[N-]Cc1cccc(N=c2nc(-c3cnc(N4CCCCC4)c(C#N)c3)c(F)c[n-]2)c1 (nonaromatic ring conformer: 70.50437371682708 kcal/mol)

>  <smiles>  (56) 
CS(=O)(=O)NCc1cccc(N=c2nc(-c3cnc(N4CCCCC4)c(C#N)c3)c(F)c[nH]2)c1

>  <score_type>  (56) 
oracle

>  <origin>  (56) 
adg

>  <m_score__min__energy>  (56) 
-12.83

>  <m_primary>  (56) 
energy

$$$$
56:0
     RDKit          3D

 37 38  0  0  0  0  0  0  0  0999 V2000
   55.6580   29.9430   44.6360 O   0  0  0  0  0  0  0  0  0  0  0  0
   56.7150   29.9520   43.9480 C   0  0  0  0  0  0  0  0  0  0  0  0
   57.0080   31.0810   43.0400 C   0  0  0  0  0  0  0  0  0  0  0  0
   57.9790   31.9920   43.2130 C   0  0  0  0  0  0  0  0  0  0  0  0
   58.2000   32.7850   44.4410 C   0  0  0  0  0  0  0  0  0  0  0  0
   57.7070   32.3550   45.6860 C   0  0  0  0  0  0  0  0  0  0  0  0
   57.9690   33.0970   46.8420 C   0  0  0  0  0  0  0  0  0  0  0  0
   58.7430   34.2580   46.7680 C   0  0  0  0  0  0  0  0  0  0  0  0
   59.0000   34.9740   47.8910 F   0  0  0  0  0  0  0  0  0  0  0  0
   59.2620   34.6740   45.5390 C   0  0  0  0  0  0  0  0  0  0  0  0
   59.0010   33.9350   44.3810 C   0  0  0  0  0  0  0  0  0  0  0  0
   57.6180   28.8340   43.9890 N   0  0  0  0  0  0  0  0  0  0  0  0
   57.4390   27.6860   44.8340 C   0  0  0  0  0  0  0  0  0  0  0  0
   56.4580   27.6170   45.6230 O   0  0  0  0  0  0  0  0  0  0  0  0
   58.3910   26.6140   44.7820 N   0  0  0  0  0  0  0  0  0  0  0  0
   58.2540   25.4010   45.5840 C   0  0  0  0  0  0  0  0  0  0  0  0
   57.7970   24.2550   44.7220 C   0  0  0  0  0  0  0  0  0  0  0  0
   58.4030   22.9920   44.8300 C   0  0  0  0  0  0  0  0  0  0  0  0
   57.9580   21.9280   44.0410 C   0  0  0  0  0  0  0  0  0  0  0  0
   56.9030   22.1140   43.1440 C   0  0  0  0  0  0  0  0  0  0  0  0
   56.2910   23.3670   43.0340 C   0  0  0  0  0  0  0  0  0  0  0  0
   56.7340   24.4340   43.8220 C   0  0  0  0  0  0  0  0  0  0  0  0
   56.3761   31.1836   42.1455 H   0  0  0  0  0  0  0  0  0  0  0  0
   58.6668   32.1624   42.3716 H   0  0  0  0  0  0  0  0  0  0  0  0
   57.1130   31.4314   45.7507 H   0  0  0  0  0  0  0  0  0  0  0  0
   57.5654   32.7664   47.8104 H   0  0  0  0  0  0  0  0  0  0  0  0
   59.8769   35.5843   45.4825 H   0  0  0  0  0  0  0  0  0  0  0  0
   59.4257   34.2569   43.4187 H   0  0  0  0  0  0  0  0  0  0  0  0
   58.4600   28.8580   43.3720 H   0  0  0  0  0  0  0  0  0  0  0  0
   59.2190   26.7030   44.1510 H   0  0  0  0  0  0  0  0  0  0  0  0
   59.2262   25.1516   46.0341 H   0  0  0  0  0  0  0  0  0  0  0  0
   57.5078   25.5756   46.3731 H   0  0  0  0  0  0  0  0  0  0  0  0
   59.2308   22.8402   45.5383 H   0  0  0  0  0  0  0  0  0  0  0  0
   58.4390   20.9424   44.1262 H   0  0  0  0  0  0  0  0  0  0  0  0
   56.5537   21.2750   42.5243 H   0  0  0  0  0  0  0  0  0  0  0  0
   55.4608   23.5131   42.3273 H   0  0  0  0  0  0  0  0  0  0  0  0
   56.2480   25.4171   43.7365 H   0  0  0  0  0  0  0  0  0  0  0  0
  1  2  2  0
  2  3  1  0
  3  4  2  3
  4  5  1  0
  5  6  2  0
  6  7  1  0
  7  8  2  0
  8  9  1  0
  8 10  1  0
 10 11  2  0
  2 12  1  0
 12 13  1  0
 13 14  2  0
 13 15  1  0
 15 16  1  0
 16 17  1  0
 17 18  2  0
 18 19  1  0
 19 20  2  0
 20 21  1  0
 21 22  2  0
 11  5  1  0
 22 17  1  0
  3 23  1  0
  4 24  1  0
  6 25  1  0
  7 26  1  0
 10 27  1  0
 11 28  1  0
 12 29  1  0
 15 30  1  0
 16 31  1  0
 16 32  1  0
 18 33  1  0
 19 34  1  0
 20 35  1  0
 21 36  1  0
 22 37  1  0
M  END
>  <UniqueID>  (57) 
51

>  <SMILES>  (57) 
O=C(C=Cc1ccc(F)cc1)NC(=O)NCc1ccccc1

>  <Energy>  (57) 
42.10070121419851

>  <Genealogy>  (57) 
O=C(C=Cc1ccc(F)cc1)NC(=O)NCc1ccccc1 (3D coordinates assigned)
O=C(C=Cc1ccc(F)cc1)NC(=O)NCc1ccccc1 (optimized conformer: 42.10070121419851 kcal/mol)

>  <smiles>  (57) 
O=C(C=Cc1ccc(F)cc1)NC(=O)NCc1ccccc1

>  <score_type>  (57) 
oracle

>  <origin>  (57) 
adg

>  <m_score__min__energy>  (57) 
-8.3100000000000005

>  <m_primary>  (57) 
energy

$$$$
57:0
     RDKit          3D

 45 47  0  0  0  0  0  0  0  0999 V2000
   55.8910   27.4740   45.6220 O   0  0  0  0  0  0  0  0  0  0  0  0
   56.1700   26.2640   45.8450 C   0  0  0  0  0  0  0  0  0  0  0  0
   57.5540   25.7640   45.5770 C   0  0  0  0  0  0  0  0  0  0  0  0
   58.4180   26.7990   44.3420 S   0  0  0  0  0  0  0  0  0  0  0  0
   59.1340   27.9480   45.5350 C   0  0  0  0  0  0  0  0  0  0  0  0
   59.7490   27.4310   46.6830 C   0  0  0  0  0  0  0  0  0  0  0  0
   60.3440   28.2910   47.6110 C   0  0  0  0  0  0  0  0  0  0  0  0
   60.3240   29.6690   47.4010 C   0  0  0  0  0  0  0  0  0  0  0  0
   59.6980   30.1950   46.2670 C   0  0  0  0  0  0  0  0  0  0  0  0
   59.0960   29.3390   45.3210 C   0  0  0  0  0  0  0  0  0  0  0  0
   58.4680   29.8530   44.1370 N   0  0  0  0  0  0  0  0  0  0  0  0
   57.3160   31.1510   44.1070 S   0  0  0  0  0  0  0  0  0  0  0  0
   57.0570   31.5520   42.6810 O   0  0  0  0  0  0  0  0  0  0  0  0
   56.0260   30.6800   44.7240 O   0  0  0  0  0  0  0  0  0  0  0  0
   57.9630   32.5360   44.9830 C   0  0  0  0  0  0  0  0  0  0  0  0
   57.7300   32.6860   46.3610 C   0  0  0  0  0  0  0  0  0  0  0  0
   58.2720   33.7780   47.0490 C   0  0  0  0  0  0  0  0  0  0  0  0
   59.0430   34.7240   46.3670 C   0  0  0  0  0  0  0  0  0  0  0  0
   59.2740   34.5810   44.9950 C   0  0  0  0  0  0  0  0  0  0  0  0
   58.7340   33.4900   44.3040 C   0  0  0  0  0  0  0  0  0  0  0  0
   55.1690   25.3650   46.3300 N   0  0  0  0  0  0  0  0  0  0  0  0
   54.3810   24.4900   45.4670 C   0  0  0  0  0  0  0  0  0  0  0  0
   55.2770   23.5130   44.7530 C   0  0  0  0  0  0  0  0  0  0  0  0
   56.2390   22.7720   45.4580 C   0  0  0  0  0  0  0  0  0  0  0  0
   57.0400   21.8490   44.7810 C   0  0  0  0  0  0  0  0  0  0  0  0
   56.8590   21.6630   43.4080 C   0  0  0  0  0  0  0  0  0  0  0  0
   55.9170   22.3820   42.7410 N   0  0  0  0  0  0  0  0  0  0  0  0
   55.1290   23.2910   43.3750 C   0  0  0  0  0  0  0  0  0  0  0  0
   58.1262   25.7771   46.5164 H   0  0  0  0  0  0  0  0  0  0  0  0
   57.4785   24.7423   45.1764 H   0  0  0  0  0  0  0  0  0  0  0  0
   59.7637   26.3446   46.8547 H   0  0  0  0  0  0  0  0  0  0  0  0
   60.8288   27.8795   48.5085 H   0  0  0  0  0  0  0  0  0  0  0  0
   60.8010   30.3428   48.1279 H   0  0  0  0  0  0  0  0  0  0  0  0
   59.6747   31.2837   46.1113 H   0  0  0  0  0  0  0  0  0  0  0  0
   57.1212   31.9446   46.8993 H   0  0  0  0  0  0  0  0  0  0  0  0
   58.0910   33.8919   48.1280 H   0  0  0  0  0  0  0  0  0  0  0  0
   59.4682   35.5812   46.9097 H   0  0  0  0  0  0  0  0  0  0  0  0
   59.8802   35.3261   44.4588 H   0  0  0  0  0  0  0  0  0  0  0  0
   58.9152   33.3808   43.2245 H   0  0  0  0  0  0  0  0  0  0  0  0
   53.6547   23.9353   46.0792 H   0  0  0  0  0  0  0  0  0  0  0  0
   53.8552   25.1036   44.7207 H   0  0  0  0  0  0  0  0  0  0  0  0
   56.3617   22.9179   46.5413 H   0  0  0  0  0  0  0  0  0  0  0  0
   57.8054   21.2745   45.3233 H   0  0  0  0  0  0  0  0  0  0  0  0
   57.4793   20.9340   42.8660 H   0  0  0  0  0  0  0  0  0  0  0  0
   54.3738   23.8536   42.8066 H   0  0  0  0  0  0  0  0  0  0  0  0
  1  2  2  0
  2  3  1  0
  3  4  1  0
  4  5  1  0
  5  6  2  0
  6  7  1  0
  7  8  2  0
  8  9  1  0
  9 10  2  0
 10 11  1  0
 11 12  1  0
 12 13  2  0
 12 14  2  0
 12 15  1  0
 15 16  2  0
 16 17  1  0
 17 18  2  0
 18 19  1  0
 19 20  2  0
  2 21  1  0
 21 22  1  0
 22 23  1  0
 23 24  2  0
 24 25  1  0
 25 26  2  0
 26 27  1  0
 27 28  2  0
 10  5  1  0
 20 15  1  0
 28 23  1  0
  3 29  1  0
  3 30  1  0
  6 31  1  0
  7 32  1  0
  8 33  1  0
  9 34  1  0
 16 35  1  0
 17 36  1  0
 18 37  1  0
 19 38  1  0
 20 39  1  0
 22 40  1  0
 22 41  1  0
 24 42  1  0
 25 43  1  0
 26 44  1  0
 28 45  1  0
M  CHG  2  11  -1  21  -1
M  END
>  <UniqueID>  (58) 
52

>  <SMILES>  (58) 
O=C(CSc1ccccc1[N-]S(=O)(=O)c1ccccc1)[N-]Cc1cccnc1

>  <Energy>  (58) 
41.584667970947365

>  <Genealogy>  (58) 
O=C(CSc1ccccc1[N-]S(=O)(=O)c1ccccc1)[N-]Cc1cccnc1 (protonated)
O=C(CSc1ccccc1[N-]S(=O)(=O)c1ccccc1)[N-]Cc1cccnc1 (3D coordinates assigned)
O=C(CSc1ccccc1[N-]S(=O)(=O)c1ccccc1)[N-]Cc1cccnc1 (optimized conformer: 41.584667970947365 kcal/mol)

>  <smiles>  (58) 
O=C(CSc1ccccc1NS(=O)(=O)c1ccccc1)NCc1cccnc1

>  <score_type>  (58) 
oracle

>  <origin>  (58) 
adg

>  <m_score__min__energy>  (58) 
-12.57

>  <m_primary>  (58) 
energy

$$$$
58:0
     RDKit          3D

 58 60  0  0  0  0  0  0  0  0999 V2000
   55.0420   24.8060   45.5890 C   0  0  0  0  0  0  0  0  0  0  0  0
   55.5170   26.0520   46.0870 O   0  0  0  0  0  0  0  0  0  0  0  0
   56.8290   26.5220   45.9270 C   0  0  0  0  0  0  0  0  0  0  0  0
   57.3940   26.4930   44.6460 C   0  0  0  0  0  0  0  0  0  0  0  0
   58.7000   26.9410   44.4370 C   0  0  0  0  0  0  0  0  0  0  0  0
   59.4540   27.4300   45.5050 C   0  0  0  0  0  0  0  0  0  0  0  0
   58.8990   27.4860   46.7930 C   0  0  0  0  0  0  0  0  0  0  0  0
   59.7220   27.9690   47.9500 C   0  0  0  0  0  0  0  0  0  0  0  0
   59.1960   29.2090   48.4110 O   0  0  0  0  0  0  0  0  0  0  0  0
   59.6430   30.4470   47.9380 C   0  0  0  0  0  0  0  0  0  0  0  0
   60.7230   31.0510   48.5020 N   0  0  0  0  0  0  0  0  0  0  0  0
   61.1770   32.2550   48.0600 C   0  0  0  0  0  0  0  0  0  0  0  0
   62.3310   32.8650   48.6770 N   0  0  0  0  0  0  0  0  0  0  0  0
   62.2310   34.1710   49.3460 C   0  0  0  0  0  0  0  0  0  0  0  0
   63.0210   34.1790   50.6660 C   0  0  0  0  0  0  0  0  0  0  0  0
   64.3680   33.4130   50.6110 C   0  0  0  0  0  0  0  0  0  0  0  0
   65.3820   34.2230   51.1850 O   0  0  0  0  0  0  0  0  0  0  0  0
   66.6620   33.6990   50.9100 C   0  0  0  0  0  0  0  0  0  0  0  0
   64.7620   33.0490   49.1700 C   0  0  0  0  0  0  0  0  0  0  0  0
   63.6490   32.2340   48.5030 C   0  0  0  0  0  0  0  0  0  0  0  0
   60.5300   32.8750   47.0370 N   0  0  0  0  0  0  0  0  0  0  0  0
   59.4430   32.3170   46.4380 C   0  0  0  0  0  0  0  0  0  0  0  0
   58.7720   33.0010   45.4180 O   0  0  0  0  0  0  0  0  0  0  0  0
   58.8940   34.4050   45.2210 C   0  0  0  0  0  0  0  0  0  0  0  0
   58.9840   31.0620   46.8670 C   0  0  0  0  0  0  0  0  0  0  0  0
   57.8370   30.4330   46.2700 N   0  0  0  0  0  0  0  0  0  0  0  0
   57.6370   30.3570   44.8490 C   0  0  0  0  0  0  0  0  0  0  0  0
   58.5530   30.7120   44.0600 O   0  0  0  0  0  0  0  0  0  0  0  0
   56.3770   29.8350   44.2990 C   0  0  0  0  0  0  0  0  0  0  0  0
   55.5030   29.0660   45.1230 N   0  0  0  0  0  0  0  0  0  0  0  0
   56.0630   30.0600   43.1000 O   0  0  0  0  0  0  0  0  0  0  0  0
   57.5920   27.0180   47.0030 C   0  0  0  0  0  0  0  0  0  0  0  0
   54.7904   24.1460   46.4323 H   0  0  0  0  0  0  0  0  0  0  0  0
   54.1450   24.9745   44.9749 H   0  0  0  0  0  0  0  0  0  0  0  0
   55.8235   24.3346   44.9749 H   0  0  0  0  0  0  0  0  0  0  0  0
   56.8046   26.1144   43.7979 H   0  0  0  0  0  0  0  0  0  0  0  0
   59.1359   26.9084   43.4276 H   0  0  0  0  0  0  0  0  0  0  0  0
   60.4858   27.7723   45.3368 H   0  0  0  0  0  0  0  0  0  0  0  0
   59.6853   27.2285   48.7626 H   0  0  0  0  0  0  0  0  0  0  0  0
   60.7658   28.1053   47.6307 H   0  0  0  0  0  0  0  0  0  0  0  0
   62.6358   34.9476   48.6803 H   0  0  0  0  0  0  0  0  0  0  0  0
   61.1725   34.3681   49.5711 H   0  0  0  0  0  0  0  0  0  0  0  0
   63.2307   35.2248   50.9351 H   0  0  0  0  0  0  0  0  0  0  0  0
   62.3960   33.6620   51.4090 H   0  0  0  0  0  0  0  0  0  0  0  0
   64.2524   32.4752   51.1741 H   0  0  0  0  0  0  0  0  0  0  0  0
   67.1820   33.4861   51.8557 H   0  0  0  0  0  0  0  0  0  0  0  0
   66.5610   32.7699   50.3299 H   0  0  0  0  0  0  0  0  0  0  0  0
   67.2415   34.4323   50.3299 H   0  0  0  0  0  0  0  0  0  0  0  0
   64.9296   33.9721   48.5957 H   0  0  0  0  0  0  0  0  0  0  0  0
   65.6819   32.4463   49.1924 H   0  0  0  0  0  0  0  0  0  0  0  0
   63.8645   32.1502   47.4276 H   0  0  0  0  0  0  0  0  0  0  0  0
   63.6191   31.2425   48.9784 H   0  0  0  0  0  0  0  0  0  0  0  0
   58.9379   34.9098   46.1973 H   0  0  0  0  0  0  0  0  0  0  0  0
   59.8140   34.6175   44.6567 H   0  0  0  0  0  0  0  0  0  0  0  0
   58.0244   34.7730   44.6567 H   0  0  0  0  0  0  0  0  0  0  0  0
   57.1990   29.8880   46.8930 H   0  0  0  0  0  0  0  0  0  0  0  0
   55.5140   28.0230   45.0890 H   0  0  0  0  0  0  0  0  0  0  0  0
   57.1605   27.0387   48.0146 H   0  0  0  0  0  0  0  0  0  0  0  0
  1  2  1  0
  2  3  1  0
  3  4  2  0
  4  5  1  0
  5  6  2  0
  6  7  1  0
  7  8  1  0
  8  9  1  0
  9 10  1  0
 10 11  2  0
 11 12  1  0
 12 13  1  0
 13 14  1  0
 14 15  1  0
 15 16  1  0
 16 17  1  0
 17 18  1  0
 16 19  1  0
 19 20  1  0
 12 21  2  0
 21 22  1  0
 22 23  1  0
 23 24  1  0
 22 25  2  0
 25 26  1  0
 26 27  1  0
 27 28  2  0
 27 29  1  0
 29 30  1  0
 29 31  2  0
  7 32  2  0
 32  3  1  0
 25 10  1  0
 20 13  1  0
  1 33  1  0
  1 34  1  0
  1 35  1  0
  4 36  1  0
  5 37  1  0
  6 38  1  0
  8 39  1  0
  8 40  1  0
 14 41  1  0
 14 42  1  0
 15 43  1  0
 15 44  1  0
 16 45  1  0
 18 46  1  0
 18 47  1  0
 18 48  1  0
 19 49  1  0
 19 50  1  0
 20 51  1  0
 20 52  1  0
 24 53  1  0
 24 54  1  0
 24 55  1  0
 26 56  1  0
 30 57  1  0
 32 58  1  0
M  CHG  1  30  -1
M  END
>  <UniqueID>  (59) 
53

>  <SMILES>  (59) 
COc1cccc(COc2nc(N3CCC(OC)CC3)nc(OC)c2NC(=O)C([NH-])=O)c1

>  <Energy>  (59) 
61.58157993478396

>  <Genealogy>  (59) 
COc1cccc(COc2nc(N3CCC(OC)CC3)nc(OC)c2NC(=O)C([NH-])=O)c1 (protonated)
COc1cccc(COc2nc(N3CCC(OC)CC3)nc(OC)c2NC(=O)C([NH-])=O)c1 (3D coordinates assigned)
COc1cccc(COc2nc(N3CCC(OC)CC3)nc(OC)c2NC(=O)C([NH-])=O)c1 (nonaromatic ring conformer: 61.58157993478396 kcal/mol)

>  <smiles>  (59) 
COc1cccc(COc2nc(N3CCC(OC)CC3)nc(OC)c2NC(=O)C(N)=O)c1

>  <score_type>  (59) 
oracle

>  <origin>  (59) 
adg

>  <m_score__min__energy>  (59) 
-10.6

>  <m_primary>  (59) 
energy

$$$$
59:0
     RDKit          3D

 22 23  0  0  0  0  0  0  0  0999 V2000
   51.3217   30.2597   53.8186 H   0  0  0  0  0  0  0  0  0  0  0  0
   52.0730   30.6210   53.1010 C   0  0  0  0  0  0  0  0  0  0  0  0
   53.3150   30.8350   53.5550 C   0  0  0  0  0  0  0  0  0  0  0  0
   53.5795   31.8601   53.8537 H   0  0  0  0  0  0  0  0  0  0  0  0
   54.3750   29.7740   53.6860 C   0  0  0  0  0  0  0  0  0  0  0  0
   54.6790   29.6898   54.7398 H   0  0  0  0  0  0  0  0  0  0  0  0
   53.9704   28.8119   53.3387 H   0  0  0  0  0  0  0  0  0  0  0  0
   55.5350   30.1300   52.8740 N   0  0  0  0  0  0  0  0  0  0  0  0
   56.5140   29.3050   52.4550 C   0  0  0  0  0  0  0  0  0  0  0  0
   56.5791   28.2422   52.7312 H   0  0  0  0  0  0  0  0  0  0  0  0
   57.4060   29.9300   51.6580 N   0  0  0  0  0  0  0  0  0  0  0  0
   56.9510   31.1980   51.5760 C   0  0  0  0  0  0  0  0  0  0  0  0
   57.4294   32.0077   51.0055 H   0  0  0  0  0  0  0  0  0  0  0  0
   55.7960   31.3230   52.3160 C   0  0  0  0  0  0  0  0  0  0  0  0
   55.1947   32.2371   52.4296 H   0  0  0  0  0  0  0  0  0  0  0  0
   51.6430   30.8350   51.7110 C   0  0  0  0  0  0  0  0  0  0  0  0
   51.9950   29.7930   50.4360 S   0  0  0  0  0  0  0  0  0  0  0  0
   51.3070   30.8200   49.2970 C   0  0  0  0  0  0  0  0  0  0  0  0
   51.2420   30.5700   48.0660 O   0  0  0  0  0  0  0  0  0  0  0  0
   50.8360   31.9610   49.8420 N   0  0  0  0  0  0  0  0  0  0  0  0
   51.0380   31.9770   51.1860 C   0  0  0  0  0  0  0  0  0  0  0  0
   50.6890   33.0770   51.9600 O   0  0  0  0  0  0  0  0  0  0  0  0
  1  2  1  0
  2  3  2  0
  3  4  1  0
  3  5  1  0
  5  6  1  0
  5  7  1  0
  5  8  1  0
  8  9  1  0
  9 10  1  0
  9 11  2  0
 11 12  1  0
 12 13  1  0
 12 14  2  0
 14 15  1  0
  2 16  1  0
 16 17  1  0
 17 18  1  0
 18 19  2  0
 18 20  1  0
 20 21  1  0
 21 22  1  0
 14  8  1  0
 21 16  2  0
M  CHG  2  20  -1  22  -1
M  END
>  <UniqueID>  (60) 
54

>  <SMILES>  (60) 
O=c1[n-]c([O-])c(/C=C\Cn2ccnc2)s1

>  <Energy>  (60) 
88.02171271953533

>  <Genealogy>  (60) 
O=c1[n-]c([O-])c(C=CCn2ccnc2)s1 (protonated)
O=c1[n-]c([O-])c(/C=C\Cn2ccnc2)s1 (cis-trans isomerization)
O=c1[n-]c([O-])c(/C=C\Cn2ccnc2)s1 (3D coordinates assigned)
O=c1[n-]c([O-])c(/C=C\Cn2ccnc2)s1 (optimized conformer: 88.02171271953533 kcal/mol)

>  <smiles>  (60) 
O=c1[nH]c(O)c(C=CCn2ccnc2)s1

>  <score_type>  (60) 
oracle

>  <origin>  (60) 
adg

>  <m_score__min__energy>  (60) 
-12.779999999999999

>  <m_primary>  (60) 
energy

$$$$
60:0
     RDKit          3D

 68 71  0  0  0  0  0  0  0  0999 V2000
   59.9030   28.8990   44.9000 O   0  0  0  0  0  0  0  0  0  0  0  0
   59.1930   28.9490   45.9400 C   0  0  0  0  0  0  0  0  0  0  0  0
   58.3540   27.8240   46.2400 N   0  0  0  0  0  0  0  0  0  0  0  0
   57.0170   27.5650   45.7220 C   0  0  0  0  0  0  0  0  0  0  0  0
   56.8020   26.0810   45.6410 C   0  0  0  0  0  0  0  0  0  0  0  0
   57.9080   25.2260   45.4930 C   0  0  0  0  0  0  0  0  0  0  0  0
   57.7290   23.8400   45.4450 C   0  0  0  0  0  0  0  0  0  0  0  0
   56.4480   23.2950   45.5530 C   0  0  0  0  0  0  0  0  0  0  0  0
   55.3420   24.1350   45.7180 C   0  0  0  0  0  0  0  0  0  0  0  0
   55.5140   25.5230   45.7720 C   0  0  0  0  0  0  0  0  0  0  0  0
   54.4020   26.3390   45.9570 O   0  0  0  0  0  0  0  0  0  0  0  0
   59.2170   30.2210   46.7630 C   0  0  1  0  0  0  0  0  0  0  0  0
   58.1250   31.2140   46.3240 C   0  0  0  0  0  0  0  0  0  0  0  0
   58.6060   32.6420   46.3810 C   0  0  0  0  0  0  0  0  0  0  0  0
   58.9770   33.2150   47.6100 C   0  0  0  0  0  0  0  0  0  0  0  0
   59.4780   34.5200   47.6560 C   0  0  0  0  0  0  0  0  0  0  0  0
   59.6140   35.2570   46.4760 C   0  0  0  0  0  0  0  0  0  0  0  0
   59.2480   34.6950   45.2490 C   0  0  0  0  0  0  0  0  0  0  0  0
   58.7480   33.3900   45.1990 C   0  0  0  0  0  0  0  0  0  0  0  0
   59.0670   29.9260   48.1870 N   0  0  0  0  0  0  0  0  0  0  0  0
   60.0590   29.3870   49.0740 C   0  0  0  0  0  0  0  0  0  0  0  0
   60.4570   28.2070   48.8760 O   0  0  0  0  0  0  0  0  0  0  0  0
   60.5600   30.1170   50.3000 C   0  0  2  0  0  0  0  0  0  0  0  0
   62.0760   30.3860   50.1910 C   0  0  0  0  0  0  0  0  0  0  0  0
   62.3580   31.5840   49.3200 C   0  0  0  0  0  0  0  0  0  0  0  0
   62.5730   31.4170   47.9430 C   0  0  0  0  0  0  0  0  0  0  0  0
   62.8900   32.5170   47.1420 C   0  0  0  0  0  0  0  0  0  0  0  0
   62.9930   33.7900   47.7080 C   0  0  0  0  0  0  0  0  0  0  0  0
   62.7770   33.9650   49.0780 C   0  0  0  0  0  0  0  0  0  0  0  0
   62.4650   32.8660   49.8840 C   0  0  0  0  0  0  0  0  0  0  0  0
   60.2560   29.3320   51.5010 N   0  0  0  0  0  0  0  0  0  0  0  0
   58.8080   29.8780   52.2990 S   0  0  0  0  0  0  0  0  0  0  0  0
   57.6260   29.5340   51.4360 O   0  0  0  0  0  0  0  0  0  0  0  0
   58.6430   29.1690   53.6150 O   0  0  0  0  0  0  0  0  0  0  0  0
   58.8440   31.6330   52.5290 C   0  0  0  0  0  0  0  0  0  0  0  0
   59.1390   32.1440   53.8020 C   0  0  0  0  0  0  0  0  0  0  0  0
   59.1870   33.5250   54.0180 C   0  0  0  0  0  0  0  0  0  0  0  0
   58.9310   34.4080   52.9650 C   0  0  0  0  0  0  0  0  0  0  0  0
   58.6220   33.9090   51.6950 C   0  0  0  0  0  0  0  0  0  0  0  0
   58.5780   32.5250   51.4690 C   0  0  0  0  0  0  0  0  0  0  0  0
   58.2660   32.0420   50.1990 O   0  0  0  0  0  0  0  0  0  0  0  0
   56.2686   28.0097   46.3944 H   0  0  0  0  0  0  0  0  0  0  0  0
   56.9139   28.0102   44.7214 H   0  0  0  0  0  0  0  0  0  0  0  0
   58.9201   25.6497   45.4145 H   0  0  0  0  0  0  0  0  0  0  0  0
   58.5988   23.1780   45.3220 H   0  0  0  0  0  0  0  0  0  0  0  0
   56.3087   22.2048   45.5083 H   0  0  0  0  0  0  0  0  0  0  0  0
   54.3339   23.7035   45.8056 H   0  0  0  0  0  0  0  0  0  0  0  0
   60.1968   30.6903   46.5904 H   0  0  0  0  0  0  0  0  0  0  0  0
   57.8266   30.9804   45.2913 H   0  0  0  0  0  0  0  0  0  0  0  0
   57.2754   31.1132   47.0154 H   0  0  0  0  0  0  0  0  0  0  0  0
   58.8729   32.6349   48.5388 H   0  0  0  0  0  0  0  0  0  0  0  0
   59.7647   34.9660   48.6198 H   0  0  0  0  0  0  0  0  0  0  0  0
   60.0103   36.2825   46.5128 H   0  0  0  0  0  0  0  0  0  0  0  0
   59.3534   35.2794   44.3231 H   0  0  0  0  0  0  0  0  0  0  0  0
   58.4651   32.9476   44.2325 H   0  0  0  0  0  0  0  0  0  0  0  0
   60.0492   31.0885   50.3719 H   0  0  0  0  0  0  0  0  0  0  0  0
   62.4804   30.5711   51.1971 H   0  0  0  0  0  0  0  0  0  0  0  0
   62.5533   29.5056   49.7360 H   0  0  0  0  0  0  0  0  0  0  0  0
   62.4916   30.4166   47.4929 H   0  0  0  0  0  0  0  0  0  0  0  0
   63.0588   32.3804   46.0636 H   0  0  0  0  0  0  0  0  0  0  0  0
   63.2440   34.6545   47.0758 H   0  0  0  0  0  0  0  0  0  0  0  0
   62.8526   34.9684   49.5224 H   0  0  0  0  0  0  0  0  0  0  0  0
   62.3028   33.0057   50.9630 H   0  0  0  0  0  0  0  0  0  0  0  0
   59.3339   31.4537   54.6359 H   0  0  0  0  0  0  0  0  0  0  0  0
   59.4265   33.9167   55.0176 H   0  0  0  0  0  0  0  0  0  0  0  0
   58.9725   35.4940   53.1347 H   0  0  0  0  0  0  0  0  0  0  0  0
   58.4125   34.6052   50.8695 H   0  0  0  0  0  0  0  0  0  0  0  0
   58.3610   31.0600   49.9640 H   0  0  0  0  0  0  0  0  0  0  0  0
  1  2  2  0
  2  3  1  0
  3  4  1  0
  4  5  1  0
  5  6  2  0
  6  7  1  0
  7  8  2  0
  8  9  1  0
  9 10  2  0
 10 11  1  0
  2 12  1  0
 12 13  1  0
 13 14  1  0
 14 15  2  0
 15 16  1  0
 16 17  2  0
 17 18  1  0
 18 19  2  0
 12 20  1  0
 20 21  1  0
 21 22  2  0
 21 23  1  0
 23 24  1  0
 24 25  1  0
 25 26  2  0
 26 27  1  0
 27 28  2  0
 28 29  1  0
 29 30  2  0
 23 31  1  0
 31 32  1  0
 32 33  2  0
 32 34  2  0
 32 35  1  0
 35 36  2  0
 36 37  1  0
 37 38  2  0
 38 39  1  0
 39 40  2  0
 40 41  1  0
 10  5  1  0
 19 14  1  0
 30 25  1  0
 40 35  1  0
  4 42  1  0
  4 43  1  0
  6 44  1  0
  7 45  1  0
  8 46  1  0
  9 47  1  0
 12 48  1  1
 13 49  1  0
 13 50  1  0
 15 51  1  0
 16 52  1  0
 17 53  1  0
 18 54  1  0
 19 55  1  0
 23 56  1  1
 24 57  1  0
 24 58  1  0
 26 59  1  0
 27 60  1  0
 28 61  1  0
 29 62  1  0
 30 63  1  0
 36 64  1  0
 37 65  1  0
 38 66  1  0
 39 67  1  0
 41 68  1  0
M  CHG  4   3  -1  11  -1  20  -1  31  -1
M  END
>  <UniqueID>  (61) 
55

>  <SMILES>  (61) 
O=C([N-][C@H](Cc1ccccc1)C(=O)[N-]Cc1ccccc1[O-])[C@H](Cc1ccccc1)[N-]S(=O)(=O)c1ccccc1O

>  <Energy>  (61) 
67.97915913523411

>  <Genealogy>  (61) 
O=C([N-]Cc1ccccc1[O-])C(Cc1ccccc1)[N-]C(=O)C(Cc1ccccc1)[N-]S(=O)(=O)c1ccccc1O (protonated)
O=C([N-][C@H](Cc1ccccc1)C(=O)[N-]Cc1ccccc1[O-])[C@H](Cc1ccccc1)[N-]S(=O)(=O)c1ccccc1O (chirality)
O=C([N-][C@H](Cc1ccccc1)C(=O)[N-]Cc1ccccc1[O-])[C@H](Cc1ccccc1)[N-]S(=O)(=O)c1ccccc1O (3D coordinates assigned)
O=C([N-][C@H](Cc1ccccc1)C(=O)[N-]Cc1ccccc1[O-])[C@H](Cc1ccccc1)[N-]S(=O)(=O)c1ccccc1O (optimized conformer: 67.97915913523411 kcal/mol)

>  <smiles>  (61) 
O=C(NCc1ccccc1O)C(Cc1ccccc1)NC(=O)C(Cc1ccccc1)NS(=O)(=O)c1ccccc1O

>  <score_type>  (61) 
oracle

>  <origin>  (61) 
adg

>  <m_score__min__energy>  (61) 
-16.940000000000001

>  <m_primary>  (61) 
energy

$$$$
61:0
     RDKit          3D

 34 35  0  0  0  0  0  0  0  0999 V2000
   53.9360   25.1440   45.6130 C   0  0  0  0  0  0  0  0  0  0  0  0
   54.7680   26.2820   45.9830 N   0  0  0  0  0  0  0  0  0  0  0  0
   56.1360   26.1750   46.3910 C   0  0  0  0  0  0  0  0  0  0  0  0
   56.4590   25.2910   47.2260 O   0  0  0  0  0  0  0  0  0  0  0  0
   57.1810   27.0500   45.8290 C   0  0  0  0  0  0  0  0  0  0  0  0
   56.8200   28.2920   45.2860 C   0  0  0  0  0  0  0  0  0  0  0  0
   57.8000   29.1540   44.7740 C   0  0  0  0  0  0  0  0  0  0  0  0
   57.3480   30.7430   44.1500 S   0  0  0  0  0  0  0  0  0  0  0  0
   57.3480   30.7030   42.6480 O   0  0  0  0  0  0  0  0  0  0  0  0
   55.9560   31.0770   44.6070 O   0  0  0  0  0  0  0  0  0  0  0  0
   58.4540   31.9850   44.6930 N   0  0  0  0  0  0  0  0  0  0  0  0
   58.0520   33.3030   44.1640 C   0  0  0  0  0  0  0  0  0  0  0  0
   58.6560   34.4350   45.0100 C   0  0  0  0  0  0  0  0  0  0  0  0
   58.2570   34.4140   46.3760 O   0  0  0  0  0  0  0  0  0  0  0  0
   57.8470   33.1320   46.8330 C   0  0  0  0  0  0  0  0  0  0  0  0
   58.6090   31.9740   46.1640 C   0  0  0  0  0  0  0  0  0  0  0  0
   59.1430   28.7530   44.7770 C   0  0  0  0  0  0  0  0  0  0  0  0
   59.5050   27.5060   45.2950 C   0  0  0  0  0  0  0  0  0  0  0  0
   58.5290   26.6510   45.8180 C   0  0  0  0  0  0  0  0  0  0  0  0
   58.9040   25.4050   46.3070 O   0  0  0  0  0  0  0  0  0  0  0  0
   53.5713   24.6452   46.5230 H   0  0  0  0  0  0  0  0  0  0  0  0
   53.0793   25.4940   45.0184 H   0  0  0  0  0  0  0  0  0  0  0  0
   54.5294   24.4339   45.0184 H   0  0  0  0  0  0  0  0  0  0  0  0
   55.7618   28.5914   45.2618 H   0  0  0  0  0  0  0  0  0  0  0  0
   58.4058   33.3990   43.1269 H   0  0  0  0  0  0  0  0  0  0  0  0
   56.9553   33.3798   44.2017 H   0  0  0  0  0  0  0  0  0  0  0  0
   59.7520   34.3505   44.9686 H   0  0  0  0  0  0  0  0  0  0  0  0
   58.2872   35.3805   44.5856 H   0  0  0  0  0  0  0  0  0  0  0  0
   58.0143   33.0786   47.9189 H   0  0  0  0  0  0  0  0  0  0  0  0
   56.7849   33.0173   46.5707 H   0  0  0  0  0  0  0  0  0  0  0  0
   59.6776   32.0636   46.4091 H   0  0  0  0  0  0  0  0  0  0  0  0
   58.1916   31.0292   46.5425 H   0  0  0  0  0  0  0  0  0  0  0  0
   59.9154   29.4222   44.3701 H   0  0  0  0  0  0  0  0  0  0  0  0
   60.5605   27.1961   45.2913 H   0  0  0  0  0  0  0  0  0  0  0  0
  1  2  1  0
  2  3  1  0
  3  4  2  0
  3  5  1  0
  5  6  2  0
  6  7  1  0
  7  8  1  0
  8  9  2  0
  8 10  2  0
  8 11  1  0
 11 12  1  0
 12 13  1  0
 13 14  1  0
 14 15  1  0
 15 16  1  0
  7 17  2  0
 17 18  1  0
 18 19  2  0
 19 20  1  0
 19  5  1  0
 16 11  1  0
  1 21  1  0
  1 22  1  0
  1 23  1  0
  6 24  1  0
 12 25  1  0
 12 26  1  0
 13 27  1  0
 13 28  1  0
 15 29  1  0
 15 30  1  0
 16 31  1  0
 16 32  1  0
 17 33  1  0
 18 34  1  0
M  CHG  2   2  -1  20  -1
M  END
>  <UniqueID>  (62) 
56

>  <SMILES>  (62) 
C[N-]C(=O)c1cc(S(=O)(=O)N2CCOCC2)ccc1[O-]

>  <Energy>  (62) 
49.53400731681342

>  <Genealogy>  (62) 
C[N-]C(=O)c1cc(S(=O)(=O)N2CCOCC2)ccc1[O-] (protonated)
C[N-]C(=O)c1cc(S(=O)(=O)N2CCOCC2)ccc1[O-] (3D coordinates assigned)
C[N-]C(=O)c1cc(S(=O)(=O)N2CCOCC2)ccc1[O-] (nonaromatic ring conformer: 49.53400731681342 kcal/mol)

>  <smiles>  (62) 
CNC(=O)c1cc(S(=O)(=O)N2CCOCC2)ccc1O

>  <score_type>  (62) 
oracle

>  <origin>  (62) 
adg

>  <m_score__min__energy>  (62) 
-13.15

>  <m_primary>  (62) 
energy

$$$$
62:0
     RDKit          3D

 60 62  0  0  0  0  0  0  0  0999 V2000
   57.8210   30.5660   46.7130 O   0  0  0  0  0  0  0  0  0  0  0  0
   58.3620   29.7520   45.9180 C   0  0  0  0  0  0  0  0  0  0  0  0
   59.1670   28.6250   46.4350 C   0  0  0  0  0  0  0  0  0  0  0  0
   58.6660   27.4480   46.8370 C   0  0  0  0  0  0  0  0  0  0  0  0
   58.4630   26.2740   45.9640 C   0  0  0  0  0  0  0  0  0  0  0  0
   57.7210   26.4090   44.7840 C   0  0  0  0  0  0  0  0  0  0  0  0
   57.4780   25.2970   43.9720 C   0  0  0  0  0  0  0  0  0  0  0  0
   57.9570   24.0340   44.3330 C   0  0  0  0  0  0  0  0  0  0  0  0
   57.6690   22.9470   43.4950 O   0  0  0  0  0  0  0  0  0  0  0  0
   56.6780   21.9810   43.7200 C   0  0  0  0  0  0  0  0  0  0  0  0
   55.8990   21.6200   42.7960 O   0  0  0  0  0  0  0  0  0  0  0  0
   56.4900   21.4370   45.1030 C   0  0  0  0  0  0  0  0  0  0  0  0
   55.3250   22.1200   45.8350 C   0  0  2  0  0  0  0  0  0  0  0  0
   54.9010   23.4030   45.1760 C   0  0  0  0  0  0  0  0  0  0  0  0
   54.4290   23.4530   44.0080 O   0  0  0  0  0  0  0  0  0  0  0  0
   55.0330   24.5920   46.0180 C   0  0  0  0  0  0  0  0  0  0  0  0
   54.7390   25.7520   45.6220 O   0  0  0  0  0  0  0  0  0  0  0  0
   55.5230   24.3480   47.3250 N   0  0  0  0  0  0  0  0  0  0  0  0
   55.8140   22.6610   47.4700 S   0  0  0  0  0  0  0  0  0  0  0  0
   57.2650   22.3960   47.7610 O   0  0  0  0  0  0  0  0  0  0  0  0
   54.9380   22.0570   48.5310 O   0  0  0  0  0  0  0  0  0  0  0  0
   58.6670   23.8900   45.5400 C   0  0  0  0  0  0  0  0  0  0  0  0
   58.9160   25.0030   46.3480 C   0  0  0  0  0  0  0  0  0  0  0  0
   58.3010   29.9890   44.4330 C   0  0  0  0  0  0  0  0  0  0  0  0
   57.2180   30.9710   44.0610 C   0  0  0  0  0  0  0  0  0  0  0  0
   56.0770   30.7850   44.4580 O   0  0  0  0  0  0  0  0  0  0  0  0
   57.5270   32.1940   43.2390 C   0  0  0  0  0  0  0  0  0  0  0  0
   58.0630   33.2990   44.1100 C   0  0  0  0  0  0  0  0  0  0  0  0
   59.2580   33.5590   44.0870 O   0  0  0  0  0  0  0  0  0  0  0  0
   57.1530   34.0890   45.0110 C   0  0  0  0  0  0  0  0  0  0  0  0
   56.9990   33.3900   46.3650 C   0  0  0  0  0  0  0  0  0  0  0  0
   58.2520   33.5430   47.1870 C   0  0  0  0  0  0  0  0  0  0  0  0
   59.2220   34.4950   46.8260 C   0  0  0  0  0  0  0  0  0  0  0  0
   60.3670   34.6630   47.6080 C   0  0  0  0  0  0  0  0  0  0  0  0
   60.5570   33.8870   48.7590 C   0  0  0  0  0  0  0  0  0  0  0  0
   61.6940   34.0540   49.5450 O   0  0  0  0  0  0  0  0  0  0  0  0
   59.5910   32.9410   49.1250 C   0  0  0  0  0  0  0  0  0  0  0  0
   59.7690   32.1670   50.2660 O   0  0  0  0  0  0  0  0  0  0  0  0
   58.4400   32.7750   48.3470 C   0  0  0  0  0  0  0  0  0  0  0  0
   60.2568   28.7620   46.4942 H   0  0  0  0  0  0  0  0  0  0  0  0
   58.3852   27.3494   47.8960 H   0  0  0  0  0  0  0  0  0  0  0  0
   57.3275   27.3946   44.4946 H   0  0  0  0  0  0  0  0  0  0  0  0
   56.9048   25.4169   43.0408 H   0  0  0  0  0  0  0  0  0  0  0  0
   56.2841   20.3585   45.0358 H   0  0  0  0  0  0  0  0  0  0  0  0
   57.4106   21.6308   45.6731 H   0  0  0  0  0  0  0  0  0  0  0  0
   54.5269   21.3630   45.8367 H   0  0  0  0  0  0  0  0  0  0  0  0
   59.0273   22.8975   45.8485 H   0  0  0  0  0  0  0  0  0  0  0  0
   59.4703   24.8816   47.2903 H   0  0  0  0  0  0  0  0  0  0  0  0
   59.2704   30.3853   44.0966 H   0  0  0  0  0  0  0  0  0  0  0  0
   58.0720   29.0300   43.9452 H   0  0  0  0  0  0  0  0  0  0  0  0
   58.2786   31.9372   42.4780 H   0  0  0  0  0  0  0  0  0  0  0  0
   56.6003   32.5405   42.7583 H   0  0  0  0  0  0  0  0  0  0  0  0
   57.5792   35.0909   45.1674 H   0  0  0  0  0  0  0  0  0  0  0  0
   56.1636   34.1673   44.5368 H   0  0  0  0  0  0  0  0  0  0  0  0
   56.1535   33.8370   46.9084 H   0  0  0  0  0  0  0  0  0  0  0  0
   56.8172   32.3190   46.1922 H   0  0  0  0  0  0  0  0  0  0  0  0
   59.0785   35.1093   45.9249 H   0  0  0  0  0  0  0  0  0  0  0  0
   61.1230   35.4079   47.3189 H   0  0  0  0  0  0  0  0  0  0  0  0
   61.8510   33.4940   50.3770 H   0  0  0  0  0  0  0  0  0  0  0  0
   57.6788   32.0392   48.6457 H   0  0  0  0  0  0  0  0  0  0  0  0
  1  2  2  0
  2  3  1  0
  3  4  2  3
  4  5  1  0
  5  6  2  0
  6  7  1  0
  7  8  2  0
  8  9  1  0
  9 10  1  0
 10 11  2  0
 10 12  1  0
 12 13  1  0
 13 14  1  0
 14 15  2  0
 14 16  1  0
 16 17  2  0
 16 18  1  0
 18 19  1  0
 19 20  2  0
 19 21  2  0
  8 22  1  0
 22 23  2  0
  2 24  1  0
 24 25  1  0
 25 26  2  0
 25 27  1  0
 27 28  1  0
 28 29  2  0
 28 30  1  0
 30 31  1  0
 31 32  1  0
 32 33  2  0
 33 34  1  0
 34 35  2  0
 35 36  1  0
 35 37  1  0
 37 38  1  0
 37 39  2  0
 23  5  1  0
 39 32  1  0
 19 13  1  0
  3 40  1  0
  4 41  1  0
  6 42  1  0
  7 43  1  0
 12 44  1  0
 12 45  1  0
 13 46  1  1
 22 47  1  0
 23 48  1  0
 24 49  1  0
 24 50  1  0
 27 51  1  0
 27 52  1  0
 30 53  1  0
 30 54  1  0
 31 55  1  0
 31 56  1  0
 33 57  1  0
 34 58  1  0
 36 59  1  0
 39 60  1  0
M  CHG  2  18  -1  38  -1
M  END
>  <UniqueID>  (63) 
57

>  <SMILES>  (63) 
O=C(C=Cc1ccc(OC(=O)C[C@@H]2C(=O)C(=O)[N-]S2(=O)=O)cc1)CC(=O)CC(=O)CCc1ccc(O)c([O-])c1

>  <Energy>  (63) 
73.05176947121082

>  <Genealogy>  (63) 
O=C(C=Cc1ccc(OC(=O)CC2C(=O)C(=O)[N-]S2(=O)=O)cc1)CC(=O)CC(=O)CCc1ccc(O)c([O-])c1 (protonated)
O=C(C=Cc1ccc(OC(=O)C[C@@H]2C(=O)C(=O)[N-]S2(=O)=O)cc1)CC(=O)CC(=O)CCc1ccc(O)c([O-])c1 (chirality)
O=C(C=Cc1ccc(OC(=O)C[C@@H]2C(=O)C(=O)[N-]S2(=O)=O)cc1)CC(=O)CC(=O)CCc1ccc(O)c([O-])c1 (3D coordinates assigned)
O=C(C=Cc1ccc(OC(=O)C[C@@H]2C(=O)C(=O)[N-]S2(=O)=O)cc1)CC(=O)CC(=O)CCc1ccc(O)c([O-])c1 (nonaromatic ring conformer: 73.05176947121082 kcal/mol)

>  <smiles>  (63) 
O=C(C=Cc1ccc(OC(=O)CC2C(=O)C(=O)NS2(=O)=O)cc1)CC(=O)CC(=O)CCc1ccc(O)c(O)c1

>  <score_type>  (63) 
oracle

>  <origin>  (63) 
adg

>  <m_score__min__energy>  (63) 
-14.33

>  <m_primary>  (63) 
energy

$$$$
63:0
     RDKit          3D

 52 55  0  0  0  0  0  0  0  0999 V2000
   59.4760   26.8250   45.6450 O   0  0  0  0  0  0  0  0  0  0  0  0
   58.5870   27.5490   45.1160 C   0  0  0  0  0  0  0  0  0  0  0  0
   57.5330   26.9390   44.3510 N   0  0  0  0  0  0  0  0  0  0  0  0
   57.2380   25.5360   44.4160 C   0  0  0  0  0  0  0  0  0  0  0  0
   57.3290   24.7260   43.2710 C   0  0  0  0  0  0  0  0  0  0  0  0
   57.0440   23.3620   43.3530 C   0  0  0  0  0  0  0  0  0  0  0  0
   56.6630   22.7950   44.5730 C   0  0  0  0  0  0  0  0  0  0  0  0
   56.5750   23.5910   45.7240 C   0  0  0  0  0  0  0  0  0  0  0  0
   56.0190   22.8990   47.2460 S   0  0  0  0  0  0  0  0  0  0  0  0
   55.8390   24.0010   48.2540 O   0  0  0  0  0  0  0  0  0  0  0  0
   57.0310   21.9250   47.7830 O   0  0  0  0  0  0  0  0  0  0  0  0
   54.4990   22.0960   47.0040 N   0  0  0  0  0  0  0  0  0  0  0  0
   53.5290   22.5840   46.2930 C   0  0  0  0  0  0  0  0  0  0  0  0
   52.4220   21.8420   46.0130 N   0  0  0  0  0  0  0  0  0  0  0  0
   51.4080   22.3460   45.2630 C   0  0  0  0  0  0  0  0  0  0  0  0
   51.4930   23.6470   44.7680 C   0  0  0  0  0  0  0  0  0  0  0  0
   52.6300   24.3980   45.0650 C   0  0  0  0  0  0  0  0  0  0  0  0
   53.6220   23.8550   45.8200 N   0  0  0  0  0  0  0  0  0  0  0  0
   56.8750   24.9580   45.6440 C   0  0  0  0  0  0  0  0  0  0  0  0
   58.6710   29.0210   45.2500 C   0  0  0  0  0  0  0  0  0  0  0  0
   59.6150   29.6170   46.1030 C   0  0  0  0  0  0  0  0  0  0  0  0
   59.6940   31.0090   46.2080 C   0  0  0  0  0  0  0  0  0  0  0  0
   58.8200   31.8300   45.4820 C   0  0  0  0  0  0  0  0  0  0  0  0
   58.9240   33.2530   45.6400 N   0  0  0  0  0  0  0  0  0  0  0  0
   59.4100   34.0950   47.0790 S   0  0  0  0  0  0  0  0  0  0  0  0
   59.2520   35.5700   46.8340 O   0  0  0  0  0  0  0  0  0  0  0  0
   58.5330   33.7270   48.2470 O   0  0  0  0  0  0  0  0  0  0  0  0
   61.0980   33.7370   47.4430 C   0  0  0  0  0  0  0  0  0  0  0  0
   61.4760   33.3560   48.7390 C   0  0  0  0  0  0  0  0  0  0  0  0
   62.8110   33.0530   49.0270 C   0  0  0  0  0  0  0  0  0  0  0  0
   63.7780   33.1380   48.0250 C   0  0  0  0  0  0  0  0  0  0  0  0
   63.4120   33.5250   46.7320 C   0  0  0  0  0  0  0  0  0  0  0  0
   62.0760   33.8200   46.4390 C   0  0  0  0  0  0  0  0  0  0  0  0
   57.8900   31.2360   44.6130 C   0  0  0  0  0  0  0  0  0  0  0  0
   57.8200   29.8450   44.4960 C   0  0  0  0  0  0  0  0  0  0  0  0
   57.0700   27.5050   43.6040 H   0  0  0  0  0  0  0  0  0  0  0  0
   57.6254   25.1679   42.3083 H   0  0  0  0  0  0  0  0  0  0  0  0
   57.1194   22.7312   42.4550 H   0  0  0  0  0  0  0  0  0  0  0  0
   56.4316   21.7211   44.6300 H   0  0  0  0  0  0  0  0  0  0  0  0
   50.5227   21.7300   45.0467 H   0  0  0  0  0  0  0  0  0  0  0  0
   50.6821   24.0710   44.1575 H   0  0  0  0  0  0  0  0  0  0  0  0
   52.7241   25.4275   44.6892 H   0  0  0  0  0  0  0  0  0  0  0  0
   56.8259   25.5821   46.5485 H   0  0  0  0  0  0  0  0  0  0  0  0
   60.2960   28.9848   46.6917 H   0  0  0  0  0  0  0  0  0  0  0  0
   60.4488   31.4640   46.8662 H   0  0  0  0  0  0  0  0  0  0  0  0
   60.7180   33.2951   49.5338 H   0  0  0  0  0  0  0  0  0  0  0  0
   63.0984   32.7476   50.0439 H   0  0  0  0  0  0  0  0  0  0  0  0
   64.8279   32.9007   48.2519 H   0  0  0  0  0  0  0  0  0  0  0  0
   64.1758   33.5976   45.9438 H   0  0  0  0  0  0  0  0  0  0  0  0
   61.7911   34.1178   45.4191 H   0  0  0  0  0  0  0  0  0  0  0  0
   57.2128   31.8693   44.0211 H   0  0  0  0  0  0  0  0  0  0  0  0
   57.0919   29.3918   43.8072 H   0  0  0  0  0  0  0  0  0  0  0  0
  1  2  2  0
  2  3  1  0
  3  4  1  0
  4  5  2  0
  5  6  1  0
  6  7  2  0
  7  8  1  0
  8  9  1  0
  9 10  2  0
  9 11  2  0
  9 12  1  0
 12 13  2  3
 13 14  1  0
 14 15  2  0
 15 16  1  0
 16 17  2  0
 17 18  1  0
  8 19  2  0
  2 20  1  0
 20 21  2  0
 21 22  1  0
 22 23  2  0
 23 24  1  0
 24 25  1  0
 25 26  2  0
 25 27  2  0
 25 28  1  0
 28 29  2  0
 29 30  1  0
 30 31  2  0
 31 32  1  0
 32 33  2  0
 23 34  1  0
 34 35  2  0
 19  4  1  0
 35 20  1  0
 18 13  1  0
 33 28  1  0
  3 36  1  0
  5 37  1  0
  6 38  1  0
  7 39  1  0
 15 40  1  0
 16 41  1  0
 17 42  1  0
 19 43  1  0
 21 44  1  0
 22 45  1  0
 29 46  1  0
 30 47  1  0
 31 48  1  0
 32 49  1  0
 33 50  1  0
 34 51  1  0
 35 52  1  0
M  CHG  2  18  -1  24  -1
M  END
>  <UniqueID>  (64) 
58

>  <SMILES>  (64) 
O=C(Nc1cccc(S(=O)(=O)N=c2nccc[n-]2)c1)c1ccc([N-]S(=O)(=O)c2ccccc2)cc1

>  <Energy>  (64) 
73.06706267555144

>  <Genealogy>  (64) 
O=C(Nc1cccc(S(=O)(=O)N=c2nccc[n-]2)c1)c1ccc([N-]S(=O)(=O)c2ccccc2)cc1 (protonated)
O=C(Nc1cccc(S(=O)(=O)N=c2nccc[n-]2)c1)c1ccc([N-]S(=O)(=O)c2ccccc2)cc1 (3D coordinates assigned)
O=C(Nc1cccc(S(=O)(=O)N=c2nccc[n-]2)c1)c1ccc([N-]S(=O)(=O)c2ccccc2)cc1 (optimized conformer: 73.06706267555144 kcal/mol)

>  <smiles>  (64) 
O=C(Nc1cccc(S(=O)(=O)N=c2nccc[nH]2)c1)c1ccc(NS(=O)(=O)c2ccccc2)cc1

>  <score_type>  (64) 
oracle

>  <origin>  (64) 
adg

>  <m_score__min__energy>  (64) 
-12.289999999999999

>  <m_primary>  (64) 
energy

$$$$
64:0
     RDKit          3D

 32 33  0  0  0  0  0  0  0  0999 V2000
   54.5960   29.8390   54.0470 O   0  0  0  0  0  0  0  0  0  0  0  0
   54.9640   29.6370   52.8570 C   0  0  0  0  0  0  0  0  0  0  0  0
   53.9570   29.7160   51.7460 C   0  0  0  0  0  0  0  0  0  0  0  0
   52.7780   30.6250   52.1140 C   0  0  0  0  0  0  0  0  0  0  0  0
   51.9250   30.9400   50.9210 C   0  0  0  0  0  0  0  0  0  0  0  0
   51.8520   30.1690   49.8210 N   0  0  0  0  0  0  0  0  0  0  0  0
   51.0280   30.8660   49.0080 C   0  0  0  0  0  0  0  0  0  0  0  0
   50.7040   30.4600   47.8610 O   0  0  0  0  0  0  0  0  0  0  0  0
   50.5840   32.0350   49.5170 N   0  0  0  0  0  0  0  0  0  0  0  0
   51.1650   32.0680   50.7270 C   0  0  0  0  0  0  0  0  0  0  0  0
   51.0090   33.1100   51.6320 O   0  0  0  0  0  0  0  0  0  0  0  0
   56.3260   29.3000   52.5690 N   0  0  0  0  0  0  0  0  0  0  0  0
   57.3040   29.0870   53.6370 C   0  0  0  0  0  0  0  0  0  0  0  0
   58.6550   29.7310   53.3000 C   0  0  0  0  0  0  0  0  0  0  0  0
   59.2000   29.2180   51.9870 C   0  0  0  0  0  0  0  0  0  0  0  0
   60.2570   28.2970   51.9660 C   0  0  0  0  0  0  0  0  0  0  0  0
   60.7640   27.8660   50.7820 N   0  0  0  0  0  0  0  0  0  0  0  0
   60.2660   28.3170   49.6040 C   0  0  0  0  0  0  0  0  0  0  0  0
   60.7500   27.9060   48.5180 O   0  0  0  0  0  0  0  0  0  0  0  0
   59.2440   29.2110   49.5940 N   0  0  0  0  0  0  0  0  0  0  0  0
   58.7030   29.6720   50.7520 C   0  0  0  0  0  0  0  0  0  0  0  0
   57.7600   30.5060   50.7060 O   0  0  0  0  0  0  0  0  0  0  0  0
   54.4486   30.1159   50.8469 H   0  0  0  0  0  0  0  0  0  0  0  0
   53.5664   28.7039   51.5640 H   0  0  0  0  0  0  0  0  0  0  0  0
   52.1600   30.1184   52.8700 H   0  0  0  0  0  0  0  0  0  0  0  0
   53.1833   31.5703   52.5041 H   0  0  0  0  0  0  0  0  0  0  0  0
   56.6080   29.1820   51.5700 H   0  0  0  0  0  0  0  0  0  0  0  0
   56.9192   29.5300   54.5674 H   0  0  0  0  0  0  0  0  0  0  0  0
   57.4577   28.0040   53.7528 H   0  0  0  0  0  0  0  0  0  0  0  0
   58.5244   30.8211   53.2315 H   0  0  0  0  0  0  0  0  0  0  0  0
   59.3693   29.4719   54.0954 H   0  0  0  0  0  0  0  0  0  0  0  0
   60.6768   27.9224   52.9112 H   0  0  0  0  0  0  0  0  0  0  0  0
  1  2  2  0
  2  3  1  0
  3  4  1  0
  4  5  1  0
  5  6  1  0
  6  7  1  0
  7  8  2  0
  7  9  1  0
  9 10  1  0
 10 11  1  0
  2 12  1  0
 12 13  1  0
 13 14  1  0
 14 15  1  0
 15 16  2  0
 16 17  1  0
 17 18  1  0
 18 19  2  0
 18 20  1  0
 20 21  1  0
 21 22  2  0
 10  5  2  0
 21 15  1  0
  3 23  1  0
  3 24  1  0
  4 25  1  0
  4 26  1  0
 12 27  1  0
 13 28  1  0
 13 29  1  0
 14 30  1  0
 14 31  1  0
 16 32  1  0
M  CHG  5   6  -1   9  -1  11  -1  17  -1  20  -1
M  END
>  <UniqueID>  (65) 
59

>  <SMILES>  (65) 
O=C(CCc1[n-]c(=O)[n-]c1[O-])NCCc1c[n-]c(=O)[n-]c1=O

>  <Energy>  (65) 
53.693064662177434

>  <Genealogy>  (65) 
O=C(CCc1[n-]c(=O)[n-]c1[O-])NCCc1c[n-]c(=O)[n-]c1=O (protonated)
O=C(CCc1[n-]c(=O)[n-]c1[O-])NCCc1c[n-]c(=O)[n-]c1=O (3D coordinates assigned)
O=C(CCc1[n-]c(=O)[n-]c1[O-])NCCc1c[n-]c(=O)[n-]c1=O (optimized conformer: 53.693064662177434 kcal/mol)

>  <smiles>  (65) 
O=C(CCc1[nH]c(=O)[nH]c1O)NCCc1c[nH]c(=O)[nH]c1=O

>  <score_type>  (65) 
oracle

>  <origin>  (65) 
adg

>  <m_score__min__energy>  (65) 
-17.129999999999999

>  <m_primary>  (65) 
energy

$$$$
65:0
     RDKit          3D

 39 41  0  0  0  0  0  0  0  0999 V2000
   58.6560   30.1050   47.5190 O   0  0  0  0  0  0  0  0  0  0  0  0
   58.9120   31.0220   48.3430 C   0  0  0  0  0  0  0  0  0  0  0  0
   59.0830   30.6760   49.7240 N   0  0  0  0  0  0  0  0  0  0  0  0
   58.2440   31.0530   50.8260 C   0  0  0  0  0  0  0  0  0  0  0  0
   58.1450   32.3860   51.2630 C   0  0  0  0  0  0  0  0  0  0  0  0
   57.3350   32.7100   52.3540 C   0  0  0  0  0  0  0  0  0  0  0  0
   56.6480   31.7050   53.0400 C   0  0  0  0  0  0  0  0  0  0  0  0
   56.7740   30.3680   52.6420 C   0  0  0  0  0  0  0  0  0  0  0  0
   55.9810   29.0850   53.5520 S   0  0  0  0  0  0  0  0  0  0  0  0
   55.8990   29.4520   55.0080 O   0  0  0  0  0  0  0  0  0  0  0  0
   56.7970   27.8300   53.4180 O   0  0  0  0  0  0  0  0  0  0  0  0
   54.3800   28.7830   52.9390 N   0  0  0  0  0  0  0  0  0  0  0  0
   53.4050   29.7150   53.5070 C   0  0  0  0  0  0  0  0  0  0  0  0
   52.6650   30.4400   52.4170 C   0  0  0  0  0  0  0  0  0  0  0  0
   52.6690   29.9510   51.1010 C   0  0  0  0  0  0  0  0  0  0  0  0
   51.9940   30.6440   50.0910 C   0  0  0  0  0  0  0  0  0  0  0  0
   51.3100   31.8270   50.3860 C   0  0  0  0  0  0  0  0  0  0  0  0
   50.6500   32.5170   49.3750 O   0  0  0  0  0  0  0  0  0  0  0  0
   51.2960   32.3170   51.6970 C   0  0  0  0  0  0  0  0  0  0  0  0
   50.6120   33.4890   51.9970 O   0  0  0  0  0  0  0  0  0  0  0  0
   51.9750   31.6300   52.7080 C   0  0  0  0  0  0  0  0  0  0  0  0
   57.5810   30.0470   51.5410 C   0  0  0  0  0  0  0  0  0  0  0  0
   58.9480   32.4190   47.8720 C   0  0  0  0  0  0  0  0  0  0  0  0
   58.1930   32.9420   46.8390 C   0  0  0  0  0  0  0  0  0  0  0  0
   58.5410   34.2720   46.7580 C   0  0  0  0  0  0  0  0  0  0  0  0
   59.4820   34.4820   47.7430 C   0  0  0  0  0  0  0  0  0  0  0  0
   59.7010   33.3610   48.3920 O   0  0  0  0  0  0  0  0  0  0  0  0
   58.7073   33.1762   50.7440 H   0  0  0  0  0  0  0  0  0  0  0  0
   57.2378   33.7580   52.6736 H   0  0  0  0  0  0  0  0  0  0  0  0
   56.0064   31.9646   53.8950 H   0  0  0  0  0  0  0  0  0  0  0  0
   52.6849   29.1544   54.1211 H   0  0  0  0  0  0  0  0  0  0  0  0
   53.9390   30.4532   54.1233 H   0  0  0  0  0  0  0  0  0  0  0  0
   53.2046   29.0200   50.8636 H   0  0  0  0  0  0  0  0  0  0  0  0
   52.0013   30.2570   49.0613 H   0  0  0  0  0  0  0  0  0  0  0  0
   51.9693   32.0223   53.7356 H   0  0  0  0  0  0  0  0  0  0  0  0
   57.6945   28.9962   51.2361 H   0  0  0  0  0  0  0  0  0  0  0  0
   57.4650   32.4068   46.2116 H   0  0  0  0  0  0  0  0  0  0  0  0
   58.1475   35.0164   46.0502 H   0  0  0  0  0  0  0  0  0  0  0  0
   59.9749   35.4426   47.9537 H   0  0  0  0  0  0  0  0  0  0  0  0
  1  2  2  0
  2  3  1  0
  3  4  1  0
  4  5  2  0
  5  6  1  0
  6  7  2  0
  7  8  1  0
  8  9  1  0
  9 10  2  0
  9 11  2  0
  9 12  1  0
 12 13  1  0
 13 14  1  0
 14 15  2  0
 15 16  1  0
 16 17  2  0
 17 18  1  0
 17 19  1  0
 19 20  1  0
 19 21  2  0
  8 22  2  0
  2 23  1  0
 23 24  2  0
 24 25  1  0
 25 26  2  0
 26 27  1  0
 22  4  1  0
 27 23  1  0
 21 14  1  0
  5 28  1  0
  6 29  1  0
  7 30  1  0
 13 31  1  0
 13 32  1  0
 15 33  1  0
 16 34  1  0
 21 35  1  0
 22 36  1  0
 24 37  1  0
 25 38  1  0
 26 39  1  0
M  CHG  4   3  -1  12  -1  18  -1  20  -1
M  END
>  <UniqueID>  (66) 
60

>  <SMILES>  (66) 
O=C([N-]c1cccc(S(=O)(=O)[N-]Cc2ccc([O-])c([O-])c2)c1)c1ccco1

>  <Energy>  (66) 
67.07489334962278

>  <Genealogy>  (66) 
O=C([N-]c1cccc(S(=O)(=O)[N-]Cc2ccc([O-])c([O-])c2)c1)c1ccco1 (protonated)
O=C([N-]c1cccc(S(=O)(=O)[N-]Cc2ccc([O-])c([O-])c2)c1)c1ccco1 (3D coordinates assigned)
O=C([N-]c1cccc(S(=O)(=O)[N-]Cc2ccc([O-])c([O-])c2)c1)c1ccco1 (optimized conformer: 67.07489334962278 kcal/mol)

>  <smiles>  (66) 
O=C(Nc1cccc(S(=O)(=O)NCc2ccc(O)c(O)c2)c1)c1ccco1

>  <score_type>  (66) 
oracle

>  <origin>  (66) 
adg

>  <m_score__min__energy>  (66) 
-18.239999999999998

>  <m_primary>  (66) 
energy

$$$$
66:0
     RDKit          3D

 62 65  0  0  0  0  0  0  0  0999 V2000
   55.1540   29.3520   44.9170 O   0  0  0  0  0  0  0  0  0  0  0  0
   56.2160   29.8940   44.5100 C   0  0  0  0  0  0  0  0  0  0  0  0
   56.5210   31.2420   44.8750 N   0  0  0  0  0  0  0  0  0  0  0  0
   57.4560   32.0710   44.1280 C   0  0  0  0  0  0  0  0  0  0  0  0
   58.0760   33.0820   45.0500 C   0  0  0  0  0  0  0  0  0  0  0  0
   59.0070   34.0180   44.5640 C   0  0  0  0  0  0  0  0  0  0  0  0
   59.5960   34.9430   45.4340 C   0  0  0  0  0  0  0  0  0  0  0  0
   59.2720   34.9300   46.7940 C   0  0  0  0  0  0  0  0  0  0  0  0
   58.3530   33.9970   47.2860 C   0  0  0  0  0  0  0  0  0  0  0  0
   57.7590   33.0740   46.4180 C   0  0  0  0  0  0  0  0  0  0  0  0
   57.1460   29.1380   43.6680 C   0  0  0  0  0  0  0  0  0  0  0  0
   56.9670   29.0870   42.4210 O   0  0  0  0  0  0  0  0  0  0  0  0
   58.2630   28.4730   44.2620 N   0  0  0  0  0  0  0  0  0  0  0  0
   59.1950   29.1480   45.1590 C   0  0  0  0  0  0  0  0  0  0  0  0
   59.5200   28.3000   46.4160 C   0  0  2  0  0  0  0  0  0  0  0  0
   59.1400   26.8350   46.2230 C   0  0  0  0  0  0  0  0  0  0  0  0
   60.1210   25.8280   46.1150 C   0  0  0  0  0  0  0  0  0  0  0  0
   59.7530   24.4880   45.9650 C   0  0  0  0  0  0  0  0  0  0  0  0
   58.4050   24.1280   45.9300 C   0  0  0  0  0  0  0  0  0  0  0  0
   57.4220   25.1060   46.0600 C   0  0  0  0  0  0  0  0  0  0  0  0
   57.7750   26.4540   46.2150 C   0  0  0  0  0  0  0  0  0  0  0  0
   56.7730   27.4140   46.3650 O   0  0  0  0  0  0  0  0  0  0  0  0
   59.0160   28.8440   47.7190 N   0  0  0  0  0  0  0  0  0  0  0  0
   59.8510   28.4900   48.8870 C   0  0  0  0  0  0  0  0  0  0  0  0
   61.1070   29.3690   48.9550 C   0  0  0  0  0  0  0  0  0  0  0  0
   60.7900   30.7600   48.6080 N   0  0  0  0  0  0  0  0  0  0  0  0
   61.8470   31.6760   48.2460 C   0  0  0  0  0  0  0  0  0  0  0  0
   61.7030   32.5360   47.1370 C   0  0  0  0  0  0  0  0  0  0  0  0
   62.7400   33.4010   46.7710 C   0  0  0  0  0  0  0  0  0  0  0  0
   63.9300   33.4160   47.5030 C   0  0  0  0  0  0  0  0  0  0  0  0
   64.0860   32.5640   48.6020 C   0  0  0  0  0  0  0  0  0  0  0  0
   63.0530   31.6940   48.9690 C   0  0  0  0  0  0  0  0  0  0  0  0
   59.3870   31.1860   48.6260 C   0  0  0  0  0  0  0  0  0  0  0  0
   58.5230   30.2480   47.7620 C   0  0  0  0  0  0  0  0  0  0  0  0
   58.2442   31.4368   43.6961 H   0  0  0  0  0  0  0  0  0  0  0  0
   56.9203   32.5913   43.3203 H   0  0  0  0  0  0  0  0  0  0  0  0
   59.2730   34.0230   43.4967 H   0  0  0  0  0  0  0  0  0  0  0  0
   60.3144   35.6808   45.0473 H   0  0  0  0  0  0  0  0  0  0  0  0
   59.7399   35.6538   47.4775 H   0  0  0  0  0  0  0  0  0  0  0  0
   58.0972   33.9889   48.3558 H   0  0  0  0  0  0  0  0  0  0  0  0
   57.0404   32.3387   46.8091 H   0  0  0  0  0  0  0  0  0  0  0  0
   60.1299   29.3458   44.6142 H   0  0  0  0  0  0  0  0  0  0  0  0
   58.7214   30.0819   45.4961 H   0  0  0  0  0  0  0  0  0  0  0  0
   60.6138   28.3695   46.5096 H   0  0  0  0  0  0  0  0  0  0  0  0
   61.1864   26.0997   46.1491 H   0  0  0  0  0  0  0  0  0  0  0  0
   60.5291   23.7138   45.8741 H   0  0  0  0  0  0  0  0  0  0  0  0
   58.1195   23.0737   45.8000 H   0  0  0  0  0  0  0  0  0  0  0  0
   56.3604   24.8186   46.0409 H   0  0  0  0  0  0  0  0  0  0  0  0
   56.8070   28.3010   45.8760 H   0  0  0  0  0  0  0  0  0  0  0  0
   59.2627   28.6323   49.8055 H   0  0  0  0  0  0  0  0  0  0  0  0
   60.1642   27.4403   48.7872 H   0  0  0  0  0  0  0  0  0  0  0  0
   61.5152   29.3362   49.9759 H   0  0  0  0  0  0  0  0  0  0  0  0
   61.8448   28.9856   48.2348 H   0  0  0  0  0  0  0  0  0  0  0  0
   60.7690   32.5264   46.5560 H   0  0  0  0  0  0  0  0  0  0  0  0
   62.6183   34.0698   45.9062 H   0  0  0  0  0  0  0  0  0  0  0  0
   64.7442   34.0975   47.2154 H   0  0  0  0  0  0  0  0  0  0  0  0
   65.0226   32.5781   49.1787 H   0  0  0  0  0  0  0  0  0  0  0  0
   63.1853   31.0201   49.8283 H   0  0  0  0  0  0  0  0  0  0  0  0
   59.0168   31.1664   49.6616 H   0  0  0  0  0  0  0  0  0  0  0  0
   59.3211   32.2050   48.2169 H   0  0  0  0  0  0  0  0  0  0  0  0
   57.5015   30.2442   48.1700 H   0  0  0  0  0  0  0  0  0  0  0  0
   58.5647   30.6330   46.7324 H   0  0  0  0  0  0  0  0  0  0  0  0
  1  2  2  0
  2  3  1  0
  3  4  1  0
  4  5  1  0
  5  6  2  0
  6  7  1  0
  7  8  2  0
  8  9  1  0
  9 10  2  0
  2 11  1  0
 11 12  2  0
 11 13  1  0
 13 14  1  0
 14 15  1  0
 15 16  1  0
 16 17  2  0
 17 18  1  0
 18 19  2  0
 19 20  1  0
 20 21  2  0
 21 22  1  0
 15 23  1  0
 23 24  1  0
 24 25  1  0
 25 26  1  0
 26 27  1  0
 27 28  2  0
 28 29  1  0
 29 30  2  0
 30 31  1  0
 31 32  2  0
 26 33  1  0
 33 34  1  0
 10  5  1  0
 21 16  1  0
 34 23  1  0
 32 27  1  0
  4 35  1  0
  4 36  1  0
  6 37  1  0
  7 38  1  0
  8 39  1  0
  9 40  1  0
 10 41  1  0
 14 42  1  0
 14 43  1  0
 15 44  1  1
 17 45  1  0
 18 46  1  0
 19 47  1  0
 20 48  1  0
 22 49  1  0
 24 50  1  0
 24 51  1  0
 25 52  1  0
 25 53  1  0
 28 54  1  0
 29 55  1  0
 30 56  1  0
 31 57  1  0
 32 58  1  0
 33 59  1  0
 33 60  1  0
 34 61  1  0
 34 62  1  0
M  CHG  2   3  -1  13  -1
M  END
>  <UniqueID>  (67) 
61

>  <SMILES>  (67) 
O=C([N-]Cc1ccccc1)C(=O)[N-]C[C@H](c1ccccc1O)N1CCN(c2ccccc2)CC1

>  <Energy>  (67) 
81.53197430566131

>  <Genealogy>  (67) 
O=C([N-]Cc1ccccc1)C(=O)[N-]CC(c1ccccc1O)N1CCN(c2ccccc2)CC1 (protonated)
O=C([N-]Cc1ccccc1)C(=O)[N-]C[C@H](c1ccccc1O)N1CCN(c2ccccc2)CC1 (chirality)
O=C([N-]Cc1ccccc1)C(=O)[N-]C[C@H](c1ccccc1O)N1CCN(c2ccccc2)CC1 (3D coordinates assigned)
O=C([N-]Cc1ccccc1)C(=O)[N-]C[C@H](c1ccccc1O)N1CCN(c2ccccc2)CC1 (nonaromatic ring conformer: 81.53197430566131 kcal/mol)

>  <smiles>  (67) 
O=C(NCc1ccccc1)C(=O)NCC(c1ccccc1O)N1CCN(c2ccccc2)CC1

>  <score_type>  (67) 
oracle

>  <origin>  (67) 
adg

>  <m_score__min__energy>  (67) 
-12.960000000000001

>  <m_primary>  (67) 
energy

$$$$
67:0
     RDKit          3D

 53 57  0  0  0  0  0  0  0  0999 V2000
   54.7690   26.7030   45.2000 H   0  0  0  0  0  0  0  0  0  0  0  0
   55.2810   26.2490   45.9910 N   0  0  0  0  0  0  0  0  0  0  0  0
   54.8890   24.5690   45.9460 S   0  0  0  0  0  0  0  0  0  0  0  0
   54.7370   24.0650   47.3570 O   0  0  0  0  0  0  0  0  0  0  0  0
   53.5830   24.4160   45.2140 O   0  0  0  0  0  0  0  0  0  0  0  0
   56.1730   23.6630   45.1190 C   0  0  0  0  0  0  0  0  0  0  0  0
   55.8400   22.4510   44.4940 C   0  0  0  0  0  0  0  0  0  0  0  0
   54.7933   22.1127   44.4871 H   0  0  0  0  0  0  0  0  0  0  0  0
   56.8200   21.6710   43.8820 C   0  0  0  0  0  0  0  0  0  0  0  0
   56.5444   20.7221   43.3986 H   0  0  0  0  0  0  0  0  0  0  0  0
   58.1480   22.0920   43.8820 C   0  0  0  0  0  0  0  0  0  0  0  0
   58.9218   21.4703   43.4080 H   0  0  0  0  0  0  0  0  0  0  0  0
   58.4970   23.3020   44.4830 C   0  0  0  0  0  0  0  0  0  0  0  0
   59.5469   23.6302   44.4776 H   0  0  0  0  0  0  0  0  0  0  0  0
   57.5200   24.1050   45.0950 C   0  0  0  0  0  0  0  0  0  0  0  0
   57.9450   25.3880   45.6930 C   0  0  0  0  0  0  0  0  0  0  0  0
   57.8080   25.5970   47.0710 C   0  0  0  0  0  0  0  0  0  0  0  0
   57.3718   24.8102   47.7040 H   0  0  0  0  0  0  0  0  0  0  0  0
   58.2230   26.8000   47.6440 C   0  0  0  0  0  0  0  0  0  0  0  0
   58.0982   26.9588   48.7253 H   0  0  0  0  0  0  0  0  0  0  0  0
   58.7980   27.8100   46.8560 C   0  0  0  0  0  0  0  0  0  0  0  0
   59.2030   29.0390   47.4880 N   0  0  0  0  0  0  0  0  0  0  0  0
   58.9210   29.9300   47.0220 H   0  0  0  0  0  0  0  0  0  0  0  0
   59.8170   29.1480   48.7840 C   0  0  0  0  0  0  0  0  0  0  0  0
   60.0720   28.1230   49.4670 O   0  0  0  0  0  0  0  0  0  0  0  0
   60.1390   30.4990   49.3530 C   0  0  0  0  0  0  0  0  0  0  0  0
   59.3923   30.7570   50.1184 H   0  0  0  0  0  0  0  0  0  0  0  0
   61.1437   30.4672   49.7998 H   0  0  0  0  0  0  0  0  0  0  0  0
   60.1200   31.5390   48.2750 C   0  0  0  0  0  0  0  0  0  0  0  0
   58.9520   32.0280   47.7760 N   0  0  0  0  0  0  0  0  0  0  0  0
   59.1700   32.9230   46.7910 C   0  0  0  0  0  0  0  0  0  0  0  0
   57.8550   33.7670   45.9220 S   0  0  0  0  0  0  0  0  0  0  0  0
   58.3920   33.1510   44.3220 C   0  0  0  0  0  0  0  0  0  0  0  0
   59.1370   33.7301   43.7567 H   0  0  0  0  0  0  0  0  0  0  0  0
   57.9200   32.0100   43.7870 C   0  0  0  0  0  0  0  0  0  0  0  0
   57.1320   31.9680   42.5240 C   0  0  0  0  0  0  0  0  0  0  0  0
   56.2397   32.6044   42.6177 H   0  0  0  0  0  0  0  0  0  0  0  0
   57.7341   32.3391   41.6815 H   0  0  0  0  0  0  0  0  0  0  0  0
   56.6360   30.2460   42.2410 S   0  0  0  0  0  0  0  0  0  0  0  0
   57.4870   29.6430   43.7410 C   0  0  2  0  0  0  0  0  0  0  0  0
   58.0659   28.8001   43.3356 H   0  0  0  0  0  0  0  0  0  0  0  0
   56.5420   29.4720   44.8870 C   0  0  0  0  0  0  0  0  0  0  0  0
   55.5620   28.7240   45.1340 O   0  0  0  0  0  0  0  0  0  0  0  0
   57.2410   30.5550   45.6120 N   0  0  0  0  0  0  0  0  0  0  0  0
   58.1250   30.6970   44.4750 C   0  0  2  0  0  0  0  0  0  0  0  0
   59.2111   30.6566   44.6443 H   0  0  0  0  0  0  0  0  0  0  0  0
   60.8090   33.1420   46.4960 S   0  0  0  0  0  0  0  0  0  0  0  0
   61.2770   32.0470   47.6840 C   0  0  0  0  0  0  0  0  0  0  0  0
   62.3108   31.7793   47.9478 H   0  0  0  0  0  0  0  0  0  0  0  0
   58.9150   27.6050   45.4690 C   0  0  0  0  0  0  0  0  0  0  0  0
   59.3249   28.4016   44.8307 H   0  0  0  0  0  0  0  0  0  0  0  0
   58.5130   26.3940   44.8980 C   0  0  0  0  0  0  0  0  0  0  0  0
   58.6430   26.2291   43.8182 H   0  0  0  0  0  0  0  0  0  0  0  0
  1  2  1  0
  2  3  1  0
  3  4  2  0
  3  5  2  0
  3  6  1  0
  6  7  2  0
  7  8  1  0
  7  9  1  0
  9 10  1  0
  9 11  2  0
 11 12  1  0
 11 13  1  0
 13 14  1  0
 13 15  2  0
 15 16  1  0
 16 17  2  0
 17 18  1  0
 17 19  1  0
 19 20  1  0
 19 21  2  0
 21 22  1  0
 22 23  1  0
 22 24  1  0
 24 25  2  0
 24 26  1  0
 26 27  1  0
 26 28  1  0
 26 29  1  0
 29 30  1  0
 30 31  2  0
 31 32  1  0
 32 33  1  0
 33 34  1  0
 33 35  2  0
 35 36  1  0
 36 37  1  0
 36 38  1  0
 36 39  1  0
 39 40  1  0
 40 41  1  6
 40 42  1  0
 42 43  2  0
 42 44  1  0
 44 45  1  0
 45 46  1  1
 31 47  1  0
 47 48  1  0
 48 49  1  0
 21 50  1  0
 50 51  1  0
 50 52  2  0
 52 53  1  0
 15  6  1  0
 52 16  1  0
 48 29  2  0
 45 35  1  0
 45 40  1  0
M  CHG  2   2  -1  44  -1
M  END
>  <UniqueID>  (68) 
62

>  <SMILES>  (68) 
[NH-]S(=O)(=O)c1ccccc1-c1ccc(NC(=O)Cc2csc(S/C=C3\CS[C@@H]4C(=O)[N-][C@H]34)n2)cc1

>  <Energy>  (68) 
125.49653797300886

>  <Genealogy>  (68) 
[NH-]S(=O)(=O)c1ccccc1-c1ccc(NC(=O)Cc2csc(SC=C3CSC4C(=O)[N-]C34)n2)cc1 (protonated)
[NH-]S(=O)(=O)c1ccccc1-c1ccc(NC(=O)Cc2csc(SC=C3CS[C@@H]4C(=O)[N-][C@H]34)n2)cc1 (chirality)
[NH-]S(=O)(=O)c1ccccc1-c1ccc(NC(=O)Cc2csc(S/C=C3\CS[C@@H]4C(=O)[N-][C@H]34)n2)cc1 (cis-trans isomerization)
[NH-]S(=O)(=O)c1ccccc1-c1ccc(NC(=O)Cc2csc(S/C=C3\CS[C@@H]4C(=O)[N-][C@H]34)n2)cc1 (3D coordinates assigned)
[NH-]S(=O)(=O)c1ccccc1-c1ccc(NC(=O)Cc2csc(S/C=C3\CS[C@@H]4C(=O)[N-][C@H]34)n2)cc1 (nonaromatic ring conformer: 125.49653797300886 kcal/mol)

>  <smiles>  (68) 
NS(=O)(=O)c1ccccc1-c1ccc(NC(=O)Cc2csc(SC=C3CSC4C(=O)NC34)n2)cc1

>  <score_type>  (68) 
oracle

>  <origin>  (68) 
adg

>  <m_score__min__energy>  (68) 
-15.02

>  <m_primary>  (68) 
energy

$$$$
68:0
     RDKit          3D

 53 56  0  0  0  0  0  0  0  0999 V2000
   55.1940   29.3160   44.8740 O   0  0  0  0  0  0  0  0  0  0  0  0
   56.2910   29.8660   44.5820 C   0  0  0  0  0  0  0  0  0  0  0  0
   57.3810   29.0260   43.9770 C   0  0  0  0  0  0  0  0  0  0  0  0
   58.2660   28.4670   45.0580 C   0  0  0  0  0  0  0  0  0  0  0  0
   58.8570   27.2030   44.9070 C   0  0  0  0  0  0  0  0  0  0  0  0
   59.6410   26.6650   45.9320 C   0  0  0  0  0  0  0  0  0  0  0  0
   59.8390   27.3830   47.1140 C   0  0  0  0  0  0  0  0  0  0  0  0
   59.2550   28.6460   47.2770 C   0  0  0  0  0  0  0  0  0  0  0  0
   59.4730   29.5460   48.7730 S   0  0  0  0  0  0  0  0  0  0  0  0
   59.8830   28.6130   49.8760 O   0  0  0  0  0  0  0  0  0  0  0  0
   58.1850   30.2120   49.1720 O   0  0  0  0  0  0  0  0  0  0  0  0
   60.6920   30.7540   48.5420 N   0  0  0  0  0  0  0  0  0  0  0  0
   60.8520   31.9340   49.3760 C   0  0  0  0  0  0  0  0  0  0  0  0
   61.8610   32.8410   48.6120 C   0  0  1  0  0  0  0  0  0  0  0  0
   63.1260   33.0840   49.4030 C   0  0  0  0  0  0  0  0  0  0  0  0
   63.1260   33.9470   50.5150 C   0  0  0  0  0  0  0  0  0  0  0  0
   64.3030   34.1670   51.2390 C   0  0  0  0  0  0  0  0  0  0  0  0
   65.4880   33.5290   50.8620 C   0  0  0  0  0  0  0  0  0  0  0  0
   65.4980   32.6710   49.7580 C   0  0  0  0  0  0  0  0  0  0  0  0
   64.3260   32.4500   49.0290 C   0  0  0  0  0  0  0  0  0  0  0  0
   62.1730   32.1500   47.3610 N   0  0  0  0  0  0  0  0  0  0  0  0
   61.4470   30.9420   47.3660 C   0  0  0  0  0  0  0  0  0  0  0  0
   61.4640   30.1250   46.4090 O   0  0  0  0  0  0  0  0  0  0  0  0
   58.4630   29.1820   46.2520 C   0  0  0  0  0  0  0  0  0  0  0  0
   56.4320   31.2760   44.8060 N   0  0  0  0  0  0  0  0  0  0  0  0
   57.4380   32.1500   44.2080 C   0  0  0  0  0  0  0  0  0  0  0  0
   58.0860   33.0130   45.2570 C   0  0  0  0  0  0  0  0  0  0  0  0
   58.8960   34.0960   44.8770 C   0  0  0  0  0  0  0  0  0  0  0  0
   59.5150   34.8890   45.8500 C   0  0  0  0  0  0  0  0  0  0  0  0
   59.3350   34.6000   47.2090 C   0  0  0  0  0  0  0  0  0  0  0  0
   58.5410   33.5170   47.5940 C   0  0  0  0  0  0  0  0  0  0  0  0
   57.9230   32.7200   46.6250 C   0  0  0  0  0  0  0  0  0  0  0  0
   56.9298   28.1971   43.4118 H   0  0  0  0  0  0  0  0  0  0  0  0
   57.9864   29.6524   43.3054 H   0  0  0  0  0  0  0  0  0  0  0  0
   58.7028   26.6334   43.9787 H   0  0  0  0  0  0  0  0  0  0  0  0
   60.1028   25.6744   45.8075 H   0  0  0  0  0  0  0  0  0  0  0  0
   60.4551   26.9555   47.9188 H   0  0  0  0  0  0  0  0  0  0  0  0
   59.8889   32.4501   49.5027 H   0  0  0  0  0  0  0  0  0  0  0  0
   61.2106   31.6790   50.3842 H   0  0  0  0  0  0  0  0  0  0  0  0
   61.4156   33.8313   48.4362 H   0  0  0  0  0  0  0  0  0  0  0  0
   62.1959   34.4511   50.8164 H   0  0  0  0  0  0  0  0  0  0  0  0
   64.2956   34.8433   52.1065 H   0  0  0  0  0  0  0  0  0  0  0  0
   66.4120   33.7017   51.4333 H   0  0  0  0  0  0  0  0  0  0  0  0
   66.4308   32.1685   49.4623 H   0  0  0  0  0  0  0  0  0  0  0  0
   64.3414   31.7774   48.1588 H   0  0  0  0  0  0  0  0  0  0  0  0
   57.9930   30.1679   46.3829 H   0  0  0  0  0  0  0  0  0  0  0  0
   58.2083   31.5336   43.7215 H   0  0  0  0  0  0  0  0  0  0  0  0
   56.9465   32.8007   43.4697 H   0  0  0  0  0  0  0  0  0  0  0  0
   59.0443   34.3216   43.8107 H   0  0  0  0  0  0  0  0  0  0  0  0
   60.1433   35.7398   45.5475 H   0  0  0  0  0  0  0  0  0  0  0  0
   59.8190   35.2260   47.9731 H   0  0  0  0  0  0  0  0  0  0  0  0
   58.4016   33.2906   48.6614 H   0  0  0  0  0  0  0  0  0  0  0  0
   57.3076   31.8616   46.9323 H   0  0  0  0  0  0  0  0  0  0  0  0
  1  2  2  0
  2  3  1  0
  3  4  1  0
  4  5  2  0
  5  6  1  0
  6  7  2  0
  7  8  1  0
  8  9  1  0
  9 10  2  0
  9 11  2  0
  9 12  1  0
 12 13  1  0
 13 14  1  0
 14 15  1  0
 15 16  2  0
 16 17  1  0
 17 18  2  0
 18 19  1  0
 19 20  2  0
 14 21  1  0
 21 22  1  0
 22 23  2  0
  8 24  2  0
  2 25  1  0
 25 26  1  0
 26 27  1  0
 27 28  2  0
 28 29  1  0
 29 30  2  0
 30 31  1  0
 31 32  2  0
 24  4  1  0
 32 27  1  0
 22 12  1  0
 20 15  1  0
  3 33  1  0
  3 34  1  0
  5 35  1  0
  6 36  1  0
  7 37  1  0
 13 38  1  0
 13 39  1  0
 14 40  1  6
 16 41  1  0
 17 42  1  0
 18 43  1  0
 19 44  1  0
 20 45  1  0
 24 46  1  0
 26 47  1  0
 26 48  1  0
 28 49  1  0
 29 50  1  0
 30 51  1  0
 31 52  1  0
 32 53  1  0
M  CHG  2  21  -1  25  -1
M  END
>  <UniqueID>  (69) 
63

>  <SMILES>  (69) 
O=C(Cc1cccc(S(=O)(=O)N2C[C@@H](c3ccccc3)[N-]C2=O)c1)[N-]Cc1ccccc1

>  <Energy>  (69) 
70.09998219057705

>  <Genealogy>  (69) 
O=C(Cc1cccc(S(=O)(=O)N2CC(c3ccccc3)[N-]C2=O)c1)[N-]Cc1ccccc1 (protonated)
O=C(Cc1cccc(S(=O)(=O)N2C[C@@H](c3ccccc3)[N-]C2=O)c1)[N-]Cc1ccccc1 (chirality)
O=C(Cc1cccc(S(=O)(=O)N2C[C@@H](c3ccccc3)[N-]C2=O)c1)[N-]Cc1ccccc1 (3D coordinates assigned)
O=C(Cc1cccc(S(=O)(=O)N2C[C@@H](c3ccccc3)[N-]C2=O)c1)[N-]Cc1ccccc1 (nonaromatic ring conformer: 70.09998219057705 kcal/mol)

>  <smiles>  (69) 
O=C(Cc1cccc(S(=O)(=O)N2CC(c3ccccc3)NC2=O)c1)NCc1ccccc1

>  <score_type>  (69) 
oracle

>  <origin>  (69) 
adg

>  <m_score__min__energy>  (69) 
-13.859999999999999

>  <m_primary>  (69) 
energy

$$$$
69:0
     RDKit          3D

 34 35  0  0  0  0  0  0  0  0999 V2000
   56.5170   30.6630   44.8660 O   0  0  0  0  0  0  0  0  0  0  0  0
   56.6520   29.4280   45.0690 C   0  0  0  0  0  0  0  0  0  0  0  0
   55.5280   28.6320   45.2460 O   0  0  0  0  0  0  0  0  0  0  0  0
   58.0150   28.8150   45.1300 C   0  0  0  0  0  0  0  0  0  0  0  0
   58.9570   29.7480   45.6580 O   0  0  0  0  0  0  0  0  0  0  0  0
   58.9480   30.2740   46.9620 C   0  0  0  0  0  0  0  0  0  0  0  0
   59.3260   29.5080   48.0830 C   0  0  0  0  0  0  0  0  0  0  0  0
   59.2980   30.0660   49.3630 C   0  0  0  0  0  0  0  0  0  0  0  0
   58.8810   31.3830   49.5430 C   0  0  0  0  0  0  0  0  0  0  0  0
   58.4990   32.1520   48.4430 C   0  0  0  0  0  0  0  0  0  0  0  0
   58.5490   31.6130   47.1450 C   0  0  0  0  0  0  0  0  0  0  0  0
   58.1720   32.4070   46.0050 N   0  0  0  0  0  0  0  0  0  0  0  0
   58.0890   33.8420   46.0150 C   0  0  0  0  0  0  0  0  0  0  0  0
   57.0250   34.5850   45.0180 S   0  0  0  0  0  0  0  0  0  0  0  0
   58.9040   34.6420   46.8870 N   0  0  0  0  0  0  0  0  0  0  0  0
   60.2310   34.2840   47.3080 C   0  0  0  0  0  0  0  0  0  0  0  0
   61.1340   33.7640   46.3670 C   0  0  0  0  0  0  0  0  0  0  0  0
   62.4320   33.4160   46.7510 C   0  0  0  0  0  0  0  0  0  0  0  0
   62.8330   33.5680   48.0800 C   0  0  0  0  0  0  0  0  0  0  0  0
   61.9350   34.0620   49.0300 C   0  0  0  0  0  0  0  0  0  0  0  0
   62.3310   34.1960   50.3550 O   0  0  0  0  0  0  0  0  0  0  0  0
   60.6360   34.4160   48.6490 C   0  0  0  0  0  0  0  0  0  0  0  0
   57.9839   27.9259   45.7769 H   0  0  0  0  0  0  0  0  0  0  0  0
   58.3247   28.5320   44.1132 H   0  0  0  0  0  0  0  0  0  0  0  0
   59.6451   28.4639   47.9489 H   0  0  0  0  0  0  0  0  0  0  0  0
   59.6059   29.4643   50.2309 H   0  0  0  0  0  0  0  0  0  0  0  0
   58.8528   31.8172   50.5533 H   0  0  0  0  0  0  0  0  0  0  0  0
   58.1565   33.1866   48.5921 H   0  0  0  0  0  0  0  0  0  0  0  0
   57.9150   31.9130   45.1200 H   0  0  0  0  0  0  0  0  0  0  0  0
   58.5080   35.5490   47.2290 H   0  0  0  0  0  0  0  0  0  0  0  0
   60.8182   33.6298   45.3219 H   0  0  0  0  0  0  0  0  0  0  0  0
   63.1385   33.0220   46.0056 H   0  0  0  0  0  0  0  0  0  0  0  0
   63.8566   33.2986   48.3793 H   0  0  0  0  0  0  0  0  0  0  0  0
   59.9293   34.7986   49.4001 H   0  0  0  0  0  0  0  0  0  0  0  0
  1  2  2  0
  2  3  1  0
  2  4  1  0
  4  5  1  0
  5  6  1  0
  6  7  2  0
  7  8  1  0
  8  9  2  0
  9 10  1  0
 10 11  2  0
 11 12  1  0
 12 13  1  0
 13 14  2  0
 13 15  1  0
 15 16  1  0
 16 17  2  0
 17 18  1  0
 18 19  2  0
 19 20  1  0
 20 21  1  0
 20 22  2  0
 11  6  1  0
 22 16  1  0
  4 23  1  0
  4 24  1  0
  7 25  1  0
  8 26  1  0
  9 27  1  0
 10 28  1  0
 12 29  1  0
 15 30  1  0
 17 31  1  0
 18 32  1  0
 19 33  1  0
 22 34  1  0
M  CHG  2   3  -1  21  -1
M  END
>  <UniqueID>  (70) 
64

>  <SMILES>  (70) 
O=C([O-])COc1ccccc1NC(=S)Nc1cccc([O-])c1

>  <Energy>  (70) 
40.180007211683524

>  <Genealogy>  (70) 
O=C([O-])COc1ccccc1NC(=S)Nc1cccc([O-])c1 (protonated)
O=C([O-])COc1ccccc1NC(=S)Nc1cccc([O-])c1 (3D coordinates assigned)
O=C([O-])COc1ccccc1NC(=S)Nc1cccc([O-])c1 (optimized conformer: 40.180007211683524 kcal/mol)

>  <smiles>  (70) 
O=C(O)COc1ccccc1NC(=S)Nc1cccc(O)c1

>  <score_type>  (70) 
oracle

>  <origin>  (70) 
adg

>  <m_score__min__energy>  (70) 
-10.81

>  <m_primary>  (70) 
energy

$$$$
70:0
     RDKit          3D

 75 79  0  0  0  0  0  0  0  0999 V2000
   57.7540   21.5280   46.3170 O   0  0  0  0  0  0  0  0  0  0  0  0
   56.8960   21.7350   47.2150 C   0  0  0  0  0  0  0  0  0  0  0  0
   57.2560   21.6370   48.5230 N   0  0  0  0  0  0  0  0  0  0  0  0
   56.3700   21.8700   49.5300 C   0  0  0  0  0  0  0  0  0  0  0  0
   55.0550   22.2310   49.2320 C   0  0  0  0  0  0  0  0  0  0  0  0
   54.6590   22.3360   47.8970 C   0  0  0  0  0  0  0  0  0  0  0  0
   55.5770   22.0780   46.8740 C   0  0  0  0  0  0  0  0  0  0  0  0
   55.1590   22.1610   45.5110 N   0  0  0  0  0  0  0  0  0  0  0  0
   55.2220   23.6530   44.6360 S   0  0  0  0  0  0  0  0  0  0  0  0
   55.7750   23.3880   43.2640 O   0  0  0  0  0  0  0  0  0  0  0  0
   53.8420   24.2270   44.4830 O   0  0  0  0  0  0  0  0  0  0  0  0
   56.2680   24.7890   45.4900 C   0  0  0  0  0  0  0  0  0  0  0  0
   57.6180   24.4730   45.7000 C   0  0  0  0  0  0  0  0  0  0  0  0
   58.4520   25.3550   46.3910 C   0  0  0  0  0  0  0  0  0  0  0  0
   57.9510   26.5680   46.8930 C   0  0  0  0  0  0  0  0  0  0  0  0
   58.8360   27.4980   47.6440 C   0  0  0  0  0  0  0  0  0  0  0  0
   59.9960   27.0190   48.2780 C   0  0  0  0  0  0  0  0  0  0  0  0
   60.8500   27.8990   48.9440 C   0  0  0  0  0  0  0  0  0  0  0  0
   60.5580   29.2630   48.9900 C   0  0  0  0  0  0  0  0  0  0  0  0
   59.3890   29.7600   48.3920 C   0  0  0  0  0  0  0  0  0  0  0  0
   59.0820   31.2440   48.4420 C   0  0  0  0  0  0  0  0  0  0  0  0
   58.5150   31.7880   47.1830 N   0  0  0  0  0  0  0  0  0  0  0  0
   58.0950   33.2020   47.2910 C   0  0  0  0  0  0  0  0  0  0  0  0
   59.1300   34.0040   48.0940 C   0  0  0  0  0  0  0  0  0  0  0  0
   60.3370   34.4110   47.2360 C   0  0  0  0  0  0  0  0  0  0  0  0
   61.4390   33.4370   47.4100 N   0  0  0  0  0  0  0  0  0  0  0  0
   62.6300   33.8200   46.6270 C   0  0  0  0  0  0  0  0  0  0  0  0
   63.7730   32.8090   46.8550 C   0  0  0  0  0  0  0  0  0  0  0  0
   63.3770   31.7550   47.7150 O   0  0  0  0  0  0  0  0  0  0  0  0
   62.9850   32.2870   48.9690 C   0  0  0  0  0  0  0  0  0  0  0  0
   61.8010   33.2690   48.8300 C   0  0  0  0  0  0  0  0  0  0  0  0
   59.3510   31.5440   45.9860 C   0  0  0  0  0  0  0  0  0  0  0  0
   58.8010   30.4110   45.1600 C   0  0  0  0  0  0  0  0  0  0  0  0
   59.6080   29.2970   44.8640 C   0  0  0  0  0  0  0  0  0  0  0  0
   59.0910   28.2260   44.1310 C   0  0  0  0  0  0  0  0  0  0  0  0
   57.7600   28.2490   43.7050 C   0  0  0  0  0  0  0  0  0  0  0  0
   56.9460   29.3430   44.0090 C   0  0  0  0  0  0  0  0  0  0  0  0
   57.4610   30.4180   44.7410 C   0  0  0  0  0  0  0  0  0  0  0  0
   58.5380   28.8720   47.7100 C   0  0  0  0  0  0  0  0  0  0  0  0
   56.5960   26.8800   46.6850 C   0  0  0  0  0  0  0  0  0  0  0  0
   55.7590   26.0000   45.9900 C   0  0  0  0  0  0  0  0  0  0  0  0
   54.4240   26.3390   45.8050 O   0  0  0  0  0  0  0  0  0  0  0  0
   56.6902   21.7738   50.5780 H   0  0  0  0  0  0  0  0  0  0  0  0
   54.3373   22.4309   50.0413 H   0  0  0  0  0  0  0  0  0  0  0  0
   53.6257   22.6214   47.6502 H   0  0  0  0  0  0  0  0  0  0  0  0
   58.0229   23.5242   45.3180 H   0  0  0  0  0  0  0  0  0  0  0  0
   59.5105   25.0977   46.5436 H   0  0  0  0  0  0  0  0  0  0  0  0
   60.2316   25.9449   48.2488 H   0  0  0  0  0  0  0  0  0  0  0  0
   61.7570   27.5161   49.4347 H   0  0  0  0  0  0  0  0  0  0  0  0
   61.2480   29.9529   49.4979 H   0  0  0  0  0  0  0  0  0  0  0  0
   58.3581   31.4200   49.2513 H   0  0  0  0  0  0  0  0  0  0  0  0
   60.0388   31.7605   48.6083 H   0  0  0  0  0  0  0  0  0  0  0  0
   58.0051   33.6322   46.2826 H   0  0  0  0  0  0  0  0  0  0  0  0
   57.1252   33.2494   47.8079 H   0  0  0  0  0  0  0  0  0  0  0  0
   58.6493   34.9133   48.4841 H   0  0  0  0  0  0  0  0  0  0  0  0
   59.4952   33.3641   48.9108 H   0  0  0  0  0  0  0  0  0  0  0  0
   60.0384   34.4368   46.1776 H   0  0  0  0  0  0  0  0  0  0  0  0
   60.6836   35.4059   47.5524 H   0  0  0  0  0  0  0  0  0  0  0  0
   62.3704   33.8382   45.5582 H   0  0  0  0  0  0  0  0  0  0  0  0
   62.9651   34.8160   46.9522 H   0  0  0  0  0  0  0  0  0  0  0  0
   64.0721   32.3845   45.8853 H   0  0  0  0  0  0  0  0  0  0  0  0
   64.6116   33.3408   47.3282 H   0  0  0  0  0  0  0  0  0  0  0  0
   62.6858   31.4595   49.6291 H   0  0  0  0  0  0  0  0  0  0  0  0
   63.8393   32.8383   49.3889 H   0  0  0  0  0  0  0  0  0  0  0  0
   60.9349   32.8734   49.3809 H   0  0  0  0  0  0  0  0  0  0  0  0
   62.0958   34.2454   49.2419 H   0  0  0  0  0  0  0  0  0  0  0  0
   59.3747   32.4568   45.3726 H   0  0  0  0  0  0  0  0  0  0  0  0
   60.3643   31.2736   46.3178 H   0  0  0  0  0  0  0  0  0  0  0  0
   60.6513   29.2693   45.2115 H   0  0  0  0  0  0  0  0  0  0  0  0
   59.7312   27.3648   43.8892 H   0  0  0  0  0  0  0  0  0  0  0  0
   57.3528   27.4046   43.1296 H   0  0  0  0  0  0  0  0  0  0  0  0
   55.8989   29.3590   43.6723 H   0  0  0  0  0  0  0  0  0  0  0  0
   56.8137   31.2720   44.9893 H   0  0  0  0  0  0  0  0  0  0  0  0
   57.6294   29.2555   47.2228 H   0  0  0  0  0  0  0  0  0  0  0  0
   56.1896   27.8258   47.0727 H   0  0  0  0  0  0  0  0  0  0  0  0
  1  2  2  0
  2  3  1  0
  3  4  1  0
  4  5  2  0
  5  6  1  0
  6  7  2  0
  7  8  1  0
  8  9  1  0
  9 10  2  0
  9 11  2  0
  9 12  1  0
 12 13  2  0
 13 14  1  0
 14 15  2  0
 15 16  1  0
 16 17  2  0
 17 18  1  0
 18 19  2  0
 19 20  1  0
 20 21  1  0
 21 22  1  0
 22 23  1  0
 23 24  1  0
 24 25  1  0
 25 26  1  0
 26 27  1  0
 27 28  1  0
 28 29  1  0
 29 30  1  0
 30 31  1  0
 22 32  1  0
 32 33  1  0
 33 34  2  0
 34 35  1  0
 35 36  2  0
 36 37  1  0
 37 38  2  0
 20 39  2  0
 15 40  1  0
 40 41  2  0
 41 42  1  0
  7  2  1  0
 41 12  1  0
 39 16  1  0
 31 26  1  0
 38 33  1  0
  4 43  1  0
  5 44  1  0
  6 45  1  0
 13 46  1  0
 14 47  1  0
 17 48  1  0
 18 49  1  0
 19 50  1  0
 21 51  1  0
 21 52  1  0
 23 53  1  0
 23 54  1  0
 24 55  1  0
 24 56  1  0
 25 57  1  0
 25 58  1  0
 27 59  1  0
 27 60  1  0
 28 61  1  0
 28 62  1  0
 30 63  1  0
 30 64  1  0
 31 65  1  0
 31 66  1  0
 32 67  1  0
 32 68  1  0
 34 69  1  0
 35 70  1  0
 36 71  1  0
 37 72  1  0
 38 73  1  0
 39 74  1  0
 40 75  1  0
M  CHG  3   3  -1   8  -1  42  -1
M  END
>  <UniqueID>  (71) 
65

>  <SMILES>  (71) 
O=c1[n-]cccc1[N-]S(=O)(=O)c1ccc(-c2cccc(CN(CCCN3CCOCC3)Cc3ccccc3)c2)cc1[O-]

>  <Energy>  (71) 
108.13242135342598

>  <Genealogy>  (71) 
O=c1[n-]cccc1[N-]S(=O)(=O)c1ccc(-c2cccc(CN(CCCN3CCOCC3)Cc3ccccc3)c2)cc1[O-] (protonated)
O=c1[n-]cccc1[N-]S(=O)(=O)c1ccc(-c2cccc(CN(CCCN3CCOCC3)Cc3ccccc3)c2)cc1[O-] (3D coordinates assigned)
O=c1[n-]cccc1[N-]S(=O)(=O)c1ccc(-c2cccc(CN(CCCN3CCOCC3)Cc3ccccc3)c2)cc1[O-] (nonaromatic ring conformer: 108.13242135342598 kcal/mol)

>  <smiles>  (71) 
O=c1[nH]cccc1NS(=O)(=O)c1ccc(-c2cccc(CN(CCCN3CCOCC3)Cc3ccccc3)c2)cc1O

>  <score_type>  (71) 
oracle

>  <origin>  (71) 
adg

>  <m_score__min__energy>  (71) 
-17.739999999999998

>  <m_primary>  (71) 
energy

$$$$
71:0
     RDKit          3D

 47 50  0  0  0  0  0  0  0  0999 V2000
   55.3777   29.2752   45.0977 H   0  0  0  0  0  0  0  0  0  0  0  0
   55.9690   29.9200   44.4310 C   0  0  0  0  0  0  0  0  0  0  0  0
   56.7160   30.9580   44.8940 N   0  0  0  0  0  0  0  0  0  0  0  0
   57.3460   31.6000   43.8850 C   0  0  0  0  0  0  0  0  0  0  0  0
   58.1420   32.6140   44.0440 N   0  0  0  0  0  0  0  0  0  0  0  0
   57.8860   33.7710   44.8560 C   0  0  0  0  0  0  0  0  0  0  0  0
   56.7100   34.1110   45.1580 O   0  0  0  0  0  0  0  0  0  0  0  0
   59.0410   34.5550   45.3900 C   0  0  0  0  0  0  0  0  0  0  0  0
   59.9785   34.0809   45.0638 H   0  0  0  0  0  0  0  0  0  0  0  0
   58.9732   35.5831   45.0048 H   0  0  0  0  0  0  0  0  0  0  0  0
   59.0070   34.6160   47.2150 S   0  0  0  0  0  0  0  0  0  0  0  0
   59.0040   32.8320   47.4510 C   0  0  0  0  0  0  0  0  0  0  0  0
   59.8330   32.1440   48.2620 N   0  0  0  0  0  0  0  0  0  0  0  0
   60.8870   32.6640   49.1380 C   0  0  0  0  0  0  0  0  0  0  0  0
   60.5047   33.5394   49.6835 H   0  0  0  0  0  0  0  0  0  0  0  0
   61.1824   31.8748   49.8450 H   0  0  0  0  0  0  0  0  0  0  0  0
   62.0850   33.0680   48.3370 C   0  0  0  0  0  0  0  0  0  0  0  0
   62.0280   33.5660   47.1240 O   0  0  0  0  0  0  0  0  0  0  0  0
   63.2510   33.8130   46.7130 C   0  0  0  0  0  0  0  0  0  0  0  0
   63.5176   34.2331   45.7319 H   0  0  0  0  0  0  0  0  0  0  0  0
   64.1500   33.4650   47.7000 C   0  0  0  0  0  0  0  0  0  0  0  0
   65.2456   33.5524   47.6560 H   0  0  0  0  0  0  0  0  0  0  0  0
   63.4000   32.9860   48.7520 C   0  0  0  0  0  0  0  0  0  0  0  0
   63.7706   32.6160   49.7193 H   0  0  0  0  0  0  0  0  0  0  0  0
   59.4180   30.8630   48.1140 C   0  0  0  0  0  0  0  0  0  0  0  0
   59.9530   29.6850   48.8780 C   0  0  0  0  0  0  0  0  0  0  0  0
   61.0525   29.7064   48.8521 H   0  0  0  0  0  0  0  0  0  0  0  0
   59.5958   29.7439   49.9167 H   0  0  0  0  0  0  0  0  0  0  0  0
   59.4820   28.4310   48.2870 N   0  0  0  0  0  0  0  0  0  0  0  0
   59.2620   27.6480   48.9420 H   0  0  0  0  0  0  0  0  0  0  0  0
   59.2920   28.2200   46.8730 C   0  0  0  0  0  0  0  0  0  0  0  0
   60.2150   28.6910   45.9200 C   0  0  0  0  0  0  0  0  0  0  0  0
   61.1065   29.2444   46.2499 H   0  0  0  0  0  0  0  0  0  0  0  0
   60.0060   28.4600   44.5570 C   0  0  0  0  0  0  0  0  0  0  0  0
   60.7348   28.8276   43.8197 H   0  0  0  0  0  0  0  0  0  0  0  0
   58.8730   27.7630   44.1300 C   0  0  0  0  0  0  0  0  0  0  0  0
   58.7094   27.5825   43.0573 H   0  0  0  0  0  0  0  0  0  0  0  0
   57.9490   27.2960   45.0660 C   0  0  0  0  0  0  0  0  0  0  0  0
   57.0556   26.7495   44.7295 H   0  0  0  0  0  0  0  0  0  0  0  0
   58.1560   27.5210   46.4300 C   0  0  0  0  0  0  0  0  0  0  0  0
   57.4244   27.1482   47.1620 H   0  0  0  0  0  0  0  0  0  0  0  0
   58.3650   30.7780   47.2740 N   0  0  0  0  0  0  0  0  0  0  0  0
   58.1190   32.0100   46.8620 N   0  0  0  0  0  0  0  0  0  0  0  0
   57.3560   32.2760   46.2020 H   0  0  0  0  0  0  0  0  0  0  0  0
   57.0120   30.9090   42.3930 S   0  0  0  0  0  0  0  0  0  0  0  0
   56.0070   29.7330   43.0530 C   0  0  0  0  0  0  0  0  0  0  0  0
   55.4726   28.9518   42.4925 H   0  0  0  0  0  0  0  0  0  0  0  0
  1  2  1  0
  2  3  1  0
  3  4  1  0
  4  5  2  0
  5  6  1  0
  6  7  2  0
  6  8  1  0
  8  9  1  0
  8 10  1  0
  8 11  1  0
 11 12  1  0
 12 13  1  0
 13 14  1  0
 14 15  1  0
 14 16  1  0
 14 17  1  0
 17 18  1  0
 18 19  1  0
 19 20  1  0
 19 21  2  0
 21 22  1  0
 21 23  1  0
 23 24  1  0
 13 25  1  0
 25 26  1  0
 26 27  1  0
 26 28  1  0
 26 29  1  0
 29 30  1  0
 29 31  1  0
 31 32  2  0
 32 33  1  0
 32 34  1  0
 34 35  1  0
 34 36  2  0
 36 37  1  0
 36 38  1  0
 38 39  1  0
 38 40  2  0
 40 41  1  0
 25 42  2  0
 42 43  1  0
 43 44  1  0
  4 45  1  0
 45 46  1  0
 46 47  1  0
 46  2  2  0
 43 12  2  0
 23 17  2  0
 40 31  1  0
M  CHG  2   3  -1  43   1
M  END
>  <UniqueID>  (72) 
66

>  <SMILES>  (72) 
O=C(CSc1[nH+]nc(CNc2ccccc2)n1Cc1ccco1)/N=c1\[n-]ccs1

>  <Energy>  (72) 
132.0060244066037

>  <Genealogy>  (72) 
O=C(CSc1[nH+]nc(CNc2ccccc2)n1Cc1ccco1)N=c1[n-]ccs1 (protonated)
O=C(CSc1[nH+]nc(CNc2ccccc2)n1Cc1ccco1)/N=c1\[n-]ccs1 (cis-trans isomerization)
O=C(CSc1[nH+]nc(CNc2ccccc2)n1Cc1ccco1)/N=c1\[n-]ccs1 (3D coordinates assigned)
O=C(CSc1[nH+]nc(CNc2ccccc2)n1Cc1ccco1)/N=c1\[n-]ccs1 (optimized conformer: 132.0060244066037 kcal/mol)

>  <smiles>  (72) 
O=C(CSc1nnc(CNc2ccccc2)n1Cc1ccco1)N=c1[nH]ccs1

>  <score_type>  (72) 
oracle

>  <origin>  (72) 
adg

>  <m_score__min__energy>  (72) 
-9.0500000000000007

>  <m_primary>  (72) 
energy

$$$$
72:0
     RDKit          3D

 52 55  0  0  0  0  0  0  0  0999 V2000
   61.6250   29.7410   52.0990 C   0  0  0  0  0  0  0  0  0  0  0  0
   60.8550   30.0010   50.8720 N   0  0  0  0  0  0  0  0  0  0  0  0
   61.1410   28.9630   49.8560 C   0  0  0  0  0  0  0  0  0  0  0  0
   60.1220   28.9530   48.6920 C   0  0  0  0  0  0  0  0  0  0  0  0
   59.2720   30.1500   48.7060 N   0  0  0  0  0  0  0  0  0  0  0  0
   58.8600   30.7540   47.4650 C   0  0  0  0  0  0  0  0  0  0  0  0
   59.0850   32.1220   47.2450 C   0  0  0  0  0  0  0  0  0  0  0  0
   58.7100   32.7170   46.0380 C   0  0  0  0  0  0  0  0  0  0  0  0
   59.0140   34.5830   45.7620 Br  0  0  0  0  0  0  0  0  0  0  0  0
   58.1140   31.9530   45.0320 C   0  0  0  0  0  0  0  0  0  0  0  0
   57.8840   30.5800   45.2300 C   0  0  0  0  0  0  0  0  0  0  0  0
   57.2900   29.7800   44.2370 C   0  0  0  0  0  0  0  0  0  0  0  0
   56.9380   30.2740   43.1320 O   0  0  0  0  0  0  0  0  0  0  0  0
   57.0810   28.4190   44.4760 C   0  0  0  0  0  0  0  0  0  0  0  0
   57.4680   27.8560   45.7030 C   0  0  0  0  0  0  0  0  0  0  0  0
   57.2290   26.4230   46.0060 C   0  0  0  0  0  0  0  0  0  0  0  0
   57.6100   25.9050   47.2560 C   0  0  0  0  0  0  0  0  0  0  0  0
   57.3850   24.5620   47.5630 C   0  0  0  0  0  0  0  0  0  0  0  0
   56.7800   23.7210   46.6270 C   0  0  0  0  0  0  0  0  0  0  0  0
   56.3960   24.2120   45.3740 C   0  0  0  0  0  0  0  0  0  0  0  0
   55.7770   23.3070   44.4490 N   0  0  0  0  0  0  0  0  0  0  0  0
   56.5140   21.8960   43.7600 S   0  0  0  0  0  0  0  0  0  0  0  0
   58.2610   21.8900   44.1010 C   0  0  0  0  0  0  0  0  0  0  0  0
   56.2700   21.8580   42.2760 O   0  0  0  0  0  0  0  0  0  0  0  0
   55.8940   20.6760   44.3820 O   0  0  0  0  0  0  0  0  0  0  0  0
   56.6290   25.5650   45.0640 C   0  0  0  0  0  0  0  0  0  0  0  0
   58.0390   28.6510   46.6480 N   0  0  0  0  0  0  0  0  0  0  0  0
   58.2570   29.9810   46.4550 C   0  0  0  0  0  0  0  0  0  0  0  0
   58.6350   30.5760   49.9590 C   0  0  0  0  0  0  0  0  0  0  0  0
   59.4120   30.0600   51.1760 C   0  0  0  0  0  0  0  0  0  0  0  0
   60.9976   29.9528   52.9774 H   0  0  0  0  0  0  0  0  0  0  0  0
   61.9391   28.6870   52.1183 H   0  0  0  0  0  0  0  0  0  0  0  0
   62.5138   30.3889   52.1183 H   0  0  0  0  0  0  0  0  0  0  0  0
   61.1650   30.9320   50.4990 H   0  0  0  0  0  0  0  0  0  0  0  0
   62.1434   29.1460   49.4417 H   0  0  0  0  0  0  0  0  0  0  0  0
   61.0736   27.9866   50.3581 H   0  0  0  0  0  0  0  0  0  0  0  0
   60.6696   28.9155   47.7388 H   0  0  0  0  0  0  0  0  0  0  0  0
   59.4752   28.0710   48.8092 H   0  0  0  0  0  0  0  0  0  0  0  0
   59.5602   32.7300   48.0289 H   0  0  0  0  0  0  0  0  0  0  0  0
   57.8238   32.4266   44.0825 H   0  0  0  0  0  0  0  0  0  0  0  0
   56.6140   27.7896   43.7041 H   0  0  0  0  0  0  0  0  0  0  0  0
   58.0885   26.5622   47.9970 H   0  0  0  0  0  0  0  0  0  0  0  0
   57.6849   24.1655   48.5442 H   0  0  0  0  0  0  0  0  0  0  0  0
   56.6038   22.6642   46.8764 H   0  0  0  0  0  0  0  0  0  0  0  0
   58.4222   21.8894   45.1891 H   0  0  0  0  0  0  0  0  0  0  0  0
   58.7171   20.9903   43.6623 H   0  0  0  0  0  0  0  0  0  0  0  0
   58.7233   22.7866   43.6623 H   0  0  0  0  0  0  0  0  0  0  0  0
   56.3399   25.9558   44.0772 H   0  0  0  0  0  0  0  0  0  0  0  0
   58.6051   31.6751   49.9913 H   0  0  0  0  0  0  0  0  0  0  0  0
   57.6170   30.1606   49.9924 H   0  0  0  0  0  0  0  0  0  0  0  0
   59.2473   30.7380   52.0264 H   0  0  0  0  0  0  0  0  0  0  0  0
   59.0565   29.0497   51.4268 H   0  0  0  0  0  0  0  0  0  0  0  0
  1  2  1  0
  2  3  1  0
  3  4  1  0
  4  5  1  0
  5  6  1  0
  6  7  2  0
  7  8  1  0
  8  9  1  0
  8 10  2  0
 10 11  1  0
 11 12  1  0
 12 13  2  0
 12 14  1  0
 14 15  2  0
 15 16  1  0
 16 17  2  0
 17 18  1  0
 18 19  2  0
 19 20  1  0
 20 21  1  0
 21 22  1  0
 22 23  1  0
 22 24  2  0
 22 25  2  0
 20 26  2  0
 15 27  1  0
 27 28  1  0
  5 29  1  0
 29 30  1  0
 30  2  1  0
 28  6  1  0
 28 11  2  0
 26 16  1  0
  1 31  1  0
  1 32  1  0
  1 33  1  0
  2 34  1  0
  3 35  1  0
  3 36  1  0
  4 37  1  0
  4 38  1  0
  7 39  1  0
 10 40  1  0
 14 41  1  0
 17 42  1  0
 18 43  1  0
 19 44  1  0
 23 45  1  0
 23 46  1  0
 23 47  1  0
 26 48  1  0
 29 49  1  0
 29 50  1  0
 30 51  1  0
 30 52  1  0
M  CHG  3   2   1  21  -1  27  -1
M  END
>  <UniqueID>  (73) 
67

>  <SMILES>  (73) 
C[NH+]1CCN(c2cc(Br)cc3c(=O)cc(-c4cccc([N-]S(C)(=O)=O)c4)[n-]c23)CC1

>  <Energy>  (73) 
71.69757125400497

>  <Genealogy>  (73) 
C[NH+]1CCN(c2cc(Br)cc3c(=O)cc(-c4cccc([N-]S(C)(=O)=O)c4)[n-]c23)CC1 (protonated)
C[NH+]1CCN(c2cc(Br)cc3c(=O)cc(-c4cccc([N-]S(C)(=O)=O)c4)[n-]c23)CC1 (3D coordinates assigned)
C[NH+]1CCN(c2cc(Br)cc3c(=O)cc(-c4cccc([N-]S(C)(=O)=O)c4)[n-]c23)CC1 (nonaromatic ring conformer: 71.69757125400497 kcal/mol)

>  <smiles>  (73) 
CN1CCN(c2cc(Br)cc3c(=O)cc(-c4cccc(NS(C)(=O)=O)c4)[nH]c23)CC1

>  <score_type>  (73) 
oracle

>  <origin>  (73) 
adg

>  <m_score__min__energy>  (73) 
-10.19

>  <m_primary>  (73) 
energy

$$$$
73:0
     RDKit          3D

 40 42  0  0  0  0  0  0  0  0999 V2000
   62.9070   33.8500   48.9640 C   0  0  0  0  0  0  0  0  0  0  0  0
   61.5300   34.1170   49.2090 O   0  0  0  0  0  0  0  0  0  0  0  0
   60.5050   33.9270   48.2710 C   0  0  0  0  0  0  0  0  0  0  0  0
   60.0270   34.9660   47.4580 C   0  0  0  0  0  0  0  0  0  0  0  0
   59.0050   34.7280   46.5380 C   0  0  0  0  0  0  0  0  0  0  0  0
   58.4360   33.4500   46.4060 C   0  0  0  0  0  0  0  0  0  0  0  0
   57.3470   33.2470   45.4130 C   0  0  0  0  0  0  0  0  0  0  0  0
   56.7770   34.2340   44.8730 O   0  0  0  0  0  0  0  0  0  0  0  0
   56.9480   31.9460   45.0810 O   0  0  0  0  0  0  0  0  0  0  0  0
   57.5390   31.1860   44.0310 C   0  0  0  0  0  0  0  0  0  0  0  0
   57.5490   29.7690   44.3810 N   0  0  0  0  0  0  0  0  0  0  0  0
   58.6890   28.9700   44.7070 C   0  0  0  0  0  0  0  0  0  0  0  0
   59.8820   29.3160   44.4980 O   0  0  0  0  0  0  0  0  0  0  0  0
   58.2610   27.7190   45.3230 C   0  0  0  0  0  0  0  0  0  0  0  0
   59.0050   26.6410   45.8000 C   0  0  0  0  0  0  0  0  0  0  0  0
   58.3110   25.5580   46.3670 C   0  0  0  0  0  0  0  0  0  0  0  0
   56.9010   25.5750   46.4470 C   0  0  0  0  0  0  0  0  0  0  0  0
   56.1730   26.6760   45.9620 C   0  0  0  0  0  0  0  0  0  0  0  0
   54.7860   26.7020   46.0420 O   0  0  0  0  0  0  0  0  0  0  0  0
   56.8840   27.7380   45.4010 C   0  0  0  0  0  0  0  0  0  0  0  0
   56.4300   29.0040   44.8340 C   0  0  0  0  0  0  0  0  0  0  0  0
   55.2330   29.3950   44.7690 O   0  0  0  0  0  0  0  0  0  0  0  0
   58.9120   32.3950   47.2240 C   0  0  0  0  0  0  0  0  0  0  0  0
   58.3480   31.1140   47.1020 O   0  0  0  0  0  0  0  0  0  0  0  0
   58.8230   29.9490   47.7670 C   0  0  0  0  0  0  0  0  0  0  0  0
   59.9460   32.6530   48.1480 C   0  0  0  0  0  0  0  0  0  0  0  0
   63.4368   33.7473   49.9225 H   0  0  0  0  0  0  0  0  0  0  0  0
   63.0030   32.9165   48.3901 H   0  0  0  0  0  0  0  0  0  0  0  0
   63.3450   34.6799   48.3901 H   0  0  0  0  0  0  0  0  0  0  0  0
   60.4601   35.9733   47.5463 H   0  0  0  0  0  0  0  0  0  0  0  0
   58.6399   35.5521   45.9075 H   0  0  0  0  0  0  0  0  0  0  0  0
   56.9584   31.3285   43.1076 H   0  0  0  0  0  0  0  0  0  0  0  0
   58.5739   31.5264   43.8790 H   0  0  0  0  0  0  0  0  0  0  0  0
   60.1031   26.6379   45.7346 H   0  0  0  0  0  0  0  0  0  0  0  0
   58.8697   24.6917   46.7509 H   0  0  0  0  0  0  0  0  0  0  0  0
   56.3687   24.7212   46.8917 H   0  0  0  0  0  0  0  0  0  0  0  0
   58.7624   30.0976   48.8552 H   0  0  0  0  0  0  0  0  0  0  0  0
   58.2052   29.0853   47.4799 H   0  0  0  0  0  0  0  0  0  0  0  0
   59.8686   29.7635   47.4799 H   0  0  0  0  0  0  0  0  0  0  0  0
   60.3189   31.8360   48.7832 H   0  0  0  0  0  0  0  0  0  0  0  0
  1  2  1  0
  2  3  1  0
  3  4  2  0
  4  5  1  0
  5  6  2  0
  6  7  1  0
  7  8  2  0
  7  9  1  0
  9 10  1  0
 10 11  1  0
 11 12  1  0
 12 13  2  0
 12 14  1  0
 14 15  2  0
 15 16  1  0
 16 17  2  0
 17 18  1  0
 18 19  1  0
 18 20  2  0
 20 21  1  0
 21 22  2  0
  6 23  1  0
 23 24  1  0
 24 25  1  0
 23 26  2  0
 26  3  1  0
 21 11  1  0
 20 14  1  0
  1 27  1  0
  1 28  1  0
  1 29  1  0
  4 30  1  0
  5 31  1  0
 10 32  1  0
 10 33  1  0
 15 34  1  0
 16 35  1  0
 17 36  1  0
 25 37  1  0
 25 38  1  0
 25 39  1  0
 26 40  1  0
M  CHG  1  19  -1
M  END
>  <UniqueID>  (74) 
68

>  <SMILES>  (74) 
COc1ccc(C(=O)OCN2C(=O)c3cccc([O-])c3C2=O)c(OC)c1

>  <Energy>  (74) 
73.78475296801918

>  <Genealogy>  (74) 
COc1ccc(C(=O)OCN2C(=O)c3cccc([O-])c3C2=O)c(OC)c1 (protonated)
COc1ccc(C(=O)OCN2C(=O)c3cccc([O-])c3C2=O)c(OC)c1 (3D coordinates assigned)
COc1ccc(C(=O)OCN2C(=O)c3cccc([O-])c3C2=O)c(OC)c1 (nonaromatic ring conformer: 73.78475296801918 kcal/mol)

>  <smiles>  (74) 
COc1ccc(C(=O)OCN2C(=O)c3cccc(O)c3C2=O)c(OC)c1

>  <score_type>  (74) 
oracle

>  <origin>  (74) 
adg

>  <m_score__min__energy>  (74) 
-12.31

>  <m_primary>  (74) 
energy

$$$$
74:0
     RDKit          3D

 51 54  0  0  0  0  0  0  0  0999 V2000
   57.3760   26.2190   45.5000 C   0  0  0  0  0  0  0  0  0  0  0  0
   57.4170   27.4750   46.3650 C   0  0  0  0  0  0  0  0  0  0  0  0
   58.2740   28.4970   45.7510 N   0  0  0  0  0  0  0  0  0  0  0  0
   59.5100   28.8300   46.1860 C   0  0  0  0  0  0  0  0  0  0  0  0
   60.3150   28.1540   47.6410 S   0  0  0  0  0  0  0  0  0  0  0  0
   59.7060   29.4750   48.7390 C   0  0  0  0  0  0  0  0  0  0  0  0
   60.1420   30.8120   48.2160 C   0  0  0  0  0  0  0  0  0  0  0  0
   61.3330   30.9570   47.8320 O   0  0  0  0  0  0  0  0  0  0  0  0
   59.2720   31.9530   48.2170 N   0  0  0  0  0  0  0  0  0  0  0  0
   58.9760   32.8010   47.0970 C   0  0  0  0  0  0  0  0  0  0  0  0
   57.7370   32.7220   46.4370 C   0  0  0  0  0  0  0  0  0  0  0  0
   57.4560   33.5680   45.3610 C   0  0  0  0  0  0  0  0  0  0  0  0
   58.4130   34.4870   44.9260 C   0  0  0  0  0  0  0  0  0  0  0  0
   59.6580   34.5520   45.5560 C   0  0  0  0  0  0  0  0  0  0  0  0
   59.9530   33.7010   46.6320 C   0  0  0  0  0  0  0  0  0  0  0  0
   61.2360   33.7690   47.2720 N   0  0  0  0  0  0  0  0  0  0  0  0
   62.4480   33.8000   46.4500 C   0  0  0  0  0  0  0  0  0  0  0  0
   63.6260   33.2390   47.2550 C   0  0  0  0  0  0  0  0  0  0  0  0
   63.7390   33.8980   48.5030 O   0  0  0  0  0  0  0  0  0  0  0  0
   62.6000   33.6220   49.2980 C   0  0  0  0  0  0  0  0  0  0  0  0
   61.3350   34.2100   48.6630 C   0  0  0  0  0  0  0  0  0  0  0  0
   60.0990   29.7360   45.3900 N   0  0  0  0  0  0  0  0  0  0  0  0
   59.2430   29.9980   44.4170 N   0  0  0  0  0  0  0  0  0  0  0  0
   58.1410   29.2480   44.6200 C   0  0  0  0  0  0  0  0  0  0  0  0
   56.9840   29.3640   43.6430 C   0  0  0  0  0  0  0  0  0  0  0  0
   56.7500   30.7640   43.0930 C   0  0  0  0  0  0  0  0  0  0  0  0
   55.6890   30.0950   43.9590 C   0  0  0  0  0  0  0  0  0  0  0  0
   57.3470   25.3294   46.1464 H   0  0  0  0  0  0  0  0  0  0  0  0
   56.4781   26.2403   44.8650 H   0  0  0  0  0  0  0  0  0  0  0  0
   58.2734   26.1817   44.8650 H   0  0  0  0  0  0  0  0  0  0  0  0
   56.3975   27.8742   46.4714 H   0  0  0  0  0  0  0  0  0  0  0  0
   57.8277   27.2133   47.3513 H   0  0  0  0  0  0  0  0  0  0  0  0
   58.6073   29.4391   48.7789 H   0  0  0  0  0  0  0  0  0  0  0  0
   60.1186   29.3276   49.7480 H   0  0  0  0  0  0  0  0  0  0  0  0
   56.9854   31.9908   46.7693 H   0  0  0  0  0  0  0  0  0  0  0  0
   56.4803   33.5100   44.8563 H   0  0  0  0  0  0  0  0  0  0  0  0
   58.1863   35.1605   44.0863 H   0  0  0  0  0  0  0  0  0  0  0  0
   60.4110   35.2739   45.2069 H   0  0  0  0  0  0  0  0  0  0  0  0
   62.2954   33.1882   45.5486 H   0  0  0  0  0  0  0  0  0  0  0  0
   62.6655   34.8376   46.1565 H   0  0  0  0  0  0  0  0  0  0  0  0
   63.4662   32.1644   47.4274 H   0  0  0  0  0  0  0  0  0  0  0  0
   64.5526   33.4007   46.6848 H   0  0  0  0  0  0  0  0  0  0  0  0
   62.4824   32.5324   49.3930 H   0  0  0  0  0  0  0  0  0  0  0  0
   62.7424   34.0805   50.2877 H   0  0  0  0  0  0  0  0  0  0  0  0
   60.4513   33.8658   49.2203 H   0  0  0  0  0  0  0  0  0  0  0  0
   61.3853   35.3083   48.6961 H   0  0  0  0  0  0  0  0  0  0  0  0
   57.1711   28.3474   43.2669 H   0  0  0  0  0  0  0  0  0  0  0  0
   57.3267   31.6137   43.4873 H   0  0  0  0  0  0  0  0  0  0  0  0
   56.7641   31.2196   42.0919 H   0  0  0  0  0  0  0  0  0  0  0  0
   55.4994   30.4622   44.9784 H   0  0  0  0  0  0  0  0  0  0  0  0
   54.6191   29.8679   43.8418 H   0  0  0  0  0  0  0  0  0  0  0  0
  1  2  1  0
  2  3  1  0
  3  4  1  0
  4  5  1  0
  5  6  1  0
  6  7  1  0
  7  8  2  0
  7  9  1  0
  9 10  1  0
 10 11  2  0
 11 12  1  0
 12 13  2  0
 13 14  1  0
 14 15  2  0
 15 16  1  0
 16 17  1  0
 17 18  1  0
 18 19  1  0
 19 20  1  0
 20 21  1  0
  4 22  2  0
 22 23  1  0
 23 24  2  0
 24 25  1  0
 25 26  1  0
 26 27  1  0
 24  3  1  0
 27 25  1  0
 15 10  1  0
 21 16  1  0
  1 28  1  0
  1 29  1  0
  1 30  1  0
  2 31  1  0
  2 32  1  0
  6 33  1  0
  6 34  1  0
 11 35  1  0
 12 36  1  0
 13 37  1  0
 14 38  1  0
 17 39  1  0
 17 40  1  0
 18 41  1  0
 18 42  1  0
 20 43  1  0
 20 44  1  0
 21 45  1  0
 21 46  1  0
 25 47  1  0
 26 48  1  0
 26 49  1  0
 27 50  1  0
 27 51  1  0
M  CHG  1   9  -1
M  END
>  <UniqueID>  (75) 
69

>  <SMILES>  (75) 
CCn1c(SCC(=O)[N-]c2ccccc2N2CCOCC2)nnc1C1CC1

>  <Energy>  (75) 
364.08522165652346

>  <Genealogy>  (75) 
CCn1c(SCC(=O)[N-]c2ccccc2N2CCOCC2)nnc1C1CC1 (protonated)
CCn1c(SCC(=O)[N-]c2ccccc2N2CCOCC2)nnc1C1CC1 (3D coordinates assigned)
CCn1c(SCC(=O)[N-]c2ccccc2N2CCOCC2)nnc1C1CC1 (nonaromatic ring conformer: 364.08522165652346 kcal/mol)

>  <smiles>  (75) 
CCn1c(SCC(=O)Nc2ccccc2N2CCOCC2)nnc1C1CC1

>  <score_type>  (75) 
oracle

>  <origin>  (75) 
adg

>  <m_score__min__energy>  (75) 
-10.48

>  <m_primary>  (75) 
energy

$$$$
75:0
     RDKit          3D

 50 53  0  0  0  0  0  0  0  0999 V2000
   54.4890   25.3570   45.6140 O   0  0  0  0  0  0  0  0  0  0  0  0
   55.6150   24.8190   45.7830 C   0  0  0  0  0  0  0  0  0  0  0  0
   56.3880   25.1810   46.9350 N   0  0  0  0  0  0  0  0  0  0  0  0
   57.6720   25.8170   46.9190 C   0  0  0  0  0  0  0  0  0  0  0  0
   58.7950   25.1880   46.3580 C   0  0  0  0  0  0  0  0  0  0  0  0
   60.0270   25.8430   46.3380 C   0  0  0  0  0  0  0  0  0  0  0  0
   60.1490   27.1310   46.8650 C   0  0  0  0  0  0  0  0  0  0  0  0
   59.0310   27.7850   47.4180 C   0  0  0  0  0  0  0  0  0  0  0  0
   59.1270   29.1640   47.9740 C   0  0  0  0  0  0  0  0  0  0  0  0
   58.6380   30.1170   47.3060 O   0  0  0  0  0  0  0  0  0  0  0  0
   59.7900   29.4340   49.2400 N   0  0  0  0  0  0  0  0  0  0  0  0
   61.1080   30.0680   49.0330 C   0  0  0  0  0  0  0  0  0  0  0  0
   60.9850   31.4960   48.5780 C   0  0  0  0  0  0  0  0  0  0  0  0
   61.8950   31.9940   47.8620 O   0  0  0  0  0  0  0  0  0  0  0  0
   59.8640   32.2940   48.9990 N   0  0  0  0  0  0  0  0  0  0  0  0
   59.8090   33.7290   48.6890 C   0  0  0  0  0  0  0  0  0  0  0  0
   59.3710   33.9400   47.2640 C   0  0  0  0  0  0  0  0  0  0  0  0
   59.7190   35.1180   46.5820 C   0  0  0  0  0  0  0  0  0  0  0  0
   59.3410   35.2970   45.2470 C   0  0  0  0  0  0  0  0  0  0  0  0
   58.6210   34.3020   44.5820 C   0  0  0  0  0  0  0  0  0  0  0  0
   58.2750   33.1230   45.2510 C   0  0  0  0  0  0  0  0  0  0  0  0
   57.3730   31.8730   44.4140 Cl  0  0  0  0  0  0  0  0  0  0  0  0
   58.6500   32.9410   46.5870 C   0  0  0  0  0  0  0  0  0  0  0  0
   58.8280   31.6660   49.7770 C   0  0  0  0  0  0  0  0  0  0  0  0
   57.8340   32.3310   50.1750 O   0  0  0  0  0  0  0  0  0  0  0  0
   58.9380   30.2160   50.1660 C   0  0  0  0  0  0  0  0  0  0  0  0
   57.7910   27.1180   47.4230 C   0  0  0  0  0  0  0  0  0  0  0  0
   56.0720   23.7870   44.8320 C   0  0  0  0  0  0  0  0  0  0  0  0
   55.6740   23.6790   43.5040 C   0  0  0  0  0  0  0  0  0  0  0  0
   56.2240   22.5710   42.8470 C   0  0  0  0  0  0  0  0  0  0  0  0
   57.0470   21.7960   43.6550 C   0  0  0  0  0  0  0  0  0  0  0  0
   57.0840   22.4880   45.1850 S   0  0  0  0  0  0  0  0  0  0  0  0
   58.7035   24.1773   45.9336 H   0  0  0  0  0  0  0  0  0  0  0  0
   60.9060   25.3429   45.9053 H   0  0  0  0  0  0  0  0  0  0  0  0
   61.1251   27.6379   46.8479 H   0  0  0  0  0  0  0  0  0  0  0  0
   59.9540   28.5200   49.7250 H   0  0  0  0  0  0  0  0  0  0  0  0
   61.6653   30.0448   49.9811 H   0  0  0  0  0  0  0  0  0  0  0  0
   61.6336   29.5065   48.2465 H   0  0  0  0  0  0  0  0  0  0  0  0
   59.0928   34.2190   49.3650 H   0  0  0  0  0  0  0  0  0  0  0  0
   60.8111   34.1624   48.8229 H   0  0  0  0  0  0  0  0  0  0  0  0
   60.2907   35.9024   47.0996 H   0  0  0  0  0  0  0  0  0  0  0  0
   59.6115   36.2237   44.7197 H   0  0  0  0  0  0  0  0  0  0  0  0
   58.3259   34.4454   43.5321 H   0  0  0  0  0  0  0  0  0  0  0  0
   58.3793   32.0118   47.1098 H   0  0  0  0  0  0  0  0  0  0  0  0
   59.3695   30.1553   51.1760 H   0  0  0  0  0  0  0  0  0  0  0  0
   57.9263   29.7859   50.1267 H   0  0  0  0  0  0  0  0  0  0  0  0
   56.9035   27.6259   47.8284 H   0  0  0  0  0  0  0  0  0  0  0  0
   54.9940   24.3936   43.0172 H   0  0  0  0  0  0  0  0  0  0  0  0
   56.0234   22.3365   41.7912 H   0  0  0  0  0  0  0  0  0  0  0  0
   57.5821   20.8860   43.3459 H   0  0  0  0  0  0  0  0  0  0  0  0
  1  2  2  0
  2  3  1  0
  3  4  1  0
  4  5  2  0
  5  6  1  0
  6  7  2  0
  7  8  1  0
  8  9  1  0
  9 10  2  0
  9 11  1  0
 11 12  1  0
 12 13  1  0
 13 14  2  0
 13 15  1  0
 15 16  1  0
 16 17  1  0
 17 18  2  0
 18 19  1  0
 19 20  2  0
 20 21  1  0
 21 22  1  0
 21 23  2  0
 15 24  1  0
 24 25  2  0
 24 26  1  0
  8 27  2  0
  2 28  1  0
 28 29  2  0
 29 30  1  0
 30 31  2  0
 31 32  1  0
 27  4  1  0
 32 28  1  0
 26 11  1  0
 23 17  1  0
  5 33  1  0
  6 34  1  0
  7 35  1  0
 11 36  1  0
 12 37  1  0
 12 38  1  0
 16 39  1  0
 16 40  1  0
 18 41  1  0
 19 42  1  0
 20 43  1  0
 23 44  1  0
 26 45  1  0
 26 46  1  0
 27 47  1  0
 29 48  1  0
 30 49  1  0
 31 50  1  0
M  CHG  2   3  -1  11   1
M  END
>  <UniqueID>  (76) 
70

>  <SMILES>  (76) 
O=C([N-]c1cccc(C(=O)[NH+]2CC(=O)N(Cc3cccc(Cl)c3)C(=O)C2)c1)c1cccs1

>  <Energy>  (76) 
93.72377677829232

>  <Genealogy>  (76) 
O=C([N-]c1cccc(C(=O)[NH+]2CC(=O)N(Cc3cccc(Cl)c3)C(=O)C2)c1)c1cccs1 (protonated)
O=C([N-]c1cccc(C(=O)[NH+]2CC(=O)N(Cc3cccc(Cl)c3)C(=O)C2)c1)c1cccs1 (3D coordinates assigned)
O=C([N-]c1cccc(C(=O)[NH+]2CC(=O)N(Cc3cccc(Cl)c3)C(=O)C2)c1)c1cccs1 (nonaromatic ring conformer: 93.72377677829232 kcal/mol)

>  <smiles>  (76) 
O=C(Nc1cccc(C(=O)N2CC(=O)N(Cc3cccc(Cl)c3)C(=O)C2)c1)c1cccs1

>  <score_type>  (76) 
oracle

>  <origin>  (76) 
adg

>  <m_score__min__energy>  (76) 
-9.4600000000000009

>  <m_primary>  (76) 
energy

$$$$
76:0
     RDKit          3D

 60 63  0  0  0  0  0  0  0  0999 V2000
   63.7560   24.0770   54.0910 C   0  0  0  0  0  0  0  0  0  0  0  0
   63.5250   25.0020   52.9710 N   0  0  0  0  0  0  0  0  0  0  0  0
   62.3320   24.6060   52.1720 C   0  0  0  0  0  0  0  0  0  0  0  0
   61.2300   25.6770   52.1130 C   0  0  0  0  0  0  0  0  0  0  0  0
   61.8060   26.9840   51.7730 N   0  0  0  0  0  0  0  0  0  0  0  0
   61.0410   27.9540   51.0270 C   0  0  0  0  0  0  0  0  0  0  0  0
   60.4880   29.0760   51.6680 C   0  0  0  0  0  0  0  0  0  0  0  0
   59.7630   30.0210   50.9400 C   0  0  0  0  0  0  0  0  0  0  0  0
   59.5680   29.8620   49.5620 C   0  0  0  0  0  0  0  0  0  0  0  0
   58.7680   30.8120   48.8470 N   0  0  0  0  0  0  0  0  0  0  0  0
   59.5230   32.0180   47.8610 S   0  0  0  0  0  0  0  0  0  0  0  0
   59.3590   33.3630   48.5110 O   0  0  0  0  0  0  0  0  0  0  0  0
   60.9910   31.7220   47.7430 O   0  0  0  0  0  0  0  0  0  0  0  0
   58.7780   32.0520   46.2660 C   0  0  0  0  0  0  0  0  0  0  0  0
   58.8110   33.2250   45.5000 C   0  0  0  0  0  0  0  0  0  0  0  0
   58.1790   33.2680   44.2530 C   0  0  0  0  0  0  0  0  0  0  0  0
   57.5000   32.1450   43.7720 C   0  0  0  0  0  0  0  0  0  0  0  0
   57.4460   30.9720   44.5400 C   0  0  0  0  0  0  0  0  0  0  0  0
   56.5690   29.5630   43.9500 S   0  0  0  0  0  0  0  0  0  0  0  0
   55.1340   29.3410   44.8880 N   0  0  0  0  0  0  0  0  0  0  0  0
   56.2010   29.7620   42.5060 O   0  0  0  0  0  0  0  0  0  0  0  0
   57.4350   28.3400   44.0640 O   0  0  0  0  0  0  0  0  0  0  0  0
   58.0950   30.9250   45.7810 C   0  0  0  0  0  0  0  0  0  0  0  0
   60.1240   28.7470   48.9060 C   0  0  0  0  0  0  0  0  0  0  0  0
   59.9300   28.5360   47.4560 C   0  0  0  0  0  0  0  0  0  0  0  0
   60.5010   29.3220   46.6490 O   0  0  0  0  0  0  0  0  0  0  0  0
   59.1090   27.4140   46.9350 C   0  0  0  0  0  0  0  0  0  0  0  0
   57.7060   27.5260   46.8930 C   0  0  0  0  0  0  0  0  0  0  0  0
   56.9250   26.4760   46.3930 C   0  0  0  0  0  0  0  0  0  0  0  0
   57.5320   25.3030   45.9370 C   0  0  0  0  0  0  0  0  0  0  0  0
   58.9220   25.1740   45.9880 C   0  0  0  0  0  0  0  0  0  0  0  0
   59.7100   26.2190   46.4870 C   0  0  0  0  0  0  0  0  0  0  0  0
   60.8540   27.8010   49.6420 C   0  0  0  0  0  0  0  0  0  0  0  0
   63.1070   27.3600   52.3400 C   0  0  0  0  0  0  0  0  0  0  0  0
   63.5030   26.3970   53.4600 C   0  0  0  0  0  0  0  0  0  0  0  0
   63.6222   24.6126   55.0424 H   0  0  0  0  0  0  0  0  0  0  0  0
   63.0379   23.2457   54.0341 H   0  0  0  0  0  0  0  0  0  0  0  0
   64.7806   23.6809   54.0341 H   0  0  0  0  0  0  0  0  0  0  0  0
   62.6605   24.3919   51.1443 H   0  0  0  0  0  0  0  0  0  0  0  0
   61.8942   23.7286   52.6706 H   0  0  0  0  0  0  0  0  0  0  0  0
   60.4916   25.3959   51.3476 H   0  0  0  0  0  0  0  0  0  0  0  0
   60.7451   25.7455   53.0980 H   0  0  0  0  0  0  0  0  0  0  0  0
   60.6275   29.2104   52.7508 H   0  0  0  0  0  0  0  0  0  0  0  0
   59.3412   30.8980   51.4528 H   0  0  0  0  0  0  0  0  0  0  0  0
   57.7810   30.9750   49.1430 H   0  0  0  0  0  0  0  0  0  0  0  0
   59.3352   34.1141   45.8804 H   0  0  0  0  0  0  0  0  0  0  0  0
   58.2164   34.1871   43.6499 H   0  0  0  0  0  0  0  0  0  0  0  0
   57.0069   32.1809   42.7893 H   0  0  0  0  0  0  0  0  0  0  0  0
   55.3490   28.6180   45.6100 H   0  0  0  0  0  0  0  0  0  0  0  0
   58.0693   30.0013   46.3778 H   0  0  0  0  0  0  0  0  0  0  0  0
   57.2201   28.4440   47.2552 H   0  0  0  0  0  0  0  0  0  0  0  0
   55.8300   26.5753   46.3593 H   0  0  0  0  0  0  0  0  0  0  0  0
   56.9166   24.4829   45.5387 H   0  0  0  0  0  0  0  0  0  0  0  0
   59.3996   24.2481   45.6349 H   0  0  0  0  0  0  0  0  0  0  0  0
   60.8035   26.1072   46.5298 H   0  0  0  0  0  0  0  0  0  0  0  0
   61.2853   26.9289   49.1288 H   0  0  0  0  0  0  0  0  0  0  0  0
   63.8698   27.3272   51.5481 H   0  0  0  0  0  0  0  0  0  0  0  0
   63.0334   28.3762   52.7547 H   0  0  0  0  0  0  0  0  0  0  0  0
   64.5039   26.6654   53.8290 H   0  0  0  0  0  0  0  0  0  0  0  0
   62.7623   26.4747   54.2695 H   0  0  0  0  0  0  0  0  0  0  0  0
  1  2  1  0
  2  3  1  0
  3  4  1  0
  4  5  1  0
  5  6  1  0
  6  7  2  0
  7  8  1  0
  8  9  2  0
  9 10  1  0
 10 11  1  0
 11 12  2  0
 11 13  2  0
 11 14  1  0
 14 15  2  0
 15 16  1  0
 16 17  2  0
 17 18  1  0
 18 19  1  0
 19 20  1  0
 19 21  2  0
 19 22  2  0
 18 23  2  0
  9 24  1  0
 24 25  1  0
 25 26  2  0
 25 27  1  0
 27 28  2  0
 28 29  1  0
 29 30  2  0
 30 31  1  0
 31 32  2  0
 24 33  2  0
  5 34  1  0
 34 35  1  0
 35  2  1  0
 33  6  1  0
 23 14  1  0
 32 27  1  0
  1 36  1  0
  1 37  1  0
  1 38  1  0
  3 39  1  0
  3 40  1  0
  4 41  1  0
  4 42  1  0
  7 43  1  0
  8 44  1  0
 10 45  1  0
 15 46  1  0
 16 47  1  0
 17 48  1  0
 20 49  1  0
 23 50  1  0
 28 51  1  0
 29 52  1  0
 30 53  1  0
 31 54  1  0
 32 55  1  0
 33 56  1  0
 34 57  1  0
 34 58  1  0
 35 59  1  0
 35 60  1  0
M  CHG  1  20  -1
M  END
>  <UniqueID>  (77) 
71

>  <SMILES>  (77) 
CN1CCN(c2ccc(NS(=O)(=O)c3cccc(S([NH-])(=O)=O)c3)c(C(=O)c3ccccc3)c2)CC1

>  <Energy>  (77) 
86.13679553948434

>  <Genealogy>  (77) 
CN1CCN(c2ccc(NS(=O)(=O)c3cccc(S([NH-])(=O)=O)c3)c(C(=O)c3ccccc3)c2)CC1 (protonated)
CN1CCN(c2ccc(NS(=O)(=O)c3cccc(S([NH-])(=O)=O)c3)c(C(=O)c3ccccc3)c2)CC1 (3D coordinates assigned)
CN1CCN(c2ccc(NS(=O)(=O)c3cccc(S([NH-])(=O)=O)c3)c(C(=O)c3ccccc3)c2)CC1 (nonaromatic ring conformer: 86.13679553948434 kcal/mol)

>  <smiles>  (77) 
CN1CCN(c2ccc(NS(=O)(=O)c3cccc(S(N)(=O)=O)c3)c(C(=O)c3ccccc3)c2)CC1

>  <score_type>  (77) 
oracle

>  <origin>  (77) 
adg

>  <m_score__min__energy>  (77) 
-13.109999999999999

>  <m_primary>  (77) 
energy

$$$$
77:0
     RDKit          3D

 33 34  0  0  0  0  0  0  0  0999 V2000
   57.1610   34.3980   45.1990 C   0  0  0  0  0  0  0  0  0  0  0  0
   57.5220   32.9470   45.1770 C   0  0  0  0  0  0  0  0  0  0  0  0
   56.6470   31.9780   44.8330 N   0  0  0  0  0  0  0  0  0  0  0  0
   57.3540   30.8400   44.9880 C   0  0  0  0  0  0  0  0  0  0  0  0
   56.6870   29.2380   44.7410 S   0  0  0  0  0  0  0  0  0  0  0  0
   57.2170   28.6520   43.4620 O   0  0  0  0  0  0  0  0  0  0  0  0
   55.1920   29.3410   44.6420 O   0  0  0  0  0  0  0  0  0  0  0  0
   57.1060   28.2240   46.0880 N   0  0  0  0  0  0  0  0  0  0  0  0
   57.4560   26.8730   45.6410 C   0  0  0  0  0  0  0  0  0  0  0  0
   56.2860   25.9170   45.9180 C   0  0  1  0  0  0  0  0  0  0  0  0
   55.0680   26.6150   45.9910 O   0  0  0  0  0  0  0  0  0  0  0  0
   56.2160   24.8310   44.8770 C   0  0  0  0  0  0  0  0  0  0  0  0
   57.1360   24.5980   43.8700 C   0  0  0  0  0  0  0  0  0  0  0  0
   56.6710   23.4940   43.1920 C   0  0  0  0  0  0  0  0  0  0  0  0
   55.5060   23.1150   43.8270 C   0  0  0  0  0  0  0  0  0  0  0  0
   55.2620   23.9310   44.8270 O   0  0  0  0  0  0  0  0  0  0  0  0
   58.6270   31.1230   45.4300 C   0  0  0  0  0  0  0  0  0  0  0  0
   58.7260   32.4570   45.5430 N   0  0  0  0  0  0  0  0  0  0  0  0
   59.8800   33.2040   46.0360 C   0  0  0  0  0  0  0  0  0  0  0  0
   57.0762   34.7390   46.2414 H   0  0  0  0  0  0  0  0  0  0  0  0
   57.9422   34.9780   44.6859 H   0  0  0  0  0  0  0  0  0  0  0  0
   56.1991   34.5443   44.6859 H   0  0  0  0  0  0  0  0  0  0  0  0
   57.6681   26.8883   44.5617 H   0  0  0  0  0  0  0  0  0  0  0  0
   58.3461   26.5275   46.1873 H   0  0  0  0  0  0  0  0  0  0  0  0
   56.4662   25.4432   46.8943 H   0  0  0  0  0  0  0  0  0  0  0  0
   55.1710   27.4660   45.4900 H   0  0  0  0  0  0  0  0  0  0  0  0
   58.0481   25.1744   43.6561 H   0  0  0  0  0  0  0  0  0  0  0  0
   57.1349   23.0110   42.3194 H   0  0  0  0  0  0  0  0  0  0  0  0
   54.8772   22.2595   43.5395 H   0  0  0  0  0  0  0  0  0  0  0  0
   59.4176   30.3905   45.6501 H   0  0  0  0  0  0  0  0  0  0  0  0
   59.8758   33.2013   47.1360 H   0  0  0  0  0  0  0  0  0  0  0  0
   60.8047   32.7327   45.6717 H   0  0  0  0  0  0  0  0  0  0  0  0
   59.8286   34.2406   45.6717 H   0  0  0  0  0  0  0  0  0  0  0  0
  1  2  1  0
  2  3  2  0
  3  4  1  0
  4  5  1  0
  5  6  2  0
  5  7  2  0
  5  8  1  0
  8  9  1  0
  9 10  1  0
 10 11  1  0
 10 12  1  0
 12 13  2  0
 13 14  1  0
 14 15  2  0
 15 16  1  0
  4 17  2  0
 17 18  1  0
 18 19  1  0
 18  2  1  0
 16 12  1  0
  1 20  1  0
  1 21  1  0
  1 22  1  0
  9 23  1  0
  9 24  1  0
 10 25  1  1
 11 26  1  0
 13 27  1  0
 14 28  1  0
 15 29  1  0
 17 30  1  0
 19 31  1  0
 19 32  1  0
 19 33  1  0
M  CHG  1   8  -1
M  END
>  <UniqueID>  (78) 
72

>  <SMILES>  (78) 
Cc1nc(S(=O)(=O)[N-]C[C@@H](O)c2ccco2)cn1C

>  <Energy>  (78) 
80.72945155661519

>  <Genealogy>  (78) 
Cc1nc(S(=O)(=O)[N-]CC(O)c2ccco2)cn1C (protonated)
Cc1nc(S(=O)(=O)[N-]C[C@@H](O)c2ccco2)cn1C (chirality)
Cc1nc(S(=O)(=O)[N-]C[C@@H](O)c2ccco2)cn1C (3D coordinates assigned)
Cc1nc(S(=O)(=O)[N-]C[C@@H](O)c2ccco2)cn1C (optimized conformer: 80.72945155661519 kcal/mol)

>  <smiles>  (78) 
Cc1nc(S(=O)(=O)NCC(O)c2ccco2)cn1C

>  <score_type>  (78) 
oracle

>  <origin>  (78) 
adg

>  <m_score__min__energy>  (78) 
-8.7300000000000004

>  <m_primary>  (78) 
energy

$$$$
78:0
     RDKit          3D

 62 66  0  0  0  0  0  0  0  0999 V2000
   63.3550   31.6000   47.6420 C   0  0  0  0  0  0  0  0  0  0  0  0
   62.1220   32.4330   47.4980 C   0  0  0  0  0  0  0  0  0  0  0  0
   61.9450   33.5800   48.2830 C   0  0  0  0  0  0  0  0  0  0  0  0
   60.7730   34.3270   48.1540 C   0  0  0  0  0  0  0  0  0  0  0  0
   59.7810   33.9220   47.2550 C   0  0  0  0  0  0  0  0  0  0  0  0
   58.5920   34.6480   47.1090 C   0  0  0  0  0  0  0  0  0  0  0  0
   57.6160   34.2150   46.2100 C   0  0  0  0  0  0  0  0  0  0  0  0
   57.8160   33.0580   45.4530 C   0  0  0  0  0  0  0  0  0  0  0  0
   59.0050   32.3130   45.5880 C   0  0  0  0  0  0  0  0  0  0  0  0
   59.2440   31.1390   44.8520 O   0  0  0  0  0  0  0  0  0  0  0  0
   58.2440   30.2080   44.4370 C   0  0  0  0  0  0  0  0  0  0  0  0
   58.0660   29.1300   45.4720 C   0  0  0  0  0  0  0  0  0  0  0  0
   58.7100   29.2200   46.7160 C   0  0  0  0  0  0  0  0  0  0  0  0
   58.5580   28.2030   47.6720 C   0  0  0  0  0  0  0  0  0  0  0  0
   59.2130   28.2760   48.9510 N   0  0  0  0  0  0  0  0  0  0  0  0
   60.5570   27.8140   49.1820 C   0  0  0  0  0  0  0  0  0  0  0  0
   61.0790   26.9990   48.3740 O   0  0  0  0  0  0  0  0  0  0  0  0
   61.3000   28.2430   50.3470 N   0  0  0  0  0  0  0  0  0  0  0  0
   61.7310   27.2670   51.3520 C   0  0  0  0  0  0  0  0  0  0  0  0
   61.5240   29.6730   50.6010 C   0  0  0  0  0  0  0  0  0  0  0  0
   60.2090   30.4010   50.6800 C   0  0  0  0  0  0  0  0  0  0  0  0
   59.3590   30.2120   51.7830 C   0  0  0  0  0  0  0  0  0  0  0  0
   58.1540   30.9150   51.8720 C   0  0  0  0  0  0  0  0  0  0  0  0
   57.7910   31.8160   50.8660 C   0  0  0  0  0  0  0  0  0  0  0  0
   58.6350   32.0170   49.7710 C   0  0  0  0  0  0  0  0  0  0  0  0
   59.8420   31.3160   49.6780 C   0  0  0  0  0  0  0  0  0  0  0  0
   57.7130   27.1200   47.3940 C   0  0  0  0  0  0  0  0  0  0  0  0
   57.0570   27.0140   46.1540 C   0  0  0  0  0  0  0  0  0  0  0  0
   56.1790   25.8490   45.8820 C   0  0  0  0  0  0  0  0  0  0  0  0
   56.6450   24.5450   45.6700 C   0  0  0  0  0  0  0  0  0  0  0  0
   55.3180   23.5420   45.4100 S   0  0  0  0  0  0  0  0  0  0  0  0
   54.2220   24.7970   45.5770 C   0  0  0  0  0  0  0  0  0  0  0  0
   52.9750   24.6690   45.4790 O   0  0  0  0  0  0  0  0  0  0  0  0
   54.8230   25.9760   45.8320 N   0  0  0  0  0  0  0  0  0  0  0  0
   57.2410   28.0290   45.1990 C   0  0  0  0  0  0  0  0  0  0  0  0
   59.9890   32.7520   46.4880 C   0  0  0  0  0  0  0  0  0  0  0  0
   61.1430   32.0460   46.6360 N   0  0  0  0  0  0  0  0  0  0  0  0
   63.5746   31.4516   48.7096 H   0  0  0  0  0  0  0  0  0  0  0  0
   63.1960   30.6235   47.1612 H   0  0  0  0  0  0  0  0  0  0  0  0
   64.2016   32.1120   47.1612 H   0  0  0  0  0  0  0  0  0  0  0  0
   62.7238   33.8895   48.9956 H   0  0  0  0  0  0  0  0  0  0  0  0
   60.6295   35.2342   48.7593 H   0  0  0  0  0  0  0  0  0  0  0  0
   58.4275   35.5592   47.7028 H   0  0  0  0  0  0  0  0  0  0  0  0
   56.6839   34.7881   46.0969 H   0  0  0  0  0  0  0  0  0  0  0  0
   57.0405   32.7262   44.7469 H   0  0  0  0  0  0  0  0  0  0  0  0
   57.2903   30.7385   44.2991 H   0  0  0  0  0  0  0  0  0  0  0  0
   58.5601   29.7443   43.4909 H   0  0  0  0  0  0  0  0  0  0  0  0
   59.3384   30.0937   46.9435 H   0  0  0  0  0  0  0  0  0  0  0  0
   58.6410   28.5790   49.7690 H   0  0  0  0  0  0  0  0  0  0  0  0
   61.5516   27.6733   52.3583 H   0  0  0  0  0  0  0  0  0  0  0  0
   61.1608   26.3348   51.2260 H   0  0  0  0  0  0  0  0  0  0  0  0
   62.8040   27.0604   51.2260 H   0  0  0  0  0  0  0  0  0  0  0  0
   62.0629   29.7926   51.5525 H   0  0  0  0  0  0  0  0  0  0  0  0
   62.1177   30.0945   49.7765 H   0  0  0  0  0  0  0  0  0  0  0  0
   59.6429   29.5083   52.5793 H   0  0  0  0  0  0  0  0  0  0  0  0
   57.4900   30.7592   52.7350 H   0  0  0  0  0  0  0  0  0  0  0  0
   56.8412   32.3663   50.9368 H   0  0  0  0  0  0  0  0  0  0  0  0
   58.3501   32.7274   48.9810 H   0  0  0  0  0  0  0  0  0  0  0  0
   60.5066   31.4815   48.8173 H   0  0  0  0  0  0  0  0  0  0  0  0
   57.5605   26.3417   48.1563 H   0  0  0  0  0  0  0  0  0  0  0  0
   57.6989   24.2299   45.6729 H   0  0  0  0  0  0  0  0  0  0  0  0
   56.7321   27.9590   44.2263 H   0  0  0  0  0  0  0  0  0  0  0  0
  1  2  1  0
  2  3  2  0
  3  4  1  0
  4  5  2  0
  5  6  1  0
  6  7  2  0
  7  8  1  0
  8  9  2  0
  9 10  1  0
 10 11  1  0
 11 12  1  0
 12 13  2  0
 13 14  1  0
 14 15  1  0
 15 16  1  0
 16 17  2  0
 16 18  1  0
 18 19  1  0
 18 20  1  0
 20 21  1  0
 21 22  2  0
 22 23  1  0
 23 24  2  0
 24 25  1  0
 25 26  2  0
 14 27  2  0
 27 28  1  0
 28 29  1  0
 29 30  2  0
 30 31  1  0
 31 32  1  0
 32 33  2  0
 32 34  1  0
 28 35  2  0
  9 36  1  0
 36 37  2  0
 37  2  1  0
 36  5  1  0
 35 12  1  0
 26 21  1  0
 34 29  1  0
  1 38  1  0
  1 39  1  0
  1 40  1  0
  3 41  1  0
  4 42  1  0
  6 43  1  0
  7 44  1  0
  8 45  1  0
 11 46  1  0
 11 47  1  0
 13 48  1  0
 15 49  1  0
 19 50  1  0
 19 51  1  0
 19 52  1  0
 20 53  1  0
 20 54  1  0
 22 55  1  0
 23 56  1  0
 24 57  1  0
 25 58  1  0
 26 59  1  0
 27 60  1  0
 30 61  1  0
 35 62  1  0
M  CHG  1  34  -1
M  END
>  <UniqueID>  (79) 
73

>  <SMILES>  (79) 
Cc1ccc2cccc(OCc3cc(NC(=O)N(C)Cc4ccccc4)cc(-c4csc(=O)[n-]4)c3)c2n1

>  <Energy>  (79) 
103.57036735218702

>  <Genealogy>  (79) 
Cc1ccc2cccc(OCc3cc(NC(=O)N(C)Cc4ccccc4)cc(-c4csc(=O)[n-]4)c3)c2n1 (protonated)
Cc1ccc2cccc(OCc3cc(NC(=O)N(C)Cc4ccccc4)cc(-c4csc(=O)[n-]4)c3)c2n1 (3D coordinates assigned)
Cc1ccc2cccc(OCc3cc(NC(=O)N(C)Cc4ccccc4)cc(-c4csc(=O)[n-]4)c3)c2n1 (optimized conformer: 103.57036735218702 kcal/mol)

>  <smiles>  (79) 
Cc1ccc2cccc(OCc3cc(NC(=O)N(C)Cc4ccccc4)cc(-c4csc(=O)[nH]4)c3)c2n1

>  <score_type>  (79) 
oracle

>  <origin>  (79) 
adg

>  <m_score__min__energy>  (79) 
-13.380000000000001

>  <m_primary>  (79) 
energy

$$$$
79:0
     RDKit          3D

 36 38  0  0  1  0  0  0  0  0999 V2000
   61.0550   30.1860   46.3900 O   0  0  0  0  0  0  0  0  0  0  0  0
   59.8020   30.1500   46.3620 C   0  0  0  0  0  0  0  0  0  0  0  0
   58.9860   31.1120   46.8840 O   0  0  0  0  0  0  0  0  0  0  0  0
   59.4110   32.2890   47.4760 C   0  0  0  0  0  0  0  0  0  0  0  0
   60.3410   32.1540   48.5130 C   0  0  0  0  0  0  0  0  0  0  0  0
   60.8160   33.2520   49.1550 C   0  0  0  0  0  0  0  0  0  0  0  0
   60.3810   34.5260   48.7860 C   0  0  0  0  0  0  0  0  0  0  0  0
   59.4540   34.6290   47.7490 C   0  0  0  0  0  0  0  0  0  0  0  0
   58.9650   33.5330   47.0920 C   0  0  0  0  0  0  0  0  0  0  0  0
   57.9640   33.6370   45.9720 C   0  0  0  0  0  0  0  0  0  0  0  0
   58.4650   32.7350   44.9530 N   0  0  0  0  0  0  0  0  0  0  0  0
   57.7440   31.9170   44.2820 C   0  0  0  0  0  0  0  0  0  0  0  0
   57.0150   31.0200   44.9400 N   0  0  0  0  0  0  0  0  0  0  0  0
   56.2610   30.1650   44.2200 C   0  0  0  0  0  0  0  0  0  0  0  0
   55.5740   29.3210   44.8490 O   0  0  0  0  0  0  0  0  0  0  0  0
   56.2440   30.2160   42.8580 N   0  0  0  0  0  0  0  0  0  0  0  0
   56.9750   31.1140   42.1830 C   0  0  0  0  0  0  0  0  0  0  0  0
   57.7620   32.0090   42.9110 C   0  0  0  0  0  0  0  0  0  0  0  0
   58.5170   32.9360   42.2730 F   0  0  0  0  0  0  0  0  0  0  0  0
   59.1150   28.9650   45.7120 C   0  0  0  0  0  0  0  0  0  0  0  0
   59.2600   28.5400   44.4580 C   0  0  0  0  0  0  0  0  0  0  0  0
   58.5730   27.4660   44.0320 C   0  0  0  0  0  0  0  0  0  0  0  0
   57.7430   26.8750   44.9740 C   0  0  0  0  0  0  0  0  0  0  0  0
   57.9730   27.9020   46.4970 S   0  0  0  0  0  0  0  0  0  0  0  0
   60.6889   31.1534   48.8094 H   0  0  0  0  0  0  0  0  0  0  0  0
   61.5466   33.1372   49.9692 H   0  0  0  0  0  0  0  0  0  0  0  0
   60.7585   35.4231   49.2985 H   0  0  0  0  0  0  0  0  0  0  0  0
   59.1034   35.6274   47.4485 H   0  0  0  0  0  0  0  0  0  0  0  0
   56.9659   33.3237   46.3121 H   0  0  0  0  0  0  0  0  0  0  0  0
   57.8553   34.6673   45.6022 H   0  0  0  0  0  0  0  0  0  0  0  0
   57.0000   30.9470   45.9970 H   0  0  0  0  0  0  0  0  0  0  0  0
   55.6510   29.5430   42.3000 H   0  0  0  0  0  0  0  0  0  0  0  0
   56.9556   31.1453   41.0836 H   0  0  0  0  0  0  0  0  0  0  0  0
   59.9403   29.0667   43.7726 H   0  0  0  0  0  0  0  0  0  0  0  0
   58.6628   27.0814   43.0054 H   0  0  0  0  0  0  0  0  0  0  0  0
   57.0951   25.9955   44.8450 H   0  0  0  0  0  0  0  0  0  0  0  0
  1  2  2  0
  2  3  1  0
  3  4  1  0
  4  5  2  0
  5  6  1  0
  6  7  2  0
  7  8  1  0
  8  9  2  0
  9 10  1  0
 10 11  1  0
 11 12  2  0
 12 13  1  0
 13 14  1  0
 14 15  2  0
 14 16  1  0
 16 17  1  0
 17 18  2  0
 18 19  1  0
  2 20  1  0
 20 21  2  0
 21 22  1  0
 22 23  2  0
 23 24  1  0
  9  4  1  0
 18 12  1  0
 24 20  1  0
  5 25  1  0
  6 26  1  0
  7 27  1  0
  8 28  1  0
 10 29  1  0
 10 30  1  0
 13 31  1  0
 16 32  1  0
 17 33  1  0
 21 34  1  0
 22 35  1  0
 23 36  1  0
M  END
>  <smiles>  (80) 
O=C(Oc1ccccc1CN=c1[nH]c(=O)[nH]cc1F)c1cccs1

>  <score_type>  (80) 
oracle

>  <origin>  (80) 
adg

>  <m_score__min__energy>  (80) 
-7.5499999999999998

>  <m_primary>  (80) 
energy

$$$$
80:0
     RDKit          3D

 58 61  0  0  0  0  0  0  0  0999 V2000
   57.4830   32.2970   52.7400 C   0  0  0  0  0  0  0  0  0  0  0  0
   57.4430   31.3850   51.5620 C   0  0  0  0  0  0  0  0  0  0  0  0
   57.7070   31.8370   50.4150 O   0  0  0  0  0  0  0  0  0  0  0  0
   57.1990   30.0210   51.7550 O   0  0  0  0  0  0  0  0  0  0  0  0
   57.9810   29.2040   52.5800 C   0  0  0  0  0  0  0  0  0  0  0  0
   57.3610   28.5560   53.6550 C   0  0  0  0  0  0  0  0  0  0  0  0
   58.1030   27.7500   54.5210 C   0  0  0  0  0  0  0  0  0  0  0  0
   59.4720   27.5740   54.3090 C   0  0  0  0  0  0  0  0  0  0  0  0
   60.0980   28.1930   53.2240 C   0  0  0  0  0  0  0  0  0  0  0  0
   59.3630   29.0070   52.3460 C   0  0  0  0  0  0  0  0  0  0  0  0
   60.0040   29.5580   51.1820 N   0  0  0  0  0  0  0  0  0  0  0  0
   59.7980   28.9230   49.8720 C   0  0  0  0  0  0  0  0  0  0  0  0
   59.6500   29.9850   48.7730 C   0  0  0  0  0  0  0  0  0  0  0  0
   60.5250   31.1490   49.0080 N   0  0  0  0  0  0  0  0  0  0  0  0
   60.1750   32.4430   48.4690 C   0  0  0  0  0  0  0  0  0  0  0  0
   60.4990   33.4900   49.0940 O   0  0  0  0  0  0  0  0  0  0  0  0
   59.4150   32.5740   47.2060 C   0  0  0  0  0  0  0  0  0  0  0  0
   59.4980   31.5690   46.2290 C   0  0  0  0  0  0  0  0  0  0  0  0
   58.7280   31.6430   45.0580 C   0  0  0  0  0  0  0  0  0  0  0  0
   58.7280   30.4920   44.0880 C   0  0  0  0  0  0  0  0  0  0  0  0
   57.7820   29.4190   44.5690 C   0  0  0  0  0  0  0  0  0  0  0  0
   58.2900   28.1820   44.9940 C   0  0  0  0  0  0  0  0  0  0  0  0
   57.4340   27.2110   45.5220 C   0  0  0  0  0  0  0  0  0  0  0  0
   57.9680   25.9520   45.9750 C   0  0  0  0  0  0  0  0  0  0  0  0
   58.3990   24.9420   46.3410 N   0  0  0  0  0  0  0  0  0  0  0  0
   56.0640   27.4870   45.6140 C   0  0  0  0  0  0  0  0  0  0  0  0
   55.1860   26.5360   46.1290 O   0  0  0  0  0  0  0  0  0  0  0  0
   55.5880   28.6920   45.2010 N   0  0  0  0  0  0  0  0  0  0  0  0
   56.4000   29.6570   44.6930 C   0  0  0  0  0  0  0  0  0  0  0  0
   55.9030   30.7600   44.3440 O   0  0  0  0  0  0  0  0  0  0  0  0
   57.8960   32.7530   44.8500 C   0  0  0  0  0  0  0  0  0  0  0  0
   57.8470   33.7810   45.7940 C   0  0  0  0  0  0  0  0  0  0  0  0
   58.6020   33.6970   46.9680 C   0  0  0  0  0  0  0  0  0  0  0  0
   58.5100   34.6930   47.8850 F   0  0  0  0  0  0  0  0  0  0  0  0
   61.6090   31.0250   49.9910 C   0  0  0  0  0  0  0  0  0  0  0  0
   61.0230   30.6070   51.3430 C   0  0  0  0  0  0  0  0  0  0  0  0
   57.4569   31.7024   53.6651 H   0  0  0  0  0  0  0  0  0  0  0  0
   58.4081   32.8915   52.7122 H   0  0  0  0  0  0  0  0  0  0  0  0
   56.6135   32.9702   52.7122 H   0  0  0  0  0  0  0  0  0  0  0  0
   56.2807   28.6827   53.8188 H   0  0  0  0  0  0  0  0  0  0  0  0
   57.6093   27.2540   55.3697 H   0  0  0  0  0  0  0  0  0  0  0  0
   60.0583   26.9472   54.9971 H   0  0  0  0  0  0  0  0  0  0  0  0
   61.1745   28.0418   53.0560 H   0  0  0  0  0  0  0  0  0  0  0  0
   60.6617   28.2821   49.6413 H   0  0  0  0  0  0  0  0  0  0  0  0
   58.8774   28.3222   49.9104 H   0  0  0  0  0  0  0  0  0  0  0  0
   59.9123   29.5332   47.8050 H   0  0  0  0  0  0  0  0  0  0  0  0
   58.6078   30.3368   48.7786 H   0  0  0  0  0  0  0  0  0  0  0  0
   60.1736   30.7147   46.3830 H   0  0  0  0  0  0  0  0  0  0  0  0
   58.4042   30.8479   43.0988 H   0  0  0  0  0  0  0  0  0  0  0  0
   59.7439   30.0760   44.0175 H   0  0  0  0  0  0  0  0  0  0  0  0
   59.3672   27.9752   44.9113 H   0  0  0  0  0  0  0  0  0  0  0  0
   55.1570   26.3410   47.1230 H   0  0  0  0  0  0  0  0  0  0  0  0
   57.2802   32.8139   43.9405 H   0  0  0  0  0  0  0  0  0  0  0  0
   57.2117   34.6606   45.6132 H   0  0  0  0  0  0  0  0  0  0  0  0
   62.3275   30.2645   49.6513 H   0  0  0  0  0  0  0  0  0  0  0  0
   62.1228   31.9919   50.0959 H   0  0  0  0  0  0  0  0  0  0  0  0
   61.8328   30.2250   51.9820 H   0  0  0  0  0  0  0  0  0  0  0  0
   60.5472   31.4861   51.8022 H   0  0  0  0  0  0  0  0  0  0  0  0
  1  2  1  0
  2  3  2  0
  2  4  1  0
  4  5  1  0
  5  6  2  0
  6  7  1  0
  7  8  2  0
  8  9  1  0
  9 10  2  0
 10 11  1  0
 11 12  1  0
 12 13  1  0
 13 14  1  0
 14 15  1  0
 15 16  2  0
 15 17  1  0
 17 18  2  0
 18 19  1  0
 19 20  1  0
 20 21  1  0
 21 22  2  0
 22 23  1  0
 23 24  1  0
 24 25  3  0
 23 26  2  0
 26 27  1  0
 26 28  1  0
 28 29  1  0
 29 30  2  0
 19 31  2  0
 31 32  1  0
 32 33  2  0
 33 34  1  0
 14 35  1  0
 35 36  1  0
 10  5  1  0
 36 11  1  0
 33 17  1  0
 29 21  1  0
  1 37  1  0
  1 38  1  0
  1 39  1  0
  6 40  1  0
  7 41  1  0
  8 42  1  0
  9 43  1  0
 12 44  1  0
 12 45  1  0
 13 46  1  0
 13 47  1  0
 18 48  1  0
 20 49  1  0
 20 50  1  0
 22 51  1  0
 27 52  1  0
 31 53  1  0
 32 54  1  0
 35 55  1  0
 35 56  1  0
 36 57  1  0
 36 58  1  0
M  CHG  1  28  -1
M  END
>  <UniqueID>  (81) 
74

>  <SMILES>  (81) 
CC(=O)Oc1ccccc1N1CCN(C(=O)c2cc(Cc3cc(C#N)c(O)[n-]c3=O)ccc2F)CC1

>  <Energy>  (81) 
74.04117765168026

>  <Genealogy>  (81) 
CC(=O)Oc1ccccc1N1CCN(C(=O)c2cc(Cc3cc(C#N)c(O)[n-]c3=O)ccc2F)CC1 (protonated)
CC(=O)Oc1ccccc1N1CCN(C(=O)c2cc(Cc3cc(C#N)c(O)[n-]c3=O)ccc2F)CC1 (3D coordinates assigned)
CC(=O)Oc1ccccc1N1CCN(C(=O)c2cc(Cc3cc(C#N)c(O)[n-]c3=O)ccc2F)CC1 (nonaromatic ring conformer: 74.04117765168026 kcal/mol)

>  <smiles>  (81) 
CC(=O)Oc1ccccc1N1CCN(C(=O)c2cc(Cc3cc(C#N)c(O)[nH]c3=O)ccc2F)CC1

>  <score_type>  (81) 
oracle

>  <origin>  (81) 
adg

>  <m_score__min__energy>  (81) 
-11.99

>  <m_primary>  (81) 
energy

$$$$
81:0
     RDKit          3D

 27 28  0  0  0  0  0  0  0  0999 V2000
   57.8990   27.4690   43.7640 O   0  0  0  0  0  0  0  0  0  0  0  0
   57.3880   27.5560   44.9110 C   0  0  0  0  0  0  0  0  0  0  0  0
   56.9360   28.8340   45.3730 N   0  0  0  0  0  0  0  0  0  0  0  0
   56.6100   30.2060   44.3600 S   0  0  0  0  0  0  0  0  0  0  0  0
   55.1450   30.5290   44.4290 O   0  0  0  0  0  0  0  0  0  0  0  0
   56.9640   29.8730   42.9370 O   0  0  0  0  0  0  0  0  0  0  0  0
   57.5140   31.6130   44.9120 C   0  0  0  0  0  0  0  0  0  0  0  0
   58.0840   31.6430   46.1940 C   0  0  0  0  0  0  0  0  0  0  0  0
   58.7530   32.7870   46.6380 C   0  0  0  0  0  0  0  0  0  0  0  0
   58.8590   33.9060   45.8050 C   0  0  0  0  0  0  0  0  0  0  0  0
   59.6860   35.3450   46.3700 Cl  0  0  0  0  0  0  0  0  0  0  0  0
   58.3000   33.8770   44.5240 C   0  0  0  0  0  0  0  0  0  0  0  0
   57.6300   32.7340   44.0770 C   0  0  0  0  0  0  0  0  0  0  0  0
   57.2550   26.3350   45.7280 C   0  0  0  0  0  0  0  0  0  0  0  0
   56.0080   25.9270   46.2240 C   0  0  0  0  0  0  0  0  0  0  0  0
   54.8710   26.6960   45.9950 O   0  0  0  0  0  0  0  0  0  0  0  0
   55.9050   24.7800   46.9470 N   0  0  0  0  0  0  0  0  0  0  0  0
   57.0040   24.0250   47.2190 C   0  0  0  0  0  0  0  0  0  0  0  0
   56.8930   22.9630   47.8870 O   0  0  0  0  0  0  0  0  0  0  0  0
   58.2240   24.4160   46.7740 N   0  0  0  0  0  0  0  0  0  0  0  0
   58.3760   25.5500   46.0430 C   0  0  0  0  0  0  0  0  0  0  0  0
   59.5250   25.8790   45.6420 O   0  0  0  0  0  0  0  0  0  0  0  0
   58.0041   30.7643   46.8509 H   0  0  0  0  0  0  0  0  0  0  0  0
   59.1970   32.8076   47.6442 H   0  0  0  0  0  0  0  0  0  0  0  0
   58.3874   34.7547   43.8667 H   0  0  0  0  0  0  0  0  0  0  0  0
   57.1927   32.7139   43.0678 H   0  0  0  0  0  0  0  0  0  0  0  0
   54.9690   24.4800   47.3030 H   0  0  0  0  0  0  0  0  0  0  0  0
  1  2  2  0
  2  3  1  0
  3  4  1  0
  4  5  2  0
  4  6  2  0
  4  7  1  0
  7  8  2  0
  8  9  1  0
  9 10  2  0
 10 11  1  0
 10 12  1  0
 12 13  2  0
  2 14  1  0
 14 15  2  0
 15 16  1  0
 15 17  1  0
 17 18  1  0
 18 19  2  0
 18 20  1  0
 20 21  1  0
 21 22  2  0
 13  7  1  0
 21 14  1  0
  8 23  1  0
  9 24  1  0
 12 25  1  0
 13 26  1  0
 17 27  1  0
M  CHG  3   3  -1  16  -1  20  -1
M  END
>  <UniqueID>  (82) 
75

>  <SMILES>  (82) 
O=C([N-]S(=O)(=O)c1ccc(Cl)cc1)c1c([O-])[nH]c(=O)[n-]c1=O

>  <Energy>  (82) 
36.39094310969337

>  <Genealogy>  (82) 
O=C([N-]S(=O)(=O)c1ccc(Cl)cc1)c1c([O-])[nH]c(=O)[n-]c1=O (protonated)
O=C([N-]S(=O)(=O)c1ccc(Cl)cc1)c1c([O-])[nH]c(=O)[n-]c1=O (3D coordinates assigned)
O=C([N-]S(=O)(=O)c1ccc(Cl)cc1)c1c([O-])[nH]c(=O)[n-]c1=O (optimized conformer: 36.39094310969337 kcal/mol)

>  <smiles>  (82) 
O=C(NS(=O)(=O)c1ccc(Cl)cc1)c1c(O)[nH]c(=O)[nH]c1=O

>  <score_type>  (82) 
oracle

>  <origin>  (82) 
adg

>  <m_score__min__energy>  (82) 
-15.050000000000001

>  <m_primary>  (82) 
energy

$$$$
82:0
     RDKit          3D

 53 55  0  0  0  0  0  0  0  0999 V2000
   56.2390   31.8220   44.8650 O   0  0  0  0  0  0  0  0  0  0  0  0
   57.3730   31.7080   44.3230 C   0  0  0  0  0  0  0  0  0  0  0  0
   58.3420   32.8460   44.4070 C   0  0  0  0  0  0  0  0  0  0  0  0
   58.8080   33.0040   45.8280 C   0  0  0  0  0  0  0  0  0  0  0  0
   58.7760   31.9100   46.7050 C   0  0  0  0  0  0  0  0  0  0  0  0
   59.1110   32.0760   48.0510 C   0  0  0  0  0  0  0  0  0  0  0  0
   59.4730   33.3390   48.5380 C   0  0  0  0  0  0  0  0  0  0  0  0
   59.7390   33.5410   49.9720 C   0  0  0  0  0  0  0  0  0  0  0  0
   59.2760   34.5610   50.5470 O   0  0  0  0  0  0  0  0  0  0  0  0
   60.4680   32.5790   50.7460 N   0  0  0  0  0  0  0  0  0  0  0  0
   61.9250   32.4920   50.8280 C   0  0  0  0  0  0  0  0  0  0  0  0
   62.5500   32.7250   49.4770 C   0  0  0  0  0  0  0  0  0  0  0  0
   62.9940   34.0050   49.1010 C   0  0  0  0  0  0  0  0  0  0  0  0
   63.5350   34.2200   47.8310 C   0  0  0  0  0  0  0  0  0  0  0  0
   63.6410   33.1590   46.9280 C   0  0  0  0  0  0  0  0  0  0  0  0
   63.2070   31.8810   47.2950 C   0  0  0  0  0  0  0  0  0  0  0  0
   63.3050   30.8530   46.4140 F   0  0  0  0  0  0  0  0  0  0  0  0
   62.6630   31.6640   48.5650 C   0  0  0  0  0  0  0  0  0  0  0  0
   59.5420   34.4270   47.6560 C   0  0  0  0  0  0  0  0  0  0  0  0
   59.1980   34.2640   46.3120 C   0  0  0  0  0  0  0  0  0  0  0  0
   57.7570   30.4840   43.6780 N   0  0  0  0  0  0  0  0  0  0  0  0
   57.0490   29.2440   43.8280 C   0  0  0  0  0  0  0  0  0  0  0  0
   56.0800   29.1540   44.6300 O   0  0  0  0  0  0  0  0  0  0  0  0
   57.4720   28.0830   43.0920 N   0  0  0  0  0  0  0  0  0  0  0  0
   58.1540   27.1160   43.9660 C   0  0  0  0  0  0  0  0  0  0  0  0
   58.9490   27.8020   45.0510 C   0  0  0  0  0  0  0  0  0  0  0  0
   60.0610   28.5950   44.7270 C   0  0  0  0  0  0  0  0  0  0  0  0
   60.7780   29.2470   45.7350 C   0  0  0  0  0  0  0  0  0  0  0  0
   60.3900   29.1110   47.0720 C   0  0  0  0  0  0  0  0  0  0  0  0
   59.2850   28.3230   47.4010 C   0  0  0  0  0  0  0  0  0  0  0  0
   58.5630   27.6710   46.3970 C   0  0  0  0  0  0  0  0  0  0  0  0
   59.2063   32.6402   43.7585 H   0  0  0  0  0  0  0  0  0  0  0  0
   57.8488   33.7725   44.0778 H   0  0  0  0  0  0  0  0  0  0  0  0
   58.4859   30.9169   46.3314 H   0  0  0  0  0  0  0  0  0  0  0  0
   59.0905   31.2118   48.7312 H   0  0  0  0  0  0  0  0  0  0  0  0
   62.2930   33.2529   51.5320 H   0  0  0  0  0  0  0  0  0  0  0  0
   62.1999   31.4852   51.1756 H   0  0  0  0  0  0  0  0  0  0  0  0
   62.9150   34.8417   49.8107 H   0  0  0  0  0  0  0  0  0  0  0  0
   63.8775   35.2246   47.5419 H   0  0  0  0  0  0  0  0  0  0  0  0
   64.0661   33.3289   45.9278 H   0  0  0  0  0  0  0  0  0  0  0  0
   62.3223   30.6578   48.8503 H   0  0  0  0  0  0  0  0  0  0  0  0
   59.8678   35.4113   48.0234 H   0  0  0  0  0  0  0  0  0  0  0  0
   59.2326   35.1260   45.6295 H   0  0  0  0  0  0  0  0  0  0  0  0
   58.6260   30.4830   43.0980 H   0  0  0  0  0  0  0  0  0  0  0  0
   56.6500   27.6330   42.6260 H   0  0  0  0  0  0  0  0  0  0  0  0
   58.1370   28.3890   42.3430 H   0  0  0  0  0  0  0  0  0  0  0  0
   57.4000   26.4662   44.4342 H   0  0  0  0  0  0  0  0  0  0  0  0
   58.8523   26.5316   43.3489 H   0  0  0  0  0  0  0  0  0  0  0  0
   60.3694   28.7039   43.6767 H   0  0  0  0  0  0  0  0  0  0  0  0
   61.6484   29.8678   45.4762 H   0  0  0  0  0  0  0  0  0  0  0  0
   60.9550   29.6245   47.8639 H   0  0  0  0  0  0  0  0  0  0  0  0
   58.9819   28.2150   48.4529 H   0  0  0  0  0  0  0  0  0  0  0  0
   57.6911   27.0542   46.6604 H   0  0  0  0  0  0  0  0  0  0  0  0
  1  2  2  0
  2  3  1  0
  3  4  1  0
  4  5  2  0
  5  6  1  0
  6  7  2  0
  7  8  1  0
  8  9  2  0
  8 10  1  0
 10 11  1  0
 11 12  1  0
 12 13  2  0
 13 14  1  0
 14 15  2  0
 15 16  1  0
 16 17  1  0
 16 18  2  0
  7 19  1  0
 19 20  2  0
  2 21  1  0
 21 22  1  0
 22 23  2  0
 22 24  1  0
 24 25  1  0
 25 26  1  0
 26 27  2  0
 27 28  1  0
 28 29  2  0
 29 30  1  0
 30 31  2  0
 20  4  1  0
 31 26  1  0
 18 12  1  0
  3 32  1  0
  3 33  1  0
  5 34  1  0
  6 35  1  0
 11 36  1  0
 11 37  1  0
 13 38  1  0
 14 39  1  0
 15 40  1  0
 18 41  1  0
 19 42  1  0
 20 43  1  0
 21 44  1  0
 24 45  1  0
 24 46  1  0
 25 47  1  0
 25 48  1  0
 27 49  1  0
 28 50  1  0
 29 51  1  0
 30 52  1  0
 31 53  1  0
M  CHG  2  10  -1  24   1
M  END
>  <UniqueID>  (83) 
76

>  <SMILES>  (83) 
O=C(Cc1ccc(C(=O)[N-]Cc2cccc(F)c2)cc1)NC(=O)[NH2+]Cc1ccccc1

>  <Energy>  (83) 
51.19542452655811

>  <Genealogy>  (83) 
O=C(Cc1ccc(C(=O)[N-]Cc2cccc(F)c2)cc1)NC(=O)[NH2+]Cc1ccccc1 (protonated)
O=C(Cc1ccc(C(=O)[N-]Cc2cccc(F)c2)cc1)NC(=O)[NH2+]Cc1ccccc1 (3D coordinates assigned)
O=C(Cc1ccc(C(=O)[N-]Cc2cccc(F)c2)cc1)NC(=O)[NH2+]Cc1ccccc1 (optimized conformer: 51.19542452655811 kcal/mol)

>  <smiles>  (83) 
O=C(Cc1ccc(C(=O)NCc2cccc(F)c2)cc1)NC(=O)NCc1ccccc1

>  <score_type>  (83) 
oracle

>  <origin>  (83) 
adg

>  <m_score__min__energy>  (83) 
-9.5500000000000007

>  <m_primary>  (83) 
energy

$$$$
83:0
     RDKit          3D

 41 42  0  0  0  0  0  0  0  0999 V2000
   60.2233   21.7590   43.1157 H   0  0  0  0  0  0  0  0  0  0  0  0
   59.8350   21.8940   44.1360 C   0  0  0  0  0  0  0  0  0  0  0  0
   60.5318   22.0314   44.9760 H   0  0  0  0  0  0  0  0  0  0  0  0
   58.5170   21.8910   44.3550 C   0  0  0  0  0  0  0  0  0  0  0  0
   57.8334   21.7524   43.5044 H   0  0  0  0  0  0  0  0  0  0  0  0
   57.9430   22.0720   45.7330 C   0  0  0  0  0  0  0  0  0  0  0  0
   57.3089   21.2067   45.9765 H   0  0  0  0  0  0  0  0  0  0  0  0
   58.7708   22.1534   46.4528 H   0  0  0  0  0  0  0  0  0  0  0  0
   57.1300   23.3040   45.8030 N   0  0  0  0  0  0  0  0  0  0  0  0
   55.7660   23.2320   45.9340 C   0  0  0  0  0  0  0  0  0  0  0  0
   55.1770   22.1180   45.9840 O   0  0  0  0  0  0  0  0  0  0  0  0
   55.0270   24.3650   46.0140 N   0  0  0  0  0  0  0  0  0  0  0  0
   55.5940   25.5930   45.9730 C   0  0  0  0  0  0  0  0  0  0  0  0
   54.7700   26.7100   46.0590 O   0  0  0  0  0  0  0  0  0  0  0  0
   56.9890   25.7180   45.8480 C   0  0  0  0  0  0  0  0  0  0  0  0
   57.6700   27.0390   45.8020 C   0  0  0  0  0  0  0  0  0  0  0  0
   58.7517   27.0775   45.6057 H   0  0  0  0  0  0  0  0  0  0  0  0
   57.0230   28.1450   45.9870 N   0  0  0  0  0  0  0  0  0  0  0  0
   57.2590   29.5170   44.9590 S   0  0  0  0  0  0  0  0  0  0  0  0
   57.7280   29.0500   43.6100 O   0  0  0  0  0  0  0  0  0  0  0  0
   55.9570   30.2480   44.7850 O   0  0  0  0  0  0  0  0  0  0  0  0
   58.4740   30.5800   45.6610 C   0  0  0  0  0  0  0  0  0  0  0  0
   58.4310   31.9600   45.4240 C   0  0  0  0  0  0  0  0  0  0  0  0
   57.6437   32.3810   44.7814 H   0  0  0  0  0  0  0  0  0  0  0  0
   59.3850   32.8050   46.0010 C   0  0  0  0  0  0  0  0  0  0  0  0
   59.3406   33.8883   45.8153 H   0  0  0  0  0  0  0  0  0  0  0  0
   60.4000   32.2760   46.8170 C   0  0  0  0  0  0  0  0  0  0  0  0
   61.3770   33.1250   47.4450 N   0  0  0  0  0  0  0  0  0  0  0  0
   61.0350   33.9390   48.0030 H   0  0  0  0  0  0  0  0  0  0  0  0
   62.7890   32.8620   47.4490 C   0  0  0  0  0  0  0  0  0  0  0  0
   63.2360   31.7350   47.1030 O   0  0  0  0  0  0  0  0  0  0  0  0
   63.7360   33.9030   47.9500 C   0  0  0  0  0  0  0  0  0  0  0  0
   63.7344   33.9012   49.0500 H   0  0  0  0  0  0  0  0  0  0  0  0
   64.7498   33.6828   47.5845 H   0  0  0  0  0  0  0  0  0  0  0  0
   63.4211   34.8915   47.5845 H   0  0  0  0  0  0  0  0  0  0  0  0
   60.4210   30.8970   47.0750 C   0  0  0  0  0  0  0  0  0  0  0  0
   61.1925   30.4763   47.7367 H   0  0  0  0  0  0  0  0  0  0  0  0
   59.4670   30.0540   46.4960 C   0  0  0  0  0  0  0  0  0  0  0  0
   59.4970   28.9730   46.6975 H   0  0  0  0  0  0  0  0  0  0  0  0
   57.7460   24.5320   45.7660 C   0  0  0  0  0  0  0  0  0  0  0  0
   59.0030   24.6020   45.6590 O   0  0  0  0  0  0  0  0  0  0  0  0
  1  2  1  0
  2  3  1  0
  2  4  2  0
  4  5  1  0
  4  6  1  0
  6  7  1  0
  6  8  1  0
  6  9  1  0
  9 10  1  0
 10 11  2  0
 10 12  1  0
 12 13  1  0
 13 14  1  0
 13 15  2  0
 15 16  1  0
 16 17  1  0
 16 18  2  0
 18 19  1  0
 19 20  2  0
 19 21  2  0
 19 22  1  0
 22 23  2  0
 23 24  1  0
 23 25  1  0
 25 26  1  0
 25 27  2  0
 27 28  1  0
 28 29  1  0
 28 30  1  0
 30 31  2  0
 30 32  1  0
 32 33  1  0
 32 34  1  0
 32 35  1  0
 27 36  1  0
 36 37  1  0
 36 38  2  0
 38 39  1  0
 15 40  1  0
 40 41  2  0
 40  9  1  0
 38 22  1  0
M  CHG  2  12  -1  14  -1
M  END
>  <UniqueID>  (84) 
77

>  <SMILES>  (84) 
C=CCn1c(=O)[n-]c([O-])c(/C=N/S(=O)(=O)c2ccc(NC(C)=O)cc2)c1=O

>  <Energy>  (84) 
49.08029623557488

>  <Genealogy>  (84) 
C=CCn1c(=O)[n-]c([O-])c(C=NS(=O)(=O)c2ccc(NC(C)=O)cc2)c1=O (protonated)
C=CCn1c(=O)[n-]c([O-])c(/C=N/S(=O)(=O)c2ccc(NC(C)=O)cc2)c1=O (cis-trans isomerization)
C=CCn1c(=O)[n-]c([O-])c(/C=N/S(=O)(=O)c2ccc(NC(C)=O)cc2)c1=O (3D coordinates assigned)
C=CCn1c(=O)[n-]c([O-])c(/C=N/S(=O)(=O)c2ccc(NC(C)=O)cc2)c1=O (optimized conformer: 49.08029623557488 kcal/mol)

>  <smiles>  (84) 
C=CCn1c(=O)[nH]c(O)c(C=NS(=O)(=O)c2ccc(NC(C)=O)cc2)c1=O

>  <score_type>  (84) 
oracle

>  <origin>  (84) 
adg

>  <m_score__min__energy>  (84) 
-13.41

>  <m_primary>  (84) 
energy

$$$$
84:0
     RDKit          3D

 48 50  0  0  0  0  0  0  0  0999 V2000
   53.4220   23.7000   44.0990 H   0  0  0  0  0  0  0  0  0  0  0  0
   54.0010   22.9800   44.5850 N   0  0  0  0  0  0  0  0  0  0  0  0
   55.2980   22.9360   44.5530 C   0  0  0  0  0  0  0  0  0  0  0  0
   55.8910   21.9080   43.8920 N   0  0  0  0  0  0  0  0  0  0  0  0
   57.2380   21.7850   43.7960 C   0  0  0  0  0  0  0  0  0  0  0  0
   57.6742   20.9362   43.2489 H   0  0  0  0  0  0  0  0  0  0  0  0
   58.0690   22.7300   44.3880 C   0  0  0  0  0  0  0  0  0  0  0  0
   59.1615   22.6375   44.2990 H   0  0  0  0  0  0  0  0  0  0  0  0
   57.5080   23.8030   45.1000 C   0  0  0  0  0  0  0  0  0  0  0  0
   58.3260   24.7810   45.6880 O   0  0  0  0  0  0  0  0  0  0  0  0
   58.4430   26.1140   45.2650 C   0  0  0  0  0  0  0  0  0  0  0  0
   58.0170   26.5170   43.9880 C   0  0  0  0  0  0  0  0  0  0  0  0
   57.5758   25.7796   43.3013 H   0  0  0  0  0  0  0  0  0  0  0  0
   58.1500   27.8470   43.5850 C   0  0  0  0  0  0  0  0  0  0  0  0
   57.8050   28.1506   42.5856 H   0  0  0  0  0  0  0  0  0  0  0  0
   58.7190   28.7990   44.4420 C   0  0  0  0  0  0  0  0  0  0  0  0
   58.8240   30.1640   44.0020 N   0  0  0  0  0  0  0  0  0  0  0  0
   59.6340   30.4440   43.4050 H   0  0  0  0  0  0  0  0  0  0  0  0
   57.5800   31.3510   44.2430 S   0  0  0  0  0  0  0  0  0  0  0  0
   57.1870   31.9270   42.9110 O   0  0  0  0  0  0  0  0  0  0  0  0
   56.3800   30.6930   44.8630 O   0  0  0  0  0  0  0  0  0  0  0  0
   58.1560   32.6140   45.3270 C   0  0  0  0  0  0  0  0  0  0  0  0
   58.6010   33.8410   44.8180 C   0  0  0  0  0  0  0  0  0  0  0  0
   58.5683   34.0310   43.7350 H   0  0  0  0  0  0  0  0  0  0  0  0
   59.0860   34.8230   45.6840 C   0  0  0  0  0  0  0  0  0  0  0  0
   59.4384   35.7841   45.2813 H   0  0  0  0  0  0  0  0  0  0  0  0
   59.1250   34.5880   47.0620 C   0  0  0  0  0  0  0  0  0  0  0  0
   59.5084   35.3649   47.7398 H   0  0  0  0  0  0  0  0  0  0  0  0
   58.6750   33.3600   47.5850 C   0  0  0  0  0  0  0  0  0  0  0  0
   58.6890   33.0770   48.9590 O   0  0  0  0  0  0  0  0  0  0  0  0
   58.9380   31.7880   49.5110 C   0  0  0  0  0  0  0  0  0  0  0  0
   58.9259   31.8508   50.6091 H   0  0  0  0  0  0  0  0  0  0  0  0
   58.1584   31.0884   49.1751 H   0  0  0  0  0  0  0  0  0  0  0  0
   59.9221   31.4291   49.1751 H   0  0  0  0  0  0  0  0  0  0  0  0
   58.1940   32.3810   46.7080 C   0  0  0  0  0  0  0  0  0  0  0  0
   57.8420   31.4183   47.1073 H   0  0  0  0  0  0  0  0  0  0  0  0
   59.1830   28.3890   45.7050 C   0  0  0  0  0  0  0  0  0  0  0  0
   59.6556   29.1218   46.3755 H   0  0  0  0  0  0  0  0  0  0  0  0
   59.0490   27.0530   46.1190 C   0  0  0  0  0  0  0  0  0  0  0  0
   59.5320   26.6330   47.4790 C   0  0  0  0  0  0  0  0  0  0  0  0
   58.9417   27.1463   48.2524 H   0  0  0  0  0  0  0  0  0  0  0  0
   59.4145   25.5449   47.5899 H   0  0  0  0  0  0  0  0  0  0  0  0
   60.5932   26.9004   47.5899 H   0  0  0  0  0  0  0  0  0  0  0  0
   56.1030   23.9250   45.1800 C   0  0  0  0  0  0  0  0  0  0  0  0
   55.4800   25.0800   45.9270 C   0  0  0  0  0  0  0  0  0  0  0  0
   55.5723   24.9089   47.0097 H   0  0  0  0  0  0  0  0  0  0  0  0
   55.9974   26.0126   45.6577 H   0  0  0  0  0  0  0  0  0  0  0  0
   54.4165   25.1599   45.6577 H   0  0  0  0  0  0  0  0  0  0  0  0
  1  2  1  0
  2  3  2  0
  3  4  1  0
  4  5  1  0
  5  6  1  0
  5  7  2  0
  7  8  1  0
  7  9  1  0
  9 10  1  0
 10 11  1  0
 11 12  2  0
 12 13  1  0
 12 14  1  0
 14 15  1  0
 14 16  2  0
 16 17  1  0
 17 18  1  0
 17 19  1  0
 19 20  2  0
 19 21  2  0
 19 22  1  0
 22 23  2  0
 23 24  1  0
 23 25  1  0
 25 26  1  0
 25 27  2  0
 27 28  1  0
 27 29  1  0
 29 30  1  0
 30 31  1  0
 31 32  1  0
 31 33  1  0
 31 34  1  0
 29 35  2  0
 35 36  1  0
 16 37  1  0
 37 38  1  0
 37 39  2  0
 39 40  1  0
 40 41  1  0
 40 42  1  0
 40 43  1  0
  9 44  2  0
 44 45  1  0
 45 46  1  0
 45 47  1  0
 45 48  1  0
 44  3  1  0
 39 11  1  0
 35 22  1  0
M  CHG  1   4  -1
M  END
>  <UniqueID>  (85) 
78

>  <SMILES>  (85) 
[H]/N=c1/[n-]ccc(Oc2ccc(NS(=O)(=O)c3cccc(OC)c3)cc2C)c1C

>  <Energy>  (85) 
61.67906427597696

>  <Genealogy>  (85) 
COc1cccc(S(=O)(=O)Nc2ccc(Oc3cc[n-]c(=N)c3C)c(C)c2)c1 (protonated)
[H]/N=c1/[n-]ccc(Oc2ccc(NS(=O)(=O)c3cccc(OC)c3)cc2C)c1C (cis-trans isomerization)
[H]/N=c1/[n-]ccc(Oc2ccc(NS(=O)(=O)c3cccc(OC)c3)cc2C)c1C (3D coordinates assigned)
[H]/N=c1/[n-]ccc(Oc2ccc(NS(=O)(=O)c3cccc(OC)c3)cc2C)c1C (optimized conformer: 61.67906427597696 kcal/mol)

>  <smiles>  (85) 
COc1cccc(S(=O)(=O)Nc2ccc(Oc3cc[nH]c(=N)c3C)c(C)c2)c1

>  <score_type>  (85) 
oracle

>  <origin>  (85) 
adg

>  <m_score__min__energy>  (85) 
-11

>  <m_primary>  (85) 
energy

$$$$
85:0
     RDKit          3D

 48 50  0  0  0  0  0  0  0  0999 V2000
   55.8400   29.7170   45.9780 H   0  0  0  0  0  0  0  0  0  0  0  0
   55.8320   29.0160   45.2480 O   0  0  0  0  0  0  0  0  0  0  0  0
   56.3380   27.7280   45.4300 C   0  0  0  0  0  0  0  0  0  0  0  0
   55.5200   26.7770   45.9570 N   0  0  0  0  0  0  0  0  0  0  0  0
   55.9360   25.5010   46.1680 C   0  0  0  0  0  0  0  0  0  0  0  0
   55.1410   24.6560   46.6600 O   0  0  0  0  0  0  0  0  0  0  0  0
   57.2380   25.1280   45.8360 C   0  0  0  0  0  0  0  0  0  0  0  0
   57.5799   24.0960   46.0033 H   0  0  0  0  0  0  0  0  0  0  0  0
   58.1020   26.0760   45.2900 C   0  0  0  0  0  0  0  0  0  0  0  0
   59.1266   25.7883   45.0118 H   0  0  0  0  0  0  0  0  0  0  0  0
   57.6680   27.3980   45.0940 C   0  0  0  0  0  0  0  0  0  0  0  0
   58.5650   28.3840   44.4590 C   0  0  0  0  0  0  0  0  0  0  0  0
   59.5719   28.0450   44.1739 H   0  0  0  0  0  0  0  0  0  0  0  0
   58.2460   29.6620   44.2030 C   0  0  0  0  0  0  0  0  0  0  0  0
   58.1495   29.9534   43.1467 H   0  0  0  0  0  0  0  0  0  0  0  0
   58.0130   30.7120   45.2160 C   0  0  0  0  0  0  0  0  0  0  0  0
   56.9320   31.3590   45.2450 O   0  0  0  0  0  0  0  0  0  0  0  0
   59.0460   30.9830   46.1710 N   0  0  0  0  0  0  0  0  0  0  0  0
   59.4750   30.1200   47.2360 C   0  0  0  0  0  0  0  0  0  0  0  0
   58.8330   28.8910   47.4840 C   0  0  0  0  0  0  0  0  0  0  0  0
   58.0059   28.5663   46.8356 H   0  0  0  0  0  0  0  0  0  0  0  0
   59.2390   28.0820   48.5470 C   0  0  0  0  0  0  0  0  0  0  0  0
   58.7359   27.1208   48.7286 H   0  0  0  0  0  0  0  0  0  0  0  0
   60.2810   28.4900   49.3790 C   0  0  0  0  0  0  0  0  0  0  0  0
   60.6070   27.8450   50.2083 H   0  0  0  0  0  0  0  0  0  0  0  0
   60.9110   29.7170   49.1600 C   0  0  0  0  0  0  0  0  0  0  0  0
   61.7327   30.0347   49.8187 H   0  0  0  0  0  0  0  0  0  0  0  0
   60.5020   30.5480   48.1040 C   0  0  0  0  0  0  0  0  0  0  0  0
   61.1910   31.8360   47.8840 C   0  0  0  0  0  0  0  0  0  0  0  0
   61.6100   32.1180   46.7300 O   0  0  0  0  0  0  0  0  0  0  0  0
   61.3790   32.7830   48.9400 N   0  0  0  0  0  0  0  0  0  0  0  0
   60.3270   33.6420   49.4770 C   0  0  0  0  0  0  0  0  0  0  0  0
   60.2960   33.5379   50.5716 H   0  0  0  0  0  0  0  0  0  0  0  0
   60.5420   34.6861   49.2056 H   0  0  0  0  0  0  0  0  0  0  0  0
   58.9720   33.2430   48.8930 C   0  0  0  0  0  0  0  0  0  0  0  0
   58.9089   32.1456   48.8522 H   0  0  0  0  0  0  0  0  0  0  0  0
   58.1819   33.6555   49.5377 H   0  0  0  0  0  0  0  0  0  0  0  0
   58.7880   33.7970   47.5030 C   0  0  0  0  0  0  0  0  0  0  0  0
   59.8020   34.5590   46.9010 C   0  0  0  0  0  0  0  0  0  0  0  0
   60.7480   34.7324   47.4349 H   0  0  0  0  0  0  0  0  0  0  0  0
   59.6130   35.0980   45.6250 C   0  0  0  0  0  0  0  0  0  0  0  0
   60.4122   35.6902   45.1554 H   0  0  0  0  0  0  0  0  0  0  0  0
   58.4110   34.8860   44.9450 C   0  0  0  0  0  0  0  0  0  0  0  0
   58.2661   35.3080   43.9396 H   0  0  0  0  0  0  0  0  0  0  0  0
   57.3930   34.1380   45.5420 C   0  0  0  0  0  0  0  0  0  0  0  0
   56.4456   33.9746   45.0074 H   0  0  0  0  0  0  0  0  0  0  0  0
   57.5770   33.5970   46.8180 C   0  0  0  0  0  0  0  0  0  0  0  0
   56.7716   33.0130   47.2873 H   0  0  0  0  0  0  0  0  0  0  0  0
  1  2  1  0
  2  3  1  0
  3  4  1  0
  4  5  1  0
  5  6  2  0
  5  7  1  0
  7  8  1  0
  7  9  2  0
  9 10  1  0
  9 11  1  0
 11 12  1  0
 12 13  1  0
 12 14  2  0
 14 15  1  0
 14 16  1  0
 16 17  2  0
 16 18  1  0
 18 19  1  0
 19 20  2  0
 20 21  1  0
 20 22  1  0
 22 23  1  0
 22 24  2  0
 24 25  1  0
 24 26  1  0
 26 27  1  0
 26 28  2  0
 28 29  1  0
 29 30  2  0
 29 31  1  0
 31 32  1  0
 32 33  1  0
 32 34  1  0
 32 35  1  0
 35 36  1  0
 35 37  1  0
 35 38  1  0
 38 39  2  0
 39 40  1  0
 39 41  1  0
 41 42  1  0
 41 43  2  0
 43 44  1  0
 43 45  1  0
 45 46  1  0
 45 47  2  0
 47 48  1  0
 11  3  2  0
 28 19  1  0
 47 38  1  0
M  CHG  3   4  -1  18  -1  31  -1
M  END
>  <UniqueID>  (86) 
79

>  <SMILES>  (86) 
O=C(/C=C\c1ccc(=O)[n-]c1O)[N-]c1ccccc1C(=O)[N-]CCc1ccccc1

>  <Energy>  (86) 
65.74843691730743

>  <Genealogy>  (86) 
O=C(C=Cc1ccc(=O)[n-]c1O)[N-]c1ccccc1C(=O)[N-]CCc1ccccc1 (protonated)
O=C(/C=C\c1ccc(=O)[n-]c1O)[N-]c1ccccc1C(=O)[N-]CCc1ccccc1 (cis-trans isomerization)
O=C(/C=C\c1ccc(=O)[n-]c1O)[N-]c1ccccc1C(=O)[N-]CCc1ccccc1 (3D coordinates assigned)
O=C(/C=C\c1ccc(=O)[n-]c1O)[N-]c1ccccc1C(=O)[N-]CCc1ccccc1 (optimized conformer: 65.74843691730743 kcal/mol)

>  <smiles>  (86) 
O=C(C=Cc1ccc(=O)[nH]c1O)Nc1ccccc1C(=O)NCCc1ccccc1

>  <score_type>  (86) 
oracle

>  <origin>  (86) 
adg

>  <m_score__min__energy>  (86) 
-14.279999999999999

>  <m_primary>  (86) 
energy

$$$$
86:0
     RDKit          3D

 42 44  0  0  0  0  0  0  0  0999 V2000
   55.7320   31.1320   44.5190 O   0  0  0  0  0  0  0  0  0  0  0  0
   56.7580   30.3990   44.4940 C   0  0  0  0  0  0  0  0  0  0  0  0
   56.6160   28.9540   44.1300 C   0  0  0  0  0  0  0  0  0  0  0  0
   57.2110   28.1160   45.1700 N   0  0  0  0  0  0  0  0  0  0  0  0
   56.5810   27.2390   45.9770 C   0  0  0  0  0  0  0  0  0  0  0  0
   55.2080   27.0250   45.9890 O   0  0  0  0  0  0  0  0  0  0  0  0
   57.5040   26.5870   46.7670 C   0  0  0  0  0  0  0  0  0  0  0  0
   58.7270   27.0590   46.4480 N   0  0  0  0  0  0  0  0  0  0  0  0
   60.0080   26.6160   46.9990 C   0  0  0  0  0  0  0  0  0  0  0  0
   60.2770   27.2780   48.3240 C   0  0  0  0  0  0  0  0  0  0  0  0
   60.5180   26.5400   49.3180 O   0  0  0  0  0  0  0  0  0  0  0  0
   60.2980   28.7570   48.4880 C   0  0  0  0  0  0  0  0  0  0  0  0
   59.8800   29.3730   49.6860 C   0  0  0  0  0  0  0  0  0  0  0  0
   59.8980   30.7660   49.8130 C   0  0  0  0  0  0  0  0  0  0  0  0
   60.3390   31.5610   48.7540 C   0  0  0  0  0  0  0  0  0  0  0  0
   60.7610   30.9660   47.5640 C   0  0  0  0  0  0  0  0  0  0  0  0
   60.7430   29.5740   47.4300 C   0  0  0  0  0  0  0  0  0  0  0  0
   58.5190   27.9690   45.4700 C   0  0  0  0  0  0  0  0  0  0  0  0
   59.4450   28.6010   44.8930 O   0  0  0  0  0  0  0  0  0  0  0  0
   58.0620   30.9580   44.7200 N   0  0  0  0  0  0  0  0  0  0  0  0
   58.2940   32.2770   45.2430 C   0  0  0  0  0  0  0  0  0  0  0  0
   58.7970   33.2750   44.3940 C   0  0  0  0  0  0  0  0  0  0  0  0
   59.0620   34.5570   44.8850 C   0  0  0  0  0  0  0  0  0  0  0  0
   58.8380   34.8500   46.2320 C   0  0  0  0  0  0  0  0  0  0  0  0
   58.3540   33.8580   47.0910 C   0  0  0  0  0  0  0  0  0  0  0  0
   58.0910   32.5750   46.6040 C   0  0  0  0  0  0  0  0  0  0  0  0
   55.5489   28.7068   44.0291 H   0  0  0  0  0  0  0  0  0  0  0  0
   57.1333   28.7690   43.1770 H   0  0  0  0  0  0  0  0  0  0  0  0
   57.2827   25.8189   47.5227 H   0  0  0  0  0  0  0  0  0  0  0  0
   59.9825   25.5253   47.1393 H   0  0  0  0  0  0  0  0  0  0  0  0
   60.8086   26.8929   46.2973 H   0  0  0  0  0  0  0  0  0  0  0  0
   59.5370   28.7529   50.5274 H   0  0  0  0  0  0  0  0  0  0  0  0
   59.5638   31.2359   50.7497 H   0  0  0  0  0  0  0  0  0  0  0  0
   60.3540   32.6561   48.8572 H   0  0  0  0  0  0  0  0  0  0  0  0
   61.1085   31.5932   46.7298 H   0  0  0  0  0  0  0  0  0  0  0  0
   61.0794   29.1127   46.4898 H   0  0  0  0  0  0  0  0  0  0  0  0
   58.8900   30.4010   44.4120 H   0  0  0  0  0  0  0  0  0  0  0  0
   58.9842   33.0469   43.3343 H   0  0  0  0  0  0  0  0  0  0  0  0
   59.4472   35.3354   44.2099 H   0  0  0  0  0  0  0  0  0  0  0  0
   59.0420   35.8600   46.6170 H   0  0  0  0  0  0  0  0  0  0  0  0
   58.1800   34.0884   48.1524 H   0  0  0  0  0  0  0  0  0  0  0  0
   57.7238   31.7946   47.2867 H   0  0  0  0  0  0  0  0  0  0  0  0
  1  2  2  0
  2  3  1  0
  3  4  1  0
  4  5  1  0
  5  6  1  0
  5  7  2  0
  7  8  1  0
  8  9  1  0
  9 10  1  0
 10 11  2  0
 10 12  1  0
 12 13  2  0
 13 14  1  0
 14 15  2  0
 15 16  1  0
 16 17  2  0
  8 18  1  0
 18 19  2  0
  2 20  1  0
 20 21  1  0
 21 22  2  0
 22 23  1  0
 23 24  2  0
 24 25  1  0
 25 26  2  0
 18  4  1  0
 26 21  1  0
 17 12  1  0
  3 27  1  0
  3 28  1  0
  7 29  1  0
  9 30  1  0
  9 31  1  0
 13 32  1  0
 14 33  1  0
 15 34  1  0
 16 35  1  0
 17 36  1  0
 20 37  1  0
 22 38  1  0
 23 39  1  0
 24 40  1  0
 25 41  1  0
 26 42  1  0
M  CHG  1   6  -1
M  END
>  <UniqueID>  (87) 
80

>  <SMILES>  (87) 
O=C(Cn1c([O-])cn(CC(=O)c2ccccc2)c1=O)Nc1ccccc1

>  <Energy>  (87) 
80.4731403771106

>  <Genealogy>  (87) 
O=C(Cn1c([O-])cn(CC(=O)c2ccccc2)c1=O)Nc1ccccc1 (protonated)
O=C(Cn1c([O-])cn(CC(=O)c2ccccc2)c1=O)Nc1ccccc1 (3D coordinates assigned)
O=C(Cn1c([O-])cn(CC(=O)c2ccccc2)c1=O)Nc1ccccc1 (optimized conformer: 80.4731403771106 kcal/mol)

>  <smiles>  (87) 
O=C(Cn1c(O)cn(CC(=O)c2ccccc2)c1=O)Nc1ccccc1

>  <score_type>  (87) 
oracle

>  <origin>  (87) 
adg

>  <m_score__min__energy>  (87) 
-11.109999999999999

>  <m_primary>  (87) 
energy

$$$$
87:0
     RDKit          3D

 36 37  0  0  0  0  0  0  0  0999 V2000
   59.4840   30.8310   45.9190 H   0  0  0  0  0  0  0  0  0  0  0  0
   59.3060   30.2780   45.0880 O   0  0  0  0  0  0  0  0  0  0  0  0
   58.0120   30.0400   44.6290 C   0  0  0  0  0  0  0  0  0  0  0  0
   57.5910   30.6360   43.4320 C   0  0  0  0  0  0  0  0  0  0  0  0
   58.2990   31.2343   42.8398 H   0  0  0  0  0  0  0  0  0  0  0  0
   56.2800   30.4740   42.9890 C   0  0  0  0  0  0  0  0  0  0  0  0
   55.9500   30.9375   42.0476 H   0  0  0  0  0  0  0  0  0  0  0  0
   55.3920   29.7190   43.7510 C   0  0  0  0  0  0  0  0  0  0  0  0
   54.3494   29.5980   43.4218 H   0  0  0  0  0  0  0  0  0  0  0  0
   55.8140   29.1320   44.9010 N   0  0  0  0  0  0  0  0  0  0  0  0
   57.0910   29.2430   45.3600 C   0  0  0  0  0  0  0  0  0  0  0  0
   57.3900   28.6270   46.4700 N   0  0  0  0  0  0  0  0  0  0  0  0
   58.3880   27.6200   46.6820 C   0  0  0  0  0  0  0  0  0  0  0  0
   58.2660   26.5020   46.1150 O   0  0  0  0  0  0  0  0  0  0  0  0
   59.6480   27.9320   47.4500 C   0  0  0  0  0  0  0  0  0  0  0  0
   59.5194   27.6041   48.4921 H   0  0  0  0  0  0  0  0  0  0  0  0
   60.4814   27.4013   46.9665 H   0  0  0  0  0  0  0  0  0  0  0  0
   59.9570   29.3710   47.4390 N   0  0  0  0  0  0  0  0  0  0  0  0
   59.1940   29.8830   46.9370 H   0  0  0  0  0  0  0  0  0  0  0  0
   60.1030   29.9330   48.7910 C   0  0  0  0  0  0  0  0  0  0  0  0
   59.6888   29.2233   49.5223 H   0  0  0  0  0  0  0  0  0  0  0  0
   61.1718   30.1063   48.9851 H   0  0  0  0  0  0  0  0  0  0  0  0
   59.3630   31.2660   48.9130 C   0  0  0  0  0  0  0  0  0  0  0  0
   58.7688   31.2695   49.8387 H   0  0  0  0  0  0  0  0  0  0  0  0
   60.0964   32.0854   48.9377 H   0  0  0  0  0  0  0  0  0  0  0  0
   58.4750   31.4510   47.7670 N   0  0  0  0  0  0  0  0  0  0  0  0
   58.5600   32.4440   46.9330 C   0  0  0  0  0  0  0  0  0  0  0  0
   59.7750   32.8980   46.5070 N   0  0  0  0  0  0  0  0  0  0  0  0
   59.8880   33.9350   45.6340 C   0  0  0  0  0  0  0  0  0  0  0  0
   60.8825   34.2764   45.3110 H   0  0  0  0  0  0  0  0  0  0  0  0
   58.7410   34.5660   45.1480 C   0  0  0  0  0  0  0  0  0  0  0  0
   58.8254   35.4043   44.4407 H   0  0  0  0  0  0  0  0  0  0  0  0
   57.4860   34.1220   45.5690 C   0  0  0  0  0  0  0  0  0  0  0  0
   56.5743   34.6114   45.1958 H   0  0  0  0  0  0  0  0  0  0  0  0
   57.3910   33.0550   46.4650 C   0  0  0  0  0  0  0  0  0  0  0  0
   56.4060   32.6979   46.8000 H   0  0  0  0  0  0  0  0  0  0  0  0
  1  2  1  0
  2  3  1  0
  3  4  2  0
  4  5  1  0
  4  6  1  0
  6  7  1  0
  6  8  2  0
  8  9  1  0
  8 10  1  0
 10 11  1  0
 11 12  2  3
 12 13  1  0
 13 14  2  0
 13 15  1  0
 15 16  1  0
 15 17  1  0
 15 18  1  0
 18 19  1  0
 18 20  1  0
 20 21  1  0
 20 22  1  0
 20 23  1  0
 23 24  1  0
 23 25  1  0
 23 26  1  0
 26 27  2  0
 27 28  1  0
 28 29  1  0
 29 30  1  0
 29 31  2  0
 31 32  1  0
 31 33  1  0
 33 34  1  0
 33 35  2  0
 35 36  1  0
 11  3  1  0
 35 27  1  0
M  CHG  2  10  -1  28  -1
M  END
>  <UniqueID>  (88) 
81

>  <SMILES>  (88) 
O=C(CNCC/N=c1/cccc[n-]1)N=c1[n-]cccc1O

>  <Energy>  (88) 
47.86161849088023

>  <Genealogy>  (88) 
O=C(CNCCN=c1cccc[n-]1)N=c1[n-]cccc1O (protonated)
O=C(CNCC/N=c1/cccc[n-]1)N=c1[n-]cccc1O (cis-trans isomerization)
O=C(CNCC/N=c1/cccc[n-]1)N=c1[n-]cccc1O (3D coordinates assigned)
O=C(CNCC/N=c1/cccc[n-]1)N=c1[n-]cccc1O (optimized conformer: 47.86161849088023 kcal/mol)

>  <smiles>  (88) 
O=C(CNCCN=c1cccc[nH]1)N=c1[nH]cccc1O

>  <score_type>  (88) 
oracle

>  <origin>  (88) 
adg

>  <m_score__min__energy>  (88) 
-9.6500000000000004

>  <m_primary>  (88) 
energy

$$$$
88:0
     RDKit          3D

 44 45  0  0  0  0  0  0  0  0999 V2000
   61.4580   33.8080   46.7280 C   0  0  0  0  0  0  0  0  0  0  0  0
   59.9750   33.7690   46.4680 C   0  0  0  0  0  0  0  0  0  0  0  0
   59.4470   34.5510   45.4240 C   0  0  0  0  0  0  0  0  0  0  0  0
   58.0880   34.4900   45.1100 C   0  0  0  0  0  0  0  0  0  0  0  0
   57.2410   33.6500   45.8300 C   0  0  0  0  0  0  0  0  0  0  0  0
   57.7440   32.8800   46.8790 C   0  0  0  0  0  0  0  0  0  0  0  0
   59.1050   32.9450   47.2260 C   0  0  0  0  0  0  0  0  0  0  0  0
   59.5730   32.1470   48.3800 C   0  0  0  0  0  0  0  0  0  0  0  0
   60.1120   32.7380   49.3560 O   0  0  0  0  0  0  0  0  0  0  0  0
   59.5170   30.7110   48.3430 N   0  0  0  0  0  0  0  0  0  0  0  0
   60.0060   29.8790   49.4080 C   0  0  0  0  0  0  0  0  0  0  0  0
   60.7620   28.4720   49.0450 S   0  0  0  0  0  0  0  0  0  0  0  0
   59.8800   30.2690   50.7840 N   0  0  0  0  0  0  0  0  0  0  0  0
   58.7030   30.8920   51.3190 C   0  0  0  0  0  0  0  0  0  0  0  0
   58.7540   32.2310   51.7250 C   0  0  0  0  0  0  0  0  0  0  0  0
   57.6100   32.8590   52.2260 C   0  0  0  0  0  0  0  0  0  0  0  0
   56.4130   32.1490   52.3410 C   0  0  0  0  0  0  0  0  0  0  0  0
   56.3610   30.7890   51.9850 C   0  0  0  0  0  0  0  0  0  0  0  0
   55.1460   30.0290   52.0530 N   0  0  0  0  0  0  0  0  0  0  0  0
   53.8420   30.4650   51.6540 C   0  0  0  0  0  0  0  0  0  0  0  0
   53.4410   30.3030   50.4720 O   0  0  0  0  0  0  0  0  0  0  0  0
   52.9520   31.1300   52.6600 C   0  0  0  0  0  0  0  0  0  0  0  0
   51.4810   31.0470   52.2410 C   0  0  0  0  0  0  0  0  0  0  0  0
   50.9970   32.3360   51.6510 C   0  0  0  0  0  0  0  0  0  0  0  0
   50.2510   33.0970   52.3190 O   0  0  0  0  0  0  0  0  0  0  0  0
   51.3890   32.7060   50.3690 O   0  0  0  0  0  0  0  0  0  0  0  0
   57.5060   30.1720   51.4710 C   0  0  0  0  0  0  0  0  0  0  0  0
   61.6401   33.8128   47.8128 H   0  0  0  0  0  0  0  0  0  0  0  0
   61.9321   32.9220   46.2805 H   0  0  0  0  0  0  0  0  0  0  0  0
   61.8849   34.7177   46.2805 H   0  0  0  0  0  0  0  0  0  0  0  0
   60.1102   35.2155   44.8508 H   0  0  0  0  0  0  0  0  0  0  0  0
   57.6852   35.1062   44.2927 H   0  0  0  0  0  0  0  0  0  0  0  0
   56.1735   33.5939   45.5708 H   0  0  0  0  0  0  0  0  0  0  0  0
   57.0697   32.2160   47.4397 H   0  0  0  0  0  0  0  0  0  0  0  0
   59.3030   30.2540   47.4260 H   0  0  0  0  0  0  0  0  0  0  0  0
   60.6700   30.0480   51.4310 H   0  0  0  0  0  0  0  0  0  0  0  0
   59.6978   32.7909   51.6494 H   0  0  0  0  0  0  0  0  0  0  0  0
   57.6528   33.9152   52.5304 H   0  0  0  0  0  0  0  0  0  0  0  0
   55.5086   32.6543   52.7108 H   0  0  0  0  0  0  0  0  0  0  0  0
   53.0762   30.6323   53.6331 H   0  0  0  0  0  0  0  0  0  0  0  0
   53.2351   32.1908   52.7271 H   0  0  0  0  0  0  0  0  0  0  0  0
   51.3684   30.2485   51.4928 H   0  0  0  0  0  0  0  0  0  0  0  0
   50.8813   30.8353   53.1385 H   0  0  0  0  0  0  0  0  0  0  0  0
   57.4691   29.1112   51.1825 H   0  0  0  0  0  0  0  0  0  0  0  0
  1  2  1  0
  2  3  2  0
  3  4  1  0
  4  5  2  0
  5  6  1  0
  6  7  2  0
  7  8  1  0
  8  9  2  0
  8 10  1  0
 10 11  1  0
 11 12  2  0
 11 13  1  0
 13 14  1  0
 14 15  2  0
 15 16  1  0
 16 17  2  0
 17 18  1  0
 18 19  1  0
 19 20  1  0
 20 21  2  0
 20 22  1  0
 22 23  1  0
 23 24  1  0
 24 25  2  0
 24 26  1  0
 18 27  2  0
  7  2  1  0
 27 14  1  0
  1 28  1  0
  1 29  1  0
  1 30  1  0
  3 31  1  0
  4 32  1  0
  5 33  1  0
  6 34  1  0
 10 35  1  0
 13 36  1  0
 15 37  1  0
 16 38  1  0
 17 39  1  0
 22 40  1  0
 22 41  1  0
 23 42  1  0
 23 43  1  0
 27 44  1  0
M  CHG  2  19  -1  26  -1
M  END
>  <UniqueID>  (89) 
82

>  <SMILES>  (89) 
Cc1ccccc1C(=O)NC(=S)Nc1cccc([N-]C(=O)CCC(=O)[O-])c1

>  <Energy>  (89) 
53.072927957564836

>  <Genealogy>  (89) 
Cc1ccccc1C(=O)NC(=S)Nc1cccc([N-]C(=O)CCC(=O)[O-])c1 (protonated)
Cc1ccccc1C(=O)NC(=S)Nc1cccc([N-]C(=O)CCC(=O)[O-])c1 (3D coordinates assigned)
Cc1ccccc1C(=O)NC(=S)Nc1cccc([N-]C(=O)CCC(=O)[O-])c1 (optimized conformer: 53.072927957564836 kcal/mol)

>  <smiles>  (89) 
Cc1ccccc1C(=O)NC(=S)Nc1cccc(NC(=O)CCC(=O)O)c1

>  <score_type>  (89) 
oracle

>  <origin>  (89) 
adg

>  <m_score__min__energy>  (89) 
-13.08

>  <m_primary>  (89) 
energy

$$$$
89:0
     RDKit          3D

 52 53  0  0  0  0  0  0  0  0999 V2000
   58.1180   32.3430   41.1210 C   0  0  0  0  0  0  0  0  0  0  0  0
   57.7200   31.9600   42.5090 C   0  0  0  0  0  0  0  0  0  0  0  0
   56.8890   30.8560   42.7310 C   0  0  0  0  0  0  0  0  0  0  0  0
   56.5200   30.5480   44.0460 C   0  0  0  0  0  0  0  0  0  0  0  0
   55.6640   29.3590   44.3440 C   0  0  0  0  0  0  0  0  0  0  0  0
   56.9830   31.3140   45.0700 N   0  0  0  0  0  0  0  0  0  0  0  0
   57.7850   32.3850   44.8360 C   0  0  0  0  0  0  0  0  0  0  0  0
   58.3630   33.3900   46.2030 S   0  0  0  0  0  0  0  0  0  0  0  0
   59.1050   31.9940   47.1190 C   0  0  0  0  0  0  0  0  0  0  0  0
   60.5800   31.9290   46.8780 C   0  0  0  0  0  0  0  0  0  0  0  0
   61.2420   32.9980   46.8060 O   0  0  0  0  0  0  0  0  0  0  0  0
   61.1970   30.6590   46.6360 N   0  0  0  0  0  0  0  0  0  0  0  0
   60.6690   29.5930   45.8350 C   0  0  0  0  0  0  0  0  0  0  0  0
   61.4760   28.8280   45.2450 O   0  0  0  0  0  0  0  0  0  0  0  0
   59.2540   29.3990   45.6840 N   0  0  0  0  0  0  0  0  0  0  0  0
   58.7030   28.1880   45.1470 C   0  0  0  0  0  0  0  0  0  0  0  0
   58.7050   28.0000   43.7590 C   0  0  0  0  0  0  0  0  0  0  0  0
   58.1590   26.8490   43.1990 C   0  0  0  0  0  0  0  0  0  0  0  0
   57.6160   25.8630   44.0190 C   0  0  0  0  0  0  0  0  0  0  0  0
   57.6090   26.0090   45.4180 C   0  0  0  0  0  0  0  0  0  0  0  0
   57.0580   24.8890   46.2240 C   0  0  0  0  0  0  0  0  0  0  0  0
   55.9000   24.9570   46.7180 O   0  0  0  0  0  0  0  0  0  0  0  0
   57.8560   23.7630   46.4670 O   0  0  0  0  0  0  0  0  0  0  0  0
   57.9090   22.6280   45.6010 C   0  0  0  0  0  0  0  0  0  0  0  0
   59.2670   22.5640   44.8980 C   0  0  0  0  0  0  0  0  0  0  0  0
   56.7820   22.7380   44.5770 C   0  0  0  0  0  0  0  0  0  0  0  0
   58.1300   27.2040   45.9960 C   0  0  0  0  0  0  0  0  0  0  0  0
   58.1120   27.4110   47.4960 C   0  0  0  0  0  0  0  0  0  0  0  0
   58.1490   32.6990   43.5650 N   0  0  0  0  0  0  0  0  0  0  0  0
   58.9100   33.1052   41.1638 H   0  0  0  0  0  0  0  0  0  0  0  0
   58.4913   31.4558   40.5886 H   0  0  0  0  0  0  0  0  0  0  0  0
   57.2458   32.7501   40.5886 H   0  0  0  0  0  0  0  0  0  0  0  0
   56.5331   30.2430   41.8898 H   0  0  0  0  0  0  0  0  0  0  0  0
   55.5748   29.2352   45.4334 H   0  0  0  0  0  0  0  0  0  0  0  0
   54.6648   29.5083   43.9089 H   0  0  0  0  0  0  0  0  0  0  0  0
   56.1226   28.4588   43.9089 H   0  0  0  0  0  0  0  0  0  0  0  0
   58.9203   32.1290   48.1950 H   0  0  0  0  0  0  0  0  0  0  0  0
   58.6473   31.0572   46.7683 H   0  0  0  0  0  0  0  0  0  0  0  0
   58.5930   30.1610   45.9520 H   0  0  0  0  0  0  0  0  0  0  0  0
   59.1422   28.7693   43.1056 H   0  0  0  0  0  0  0  0  0  0  0  0
   58.1563   26.7178   42.1069 H   0  0  0  0  0  0  0  0  0  0  0  0
   57.1865   24.9572   43.5662 H   0  0  0  0  0  0  0  0  0  0  0  0
   57.7837   21.7055   46.1870 H   0  0  0  0  0  0  0  0  0  0  0  0
   60.0682   22.5262   45.6508 H   0  0  0  0  0  0  0  0  0  0  0  0
   59.3121   21.6627   44.2690 H   0  0  0  0  0  0  0  0  0  0  0  0
   59.3967   23.4570   44.2690 H   0  0  0  0  0  0  0  0  0  0  0  0
   55.8190   22.8320   45.1003 H   0  0  0  0  0  0  0  0  0  0  0  0
   56.9447   23.6245   43.9465 H   0  0  0  0  0  0  0  0  0  0  0  0
   56.7702   21.8367   43.9465 H   0  0  0  0  0  0  0  0  0  0  0  0
   58.1966   26.4377   48.0015 H   0  0  0  0  0  0  0  0  0  0  0  0
   58.9579   28.0506   47.7880 H   0  0  0  0  0  0  0  0  0  0  0  0
   57.1684   27.8950   47.7880 H   0  0  0  0  0  0  0  0  0  0  0  0
  1  2  1  0
  2  3  2  0
  3  4  1  0
  4  5  1  0
  4  6  2  0
  6  7  1  0
  7  8  1  0
  8  9  1  0
  9 10  1  0
 10 11  2  0
 10 12  1  0
 12 13  1  0
 13 14  2  0
 13 15  1  0
 15 16  1  0
 16 17  2  0
 17 18  1  0
 18 19  2  0
 19 20  1  0
 20 21  1  0
 21 22  2  0
 21 23  1  0
 23 24  1  0
 24 25  1  0
 24 26  1  0
 20 27  2  0
 27 28  1  0
  7 29  2  0
 29  2  1  0
 27 16  1  0
  1 30  1  0
  1 31  1  0
  1 32  1  0
  3 33  1  0
  5 34  1  0
  5 35  1  0
  5 36  1  0
  9 37  1  0
  9 38  1  0
 15 39  1  0
 17 40  1  0
 18 41  1  0
 19 42  1  0
 24 43  1  0
 25 44  1  0
 25 45  1  0
 25 46  1  0
 26 47  1  0
 26 48  1  0
 26 49  1  0
 28 50  1  0
 28 51  1  0
 28 52  1  0
M  CHG  1  12  -1
M  END
>  <UniqueID>  (90) 
83

>  <SMILES>  (90) 
Cc1cc(C)nc(SCC(=O)[N-]C(=O)Nc2cccc(C(=O)OC(C)C)c2C)n1

>  <Energy>  (90) 
52.35857046887097

>  <Genealogy>  (90) 
Cc1cc(C)nc(SCC(=O)[N-]C(=O)Nc2cccc(C(=O)OC(C)C)c2C)n1 (protonated)
Cc1cc(C)nc(SCC(=O)[N-]C(=O)Nc2cccc(C(=O)OC(C)C)c2C)n1 (3D coordinates assigned)
Cc1cc(C)nc(SCC(=O)[N-]C(=O)Nc2cccc(C(=O)OC(C)C)c2C)n1 (optimized conformer: 52.35857046887097 kcal/mol)

>  <smiles>  (90) 
Cc1cc(C)nc(SCC(=O)NC(=O)Nc2cccc(C(=O)OC(C)C)c2C)n1

>  <score_type>  (90) 
oracle

>  <origin>  (90) 
adg

>  <m_score__min__energy>  (90) 
-9.9800000000000004

>  <m_primary>  (90) 
energy

$$$$
90:0
     RDKit          3D

 35 37  0  0  0  0  0  0  0  0999 V2000
   61.7240   34.1980   48.9810 C   0  0  0  0  0  0  0  0  0  0  0  0
   60.6290   34.0050   47.9870 C   0  0  0  0  0  0  0  0  0  0  0  0
   59.6440   34.9300   47.6740 C   0  0  0  0  0  0  0  0  0  0  0  0
   58.7960   34.5110   46.6410 C   0  0  0  0  0  0  0  0  0  0  0  0
   59.1220   33.2560   46.1210 C   0  0  0  0  0  0  0  0  0  0  0  0
   58.4260   32.5410   45.0200 C   0  0  0  0  0  0  0  0  0  0  0  0
   58.4200   33.0590   43.7120 C   0  0  0  0  0  0  0  0  0  0  0  0
   57.7630   32.3800   42.6840 C   0  0  0  0  0  0  0  0  0  0  0  0
   57.0970   31.1830   42.9450 C   0  0  0  0  0  0  0  0  0  0  0  0
   57.0700   30.6560   44.2460 C   0  0  0  0  0  0  0  0  0  0  0  0
   56.3620   29.3860   44.5390 C   0  0  0  0  0  0  0  0  0  0  0  0
   55.1520   29.4220   44.8870 O   0  0  0  0  0  0  0  0  0  0  0  0
   57.0160   28.1120   44.4640 N   0  0  0  0  0  0  0  0  0  0  0  0
   57.6310   27.4220   45.5600 C   0  0  0  0  0  0  0  0  0  0  0  0
   56.8630   26.4980   46.2870 C   0  0  0  0  0  0  0  0  0  0  0  0
   55.5670   26.2770   45.9520 F   0  0  0  0  0  0  0  0  0  0  0  0
   57.4170   25.8210   47.3770 C   0  0  0  0  0  0  0  0  0  0  0  0
   58.7470   26.0460   47.7370 C   0  0  0  0  0  0  0  0  0  0  0  0
   59.5310   26.9340   46.9990 C   0  0  0  0  0  0  0  0  0  0  0  0
   58.9870   27.6190   45.9050 C   0  0  0  0  0  0  0  0  0  0  0  0
   60.1660   28.7140   44.8600 Br  0  0  0  0  0  0  0  0  0  0  0  0
   57.7500   31.3320   45.2730 C   0  0  0  0  0  0  0  0  0  0  0  0
   60.4740   32.6870   46.9590 S   0  0  0  0  0  0  0  0  0  0  0  0
   61.3125   34.1255   49.9985 H   0  0  0  0  0  0  0  0  0  0  0  0
   62.4895   33.4209   48.8388 H   0  0  0  0  0  0  0  0  0  0  0  0
   62.1777   35.1900   48.8388 H   0  0  0  0  0  0  0  0  0  0  0  0
   59.5391   35.8976   48.1867 H   0  0  0  0  0  0  0  0  0  0  0  0
   57.9523   35.1137   46.2736 H   0  0  0  0  0  0  0  0  0  0  0  0
   58.9368   34.0061   43.4976 H   0  0  0  0  0  0  0  0  0  0  0  0
   57.7708   32.7911   41.6637 H   0  0  0  0  0  0  0  0  0  0  0  0
   56.5903   30.6491   42.1276 H   0  0  0  0  0  0  0  0  0  0  0  0
   56.8047   25.1104   47.9516 H   0  0  0  0  0  0  0  0  0  0  0  0
   59.1776   25.5227   48.6035 H   0  0  0  0  0  0  0  0  0  0  0  0
   60.5824   27.0969   47.2781 H   0  0  0  0  0  0  0  0  0  0  0  0
   57.7543   30.9108   46.2891 H   0  0  0  0  0  0  0  0  0  0  0  0
  1  2  1  0
  2  3  2  0
  3  4  1  0
  4  5  2  0
  5  6  1  0
  6  7  2  0
  7  8  1  0
  8  9  2  0
  9 10  1  0
 10 11  1  0
 11 12  2  0
 11 13  1  0
 13 14  1  0
 14 15  2  0
 15 16  1  0
 15 17  1  0
 17 18  2  0
 18 19  1  0
 19 20  2  0
 20 21  1  0
 10 22  2  0
  5 23  1  0
 23  2  1  0
 22  6  1  0
 20 14  1  0
  1 24  1  0
  1 25  1  0
  1 26  1  0
  3 27  1  0
  4 28  1  0
  7 29  1  0
  8 30  1  0
  9 31  1  0
 17 32  1  0
 18 33  1  0
 19 34  1  0
 22 35  1  0
M  CHG  1  13  -1
M  END
>  <UniqueID>  (91) 
84

>  <SMILES>  (91) 
Cc1ccc(-c2cccc(C(=O)[N-]c3c(F)cccc3Br)c2)s1

>  <Energy>  (91) 
75.15889995506178

>  <Genealogy>  (91) 
Cc1ccc(-c2cccc(C(=O)[N-]c3c(F)cccc3Br)c2)s1 (protonated)
Cc1ccc(-c2cccc(C(=O)[N-]c3c(F)cccc3Br)c2)s1 (3D coordinates assigned)
Cc1ccc(-c2cccc(C(=O)[N-]c3c(F)cccc3Br)c2)s1 (optimized conformer: 75.15889995506178 kcal/mol)

>  <smiles>  (91) 
Cc1ccc(-c2cccc(C(=O)Nc3c(F)cccc3Br)c2)s1

>  <score_type>  (91) 
oracle

>  <origin>  (91) 
adg

>  <m_score__min__energy>  (91) 
-10.81

>  <m_primary>  (91) 
energy

$$$$
91:0
     RDKit          3D

 46 48  0  0  0  0  0  0  0  0999 V2000
   58.8396   34.6133   47.8158 H   0  0  0  0  0  0  0  0  0  0  0  0
   58.6750   34.1760   46.8200 C   0  0  0  0  0  0  0  0  0  0  0  0
   57.7460   32.8160   46.4840 S   0  0  0  0  0  0  0  0  0  0  0  0
   58.0190   32.8160   44.8240 C   0  0  0  0  0  0  0  0  0  0  0  0
   57.4220   31.8530   43.8520 C   0  0  0  0  0  0  0  0  0  0  0  0
   58.2256   31.3330   43.3099 H   0  0  0  0  0  0  0  0  0  0  0  0
   56.7906   32.3984   43.1351 H   0  0  0  0  0  0  0  0  0  0  0  0
   56.6100   30.8770   44.5730 N   0  0  0  0  0  0  0  0  0  0  0  0
   56.9750   29.6710   44.8980 C   0  0  0  0  0  0  0  0  0  0  0  0
   56.0210   28.7790   45.2670 N   0  0  0  0  0  0  0  0  0  0  0  0
   56.3340   27.5060   45.6220 C   0  0  0  0  0  0  0  0  0  0  0  0
   55.4110   26.7200   45.9660 O   0  0  0  0  0  0  0  0  0  0  0  0
   57.6750   27.0880   45.6210 C   0  0  0  0  0  0  0  0  0  0  0  0
   58.0620   25.7020   45.9890 C   0  0  0  0  0  0  0  0  0  0  0  0
   59.2380   25.4810   46.3880 O   0  0  0  0  0  0  0  0  0  0  0  0
   57.1070   24.5690   45.8990 C   0  0  0  0  0  0  0  0  0  0  0  0
   57.0050   23.8070   44.7260 C   0  0  0  0  0  0  0  0  0  0  0  0
   57.6298   24.0647   43.8581 H   0  0  0  0  0  0  0  0  0  0  0  0
   56.1160   22.7170   44.6400 C   0  0  0  0  0  0  0  0  0  0  0  0
   56.0150   21.9660   43.4580 O   0  0  0  0  0  0  0  0  0  0  0  0
   57.0340   21.1200   42.9360 C   0  0  0  0  0  0  0  0  0  0  0  0
   57.5890   20.6592   43.7664 H   0  0  0  0  0  0  0  0  0  0  0  0
   56.5765   20.3325   42.3191 H   0  0  0  0  0  0  0  0  0  0  0  0
   57.7239   21.7146   42.3191 H   0  0  0  0  0  0  0  0  0  0  0  0
   55.3250   22.3800   45.7670 C   0  0  0  0  0  0  0  0  0  0  0  0
   54.4070   21.3120   45.7860 O   0  0  0  0  0  0  0  0  0  0  0  0
   54.7050   19.9410   46.0250 C   0  0  0  0  0  0  0  0  0  0  0  0
   54.7448   19.7580   47.1089 H   0  0  0  0  0  0  0  0  0  0  0  0
   53.9226   19.3119   45.5754 H   0  0  0  0  0  0  0  0  0  0  0  0
   55.6779   19.6935   45.5754 H   0  0  0  0  0  0  0  0  0  0  0  0
   55.4390   23.1310   46.9490 C   0  0  0  0  0  0  0  0  0  0  0  0
   54.6450   22.7610   48.0470 O   0  0  0  0  0  0  0  0  0  0  0  0
   55.0640   21.8910   49.0940 C   0  0  0  0  0  0  0  0  0  0  0  0
   54.8411   22.3539   50.0666 H   0  0  0  0  0  0  0  0  0  0  0  0
   54.5281   20.9339   49.0120 H   0  0  0  0  0  0  0  0  0  0  0  0
   56.1465   21.7133   49.0120 H   0  0  0  0  0  0  0  0  0  0  0  0
   56.3290   24.2180   47.0090 C   0  0  0  0  0  0  0  0  0  0  0  0
   56.4150   24.7994   47.9388 H   0  0  0  0  0  0  0  0  0  0  0  0
   58.6450   28.0190   45.2270 C   0  0  0  0  0  0  0  0  0  0  0  0
   59.7048   27.7252   45.2037 H   0  0  0  0  0  0  0  0  0  0  0  0
   58.2880   29.2830   44.8730 N   0  0  0  0  0  0  0  0  0  0  0  0
   59.0470   29.9350   44.5790 H   0  0  0  0  0  0  0  0  0  0  0  0
   58.8280   33.8970   44.5060 C   0  0  0  0  0  0  0  0  0  0  0  0
   59.1451   34.1354   43.4800 H   0  0  0  0  0  0  0  0  0  0  0  0
   59.2000   34.6540   45.6240 C   0  0  0  0  0  0  0  0  0  0  0  0
   59.8460   35.5422   45.5621 H   0  0  0  0  0  0  0  0  0  0  0  0
  1  2  1  0
  2  3  1  0
  3  4  1  0
  4  5  1  0
  5  6  1  0
  5  7  1  0
  5  8  1  0
  8  9  2  0
  9 10  1  0
 10 11  1  0
 11 12  2  0
 11 13  1  0
 13 14  1  0
 14 15  2  0
 14 16  1  0
 16 17  2  0
 17 18  1  0
 17 19  1  0
 19 20  1  0
 20 21  1  0
 21 22  1  0
 21 23  1  0
 21 24  1  0
 19 25  2  0
 25 26  1  0
 26 27  1  0
 27 28  1  0
 27 29  1  0
 27 30  1  0
 25 31  1  0
 31 32  1  0
 32 33  1  0
 33 34  1  0
 33 35  1  0
 33 36  1  0
 31 37  2  0
 37 38  1  0
 13 39  2  0
 39 40  1  0
 39 41  1  0
 41 42  1  0
  4 43  2  0
 43 44  1  0
 43 45  1  0
 45 46  1  0
 45  2  2  0
 41  9  1  0
 37 16  1  0
M  CHG  1  10  -1
M  END
>  <UniqueID>  (92) 
85

>  <SMILES>  (92) 
COc1cc(C(=O)c2c[nH]/c(=N\Cc3cccs3)[n-]c2=O)cc(OC)c1OC

>  <Energy>  (92) 
83.13494062813734

>  <Genealogy>  (92) 
COc1cc(C(=O)c2c[nH]c(=NCc3cccs3)[n-]c2=O)cc(OC)c1OC (protonated)
COc1cc(C(=O)c2c[nH]/c(=N\Cc3cccs3)[n-]c2=O)cc(OC)c1OC (cis-trans isomerization)
COc1cc(C(=O)c2c[nH]/c(=N\Cc3cccs3)[n-]c2=O)cc(OC)c1OC (3D coordinates assigned)
COc1cc(C(=O)c2c[nH]/c(=N\Cc3cccs3)[n-]c2=O)cc(OC)c1OC (optimized conformer: 83.13494062813734 kcal/mol)

>  <smiles>  (92) 
COc1cc(C(=O)c2c[nH]c(=NCc3cccs3)[nH]c2=O)cc(OC)c1OC

>  <score_type>  (92) 
oracle

>  <origin>  (92) 
adg

>  <m_score__min__energy>  (92) 
-9.1300000000000008

>  <m_primary>  (92) 
energy

$$$$
92:0
     RDKit          3D

 40 42  0  0  0  0  0  0  0  0999 V2000
   57.1444   24.6478   47.3691 H   0  0  0  0  0  0  0  0  0  0  0  0
   57.2820   25.5540   46.7610 C   0  0  0  0  0  0  0  0  0  0  0  0
   56.2530   26.3830   46.4460 N   0  0  0  0  0  0  0  0  0  0  0  0
   56.6710   27.4270   45.6940 C   0  0  0  0  0  0  0  0  0  0  0  0
   55.8950   28.3690   45.2460 N   0  0  0  0  0  0  0  0  0  0  0  0
   56.2960   29.6940   44.8700 C   0  0  0  0  0  0  0  0  0  0  0  0
   55.4810   30.4200   44.2410 O   0  0  0  0  0  0  0  0  0  0  0  0
   57.5840   30.2080   45.2310 N   0  0  0  0  0  0  0  0  0  0  0  0
   57.8840   31.5640   45.5920 C   0  0  0  0  0  0  0  0  0  0  0  0
   57.4880   32.5850   44.7180 C   0  0  0  0  0  0  0  0  0  0  0  0
   57.0041   32.3293   43.7638 H   0  0  0  0  0  0  0  0  0  0  0  0
   57.7030   33.9260   45.0490 C   0  0  0  0  0  0  0  0  0  0  0  0
   57.4049   34.7196   44.3481 H   0  0  0  0  0  0  0  0  0  0  0  0
   58.2960   34.2590   46.2690 C   0  0  0  0  0  0  0  0  0  0  0  0
   58.4730   35.3142   46.5245 H   0  0  0  0  0  0  0  0  0  0  0  0
   58.6640   33.2530   47.1640 C   0  0  0  0  0  0  0  0  0  0  0  0
   59.1195   33.5191   48.1292 H   0  0  0  0  0  0  0  0  0  0  0  0
   58.4560   31.9050   46.8390 C   0  0  0  0  0  0  0  0  0  0  0  0
   58.7750   30.8990   47.7990 N   0  0  0  0  0  0  0  0  0  0  0  0
   60.2310   29.9760   47.6840 S   0  0  0  0  0  0  0  0  0  0  0  0
   60.3990   29.4430   46.2890 O   0  0  0  0  0  0  0  0  0  0  0  0
   60.1520   28.8110   48.6310 O   0  0  0  0  0  0  0  0  0  0  0  0
   61.5960   31.0060   48.1020 C   0  0  0  0  0  0  0  0  0  0  0  0
   62.1360   31.8890   47.1580 C   0  0  0  0  0  0  0  0  0  0  0  0
   61.7029   31.9436   46.1483 H   0  0  0  0  0  0  0  0  0  0  0  0
   63.2230   32.7010   47.4940 C   0  0  0  0  0  0  0  0  0  0  0  0
   63.6382   33.3964   46.7497 H   0  0  0  0  0  0  0  0  0  0  0  0
   63.7890   32.6320   48.7830 C   0  0  0  0  0  0  0  0  0  0  0  0
   64.8740   33.4300   49.1720 O   0  0  0  0  0  0  0  0  0  0  0  0
   65.8440   33.0520   50.1430 C   0  0  0  0  0  0  0  0  0  0  0  0
   65.4347   33.2115   51.1515 H   0  0  0  0  0  0  0  0  0  0  0  0
   66.0973   31.9894   50.0139 H   0  0  0  0  0  0  0  0  0  0  0  0
   66.7495   33.6631   50.0139 H   0  0  0  0  0  0  0  0  0  0  0  0
   63.2570   31.7320   49.7140 C   0  0  0  0  0  0  0  0  0  0  0  0
   63.6982   31.6622   50.7192 H   0  0  0  0  0  0  0  0  0  0  0  0
   62.1690   30.9210   49.3760 C   0  0  0  0  0  0  0  0  0  0  0  0
   61.7622   30.2139   50.1139 H   0  0  0  0  0  0  0  0  0  0  0  0
   58.3190   27.3630   45.3920 S   0  0  0  0  0  0  0  0  0  0  0  0
   58.5220   25.9340   46.2590 C   0  0  0  0  0  0  0  0  0  0  0  0
   59.4700   25.3950   46.4032 H   0  0  0  0  0  0  0  0  0  0  0  0
  1  2  1  0
  2  3  1  0
  3  4  1  0
  4  5  2  0
  5  6  1  0
  6  7  2  0
  6  8  1  0
  8  9  1  0
  9 10  2  0
 10 11  1  0
 10 12  1  0
 12 13  1  0
 12 14  2  0
 14 15  1  0
 14 16  1  0
 16 17  1  0
 16 18  2  0
 18 19  1  0
 19 20  1  0
 20 21  2  0
 20 22  2  0
 20 23  1  0
 23 24  2  0
 24 25  1  0
 24 26  1  0
 26 27  1  0
 26 28  2  0
 28 29  1  0
 29 30  1  0
 30 31  1  0
 30 32  1  0
 30 33  1  0
 28 34  1  0
 34 35  1  0
 34 36  2  0
 36 37  1  0
  4 38  1  0
 38 39  1  0
 39 40  1  0
 39  2  2  0
 18  9  1  0
 36 23  1  0
M  CHG  3   3  -1   8  -1  19  -1
M  END
>  <UniqueID>  (93) 
86

>  <SMILES>  (93) 
COc1ccc(S(=O)(=O)[N-]c2ccccc2[N-]C(=O)/N=c2\[n-]ccs2)cc1

>  <Energy>  (93) 
83.39716712136165

>  <Genealogy>  (93) 
COc1ccc(S(=O)(=O)[N-]c2ccccc2[N-]C(=O)N=c2[n-]ccs2)cc1 (protonated)
COc1ccc(S(=O)(=O)[N-]c2ccccc2[N-]C(=O)/N=c2\[n-]ccs2)cc1 (cis-trans isomerization)
COc1ccc(S(=O)(=O)[N-]c2ccccc2[N-]C(=O)/N=c2\[n-]ccs2)cc1 (3D coordinates assigned)
COc1ccc(S(=O)(=O)[N-]c2ccccc2[N-]C(=O)/N=c2\[n-]ccs2)cc1 (optimized conformer: 83.39716712136165 kcal/mol)

>  <smiles>  (93) 
COc1ccc(S(=O)(=O)Nc2ccccc2NC(=O)N=c2[nH]ccs2)cc1

>  <score_type>  (93) 
oracle

>  <origin>  (93) 
adg

>  <m_score__min__energy>  (93) 
-12.73

>  <m_primary>  (93) 
energy

$$$$
93:0
     RDKit          3D

 32 34  0  0  0  0  0  0  0  0999 V2000
   55.0710   24.4760   45.6400 C   0  0  0  0  0  0  0  0  0  0  0  0
   55.5560   25.5730   46.4070 O   0  0  0  0  0  0  0  0  0  0  0  0
   56.7410   26.2700   46.1290 C   0  0  0  0  0  0  0  0  0  0  0  0
   58.0250   25.7340   46.4260 C   0  0  0  0  0  0  0  0  0  0  0  0
   59.1890   26.4710   46.1510 C   0  0  0  0  0  0  0  0  0  0  0  0
   59.0470   27.7270   45.5690 C   0  0  0  0  0  0  0  0  0  0  0  0
   60.0260   28.5990   45.2750 N   0  0  0  0  0  0  0  0  0  0  0  0
   59.4150   29.6930   44.7670 C   0  0  0  0  0  0  0  0  0  0  0  0
   58.0360   29.5040   44.7230 C   0  0  0  0  0  0  0  0  0  0  0  0
   57.0500   30.4900   44.2430 C   0  0  0  0  0  0  0  0  0  0  0  0
   55.8840   30.4680   44.7230 O   0  0  0  0  0  0  0  0  0  0  0  0
   57.3970   31.5230   43.2540 C   0  0  0  0  0  0  0  0  0  0  0  0
   57.2320   31.2930   42.0260 O   0  0  0  0  0  0  0  0  0  0  0  0
   58.0170   32.7390   43.7010 N   0  0  0  0  0  0  0  0  0  0  0  0
   58.1250   33.1780   44.9220 C   0  0  0  0  0  0  0  0  0  0  0  0
   57.3930   32.7540   45.9810 N   0  0  0  0  0  0  0  0  0  0  0  0
   57.7570   33.3760   47.1340 C   0  0  0  0  0  0  0  0  0  0  0  0
   58.7910   34.2980   47.0000 C   0  0  0  0  0  0  0  0  0  0  0  0
   59.2610   34.3230   45.3840 S   0  0  0  0  0  0  0  0  0  0  0  0
   57.8150   28.2430   45.2550 C   0  0  0  0  0  0  0  0  0  0  0  0
   56.6390   27.5480   45.5440 C   0  0  0  0  0  0  0  0  0  0  0  0
   54.7202   23.6825   46.3162 H   0  0  0  0  0  0  0  0  0  0  0  0
   54.2376   24.8121   45.0056 H   0  0  0  0  0  0  0  0  0  0  0  0
   55.8805   24.0858   45.0056 H   0  0  0  0  0  0  0  0  0  0  0  0
   58.1071   24.7332   46.8751 H   0  0  0  0  0  0  0  0  0  0  0  0
   60.1840   26.0668   46.3889 H   0  0  0  0  0  0  0  0  0  0  0  0
   61.0520   28.4690   45.4220 H   0  0  0  0  0  0  0  0  0  0  0  0
   59.9342   30.6042   44.4351 H   0  0  0  0  0  0  0  0  0  0  0  0
   56.6590   32.0150   45.9650 H   0  0  0  0  0  0  0  0  0  0  0  0
   57.2716   33.1666   48.0986 H   0  0  0  0  0  0  0  0  0  0  0  0
   59.2251   34.9043   47.8087 H   0  0  0  0  0  0  0  0  0  0  0  0
   55.6559   27.9878   45.3203 H   0  0  0  0  0  0  0  0  0  0  0  0
  1  2  1  0
  2  3  1  0
  3  4  2  0
  4  5  1  0
  5  6  2  0
  6  7  1  0
  7  8  1  0
  8  9  2  0
  9 10  1  0
 10 11  2  0
 10 12  1  0
 12 13  2  0
 12 14  1  0
 14 15  2  3
 15 16  1  0
 16 17  1  0
 17 18  2  0
 18 19  1  0
  9 20  1  0
 20 21  2  0
 21  3  1  0
 20  6  1  0
 19 15  1  0
  1 22  1  0
  1 23  1  0
  1 24  1  0
  4 25  1  0
  5 26  1  0
  7 27  1  0
  8 28  1  0
 16 29  1  0
 17 30  1  0
 18 31  1  0
 21 32  1  0
M  END
>  <UniqueID>  (94) 
87

>  <SMILES>  (94) 
COc1ccc2[nH]cc(C(=O)C(=O)N=c3[nH]ccs3)c2c1

>  <Energy>  (94) 
104.85501754956388

>  <Genealogy>  (94) 
COc1ccc2[nH]cc(C(=O)C(=O)N=c3[nH]ccs3)c2c1 (3D coordinates assigned)
COc1ccc2[nH]cc(C(=O)C(=O)N=c3[nH]ccs3)c2c1 (optimized conformer: 104.85501754956388 kcal/mol)

>  <smiles>  (94) 
COc1ccc2[nH]cc(C(=O)C(=O)N=c3[nH]ccs3)c2c1

>  <score_type>  (94) 
oracle

>  <origin>  (94) 
adg

>  <m_score__min__energy>  (94) 
-7.25

>  <m_primary>  (94) 
energy

$$$$
