0:0
     RDKit          3D

 48 50  0  0  0  0  0  0  0  0999 V2000
   58.7955   31.5751   48.3512 H   0  0  0  0  0  0  0  0  0  0  0  0
   58.6740   30.6280   47.8050 C   0  0  0  0  0  0  0  0  0  0  0  0
   58.7058   29.6719   48.3480 H   0  0  0  0  0  0  0  0  0  0  0  0
   58.4870   30.6390   46.4770 C   0  0  0  0  0  0  0  0  0  0  0  0
   58.3160   29.5250   45.6360 C   0  0  0  0  0  0  0  0  0  0  0  0
   58.4340   28.2040   45.8750 C   0  0  0  0  0  0  0  0  0  0  0  0
   59.4531   27.7934   45.9275 H   0  0  0  0  0  0  0  0  0  0  0  0
   57.3210   27.2620   46.0720 C   0  0  0  0  0  0  0  0  0  0  0  0
   57.4540   26.0020   46.5260 N   0  0  0  0  0  0  0  0  0  0  0  0
   56.2110   25.4900   46.3960 C   0  0  0  0  0  0  0  0  0  0  0  0
   55.9240   24.3140   46.7370 O   0  0  0  0  0  0  0  0  0  0  0  0
   55.3030   26.3350   45.8610 N   0  0  0  0  0  0  0  0  0  0  0  0
   56.0280   27.4460   45.6490 C   0  0  0  0  0  0  0  0  0  0  0  0
   55.5170   28.6020   45.0730 O   0  0  0  0  0  0  0  0  0  0  0  0
   58.0120   30.0290   44.3830 C   0  0  0  0  0  0  0  0  0  0  0  0
   57.7743   29.4445   43.4819 H   0  0  0  0  0  0  0  0  0  0  0  0
   58.0640   31.4030   44.4800 C   0  0  0  0  0  0  0  0  0  0  0  0
   57.8580   32.3460   43.3320 C   0  0  0  0  0  0  0  0  0  0  0  0
   57.6382   33.3520   43.7188 H   0  0  0  0  0  0  0  0  0  0  0  0
   58.7698   32.3805   42.7176 H   0  0  0  0  0  0  0  0  0  0  0  0
   57.0149   31.9971   42.7176 H   0  0  0  0  0  0  0  0  0  0  0  0
   58.3480   31.7770   45.7470 N   0  0  0  0  0  0  0  0  0  0  0  0
   58.4080   33.1400   46.2080 C   0  0  0  0  0  0  0  0  0  0  0  0
   57.5130   33.5610   46.9940 O   0  0  0  0  0  0  0  0  0  0  0  0
   59.5470   33.9750   45.8900 N   0  0  1  0  0  0  0  0  0  0  0  0
   60.3220   33.3680   45.5340 H   0  0  0  0  0  0  0  0  0  0  0  0
   59.1920   34.9400   44.8310 C   0  0  0  0  0  0  0  0  0  0  0  0
   58.8469   35.8780   45.2904 H   0  0  0  0  0  0  0  0  0  0  0  0
   60.0752   35.1406   44.2067 H   0  0  0  0  0  0  0  0  0  0  0  0
   58.3893   34.5205   44.2067 H   0  0  0  0  0  0  0  0  0  0  0  0
   60.0110   34.6570   47.1180 C   0  0  0  0  0  0  0  0  0  0  0  0
   60.1646   35.7234   46.8962 H   0  0  0  0  0  0  0  0  0  0  0  0
   59.2442   34.5201   47.8947 H   0  0  0  0  0  0  0  0  0  0  0  0
   61.3070   34.0730   47.6310 C   0  0  0  0  0  0  0  0  0  0  0  0
   62.3060   33.6590   46.7370 C   0  0  0  0  0  0  0  0  0  0  0  0
   62.1536   33.7765   45.6540 H   0  0  0  0  0  0  0  0  0  0  0  0
   63.4940   33.0980   47.2150 C   0  0  0  0  0  0  0  0  0  0  0  0
   64.2722   32.7777   46.5065 H   0  0  0  0  0  0  0  0  0  0  0  0
   63.6990   32.9410   48.6000 C   0  0  0  0  0  0  0  0  0  0  0  0
   64.8720   32.3840   49.1300 O   0  0  0  0  0  0  0  0  0  0  0  0
   65.0760   32.1070   50.5110 C   0  0  0  0  0  0  0  0  0  0  0  0
   64.5318   32.8459   51.1175 H   0  0  0  0  0  0  0  0  0  0  0  0
   64.7037   31.0979   50.7415 H   0  0  0  0  0  0  0  0  0  0  0  0
   66.1501   32.1631   50.7415 H   0  0  0  0  0  0  0  0  0  0  0  0
   62.6970   33.3510   49.4880 C   0  0  0  0  0  0  0  0  0  0  0  0
   62.8461   33.2313   50.5712 H   0  0  0  0  0  0  0  0  0  0  0  0
   61.5090   33.9110   49.0100 C   0  0  0  0  0  0  0  0  0  0  0  0
   60.7286   34.2262   49.7183 H   0  0  0  0  0  0  0  0  0  0  0  0
  1  2  1  0
  2  3  1  0
  2  4  2  0
  4  5  1  0
  5  6  2  0
  6  7  1  0
  6  8  1  0
  8  9  1  0
  9 10  1  0
 10 11  2  0
 10 12  1  0
 12 13  1  0
 13 14  1  0
  5 15  1  0
 15 16  1  0
 15 17  2  0
 17 18  1  0
 18 19  1  0
 18 20  1  0
 18 21  1  0
 17 22  1  0
 22 23  1  0
 23 24  2  0
 23 25  1  0
 25 26  1  6
 25 27  1  0
 27 28  1  0
 27 29  1  0
 27 30  1  0
 25 31  1  0
 31 32  1  0
 31 33  1  0
 31 34  1  0
 34 35  2  0
 35 36  1  0
 35 37  1  0
 37 38  1  0
 37 39  2  0
 39 40  1  0
 40 41  1  0
 41 42  1  0
 41 43  1  0
 41 44  1  0
 39 45  1  0
 45 46  1  0
 45 47  2  0
 47 48  1  0
 22  4  1  0
 47 34  1  0
 13  8  2  0
M  CHG  4   9  -1  12  -1  14  -1  25   1
M  END
>  <UniqueID>  (1) 
1

>  <SMILES>  (1) 
C=c1/c(=C\c2[n-]c(=O)[n-]c2[O-])cc(C)n1C(=O)[N@@H+](C)Cc1ccc(OC)cc1

>  <Energy>  (1) 
125.7163221236703

>  <Genealogy>  (1) 
C=c1c(=Cc2[n-]c(=O)[n-]c2[O-])cc(C)n1C(=O)[NH+](C)Cc1ccc(OC)cc1 (protonated)
C=c1c(=Cc2[n-]c(=O)[n-]c2[O-])cc(C)n1C(=O)[N@@H+](C)Cc1ccc(OC)cc1 (chirality)
C=c1/c(=C\c2[n-]c(=O)[n-]c2[O-])cc(C)n1C(=O)[N@@H+](C)Cc1ccc(OC)cc1 (cis-trans isomerization)
C=c1/c(=C\c2[n-]c(=O)[n-]c2[O-])cc(C)n1C(=O)[N@@H+](C)Cc1ccc(OC)cc1 (3D coordinates assigned)
C=c1/c(=C\c2[n-]c(=O)[n-]c2[O-])cc(C)n1C(=O)[N@@H+](C)Cc1ccc(OC)cc1 (optimized conformer: 125.7163221236703 kcal/mol)

>  <smiles>  (1) 
C=c1c(=Cc2[nH]c(=O)[nH]c2O)cc(C)n1C(=O)N(C)Cc1ccc(OC)cc1

>  <score_type>  (1) 
oracle

>  <origin>  (1) 
adg

>  <m_score__min__energy>  (1) 
-14.550000000000001

>  <m_primary>  (1) 
energy

$$$$
1:0
     RDKit          3D

 38 40  0  0  0  0  0  0  0  0999 V2000
   56.2720   29.7020   42.2800 C   0  0  0  0  0  0  0  0  0  0  0  0
   56.0850   29.8430   43.7610 C   0  0  0  0  0  0  0  0  0  0  0  0
   55.0130   29.4170   44.2720 O   0  0  0  0  0  0  0  0  0  0  0  0
   57.1210   30.4630   44.6310 C   0  0  0  0  0  0  0  0  0  0  0  0
   57.0810   31.8430   44.8950 C   0  0  0  0  0  0  0  0  0  0  0  0
   58.0450   32.4390   45.7070 C   0  0  0  0  0  0  0  0  0  0  0  0
   59.0630   31.6710   46.2720 C   0  0  0  0  0  0  0  0  0  0  0  0
   59.1310   30.2850   46.0330 C   0  0  0  0  0  0  0  0  0  0  0  0
   60.2120   29.4380   46.6190 C   0  0  0  0  0  0  0  0  0  0  0  0
   61.3720   29.5150   46.1230 O   0  0  0  0  0  0  0  0  0  0  0  0
   59.9700   28.5540   47.7490 N   0  0  2  0  0  0  0  0  0  0  0  0
   60.7760   27.3160   47.6610 C   0  0  0  0  0  0  0  0  0  0  0  0
   60.3730   26.4340   46.4690 C   0  0  0  0  0  0  0  0  0  0  0  0
   58.8820   26.3010   46.3410 C   0  0  0  0  0  0  0  0  0  0  0  0
   58.3390   25.3230   45.4960 C   0  0  0  0  0  0  0  0  0  0  0  0
   56.9570   25.2350   45.3220 C   0  0  0  0  0  0  0  0  0  0  0  0
   56.1270   26.1380   45.9900 C   0  0  0  0  0  0  0  0  0  0  0  0
   54.8780   26.0720   45.8470 O   0  0  0  0  0  0  0  0  0  0  0  0
   56.6660   27.0900   46.7960 N   0  0  0  0  0  0  0  0  0  0  0  0
   58.0110   27.2070   46.9760 C   0  0  0  0  0  0  0  0  0  0  0  0
   58.5310   28.2510   47.9320 C   0  0  0  0  0  0  0  0  0  0  0  0
   58.1540   29.6950   45.2060 C   0  0  0  0  0  0  0  0  0  0  0  0
   57.1356   29.0508   42.0798 H   0  0  0  0  0  0  0  0  0  0  0  0
   55.3680   29.2587   41.8368 H   0  0  0  0  0  0  0  0  0  0  0  0
   56.4495   30.6930   41.8368 H   0  0  0  0  0  0  0  0  0  0  0  0
   56.2816   32.4586   44.4568 H   0  0  0  0  0  0  0  0  0  0  0  0
   58.0025   33.5205   45.9031 H   0  0  0  0  0  0  0  0  0  0  0  0
   59.8192   32.1521   46.9097 H   0  0  0  0  0  0  0  0  0  0  0  0
   60.2570   29.0560   48.6210 H   0  0  0  0  0  0  0  0  0  0  0  0
   61.8354   27.5919   47.5533 H   0  0  0  0  0  0  0  0  0  0  0  0
   60.5998   26.7369   48.5795 H   0  0  0  0  0  0  0  0  0  0  0  0
   60.7693   26.8827   45.5462 H   0  0  0  0  0  0  0  0  0  0  0  0
   60.7889   25.4294   46.6359 H   0  0  0  0  0  0  0  0  0  0  0  0
   59.0039   24.6231   44.9687 H   0  0  0  0  0  0  0  0  0  0  0  0
   56.5266   24.4636   44.6665 H   0  0  0  0  0  0  0  0  0  0  0  0
   57.9579   29.1777   47.7813 H   0  0  0  0  0  0  0  0  0  0  0  0
   58.4114   27.8479   48.9485 H   0  0  0  0  0  0  0  0  0  0  0  0
   58.1984   28.6144   45.0053 H   0  0  0  0  0  0  0  0  0  0  0  0
  1  2  1  0
  2  3  2  0
  2  4  1  0
  4  5  2  0
  5  6  1  0
  6  7  2  0
  7  8  1  0
  8  9  1  0
  9 10  2  0
  9 11  1  0
 11 12  1  0
 12 13  1  0
 13 14  1  0
 14 15  1  0
 15 16  2  0
 16 17  1  0
 17 18  2  0
 17 19  1  0
 19 20  1  0
 20 21  1  0
  8 22  2  0
 22  4  1  0
 21 11  1  0
 20 14  2  0
  1 23  1  0
  1 24  1  0
  1 25  1  0
  5 26  1  0
  6 27  1  0
  7 28  1  0
 11 29  1  1
 12 30  1  0
 12 31  1  0
 13 32  1  0
 13 33  1  0
 15 34  1  0
 16 35  1  0
 21 36  1  0
 21 37  1  0
 22 38  1  0
M  CHG  2  11   1  19  -1
M  END
>  <UniqueID>  (2) 
2

>  <SMILES>  (2) 
CC(=O)c1cccc(C(=O)[N@@H+]2CCc3ccc(=O)[n-]c3C2)c1

>  <Energy>  (2) 
51.318935806959985

>  <Genealogy>  (2) 
CC(=O)c1cccc(C(=O)[NH+]2CCc3ccc(=O)[n-]c3C2)c1 (protonated)
CC(=O)c1cccc(C(=O)[N@@H+]2CCc3ccc(=O)[n-]c3C2)c1 (chirality)
CC(=O)c1cccc(C(=O)[N@@H+]2CCc3ccc(=O)[n-]c3C2)c1 (3D coordinates assigned)
CC(=O)c1cccc(C(=O)[N@@H+]2CCc3ccc(=O)[n-]c3C2)c1 (nonaromatic ring conformer: 51.318935806959985 kcal/mol)

>  <smiles>  (2) 
CC(=O)c1cccc(C(=O)N2CCc3ccc(=O)[nH]c3C2)c1

>  <score_type>  (2) 
oracle

>  <origin>  (2) 
adg

>  <m_score__min__energy>  (2) 
-8.1600000000000001

>  <m_primary>  (2) 
energy

$$$$
2:0
     RDKit          3D

 29 30  0  0  0  0  0  0  0  0999 V2000
   58.5340   32.8447   42.0352 H   0  0  0  0  0  0  0  0  0  0  0  0
   57.7280   32.1070   41.9080 C   0  0  0  0  0  0  0  0  0  0  0  0
   57.2142   32.0153   40.9397 H   0  0  0  0  0  0  0  0  0  0  0  0
   57.3730   31.3220   42.9300 C   0  0  0  0  0  0  0  0  0  0  0  0
   57.8952   31.4243   43.8927 H   0  0  0  0  0  0  0  0  0  0  0  0
   56.2770   30.3030   42.7940 C   0  0  0  0  0  0  0  0  0  0  0  0
   55.4094   30.7707   42.3056 H   0  0  0  0  0  0  0  0  0  0  0  0
   56.6520   29.4630   42.1908 H   0  0  0  0  0  0  0  0  0  0  0  0
   55.8710   29.7920   44.1040 N   0  0  0  0  0  0  0  0  0  0  0  0
   56.6540   29.3360   45.0430 C   0  0  0  0  0  0  0  0  0  0  0  0
   57.4370   30.2150   45.7190 N   0  0  0  0  0  0  0  0  0  0  0  0
   58.2680   29.7890   46.7020 C   0  0  0  0  0  0  0  0  0  0  0  0
   59.0050   30.6520   47.3340 N   0  0  0  0  0  0  0  0  0  0  0  0
   58.5390   31.9510   47.8210 C   0  0  0  0  0  0  0  0  0  0  0  0
   57.5337   31.8364   48.2526 H   0  0  0  0  0  0  0  0  0  0  0  0
   59.2403   32.3169   48.5854 H   0  0  0  0  0  0  0  0  0  0  0  0
   58.4840   32.9420   46.7000 C   0  0  0  0  0  0  0  0  0  0  0  0
   57.0860   33.4250   45.9010 S   0  0  0  0  0  0  0  0  0  0  0  0
   57.8310   34.5420   44.8890 C   0  0  0  0  0  0  0  0  0  0  0  0
   57.3283   35.1580   44.1288 H   0  0  0  0  0  0  0  0  0  0  0  0
   59.1900   34.5540   45.1770 C   0  0  0  0  0  0  0  0  0  0  0  0
   59.9098   35.2030   44.6568 H   0  0  0  0  0  0  0  0  0  0  0  0
   59.5570   33.6620   46.1920 C   0  0  0  0  0  0  0  0  0  0  0  0
   60.5902   33.5437   46.5504 H   0  0  0  0  0  0  0  0  0  0  0  0
   58.3170   28.4670   47.0110 N   0  0  0  0  0  0  0  0  0  0  0  0
   57.5380   27.5800   46.3460 C   0  0  0  0  0  0  0  0  0  0  0  0
   57.6120   25.8790   46.7660 Cl  0  0  0  0  0  0  0  0  0  0  0  0
   56.7040   28.0080   45.3620 N   0  0  0  0  0  0  0  0  0  0  0  0
   56.1150   27.3000   44.8720 H   0  0  0  0  0  0  0  0  0  0  0  0
  1  2  1  0
  2  3  1  0
  2  4  2  0
  4  5  1  0
  4  6  1  0
  6  7  1  0
  6  8  1  0
  6  9  1  0
  9 10  2  0
 10 11  1  0
 11 12  1  0
 12 13  2  0
 13 14  1  0
 14 15  1  0
 14 16  1  0
 14 17  1  0
 17 18  1  0
 18 19  1  0
 19 20  1  0
 19 21  2  0
 21 22  1  0
 21 23  1  0
 23 24  1  0
 12 25  1  0
 25 26  2  0
 26 27  1  0
 26 28  1  0
 28 29  1  0
 28 10  1  0
 23 17  2  0
M  CHG  1  11  -1
M  END
>  <UniqueID>  (3) 
3

>  <SMILES>  (3) 
C=CC/N=c1/[n-]/c(=N/Cc2cccs2)nc(Cl)[nH]1

>  <Energy>  (3) 
51.86015970808201

>  <Genealogy>  (3) 
C=CCN=c1[n-]c(=NCc2cccs2)nc(Cl)[nH]1 (protonated)
C=CC/N=c1/[n-]/c(=N/Cc2cccs2)nc(Cl)[nH]1 (cis-trans isomerization)
C=CC/N=c1/[n-]/c(=N/Cc2cccs2)nc(Cl)[nH]1 (3D coordinates assigned)
C=CC/N=c1/[n-]/c(=N/Cc2cccs2)nc(Cl)[nH]1 (optimized conformer: 51.86015970808201 kcal/mol)

>  <smiles>  (3) 
C=CCN=c1[nH]c(Cl)nc(=NCc2cccs2)[nH]1

>  <score_type>  (3) 
oracle

>  <origin>  (3) 
adg

>  <m_score__min__energy>  (3) 
-7.8200000000000003

>  <m_primary>  (3) 
energy

$$$$
3:0
     RDKit          3D

 43 46  0  0  0  0  0  0  0  0999 V2000
   54.2870   26.3240   46.3740 H   0  0  0  0  0  0  0  0  0  0  0  0
   55.1460   26.7130   46.0090 O   0  0  0  0  0  0  0  0  0  0  0  0
   56.3700   26.0590   46.1450 C   0  0  0  0  0  0  0  0  0  0  0  0
   57.5830   26.6650   46.4140 C   0  0  0  0  0  0  0  0  0  0  0  0
   57.8430   28.1060   46.5930 C   0  0  0  0  0  0  0  0  0  0  0  0
   58.0958   28.4650   47.6015 H   0  0  0  0  0  0  0  0  0  0  0  0
   57.7890   29.0080   45.5940 C   0  0  0  0  0  0  0  0  0  0  0  0
   57.6250   30.3810   45.7250 C   0  0  0  0  0  0  0  0  0  0  0  0
   57.4921   30.9430   46.6612 H   0  0  0  0  0  0  0  0  0  0  0  0
   57.6620   30.9000   44.4460 C   0  0  0  0  0  0  0  0  0  0  0  0
   57.4440   32.3380   44.0930 C   0  0  0  0  0  0  0  0  0  0  0  0
   57.8890   32.5442   43.1084 H   0  0  0  0  0  0  0  0  0  0  0  0
   56.3642   32.5455   44.0614 H   0  0  0  0  0  0  0  0  0  0  0  0
   58.0870   33.2140   45.1230 C   0  0  0  0  0  0  0  0  0  0  0  0
   57.6210   33.4180   46.4060 C   0  0  0  0  0  0  0  0  0  0  0  0
   56.6910   33.0240   46.8418 H   0  0  0  0  0  0  0  0  0  0  0  0
   58.5570   34.2160   47.0320 C   0  0  0  0  0  0  0  0  0  0  0  0
   58.5144   34.5919   48.0649 H   0  0  0  0  0  0  0  0  0  0  0  0
   59.5580   34.4510   46.1090 C   0  0  0  0  0  0  0  0  0  0  0  0
   60.4589   35.0540   46.2953 H   0  0  0  0  0  0  0  0  0  0  0  0
   59.2690   33.8340   44.9490 N   0  0  0  0  0  0  0  0  0  0  0  0
   59.8600   33.8250   44.0890 H   0  0  0  0  0  0  0  0  0  0  0  0
   57.8310   29.9200   43.5390 N   0  0  0  0  0  0  0  0  0  0  0  0
   57.8730   30.0400   42.5020 H   0  0  0  0  0  0  0  0  0  0  0  0
   57.9240   28.7640   44.2250 C   0  0  0  0  0  0  0  0  0  0  0  0
   58.1000   27.5810   43.6260 C   0  0  0  0  0  0  0  0  0  0  0  0
   58.1701   26.6640   44.2295 H   0  0  0  0  0  0  0  0  0  0  0  0
   58.1746   27.5252   42.5300 H   0  0  0  0  0  0  0  0  0  0  0  0
   58.5640   25.7400   46.3650 N   0  0  0  0  0  0  0  0  0  0  0  0
   57.9080   24.5890   46.1060 C   0  0  0  0  0  0  0  0  0  0  0  0
   58.4970   23.4830   45.9770 O   0  0  0  0  0  0  0  0  0  0  0  0
   56.5710   24.7380   45.9800 N   0  0  0  0  0  0  0  0  0  0  0  0
   55.6010   23.7110   45.5980 C   0  0  0  0  0  0  0  0  0  0  0  0
   55.5009   22.9813   46.4150 H   0  0  0  0  0  0  0  0  0  0  0  0
   54.6278   24.1852   45.4032 H   0  0  0  0  0  0  0  0  0  0  0  0
   56.0770   22.9930   44.3300 C   0  0  0  0  0  0  0  0  0  0  0  0
   56.3541   22.0578   44.8385 H   0  0  0  0  0  0  0  0  0  0  0  0
   56.7360   23.8610   43.2680 C   0  0  0  0  0  0  0  0  0  0  0  0
   56.9268   24.9256   43.4685 H   0  0  0  0  0  0  0  0  0  0  0  0
   57.6668   23.8040   42.6846 H   0  0  0  0  0  0  0  0  0  0  0  0
   55.3110   23.3680   43.0700 C   0  0  0  0  0  0  0  0  0  0  0  0
   54.4712   24.0761   43.1272 H   0  0  0  0  0  0  0  0  0  0  0  0
   54.7844   22.8068   42.2840 H   0  0  0  0  0  0  0  0  0  0  0  0
  1  2  1  0
  2  3  1  0
  3  4  2  0
  4  5  1  0
  5  6  1  0
  5  7  2  0
  7  8  1  0
  8  9  1  0
  8 10  2  0
 10 11  1  0
 11 12  1  0
 11 13  1  0
 11 14  1  0
 14 15  2  0
 15 16  1  0
 15 17  1  0
 17 18  1  0
 17 19  2  0
 19 20  1  0
 19 21  1  0
 21 22  1  0
 10 23  1  0
 23 24  1  0
 23 25  1  0
 25 26  2  0
 26 27  1  0
 26 28  1  0
  4 29  1  0
 29 30  1  0
 30 31  2  0
 30 32  1  0
 32 33  1  0
 33 34  1  0
 33 35  1  0
 33 36  1  0
 36 37  1  0
 36 38  1  0
 38 39  1  0
 38 40  1  0
 38 41  1  0
 41 42  1  0
 41 43  1  0
 32  3  1  0
 41 36  1  0
 25  7  1  0
 21 14  1  0
M  CHG  1  29  -1
M  END
>  <UniqueID>  (4) 
4

>  <SMILES>  (4) 
C=c1[nH]c(Cc2ccc[nH]2)c/c1=C\c1[n-]c(=O)n(CC2CC2)c1O

>  <Energy>  (4) 
394.943306575319

>  <Genealogy>  (4) 
C=c1[nH]c(Cc2ccc[nH]2)cc1=Cc1[n-]c(=O)n(CC2CC2)c1O (protonated)
C=c1[nH]c(Cc2ccc[nH]2)c/c1=C\c1[n-]c(=O)n(CC2CC2)c1O (cis-trans isomerization)
C=c1[nH]c(Cc2ccc[nH]2)c/c1=C\c1[n-]c(=O)n(CC2CC2)c1O (3D coordinates assigned)
C=c1[nH]c(Cc2ccc[nH]2)c/c1=C\c1[n-]c(=O)n(CC2CC2)c1O (nonaromatic ring conformer: 394.943306575319 kcal/mol)

>  <smiles>  (4) 
C=c1[nH]c(Cc2ccc[nH]2)cc1=Cc1[nH]c(=O)n(CC2CC2)c1O

>  <score_type>  (4) 
oracle

>  <origin>  (4) 
adg

>  <m_score__min__energy>  (4) 
-10.49

>  <m_primary>  (4) 
energy

$$$$
4:0
     RDKit          3D

 28 29  0  0  0  0  0  0  0  0999 V2000
   57.2440   25.7160   47.1240 C   0  0  0  0  0  0  0  0  0  0  0  0
   56.4910   26.3560   46.0080 C   0  0  0  0  0  0  0  0  0  0  0  0
   55.2320   26.4050   46.0560 O   0  0  0  0  0  0  0  0  0  0  0  0
   57.1970   26.9820   44.9750 O   0  0  0  0  0  0  0  0  0  0  0  0
   57.4890   28.3530   44.9310 C   0  0  0  0  0  0  0  0  0  0  0  0
   58.8300   28.7460   44.8650 C   0  0  0  0  0  0  0  0  0  0  0  0
   59.1700   30.1010   44.8280 C   0  0  0  0  0  0  0  0  0  0  0  0
   58.1690   31.0840   44.8640 C   0  0  0  0  0  0  0  0  0  0  0  0
   58.5030   32.5180   44.7770 C   0  0  0  0  0  0  0  0  0  0  0  0
   58.8180   33.2840   45.8330 C   0  0  0  0  0  0  0  0  0  0  0  0
   59.2640   34.6770   45.8880 C   0  0  0  0  0  0  0  0  0  0  0  0
   59.4720   35.4370   44.9060 O   0  0  0  0  0  0  0  0  0  0  0  0
   59.5220   35.0310   47.2820 C   0  0  0  0  0  0  0  0  0  0  0  0
   59.2930   33.9740   48.0560 C   0  0  0  0  0  0  0  0  0  0  0  0
   58.8640   32.8530   47.2240 C   0  0  0  0  0  0  0  0  0  0  0  0
   58.5770   31.7030   47.6500 O   0  0  0  0  0  0  0  0  0  0  0  0
   56.8230   30.6920   44.8700 C   0  0  0  0  0  0  0  0  0  0  0  0
   56.4790   29.3350   44.9010 C   0  0  0  0  0  0  0  0  0  0  0  0
   55.1360   28.9770   44.8660 O   0  0  0  0  0  0  0  0  0  0  0  0
   56.8376   26.0614   48.0860 H   0  0  0  0  0  0  0  0  0  0  0  0
   57.1434   24.6228   47.0547 H   0  0  0  0  0  0  0  0  0  0  0  0
   58.3067   25.9915   47.0547 H   0  0  0  0  0  0  0  0  0  0  0  0
   59.6222   27.9832   44.8421 H   0  0  0  0  0  0  0  0  0  0  0  0
   60.2274   30.3985   44.7704 H   0  0  0  0  0  0  0  0  0  0  0  0
   58.4933   32.9897   43.7833 H   0  0  0  0  0  0  0  0  0  0  0  0
   59.8540   36.0181   47.6361 H   0  0  0  0  0  0  0  0  0  0  0  0
   59.4084   33.9482   49.1496 H   0  0  0  0  0  0  0  0  0  0  0  0
   56.0316   31.4558   44.8502 H   0  0  0  0  0  0  0  0  0  0  0  0
  1  2  1  0
  2  3  2  0
  2  4  1  0
  4  5  1  0
  5  6  2  0
  6  7  1  0
  7  8  2  0
  8  9  1  0
  9 10  2  3
 10 11  1  0
 11 12  2  0
 11 13  1  0
 13 14  2  0
 14 15  1  0
 15 16  2  0
  8 17  1  0
 17 18  2  0
 18 19  1  0
 18  5  1  0
 15 10  1  0
  1 20  1  0
  1 21  1  0
  1 22  1  0
  6 23  1  0
  7 24  1  0
  9 25  1  0
 13 26  1  0
 14 27  1  0
 17 28  1  0
M  CHG  1  19  -1
M  END
>  <UniqueID>  (5) 
5

>  <SMILES>  (5) 
CC(=O)Oc1ccc(C=C2C(=O)C=CC2=O)cc1[O-]

>  <Energy>  (5) 
62.90010267680444

>  <Genealogy>  (5) 
CC(=O)Oc1ccc(C=C2C(=O)C=CC2=O)cc1[O-] (protonated)
CC(=O)Oc1ccc(C=C2C(=O)C=CC2=O)cc1[O-] (3D coordinates assigned)
CC(=O)Oc1ccc(C=C2C(=O)C=CC2=O)cc1[O-] (nonaromatic ring conformer: 62.90010267680444 kcal/mol)

>  <smiles>  (5) 
CC(=O)Oc1ccc(C=C2C(=O)C=CC2=O)cc1O

>  <score_type>  (5) 
oracle

>  <origin>  (5) 
adg

>  <m_score__min__energy>  (5) 
-10.92

>  <m_primary>  (5) 
energy

$$$$
5:0
     RDKit          3D

 26 27  0  0  0  0  0  0  0  0999 V2000
   60.7890   29.2320   44.1710 O   0  0  0  0  0  0  0  0  0  0  0  0
   60.1680   29.3040   45.2650 C   0  0  0  0  0  0  0  0  0  0  0  0
   60.7990   30.0650   46.4000 C   0  0  0  0  0  0  0  0  0  0  0  0
   59.5710   30.4390   47.7010 S   0  0  0  0  0  0  0  0  0  0  0  0
   58.9010   31.8810   46.8750 C   0  0  0  0  0  0  0  0  0  0  0  0
   59.5670   33.0630   46.9150 N   0  0  0  0  0  0  0  0  0  0  0  0
   59.0740   34.1500   46.2690 C   0  0  0  0  0  0  0  0  0  0  0  0
   59.7000   35.2420   46.3020 O   0  0  0  0  0  0  0  0  0  0  0  0
   57.8740   34.0450   45.5680 C   0  0  0  0  0  0  0  0  0  0  0  0
   57.2270   32.8510   45.5590 N   0  0  0  0  0  0  0  0  0  0  0  0
   57.7260   31.7940   46.1980 N   0  0  0  0  0  0  0  0  0  0  0  0
   58.8670   28.6100   45.4180 C   0  0  0  0  0  0  0  0  0  0  0  0
   57.6820   29.2450   44.9990 C   0  0  0  0  0  0  0  0  0  0  0  0
   56.4380   28.6220   45.1630 C   0  0  0  0  0  0  0  0  0  0  0  0
   55.2680   29.2600   44.7550 O   0  0  0  0  0  0  0  0  0  0  0  0
   56.3690   27.3500   45.7380 C   0  0  0  0  0  0  0  0  0  0  0  0
   55.1380   26.7260   45.9060 O   0  0  0  0  0  0  0  0  0  0  0  0
   57.5370   26.7030   46.1470 C   0  0  0  0  0  0  0  0  0  0  0  0
   58.7830   27.3200   45.9920 C   0  0  0  0  0  0  0  0  0  0  0  0
   60.3190   26.3910   46.6740 Br  0  0  0  0  0  0  0  0  0  0  0  0
   61.6086   29.4592   46.8331 H   0  0  0  0  0  0  0  0  0  0  0  0
   61.1946   31.0138   46.0085 H   0  0  0  0  0  0  0  0  0  0  0  0
   57.4593   34.9119   45.0327 H   0  0  0  0  0  0  0  0  0  0  0  0
   57.7338   30.2421   44.5374 H   0  0  0  0  0  0  0  0  0  0  0  0
   54.4370   28.7370   44.5070 H   0  0  0  0  0  0  0  0  0  0  0  0
   57.4769   25.7000   46.5947 H   0  0  0  0  0  0  0  0  0  0  0  0
  1  2  2  0
  2  3  1  0
  3  4  1  0
  4  5  1  0
  5  6  2  0
  6  7  1  0
  7  8  2  0
  7  9  1  0
  9 10  2  0
 10 11  1  0
  2 12  1  0
 12 13  2  0
 13 14  1  0
 14 15  1  0
 14 16  2  0
 16 17  1  0
 16 18  1  0
 18 19  2  0
 19 20  1  0
 11  5  1  0
 19 12  1  0
  3 21  1  0
  3 22  1  0
  9 23  1  0
 13 24  1  0
 15 25  1  0
 18 26  1  0
M  CHG  2  11  -1  17  -1
M  END
>  <UniqueID>  (6) 
6

>  <SMILES>  (6) 
O=C(CSc1nc(=O)cn[n-]1)c1cc(O)c([O-])cc1Br

>  <Energy>  (6) 
28.94404914399991

>  <Genealogy>  (6) 
O=C(CSc1nc(=O)cn[n-]1)c1cc(O)c([O-])cc1Br (protonated)
O=C(CSc1nc(=O)cn[n-]1)c1cc(O)c([O-])cc1Br (3D coordinates assigned)
O=C(CSc1nc(=O)cn[n-]1)c1cc(O)c([O-])cc1Br (optimized conformer: 28.94404914399991 kcal/mol)

>  <smiles>  (6) 
O=C(CSc1nc(=O)cn[nH]1)c1cc(O)c(O)cc1Br

>  <score_type>  (6) 
oracle

>  <origin>  (6) 
adg

>  <m_score__min__energy>  (6) 
-12.460000000000001

>  <m_primary>  (6) 
energy

$$$$
6:0
     RDKit          3D

 41 43  0  0  0  0  0  0  0  0999 V2000
   50.9270   33.2780   52.0050 N   0  0  0  0  0  0  0  0  0  0  0  0
   51.3680   32.2350   51.1360 C   0  0  0  0  0  0  0  0  0  0  0  0
   50.9970   32.2440   49.9320 O   0  0  0  0  0  0  0  0  0  0  0  0
   52.2490   31.1550   51.6410 C   0  0  0  0  0  0  0  0  0  0  0  0
   51.7170   29.8910   51.9500 C   0  0  0  0  0  0  0  0  0  0  0  0
   52.5460   28.8700   52.4140 C   0  0  0  0  0  0  0  0  0  0  0  0
   53.9130   29.0940   52.5820 C   0  0  0  0  0  0  0  0  0  0  0  0
   54.4700   30.3530   52.2940 C   0  0  0  0  0  0  0  0  0  0  0  0
   55.9280   30.5690   52.4740 C   0  0  0  0  0  0  0  0  0  0  0  0
   56.4910   30.8130   53.7380 C   0  0  0  0  0  0  0  0  0  0  0  0
   57.8690   31.0040   53.8520 C   0  0  0  0  0  0  0  0  0  0  0  0
   58.6780   30.9460   52.7180 C   0  0  0  0  0  0  0  0  0  0  0  0
   58.0960   30.6910   51.4670 C   0  0  0  0  0  0  0  0  0  0  0  0
   58.9200   30.6100   50.2420 C   0  0  0  0  0  0  0  0  0  0  0  0
   59.9860   29.9340   50.2470 O   0  0  0  0  0  0  0  0  0  0  0  0
   58.5150   31.2930   49.0440 N   0  0  0  0  0  0  0  0  0  0  0  0
   59.2510   31.1700   47.7880 C   0  0  0  0  0  0  0  0  0  0  0  0
   58.9480   32.3380   46.8900 C   0  0  0  0  0  0  0  0  0  0  0  0
   59.6830   33.5310   46.9950 C   0  0  0  0  0  0  0  0  0  0  0  0
   59.4080   34.6040   46.1410 C   0  0  0  0  0  0  0  0  0  0  0  0
   58.4030   34.4920   45.1760 C   0  0  0  0  0  0  0  0  0  0  0  0
   57.6710   33.3070   45.0620 C   0  0  0  0  0  0  0  0  0  0  0  0
   57.9440   32.2320   45.9140 C   0  0  0  0  0  0  0  0  0  0  0  0
   56.7490   30.5100   51.3870 N   0  0  0  0  0  0  0  0  0  0  0  0
   53.6290   31.3750   51.8130 C   0  0  0  0  0  0  0  0  0  0  0  0
   50.6520   34.2120   51.6270 H   0  0  0  0  0  0  0  0  0  0  0  0
   50.6399   29.7060   51.8250 H   0  0  0  0  0  0  0  0  0  0  0  0
   52.1202   27.8833   52.6487 H   0  0  0  0  0  0  0  0  0  0  0  0
   54.5595   28.2802   52.9422 H   0  0  0  0  0  0  0  0  0  0  0  0
   55.8504   30.8532   54.6313 H   0  0  0  0  0  0  0  0  0  0  0  0
   58.3170   31.2004   54.8373 H   0  0  0  0  0  0  0  0  0  0  0  0
   59.7640   31.0989   52.8034 H   0  0  0  0  0  0  0  0  0  0  0  0
   57.6670   31.9010   49.0550 H   0  0  0  0  0  0  0  0  0  0  0  0
   60.3300   31.1457   48.0004 H   0  0  0  0  0  0  0  0  0  0  0  0
   58.9457   30.2415   47.2834 H   0  0  0  0  0  0  0  0  0  0  0  0
   60.4769   33.6213   47.7510 H   0  0  0  0  0  0  0  0  0  0  0  0
   59.9834   35.5373   46.2289 H   0  0  0  0  0  0  0  0  0  0  0  0
   58.1881   35.3373   44.5057 H   0  0  0  0  0  0  0  0  0  0  0  0
   56.8803   33.2198   44.3023 H   0  0  0  0  0  0  0  0  0  0  0  0
   57.3694   31.2988   45.8191 H   0  0  0  0  0  0  0  0  0  0  0  0
   54.0561   32.3587   51.5683 H   0  0  0  0  0  0  0  0  0  0  0  0
  1  2  1  0
  2  3  2  0
  2  4  1  0
  4  5  2  0
  5  6  1  0
  6  7  2  0
  7  8  1  0
  8  9  1  0
  9 10  2  0
 10 11  1  0
 11 12  2  0
 12 13  1  0
 13 14  1  0
 14 15  2  0
 14 16  1  0
 16 17  1  0
 17 18  1  0
 18 19  2  0
 19 20  1  0
 20 21  2  0
 21 22  1  0
 22 23  2  0
 13 24  2  0
  8 25  2  0
 25  4  1  0
 24  9  1  0
 23 18  1  0
  1 26  1  0
  5 27  1  0
  6 28  1  0
  7 29  1  0
 10 30  1  0
 11 31  1  0
 12 32  1  0
 16 33  1  0
 17 34  1  0
 17 35  1  0
 19 36  1  0
 20 37  1  0
 21 38  1  0
 22 39  1  0
 23 40  1  0
 25 41  1  0
M  CHG  1   1  -1
M  END
>  <UniqueID>  (7) 
7

>  <SMILES>  (7) 
[NH-]C(=O)c1cccc(-c2cccc(C(=O)NCc3ccccc3)n2)c1

>  <Energy>  (7) 
46.075179454926435

>  <Genealogy>  (7) 
[NH-]C(=O)c1cccc(-c2cccc(C(=O)NCc3ccccc3)n2)c1 (protonated)
[NH-]C(=O)c1cccc(-c2cccc(C(=O)NCc3ccccc3)n2)c1 (3D coordinates assigned)
[NH-]C(=O)c1cccc(-c2cccc(C(=O)NCc3ccccc3)n2)c1 (optimized conformer: 46.075179454926435 kcal/mol)

>  <smiles>  (7) 
NC(=O)c1cccc(-c2cccc(C(=O)NCc3ccccc3)n2)c1

>  <score_type>  (7) 
oracle

>  <origin>  (7) 
adg

>  <m_score__min__energy>  (7) 
-12.539999999999999

>  <m_primary>  (7) 
energy

$$$$
7:0
     RDKit          3D

 53 55  0  0  0  0  0  0  0  0999 V2000
   58.6872   33.7672   47.5443 H   0  0  0  0  0  0  0  0  0  0  0  0
   58.3480   32.9530   46.8870 C   0  0  0  0  0  0  0  0  0  0  0  0
   58.2564   31.9300   47.2809 H   0  0  0  0  0  0  0  0  0  0  0  0
   58.0480   33.2060   45.6130 C   0  0  0  0  0  0  0  0  0  0  0  0
   58.1534   34.2424   45.2598 H   0  0  0  0  0  0  0  0  0  0  0  0
   57.5830   32.1920   44.6390 C   0  0  0  0  0  0  0  0  0  0  0  0
   56.9910   31.0660   45.1270 N   0  0  0  0  0  0  0  0  0  0  0  0
   56.5250   30.0670   44.3290 C   0  0  0  0  0  0  0  0  0  0  0  0
   55.9780   29.0280   44.8930 N   0  0  0  0  0  0  0  0  0  0  0  0
   56.6430   27.9830   45.6200 C   0  0  0  0  0  0  0  0  0  0  0  0
   56.0280   26.9040   45.8280 O   0  0  0  0  0  0  0  0  0  0  0  0
   57.9690   28.1620   46.1520 N   0  0  0  0  0  0  0  0  0  0  0  0
   58.2800   27.7900   47.5430 C   0  0  0  0  0  0  0  0  0  0  0  0
   57.3522   27.7716   48.1337 H   0  0  0  0  0  0  0  0  0  0  0  0
   58.7460   26.7937   47.5603 H   0  0  0  0  0  0  0  0  0  0  0  0
   59.2260   28.7940   48.1300 C   0  0  0  0  0  0  0  0  0  0  0  0
   59.0989   29.1322   49.1690 H   0  0  0  0  0  0  0  0  0  0  0  0
   60.2270   29.2770   47.3820 C   0  0  0  0  0  0  0  0  0  0  0  0
   61.1540   30.3010   47.9180 C   0  0  0  0  0  0  0  0  0  0  0  0
   61.5120   30.3090   49.2790 C   0  0  0  0  0  0  0  0  0  0  0  0
   61.0570   29.3530   50.1280 F   0  0  0  0  0  0  0  0  0  0  0  0
   62.3820   31.2900   49.7550 C   0  0  0  0  0  0  0  0  0  0  0  0
   62.6765   31.2950   50.8148 H   0  0  0  0  0  0  0  0  0  0  0  0
   62.8810   32.2680   48.8870 C   0  0  0  0  0  0  0  0  0  0  0  0
   63.8090   33.3090   49.3670 C   0  0  0  0  0  0  0  0  0  0  0  0
   63.3430   34.4180   49.7380 O   0  0  0  0  0  0  0  0  0  0  0  0
   65.2260   33.0980   49.4400 N   0  0  0  0  0  0  0  0  0  0  0  0
   65.9920   32.8280   50.6570 C   0  0  0  0  0  0  0  0  0  0  0  0
   65.5106   33.3234   51.5131 H   0  0  0  0  0  0  0  0  0  0  0  0
   66.0280   31.3200   50.8960 C   0  0  0  0  0  0  0  0  0  0  0  0
   66.0328   31.1202   51.9777 H   0  0  0  0  0  0  0  0  0  0  0  0
   65.1407   30.8554   50.4412 H   0  0  0  0  0  0  0  0  0  0  0  0
   66.9365   30.8983   50.4412 H   0  0  0  0  0  0  0  0  0  0  0  0
   67.4140   33.3830   50.5250 C   0  0  0  0  0  0  0  0  0  0  0  0
   67.8375   33.5483   51.5266 H   0  0  0  0  0  0  0  0  0  0  0  0
   68.0392   32.6629   49.9768 H   0  0  0  0  0  0  0  0  0  0  0  0
   67.3861   34.3363   49.9768 H   0  0  0  0  0  0  0  0  0  0  0  0
   62.5250   32.2120   47.5340 C   0  0  0  0  0  0  0  0  0  0  0  0
   62.9337   32.9523   46.8305 H   0  0  0  0  0  0  0  0  0  0  0  0
   61.6760   31.2470   47.0830 N   0  0  0  0  0  0  0  0  0  0  0  0
   61.4060   31.2600   46.0740 H   0  0  0  0  0  0  0  0  0  0  0  0
   60.3960   28.7490   45.9760 C   0  0  0  0  0  0  0  0  0  0  0  0
   61.0519   29.4286   45.4122 H   0  0  0  0  0  0  0  0  0  0  0  0
   60.8394   27.7437   46.0284 H   0  0  0  0  0  0  0  0  0  0  0  0
   59.0360   28.6510   45.2600 C   0  0  0  0  0  0  0  0  0  0  0  0
   58.7582   29.6489   44.8899 H   0  0  0  0  0  0  0  0  0  0  0  0
   59.1410   27.9317   44.4344 H   0  0  0  0  0  0  0  0  0  0  0  0
   56.6270   30.2090   42.9300 C   0  0  0  0  0  0  0  0  0  0  0  0
   56.2388   29.4253   42.2629 H   0  0  0  0  0  0  0  0  0  0  0  0
   57.2240   31.3510   42.4000 C   0  0  0  0  0  0  0  0  0  0  0  0
   57.3155   31.4659   41.3099 H   0  0  0  0  0  0  0  0  0  0  0  0
   57.7060   32.3490   43.2470 C   0  0  0  0  0  0  0  0  0  0  0  0
   58.1781   33.2507   42.8298 H   0  0  0  0  0  0  0  0  0  0  0  0
  1  2  1  0
  2  3  1  0
  2  4  2  0
  4  5  1  0
  4  6  1  0
  6  7  1  0
  7  8  1  0
  8  9  2  0
  9 10  1  0
 10 11  2  0
 10 12  1  0
 12 13  1  0
 13 14  1  0
 13 15  1  0
 13 16  1  0
 16 17  1  0
 16 18  2  0
 18 19  1  0
 19 20  2  0
 20 21  1  0
 20 22  1  0
 22 23  1  0
 22 24  2  0
 24 25  1  0
 25 26  2  0
 25 27  1  0
 27 28  1  0
 28 29  1  0
 28 30  1  0
 30 31  1  0
 30 32  1  0
 30 33  1  0
 28 34  1  0
 34 35  1  0
 34 36  1  0
 34 37  1  0
 24 38  1  0
 38 39  1  0
 38 40  2  0
 40 41  1  0
 18 42  1  0
 42 43  1  0
 42 44  1  0
 42 45  1  0
 45 46  1  0
 45 47  1  0
  8 48  1  0
 48 49  1  0
 48 50  2  0
 50 51  1  0
 50 52  1  0
 52 53  1  0
 52  6  2  0
 45 12  1  0
 40 19  1  0
M  CHG  3   7  -1  27  -1  40   1
M  END
>  <UniqueID>  (8) 
8

>  <SMILES>  (8) 
C=Cc1ccc/c(=N\C(=O)N2CC=C(c3[nH+]cc(C(=O)[N-]C(C)C)cc3F)CC2)[n-]1

>  <Energy>  (8) 
70.81394267202407

>  <Genealogy>  (8) 
C=Cc1cccc(=NC(=O)N2CC=C(c3[nH+]cc(C(=O)[N-]C(C)C)cc3F)CC2)[n-]1 (protonated)
C=Cc1ccc/c(=N\C(=O)N2CC=C(c3[nH+]cc(C(=O)[N-]C(C)C)cc3F)CC2)[n-]1 (cis-trans isomerization)
C=Cc1ccc/c(=N\C(=O)N2CC=C(c3[nH+]cc(C(=O)[N-]C(C)C)cc3F)CC2)[n-]1 (3D coordinates assigned)
C=Cc1ccc/c(=N\C(=O)N2CC=C(c3[nH+]cc(C(=O)[N-]C(C)C)cc3F)CC2)[n-]1 (nonaromatic ring conformer: 70.81394267202407 kcal/mol)

>  <smiles>  (8) 
C=Cc1cccc(=NC(=O)N2CC=C(c3ncc(C(=O)NC(C)C)cc3F)CC2)[nH]1

>  <score_type>  (8) 
oracle

>  <origin>  (8) 
adg

>  <m_score__min__energy>  (8) 
-9.4700000000000006

>  <m_primary>  (8) 
energy

$$$$
8:0
     RDKit          3D

 58 61  0  0  0  0  0  0  0  0999 V2000
   58.5300   34.0510   52.3660 C   0  0  0  0  0  0  0  0  0  0  0  0
   58.1480   32.6340   52.0530 C   0  0  0  0  0  0  0  0  0  0  0  0
   56.8040   32.2430   52.1070 C   0  0  0  0  0  0  0  0  0  0  0  0
   56.4590   30.9310   51.7730 C   0  0  0  0  0  0  0  0  0  0  0  0
   57.4200   30.0520   51.3880 N   0  0  0  0  0  0  0  0  0  0  0  0
   58.7350   30.3990   51.3200 C   0  0  0  0  0  0  0  0  0  0  0  0
   59.6390   29.5530   50.9170 N   0  0  0  0  0  0  0  0  0  0  0  0
   60.4090   29.6020   49.7030 C   0  0  0  0  0  0  0  0  0  0  0  0
   59.9280   29.0760   48.6650 O   0  0  0  0  0  0  0  0  0  0  0  0
   61.6840   30.4020   49.5840 C   0  0  0  0  0  0  0  0  0  0  0  0
   61.5190   31.5400   48.6080 C   0  0  0  0  0  0  0  0  0  0  0  0
   62.6430   32.1480   48.0290 C   0  0  0  0  0  0  0  0  0  0  0  0
   62.4870   33.1850   47.1070 C   0  0  0  0  0  0  0  0  0  0  0  0
   61.2100   33.6220   46.7510 C   0  0  0  0  0  0  0  0  0  0  0  0
   60.0700   33.0160   47.3030 C   0  0  0  0  0  0  0  0  0  0  0  0
   58.7680   33.4770   46.9030 N   0  0  0  0  0  0  0  0  0  0  0  0
   57.9760   32.9820   45.4400 S   0  0  0  0  0  0  0  0  0  0  0  0
   58.8100   33.3910   44.2600 O   0  0  0  0  0  0  0  0  0  0  0  0
   56.6380   33.6600   45.3470 O   0  0  0  0  0  0  0  0  0  0  0  0
   57.7950   31.2300   45.4230 C   0  0  0  0  0  0  0  0  0  0  0  0
   58.2370   30.4540   46.5010 C   0  0  0  0  0  0  0  0  0  0  0  0
   58.1140   29.0630   46.4650 C   0  0  0  0  0  0  0  0  0  0  0  0
   57.5480   28.4240   45.3470 C   0  0  0  0  0  0  0  0  0  0  0  0
   57.4120   26.9870   45.3260 N   0  0  0  0  0  0  0  0  0  0  0  0
   58.4590   26.0450   44.9270 C   0  0  0  0  0  0  0  0  0  0  0  0
   57.8950   24.6290   45.2040 C   0  0  0  0  0  0  0  0  0  0  0  0
   56.5250   24.8360   45.6530 N   0  0  0  0  0  0  0  0  0  0  0  0
   55.5720   23.7870   45.9910 C   0  0  0  0  0  0  0  0  0  0  0  0
   56.2800   26.2240   45.7080 C   0  0  0  0  0  0  0  0  0  0  0  0
   55.1580   26.7170   46.0020 O   0  0  0  0  0  0  0  0  0  0  0  0
   57.0900   29.2130   44.2770 C   0  0  0  0  0  0  0  0  0  0  0  0
   57.2200   30.6040   44.3130 C   0  0  0  0  0  0  0  0  0  0  0  0
   60.2350   31.9790   48.2420 C   0  0  0  0  0  0  0  0  0  0  0  0
   59.1180   31.7080   51.6400 C   0  0  0  0  0  0  0  0  0  0  0  0
   58.5670   34.1884   53.4568 H   0  0  0  0  0  0  0  0  0  0  0  0
   59.5187   34.2679   51.9353 H   0  0  0  0  0  0  0  0  0  0  0  0
   57.7843   34.7355   51.9353 H   0  0  0  0  0  0  0  0  0  0  0  0
   56.0280   32.9617   52.4093 H   0  0  0  0  0  0  0  0  0  0  0  0
   55.4081   30.6097   51.8219 H   0  0  0  0  0  0  0  0  0  0  0  0
   61.9461   30.8100   50.5713 H   0  0  0  0  0  0  0  0  0  0  0  0
   62.4810   29.7385   49.2172 H   0  0  0  0  0  0  0  0  0  0  0  0
   63.6521   31.8061   48.3027 H   0  0  0  0  0  0  0  0  0  0  0  0
   63.3732   33.6590   46.6598 H   0  0  0  0  0  0  0  0  0  0  0  0
   61.0959   34.4472   46.0327 H   0  0  0  0  0  0  0  0  0  0  0  0
   58.3000   34.2220   47.4650 H   0  0  0  0  0  0  0  0  0  0  0  0
   58.6831   30.9417   47.3803 H   0  0  0  0  0  0  0  0  0  0  0  0
   58.4627   28.4624   47.3180 H   0  0  0  0  0  0  0  0  0  0  0  0
   58.6892   26.1613   43.8577 H   0  0  0  0  0  0  0  0  0  0  0  0
   59.3906   26.2215   45.4846 H   0  0  0  0  0  0  0  0  0  0  0  0
   57.9112   24.0226   44.2864 H   0  0  0  0  0  0  0  0  0  0  0  0
   58.4932   24.0914   45.9544 H   0  0  0  0  0  0  0  0  0  0  0  0
   55.4939   23.7011   47.0849 H   0  0  0  0  0  0  0  0  0  0  0  0
   54.5865   24.0379   45.5717 H   0  0  0  0  0  0  0  0  0  0  0  0
   55.9161   22.8300   45.5717 H   0  0  0  0  0  0  0  0  0  0  0  0
   56.6254   28.7312   43.4041 H   0  0  0  0  0  0  0  0  0  0  0  0
   56.8684   31.2090   43.4643 H   0  0  0  0  0  0  0  0  0  0  0  0
   59.3495   31.5078   48.6936 H   0  0  0  0  0  0  0  0  0  0  0  0
   60.1737   32.0084   51.5679 H   0  0  0  0  0  0  0  0  0  0  0  0
  1  2  1  0
  2  3  1  0
  3  4  2  0
  4  5  1  0
  5  6  1  0
  6  7  2  3
  7  8  1  0
  8  9  2  0
  8 10  1  0
 10 11  1  0
 11 12  2  0
 12 13  1  0
 13 14  2  0
 14 15  1  0
 15 16  1  0
 16 17  1  0
 17 18  2  0
 17 19  2  0
 17 20  1  0
 20 21  2  0
 21 22  1  0
 22 23  2  0
 23 24  1  0
 24 25  1  0
 25 26  1  0
 26 27  1  0
 27 28  1  0
 27 29  1  0
 29 30  2  0
 23 31  1  0
 31 32  2  0
 15 33  2  0
  6 34  1  0
 34  2  2  0
 33 11  1  0
 32 20  1  0
 29 24  1  0
  1 35  1  0
  1 36  1  0
  1 37  1  0
  3 38  1  0
  4 39  1  0
 10 40  1  0
 10 41  1  0
 12 42  1  0
 13 43  1  0
 14 44  1  0
 16 45  1  0
 21 46  1  0
 22 47  1  0
 25 48  1  0
 25 49  1  0
 26 50  1  0
 26 51  1  0
 28 52  1  0
 28 53  1  0
 28 54  1  0
 31 55  1  0
 32 56  1  0
 33 57  1  0
 34 58  1  0
M  CHG  1   5  -1
M  END
>  <UniqueID>  (9) 
9

>  <SMILES>  (9) 
Cc1cc[n-]c(=NC(=O)Cc2cccc(NS(=O)(=O)c3ccc(N4CCN(C)C4=O)cc3)c2)c1

>  <Energy>  (9) 
83.68578055851836

>  <Genealogy>  (9) 
Cc1cc[n-]c(=NC(=O)Cc2cccc(NS(=O)(=O)c3ccc(N4CCN(C)C4=O)cc3)c2)c1 (protonated)
Cc1cc[n-]c(=NC(=O)Cc2cccc(NS(=O)(=O)c3ccc(N4CCN(C)C4=O)cc3)c2)c1 (3D coordinates assigned)
Cc1cc[n-]c(=NC(=O)Cc2cccc(NS(=O)(=O)c3ccc(N4CCN(C)C4=O)cc3)c2)c1 (nonaromatic ring conformer: 83.68578055851836 kcal/mol)

>  <smiles>  (9) 
Cc1cc[nH]c(=NC(=O)Cc2cccc(NS(=O)(=O)c3ccc(N4CCN(C)C4=O)cc3)c2)c1

>  <score_type>  (9) 
oracle

>  <origin>  (9) 
adg

>  <m_score__min__energy>  (9) 
-11.9

>  <m_primary>  (9) 
energy

$$$$
9:0
     RDKit          3D

 47 48  0  0  0  0  0  0  0  0999 V2000
   57.9120   33.4680   46.8420 C   0  0  0  0  0  0  0  0  0  0  0  0
   58.2000   33.5370   45.4040 N   0  0  0  0  0  0  0  0  0  0  0  0
   58.9960   34.6510   44.8750 C   0  0  0  0  0  0  0  0  0  0  0  0
   57.7080   32.5290   44.4880 C   0  0  0  0  0  0  0  0  0  0  0  0
   57.0100   31.3910   44.9420 C   0  0  0  0  0  0  0  0  0  0  0  0
   56.5400   30.4440   44.0180 C   0  0  0  0  0  0  0  0  0  0  0  0
   55.8030   29.2200   44.4970 C   0  0  0  0  0  0  0  0  0  0  0  0
   56.5790   28.5110   45.5110 N   0  0  0  0  0  0  0  0  0  0  0  0
   56.3680   27.1610   45.9490 C   0  0  0  0  0  0  0  0  0  0  0  0
   55.1910   26.7160   45.9800 O   0  0  0  0  0  0  0  0  0  0  0  0
   57.4960   26.2560   46.3610 C   0  0  0  0  0  0  0  0  0  0  0  0
   58.2410   26.8490   47.4650 N   0  0  0  0  0  0  0  0  0  0  0  0
   59.6320   27.1860   47.3880 C   0  0  0  0  0  0  0  0  0  0  0  0
   60.4920   26.2690   47.2910 O   0  0  0  0  0  0  0  0  0  0  0  0
   60.0590   28.6040   47.4210 C   0  0  0  0  0  0  0  0  0  0  0  0
   60.7490   29.1160   48.5360 C   0  0  0  0  0  0  0  0  0  0  0  0
   61.1570   30.4520   48.5640 C   0  0  0  0  0  0  0  0  0  0  0  0
   60.8880   31.2970   47.4800 C   0  0  0  0  0  0  0  0  0  0  0  0
   61.3900   32.9840   47.5170 S   0  0  0  0  0  0  0  0  0  0  0  0
   63.0260   33.1000   48.2030 C   0  0  0  0  0  0  0  0  0  0  0  0
   60.4310   33.7780   48.3600 O   0  0  0  0  0  0  0  0  0  0  0  0
   61.3910   33.5500   46.1230 O   0  0  0  0  0  0  0  0  0  0  0  0
   60.1940   30.7980   46.3720 C   0  0  0  0  0  0  0  0  0  0  0  0
   59.7820   29.4620   46.3400 C   0  0  0  0  0  0  0  0  0  0  0  0
   56.7950   30.6340   42.6540 C   0  0  0  0  0  0  0  0  0  0  0  0
   57.4890   31.7690   42.2380 C   0  0  0  0  0  0  0  0  0  0  0  0
   57.9210   32.6770   43.1490 N   0  0  0  0  0  0  0  0  0  0  0  0
   58.8279   33.6874   47.4103 H   0  0  0  0  0  0  0  0  0  0  0  0
   57.1369   34.2059   47.0965 H   0  0  0  0  0  0  0  0  0  0  0  0
   57.5554   32.4590   47.0965 H   0  0  0  0  0  0  0  0  0  0  0  0
   59.4121   35.2334   45.7103 H   0  0  0  0  0  0  0  0  0  0  0  0
   59.8170   34.2551   44.2592 H   0  0  0  0  0  0  0  0  0  0  0  0
   58.3554   35.2994   44.2592 H   0  0  0  0  0  0  0  0  0  0  0  0
   56.8340   31.2454   46.0180 H   0  0  0  0  0  0  0  0  0  0  0  0
   54.8388   29.5257   44.9293 H   0  0  0  0  0  0  0  0  0  0  0  0
   55.6430   28.5474   43.6414 H   0  0  0  0  0  0  0  0  0  0  0  0
   57.0858   25.2862   46.6791 H   0  0  0  0  0  0  0  0  0  0  0  0
   58.1735   26.1155   45.5059 H   0  0  0  0  0  0  0  0  0  0  0  0
   60.9685   28.4598   49.3911 H   0  0  0  0  0  0  0  0  0  0  0  0
   61.6924   30.8422   49.4421 H   0  0  0  0  0  0  0  0  0  0  0  0
   62.9642   33.0956   49.3013 H   0  0  0  0  0  0  0  0  0  0  0  0
   63.6265   32.2422   47.8661 H   0  0  0  0  0  0  0  0  0  0  0  0
   63.4995   34.0340   47.8661 H   0  0  0  0  0  0  0  0  0  0  0  0
   59.9715   31.4599   45.5221 H   0  0  0  0  0  0  0  0  0  0  0  0
   59.2378   29.0790   45.4641 H   0  0  0  0  0  0  0  0  0  0  0  0
   56.4504   29.8936   41.9171 H   0  0  0  0  0  0  0  0  0  0  0  0
   57.6871   31.9291   41.1679 H   0  0  0  0  0  0  0  0  0  0  0  0
  1  2  1  0
  2  3  1  0
  2  4  1  0
  4  5  2  0
  5  6  1  0
  6  7  1  0
  7  8  1  0
  8  9  1  0
  9 10  2  0
  9 11  1  0
 11 12  1  0
 12 13  1  0
 13 14  2  0
 13 15  1  0
 15 16  2  0
 16 17  1  0
 17 18  2  0
 18 19  1  0
 19 20  1  0
 19 21  2  0
 19 22  2  0
 18 23  1  0
 23 24  2  0
  6 25  2  0
 25 26  1  0
 26 27  2  0
 27  4  1  0
 24 15  1  0
  1 28  1  0
  1 29  1  0
  1 30  1  0
  3 31  1  0
  3 32  1  0
  3 33  1  0
  5 34  1  0
  7 35  1  0
  7 36  1  0
 11 37  1  0
 11 38  1  0
 16 39  1  0
 17 40  1  0
 20 41  1  0
 20 42  1  0
 20 43  1  0
 23 44  1  0
 24 45  1  0
 25 46  1  0
 26 47  1  0
M  CHG  2   8  -1  12  -1
M  END
>  <UniqueID>  (10) 
10

>  <SMILES>  (10) 
CN(C)c1cc(C[N-]C(=O)C[N-]C(=O)c2ccc(S(C)(=O)=O)cc2)ccn1

>  <Energy>  (10) 
40.873860970695

>  <Genealogy>  (10) 
CN(C)c1cc(C[N-]C(=O)C[N-]C(=O)c2ccc(S(C)(=O)=O)cc2)ccn1 (protonated)
CN(C)c1cc(C[N-]C(=O)C[N-]C(=O)c2ccc(S(C)(=O)=O)cc2)ccn1 (3D coordinates assigned)
CN(C)c1cc(C[N-]C(=O)C[N-]C(=O)c2ccc(S(C)(=O)=O)cc2)ccn1 (optimized conformer: 40.873860970695 kcal/mol)

>  <smiles>  (10) 
CN(C)c1cc(CNC(=O)CNC(=O)c2ccc(S(C)(=O)=O)cc2)ccn1

>  <score_type>  (10) 
oracle

>  <origin>  (10) 
adg

>  <m_score__min__energy>  (10) 
-11.859999999999999

>  <m_primary>  (10) 
energy

$$$$
10:0
     RDKit          3D

 57 60  0  0  0  0  0  0  0  0999 V2000
   59.1310   31.0150   46.6070 O   0  0  0  0  0  0  0  0  0  0  0  0
   58.3040   31.8900   46.2390 C   0  0  0  0  0  0  0  0  0  0  0  0
   57.7270   31.8320   44.8600 C   0  0  0  0  0  0  0  0  0  0  0  0
   56.4740   31.1560   44.8660 O   0  0  0  0  0  0  0  0  0  0  0  0
   56.2940   29.8490   44.3940 C   0  0  0  0  0  0  0  0  0  0  0  0
   55.1370   29.3510   44.3300 O   0  0  0  0  0  0  0  0  0  0  0  0
   57.4360   29.0540   43.9040 C   0  0  0  0  0  0  0  0  0  0  0  0
   58.2320   28.2810   44.6590 C   0  0  0  0  0  0  0  0  0  0  0  0
   57.8370   27.0120   45.3090 C   0  0  0  0  0  0  0  0  0  0  0  0
   57.4140   25.9160   44.5380 C   0  0  0  0  0  0  0  0  0  0  0  0
   57.0960   24.7030   45.1490 C   0  0  0  0  0  0  0  0  0  0  0  0
   57.2330   24.5570   46.5280 C   0  0  0  0  0  0  0  0  0  0  0  0
   57.6930   25.6250   47.3030 C   0  0  0  0  0  0  0  0  0  0  0  0
   58.0010   26.8620   46.7010 C   0  0  0  0  0  0  0  0  0  0  0  0
   58.4610   27.9610   47.4480 O   0  0  0  0  0  0  0  0  0  0  0  0
   59.8170   28.1960   47.8280 C   0  0  0  0  0  0  0  0  0  0  0  0
   59.9210   29.3030   48.8400 C   0  0  0  0  0  0  0  0  0  0  0  0
   61.1450   29.9090   49.1260 C   0  0  0  0  0  0  0  0  0  0  0  0
   61.1810   30.9650   50.0370 C   0  0  0  0  0  0  0  0  0  0  0  0
   62.2900   31.5120   50.2860 O   0  0  0  0  0  0  0  0  0  0  0  0
   60.0250   31.4070   50.6340 N   0  0  0  0  0  0  0  0  0  0  0  0
   60.0500   32.4430   51.5340 C   0  0  0  0  0  0  0  0  0  0  0  0
   58.8720   32.9030   52.1270 C   0  0  0  0  0  0  0  0  0  0  0  0
   58.9230   34.3510   53.3710 Br  0  0  0  0  0  0  0  0  0  0  0  0
   57.6600   32.3000   51.8010 C   0  0  0  0  0  0  0  0  0  0  0  0
   57.6340   31.2490   50.8880 C   0  0  0  0  0  0  0  0  0  0  0  0
   58.8270   30.8060   50.3110 C   0  0  0  0  0  0  0  0  0  0  0  0
   58.7920   29.7780   49.4240 N   0  0  0  0  0  0  0  0  0  0  0  0
   57.9480   32.9630   47.1160 N   0  0  0  0  0  0  0  0  0  0  0  0
   58.6230   34.2550   47.1310 C   0  0  0  0  0  0  0  0  0  0  0  0
   60.0770   34.0840   47.4710 C   0  0  0  0  0  0  0  0  0  0  0  0
   60.9920   33.6990   46.4790 C   0  0  0  0  0  0  0  0  0  0  0  0
   62.3510   33.5780   46.7800 C   0  0  0  0  0  0  0  0  0  0  0  0
   62.8070   33.8300   48.0730 C   0  0  0  0  0  0  0  0  0  0  0  0
   61.8990   34.1990   49.0730 C   0  0  0  0  0  0  0  0  0  0  0  0
   60.5420   34.3420   48.7700 C   0  0  0  0  0  0  0  0  0  0  0  0
   57.5827   32.8563   44.4857 H   0  0  0  0  0  0  0  0  0  0  0  0
   58.4222   31.2817   44.2090 H   0  0  0  0  0  0  0  0  0  0  0  0
   57.6539   29.0986   42.8267 H   0  0  0  0  0  0  0  0  0  0  0  0
   59.2678   28.6203   44.8074 H   0  0  0  0  0  0  0  0  0  0  0  0
   57.3331   26.0152   43.4455 H   0  0  0  0  0  0  0  0  0  0  0  0
   56.7363   23.8599   44.5409 H   0  0  0  0  0  0  0  0  0  0  0  0
   56.9788   23.6000   47.0071 H   0  0  0  0  0  0  0  0  0  0  0  0
   57.8155   25.4998   48.3890 H   0  0  0  0  0  0  0  0  0  0  0  0
   60.2315   27.2743   48.2624 H   0  0  0  0  0  0  0  0  0  0  0  0
   60.3804   28.4937   46.9313 H   0  0  0  0  0  0  0  0  0  0  0  0
   62.0679   29.5592   48.6403 H   0  0  0  0  0  0  0  0  0  0  0  0
   61.0089   32.9165   51.7913 H   0  0  0  0  0  0  0  0  0  0  0  0
   56.7262   32.6527   52.2632 H   0  0  0  0  0  0  0  0  0  0  0  0
   56.6799   30.7703   50.6225 H   0  0  0  0  0  0  0  0  0  0  0  0
   58.5355   34.7209   46.1384 H   0  0  0  0  0  0  0  0  0  0  0  0
   58.1519   34.8943   47.8922 H   0  0  0  0  0  0  0  0  0  0  0  0
   60.6372   33.4913   45.4587 H   0  0  0  0  0  0  0  0  0  0  0  0
   63.0628   33.2832   45.9949 H   0  0  0  0  0  0  0  0  0  0  0  0
   63.8779   33.7392   48.3072 H   0  0  0  0  0  0  0  0  0  0  0  0
   62.2542   34.3767   50.0988 H   0  0  0  0  0  0  0  0  0  0  0  0
   59.8360   34.6578   49.5522 H   0  0  0  0  0  0  0  0  0  0  0  0
  1  2  2  0
  2  3  1  0
  3  4  1  0
  4  5  1  0
  5  6  2  0
  5  7  1  0
  7  8  2  3
  8  9  1  0
  9 10  2  0
 10 11  1  0
 11 12  2  0
 12 13  1  0
 13 14  2  0
 14 15  1  0
 15 16  1  0
 16 17  1  0
 17 18  2  0
 18 19  1  0
 19 20  2  0
 19 21  1  0
 21 22  1  0
 22 23  2  0
 23 24  1  0
 23 25  1  0
 25 26  2  0
 26 27  1  0
 27 28  2  0
  2 29  1  0
 29 30  1  0
 30 31  1  0
 31 32  2  0
 32 33  1  0
 33 34  2  0
 34 35  1  0
 35 36  2  0
 14  9  1  0
 28 17  1  0
 36 31  1  0
 27 21  1  0
  3 37  1  0
  3 38  1  0
  7 39  1  0
  8 40  1  0
 10 41  1  0
 11 42  1  0
 12 43  1  0
 13 44  1  0
 16 45  1  0
 16 46  1  0
 18 47  1  0
 22 48  1  0
 25 49  1  0
 26 50  1  0
 30 51  1  0
 30 52  1  0
 32 53  1  0
 33 54  1  0
 34 55  1  0
 35 56  1  0
 36 57  1  0
M  CHG  1  29  -1
M  END
>  <UniqueID>  (11) 
11

>  <SMILES>  (11) 
O=C(COC(=O)C=Cc1ccccc1OCc1cc(=O)n2cc(Br)ccc2n1)[N-]Cc1ccccc1

>  <Energy>  (11) 
66.36618461255254

>  <Genealogy>  (11) 
O=C(COC(=O)C=Cc1ccccc1OCc1cc(=O)n2cc(Br)ccc2n1)[N-]Cc1ccccc1 (protonated)
O=C(COC(=O)C=Cc1ccccc1OCc1cc(=O)n2cc(Br)ccc2n1)[N-]Cc1ccccc1 (3D coordinates assigned)
O=C(COC(=O)C=Cc1ccccc1OCc1cc(=O)n2cc(Br)ccc2n1)[N-]Cc1ccccc1 (optimized conformer: 66.36618461255254 kcal/mol)

>  <smiles>  (11) 
O=C(COC(=O)C=Cc1ccccc1OCc1cc(=O)n2cc(Br)ccc2n1)NCc1ccccc1

>  <score_type>  (11) 
oracle

>  <origin>  (11) 
adg

>  <m_score__min__energy>  (11) 
-11.82

>  <m_primary>  (11) 
energy

$$$$
11:0
     RDKit          3D

 41 43  0  0  0  0  0  0  0  0999 V2000
   58.3410   27.0870   43.0510 C   0  0  0  0  0  0  0  0  0  0  0  0
   58.8090   27.9080   44.2120 C   0  0  0  0  0  0  0  0  0  0  0  0
   60.1250   28.2290   44.3600 N   0  0  0  0  0  0  0  0  0  0  0  0
   60.3550   28.9660   45.4680 C   0  0  0  0  0  0  0  0  0  0  0  0
   58.9310   29.2420   46.3120 S   0  0  0  0  0  0  0  0  0  0  0  0
   57.9670   28.3990   45.2180 C   0  0  0  0  0  0  0  0  0  0  0  0
   56.5160   28.1470   45.3570 C   0  0  0  0  0  0  0  0  0  0  0  0
   56.1290   27.0770   45.8940 O   0  0  0  0  0  0  0  0  0  0  0  0
   55.5240   29.0700   44.8910 N   0  0  0  0  0  0  0  0  0  0  0  0
   55.5080   29.7240   43.5890 C   0  0  0  0  0  0  0  0  0  0  0  0
   56.4680   30.8770   43.6150 C   0  0  0  0  0  0  0  0  0  0  0  0
   57.1990   31.2340   42.4720 C   0  0  0  0  0  0  0  0  0  0  0  0
   58.1450   32.2620   42.5380 C   0  0  0  0  0  0  0  0  0  0  0  0
   58.3880   32.9150   43.7490 C   0  0  0  0  0  0  0  0  0  0  0  0
   57.6850   32.5520   44.9040 C   0  0  0  0  0  0  0  0  0  0  0  0
   58.0130   33.1950   46.1440 N   0  0  0  0  0  0  0  0  0  0  0  0
   59.3520   34.2750   46.3790 S   0  0  0  0  0  0  0  0  0  0  0  0
   59.0240   35.2230   47.5000 O   0  0  0  0  0  0  0  0  0  0  0  0
   59.5780   35.0630   45.1210 O   0  0  0  0  0  0  0  0  0  0  0  0
   60.8120   33.3580   46.7460 C   0  0  0  0  0  0  0  0  0  0  0  0
   60.7130   32.1250   47.4060 C   0  0  0  0  0  0  0  0  0  0  0  0
   61.8700   31.4240   47.7600 C   0  0  0  0  0  0  0  0  0  0  0  0
   63.1290   31.9490   47.4550 C   0  0  0  0  0  0  0  0  0  0  0  0
   63.2330   33.1750   46.7920 C   0  0  0  0  0  0  0  0  0  0  0  0
   62.0780   33.8790   46.4360 C   0  0  0  0  0  0  0  0  0  0  0  0
   56.7040   31.5500   44.8230 C   0  0  0  0  0  0  0  0  0  0  0  0
   57.8281   26.1871   43.4213 H   0  0  0  0  0  0  0  0  0  0  0  0
   57.6453   27.6801   42.4393 H   0  0  0  0  0  0  0  0  0  0  0  0
   59.2058   26.7905   42.4393 H   0  0  0  0  0  0  0  0  0  0  0  0
   61.3440   29.3361   45.7762 H   0  0  0  0  0  0  0  0  0  0  0  0
   55.8118   29.0075   42.8116 H   0  0  0  0  0  0  0  0  0  0  0  0
   54.4939   30.0870   43.3656 H   0  0  0  0  0  0  0  0  0  0  0  0
   57.0279   30.7048   41.5229 H   0  0  0  0  0  0  0  0  0  0  0  0
   58.6989   32.5570   41.6346 H   0  0  0  0  0  0  0  0  0  0  0  0
   59.1366   33.7196   43.7953 H   0  0  0  0  0  0  0  0  0  0  0  0
   59.7236   31.7084   47.6457 H   0  0  0  0  0  0  0  0  0  0  0  0
   61.7892   30.4577   48.2794 H   0  0  0  0  0  0  0  0  0  0  0  0
   64.0380   31.3973   47.7368 H   0  0  0  0  0  0  0  0  0  0  0  0
   64.2240   33.5866   46.5500 H   0  0  0  0  0  0  0  0  0  0  0  0
   62.1619   34.8426   45.9122 H   0  0  0  0  0  0  0  0  0  0  0  0
   56.1152   31.2906   45.7152 H   0  0  0  0  0  0  0  0  0  0  0  0
  1  2  1  0
  2  3  1  0
  3  4  2  0
  4  5  1  0
  5  6  1  0
  6  7  1  0
  7  8  2  0
  7  9  1  0
  9 10  1  0
 10 11  1  0
 11 12  2  0
 12 13  1  0
 13 14  2  0
 14 15  1  0
 15 16  1  0
 16 17  1  0
 17 18  2  0
 17 19  2  0
 17 20  1  0
 20 21  2  0
 21 22  1  0
 22 23  2  0
 23 24  1  0
 24 25  2  0
 15 26  2  0
  6  2  2  0
 26 11  1  0
 25 20  1  0
  1 27  1  0
  1 28  1  0
  1 29  1  0
  4 30  1  0
 10 31  1  0
 10 32  1  0
 12 33  1  0
 13 34  1  0
 14 35  1  0
 21 36  1  0
 22 37  1  0
 23 38  1  0
 24 39  1  0
 25 40  1  0
 26 41  1  0
M  CHG  2   9  -1  16  -1
M  END
>  <UniqueID>  (12) 
12

>  <SMILES>  (12) 
Cc1ncsc1C(=O)[N-]Cc1cccc([N-]S(=O)(=O)c2ccccc2)c1

>  <Energy>  (12) 
75.57046805764745

>  <Genealogy>  (12) 
Cc1ncsc1C(=O)[N-]Cc1cccc([N-]S(=O)(=O)c2ccccc2)c1 (protonated)
Cc1ncsc1C(=O)[N-]Cc1cccc([N-]S(=O)(=O)c2ccccc2)c1 (3D coordinates assigned)
Cc1ncsc1C(=O)[N-]Cc1cccc([N-]S(=O)(=O)c2ccccc2)c1 (optimized conformer: 75.57046805764745 kcal/mol)

>  <smiles>  (12) 
Cc1ncsc1C(=O)NCc1cccc(NS(=O)(=O)c2ccccc2)c1

>  <score_type>  (12) 
oracle

>  <origin>  (12) 
adg

>  <m_score__min__energy>  (12) 
-12.130000000000001

>  <m_primary>  (12) 
energy

$$$$
12:0
     RDKit          3D

 53 55  0  0  0  0  0  0  0  0999 V2000
   57.7580   32.4670   44.3850 C   0  0  0  0  0  0  0  0  0  0  0  0
   57.0770   31.2610   44.8800 N   0  0  0  0  0  0  0  0  0  0  0  0
   56.6780   30.3710   43.7790 C   0  0  0  0  0  0  0  0  0  0  0  0
   57.7970   30.5720   45.9770 C   0  0  0  0  0  0  0  0  0  0  0  0
   58.6040   29.3150   45.5680 C   0  0  0  0  0  0  0  0  0  0  0  0
   57.9690   28.0100   46.0050 C   0  0  0  0  0  0  0  0  0  0  0  0
   56.6590   27.7240   45.5790 C   0  0  0  0  0  0  0  0  0  0  0  0
   55.9830   26.5960   46.0530 C   0  0  0  0  0  0  0  0  0  0  0  0
   54.6880   26.3330   45.6290 O   0  0  0  0  0  0  0  0  0  0  0  0
   56.6060   25.7420   46.9620 C   0  0  0  0  0  0  0  0  0  0  0  0
   57.9180   25.9890   47.3660 C   0  0  0  0  0  0  0  0  0  0  0  0
   58.6310   27.0780   46.8510 C   0  0  0  0  0  0  0  0  0  0  0  0
   60.0160   27.1970   47.2100 N   0  0  0  0  0  0  0  0  0  0  0  0
   60.5460   27.1780   48.5430 C   0  0  0  0  0  0  0  0  0  0  0  0
   61.4460   26.3460   48.8280 O   0  0  0  0  0  0  0  0  0  0  0  0
   60.0420   28.0340   49.5760 N   0  0  0  0  0  0  0  0  0  0  0  0
   59.8460   29.4490   49.4660 C   0  0  0  0  0  0  0  0  0  0  0  0
   58.7260   30.0280   50.0690 C   0  0  0  0  0  0  0  0  0  0  0  0
   58.5100   31.4040   49.9770 C   0  0  0  0  0  0  0  0  0  0  0  0
   59.4280   32.2140   49.3040 C   0  0  0  0  0  0  0  0  0  0  0  0
   60.5780   31.6540   48.7190 C   0  0  0  0  0  0  0  0  0  0  0  0
   61.5570   32.4950   48.0710 N   0  0  0  0  0  0  0  0  0  0  0  0
   61.1540   33.7850   47.4990 C   0  0  0  0  0  0  0  0  0  0  0  0
   62.1080   34.1760   46.3670 C   0  0  0  0  0  0  0  0  0  0  0  0
   63.4550   34.1170   46.7980 O   0  0  0  0  0  0  0  0  0  0  0  0
   63.7960   32.7790   47.1070 C   0  0  0  0  0  0  0  0  0  0  0  0
   62.9880   32.2750   48.3050 C   0  0  0  0  0  0  0  0  0  0  0  0
   60.7800   30.2650   48.8060 C   0  0  0  0  0  0  0  0  0  0  0  0
   58.0994   33.0716   45.2382 H   0  0  0  0  0  0  0  0  0  0  0  0
   58.6240   32.1741   43.7733 H   0  0  0  0  0  0  0  0  0  0  0  0
   57.0599   33.0573   43.7733 H   0  0  0  0  0  0  0  0  0  0  0  0
   56.2610   29.4408   44.1922 H   0  0  0  0  0  0  0  0  0  0  0  0
   55.9178   30.8707   43.1607 H   0  0  0  0  0  0  0  0  0  0  0  0
   57.5569   30.1359   43.1607 H   0  0  0  0  0  0  0  0  0  0  0  0
   58.4976   31.2918   46.4253 H   0  0  0  0  0  0  0  0  0  0  0  0
   57.0187   30.2158   46.6679 H   0  0  0  0  0  0  0  0  0  0  0  0
   58.6979   29.3049   44.4721 H   0  0  0  0  0  0  0  0  0  0  0  0
   59.5784   29.3818   46.0741 H   0  0  0  0  0  0  0  0  0  0  0  0
   56.1609   28.3959   44.8646 H   0  0  0  0  0  0  0  0  0  0  0  0
   56.0625   24.8728   47.3609 H   0  0  0  0  0  0  0  0  0  0  0  0
   58.3974   25.3211   48.0969 H   0  0  0  0  0  0  0  0  0  0  0  0
   58.0119   29.3969   50.6183 H   0  0  0  0  0  0  0  0  0  0  0  0
   57.6155   31.8513   50.4351 H   0  0  0  0  0  0  0  0  0  0  0  0
   59.2502   33.2971   49.2311 H   0  0  0  0  0  0  0  0  0  0  0  0
   60.1313   33.7041   47.1021 H   0  0  0  0  0  0  0  0  0  0  0  0
   61.1894   34.5551   48.2837 H   0  0  0  0  0  0  0  0  0  0  0  0
   61.9691   33.4835   45.5237 H   0  0  0  0  0  0  0  0  0  0  0  0
   61.8828   35.2075   46.0584 H   0  0  0  0  0  0  0  0  0  0  0  0
   63.5839   32.1423   46.2354 H   0  0  0  0  0  0  0  0  0  0  0  0
   64.8656   32.7373   47.3605 H   0  0  0  0  0  0  0  0  0  0  0  0
   63.1737   31.1997   48.4436 H   0  0  0  0  0  0  0  0  0  0  0  0
   63.2960   32.8251   49.2064 H   0  0  0  0  0  0  0  0  0  0  0  0
   61.6758   29.8142   48.3540 H   0  0  0  0  0  0  0  0  0  0  0  0
  1  2  1  0
  2  3  1  0
  2  4  1  0
  4  5  1  0
  5  6  1  0
  6  7  2  0
  7  8  1  0
  8  9  1  0
  8 10  2  0
 10 11  1  0
 11 12  2  0
 12 13  1  0
 13 14  1  0
 14 15  2  0
 14 16  1  0
 16 17  1  0
 17 18  2  0
 18 19  1  0
 19 20  2  0
 20 21  1  0
 21 22  1  0
 22 23  1  0
 23 24  1  0
 24 25  1  0
 25 26  1  0
 26 27  1  0
 21 28  2  0
 12  6  1  0
 28 17  1  0
 27 22  1  0
  1 29  1  0
  1 30  1  0
  1 31  1  0
  3 32  1  0
  3 33  1  0
  3 34  1  0
  4 35  1  0
  4 36  1  0
  5 37  1  0
  5 38  1  0
  7 39  1  0
 10 40  1  0
 11 41  1  0
 18 42  1  0
 19 43  1  0
 20 44  1  0
 23 45  1  0
 23 46  1  0
 24 47  1  0
 24 48  1  0
 26 49  1  0
 26 50  1  0
 27 51  1  0
 27 52  1  0
 28 53  1  0
M  CHG  3   9  -1  13  -1  16  -1
M  END
>  <UniqueID>  (13) 
13

>  <SMILES>  (13) 
CN(C)CCc1cc([O-])ccc1[N-]C(=O)[N-]c1cccc(N2CCOCC2)c1

>  <Energy>  (13) 
72.35057644598021

>  <Genealogy>  (13) 
CN(C)CCc1cc([O-])ccc1[N-]C(=O)[N-]c1cccc(N2CCOCC2)c1 (protonated)
CN(C)CCc1cc([O-])ccc1[N-]C(=O)[N-]c1cccc(N2CCOCC2)c1 (3D coordinates assigned)
CN(C)CCc1cc([O-])ccc1[N-]C(=O)[N-]c1cccc(N2CCOCC2)c1 (nonaromatic ring conformer: 72.35057644598021 kcal/mol)

>  <smiles>  (13) 
CN(C)CCc1cc(O)ccc1NC(=O)Nc1cccc(N2CCOCC2)c1

>  <score_type>  (13) 
oracle

>  <origin>  (13) 
adg

>  <m_score__min__energy>  (13) 
-13.93

>  <m_primary>  (13) 
energy

$$$$
13:0
     RDKit          3D

 44 46  0  0  0  0  0  0  0  0999 V2000
   60.7600   28.6190   44.5380 C   0  0  0  0  0  0  0  0  0  0  0  0
   60.7570   28.2360   46.0170 C   0  0  0  0  0  0  0  0  0  0  0  0
   60.5410   26.7300   46.2530 C   0  0  0  0  0  0  0  0  0  0  0  0
   59.6560   26.4110   47.4710 C   0  0  0  0  0  0  0  0  0  0  0  0
   58.2470   26.0520   47.0850 C   0  0  0  0  0  0  0  0  0  0  0  0
   57.6520   24.9000   47.4660 N   0  0  0  0  0  0  0  0  0  0  0  0
   56.3870   24.9580   47.0730 N   0  0  0  0  0  0  0  0  0  0  0  0
   56.2320   26.1510   46.4760 C   0  0  0  0  0  0  0  0  0  0  0  0
   55.1410   26.5420   45.9800 O   0  0  0  0  0  0  0  0  0  0  0  0
   57.3690   26.8690   46.4600 N   0  0  0  0  0  0  0  0  0  0  0  0
   57.5620   28.1950   45.9410 C   0  0  0  0  0  0  0  0  0  0  0  0
   57.3040   28.4760   44.5910 C   0  0  0  0  0  0  0  0  0  0  0  0
   57.4780   29.7700   44.0940 C   0  0  0  0  0  0  0  0  0  0  0  0
   57.9180   30.8010   44.9370 C   0  0  0  0  0  0  0  0  0  0  0  0
   58.0820   32.1710   44.4080 C   0  0  0  0  0  0  0  0  0  0  0  0
   57.6890   32.4200   43.2370 O   0  0  0  0  0  0  0  0  0  0  0  0
   58.6860   33.2150   45.1930 N   0  0  0  0  0  0  0  0  0  0  0  0
   58.5570   34.6230   44.8530 C   0  0  0  0  0  0  0  0  0  0  0  0
   59.6330   35.3450   45.6520 C   0  0  0  0  0  0  0  0  0  0  0  0
   60.1030   34.3570   46.7160 C   0  0  0  0  0  0  0  0  0  0  0  0
   59.6850   32.9780   46.2230 C   0  0  0  0  0  0  0  0  0  0  0  0
   58.1420   30.5280   46.2960 C   0  0  0  0  0  0  0  0  0  0  0  0
   57.9660   29.2330   46.7930 C   0  0  0  0  0  0  0  0  0  0  0  0
   60.7686   29.7149   44.4430 H   0  0  0  0  0  0  0  0  0  0  0  0
   61.6549   28.2019   44.0530 H   0  0  0  0  0  0  0  0  0  0  0  0
   59.8587   28.2160   44.0530 H   0  0  0  0  0  0  0  0  0  0  0  0
   61.7245   28.5232   46.4545 H   0  0  0  0  0  0  0  0  0  0  0  0
   59.9164   28.7649   46.4900 H   0  0  0  0  0  0  0  0  0  0  0  0
   60.0649   26.3038   45.3576 H   0  0  0  0  0  0  0  0  0  0  0  0
   61.5303   26.2928   46.4535 H   0  0  0  0  0  0  0  0  0  0  0  0
   60.0986   25.5640   48.0157 H   0  0  0  0  0  0  0  0  0  0  0  0
   59.6099   27.3157   48.0951 H   0  0  0  0  0  0  0  0  0  0  0  0
   56.9630   27.6735   43.9204 H   0  0  0  0  0  0  0  0  0  0  0  0
   57.2686   29.9816   43.0350 H   0  0  0  0  0  0  0  0  0  0  0  0
   58.7159   34.7725   43.7748 H   0  0  0  0  0  0  0  0  0  0  0  0
   57.5531   35.0054   45.0895 H   0  0  0  0  0  0  0  0  0  0  0  0
   60.4702   35.6277   44.9969 H   0  0  0  0  0  0  0  0  0  0  0  0
   59.2456   36.2697   46.1047 H   0  0  0  0  0  0  0  0  0  0  0  0
   61.1961   34.4076   46.8282 H   0  0  0  0  0  0  0  0  0  0  0  0
   59.6633   34.5838   47.6984 H   0  0  0  0  0  0  0  0  0  0  0  0
   60.5493   32.4424   45.8032 H   0  0  0  0  0  0  0  0  0  0  0  0
   59.2871   32.3580   47.0398 H   0  0  0  0  0  0  0  0  0  0  0  0
   58.4572   31.3362   46.9724 H   0  0  0  0  0  0  0  0  0  0  0  0
   58.1455   29.0272   47.8586 H   0  0  0  0  0  0  0  0  0  0  0  0
  1  2  1  0
  2  3  1  0
  3  4  1  0
  4  5  1  0
  5  6  2  0
  6  7  1  0
  7  8  1  0
  8  9  2  0
  8 10  1  0
 10 11  1  0
 11 12  2  0
 12 13  1  0
 13 14  2  0
 14 15  1  0
 15 16  2  0
 15 17  1  0
 17 18  1  0
 18 19  1  0
 19 20  1  0
 20 21  1  0
 14 22  1  0
 22 23  2  0
 10  5  1  0
 23 11  1  0
 21 17  1  0
  1 24  1  0
  1 25  1  0
  1 26  1  0
  2 27  1  0
  2 28  1  0
  3 29  1  0
  3 30  1  0
  4 31  1  0
  4 32  1  0
 12 33  1  0
 13 34  1  0
 18 35  1  0
 18 36  1  0
 19 37  1  0
 19 38  1  0
 20 39  1  0
 20 40  1  0
 21 41  1  0
 21 42  1  0
 22 43  1  0
 23 44  1  0
M  CHG  1   7  -1
M  END
>  <UniqueID>  (14) 
14

>  <SMILES>  (14) 
CCCCc1n[n-]c(=O)n1-c1ccc(C(=O)N2CCCC2)cc1

>  <Energy>  (14) 
86.06548786607469

>  <Genealogy>  (14) 
CCCCc1n[n-]c(=O)n1-c1ccc(C(=O)N2CCCC2)cc1 (protonated)
CCCCc1n[n-]c(=O)n1-c1ccc(C(=O)N2CCCC2)cc1 (3D coordinates assigned)
CCCCc1n[n-]c(=O)n1-c1ccc(C(=O)N2CCCC2)cc1 (nonaromatic ring conformer: 86.06548786607469 kcal/mol)

>  <smiles>  (14) 
CCCCc1n[nH]c(=O)n1-c1ccc(C(=O)N2CCCC2)cc1

>  <score_type>  (14) 
oracle

>  <origin>  (14) 
adg

>  <m_score__min__energy>  (14) 
-9.3499999999999996

>  <m_primary>  (14) 
energy

$$$$
14:0
     RDKit          3D

 57 60  0  0  0  0  0  0  0  0999 V2000
   54.8390   26.2370   45.9790 N   0  0  0  0  0  0  0  0  0  0  0  0
   56.0600   25.7430   46.5270 C   0  0  0  0  0  0  0  0  0  0  0  0
   56.0310   24.7680   47.3310 O   0  0  0  0  0  0  0  0  0  0  0  0
   57.3440   26.3680   46.1450 C   0  0  0  0  0  0  0  0  0  0  0  0
   58.3180   26.6870   47.1060 C   0  0  0  0  0  0  0  0  0  0  0  0
   59.5320   27.2580   46.7000 C   0  0  0  0  0  0  0  0  0  0  0  0
   60.6020   27.5780   47.7110 C   0  0  0  0  0  0  0  0  0  0  0  0
   60.2380   28.8100   48.5050 C   0  0  0  0  0  0  0  0  0  0  0  0
   60.4870   30.0880   47.9800 C   0  0  0  0  0  0  0  0  0  0  0  0
   60.1500   31.2300   48.7130 C   0  0  0  0  0  0  0  0  0  0  0  0
   59.5690   31.1140   49.9900 C   0  0  0  0  0  0  0  0  0  0  0  0
   59.2250   32.2770   50.7580 N   0  0  0  0  0  0  0  0  0  0  0  0
   60.0400   33.4530   50.8600 C   0  0  0  0  0  0  0  0  0  0  0  0
   60.6000   33.7350   51.9560 O   0  0  0  0  0  0  0  0  0  0  0  0
   60.3980   34.2020   49.6980 N   0  0  0  0  0  0  0  0  0  0  0  0
   61.4620   33.9290   48.7690 C   0  0  0  0  0  0  0  0  0  0  0  0
   62.7060   33.5560   49.2950 C   0  0  0  0  0  0  0  0  0  0  0  0
   63.7870   33.2780   48.4530 C   0  0  0  0  0  0  0  0  0  0  0  0
   63.6380   33.3790   47.0700 C   0  0  0  0  0  0  0  0  0  0  0  0
   62.4140   33.7770   46.5280 C   0  0  0  0  0  0  0  0  0  0  0  0
   61.3160   34.0830   47.3640 C   0  0  0  0  0  0  0  0  0  0  0  0
   60.0980   34.5650   46.8460 O   0  0  0  0  0  0  0  0  0  0  0  0
   58.9550   33.7660   46.5270 C   0  0  0  0  0  0  0  0  0  0  0  0
   59.1410   33.0770   45.1710 C   0  0  0  0  0  0  0  0  0  0  0  0
   58.2550   31.9040   45.0660 N   0  0  0  0  0  0  0  0  0  0  0  0
   58.2280   30.9980   46.0920 C   0  0  0  0  0  0  0  0  0  0  0  0
   57.3830   29.8900   46.0370 C   0  0  0  0  0  0  0  0  0  0  0  0
   56.5590   29.7370   44.9240 C   0  0  0  0  0  0  0  0  0  0  0  0
   55.7840   28.7480   44.8400 O   0  0  0  0  0  0  0  0  0  0  0  0
   56.5890   30.6590   43.9340 N   0  0  0  0  0  0  0  0  0  0  0  0
   57.4150   31.7350   43.9930 C   0  0  0  0  0  0  0  0  0  0  0  0
   57.3970   32.5720   43.0500 O   0  0  0  0  0  0  0  0  0  0  0  0
   59.3590   29.8360   50.5350 C   0  0  0  0  0  0  0  0  0  0  0  0
   58.8290   29.7060   51.7740 F   0  0  0  0  0  0  0  0  0  0  0  0
   59.6750   28.6900   49.7910 C   0  0  0  0  0  0  0  0  0  0  0  0
   59.7540   27.4920   45.3350 C   0  0  0  0  0  0  0  0  0  0  0  0
   58.7600   27.1680   44.4100 C   0  0  0  0  0  0  0  0  0  0  0  0
   57.5930   26.6200   44.8320 N   0  0  0  0  0  0  0  0  0  0  0  0
   54.8270   26.7460   45.0640 H   0  0  0  0  0  0  0  0  0  0  0  0
   58.1288   26.4897   48.1715 H   0  0  0  0  0  0  0  0  0  0  0  0
   60.7152   26.7265   48.3981 H   0  0  0  0  0  0  0  0  0  0  0  0
   61.5454   27.7679   47.1780 H   0  0  0  0  0  0  0  0  0  0  0  0
   60.9494   30.1914   46.9873 H   0  0  0  0  0  0  0  0  0  0  0  0
   60.3403   32.2268   48.2885 H   0  0  0  0  0  0  0  0  0  0  0  0
   62.8338   33.4809   50.3850 H   0  0  0  0  0  0  0  0  0  0  0  0
   64.7552   32.9796   48.8814 H   0  0  0  0  0  0  0  0  0  0  0  0
   64.4838   33.1454   46.4067 H   0  0  0  0  0  0  0  0  0  0  0  0
   62.3029   33.8534   45.4363 H   0  0  0  0  0  0  0  0  0  0  0  0
   58.8197   33.0010   47.3058 H   0  0  0  0  0  0  0  0  0  0  0  0
   58.0699   34.4171   46.4759 H   0  0  0  0  0  0  0  0  0  0  0  0
   58.8988   33.7875   44.3670 H   0  0  0  0  0  0  0  0  0  0  0  0
   60.1857   32.7450   45.0793 H   0  0  0  0  0  0  0  0  0  0  0  0
   58.8782   31.1452   46.9670 H   0  0  0  0  0  0  0  0  0  0  0  0
   57.3674   29.1535   46.8539 H   0  0  0  0  0  0  0  0  0  0  0  0
   59.4824   27.6928   50.2134 H   0  0  0  0  0  0  0  0  0  0  0  0
   60.7052   27.9280   44.9956 H   0  0  0  0  0  0  0  0  0  0  0  0
   58.9230   27.3571   43.3387 H   0  0  0  0  0  0  0  0  0  0  0  0
  1  2  1  0
  2  3  2  0
  2  4  1  0
  4  5  2  0
  5  6  1  0
  6  7  1  0
  7  8  1  0
  8  9  2  0
  9 10  1  0
 10 11  2  0
 11 12  1  0
 12 13  1  0
 13 14  2  0
 13 15  1  0
 15 16  1  0
 16 17  2  0
 17 18  1  0
 18 19  2  0
 19 20  1  0
 20 21  2  0
 21 22  1  0
 22 23  1  0
 23 24  1  0
 24 25  1  0
 25 26  1  0
 26 27  2  0
 27 28  1  0
 28 29  2  0
 28 30  1  0
 30 31  1  0
 31 32  2  0
 11 33  1  0
 33 34  1  0
 33 35  2  0
  6 36  2  0
 36 37  1  0
 37 38  2  0
 38  4  1  0
 35  8  1  0
 21 16  1  0
 31 25  1  0
  1 39  1  0
  5 40  1  0
  7 41  1  0
  7 42  1  0
  9 43  1  0
 10 44  1  0
 17 45  1  0
 18 46  1  0
 19 47  1  0
 20 48  1  0
 23 49  1  0
 23 50  1  0
 24 51  1  0
 24 52  1  0
 26 53  1  0
 27 54  1  0
 35 55  1  0
 36 56  1  0
 37 57  1  0
M  CHG  4   1  -1  12  -1  15  -1  30  -1
M  END
>  <UniqueID>  (15) 
15

>  <SMILES>  (15) 
[NH-]C(=O)c1cc(Cc2ccc([N-]C(=O)[N-]c3ccccc3OCCn3ccc(=O)[n-]c3=O)c(F)c2)ccn1

>  <Energy>  (15) 
70.73567828117847

>  <Genealogy>  (15) 
[NH-]C(=O)c1cc(Cc2ccc([N-]C(=O)[N-]c3ccccc3OCCn3ccc(=O)[n-]c3=O)c(F)c2)ccn1 (protonated)
[NH-]C(=O)c1cc(Cc2ccc([N-]C(=O)[N-]c3ccccc3OCCn3ccc(=O)[n-]c3=O)c(F)c2)ccn1 (3D coordinates assigned)
[NH-]C(=O)c1cc(Cc2ccc([N-]C(=O)[N-]c3ccccc3OCCn3ccc(=O)[n-]c3=O)c(F)c2)ccn1 (optimized conformer: 70.73567828117847 kcal/mol)

>  <smiles>  (15) 
NC(=O)c1cc(Cc2ccc(NC(=O)Nc3ccccc3OCCn3ccc(=O)[nH]c3=O)c(F)c2)ccn1

>  <score_type>  (15) 
oracle

>  <origin>  (15) 
adg

>  <m_score__min__energy>  (15) 
-16.399999999999999

>  <m_primary>  (15) 
energy

$$$$
15:0
     RDKit          3D

 48 51  0  0  0  0  0  0  0  0999 V2000
   59.5320   28.6210   45.9270 O   0  0  0  0  0  0  0  0  0  0  0  0
   58.2780   28.7260   46.0230 C   0  0  0  0  0  0  0  0  0  0  0  0
   57.6520   30.0220   45.9970 N   0  0  0  0  0  0  0  0  0  0  0  0
   58.3700   31.2630   45.9030 C   0  0  0  0  0  0  0  0  0  0  0  0
   57.9270   32.2450   45.0060 C   0  0  0  0  0  0  0  0  0  0  0  0
   58.5930   33.4680   44.9090 C   0  0  0  0  0  0  0  0  0  0  0  0
   59.7000   33.7300   45.7190 C   0  0  0  0  0  0  0  0  0  0  0  0
   60.1430   32.7720   46.6430 C   0  0  0  0  0  0  0  0  0  0  0  0
   61.2770   33.0520   47.4850 N   0  0  0  0  0  0  0  0  0  0  0  0
   62.6090   32.5610   47.1100 C   0  0  0  0  0  0  0  0  0  0  0  0
   63.3640   32.1010   48.3560 C   0  0  0  0  0  0  0  0  0  0  0  0
   63.2910   33.1360   49.3940 N   0  0  0  0  0  0  0  0  0  0  0  0
   64.4370   33.4080   50.2210 C   0  0  0  0  0  0  0  0  0  0  0  0
   64.2970   34.1720   51.3930 C   0  0  0  0  0  0  0  0  0  0  0  0
   65.4070   34.4370   52.2010 C   0  0  0  0  0  0  0  0  0  0  0  0
   66.6640   33.9420   51.8470 C   0  0  0  0  0  0  0  0  0  0  0  0
   66.8140   33.1790   50.6860 C   0  0  0  0  0  0  0  0  0  0  0  0
   65.7060   32.9100   49.8760 C   0  0  0  0  0  0  0  0  0  0  0  0
   61.9640   33.6360   49.7720 C   0  0  0  0  0  0  0  0  0  0  0  0
   61.1940   34.0820   48.5270 C   0  0  0  0  0  0  0  0  0  0  0  0
   59.4690   31.5430   46.7360 C   0  0  0  0  0  0  0  0  0  0  0  0
   57.4620   27.4980   46.1520 C   0  0  0  0  0  0  0  0  0  0  0  0
   56.1180   27.4650   45.7400 C   0  0  0  0  0  0  0  0  0  0  0  0
   55.5170   28.5800   45.1690 O   0  0  0  0  0  0  0  0  0  0  0  0
   55.3960   26.3220   45.8710 N   0  0  0  0  0  0  0  0  0  0  0  0
   55.9510   25.1950   46.3850 C   0  0  0  0  0  0  0  0  0  0  0  0
   55.2610   24.1500   46.4960 O   0  0  0  0  0  0  0  0  0  0  0  0
   57.2510   25.1950   46.7750 N   0  0  0  0  0  0  0  0  0  0  0  0
   58.0170   26.3120   46.6690 C   0  0  0  0  0  0  0  0  0  0  0  0
   59.2170   26.2740   47.0510 O   0  0  0  0  0  0  0  0  0  0  0  0
   56.6090   30.0700   45.9910 H   0  0  0  0  0  0  0  0  0  0  0  0
   57.0480   32.0504   44.3739 H   0  0  0  0  0  0  0  0  0  0  0  0
   58.2450   34.2271   44.1929 H   0  0  0  0  0  0  0  0  0  0  0  0
   60.2268   34.6917   45.6321 H   0  0  0  0  0  0  0  0  0  0  0  0
   62.5034   31.7152   46.4146 H   0  0  0  0  0  0  0  0  0  0  0  0
   63.1709   33.3731   46.6255 H   0  0  0  0  0  0  0  0  0  0  0  0
   62.9120   31.1723   48.7344 H   0  0  0  0  0  0  0  0  0  0  0  0
   64.4177   31.9222   48.0959 H   0  0  0  0  0  0  0  0  0  0  0  0
   63.3087   34.5635   51.6759 H   0  0  0  0  0  0  0  0  0  0  0  0
   65.2900   35.0359   53.1162 H   0  0  0  0  0  0  0  0  0  0  0  0
   67.5367   34.1529   52.4826 H   0  0  0  0  0  0  0  0  0  0  0  0
   67.8047   32.7895   50.4088 H   0  0  0  0  0  0  0  0  0  0  0  0
   65.8278   32.3060   48.9648 H   0  0  0  0  0  0  0  0  0  0  0  0
   61.4045   32.8355   50.2781 H   0  0  0  0  0  0  0  0  0  0  0  0
   62.0830   34.4956   50.4480 H   0  0  0  0  0  0  0  0  0  0  0  0
   60.1392   34.2472   48.7917 H   0  0  0  0  0  0  0  0  0  0  0  0
   61.6356   35.0148   48.1463 H   0  0  0  0  0  0  0  0  0  0  0  0
   59.8036   30.7923   47.4671 H   0  0  0  0  0  0  0  0  0  0  0  0
  1  2  2  0
  2  3  1  0
  3  4  1  0
  4  5  2  0
  5  6  1  0
  6  7  2  0
  7  8  1  0
  8  9  1  0
  9 10  1  0
 10 11  1  0
 11 12  1  0
 12 13  1  0
 13 14  2  0
 14 15  1  0
 15 16  2  0
 16 17  1  0
 17 18  2  0
 12 19  1  0
 19 20  1  0
  8 21  2  0
  2 22  1  0
 22 23  2  0
 23 24  1  0
 23 25  1  0
 25 26  1  0
 26 27  2  0
 26 28  1  0
 28 29  1  0
 29 30  2  0
 21  4  1  0
 29 22  1  0
 20  9  1  0
 18 13  1  0
  3 31  1  0
  5 32  1  0
  6 33  1  0
  7 34  1  0
 10 35  1  0
 10 36  1  0
 11 37  1  0
 11 38  1  0
 14 39  1  0
 15 40  1  0
 16 41  1  0
 17 42  1  0
 18 43  1  0
 19 44  1  0
 19 45  1  0
 20 46  1  0
 20 47  1  0
 21 48  1  0
M  CHG  3  24  -1  25  -1  28  -1
M  END
>  <UniqueID>  (16) 
16

>  <SMILES>  (16) 
O=C(Nc1cccc(N2CCN(c3ccccc3)CC2)c1)c1c([O-])[n-]c(=O)[n-]c1=O

>  <Energy>  (16) 
70.25262436731428

>  <Genealogy>  (16) 
O=C(Nc1cccc(N2CCN(c3ccccc3)CC2)c1)c1c([O-])[n-]c(=O)[n-]c1=O (protonated)
O=C(Nc1cccc(N2CCN(c3ccccc3)CC2)c1)c1c([O-])[n-]c(=O)[n-]c1=O (3D coordinates assigned)
O=C(Nc1cccc(N2CCN(c3ccccc3)CC2)c1)c1c([O-])[n-]c(=O)[n-]c1=O (nonaromatic ring conformer: 70.25262436731428 kcal/mol)

>  <smiles>  (16) 
O=C(Nc1cccc(N2CCN(c3ccccc3)CC2)c1)c1c(O)[nH]c(=O)[nH]c1=O

>  <score_type>  (16) 
oracle

>  <origin>  (16) 
adg

>  <m_score__min__energy>  (16) 
-15.76

>  <m_primary>  (16) 
energy

$$$$
16:0
     RDKit          3D

 62 65  0  0  0  0  0  0  0  0999 V2000
   58.4370   25.0590   47.7120 H   0  0  0  0  0  0  0  0  0  0  0  0
   57.5830   25.4360   47.2440 N   0  0  0  0  0  0  0  0  0  0  0  0
   57.4870   26.6230   46.7300 C   0  0  0  0  0  0  0  0  0  0  0  0
   56.4490   26.8780   45.8880 N   0  0  0  0  0  0  0  0  0  0  0  0
   56.2920   28.0710   45.2590 C   0  0  0  0  0  0  0  0  0  0  0  0
   55.4332   28.2286   44.5899 H   0  0  0  0  0  0  0  0  0  0  0  0
   57.2210   29.1040   45.4590 C   0  0  0  0  0  0  0  0  0  0  0  0
   57.0540   30.4140   44.7900 C   0  0  0  0  0  0  0  0  0  0  0  0
   55.9000   30.8350   44.4980 O   0  0  0  0  0  0  0  0  0  0  0  0
   58.1980   31.2100   44.4740 N   0  0  0  0  0  0  0  0  0  0  0  0
   58.7680   32.1980   45.3870 C   0  0  1  0  0  0  0  0  0  0  0  0
   59.8471   31.9868   45.4188 H   0  0  0  0  0  0  0  0  0  0  0  0
   58.4650   33.6100   44.9120 C   0  0  0  0  0  0  0  0  0  0  0  0
   57.5337   33.6184   44.3267 H   0  0  0  0  0  0  0  0  0  0  0  0
   59.2750   33.9868   44.2702 H   0  0  0  0  0  0  0  0  0  0  0  0
   58.3150   34.4510   46.1070 N   0  0  0  0  0  0  0  0  0  0  0  0
   59.6140   35.0200   46.5370 C   0  0  0  0  0  0  0  0  0  0  0  0
   60.4078   34.6494   45.8717 H   0  0  0  0  0  0  0  0  0  0  0  0
   59.5521   36.1171   46.4860 H   0  0  0  0  0  0  0  0  0  0  0  0
   59.9370   34.6130   47.9800 C   0  0  0  0  0  0  0  0  0  0  0  0
   59.8897   35.5040   48.6233 H   0  0  0  0  0  0  0  0  0  0  0  0
   59.2012   33.8619   48.3032 H   0  0  0  0  0  0  0  0  0  0  0  0
   61.3130   34.0070   48.0800 C   0  0  0  0  0  0  0  0  0  0  0  0
   62.0960   34.2080   49.2290 C   0  0  0  0  0  0  0  0  0  0  0  0
   61.7164   34.8382   50.0468 H   0  0  0  0  0  0  0  0  0  0  0  0
   63.3570   33.6100   49.3380 C   0  0  0  0  0  0  0  0  0  0  0  0
   63.9700   33.7802   50.2354 H   0  0  0  0  0  0  0  0  0  0  0  0
   63.8380   32.7970   48.3080 C   0  0  0  0  0  0  0  0  0  0  0  0
   64.8273   32.3244   48.3971 H   0  0  0  0  0  0  0  0  0  0  0  0
   63.0620   32.5840   47.1640 C   0  0  0  0  0  0  0  0  0  0  0  0
   63.4418   31.9447   46.3534 H   0  0  0  0  0  0  0  0  0  0  0  0
   61.8020   33.1840   47.0500 C   0  0  0  0  0  0  0  0  0  0  0  0
   61.1922   33.0108   46.1510 H   0  0  0  0  0  0  0  0  0  0  0  0
   57.7570   33.5500   47.1320 C   0  0  0  0  0  0  0  0  0  0  0  0
   56.6619   33.6506   47.1587 H   0  0  0  0  0  0  0  0  0  0  0  0
   58.1603   33.8083   48.1223 H   0  0  0  0  0  0  0  0  0  0  0  0
   58.1350   32.1130   46.7690 C   0  0  0  0  0  0  0  0  0  0  0  0
   57.2398   31.4743   46.7436 H   0  0  0  0  0  0  0  0  0  0  0  0
   58.8214   31.6719   47.5068 H   0  0  0  0  0  0  0  0  0  0  0  0
   58.3050   28.8690   46.3170 C   0  0  0  0  0  0  0  0  0  0  0  0
   59.0521   29.6601   46.4780 H   0  0  0  0  0  0  0  0  0  0  0  0
   58.4480   27.6360   46.9730 C   0  0  0  0  0  0  0  0  0  0  0  0
   59.5980   27.4540   47.8810 C   0  0  0  0  0  0  0  0  0  0  0  0
   60.2690   26.3870   47.8310 O   0  0  0  0  0  0  0  0  0  0  0  0
   59.9870   28.5040   48.7730 N   0  0  0  0  0  0  0  0  0  0  0  0
   60.4650   29.7960   48.2990 C   0  0  0  0  0  0  0  0  0  0  0  0
   61.1877   29.6414   47.4842 H   0  0  0  0  0  0  0  0  0  0  0  0
   59.6125   30.3860   47.9315 H   0  0  0  0  0  0  0  0  0  0  0  0
   61.1430   30.5480   49.4420 C   0  0  0  0  0  0  0  0  0  0  0  0
   61.6428   29.8261   50.1045 H   0  0  0  0  0  0  0  0  0  0  0  0
   61.8797   31.2479   49.0209 H   0  0  0  0  0  0  0  0  0  0  0  0
   60.1270   31.3270   50.2340 C   0  0  0  0  0  0  0  0  0  0  0  0
   58.7550   31.1750   49.9710 C   0  0  0  0  0  0  0  0  0  0  0  0
   58.4204   30.4612   49.2039 H   0  0  0  0  0  0  0  0  0  0  0  0
   57.8120   31.9280   50.6810 C   0  0  0  0  0  0  0  0  0  0  0  0
   56.7385   31.7982   50.4790 H   0  0  0  0  0  0  0  0  0  0  0  0
   58.2370   32.8460   51.6480 C   0  0  0  0  0  0  0  0  0  0  0  0
   57.4969   33.4366   52.2079 H   0  0  0  0  0  0  0  0  0  0  0  0
   59.6010   33.0130   51.9030 C   0  0  0  0  0  0  0  0  0  0  0  0
   59.9325   33.7395   52.6595 H   0  0  0  0  0  0  0  0  0  0  0  0
   60.5460   32.2590   51.1990 C   0  0  0  0  0  0  0  0  0  0  0  0
   61.6186   32.3958   51.4010 H   0  0  0  0  0  0  0  0  0  0  0  0
  1  2  1  0
  2  3  2  0
  3  4  1  0
  4  5  1  0
  5  6  1  0
  5  7  2  0
  7  8  1  0
  8  9  2  0
  8 10  1  0
 10 11  1  0
 11 12  1  1
 11 13  1  0
 13 14  1  0
 13 15  1  0
 13 16  1  0
 16 17  1  0
 17 18  1  0
 17 19  1  0
 17 20  1  0
 20 21  1  0
 20 22  1  0
 20 23  1  0
 23 24  2  0
 24 25  1  0
 24 26  1  0
 26 27  1  0
 26 28  2  0
 28 29  1  0
 28 30  1  0
 30 31  1  0
 30 32  2  0
 32 33  1  0
 16 34  1  0
 34 35  1  0
 34 36  1  0
 34 37  1  0
 37 38  1  0
 37 39  1  0
  7 40  1  0
 40 41  1  0
 40 42  2  0
 42 43  1  0
 43 44  2  0
 43 45  1  0
 45 46  1  0
 46 47  1  0
 46 48  1  0
 46 49  1  0
 49 50  1  0
 49 51  1  0
 49 52  1  0
 52 53  2  0
 53 54  1  0
 53 55  1  0
 55 56  1  0
 55 57  2  0
 57 58  1  0
 57 59  1  0
 59 60  1  0
 59 61  2  0
 61 62  1  0
 42  3  1  0
 61 52  1  0
 37 11  1  0
 32 23  1  0
M  CHG  3   4  -1  10  -1  45  -1
M  END
>  <UniqueID>  (17) 
17

>  <SMILES>  (17) 
[H]/N=c1/[n-]cc(C(=O)[N-][C@@H]2CCN(CCc3ccccc3)C2)cc1C(=O)[N-]CCc1ccccc1

>  <Energy>  (17) 
69.80494850611692

>  <Genealogy>  (17) 
N=c1[n-]cc(C(=O)[N-]C2CCN(CCc3ccccc3)C2)cc1C(=O)[N-]CCc1ccccc1 (protonated)
N=c1[n-]cc(C(=O)[N-][C@@H]2CCN(CCc3ccccc3)C2)cc1C(=O)[N-]CCc1ccccc1 (chirality)
[H]/N=c1/[n-]cc(C(=O)[N-][C@@H]2CCN(CCc3ccccc3)C2)cc1C(=O)[N-]CCc1ccccc1 (cis-trans isomerization)
[H]/N=c1/[n-]cc(C(=O)[N-][C@@H]2CCN(CCc3ccccc3)C2)cc1C(=O)[N-]CCc1ccccc1 (3D coordinates assigned)
[H]/N=c1/[n-]cc(C(=O)[N-][C@@H]2CCN(CCc3ccccc3)C2)cc1C(=O)[N-]CCc1ccccc1 (nonaromatic ring conformer: 69.80494850611692 kcal/mol)

>  <smiles>  (17) 
N=c1[nH]cc(C(=O)NC2CCN(CCc3ccccc3)C2)cc1C(=O)NCCc1ccccc1

>  <score_type>  (17) 
oracle

>  <origin>  (17) 
adg

>  <m_score__min__energy>  (17) 
-14.380000000000001

>  <m_primary>  (17) 
energy

$$$$
17:0
     RDKit          3D

 40 40  0  0  0  0  0  0  0  0999 V2000
   56.6393   28.1648   45.6254 H   0  0  0  0  0  0  0  0  0  0  0  0
   57.1320   28.8730   44.9430 C   0  0  0  0  0  0  0  0  0  0  0  0
   56.2730   29.7080   44.0910 C   0  0  0  0  0  0  0  0  0  0  0  0
   55.8470   30.8070   44.5360 O   0  0  0  0  0  0  0  0  0  0  0  0
   55.9990   29.3360   42.7400 N   0  0  0  0  0  0  0  0  0  0  0  0
   56.4530   28.4980   42.3100 H   0  0  0  0  0  0  0  0  0  0  0  0
   55.4250   29.9540   42.1290 H   0  0  0  0  0  0  0  0  0  0  0  0
   58.4810   28.9120   44.9490 C   0  0  0  0  0  0  0  0  0  0  0  0
   59.2310   30.0400   45.5710 C   0  0  0  0  0  0  0  0  0  0  0  0
   60.3288   30.0417   45.5017 H   0  0  0  0  0  0  0  0  0  0  0  0
   58.6300   31.0510   46.2100 C   0  0  0  0  0  0  0  0  0  0  0  0
   57.7473   30.8480   46.8343 H   0  0  0  0  0  0  0  0  0  0  0  0
   59.1350   32.4410   46.0900 C   0  0  0  0  0  0  0  0  0  0  0  0
   60.1750   32.8510   46.8680 C   0  0  0  0  0  0  0  0  0  0  0  0
   60.9150   31.8750   47.7520 C   0  0  0  0  0  0  0  0  0  0  0  0
   60.7279   32.1217   48.8075 H   0  0  0  0  0  0  0  0  0  0  0  0
   60.5623   30.8536   47.5461 H   0  0  0  0  0  0  0  0  0  0  0  0
   61.9937   31.9389   47.5461 H   0  0  0  0  0  0  0  0  0  0  0  0
   60.7440   34.2490   46.7780 C   0  0  0  0  0  0  0  0  0  0  0  0
   61.6385   34.2226   46.1383 H   0  0  0  0  0  0  0  0  0  0  0  0
   60.9800   34.5741   47.8020 H   0  0  0  0  0  0  0  0  0  0  0  0
   59.7610   35.2570   46.1960 C   0  0  0  0  0  0  0  0  0  0  0  0
   60.2859   36.2008   45.9871 H   0  0  0  0  0  0  0  0  0  0  0  0
   58.9521   35.4362   46.9196 H   0  0  0  0  0  0  0  0  0  0  0  0
   59.1690   34.7100   44.9030 C   0  0  0  0  0  0  0  0  0  0  0  0
   59.9848   34.5144   44.1916 H   0  0  0  0  0  0  0  0  0  0  0  0
   58.4688   35.4575   44.5020 H   0  0  0  0  0  0  0  0  0  0  0  0
   58.3850   33.3910   45.1460 C   0  0  0  0  0  0  0  0  0  0  0  0
   58.1740   32.7170   43.7730 C   0  0  0  0  0  0  0  0  0  0  0  0
   57.8484   31.6768   43.9213 H   0  0  0  0  0  0  0  0  0  0  0  0
   57.4045   33.2653   43.2097 H   0  0  0  0  0  0  0  0  0  0  0  0
   59.1188   32.7287   43.2097 H   0  0  0  0  0  0  0  0  0  0  0  0
   57.0010   33.7100   45.7530 C   0  0  0  0  0  0  0  0  0  0  0  0
   57.0696   33.6942   46.8507 H   0  0  0  0  0  0  0  0  0  0  0  0
   56.6756   34.7067   45.4203 H   0  0  0  0  0  0  0  0  0  0  0  0
   56.2721   32.9563   45.4203 H   0  0  0  0  0  0  0  0  0  0  0  0
   59.2270   27.8400   44.1960 C   0  0  0  0  0  0  0  0  0  0  0  0
   59.7043   27.1541   44.9113 H   0  0  0  0  0  0  0  0  0  0  0  0
   58.5233   27.2788   43.5636 H   0  0  0  0  0  0  0  0  0  0  0  0
   59.9977   28.3049   43.5636 H   0  0  0  0  0  0  0  0  0  0  0  0
  1  2  1  0
  2  3  1  0
  3  4  2  0
  3  5  1  0
  5  6  1  0
  5  7  1  0
  2  8  2  0
  8  9  1  0
  9 10  1  0
  9 11  2  0
 11 12  1  0
 11 13  1  0
 13 14  2  0
 14 15  1  0
 15 16  1  0
 15 17  1  0
 15 18  1  0
 14 19  1  0
 19 20  1  0
 19 21  1  0
 19 22  1  0
 22 23  1  0
 22 24  1  0
 22 25  1  0
 25 26  1  0
 25 27  1  0
 25 28  1  0
 28 29  1  0
 29 30  1  0
 29 31  1  0
 29 32  1  0
 28 33  1  0
 33 34  1  0
 33 35  1  0
 33 36  1  0
  8 37  1  0
 37 38  1  0
 37 39  1  0
 37 40  1  0
 28 13  1  0
M  END
>  <UniqueID>  (18) 
18

>  <SMILES>  (18) 
CC1=C(/C=C/C(C)=C\C(N)=O)C(C)(C)CCC1

>  <Energy>  (18) 
46.824698679240214

>  <Genealogy>  (18) 
CC1=C(/C=C/C(C)=C\C(N)=O)C(C)(C)CCC1 (cis-trans isomerization)
CC1=C(/C=C/C(C)=C\C(N)=O)C(C)(C)CCC1 (3D coordinates assigned)
CC1=C(/C=C/C(C)=C\C(N)=O)C(C)(C)CCC1 (nonaromatic ring conformer: 46.824698679240214 kcal/mol)

>  <smiles>  (18) 
CC(C=CC1=C(C)CCCC1(C)C)=CC(N)=O

>  <score_type>  (18) 
oracle

>  <origin>  (18) 
adg

>  <m_score__min__energy>  (18) 
-7.9299999999999997

>  <m_primary>  (18) 
energy

$$$$
18:0
     RDKit          3D

 58 61  0  0  0  0  0  0  0  0999 V2000
   54.8280   29.3360   44.1350 N   0  0  0  0  0  0  0  0  0  0  0  0
   56.1810   29.6590   43.8220 C   0  0  0  0  0  0  0  0  0  0  0  0
   56.4370   30.2240   42.7230 O   0  0  0  0  0  0  0  0  0  0  0  0
   57.2730   29.3280   44.7670 C   0  0  0  0  0  0  0  0  0  0  0  0
   57.0110   28.5690   45.9200 C   0  0  0  0  0  0  0  0  0  0  0  0
   58.0370   28.2740   46.8230 C   0  0  0  0  0  0  0  0  0  0  0  0
   59.3470   28.7330   46.6010 C   0  0  0  0  0  0  0  0  0  0  0  0
   60.4070   28.4350   47.6060 C   0  0  0  0  0  0  0  0  0  0  0  0
   60.6790   27.2210   47.8300 O   0  0  0  0  0  0  0  0  0  0  0  0
   61.0750   29.4970   48.3560 N   0  0  2  0  0  0  0  0  0  0  0  0
   61.2600   29.1760   49.7890 C   0  0  0  0  0  0  0  0  0  0  0  0
   59.9490   29.1190   50.5960 C   0  0  0  0  0  0  0  0  0  0  0  0
   58.8860   30.0640   50.1080 C   0  0  0  0  0  0  0  0  0  0  0  0
   57.8230   30.1020   50.7090 O   0  0  0  0  0  0  0  0  0  0  0  0
   59.0630   30.9660   48.9120 C   0  0  0  0  0  0  0  0  0  0  0  0
   60.4100   30.8170   48.1560 C   0  0  1  0  0  0  0  0  0  0  0  0
   61.4150   31.9940   48.2430 C   0  0  0  0  0  0  0  0  0  0  0  0
   62.7400   31.6820   47.8470 C   0  0  0  0  0  0  0  0  0  0  0  0
   63.7780   32.6030   47.9550 C   0  0  0  0  0  0  0  0  0  0  0  0
   63.5370   33.8660   48.4730 C   0  0  0  0  0  0  0  0  0  0  0  0
   62.2540   34.2160   48.8780 C   0  0  0  0  0  0  0  0  0  0  0  0
   61.1780   33.3090   48.7760 C   0  0  0  0  0  0  0  0  0  0  0  0
   59.8360   33.8510   49.2130 C   0  0  0  0  0  0  0  0  0  0  0  0
   59.3000   34.8970   48.2220 C   0  0  0  0  0  0  0  0  0  0  0  0
   58.8830   34.2390   46.9330 C   0  0  0  0  0  0  0  0  0  0  0  0
   57.7900   33.3570   46.9040 C   0  0  0  0  0  0  0  0  0  0  0  0
   57.3730   32.7880   45.6970 C   0  0  0  0  0  0  0  0  0  0  0  0
   58.0400   33.0980   44.5100 C   0  0  0  0  0  0  0  0  0  0  0  0
   59.1250   33.9790   44.5260 C   0  0  0  0  0  0  0  0  0  0  0  0
   59.5450   34.5510   45.7320 C   0  0  0  0  0  0  0  0  0  0  0  0
   59.6130   29.4730   45.4340 C   0  0  0  0  0  0  0  0  0  0  0  0
   58.5860   29.7720   44.5310 C   0  0  0  0  0  0  0  0  0  0  0  0
   54.4740   29.3960   45.1180 H   0  0  0  0  0  0  0  0  0  0  0  0
   55.9915   28.2043   46.1137 H   0  0  0  0  0  0  0  0  0  0  0  0
   57.8162   27.6750   47.7188 H   0  0  0  0  0  0  0  0  0  0  0  0
   62.0460   29.5600   47.9750 H   0  0  0  0  0  0  0  0  0  0  0  0
   61.7535   28.1956   49.8623 H   0  0  0  0  0  0  0  0  0  0  0  0
   61.8626   29.9888   50.2205 H   0  0  0  0  0  0  0  0  0  0  0  0
   59.5528   28.0944   50.5394 H   0  0  0  0  0  0  0  0  0  0  0  0
   60.1959   29.4229   51.6240 H   0  0  0  0  0  0  0  0  0  0  0  0
   58.2505   30.7510   48.2023 H   0  0  0  0  0  0  0  0  0  0  0  0
   59.0491   31.9936   49.3042 H   0  0  0  0  0  0  0  0  0  0  0  0
   60.0619   30.8627   47.1135 H   0  0  0  0  0  0  0  0  0  0  0  0
   62.9542   30.6819   47.4422 H   0  0  0  0  0  0  0  0  0  0  0  0
   64.7918   32.3280   47.6286 H   0  0  0  0  0  0  0  0  0  0  0  0
   64.3599   34.5904   48.5635 H   0  0  0  0  0  0  0  0  0  0  0  0
   62.0739   35.2213   49.2866 H   0  0  0  0  0  0  0  0  0  0  0  0
   59.1187   33.0195   49.2776 H   0  0  0  0  0  0  0  0  0  0  0  0
   59.9625   34.3366   50.1919 H   0  0  0  0  0  0  0  0  0  0  0  0
   58.4313   35.4048   48.6665 H   0  0  0  0  0  0  0  0  0  0  0  0
   60.0967   35.6246   48.0079 H   0  0  0  0  0  0  0  0  0  0  0  0
   57.2594   33.1127   47.8361 H   0  0  0  0  0  0  0  0  0  0  0  0
   56.5186   32.0954   45.6823 H   0  0  0  0  0  0  0  0  0  0  0  0
   57.7112   32.6484   43.5614 H   0  0  0  0  0  0  0  0  0  0  0  0
   59.6490   34.2228   43.5901 H   0  0  0  0  0  0  0  0  0  0  0  0
   60.3964   35.2475   45.7407 H   0  0  0  0  0  0  0  0  0  0  0  0
   60.6368   29.8195   45.2296 H   0  0  0  0  0  0  0  0  0  0  0  0
   58.8083   30.3599   43.6282 H   0  0  0  0  0  0  0  0  0  0  0  0
  1  2  1  0
  2  3  2  0
  2  4  1  0
  4  5  2  0
  5  6  1  0
  6  7  2  0
  7  8  1  0
  8  9  2  0
  8 10  1  0
 10 11  1  0
 11 12  1  0
 12 13  1  0
 13 14  2  0
 13 15  1  0
 15 16  1  0
 16 17  1  0
 17 18  2  0
 18 19  1  0
 19 20  2  0
 20 21  1  0
 21 22  2  0
 22 23  1  0
 23 24  1  0
 24 25  1  0
 25 26  2  0
 26 27  1  0
 27 28  2  0
 28 29  1  0
 29 30  2  0
  7 31  1  0
 31 32  2  0
 32  4  1  0
 16 10  1  0
 22 17  1  0
 30 25  1  0
  1 33  1  0
  5 34  1  0
  6 35  1  0
 10 36  1  6
 11 37  1  0
 11 38  1  0
 12 39  1  0
 12 40  1  0
 15 41  1  0
 15 42  1  0
 16 43  1  6
 18 44  1  0
 19 45  1  0
 20 46  1  0
 21 47  1  0
 23 48  1  0
 23 49  1  0
 24 50  1  0
 24 51  1  0
 26 52  1  0
 27 53  1  0
 28 54  1  0
 29 55  1  0
 30 56  1  0
 31 57  1  0
 32 58  1  0
M  CHG  2   1  -1  10   1
M  END
>  <UniqueID>  (19) 
19

>  <SMILES>  (19) 
[NH-]C(=O)c1ccc(C(=O)[N@@H+]2CCC(=O)C[C@H]2c2ccccc2CCc2ccccc2)cc1

>  <Energy>  (19) 
87.28445986873467

>  <Genealogy>  (19) 
[NH-]C(=O)c1ccc(C(=O)[NH+]2CCC(=O)CC2c2ccccc2CCc2ccccc2)cc1 (protonated)
[NH-]C(=O)c1ccc(C(=O)[N@@H+]2CCC(=O)C[C@H]2c2ccccc2CCc2ccccc2)cc1 (chirality)
[NH-]C(=O)c1ccc(C(=O)[N@@H+]2CCC(=O)C[C@H]2c2ccccc2CCc2ccccc2)cc1 (3D coordinates assigned)
[NH-]C(=O)c1ccc(C(=O)[N@@H+]2CCC(=O)C[C@H]2c2ccccc2CCc2ccccc2)cc1 (nonaromatic ring conformer: 87.28445986873467 kcal/mol)

>  <smiles>  (19) 
NC(=O)c1ccc(C(=O)N2CCC(=O)CC2c2ccccc2CCc2ccccc2)cc1

>  <score_type>  (19) 
oracle

>  <origin>  (19) 
adg

>  <m_score__min__energy>  (19) 
-11.460000000000001

>  <m_primary>  (19) 
energy

$$$$
19:0
     RDKit          3D

 57 60  0  0  0  0  0  0  0  0999 V2000
   63.3290   34.1030   46.2010 O   0  0  0  0  0  0  0  0  0  0  0  0
   62.6200   33.6710   47.1510 C   0  0  0  0  0  0  0  0  0  0  0  0
   63.2610   33.3950   48.4570 C   0  0  0  0  0  0  0  0  0  0  0  0
   64.1470   32.3140   48.6100 C   0  0  0  0  0  0  0  0  0  0  0  0
   64.7380   32.0560   49.8510 C   0  0  0  0  0  0  0  0  0  0  0  0
   64.4420   32.8660   50.9500 C   0  0  0  0  0  0  0  0  0  0  0  0
   63.5500   33.9320   50.8120 C   0  0  0  0  0  0  0  0  0  0  0  0
   62.9550   34.1930   49.5740 C   0  0  0  0  0  0  0  0  0  0  0  0
   61.2080   33.4680   46.9400 N   0  0  0  0  0  0  0  0  0  0  0  0
   60.4940   34.3560   46.0120 C   0  0  0  0  0  0  0  0  0  0  0  0
   58.9900   34.0630   45.9930 C   0  0  0  0  0  0  0  0  0  0  0  0
   58.7520   32.6220   45.8440 N   0  0  0  0  0  0  0  0  0  0  0  0
   57.5420   32.1720   45.2040 C   0  0  0  0  0  0  0  0  0  0  0  0
   56.4960   32.8700   45.2950 O   0  0  0  0  0  0  0  0  0  0  0  0
   57.4970   30.9040   44.4450 C   0  0  0  0  0  0  0  0  0  0  0  0
   56.6160   30.7510   43.3610 C   0  0  0  0  0  0  0  0  0  0  0  0
   56.5630   29.5430   42.6610 C   0  0  0  0  0  0  0  0  0  0  0  0
   57.3820   28.4770   43.0350 C   0  0  0  0  0  0  0  0  0  0  0  0
   58.2680   28.6120   44.1150 C   0  0  0  0  0  0  0  0  0  0  0  0
   59.1160   27.4520   44.5460 C   0  0  0  0  0  0  0  0  0  0  0  0
   58.2690   26.2730   44.7100 N   0  0  0  0  0  0  0  0  0  0  0  0
   57.6640   26.2010   46.3350 S   0  0  0  0  0  0  0  0  0  0  0  0
   56.2360   26.6700   46.3680 O   0  0  0  0  0  0  0  0  0  0  0  0
   57.7100   24.7790   46.8170 O   0  0  0  0  0  0  0  0  0  0  0  0
   58.6570   27.1980   47.3970 C   0  0  0  0  0  0  0  0  0  0  0  0
   58.2510   28.4940   47.7470 C   0  0  0  0  0  0  0  0  0  0  0  0
   59.0560   29.2840   48.5730 C   0  0  0  0  0  0  0  0  0  0  0  0
   60.2740   28.7860   49.0480 C   0  0  0  0  0  0  0  0  0  0  0  0
   61.2850   29.7790   50.0820 Cl  0  0  0  0  0  0  0  0  0  0  0  0
   60.6860   27.4970   48.6960 C   0  0  0  0  0  0  0  0  0  0  0  0
   59.8810   26.7050   47.8710 C   0  0  0  0  0  0  0  0  0  0  0  0
   58.3060   29.8210   44.8290 C   0  0  0  0  0  0  0  0  0  0  0  0
   59.5830   31.6550   46.5810 C   0  0  0  0  0  0  0  0  0  0  0  0
   60.5010   32.3530   47.5880 C   0  0  0  0  0  0  0  0  0  0  0  0
   64.3764   31.6682   47.7496 H   0  0  0  0  0  0  0  0  0  0  0  0
   65.4370   31.2139   49.9619 H   0  0  0  0  0  0  0  0  0  0  0  0
   64.9114   32.6643   51.9241 H   0  0  0  0  0  0  0  0  0  0  0  0
   63.3153   34.5672   51.6788 H   0  0  0  0  0  0  0  0  0  0  0  0
   62.2442   35.0264   49.4731 H   0  0  0  0  0  0  0  0  0  0  0  0
   60.6503   35.3989   46.3249 H   0  0  0  0  0  0  0  0  0  0  0  0
   60.8899   34.1851   45.0001 H   0  0  0  0  0  0  0  0  0  0  0  0
   58.5412   34.4091   46.9358 H   0  0  0  0  0  0  0  0  0  0  0  0
   58.5341   34.5902   45.1420 H   0  0  0  0  0  0  0  0  0  0  0  0
   55.9652   31.5860   43.0622 H   0  0  0  0  0  0  0  0  0  0  0  0
   55.8729   29.4319   41.8117 H   0  0  0  0  0  0  0  0  0  0  0  0
   57.3330   27.5277   42.4815 H   0  0  0  0  0  0  0  0  0  0  0  0
   59.8815   27.2518   43.7818 H   0  0  0  0  0  0  0  0  0  0  0  0
   59.6089   27.6888   45.5005 H   0  0  0  0  0  0  0  0  0  0  0  0
   57.2963   28.8900   47.3705 H   0  0  0  0  0  0  0  0  0  0  0  0
   58.7315   30.2980   48.8497 H   0  0  0  0  0  0  0  0  0  0  0  0
   61.6442   27.1055   49.0683 H   0  0  0  0  0  0  0  0  0  0  0  0
   60.2090   25.6925   47.5932 H   0  0  0  0  0  0  0  0  0  0  0  0
   58.9750   29.9210   45.6965 H   0  0  0  0  0  0  0  0  0  0  0  0
   58.9254   30.9578   47.1210 H   0  0  0  0  0  0  0  0  0  0  0  0
   60.2126   31.1191   45.8554 H   0  0  0  0  0  0  0  0  0  0  0  0
   59.8978   32.7406   48.4222 H   0  0  0  0  0  0  0  0  0  0  0  0
   61.2390   31.6291   47.9640 H   0  0  0  0  0  0  0  0  0  0  0  0
  1  2  2  0
  2  3  1  0
  3  4  2  0
  4  5  1  0
  5  6  2  0
  6  7  1  0
  7  8  2  0
  2  9  1  0
  9 10  1  0
 10 11  1  0
 11 12  1  0
 12 13  1  0
 13 14  2  0
 13 15  1  0
 15 16  2  0
 16 17  1  0
 17 18  2  0
 18 19  1  0
 19 20  1  0
 20 21  1  0
 21 22  1  0
 22 23  2  0
 22 24  2  0
 22 25  1  0
 25 26  2  0
 26 27  1  0
 27 28  2  0
 28 29  1  0
 28 30  1  0
 30 31  2  0
 19 32  2  0
 12 33  1  0
 33 34  1  0
  8  3  1  0
 34  9  1  0
 32 15  1  0
 31 25  1  0
  4 35  1  0
  5 36  1  0
  6 37  1  0
  7 38  1  0
  8 39  1  0
 10 40  1  0
 10 41  1  0
 11 42  1  0
 11 43  1  0
 16 44  1  0
 17 45  1  0
 18 46  1  0
 20 47  1  0
 20 48  1  0
 26 49  1  0
 27 50  1  0
 30 51  1  0
 31 52  1  0
 32 53  1  0
 33 54  1  0
 33 55  1  0
 34 56  1  0
 34 57  1  0
M  CHG  1  21  -1
M  END
>  <UniqueID>  (20) 
20

>  <SMILES>  (20) 
O=C(c1ccccc1)N1CCN(C(=O)c2cccc(C[N-]S(=O)(=O)c3ccc(Cl)cc3)c2)CC1

>  <Energy>  (20) 
67.659591405276

>  <Genealogy>  (20) 
O=C(c1ccccc1)N1CCN(C(=O)c2cccc(C[N-]S(=O)(=O)c3ccc(Cl)cc3)c2)CC1 (protonated)
O=C(c1ccccc1)N1CCN(C(=O)c2cccc(C[N-]S(=O)(=O)c3ccc(Cl)cc3)c2)CC1 (3D coordinates assigned)
O=C(c1ccccc1)N1CCN(C(=O)c2cccc(C[N-]S(=O)(=O)c3ccc(Cl)cc3)c2)CC1 (nonaromatic ring conformer: 67.659591405276 kcal/mol)

>  <smiles>  (20) 
O=C(c1ccccc1)N1CCN(C(=O)c2cccc(CNS(=O)(=O)c3ccc(Cl)cc3)c2)CC1

>  <score_type>  (20) 
oracle

>  <origin>  (20) 
adg

>  <m_score__min__energy>  (20) 
-11.380000000000001

>  <m_primary>  (20) 
energy

$$$$
20:0
     RDKit          3D

 70 73  0  0  1  0  0  0  0  0999 V2000
   55.6690   30.4750   44.1180 C   0  0  0  0  0  0  0  0  0  0  0  0
   56.4840   29.3930   43.4760 C   0  0  0  0  0  0  0  0  0  0  0  0
   57.8940   29.5690   43.7630 N   0  0  0  0  0  0  0  0  0  0  0  0
   58.2700   29.6850   45.1180 C   0  0  0  0  0  0  0  0  0  0  0  0
   57.3700   29.6240   46.0080 O   0  0  0  0  0  0  0  0  0  0  0  0
   59.6280   29.8730   45.5500 N   0  0  0  0  0  0  0  0  0  0  0  0
   59.7940   29.9660   46.9730 C   0  0  0  0  0  0  0  0  0  0  0  0
   59.8410   31.2230   47.5160 C   0  0  0  0  0  0  0  0  0  0  0  0
   60.0330   31.3680   48.8680 C   0  0  0  0  0  0  0  0  0  0  0  0
   60.1710   30.2300   49.6300 C   0  0  0  0  0  0  0  0  0  0  0  0
   60.4520   30.4860   51.3920 S   0  0  0  0  0  0  0  0  0  0  0  0
   62.2230   30.3570   51.7120 C   0  0  0  0  0  0  0  0  0  0  0  0
   63.1490   30.8700   50.9060 N   0  0  0  0  0  0  0  0  0  0  0  0
   64.4530   30.7170   51.2310 C   0  0  0  0  0  0  0  0  0  0  0  0
   65.3680   31.1920   50.5000 N   0  0  0  0  0  0  0  0  0  0  0  0
   65.6420   32.5840   50.3080 C   0  0  0  0  0  0  0  0  0  0  0  0
   66.7820   33.0220   50.0140 O   0  0  0  0  0  0  0  0  0  0  0  0
   64.4940   33.5100   50.4750 C   0  0  0  0  0  0  0  0  0  0  0  0
   63.6040   33.5810   49.3000 C   0  0  0  0  0  0  0  0  0  0  0  0
   62.3190   34.1120   49.3450 C   0  0  0  0  0  0  0  0  0  0  0  0
   61.5960   34.1160   48.1470 C   0  0  0  0  0  0  0  0  0  0  0  0
   62.1250   33.6190   46.9770 C   0  0  0  0  0  0  0  0  0  0  0  0
   63.3960   33.0920   46.9250 C   0  0  0  0  0  0  0  0  0  0  0  0
   64.1160   33.0840   48.1020 C   0  0  0  0  0  0  0  0  0  0  0  0
   64.8470   30.0380   52.3830 C   0  0  0  0  0  0  0  0  0  0  0  0
   63.8720   29.5190   53.2000 C   0  0  0  0  0  0  0  0  0  0  0  0
   62.5820   29.6940   52.8390 N   0  0  0  0  0  0  0  0  0  0  0  0
   60.1240   28.9480   49.0890 C   0  0  0  0  0  0  0  0  0  0  0  0
   59.9310   28.8050   47.7390 C   0  0  0  0  0  0  0  0  0  0  0  0
   59.8580   27.5300   47.0170 C   0  0  0  0  0  0  0  0  0  0  0  0
   58.6150   27.2340   46.3880 N   0  0  0  0  0  0  0  0  0  0  0  0
   58.4520   25.8980   45.8590 C   0  0  0  0  0  0  0  0  0  0  0  0
   59.3880   25.0410   45.9690 O   0  0  0  0  0  0  0  0  0  0  0  0
   57.2330   25.5540   45.2110 N   0  0  0  0  0  0  0  0  0  0  0  0
   56.9750   24.2730   44.6520 C   0  0  0  0  0  0  0  0  0  0  0  0
   57.1060   23.1660   45.5020 C   0  0  0  0  0  0  0  0  0  0  0  0
   56.8830   21.8790   45.0450 C   0  0  0  0  0  0  0  0  0  0  0  0
   56.5230   21.6420   43.7360 C   0  0  0  0  0  0  0  0  0  0  0  0
   56.2910   20.3570   43.2410 O   0  0  0  0  0  0  0  0  0  0  0  0
   56.3940   22.7370   42.8940 C   0  0  0  0  0  0  0  0  0  0  0  0
   56.6200   24.0400   43.3590 C   0  0  0  0  0  0  0  0  0  0  0  0
   55.7369   30.3849   45.2122 H   0  0  0  0  0  0  0  0  0  0  0  0
   56.0534   31.4574   43.8065 H   0  0  0  0  0  0  0  0  0  0  0  0
   54.6186   30.3767   43.8065 H   0  0  0  0  0  0  0  0  0  0  0  0
   56.1565   28.4171   43.8638 H   0  0  0  0  0  0  0  0  0  0  0  0
   56.3380   29.4419   42.3868 H   0  0  0  0  0  0  0  0  0  0  0  0
   58.6420   29.6140   43.0450 H   0  0  0  0  0  0  0  0  0  0  0  0
   60.4030   29.9310   44.8700 H   0  0  0  0  0  0  0  0  0  0  0  0
   59.7259   32.1089   46.8742 H   0  0  0  0  0  0  0  0  0  0  0  0
   60.0753   32.3658   49.3292 H   0  0  0  0  0  0  0  0  0  0  0  0
   63.9010   33.1735   51.3382 H   0  0  0  0  0  0  0  0  0  0  0  0
   64.9150   34.5164   50.6165 H   0  0  0  0  0  0  0  0  0  0  0  0
   61.8919   34.5096   50.2775 H   0  0  0  0  0  0  0  0  0  0  0  0
   60.5761   34.5279   48.1397 H   0  0  0  0  0  0  0  0  0  0  0  0
   61.5169   33.6436   46.0607 H   0  0  0  0  0  0  0  0  0  0  0  0
   63.8175   32.6960   45.9893 H   0  0  0  0  0  0  0  0  0  0  0  0
   65.1347   32.6689   48.0950 H   0  0  0  0  0  0  0  0  0  0  0  0
   65.9121   29.9207   52.6317 H   0  0  0  0  0  0  0  0  0  0  0  0
   64.1339   28.9771   54.1207 H   0  0  0  0  0  0  0  0  0  0  0  0
   61.8760   29.2770   53.4960 H   0  0  0  0  0  0  0  0  0  0  0  0
   60.2398   28.0644   49.7339 H   0  0  0  0  0  0  0  0  0  0  0  0
   60.6343   27.5406   46.2378 H   0  0  0  0  0  0  0  0  0  0  0  0
   59.9942   26.7506   47.7812 H   0  0  0  0  0  0  0  0  0  0  0  0
   57.8090   27.8700   46.2640 H   0  0  0  0  0  0  0  0  0  0  0  0
   56.4680   26.2580   45.1260 H   0  0  0  0  0  0  0  0  0  0  0  0
   57.3916   23.3234   46.5526 H   0  0  0  0  0  0  0  0  0  0  0  0
   56.9949   21.0317   45.7375 H   0  0  0  0  0  0  0  0  0  0  0  0
   56.9760   19.6020   43.3680 H   0  0  0  0  0  0  0  0  0  0  0  0
   56.1094   22.5800   41.8431 H   0  0  0  0  0  0  0  0  0  0  0  0
   56.5086   24.8881   42.6674 H   0  0  0  0  0  0  0  0  0  0  0  0
  1  2  1  0
  2  3  1  0
  3  4  1  0
  4  5  2  0
  4  6  1  0
  6  7  1  0
  7  8  2  0
  8  9  1  0
  9 10  2  0
 10 11  1  0
 11 12  1  0
 12 13  2  0
 13 14  1  0
 14 15  2  0
 15 16  1  0
 16 17  2  0
 16 18  1  0
 18 19  1  0
 19 20  2  0
 20 21  1  0
 21 22  2  0
 22 23  1  0
 23 24  2  0
 14 25  1  0
 25 26  2  0
 26 27  1  0
 10 28  1  0
 28 29  2  0
 29 30  1  0
 30 31  1  0
 31 32  1  0
 32 33  2  0
 32 34  1  0
 34 35  1  0
 35 36  2  0
 36 37  1  0
 37 38  2  0
 38 39  1  0
 38 40  1  0
 40 41  2  0
 29  7  1  0
 41 35  1  0
 27 12  1  0
 24 19  1  0
  1 42  1  0
  1 43  1  0
  1 44  1  0
  2 45  1  0
  2 46  1  0
  3 47  1  0
  6 48  1  0
  8 49  1  0
  9 50  1  0
 18 51  1  0
 18 52  1  0
 20 53  1  0
 21 54  1  0
 22 55  1  0
 23 56  1  0
 24 57  1  0
 25 58  1  0
 26 59  1  0
 27 60  1  0
 28 61  1  0
 30 62  1  0
 30 63  1  0
 31 64  1  0
 34 65  1  0
 36 66  1  0
 37 67  1  0
 39 68  1  0
 40 69  1  0
 41 70  1  0
M  END
>  <smiles>  (21) 
CCNC(=O)Nc1ccc(Sc2nc(=NC(=O)Cc3ccccc3)cc[nH]2)cc1CNC(=O)Nc1ccc(O)cc1

>  <score_type>  (21) 
oracle

>  <origin>  (21) 
adg

>  <m_score__min__energy>  (21) 
-10.779999999999999

>  <m_primary>  (21) 
energy

$$$$
21:0
     RDKit          3D

 59 62  0  0  0  0  0  0  0  0999 V2000
   60.5060   29.8580   46.3780 C   0  0  0  0  0  0  0  0  0  0  0  0
   59.7280   30.6640   47.3890 C   0  0  0  0  0  0  0  0  0  0  0  0
   59.8190   30.3140   48.7450 C   0  0  0  0  0  0  0  0  0  0  0  0
   59.0790   31.0180   49.7020 C   0  0  0  0  0  0  0  0  0  0  0  0
   59.1410   30.6530   51.1370 C   0  0  0  0  0  0  0  0  0  0  0  0
   60.2610   30.4570   51.6840 O   0  0  0  0  0  0  0  0  0  0  0  0
   57.9400   30.4780   51.9120 N   0  0  0  0  0  0  0  0  0  0  0  0
   57.0390   31.6050   52.1660 C   0  0  0  0  0  0  0  0  0  0  0  0
   55.6040   31.1490   51.9320 C   0  0  0  0  0  0  0  0  0  0  0  0
   55.3020   29.9470   52.7220 N   0  0  0  0  0  0  0  0  0  0  0  0
   53.9080   29.6750   53.0970 C   0  0  0  0  0  0  0  0  0  0  0  0
   52.9690   30.3390   52.1270 C   0  0  0  0  0  0  0  0  0  0  0  0
   52.8570   29.8550   50.8120 C   0  0  0  0  0  0  0  0  0  0  0  0
   51.9880   30.4710   49.9040 C   0  0  0  0  0  0  0  0  0  0  0  0
   51.2330   31.5780   50.2980 C   0  0  0  0  0  0  0  0  0  0  0  0
   50.3890   32.1680   49.4110 F   0  0  0  0  0  0  0  0  0  0  0  0
   51.3460   32.0730   51.6030 C   0  0  0  0  0  0  0  0  0  0  0  0
   50.5940   33.1750   51.9960 O   0  0  0  0  0  0  0  0  0  0  0  0
   52.2130   31.4580   52.5140 C   0  0  0  0  0  0  0  0  0  0  0  0
   56.3340   28.9700   52.9890 C   0  0  0  0  0  0  0  0  0  0  0  0
   56.0340   27.8480   53.4800 O   0  0  0  0  0  0  0  0  0  0  0  0
   57.7860   29.2830   52.7430 C   0  0  0  0  0  0  0  0  0  0  0  0
   58.2810   32.0390   49.3020 N   0  0  0  0  0  0  0  0  0  0  0  0
   58.1810   32.4410   48.0090 C   0  0  0  0  0  0  0  0  0  0  0  0
   57.4510   33.4840   47.7520 N   0  0  0  0  0  0  0  0  0  0  0  0
   58.9060   31.7520   47.0010 C   0  0  0  0  0  0  0  0  0  0  0  0
   58.8070   32.1430   45.5740 C   0  0  0  0  0  0  0  0  0  0  0  0
   58.1920   31.4030   44.7590 O   0  0  0  0  0  0  0  0  0  0  0  0
   59.3930   33.3700   45.1240 N   0  0  0  0  0  0  0  0  0  0  0  0
   59.6010   34.5110   46.0040 C   0  0  0  0  0  0  0  0  0  0  0  0
   60.7730   34.2390   46.9010 C   0  0  0  0  0  0  0  0  0  0  0  0
   60.6560   34.3840   48.2930 C   0  0  0  0  0  0  0  0  0  0  0  0
   61.7400   34.0890   49.1260 C   0  0  0  0  0  0  0  0  0  0  0  0
   62.9460   33.6400   48.5760 C   0  0  0  0  0  0  0  0  0  0  0  0
   63.9990   33.3630   49.3840 F   0  0  0  0  0  0  0  0  0  0  0  0
   63.0650   33.4790   47.1920 C   0  0  0  0  0  0  0  0  0  0  0  0
   61.9830   33.7750   46.3560 C   0  0  0  0  0  0  0  0  0  0  0  0
   61.1776   29.1622   46.9022 H   0  0  0  0  0  0  0  0  0  0  0  0
   59.8076   29.2884   45.7474 H   0  0  0  0  0  0  0  0  0  0  0  0
   61.1000   30.5359   45.7474 H   0  0  0  0  0  0  0  0  0  0  0  0
   60.4725   29.4856   49.0560 H   0  0  0  0  0  0  0  0  0  0  0  0
   57.1544   31.9434   53.2063 H   0  0  0  0  0  0  0  0  0  0  0  0
   57.2817   32.4374   51.4891 H   0  0  0  0  0  0  0  0  0  0  0  0
   54.9168   31.9559   52.2264 H   0  0  0  0  0  0  0  0  0  0  0  0
   55.4799   30.9099   50.8655 H   0  0  0  0  0  0  0  0  0  0  0  0
   53.7340   28.5889   53.0852 H   0  0  0  0  0  0  0  0  0  0  0  0
   53.7235   30.0745   54.1052 H   0  0  0  0  0  0  0  0  0  0  0  0
   53.4552   28.9880   50.4951 H   0  0  0  0  0  0  0  0  0  0  0  0
   51.8996   30.0827   48.8786 H   0  0  0  0  0  0  0  0  0  0  0  0
   52.3026   31.8525   53.5369 H   0  0  0  0  0  0  0  0  0  0  0  0
   58.2846   29.4517   53.7089 H   0  0  0  0  0  0  0  0  0  0  0  0
   58.2394   28.4319   52.2139 H   0  0  0  0  0  0  0  0  0  0  0  0
   57.4280   33.9890   46.8400 H   0  0  0  0  0  0  0  0  0  0  0  0
   59.8008   35.4087   45.4005 H   0  0  0  0  0  0  0  0  0  0  0  0
   58.7004   34.6745   46.6141 H   0  0  0  0  0  0  0  0  0  0  0  0
   59.7080   34.7310   48.7299 H   0  0  0  0  0  0  0  0  0  0  0  0
   61.6445   34.2101   50.2151 H   0  0  0  0  0  0  0  0  0  0  0  0
   64.0105   33.1192   46.7601 H   0  0  0  0  0  0  0  0  0  0  0  0
   62.0794   33.6442   45.2681 H   0  0  0  0  0  0  0  0  0  0  0  0
  1  2  1  0
  2  3  1  0
  3  4  2  0
  4  5  1  0
  5  6  2  0
  5  7  1  0
  7  8  1  0
  8  9  1  0
  9 10  1  0
 10 11  1  0
 11 12  1  0
 12 13  2  0
 13 14  1  0
 14 15  2  0
 15 16  1  0
 15 17  1  0
 17 18  1  0
 17 19  2  0
 10 20  1  0
 20 21  2  0
 20 22  1  0
  4 23  1  0
 23 24  1  0
 24 25  2  3
 24 26  1  0
 26 27  1  0
 27 28  2  0
 27 29  1  0
 29 30  1  0
 30 31  1  0
 31 32  2  0
 32 33  1  0
 33 34  2  0
 34 35  1  0
 34 36  1  0
 36 37  2  0
 26  2  2  0
 37 31  1  0
 22  7  1  0
 19 12  1  0
  1 38  1  0
  1 39  1  0
  1 40  1  0
  3 41  1  0
  8 42  1  0
  8 43  1  0
  9 44  1  0
  9 45  1  0
 11 46  1  0
 11 47  1  0
 13 48  1  0
 14 49  1  0
 19 50  1  0
 22 51  1  0
 22 52  1  0
 25 53  1  0
 30 54  1  0
 30 55  1  0
 32 56  1  0
 33 57  1  0
 36 58  1  0
 37 59  1  0
M  CHG  3  18  -1  23  -1  29  -1
M  END
>  <UniqueID>  (22) 
21

>  <SMILES>  (22) 
Cc1cc(C(=O)N2CCN(Cc3ccc(F)c([O-])c3)C(=O)C2)[n-]c(=N)c1C(=O)[N-]Cc1ccc(F)cc1

>  <Energy>  (22) 
71.80639167565836

>  <Genealogy>  (22) 
Cc1cc(C(=O)N2CCN(Cc3ccc(F)c([O-])c3)C(=O)C2)[n-]c(=N)c1C(=O)[N-]Cc1ccc(F)cc1 (protonated)
Cc1cc(C(=O)N2CCN(Cc3ccc(F)c([O-])c3)C(=O)C2)[n-]c(=N)c1C(=O)[N-]Cc1ccc(F)cc1 (3D coordinates assigned)
Cc1cc(C(=O)N2CCN(Cc3ccc(F)c([O-])c3)C(=O)C2)[n-]c(=N)c1C(=O)[N-]Cc1ccc(F)cc1 (nonaromatic ring conformer: 71.80639167565836 kcal/mol)

>  <smiles>  (22) 
Cc1cc(C(=O)N2CCN(Cc3ccc(F)c(O)c3)C(=O)C2)[nH]c(=N)c1C(=O)NCc1ccc(F)cc1

>  <score_type>  (22) 
oracle

>  <origin>  (22) 
adg

>  <m_score__min__energy>  (22) 
-15.08

>  <m_primary>  (22) 
energy

$$$$
22:0
     RDKit          3D

 77 82  0  0  0  0  0  0  0  0999 V2000
   56.1920   30.1400   44.8750 O   0  0  0  0  0  0  0  0  0  0  0  0
   57.4390   30.3020   44.9740 C   0  0  0  0  0  0  0  0  0  0  0  0
   58.3430   29.2500   44.5790 N   0  0  0  0  0  0  0  0  0  0  0  0
   57.9470   27.8920   44.3140 C   0  0  0  0  0  0  0  0  0  0  0  0
   58.1280   27.3680   43.0280 C   0  0  0  0  0  0  0  0  0  0  0  0
   57.8020   26.0390   42.7510 C   0  0  0  0  0  0  0  0  0  0  0  0
   57.2960   25.2160   43.7580 C   0  0  0  0  0  0  0  0  0  0  0  0
   57.1080   25.7130   45.0620 C   0  0  0  0  0  0  0  0  0  0  0  0
   56.5730   24.8640   46.1050 N   0  0  0  0  0  0  0  0  0  0  0  0
   57.0920   24.9460   47.4790 C   0  0  0  0  0  0  0  0  0  0  0  0
   57.0190   23.5690   48.1460 C   0  0  0  0  0  0  0  0  0  0  0  0
   55.6400   23.0300   48.1630 N   0  0  0  0  0  0  0  0  0  0  0  0
   55.5700   21.5740   48.4250 C   0  0  0  0  0  0  0  0  0  0  0  0
   55.5760   20.7240   47.1690 C   0  0  0  0  0  0  0  0  0  0  0  0
   56.6440   20.8030   46.2560 C   0  0  0  0  0  0  0  0  0  0  0  0
   56.6460   20.0120   45.1020 C   0  0  0  0  0  0  0  0  0  0  0  0
   55.5770   19.1530   44.8370 C   0  0  0  0  0  0  0  0  0  0  0  0
   54.4980   19.0880   45.7230 C   0  0  0  0  0  0  0  0  0  0  0  0
   54.4920   19.8750   46.8790 C   0  0  0  0  0  0  0  0  0  0  0  0
   54.7480   23.5080   47.0800 C   0  0  0  0  0  0  0  0  0  0  0  0
   55.5110   23.8910   45.8050 C   0  0  0  0  0  0  0  0  0  0  0  0
   57.4550   27.0530   45.3320 C   0  0  0  0  0  0  0  0  0  0  0  0
   57.9560   31.5950   45.4770 C   0  0  0  0  0  0  0  0  0  0  0  0
   57.1810   32.7580   45.3320 C   0  0  0  0  0  0  0  0  0  0  0  0
   57.6540   33.9850   45.8010 C   0  0  0  0  0  0  0  0  0  0  0  0
   58.9170   34.0720   46.3920 C   0  0  0  0  0  0  0  0  0  0  0  0
   59.7240   32.9290   46.5030 C   0  0  0  0  0  0  0  0  0  0  0  0
   61.1000   33.0260   47.0530 C   0  0  0  0  0  0  0  0  0  0  0  0
   62.0380   33.8430   46.3950 C   0  0  0  0  0  0  0  0  0  0  0  0
   63.3580   33.9150   46.8450 C   0  0  0  0  0  0  0  0  0  0  0  0
   63.7590   33.1730   47.9560 C   0  0  0  0  0  0  0  0  0  0  0  0
   62.8390   32.3700   48.6320 C   0  0  0  0  0  0  0  0  0  0  0  0
   61.5010   32.3050   48.2100 C   0  0  0  0  0  0  0  0  0  0  0  0
   60.5510   31.4860   48.9960 C   0  0  0  0  0  0  0  0  0  0  0  0
   60.4560   30.2530   48.7510 O   0  0  0  0  0  0  0  0  0  0  0  0
   59.7330   32.0710   50.0230 N   0  0  0  0  0  0  0  0  0  0  0  0
   58.4320   31.5400   50.3920 C   0  0  0  0  0  0  0  0  0  0  0  0
   57.9690   32.3690   51.5850 C   0  0  0  0  0  0  0  0  0  0  0  0
   58.9070   33.5740   51.6530 C   0  0  0  0  0  0  0  0  0  0  0  0
   60.1490   33.1800   50.8650 C   0  0  0  0  0  0  0  0  0  0  0  0
   59.2290   31.6890   46.0660 C   0  0  0  0  0  0  0  0  0  0  0  0
   59.3580   29.4720   44.4750 H   0  0  0  0  0  0  0  0  0  0  0  0
   58.5303   28.0088   42.2295 H   0  0  0  0  0  0  0  0  0  0  0  0
   57.9444   25.6395   41.7361 H   0  0  0  0  0  0  0  0  0  0  0  0
   57.0418   24.1701   43.5312 H   0  0  0  0  0  0  0  0  0  0  0  0
   58.1384   25.2844   47.4542 H   0  0  0  0  0  0  0  0  0  0  0  0
   56.4842   25.6600   48.0541 H   0  0  0  0  0  0  0  0  0  0  0  0
   57.6653   22.8721   47.5923 H   0  0  0  0  0  0  0  0  0  0  0  0
   57.3519   23.6799   49.1885 H   0  0  0  0  0  0  0  0  0  0  0  0
   56.4371   21.2903   49.0396 H   0  0  0  0  0  0  0  0  0  0  0  0
   54.6130   21.3862   48.9338 H   0  0  0  0  0  0  0  0  0  0  0  0
   57.4810   21.4897   46.4505 H   0  0  0  0  0  0  0  0  0  0  0  0
   57.4921   20.0668   44.4012 H   0  0  0  0  0  0  0  0  0  0  0  0
   55.5843   18.5282   43.9317 H   0  0  0  0  0  0  0  0  0  0  0  0
   53.6526   18.4170   45.5108 H   0  0  0  0  0  0  0  0  0  0  0  0
   53.6342   19.8300   47.5661 H   0  0  0  0  0  0  0  0  0  0  0  0
   54.0335   22.7084   46.8349 H   0  0  0  0  0  0  0  0  0  0  0  0
   54.2397   24.4125   47.4454 H   0  0  0  0  0  0  0  0  0  0  0  0
   55.9622   22.9873   45.3694 H   0  0  0  0  0  0  0  0  0  0  0  0
   54.8053   24.3466   45.0948 H   0  0  0  0  0  0  0  0  0  0  0  0
   57.3397   27.4482   46.3521 H   0  0  0  0  0  0  0  0  0  0  0  0
   56.1958   32.7014   44.8461 H   0  0  0  0  0  0  0  0  0  0  0  0
   57.0304   34.8860   45.7049 H   0  0  0  0  0  0  0  0  0  0  0  0
   59.2798   35.0387   46.7713 H   0  0  0  0  0  0  0  0  0  0  0  0
   61.7285   34.4304   45.5180 H   0  0  0  0  0  0  0  0  0  0  0  0
   64.0823   34.5575   46.3228 H   0  0  0  0  0  0  0  0  0  0  0  0
   64.8027   33.2208   48.3002 H   0  0  0  0  0  0  0  0  0  0  0  0
   63.1648   31.7827   49.5032 H   0  0  0  0  0  0  0  0  0  0  0  0
   57.7247   31.6434   49.5559 H   0  0  0  0  0  0  0  0  0  0  0  0
   58.4866   30.4695   50.6392 H   0  0  0  0  0  0  0  0  0  0  0  0
   56.9306   32.7012   51.4391 H   0  0  0  0  0  0  0  0  0  0  0  0
   57.9976   31.7842   52.5162 H   0  0  0  0  0  0  0  0  0  0  0  0
   58.4304   34.4561   51.2004 H   0  0  0  0  0  0  0  0  0  0  0  0
   59.1540   33.8358   52.6924 H   0  0  0  0  0  0  0  0  0  0  0  0
   60.4976   34.0219   50.2489 H   0  0  0  0  0  0  0  0  0  0  0  0
   60.9833   32.9026   51.5261 H   0  0  0  0  0  0  0  0  0  0  0  0
   59.8427   30.7840   46.1857 H   0  0  0  0  0  0  0  0  0  0  0  0
  1  2  2  0
  2  3  1  0
  3  4  1  0
  4  5  2  0
  5  6  1  0
  6  7  2  0
  7  8  1  0
  8  9  1  0
  9 10  1  0
 10 11  1  0
 11 12  1  0
 12 13  1  0
 13 14  1  0
 14 15  2  0
 15 16  1  0
 16 17  2  0
 17 18  1  0
 18 19  2  0
 12 20  1  0
 20 21  1  0
  8 22  2  0
  2 23  1  0
 23 24  2  0
 24 25  1  0
 25 26  2  0
 26 27  1  0
 27 28  1  0
 28 29  2  0
 29 30  1  0
 30 31  2  0
 31 32  1  0
 32 33  2  0
 33 34  1  0
 34 35  2  0
 34 36  1  0
 36 37  1  0
 37 38  1  0
 38 39  1  0
 39 40  1  0
 27 41  2  0
 22  4  1  0
 41 23  1  0
 21  9  1  0
 33 28  1  0
 40 36  1  0
 19 14  1  0
  3 42  1  0
  5 43  1  0
  6 44  1  0
  7 45  1  0
 10 46  1  0
 10 47  1  0
 11 48  1  0
 11 49  1  0
 13 50  1  0
 13 51  1  0
 15 52  1  0
 16 53  1  0
 17 54  1  0
 18 55  1  0
 19 56  1  0
 20 57  1  0
 20 58  1  0
 21 59  1  0
 21 60  1  0
 22 61  1  0
 24 62  1  0
 25 63  1  0
 26 64  1  0
 29 65  1  0
 30 66  1  0
 31 67  1  0
 32 68  1  0
 37 69  1  0
 37 70  1  0
 38 71  1  0
 38 72  1  0
 39 73  1  0
 39 74  1  0
 40 75  1  0
 40 76  1  0
 41 77  1  0
M  END
>  <UniqueID>  (23) 
22

>  <SMILES>  (23) 
O=C(Nc1cccc(N2CCN(Cc3ccccc3)CC2)c1)c1cccc(-c2ccccc2C(=O)N2CCCC2)c1

>  <Energy>  (23) 
113.43333987333533

>  <Genealogy>  (23) 
O=C(Nc1cccc(N2CCN(Cc3ccccc3)CC2)c1)c1cccc(-c2ccccc2C(=O)N2CCCC2)c1 (3D coordinates assigned)
O=C(Nc1cccc(N2CCN(Cc3ccccc3)CC2)c1)c1cccc(-c2ccccc2C(=O)N2CCCC2)c1 (nonaromatic ring conformer: 113.43333987333533 kcal/mol)

>  <smiles>  (23) 
O=C(Nc1cccc(N2CCN(Cc3ccccc3)CC2)c1)c1cccc(-c2ccccc2C(=O)N2CCCC2)c1

>  <score_type>  (23) 
oracle

>  <origin>  (23) 
adg

>  <m_score__min__energy>  (23) 
-10.23

>  <m_primary>  (23) 
energy

$$$$
23:0
     RDKit          3D

 56 58  0  0  0  0  0  0  0  0999 V2000
   55.9090   26.3980   45.9910 C   0  0  0  0  0  0  0  0  0  0  0  0
   55.8320   24.8830   45.7600 C   0  0  0  0  0  0  0  0  0  0  0  0
   54.3910   24.4520   45.4640 C   0  0  0  0  0  0  0  0  0  0  0  0
   56.8140   24.4280   44.6610 C   0  0  0  0  0  0  0  0  0  0  0  0
   57.9600   23.7110   45.2180 N   0  0  0  0  0  0  0  0  0  0  0  0
   59.1740   24.3390   45.6490 C   0  0  0  0  0  0  0  0  0  0  0  0
   60.2560   23.6890   45.6360 O   0  0  0  0  0  0  0  0  0  0  0  0
   59.1590   25.7470   46.1100 C   0  0  0  0  0  0  0  0  0  0  0  0
   59.2500   26.8020   45.1850 C   0  0  0  0  0  0  0  0  0  0  0  0
   59.2290   28.1310   45.6180 C   0  0  0  0  0  0  0  0  0  0  0  0
   59.1160   28.4340   46.9860 C   0  0  0  0  0  0  0  0  0  0  0  0
   59.0910   29.8460   47.4470 C   0  0  0  0  0  0  0  0  0  0  0  0
   59.2840   30.8990   46.5330 C   0  0  0  0  0  0  0  0  0  0  0  0
   59.2670   32.2260   46.9670 C   0  0  0  0  0  0  0  0  0  0  0  0
   59.0590   32.5200   48.3160 C   0  0  0  0  0  0  0  0  0  0  0  0
   58.8590   31.4870   49.2430 C   0  0  0  0  0  0  0  0  0  0  0  0
   58.6580   31.8110   50.6980 C   0  0  0  0  0  0  0  0  0  0  0  0
   57.2340   31.8030   51.0240 N   0  0  0  0  0  0  0  0  0  0  0  0
   56.5930   30.6680   51.6280 C   0  0  0  0  0  0  0  0  0  0  0  0
   57.2370   29.5960   51.7930 O   0  0  0  0  0  0  0  0  0  0  0  0
   55.1840   30.7330   52.0620 C   0  0  0  0  0  0  0  0  0  0  0  0
   54.7160   30.4740   53.3390 C   0  0  0  0  0  0  0  0  0  0  0  0
   53.3820   30.6450   53.3800 N   0  0  0  0  0  0  0  0  0  0  0  0
   52.9990   31.0150   52.1450 C   0  0  0  0  0  0  0  0  0  0  0  0
   51.3370   31.3570   51.6960 S   0  0  0  0  0  0  0  0  0  0  0  0
   51.0590   33.0630   51.7480 N   0  0  0  0  0  0  0  0  0  0  0  0
   51.0820   30.8670   50.2990 O   0  0  0  0  0  0  0  0  0  0  0  0
   50.4050   30.6610   52.6470 O   0  0  0  0  0  0  0  0  0  0  0  0
   54.0850   31.0820   51.2950 C   0  0  0  0  0  0  0  0  0  0  0  0
   58.8810   30.1520   48.8040 C   0  0  0  0  0  0  0  0  0  0  0  0
   59.0240   27.3800   47.9100 C   0  0  0  0  0  0  0  0  0  0  0  0
   59.0450   26.0520   47.4770 C   0  0  0  0  0  0  0  0  0  0  0  0
   55.9195   26.6041   47.0715 H   0  0  0  0  0  0  0  0  0  0  0  0
   56.8283   26.7924   45.5336 H   0  0  0  0  0  0  0  0  0  0  0  0
   55.0344   26.8836   45.5336 H   0  0  0  0  0  0  0  0  0  0  0  0
   56.1428   24.3783   46.6867 H   0  0  0  0  0  0  0  0  0  0  0  0
   53.8545   24.2915   46.4108 H   0  0  0  0  0  0  0  0  0  0  0  0
   53.8849   25.2381   44.8844 H   0  0  0  0  0  0  0  0  0  0  0  0
   54.3996   23.5171   44.8844 H   0  0  0  0  0  0  0  0  0  0  0  0
   56.2837   23.7636   43.9629 H   0  0  0  0  0  0  0  0  0  0  0  0
   57.1897   25.3247   44.1464 H   0  0  0  0  0  0  0  0  0  0  0  0
   59.3385   26.5797   44.1113 H   0  0  0  0  0  0  0  0  0  0  0  0
   59.3015   28.9459   44.8826 H   0  0  0  0  0  0  0  0  0  0  0  0
   59.4495   30.6748   45.4689 H   0  0  0  0  0  0  0  0  0  0  0  0
   59.4178   33.0416   46.2445 H   0  0  0  0  0  0  0  0  0  0  0  0
   59.0520   33.5670   48.6532 H   0  0  0  0  0  0  0  0  0  0  0  0
   59.1758   31.0598   51.3125 H   0  0  0  0  0  0  0  0  0  0  0  0
   59.0679   32.8109   50.9033 H   0  0  0  0  0  0  0  0  0  0  0  0
   56.6770   32.6560   50.7960 H   0  0  0  0  0  0  0  0  0  0  0  0
   55.3413   30.1733   54.1926 H   0  0  0  0  0  0  0  0  0  0  0  0
   52.7670   30.5160   54.2140 H   0  0  0  0  0  0  0  0  0  0  0  0
   51.4160   33.4600   50.8510 H   0  0  0  0  0  0  0  0  0  0  0  0
   54.0786   31.3558   50.2296 H   0  0  0  0  0  0  0  0  0  0  0  0
   58.7325   29.3381   49.5289 H   0  0  0  0  0  0  0  0  0  0  0  0
   58.9347   27.6022   48.9836 H   0  0  0  0  0  0  0  0  0  0  0  0
   58.9716   25.2376   48.2128 H   0  0  0  0  0  0  0  0  0  0  0  0
  1  2  1  0
  2  3  1  0
  2  4  1  0
  4  5  1  0
  5  6  1  0
  6  7  2  0
  6  8  1  0
  8  9  2  0
  9 10  1  0
 10 11  2  0
 11 12  1  0
 12 13  2  0
 13 14  1  0
 14 15  2  0
 15 16  1  0
 16 17  1  0
 17 18  1  0
 18 19  1  0
 19 20  2  0
 19 21  1  0
 21 22  2  0
 22 23  1  0
 23 24  1  0
 24 25  1  0
 25 26  1  0
 25 27  2  0
 25 28  2  0
 24 29  2  0
 16 30  2  0
 11 31  1  0
 31 32  2  0
 32  8  1  0
 30 12  1  0
 29 21  1  0
  1 33  1  0
  1 34  1  0
  1 35  1  0
  2 36  1  0
  3 37  1  0
  3 38  1  0
  3 39  1  0
  4 40  1  0
  4 41  1  0
  9 42  1  0
 10 43  1  0
 13 44  1  0
 14 45  1  0
 15 46  1  0
 17 47  1  0
 17 48  1  0
 18 49  1  0
 22 50  1  0
 23 51  1  0
 26 52  1  0
 29 53  1  0
 30 54  1  0
 31 55  1  0
 32 56  1  0
M  CHG  2   5  -1  26  -1
M  END
>  <UniqueID>  (24) 
23

>  <SMILES>  (24) 
CC(C)C[N-]C(=O)c1ccc(-c2cccc(CNC(=O)c3c[nH]c(S([NH-])(=O)=O)c3)c2)cc1

>  <Energy>  (24) 
79.8540338669216

>  <Genealogy>  (24) 
CC(C)C[N-]C(=O)c1ccc(-c2cccc(CNC(=O)c3c[nH]c(S([NH-])(=O)=O)c3)c2)cc1 (protonated)
CC(C)C[N-]C(=O)c1ccc(-c2cccc(CNC(=O)c3c[nH]c(S([NH-])(=O)=O)c3)c2)cc1 (3D coordinates assigned)
CC(C)C[N-]C(=O)c1ccc(-c2cccc(CNC(=O)c3c[nH]c(S([NH-])(=O)=O)c3)c2)cc1 (optimized conformer: 79.8540338669216 kcal/mol)

>  <smiles>  (24) 
CC(C)CNC(=O)c1ccc(-c2cccc(CNC(=O)c3c[nH]c(S(N)(=O)=O)c3)c2)cc1

>  <score_type>  (24) 
oracle

>  <origin>  (24) 
adg

>  <m_score__min__energy>  (24) 
-13.449999999999999

>  <m_primary>  (24) 
energy

$$$$
24:0
     RDKit          3D

 75 79  0  0  0  0  0  0  0  0999 V2000
   59.1560   30.1560   51.8820 C   0  0  0  0  0  0  0  0  0  0  0  0
   60.3740   30.4030   51.0270 C   0  0  0  0  0  0  0  0  0  0  0  0
   61.5880   30.7220   51.6510 C   0  0  0  0  0  0  0  0  0  0  0  0
   62.7400   30.9650   50.8870 C   0  0  0  0  0  0  0  0  0  0  0  0
   64.0010   31.2320   51.5380 N   0  0  0  0  0  0  0  0  0  0  0  0
   64.0150   31.9470   52.8240 C   0  0  0  0  0  0  0  0  0  0  0  0
   65.4090   32.5090   53.1420 C   0  0  0  0  0  0  0  0  0  0  0  0
   66.0320   33.1570   51.8880 C   0  0  0  0  0  0  0  0  0  0  0  0
   67.4090   33.7400   52.2170 C   0  0  0  0  0  0  0  0  0  0  0  0
   66.1140   32.1710   50.6850 C   0  0  0  0  0  0  0  0  0  0  0  0
   65.2780   30.9000   50.8930 C   0  0  0  0  0  0  0  0  0  0  0  0
   62.6770   30.8670   49.5270 N   0  0  0  0  0  0  0  0  0  0  0  0
   61.5170   30.5560   48.8800 C   0  0  0  0  0  0  0  0  0  0  0  0
   61.5000   30.4690   47.4800 C   0  0  0  0  0  0  0  0  0  0  0  0
   60.3210   30.1440   46.8080 C   0  0  0  0  0  0  0  0  0  0  0  0
   59.1380   29.9170   47.5160 C   0  0  0  0  0  0  0  0  0  0  0  0
   57.9600   29.5340   46.7900 N   0  0  0  0  0  0  0  0  0  0  0  0
   57.8820   29.3010   45.3790 C   0  0  0  0  0  0  0  0  0  0  0  0
   57.0560   28.4770   44.9090 O   0  0  0  0  0  0  0  0  0  0  0  0
   58.8500   29.9880   44.4670 C   0  0  0  0  0  0  0  0  0  0  0  0
   58.2100   31.1770   43.7380 C   0  0  0  0  0  0  0  0  0  0  0  0
   57.2100   31.8470   44.6360 C   0  0  0  0  0  0  0  0  0  0  0  0
   56.0620   31.3450   44.7810 O   0  0  0  0  0  0  0  0  0  0  0  0
   57.6020   32.9670   45.4400 N   0  0  0  0  0  0  0  0  0  0  0  0
   57.6790   32.8030   46.8990 C   0  0  0  0  0  0  0  0  0  0  0  0
   58.5490   33.8940   47.5340 C   0  0  0  0  0  0  0  0  0  0  0  0
   59.7290   34.1380   46.6910 N   0  0  0  0  0  0  0  0  0  0  0  0
   61.0600   33.9690   47.2130 C   0  0  0  0  0  0  0  0  0  0  0  0
   62.0970   33.5200   46.3790 C   0  0  0  0  0  0  0  0  0  0  0  0
   63.3820   33.3200   46.8930 C   0  0  0  0  0  0  0  0  0  0  0  0
   63.6410   33.5580   48.2450 C   0  0  0  0  0  0  0  0  0  0  0  0
   62.6130   34.0020   49.0870 C   0  0  0  0  0  0  0  0  0  0  0  0
   62.8830   34.2590   50.4770 C   0  0  0  0  0  0  0  0  0  0  0  0
   63.1100   34.4660   51.5930 N   0  0  0  0  0  0  0  0  0  0  0  0
   61.3260   34.2060   48.5710 C   0  0  0  0  0  0  0  0  0  0  0  0
   59.5530   34.4420   45.2610 C   0  0  0  0  0  0  0  0  0  0  0  0
   58.1090   34.1920   44.8100 C   0  0  0  0  0  0  0  0  0  0  0  0
   59.1480   29.9920   48.9190 C   0  0  0  0  0  0  0  0  0  0  0  0
   60.3310   30.3150   49.6160 C   0  0  0  0  0  0  0  0  0  0  0  0
   59.4360   30.2128   52.9442 H   0  0  0  0  0  0  0  0  0  0  0  0
   58.3934   30.9178   51.6626 H   0  0  0  0  0  0  0  0  0  0  0  0
   58.7504   29.1573   51.6626 H   0  0  0  0  0  0  0  0  0  0  0  0
   61.6382   30.7824   52.7482 H   0  0  0  0  0  0  0  0  0  0  0  0
   63.2965   32.7787   52.7782 H   0  0  0  0  0  0  0  0  0  0  0  0
   63.7412   31.2354   53.6169 H   0  0  0  0  0  0  0  0  0  0  0  0
   65.3212   33.2666   53.9347 H   0  0  0  0  0  0  0  0  0  0  0  0
   66.0567   31.6842   53.4741 H   0  0  0  0  0  0  0  0  0  0  0  0
   65.3651   33.9748   51.5774 H   0  0  0  0  0  0  0  0  0  0  0  0
   67.5335   33.7927   53.3087 H   0  0  0  0  0  0  0  0  0  0  0  0
   68.1915   33.0960   51.7894 H   0  0  0  0  0  0  0  0  0  0  0  0
   67.4912   34.7501   51.7894 H   0  0  0  0  0  0  0  0  0  0  0  0
   65.7501   32.6864   49.7839 H   0  0  0  0  0  0  0  0  0  0  0  0
   67.1646   31.8610   50.5846 H   0  0  0  0  0  0  0  0  0  0  0  0
   65.0812   30.4310   49.9176 H   0  0  0  0  0  0  0  0  0  0  0  0
   65.8358   30.2054   51.5383 H   0  0  0  0  0  0  0  0  0  0  0  0
   63.5390   31.0560   48.9670 H   0  0  0  0  0  0  0  0  0  0  0  0
   62.4209   30.6580   46.9089 H   0  0  0  0  0  0  0  0  0  0  0  0
   60.3230   30.0658   45.7108 H   0  0  0  0  0  0  0  0  0  0  0  0
   59.7006   30.3524   45.0617 H   0  0  0  0  0  0  0  0  0  0  0  0
   59.1763   29.2609   43.7088 H   0  0  0  0  0  0  0  0  0  0  0  0
   58.9922   31.8988   43.4601 H   0  0  0  0  0  0  0  0  0  0  0  0
   57.7000   30.8157   42.8328 H   0  0  0  0  0  0  0  0  0  0  0  0
   56.6648   32.8620   47.3208 H   0  0  0  0  0  0  0  0  0  0  0  0
   58.1329   31.8249   47.1163 H   0  0  0  0  0  0  0  0  0  0  0  0
   57.9650   34.8219   47.6235 H   0  0  0  0  0  0  0  0  0  0  0  0
   58.8750   33.5660   48.5321 H   0  0  0  0  0  0  0  0  0  0  0  0
   61.8972   33.3245   45.3151 H   0  0  0  0  0  0  0  0  0  0  0  0
   64.1903   32.9747   46.2316 H   0  0  0  0  0  0  0  0  0  0  0  0
   64.6516   33.3969   48.6483 H   0  0  0  0  0  0  0  0  0  0  0  0
   60.5198   34.5537   49.2337 H   0  0  0  0  0  0  0  0  0  0  0  0
   59.8049   35.4984   45.0859 H   0  0  0  0  0  0  0  0  0  0  0  0
   60.2158   33.7818   44.6824 H   0  0  0  0  0  0  0  0  0  0  0  0
   57.4799   35.0440   45.1072 H   0  0  0  0  0  0  0  0  0  0  0  0
   58.0821   34.0786   43.7162 H   0  0  0  0  0  0  0  0  0  0  0  0
   58.2225   29.7965   49.4804 H   0  0  0  0  0  0  0  0  0  0  0  0
  1  2  1  0
  2  3  2  0
  3  4  1  0
  4  5  1  0
  5  6  1  0
  6  7  1  0
  7  8  1  0
  8  9  1  0
  8 10  1  0
 10 11  1  0
  4 12  2  0
 12 13  1  0
 13 14  2  0
 14 15  1  0
 15 16  2  0
 16 17  1  0
 17 18  1  0
 18 19  2  0
 18 20  1  0
 20 21  1  0
 21 22  1  0
 22 23  2  0
 22 24  1  0
 24 25  1  0
 25 26  1  0
 26 27  1  0
 27 28  1  0
 28 29  2  0
 29 30  1  0
 30 31  2  0
 31 32  1  0
 32 33  1  0
 33 34  3  0
 32 35  2  0
 27 36  1  0
 36 37  1  0
 16 38  1  0
 38 39  2  0
 39  2  1  0
 11  5  1  0
 39 13  1  0
 37 24  1  0
 35 28  1  0
  1 40  1  0
  1 41  1  0
  1 42  1  0
  3 43  1  0
  6 44  1  0
  6 45  1  0
  7 46  1  0
  7 47  1  0
  8 48  1  0
  9 49  1  0
  9 50  1  0
  9 51  1  0
 10 52  1  0
 10 53  1  0
 11 54  1  0
 11 55  1  0
 12 56  1  0
 14 57  1  0
 15 58  1  0
 20 59  1  0
 20 60  1  0
 21 61  1  0
 21 62  1  0
 25 63  1  0
 25 64  1  0
 26 65  1  0
 26 66  1  0
 29 67  1  0
 30 68  1  0
 31 69  1  0
 35 70  1  0
 36 71  1  0
 36 72  1  0
 37 73  1  0
 37 74  1  0
 38 75  1  0
M  CHG  2  12   1  17  -1
M  END
>  <UniqueID>  (25) 
24

>  <SMILES>  (25) 
Cc1cc(N2CCC(C)CC2)[nH+]c2ccc([N-]C(=O)CCC(=O)N3CCN(c4cccc(C#N)c4)CC3)cc12

>  <Energy>  (25) 
95.31475618755675

>  <Genealogy>  (25) 
Cc1cc(N2CCC(C)CC2)[nH+]c2ccc([N-]C(=O)CCC(=O)N3CCN(c4cccc(C#N)c4)CC3)cc12 (protonated)
Cc1cc(N2CCC(C)CC2)[nH+]c2ccc([N-]C(=O)CCC(=O)N3CCN(c4cccc(C#N)c4)CC3)cc12 (3D coordinates assigned)
Cc1cc(N2CCC(C)CC2)[nH+]c2ccc([N-]C(=O)CCC(=O)N3CCN(c4cccc(C#N)c4)CC3)cc12 (nonaromatic ring conformer: 95.31475618755675 kcal/mol)

>  <smiles>  (25) 
Cc1cc(N2CCC(C)CC2)nc2ccc(NC(=O)CCC(=O)N3CCN(c4cccc(C#N)c4)CC3)cc12

>  <score_type>  (25) 
oracle

>  <origin>  (25) 
adg

>  <m_score__min__energy>  (25) 
-10.18

>  <m_primary>  (25) 
energy

$$$$
25:0
     RDKit          3D

 26 27  0  0  0  0  0  0  0  0999 V2000
   58.1720   28.9250   46.5650 O   0  0  0  0  0  0  0  0  0  0  0  0
   57.2550   28.2080   46.0770 C   0  0  0  0  0  0  0  0  0  0  0  0
   56.2920   28.8010   45.1970 N   0  0  0  0  0  0  0  0  0  0  0  0
   56.5860   29.2060   43.8270 C   0  0  0  0  0  0  0  0  0  0  0  0
   57.1220   30.6120   43.8020 C   0  0  0  0  0  0  0  0  0  0  0  0
   57.3890   31.2380   42.5730 C   0  0  0  0  0  0  0  0  0  0  0  0
   57.9100   32.5350   42.5440 C   0  0  0  0  0  0  0  0  0  0  0  0
   58.1710   33.2140   43.7370 C   0  0  0  0  0  0  0  0  0  0  0  0
   57.9130   32.5960   44.9650 C   0  0  0  0  0  0  0  0  0  0  0  0
   58.2470   33.4450   46.4630 Cl  0  0  0  0  0  0  0  0  0  0  0  0
   57.3910   31.2970   44.9980 C   0  0  0  0  0  0  0  0  0  0  0  0
   57.1810   26.7590   46.4140 C   0  0  0  0  0  0  0  0  0  0  0  0
   55.9550   26.0620   46.3690 C   0  0  0  0  0  0  0  0  0  0  0  0
   54.7730   26.7060   46.0220 O   0  0  0  0  0  0  0  0  0  0  0  0
   55.9110   24.7410   46.6820 N   0  0  0  0  0  0  0  0  0  0  0  0
   57.0280   24.0640   47.0410 C   0  0  0  0  0  0  0  0  0  0  0  0
   56.9580   22.8400   47.3270 O   0  0  0  0  0  0  0  0  0  0  0  0
   58.2210   24.7040   47.0940 N   0  0  0  0  0  0  0  0  0  0  0  0
   58.3270   26.0240   46.7920 C   0  0  0  0  0  0  0  0  0  0  0  0
   59.4630   26.5680   46.8410 O   0  0  0  0  0  0  0  0  0  0  0  0
   57.3360   28.5240   43.3999 H   0  0  0  0  0  0  0  0  0  0  0  0
   55.6597   29.1655   43.2351 H   0  0  0  0  0  0  0  0  0  0  0  0
   57.1876   30.7064   41.6313 H   0  0  0  0  0  0  0  0  0  0  0  0
   58.1150   33.0223   41.5794 H   0  0  0  0  0  0  0  0  0  0  0  0
   58.5795   34.2350   43.7104 H   0  0  0  0  0  0  0  0  0  0  0  0
   57.1909   30.8113   45.9645 H   0  0  0  0  0  0  0  0  0  0  0  0
  1  2  2  0
  2  3  1  0
  3  4  1  0
  4  5  1  0
  5  6  2  0
  6  7  1  0
  7  8  2  0
  8  9  1  0
  9 10  1  0
  9 11  2  0
  2 12  1  0
 12 13  2  0
 13 14  1  0
 13 15  1  0
 15 16  1  0
 16 17  2  0
 16 18  1  0
 18 19  1  0
 19 20  2  0
 11  5  1  0
 19 12  1  0
  4 21  1  0
  4 22  1  0
  6 23  1  0
  7 24  1  0
  8 25  1  0
 11 26  1  0
M  CHG  4   3  -1  14  -1  15  -1  18  -1
M  END
>  <UniqueID>  (26) 
25

>  <SMILES>  (26) 
O=C([N-]Cc1cccc(Cl)c1)c1c([O-])[n-]c(=O)[n-]c1=O

>  <Energy>  (26) 
30.184898615439852

>  <Genealogy>  (26) 
O=C([N-]Cc1cccc(Cl)c1)c1c([O-])[n-]c(=O)[n-]c1=O (protonated)
O=C([N-]Cc1cccc(Cl)c1)c1c([O-])[n-]c(=O)[n-]c1=O (3D coordinates assigned)
O=C([N-]Cc1cccc(Cl)c1)c1c([O-])[n-]c(=O)[n-]c1=O (optimized conformer: 30.184898615439852 kcal/mol)

>  <smiles>  (26) 
O=C(NCc1cccc(Cl)c1)c1c(O)[nH]c(=O)[nH]c1=O

>  <score_type>  (26) 
oracle

>  <origin>  (26) 
adg

>  <m_score__min__energy>  (26) 
-16.600000000000001

>  <m_primary>  (26) 
energy

$$$$
26:0
     RDKit          3D

 36 38  0  0  0  0  0  0  0  0999 V2000
   54.3990   26.7150   46.8080 H   0  0  0  0  0  0  0  0  0  0  0  0
   54.8720   26.3330   45.9980 O   0  0  0  0  0  0  0  0  0  0  0  0
   55.0070   24.9590   45.8200 C   0  0  0  0  0  0  0  0  0  0  0  0
   53.9710   24.1040   45.8450 N   0  0  0  0  0  0  0  0  0  0  0  0
   54.5620   22.9110   45.6210 C   0  0  0  0  0  0  0  0  0  0  0  0
   53.9150   21.8340   45.5610 O   0  0  0  0  0  0  0  0  0  0  0  0
   55.9010   22.9650   45.4530 N   0  0  0  0  0  0  0  0  0  0  0  0
   56.1810   24.2730   45.6050 C   0  0  0  0  0  0  0  0  0  0  0  0
   57.5090   24.8690   45.3900 C   0  0  0  0  0  0  0  0  0  0  0  0
   58.3223   24.1919   45.0897 H   0  0  0  0  0  0  0  0  0  0  0  0
   57.8130   26.1750   45.5300 C   0  0  0  0  0  0  0  0  0  0  0  0
   58.1320   26.7400   46.7510 C   0  0  0  0  0  0  0  0  0  0  0  0
   58.2279   26.2129   47.7117 H   0  0  0  0  0  0  0  0  0  0  0  0
   58.3070   28.0910   46.5340 C   0  0  0  0  0  0  0  0  0  0  0  0
   58.6400   29.0830   47.6070 C   0  0  0  0  0  0  0  0  0  0  0  0
   58.4852   28.6218   48.5936 H   0  0  0  0  0  0  0  0  0  0  0  0
   59.6911   29.3918   47.5075 H   0  0  0  0  0  0  0  0  0  0  0  0
   57.9882   29.9635   47.5075 H   0  0  0  0  0  0  0  0  0  0  0  0
   58.1330   28.3880   45.2250 N   0  0  0  0  0  0  0  0  0  0  0  0
   58.3340   29.7100   44.6150 C   0  0  0  0  0  0  0  0  0  0  0  0
   59.0980   30.2599   45.1841 H   0  0  0  0  0  0  0  0  0  0  0  0
   58.6628   29.5776   43.5737 H   0  0  0  0  0  0  0  0  0  0  0  0
   57.0530   30.4880   44.6270 C   0  0  0  0  0  0  0  0  0  0  0  0
   55.9720   29.8950   44.8880 O   0  0  0  0  0  0  0  0  0  0  0  0
   57.0840   31.9010   44.3740 N   0  0  0  0  0  0  0  0  0  0  0  0
   57.7820   32.7810   45.0280 C   0  0  0  0  0  0  0  0  0  0  0  0
   58.5780   33.7070   44.4510 N   0  0  0  0  0  0  0  0  0  0  0  0
   59.1790   34.4950   45.3820 C   0  0  0  0  0  0  0  0  0  0  0  0
   59.8661   35.3099   45.1102 H   0  0  0  0  0  0  0  0  0  0  0  0
   58.8620   34.1960   46.7030 C   0  0  0  0  0  0  0  0  0  0  0  0
   59.2461   34.7163   47.5928 H   0  0  0  0  0  0  0  0  0  0  0  0
   57.7880   32.8990   46.7030 S   0  0  0  0  0  0  0  0  0  0  0  0
   57.8700   27.2150   44.5880 C   0  0  0  0  0  0  0  0  0  0  0  0
   57.8200   27.0940   43.2520 C   0  0  0  0  0  0  0  0  0  0  0  0
   57.8744   27.9900   42.6162 H   0  0  0  0  0  0  0  0  0  0  0  0
   57.7247   26.0989   42.7931 H   0  0  0  0  0  0  0  0  0  0  0  0
  1  2  1  0
  2  3  1  0
  3  4  1  0
  4  5  1  0
  5  6  2  0
  5  7  1  0
  7  8  1  0
  8  9  1  0
  9 10  1  0
  9 11  2  3
 11 12  1  0
 12 13  1  0
 12 14  2  0
 14 15  1  0
 15 16  1  0
 15 17  1  0
 15 18  1  0
 14 19  1  0
 19 20  1  0
 20 21  1  0
 20 22  1  0
 20 23  1  0
 23 24  2  0
 23 25  1  0
 25 26  2  0
 26 27  1  0
 27 28  1  0
 28 29  1  0
 28 30  2  0
 30 31  1  0
 30 32  1  0
 19 33  1  0
 33 34  2  0
 34 35  1  0
 34 36  1  0
  8  3  2  0
 33 11  1  0
 32 26  1  0
M  CHG  3   4  -1   7  -1  27  -1
M  END
>  <UniqueID>  (27) 
26

>  <SMILES>  (27) 
C=c1c(=Cc2[n-]c(=O)[n-]c2O)cc(C)n1CC(=O)/N=c1\[n-]ccs1

>  <Energy>  (27) 
136.24513327874342

>  <Genealogy>  (27) 
C=c1c(=Cc2[n-]c(=O)[n-]c2O)cc(C)n1CC(=O)N=c1[n-]ccs1 (protonated)
C=c1c(=Cc2[n-]c(=O)[n-]c2O)cc(C)n1CC(=O)/N=c1\[n-]ccs1 (cis-trans isomerization)
C=c1c(=Cc2[n-]c(=O)[n-]c2O)cc(C)n1CC(=O)/N=c1\[n-]ccs1 (3D coordinates assigned)
C=c1c(=Cc2[n-]c(=O)[n-]c2O)cc(C)n1CC(=O)/N=c1\[n-]ccs1 (optimized conformer: 136.24513327874342 kcal/mol)

>  <smiles>  (27) 
C=c1c(=Cc2[nH]c(=O)[nH]c2O)cc(C)n1CC(=O)N=c1[nH]ccs1

>  <score_type>  (27) 
oracle

>  <origin>  (27) 
adg

>  <m_score__min__energy>  (27) 
-13.869999999999999

>  <m_primary>  (27) 
energy

$$$$
27:0
     RDKit          3D

 60 62  0  0  0  0  0  0  0  0999 V2000
   55.5860   19.8470   46.0770 C   0  0  0  0  0  0  0  0  0  0  0  0
   55.1490   20.9180   45.2460 O   0  0  0  0  0  0  0  0  0  0  0  0
   55.5860   22.2460   45.3660 C   0  0  0  0  0  0  0  0  0  0  0  0
   55.5410   22.9400   46.5900 C   0  0  0  0  0  0  0  0  0  0  0  0
   55.9880   24.2600   46.6710 C   0  0  0  0  0  0  0  0  0  0  0  0
   56.4820   24.9080   45.5330 C   0  0  0  0  0  0  0  0  0  0  0  0
   57.0820   26.5630   45.6280 S   0  0  0  0  0  0  0  0  0  0  0  0
   55.9350   27.5370   45.6130 O   0  0  0  0  0  0  0  0  0  0  0  0
   57.9540   26.8340   44.4350 O   0  0  0  0  0  0  0  0  0  0  0  0
   58.0110   26.7830   47.0800 N   0  0  0  0  0  0  0  0  0  0  0  0
   59.3790   27.1790   46.7360 C   0  0  0  0  0  0  0  0  0  0  0  0
   59.4530   28.7010   46.5610 C   0  0  0  0  0  0  0  0  0  0  0  0
   58.9510   29.4320   47.7830 C   0  0  0  0  0  0  0  0  0  0  0  0
   58.5820   28.7610   48.7870 O   0  0  0  0  0  0  0  0  0  0  0  0
   58.8330   30.8710   47.8070 N   0  0  0  0  0  0  0  0  0  0  0  0
   58.6020   31.5710   49.0750 C   0  0  0  0  0  0  0  0  0  0  0  0
   59.3220   32.9240   49.0490 C   0  0  0  0  0  0  0  0  0  0  0  0
   58.9220   33.7820   47.8990 N   0  0  0  0  0  0  0  0  0  0  0  0
   60.0540   34.6000   47.4100 C   0  0  0  0  0  0  0  0  0  0  0  0
   61.3700   33.9370   47.7280 C   0  0  0  0  0  0  0  0  0  0  0  0
   61.9300   32.9980   46.8450 C   0  0  0  0  0  0  0  0  0  0  0  0
   63.1410   32.3730   47.1580 C   0  0  0  0  0  0  0  0  0  0  0  0
   63.7980   32.6760   48.3540 C   0  0  0  0  0  0  0  0  0  0  0  0
   63.2470   33.6080   49.2370 C   0  0  0  0  0  0  0  0  0  0  0  0
   62.0360   34.2350   48.9280 C   0  0  0  0  0  0  0  0  0  0  0  0
   58.2590   33.0510   46.7910 C   0  0  0  0  0  0  0  0  0  0  0  0
   58.8520   31.6550   46.5640 C   0  0  0  0  0  0  0  0  0  0  0  0
   56.5300   24.2240   44.3130 C   0  0  0  0  0  0  0  0  0  0  0  0
   56.0860   22.8900   44.2230 C   0  0  0  0  0  0  0  0  0  0  0  0
   56.1270   22.1720   43.0160 O   0  0  0  0  0  0  0  0  0  0  0  0
   57.0330   21.1090   42.7420 C   0  0  0  0  0  0  0  0  0  0  0  0
   55.4699   20.1315   47.1332 H   0  0  0  0  0  0  0  0  0  0  0  0
   54.9812   18.9518   45.8698 H   0  0  0  0  0  0  0  0  0  0  0  0
   56.6444   19.6305   45.8698 H   0  0  0  0  0  0  0  0  0  0  0  0
   55.1511   22.4390   47.4883 H   0  0  0  0  0  0  0  0  0  0  0  0
   55.9518   24.7928   47.6327 H   0  0  0  0  0  0  0  0  0  0  0  0
   57.5620   27.5690   47.6060 H   0  0  0  0  0  0  0  0  0  0  0  0
   60.0615   26.8708   47.5417 H   0  0  0  0  0  0  0  0  0  0  0  0
   59.6715   26.6913   45.7944 H   0  0  0  0  0  0  0  0  0  0  0  0
   60.4993   28.9879   46.3795 H   0  0  0  0  0  0  0  0  0  0  0  0
   58.8132   28.9784   45.7103 H   0  0  0  0  0  0  0  0  0  0  0  0
   57.5228   31.7323   49.2137 H   0  0  0  0  0  0  0  0  0  0  0  0
   58.9912   30.9639   49.9057 H   0  0  0  0  0  0  0  0  0  0  0  0
   59.0916   33.4601   49.9814 H   0  0  0  0  0  0  0  0  0  0  0  0
   60.3976   32.7188   48.9439 H   0  0  0  0  0  0  0  0  0  0  0  0
   59.9660   34.7228   46.3204 H   0  0  0  0  0  0  0  0  0  0  0  0
   60.0229   35.5796   47.9094 H   0  0  0  0  0  0  0  0  0  0  0  0
   61.4140   32.7539   45.9047 H   0  0  0  0  0  0  0  0  0  0  0  0
   63.5774   31.6416   46.4619 H   0  0  0  0  0  0  0  0  0  0  0  0
   64.7489   32.1806   48.6000 H   0  0  0  0  0  0  0  0  0  0  0  0
   63.7664   33.8488   50.1763 H   0  0  0  0  0  0  0  0  0  0  0  0
   61.6031   34.9649   49.6279 H   0  0  0  0  0  0  0  0  0  0  0  0
   57.1904   32.9448   47.0293 H   0  0  0  0  0  0  0  0  0  0  0  0
   58.4148   33.6318   45.8699 H   0  0  0  0  0  0  0  0  0  0  0  0
   58.2599   31.1318   45.7987 H   0  0  0  0  0  0  0  0  0  0  0  0
   59.8951   31.7649   46.2326 H   0  0  0  0  0  0  0  0  0  0  0  0
   56.9174   24.7319   43.4174 H   0  0  0  0  0  0  0  0  0  0  0  0
   57.3959   20.6832   43.6891 H   0  0  0  0  0  0  0  0  0  0  0  0
   56.5181   20.3285   42.1626 H   0  0  0  0  0  0  0  0  0  0  0  0
   57.8852   21.4937   42.1626 H   0  0  0  0  0  0  0  0  0  0  0  0
  1  2  1  0
  2  3  1  0
  3  4  2  0
  4  5  1  0
  5  6  2  0
  6  7  1  0
  7  8  2  0
  7  9  2  0
  7 10  1  0
 10 11  1  0
 11 12  1  0
 12 13  1  0
 13 14  2  0
 13 15  1  0
 15 16  1  0
 16 17  1  0
 17 18  1  0
 18 19  1  0
 19 20  1  0
 20 21  2  0
 21 22  1  0
 22 23  2  0
 23 24  1  0
 24 25  2  0
 18 26  1  0
 26 27  1  0
  6 28  1  0
 28 29  2  0
 29 30  1  0
 30 31  1  0
 29  3  1  0
 27 15  1  0
 25 20  1  0
  1 32  1  0
  1 33  1  0
  1 34  1  0
  4 35  1  0
  5 36  1  0
 10 37  1  0
 11 38  1  0
 11 39  1  0
 12 40  1  0
 12 41  1  0
 16 42  1  0
 16 43  1  0
 17 44  1  0
 17 45  1  0
 19 46  1  0
 19 47  1  0
 21 48  1  0
 22 49  1  0
 23 50  1  0
 24 51  1  0
 25 52  1  0
 26 53  1  0
 26 54  1  0
 27 55  1  0
 27 56  1  0
 28 57  1  0
 31 58  1  0
 31 59  1  0
 31 60  1  0
M  END
>  <UniqueID>  (28) 
27

>  <SMILES>  (28) 
COc1ccc(S(=O)(=O)NCCC(=O)N2CCN(Cc3ccccc3)CC2)cc1OC

>  <Energy>  (28) 
63.26232887961217

>  <Genealogy>  (28) 
COc1ccc(S(=O)(=O)NCCC(=O)N2CCN(Cc3ccccc3)CC2)cc1OC (3D coordinates assigned)
COc1ccc(S(=O)(=O)NCCC(=O)N2CCN(Cc3ccccc3)CC2)cc1OC (nonaromatic ring conformer: 63.26232887961217 kcal/mol)

>  <smiles>  (28) 
COc1ccc(S(=O)(=O)NCCC(=O)N2CCN(Cc3ccccc3)CC2)cc1OC

>  <score_type>  (28) 
oracle

>  <origin>  (28) 
adg

>  <m_score__min__energy>  (28) 
-8.6899999999999995

>  <m_primary>  (28) 
energy

$$$$
28:0
     RDKit          3D

 36 38  0  0  0  0  0  0  0  0999 V2000
   53.7360   25.1980   45.6180 N   0  0  0  0  0  0  0  0  0  0  0  0
   54.9510   25.4420   45.9870 C   0  0  0  0  0  0  0  0  0  0  0  0
   55.7450   24.4140   46.4220 N   0  0  0  0  0  0  0  0  0  0  0  0
   57.0330   24.6290   46.8190 C   0  0  0  0  0  0  0  0  0  0  0  0
   57.7500   23.6730   47.2160 O   0  0  0  0  0  0  0  0  0  0  0  0
   57.5200   25.9280   46.7730 C   0  0  0  0  0  0  0  0  0  0  0  0
   58.7440   26.4780   47.0890 C   0  0  0  0  0  0  0  0  0  0  0  0
   58.5960   27.8350   46.8100 C   0  0  0  0  0  0  0  0  0  0  0  0
   59.8830   29.0660   47.0150 S   0  0  0  0  0  0  0  0  0  0  0  0
   59.5600   29.9000   45.4220 C   0  0  0  0  0  0  0  0  0  0  0  0
   58.4610   30.9190   45.5570 C   0  0  0  0  0  0  0  0  0  0  0  0
   57.2790   30.5680   45.2940 O   0  0  0  0  0  0  0  0  0  0  0  0
   58.7390   32.2830   45.9360 N   0  0  0  0  0  0  0  0  0  0  0  0
   59.9260   32.6010   46.7460 C   0  0  0  0  0  0  0  0  0  0  0  0
   59.8860   34.0420   47.2650 C   0  0  0  0  0  0  0  0  0  0  0  0
   59.6390   35.0410   46.1250 C   0  0  0  0  0  0  0  0  0  0  0  0
   58.5260   34.6040   45.1460 C   0  0  0  0  0  0  0  0  0  0  0  0
   57.7790   33.3440   45.6010 C   0  0  0  0  0  0  0  0  0  0  0  0
   57.3540   28.1180   46.3510 N   0  0  0  0  0  0  0  0  0  0  0  0
   56.7170   26.9370   46.3370 C   0  0  0  0  0  0  0  0  0  0  0  0
   55.4400   26.7210   45.9410 N   0  0  0  0  0  0  0  0  0  0  0  0
   53.0960   25.9630   45.3070 H   0  0  0  0  0  0  0  0  0  0  0  0
   59.6359   25.9621   47.4743 H   0  0  0  0  0  0  0  0  0  0  0  0
   60.4786   30.4045   45.0879 H   0  0  0  0  0  0  0  0  0  0  0  0
   59.2461   29.1427   44.6885 H   0  0  0  0  0  0  0  0  0  0  0  0
   59.9672   31.9137   47.6039 H   0  0  0  0  0  0  0  0  0  0  0  0
   60.8163   32.4894   46.1097 H   0  0  0  0  0  0  0  0  0  0  0  0
   59.0760   34.1341   48.0035 H   0  0  0  0  0  0  0  0  0  0  0  0
   60.8593   34.2725   47.7227 H   0  0  0  0  0  0  0  0  0  0  0  0
   59.3537   36.0075   46.5660 H   0  0  0  0  0  0  0  0  0  0  0  0
   60.5713   35.1032   45.5446 H   0  0  0  0  0  0  0  0  0  0  0  0
   57.8005   35.4256   45.0527 H   0  0  0  0  0  0  0  0  0  0  0  0
   59.0098   34.3677   44.1868 H   0  0  0  0  0  0  0  0  0  0  0  0
   57.1732   33.5803   46.4882 H   0  0  0  0  0  0  0  0  0  0  0  0
   57.1275   32.9967   44.7856 H   0  0  0  0  0  0  0  0  0  0  0  0
   56.9790   29.0480   46.0650 H   0  0  0  0  0  0  0  0  0  0  0  0
  1  2  2  3
  2  3  1  0
  3  4  1  0
  4  5  2  0
  4  6  1  0
  6  7  1  0
  7  8  2  0
  8  9  1  0
  9 10  1  0
 10 11  1  0
 11 12  2  0
 11 13  1  0
 13 14  1  0
 14 15  1  0
 15 16  1  0
 16 17  1  0
 17 18  1  0
  8 19  1  0
 19 20  1  0
 20 21  1  0
 21  2  1  0
 20  6  2  0
 18 13  1  0
  1 22  1  0
  7 23  1  0
 10 24  1  0
 10 25  1  0
 14 26  1  0
 14 27  1  0
 15 28  1  0
 15 29  1  0
 16 30  1  0
 16 31  1  0
 17 32  1  0
 17 33  1  0
 18 34  1  0
 18 35  1  0
 19 36  1  0
M  CHG  2   3  -1  21  -1
M  END
>  <UniqueID>  (29) 
28

>  <SMILES>  (29) 
N=c1[n-]c(=O)c2cc(SCC(=O)N3CCCCC3)[nH]c2[n-]1

>  <Energy>  (29) 
68.83252554081778

>  <Genealogy>  (29) 
N=c1[n-]c(=O)c2cc(SCC(=O)N3CCCCC3)[nH]c2[n-]1 (protonated)
N=c1[n-]c(=O)c2cc(SCC(=O)N3CCCCC3)[nH]c2[n-]1 (3D coordinates assigned)
N=c1[n-]c(=O)c2cc(SCC(=O)N3CCCCC3)[nH]c2[n-]1 (nonaromatic ring conformer: 68.83252554081778 kcal/mol)

>  <smiles>  (29) 
N=c1[nH]c(=O)c2cc(SCC(=O)N3CCCCC3)[nH]c2[nH]1

>  <score_type>  (29) 
oracle

>  <origin>  (29) 
adg

>  <m_score__min__energy>  (29) 
-12.07

>  <m_primary>  (29) 
energy

$$$$
29:0
     RDKit          3D

 62 66  0  0  0  0  0  0  0  0999 V2000
   58.6050   29.7800   49.7930 C   0  0  0  0  0  0  0  0  0  0  0  0
   58.7740   31.1910   49.7180 O   0  0  0  0  0  0  0  0  0  0  0  0
   58.6620   32.0630   50.8130 C   0  0  0  0  0  0  0  0  0  0  0  0
   57.9320   31.7210   51.9700 C   0  0  0  0  0  0  0  0  0  0  0  0
   57.8490   32.6130   53.0420 C   0  0  0  0  0  0  0  0  0  0  0  0
   58.4900   33.8490   52.9730 C   0  0  0  0  0  0  0  0  0  0  0  0
   59.2150   34.2000   51.8330 C   0  0  0  0  0  0  0  0  0  0  0  0
   59.3070   33.3080   50.7440 C   0  0  0  0  0  0  0  0  0  0  0  0
   60.0290   33.6190   49.5780 O   0  0  0  0  0  0  0  0  0  0  0  0
   59.5720   34.4760   48.5300 C   0  0  0  0  0  0  0  0  0  0  0  0
   59.2510   33.6840   47.3010 C   0  0  0  0  0  0  0  0  0  0  0  0
   58.2440   32.7520   47.1790 C   0  0  0  0  0  0  0  0  0  0  0  0
   58.3290   32.3440   45.8630 C   0  0  0  0  0  0  0  0  0  0  0  0
   57.4460   31.3860   45.1740 C   0  0  0  0  0  0  0  0  0  0  0  0
   56.2860   31.7700   44.8570 O   0  0  0  0  0  0  0  0  0  0  0  0
   57.8740   30.0520   44.8280 N   0  0  0  0  0  0  0  0  0  0  0  0
   56.9860   28.9020   44.7340 C   0  0  0  0  0  0  0  0  0  0  0  0
   57.8950   27.6820   44.6650 C   0  0  0  0  0  0  0  0  0  0  0  0
   59.2600   28.2140   44.2400 C   0  0  0  0  0  0  0  0  0  0  0  0
   59.2760   29.6810   44.6730 C   0  0  2  0  0  0  0  0  0  0  0  0
   60.0270   29.8470   45.9660 C   0  0  0  0  0  0  0  0  0  0  0  0
   60.6410   30.9760   46.3630 N   0  0  0  0  0  0  0  0  0  0  0  0
   61.1320   30.6380   47.5740 C   0  0  0  0  0  0  0  0  0  0  0  0
   61.9000   31.5400   48.4690 C   0  0  0  0  0  0  0  0  0  0  0  0
   62.5740   32.6470   47.9300 C   0  0  0  0  0  0  0  0  0  0  0  0
   63.3120   33.5000   48.7500 C   0  0  0  0  0  0  0  0  0  0  0  0
   63.3990   33.2670   50.1310 C   0  0  0  0  0  0  0  0  0  0  0  0
   64.2080   34.2050   50.9890 C   0  0  0  0  0  0  0  0  0  0  0  0
   62.7190   32.1610   50.6910 C   0  0  0  0  0  0  0  0  0  0  0  0
   62.7860   31.8710   52.1690 C   0  0  0  0  0  0  0  0  0  0  0  0
   61.9780   31.3070   49.8540 C   0  0  0  0  0  0  0  0  0  0  0  0
   60.8260   29.3610   47.8870 N   0  0  0  0  0  0  0  0  0  0  0  0
   60.1440   28.9090   46.8760 O   0  0  0  0  0  0  0  0  0  0  0  0
   59.3050   33.0320   45.2390 N   0  0  0  0  0  0  0  0  0  0  0  0
   59.8700   33.8470   46.1170 N   0  0  0  0  0  0  0  0  0  0  0  0
   58.5680   29.4707   50.8480 H   0  0  0  0  0  0  0  0  0  0  0  0
   57.6664   29.4961   49.2945 H   0  0  0  0  0  0  0  0  0  0  0  0
   59.4500   29.2825   49.2945 H   0  0  0  0  0  0  0  0  0  0  0  0
   57.4251   30.7465   52.0288 H   0  0  0  0  0  0  0  0  0  0  0  0
   57.2774   32.3398   53.9412 H   0  0  0  0  0  0  0  0  0  0  0  0
   58.4243   34.5492   53.8188 H   0  0  0  0  0  0  0  0  0  0  0  0
   59.7173   35.1774   51.7835 H   0  0  0  0  0  0  0  0  0  0  0  0
   58.6678   35.0054   48.8649 H   0  0  0  0  0  0  0  0  0  0  0  0
   60.3683   35.1956   48.2890 H   0  0  0  0  0  0  0  0  0  0  0  0
   57.5371   32.4122   47.9503 H   0  0  0  0  0  0  0  0  0  0  0  0
   56.3362   28.8462   45.6198 H   0  0  0  0  0  0  0  0  0  0  0  0
   56.3288   28.9681   43.8544 H   0  0  0  0  0  0  0  0  0  0  0  0
   57.9614   27.1960   45.6496 H   0  0  0  0  0  0  0  0  0  0  0  0
   57.5135   26.9283   43.9605 H   0  0  0  0  0  0  0  0  0  0  0  0
   60.0641   27.6557   44.7417 H   0  0  0  0  0  0  0  0  0  0  0  0
   59.4231   28.1048   43.1577 H   0  0  0  0  0  0  0  0  0  0  0  0
   59.7851   30.3213   43.9376 H   0  0  0  0  0  0  0  0  0  0  0  0
   60.7060   31.8780   45.8440 H   0  0  0  0  0  0  0  0  0  0  0  0
   62.5195   32.8438   46.8491 H   0  0  0  0  0  0  0  0  0  0  0  0
   63.8311   34.3642   48.3098 H   0  0  0  0  0  0  0  0  0  0  0  0
   64.0192   33.9861   52.0503 H   0  0  0  0  0  0  0  0  0  0  0  0
   65.2778   34.0703   50.7715 H   0  0  0  0  0  0  0  0  0  0  0  0
   63.9176   35.2434   50.7715 H   0  0  0  0  0  0  0  0  0  0  0  0
   62.5734   32.7911   52.7332 H   0  0  0  0  0  0  0  0  0  0  0  0
   62.0416   31.1030   52.4261 H   0  0  0  0  0  0  0  0  0  0  0  0
   63.7918   31.5073   52.4261 H   0  0  0  0  0  0  0  0  0  0  0  0
   61.4519   30.4444   50.2890 H   0  0  0  0  0  0  0  0  0  0  0  0
  1  2  1  0
  2  3  1  0
  3  4  2  0
  4  5  1  0
  5  6  2  0
  6  7  1  0
  7  8  2  0
  8  9  1  0
  9 10  1  0
 10 11  1  0
 11 12  1  0
 12 13  2  0
 13 14  1  0
 14 15  2  0
 14 16  1  0
 16 17  1  0
 17 18  1  0
 18 19  1  0
 19 20  1  0
 20 21  1  0
 21 22  2  0
 22 23  1  0
 23 24  1  0
 24 25  2  0
 25 26  1  0
 26 27  2  0
 27 28  1  0
 27 29  1  0
 29 30  1  0
 29 31  2  0
 23 32  2  0
 32 33  1  0
 13 34  1  0
 34 35  1  0
  8  3  1  0
 35 11  2  0
 20 16  1  0
 33 21  1  0
 31 24  1  0
  1 36  1  0
  1 37  1  0
  1 38  1  0
  4 39  1  0
  5 40  1  0
  6 41  1  0
  7 42  1  0
 10 43  1  0
 10 44  1  0
 12 45  1  0
 17 46  1  0
 17 47  1  0
 18 48  1  0
 18 49  1  0
 19 50  1  0
 19 51  1  0
 20 52  1  6
 22 53  1  0
 25 54  1  0
 26 55  1  0
 28 56  1  0
 28 57  1  0
 28 58  1  0
 30 59  1  0
 30 60  1  0
 30 61  1  0
 31 62  1  0
M  CHG  2  22   1  34  -1
M  END
>  <UniqueID>  (30) 
29

>  <SMILES>  (30) 
COc1ccccc1OCc1cc(C(=O)N2CCC[C@@H]2c2[nH+]c(-c3ccc(C)c(C)c3)no2)[n-]n1

>  <Energy>  (30) 
133.5233773016106

>  <Genealogy>  (30) 
COc1ccccc1OCc1cc(C(=O)N2CCCC2c2[nH+]c(-c3ccc(C)c(C)c3)no2)[n-]n1 (protonated)
COc1ccccc1OCc1cc(C(=O)N2CCC[C@@H]2c2[nH+]c(-c3ccc(C)c(C)c3)no2)[n-]n1 (chirality)
COc1ccccc1OCc1cc(C(=O)N2CCC[C@@H]2c2[nH+]c(-c3ccc(C)c(C)c3)no2)[n-]n1 (3D coordinates assigned)
COc1ccccc1OCc1cc(C(=O)N2CCC[C@@H]2c2[nH+]c(-c3ccc(C)c(C)c3)no2)[n-]n1 (nonaromatic ring conformer: 133.5233773016106 kcal/mol)

>  <smiles>  (30) 
COc1ccccc1OCc1cc(C(=O)N2CCCC2c2nc(-c3ccc(C)c(C)c3)no2)[nH]n1

>  <score_type>  (30) 
oracle

>  <origin>  (30) 
adg

>  <m_score__min__energy>  (30) 
-8.0899999999999999

>  <m_primary>  (30) 
energy

$$$$
30:0
     RDKit          3D

 50 53  0  0  0  0  0  0  0  0999 V2000
   63.7680   34.2530   47.9990 C   0  0  0  0  0  0  0  0  0  0  0  0
   62.8080   33.1950   47.5410 C   0  0  0  0  0  0  0  0  0  0  0  0
   61.5140   33.5430   47.1380 C   0  0  0  0  0  0  0  0  0  0  0  0
   60.6060   32.5570   46.7440 C   0  0  0  0  0  0  0  0  0  0  0  0
   60.9620   31.1870   46.7570 C   0  0  0  0  0  0  0  0  0  0  0  0
   60.0170   30.1550   46.3410 N   0  0  0  0  0  0  0  0  0  0  0  0
   60.4380   29.1690   45.3170 C   0  0  0  0  0  0  0  0  0  0  0  0
   59.4190   28.0500   44.9960 C   0  0  0  0  0  0  0  0  0  0  0  0
   58.4510   27.7900   46.0770 N   0  0  0  0  0  0  0  0  0  0  0  0
   59.0320   27.1410   47.2470 C   0  0  0  0  0  0  0  0  0  0  0  0
   59.9520   27.6630   47.8630 O   0  0  0  0  0  0  0  0  0  0  0  0
   58.4960   25.8200   47.7420 C   0  0  0  0  0  0  0  0  0  0  0  0
   57.6490   25.1990   46.7130 N   0  0  0  0  0  0  0  0  0  0  0  0
   56.3900   25.6340   46.6020 N   0  0  0  0  0  0  0  0  0  0  0  0
   55.5310   25.1630   45.6650 C   0  0  0  0  0  0  0  0  0  0  0  0
   54.3580   25.6220   45.6160 O   0  0  0  0  0  0  0  0  0  0  0  0
   55.9620   24.1810   44.7630 C   0  0  0  0  0  0  0  0  0  0  0  0
   55.1120   23.6680   43.7650 C   0  0  0  0  0  0  0  0  0  0  0  0
   55.5740   22.6870   42.8850 C   0  0  0  0  0  0  0  0  0  0  0  0
   56.8800   22.2090   42.9900 C   0  0  0  0  0  0  0  0  0  0  0  0
   57.7350   22.7090   43.9750 C   0  0  0  0  0  0  0  0  0  0  0  0
   57.2850   23.6990   44.8710 C   0  0  0  0  0  0  0  0  0  0  0  0
   58.1240   24.2230   45.8720 C   0  0  0  0  0  0  0  0  0  0  0  0
   59.3030   23.7920   45.9940 O   0  0  0  0  0  0  0  0  0  0  0  0
   57.7630   29.0420   46.4160 C   0  0  0  0  0  0  0  0  0  0  0  0
   58.7160   30.0640   47.0340 C   0  0  0  0  0  0  0  0  0  0  0  0
   62.2710   30.8560   47.1850 C   0  0  0  0  0  0  0  0  0  0  0  0
   63.1750   31.8460   47.5770 C   0  0  0  0  0  0  0  0  0  0  0  0
   63.7899   34.2771   49.0985 H   0  0  0  0  0  0  0  0  0  0  0  0
   64.7741   34.0253   47.6171 H   0  0  0  0  0  0  0  0  0  0  0  0
   63.4439   35.2323   47.6171 H   0  0  0  0  0  0  0  0  0  0  0  0
   61.2096   34.6000   47.1314 H   0  0  0  0  0  0  0  0  0  0  0  0
   59.5972   32.8503   46.4181 H   0  0  0  0  0  0  0  0  0  0  0  0
   60.6412   29.7170   44.3851 H   0  0  0  0  0  0  0  0  0  0  0  0
   61.3166   28.6590   45.7389 H   0  0  0  0  0  0  0  0  0  0  0  0
   58.8601   28.3399   44.0940 H   0  0  0  0  0  0  0  0  0  0  0  0
   59.9970   27.1243   44.8580 H   0  0  0  0  0  0  0  0  0  0  0  0
   57.7330   27.1330   45.6870 H   0  0  0  0  0  0  0  0  0  0  0  0
   59.3372   25.1501   47.9733 H   0  0  0  0  0  0  0  0  0  0  0  0
   57.8943   25.9926   48.6465 H   0  0  0  0  0  0  0  0  0  0  0  0
   54.0808   24.0410   43.6781 H   0  0  0  0  0  0  0  0  0  0  0  0
   54.9058   22.2901   42.1066 H   0  0  0  0  0  0  0  0  0  0  0  0
   57.2380   21.4355   42.2947 H   0  0  0  0  0  0  0  0  0  0  0  0
   58.7641   22.3282   44.0515 H   0  0  0  0  0  0  0  0  0  0  0  0
   57.3285   29.4688   45.5000 H   0  0  0  0  0  0  0  0  0  0  0  0
   56.9811   28.8131   47.1551 H   0  0  0  0  0  0  0  0  0  0  0  0
   58.2346   31.0525   47.0009 H   0  0  0  0  0  0  0  0  0  0  0  0
   58.9213   29.7324   48.0625 H   0  0  0  0  0  0  0  0  0  0  0  0
   62.5811   29.8009   47.2091 H   0  0  0  0  0  0  0  0  0  0  0  0
   64.1823   31.5627   47.9163 H   0  0  0  0  0  0  0  0  0  0  0  0
  1  2  1  0
  2  3  2  0
  3  4  1  0
  4  5  2  0
  5  6  1  0
  6  7  1  0
  7  8  1  0
  8  9  1  0
  9 10  1  0
 10 11  2  0
 10 12  1  0
 12 13  1  0
 13 14  1  0
 14 15  1  0
 15 16  2  0
 15 17  1  0
 17 18  2  0
 18 19  1  0
 19 20  2  0
 20 21  1  0
 21 22  2  0
 22 23  1  0
 23 24  2  0
  9 25  1  0
 25 26  1  0
  5 27  1  0
 27 28  2  0
 28  2  1  0
 26  6  1  0
 23 13  1  0
 22 17  1  0
  1 29  1  0
  1 30  1  0
  1 31  1  0
  3 32  1  0
  4 33  1  0
  7 34  1  0
  7 35  1  0
  8 36  1  0
  8 37  1  0
  9 38  1  0
 12 39  1  0
 12 40  1  0
 18 41  1  0
 19 42  1  0
 20 43  1  0
 21 44  1  0
 25 45  1  0
 25 46  1  0
 26 47  1  0
 26 48  1  0
 27 49  1  0
 28 50  1  0
M  CHG  2   9   1  14  -1
M  END
>  <UniqueID>  (31) 
30

>  <SMILES>  (31) 
Cc1ccc(N2CC[NH+](C(=O)Cn3[n-]c(=O)c4ccccc4c3=O)CC2)cc1

>  <Energy>  (31) 
72.41075311361881

>  <Genealogy>  (31) 
Cc1ccc(N2CC[NH+](C(=O)Cn3[n-]c(=O)c4ccccc4c3=O)CC2)cc1 (protonated)
Cc1ccc(N2CC[NH+](C(=O)Cn3[n-]c(=O)c4ccccc4c3=O)CC2)cc1 (3D coordinates assigned)
Cc1ccc(N2CC[NH+](C(=O)Cn3[n-]c(=O)c4ccccc4c3=O)CC2)cc1 (nonaromatic ring conformer: 72.41075311361881 kcal/mol)

>  <smiles>  (31) 
Cc1ccc(N2CCN(C(=O)Cn3[nH]c(=O)c4ccccc4c3=O)CC2)cc1

>  <score_type>  (31) 
oracle

>  <origin>  (31) 
adg

>  <m_score__min__energy>  (31) 
-9.1899999999999995

>  <m_primary>  (31) 
energy

$$$$
31:0
     RDKit          3D

 53 57  0  0  0  0  0  0  0  0999 V2000
   57.3830   21.2370   43.1610 C   0  0  0  0  0  0  0  0  0  0  0  0
   57.4650   22.4360   43.7530 C   0  0  0  0  0  0  0  0  0  0  0  0
   58.5540   22.7240   44.7580 C   0  0  0  0  0  0  0  0  0  0  0  0
   58.0180   23.6350   45.8650 C   0  0  0  0  0  0  0  0  0  0  0  0
   57.3730   24.8240   45.2770 N   0  0  0  0  0  0  0  0  0  0  0  0
   57.0070   26.0510   46.4770 S   0  0  0  0  0  0  0  0  0  0  0  0
   55.5280   26.0460   46.7450 O   0  0  0  0  0  0  0  0  0  0  0  0
   57.7000   25.6700   47.7540 O   0  0  0  0  0  0  0  0  0  0  0  0
   57.4740   27.6880   46.0560 N   0  0  0  0  0  0  0  0  0  0  0  0
   56.7480   28.2410   44.9040 C   0  0  0  0  0  0  0  0  0  0  0  0
   57.0160   29.7080   44.8560 C   0  0  0  0  0  0  0  0  0  0  0  0
   56.1180   30.5200   44.5060 O   0  0  0  0  0  0  0  0  0  0  0  0
   58.3320   30.1550   45.2060 N   0  0  0  0  0  0  0  0  0  0  0  0
   58.5890   31.5490   45.5910 C   0  0  0  0  0  0  0  0  0  0  0  0
   59.5430   31.5910   46.7520 C   0  0  0  0  0  0  0  0  0  0  0  0
   59.4160   32.5650   47.7630 C   0  0  0  0  0  0  0  0  0  0  0  0
   60.3430   32.5600   48.8030 C   0  0  0  0  0  0  0  0  0  0  0  0
   61.3610   31.6520   48.8560 C   0  0  0  0  0  0  0  0  0  0  0  0
   61.5260   30.6860   47.8640 C   0  0  0  0  0  0  0  0  0  0  0  0
   60.6000   30.6520   46.8020 C   0  0  0  0  0  0  0  0  0  0  0  0
   60.7560   29.6750   45.6690 C   0  0  0  0  0  0  0  0  0  0  0  0
   59.3880   29.1230   45.2080 C   0  0  1  0  0  0  0  0  0  0  0  0
   58.9430   27.9000   46.0570 C   0  0  0  0  0  0  0  0  0  0  0  0
   62.1920   31.8940   50.0640 C   0  0  0  0  0  0  0  0  0  0  0  0
   61.4840   33.1020   50.7250 C   0  0  0  0  0  0  0  0  0  0  0  0
   60.3820   33.4220   49.8760 O   0  0  0  0  0  0  0  0  0  0  0  0
   56.1950   24.4660   44.4720 C   0  0  0  0  0  0  0  0  0  0  0  0
   56.6020   23.5830   43.2880 C   0  0  0  0  0  0  0  0  0  0  0  0
   56.5854   21.0379   42.4301 H   0  0  0  0  0  0  0  0  0  0  0  0
   58.1133   20.4516   43.4058 H   0  0  0  0  0  0  0  0  0  0  0  0
   58.9005   21.7784   45.2005 H   0  0  0  0  0  0  0  0  0  0  0  0
   59.3900   23.2270   44.2500 H   0  0  0  0  0  0  0  0  0  0  0  0
   57.2815   23.0818   46.4663 H   0  0  0  0  0  0  0  0  0  0  0  0
   58.8551   23.9580   46.5014 H   0  0  0  0  0  0  0  0  0  0  0  0
   57.1005   27.7659   43.9766 H   0  0  0  0  0  0  0  0  0  0  0  0
   55.6691   28.0510   45.0032 H   0  0  0  0  0  0  0  0  0  0  0  0
   59.0279   32.0880   44.7384 H   0  0  0  0  0  0  0  0  0  0  0  0
   57.6413   32.0248   45.8833 H   0  0  0  0  0  0  0  0  0  0  0  0
   58.6066   33.3092   47.7317 H   0  0  0  0  0  0  0  0  0  0  0  0
   62.3583   29.9682   47.9092 H   0  0  0  0  0  0  0  0  0  0  0  0
   61.2406   30.1832   44.8223 H   0  0  0  0  0  0  0  0  0  0  0  0
   61.3688   28.8319   46.0208 H   0  0  0  0  0  0  0  0  0  0  0  0
   59.5315   28.7915   44.1690 H   0  0  0  0  0  0  0  0  0  0  0  0
   59.4261   26.9989   45.6512 H   0  0  0  0  0  0  0  0  0  0  0  0
   59.2428   28.0986   47.0965 H   0  0  0  0  0  0  0  0  0  0  0  0
   62.1886   31.0186   50.7301 H   0  0  0  0  0  0  0  0  0  0  0  0
   63.2519   32.0795   49.8357 H   0  0  0  0  0  0  0  0  0  0  0  0
   61.1272   32.8333   51.7302 H   0  0  0  0  0  0  0  0  0  0  0  0
   62.1667   33.9568   50.8402 H   0  0  0  0  0  0  0  0  0  0  0  0
   55.4787   23.9186   45.1023 H   0  0  0  0  0  0  0  0  0  0  0  0
   55.7343   25.3875   44.0865 H   0  0  0  0  0  0  0  0  0  0  0  0
   55.6970   23.1829   42.8075 H   0  0  0  0  0  0  0  0  0  0  0  0
   57.1754   24.1910   42.5727 H   0  0  0  0  0  0  0  0  0  0  0  0
  1  2  2  0
  2  3  1  0
  3  4  1  0
  4  5  1  0
  5  6  1  0
  6  7  2  0
  6  8  2  0
  6  9  1  0
  9 10  1  0
 10 11  1  0
 11 12  2  0
 11 13  1  0
 13 14  1  0
 14 15  1  0
 15 16  2  0
 16 17  1  0
 17 18  2  0
 18 19  1  0
 19 20  2  0
 20 21  1  0
 21 22  1  0
 22 23  1  0
 18 24  1  0
 24 25  1  0
 25 26  1  0
  5 27  1  0
 27 28  1  0
 28  2  1  0
 23  9  1  0
 22 13  1  0
 20 15  1  0
 26 17  1  0
  1 29  1  0
  1 30  1  0
  3 31  1  0
  3 32  1  0
  4 33  1  0
  4 34  1  0
 10 35  1  0
 10 36  1  0
 14 37  1  0
 14 38  1  0
 16 39  1  0
 19 40  1  0
 21 41  1  0
 21 42  1  0
 22 43  1  6
 23 44  1  0
 23 45  1  0
 24 46  1  0
 24 47  1  0
 25 48  1  0
 25 49  1  0
 27 50  1  0
 27 51  1  0
 28 52  1  0
 28 53  1  0
M  END
>  <UniqueID>  (32) 
31

>  <SMILES>  (32) 
C=C1CCN(S(=O)(=O)N2CC(=O)N3Cc4cc5c(cc4C[C@H]3C2)CCO5)CC1

>  <Energy>  (32) 
82.79452340072194

>  <Genealogy>  (32) 
C=C1CCN(S(=O)(=O)N2CC(=O)N3Cc4cc5c(cc4C[C@H]3C2)CCO5)CC1 (chirality)
C=C1CCN(S(=O)(=O)N2CC(=O)N3Cc4cc5c(cc4C[C@H]3C2)CCO5)CC1 (3D coordinates assigned)
C=C1CCN(S(=O)(=O)N2CC(=O)N3Cc4cc5c(cc4C[C@H]3C2)CCO5)CC1 (nonaromatic ring conformer: 82.79452340072194 kcal/mol)

>  <smiles>  (32) 
C=C1CCN(S(=O)(=O)N2CC(=O)N3Cc4cc5c(cc4CC3C2)CCO5)CC1

>  <score_type>  (32) 
oracle

>  <origin>  (32) 
adg

>  <m_score__min__energy>  (32) 
-9.4399999999999995

>  <m_primary>  (32) 
energy

$$$$
32:0
     RDKit          3D

 38 40  0  0  0  0  0  0  0  0999 V2000
   61.2844   27.8104   47.4909 H   0  0  0  0  0  0  0  0  0  0  0  0
   60.3240   27.7060   48.0170 C   0  0  0  0  0  0  0  0  0  0  0  0
   59.2220   27.0280   47.2960 C   0  0  0  0  0  0  0  0  0  0  0  0
   59.0900   25.7770   47.3850 O   0  0  0  0  0  0  0  0  0  0  0  0
   58.2200   27.8160   46.5340 C   0  0  0  0  0  0  0  0  0  0  0  0
   56.9820   27.2520   46.1880 C   0  0  0  0  0  0  0  0  0  0  0  0
   56.6600   25.9550   46.5750 O   0  0  0  0  0  0  0  0  0  0  0  0
   56.0760   27.9780   45.4870 N   0  0  0  0  0  0  0  0  0  0  0  0
   55.1550   27.5450   45.2450 H   0  0  0  0  0  0  0  0  0  0  0  0
   56.3340   29.2560   45.1070 C   0  0  0  0  0  0  0  0  0  0  0  0
   55.4510   29.9010   44.4750 O   0  0  0  0  0  0  0  0  0  0  0  0
   57.5350   29.8400   45.4150 N   0  0  0  0  0  0  0  0  0  0  0  0
   57.8060   31.1940   44.9990 C   0  0  0  0  0  0  0  0  0  0  0  0
   57.8990   31.5100   43.6320 C   0  0  0  0  0  0  0  0  0  0  0  0
   57.7667   30.7211   42.8770 H   0  0  0  0  0  0  0  0  0  0  0  0
   58.1590   32.8230   43.2290 C   0  0  0  0  0  0  0  0  0  0  0  0
   58.2315   33.0649   42.1584 H   0  0  0  0  0  0  0  0  0  0  0  0
   58.3270   33.8290   44.1850 C   0  0  0  0  0  0  0  0  0  0  0  0
   58.5317   34.8617   43.8663 H   0  0  0  0  0  0  0  0  0  0  0  0
   58.2350   33.5230   45.5460 C   0  0  0  0  0  0  0  0  0  0  0  0
   58.3673   34.3151   46.2977 H   0  0  0  0  0  0  0  0  0  0  0  0
   57.9750   32.2110   45.9520 C   0  0  0  0  0  0  0  0  0  0  0  0
   57.9024   31.9741   47.0237 H   0  0  0  0  0  0  0  0  0  0  0  0
   58.4820   29.1340   46.1120 C   0  0  0  0  0  0  0  0  0  0  0  0
   59.6070   29.6570   46.3510 O   0  0  0  0  0  0  0  0  0  0  0  0
   60.2440   28.2030   49.2610 C   0  0  0  0  0  0  0  0  0  0  0  0
   60.5560   27.5485   50.0882 H   0  0  0  0  0  0  0  0  0  0  0  0
   59.7700   29.5600   49.6090 C   0  0  0  0  0  0  0  0  0  0  0  0
   58.7350   29.7050   50.5450 C   0  0  0  0  0  0  0  0  0  0  0  0
   58.3104   28.8158   51.0339 H   0  0  0  0  0  0  0  0  0  0  0  0
   58.2410   30.9740   50.8590 C   0  0  0  0  0  0  0  0  0  0  0  0
   57.4398   31.0821   51.6050 H   0  0  0  0  0  0  0  0  0  0  0  0
   58.7630   32.1060   50.2270 C   0  0  0  0  0  0  0  0  0  0  0  0
   58.3782   33.1045   50.4819 H   0  0  0  0  0  0  0  0  0  0  0  0
   59.7740   31.9700   49.2710 C   0  0  0  0  0  0  0  0  0  0  0  0
   60.4700   33.5130   48.3890 Br  0  0  0  0  0  0  0  0  0  0  0  0
   60.2690   30.7000   48.9530 C   0  0  0  0  0  0  0  0  0  0  0  0
   61.0513   30.5929   48.1871 H   0  0  0  0  0  0  0  0  0  0  0  0
  1  2  1  0
  2  3  1  0
  3  4  2  0
  3  5  1  0
  5  6  2  0
  6  7  1  0
  6  8  1  0
  8  9  1  0
  8 10  1  0
 10 11  2  0
 10 12  1  0
 12 13  1  0
 13 14  2  0
 14 15  1  0
 14 16  1  0
 16 17  1  0
 16 18  2  0
 18 19  1  0
 18 20  1  0
 20 21  1  0
 20 22  2  0
 22 23  1  0
 12 24  1  0
 24 25  2  0
  2 26  2  0
 26 27  1  0
 26 28  1  0
 28 29  2  0
 29 30  1  0
 29 31  1  0
 31 32  1  0
 31 33  2  0
 33 34  1  0
 33 35  1  0
 35 36  1  0
 35 37  2  0
 37 38  1  0
 24  5  1  0
 37 28  1  0
 22 13  1  0
M  CHG  1   7  -1
M  END
>  <UniqueID>  (33) 
32

>  <SMILES>  (33) 
O=C(/C=C\c1cccc(Br)c1)c1c([O-])[nH]c(=O)n(-c2ccccc2)c1=O

>  <Energy>  (33) 
64.85582443316947

>  <Genealogy>  (33) 
O=C(C=Cc1cccc(Br)c1)c1c([O-])[nH]c(=O)n(-c2ccccc2)c1=O (protonated)
O=C(/C=C\c1cccc(Br)c1)c1c([O-])[nH]c(=O)n(-c2ccccc2)c1=O (cis-trans isomerization)
O=C(/C=C\c1cccc(Br)c1)c1c([O-])[nH]c(=O)n(-c2ccccc2)c1=O (3D coordinates assigned)
O=C(/C=C\c1cccc(Br)c1)c1c([O-])[nH]c(=O)n(-c2ccccc2)c1=O (optimized conformer: 64.85582443316947 kcal/mol)

>  <smiles>  (33) 
O=C(C=Cc1cccc(Br)c1)c1c(O)[nH]c(=O)n(-c2ccccc2)c1=O

>  <score_type>  (33) 
oracle

>  <origin>  (33) 
adg

>  <m_score__min__energy>  (33) 
-10.19

>  <m_primary>  (33) 
energy

$$$$
33:0
     RDKit          3D

 43 45  0  0  0  0  0  0  0  0999 V2000
   64.5080   33.1080   47.8240 N   0  0  0  0  0  0  0  0  0  0  0  0
   62.8070   32.9310   47.5570 S   0  0  0  0  0  0  0  0  0  0  0  0
   62.5100   31.5300   47.1040 O   0  0  0  0  0  0  0  0  0  0  0  0
   62.3920   33.8920   46.4780 O   0  0  0  0  0  0  0  0  0  0  0  0
   61.9100   33.2760   49.0480 C   0  0  0  0  0  0  0  0  0  0  0  0
   62.6320   33.5470   50.2210 C   0  0  0  0  0  0  0  0  0  0  0  0
   61.9680   33.7800   51.4270 C   0  0  0  0  0  0  0  0  0  0  0  0
   60.5740   33.7430   51.4770 C   0  0  0  0  0  0  0  0  0  0  0  0
   59.8400   33.4850   50.3180 C   0  0  0  0  0  0  0  0  0  0  0  0
   60.4940   33.2620   49.0950 C   0  0  0  0  0  0  0  0  0  0  0  0
   59.6710   33.0170   47.8940 C   0  0  0  0  0  0  0  0  0  0  0  0
   59.3150   34.0840   47.0570 C   0  0  0  0  0  0  0  0  0  0  0  0
   58.5080   33.8610   45.9380 C   0  0  0  0  0  0  0  0  0  0  0  0
   58.0600   32.5650   45.6350 C   0  0  0  0  0  0  0  0  0  0  0  0
   57.1400   32.3430   44.4650 C   0  0  0  0  0  0  0  0  0  0  0  0
   56.2340   31.2350   44.7420 N   0  0  0  0  0  0  0  0  0  0  0  0
   56.3820   29.9260   44.1780 C   0  0  0  0  0  0  0  0  0  0  0  0
   55.6400   29.5770   43.2200 O   0  0  0  0  0  0  0  0  0  0  0  0
   57.4010   28.9830   44.7080 C   0  0  0  0  0  0  0  0  0  0  0  0
   58.7700   29.2510   44.5090 C   0  0  0  0  0  0  0  0  0  0  0  0
   59.7470   28.3820   45.0030 C   0  0  0  0  0  0  0  0  0  0  0  0
   59.3730   27.2340   45.7040 C   0  0  0  0  0  0  0  0  0  0  0  0
   60.7090   26.0480   46.3790 Br  0  0  0  0  0  0  0  0  0  0  0  0
   58.0200   26.9530   45.9110 C   0  0  0  0  0  0  0  0  0  0  0  0
   57.0360   27.8170   45.4180 C   0  0  0  0  0  0  0  0  0  0  0  0
   55.7340   27.5040   45.6430 F   0  0  0  0  0  0  0  0  0  0  0  0
   58.4370   31.4940   46.4600 C   0  0  0  0  0  0  0  0  0  0  0  0
   59.2440   31.7180   47.5790 C   0  0  0  0  0  0  0  0  0  0  0  0
   64.9650   33.1190   46.8840 H   0  0  0  0  0  0  0  0  0  0  0  0
   64.8350   32.2430   48.3100 H   0  0  0  0  0  0  0  0  0  0  0  0
   63.7312   33.5761   50.1898 H   0  0  0  0  0  0  0  0  0  0  0  0
   62.5447   33.9931   52.3391 H   0  0  0  0  0  0  0  0  0  0  0  0
   60.0533   33.9172   52.4301 H   0  0  0  0  0  0  0  0  0  0  0  0
   58.7413   33.4561   50.3627 H   0  0  0  0  0  0  0  0  0  0  0  0
   59.6720   35.0999   47.2818 H   0  0  0  0  0  0  0  0  0  0  0  0
   58.2225   34.7042   45.2918 H   0  0  0  0  0  0  0  0  0  0  0  0
   56.5535   33.2561   44.2852 H   0  0  0  0  0  0  0  0  0  0  0  0
   57.7409   32.1024   43.5756 H   0  0  0  0  0  0  0  0  0  0  0  0
   59.0731   30.1540   43.9588 H   0  0  0  0  0  0  0  0  0  0  0  0
   60.8121   28.6029   44.8392 H   0  0  0  0  0  0  0  0  0  0  0  0
   57.7271   26.0484   46.4641 H   0  0  0  0  0  0  0  0  0  0  0  0
   58.0962   30.4748   46.2251 H   0  0  0  0  0  0  0  0  0  0  0  0
   59.5455   30.8728   48.2151 H   0  0  0  0  0  0  0  0  0  0  0  0
  1  2  1  0
  2  3  2  0
  2  4  2  0
  2  5  1  0
  5  6  2  0
  6  7  1  0
  7  8  2  0
  8  9  1  0
  9 10  2  0
 10 11  1  0
 11 12  2  0
 12 13  1  0
 13 14  2  0
 14 15  1  0
 15 16  1  0
 16 17  1  0
 17 18  2  0
 17 19  1  0
 19 20  2  0
 20 21  1  0
 21 22  2  0
 22 23  1  0
 22 24  1  0
 24 25  2  0
 25 26  1  0
 14 27  1  0
 27 28  2  0
 10  5  1  0
 28 11  1  0
 25 19  1  0
  1 29  1  0
  1 30  1  0
  6 31  1  0
  7 32  1  0
  8 33  1  0
  9 34  1  0
 12 35  1  0
 13 36  1  0
 15 37  1  0
 15 38  1  0
 20 39  1  0
 21 40  1  0
 24 41  1  0
 27 42  1  0
 28 43  1  0
M  CHG  1  16  -1
M  END
>  <UniqueID>  (34) 
33

>  <SMILES>  (34) 
NS(=O)(=O)c1ccccc1-c1ccc(C[N-]C(=O)c2ccc(Br)cc2F)cc1

>  <Energy>  (34) 
51.84971366391086

>  <Genealogy>  (34) 
NS(=O)(=O)c1ccccc1-c1ccc(C[N-]C(=O)c2ccc(Br)cc2F)cc1 (protonated)
NS(=O)(=O)c1ccccc1-c1ccc(C[N-]C(=O)c2ccc(Br)cc2F)cc1 (3D coordinates assigned)
NS(=O)(=O)c1ccccc1-c1ccc(C[N-]C(=O)c2ccc(Br)cc2F)cc1 (optimized conformer: 51.84971366391086 kcal/mol)

>  <smiles>  (34) 
NS(=O)(=O)c1ccccc1-c1ccc(CNC(=O)c2ccc(Br)cc2F)cc1

>  <score_type>  (34) 
oracle

>  <origin>  (34) 
adg

>  <m_score__min__energy>  (34) 
-10.76

>  <m_primary>  (34) 
energy

$$$$
34:0
     RDKit          3D

 47 49  0  0  1  0  0  0  0  0999 V2000
   56.1360   23.8200   44.9060 C   0  0  0  0  0  0  0  0  0  0  0  0
   56.0580   25.3810   45.7060 S   0  0  0  0  0  0  0  0  0  0  0  0
   54.6340   25.9270   45.6970 O   0  0  0  0  0  0  0  0  0  0  0  0
   56.3990   25.2780   47.1850 O   0  0  0  0  0  0  0  0  0  0  0  0
   57.0710   26.5790   44.9740 N   0  0  0  0  0  0  0  0  0  0  0  0
   57.9260   27.3890   45.7730 C   0  0  0  0  0  0  0  0  0  0  0  0
   59.0190   26.8050   46.3810 C   0  0  0  0  0  0  0  0  0  0  0  0
   59.9070   27.5110   47.1660 C   0  0  0  0  0  0  0  0  0  0  0  0
   59.6860   28.8560   47.3420 C   0  0  0  0  0  0  0  0  0  0  0  0
   60.6180   29.6030   48.1790 C   0  0  0  0  0  0  0  0  0  0  0  0
   60.9530   29.3690   49.5100 C   0  0  0  0  0  0  0  0  0  0  0  0
   61.8770   30.3370   49.8520 C   0  0  0  0  0  0  0  0  0  0  0  0
   62.1020   31.1430   48.7620 C   0  0  0  0  0  0  0  0  0  0  0  0
   63.0150   32.2970   48.6960 C   0  0  0  0  0  0  0  0  0  0  0  0
   64.0520   32.3240   49.4130 O   0  0  0  0  0  0  0  0  0  0  0  0
   62.7600   33.4040   47.8310 N   0  0  0  0  0  0  0  0  0  0  0  0
   61.5650   33.8930   47.6710 C   0  0  0  0  0  0  0  0  0  0  0  0
   60.7840   33.8190   46.5300 C   0  0  0  0  0  0  0  0  0  0  0  0
   59.5950   34.4630   46.7880 C   0  0  0  0  0  0  0  0  0  0  0  0
   59.6790   34.9060   48.0570 N   0  0  0  0  0  0  0  0  0  0  0  0
   60.8600   34.5630   48.5830 N   0  0  0  0  0  0  0  0  0  0  0  0
   61.3180   30.6690   47.7570 N   0  0  0  0  0  0  0  0  0  0  0  0
   58.6120   29.4360   46.7450 C   0  0  0  0  0  0  0  0  0  0  0  0
   57.6970   28.7590   45.9500 C   0  0  0  0  0  0  0  0  0  0  0  0
   56.5750   29.3990   45.3540 N   0  0  0  0  0  0  0  0  0  0  0  0
   56.3910   29.6960   43.6910 S   0  0  0  0  0  0  0  0  0  0  0  0
   57.0510   31.2110   43.1200 C   0  0  0  0  0  0  0  0  0  0  0  0
   56.9910   28.5830   42.8510 O   0  0  0  0  0  0  0  0  0  0  0  0
   54.9000   29.6800   43.3670 O   0  0  0  0  0  0  0  0  0  0  0  0
   56.1759   23.0221   45.6621 H   0  0  0  0  0  0  0  0  0  0  0  0
   55.2435   23.6852   44.2773 H   0  0  0  0  0  0  0  0  0  0  0  0
   57.0375   23.7748   44.2773 H   0  0  0  0  0  0  0  0  0  0  0  0
   57.0200   26.6690   43.9360 H   0  0  0  0  0  0  0  0  0  0  0  0
   59.1896   25.7284   46.2330 H   0  0  0  0  0  0  0  0  0  0  0  0
   60.7667   27.0121   47.6372 H   0  0  0  0  0  0  0  0  0  0  0  0
   60.5604   28.5726   50.1593 H   0  0  0  0  0  0  0  0  0  0  0  0
   62.3550   30.4451   50.8368 H   0  0  0  0  0  0  0  0  0  0  0  0
   61.0642   33.3317   45.5845 H   0  0  0  0  0  0  0  0  0  0  0  0
   58.7481   34.5900   46.0977 H   0  0  0  0  0  0  0  0  0  0  0  0
   58.9160   35.4490   48.5630 H   0  0  0  0  0  0  0  0  0  0  0  0
   61.2010   34.7790   49.5640 H   0  0  0  0  0  0  0  0  0  0  0  0
   61.3270   31.1320   46.8170 H   0  0  0  0  0  0  0  0  0  0  0  0
   58.4572   30.5137   46.9020 H   0  0  0  0  0  0  0  0  0  0  0  0
   55.8200   29.7100   46.0270 H   0  0  0  0  0  0  0  0  0  0  0  0
   57.3247   31.8392   43.9805 H   0  0  0  0  0  0  0  0  0  0  0  0
   57.9452   31.0148   42.5101 H   0  0  0  0  0  0  0  0  0  0  0  0
   56.2984   31.7322   42.5101 H   0  0  0  0  0  0  0  0  0  0  0  0
  1  2  1  0
  2  3  2  0
  2  4  2  0
  2  5  1  0
  5  6  1  0
  6  7  2  0
  7  8  1  0
  8  9  2  0
  9 10  1  0
 10 11  2  0
 11 12  1  0
 12 13  2  0
 13 14  1  0
 14 15  2  0
 14 16  1  0
 16 17  2  0
 17 18  1  0
 18 19  2  0
 19 20  1  0
 20 21  1  0
 13 22  1  0
  9 23  1  0
 23 24  2  0
 24 25  1  0
 25 26  1  0
 26 27  1  0
 26 28  2  0
 26 29  2  0
 24  6  1  0
 22 10  1  0
 21 17  1  0
  1 30  1  0
  1 31  1  0
  1 32  1  0
  5 33  1  0
  7 34  1  0
  8 35  1  0
 11 36  1  0
 12 37  1  0
 18 38  1  0
 19 39  1  0
 20 40  1  0
 21 41  1  0
 22 42  1  0
 23 43  1  0
 25 44  1  0
 27 45  1  0
 27 46  1  0
 27 47  1  0
M  END
>  <smiles>  (35) 
CS(=O)(=O)Nc1ccc(-c2ccc(C(=O)N=c3cc[nH][nH]3)[nH]2)cc1NS(C)(=O)=O

>  <score_type>  (35) 
oracle

>  <origin>  (35) 
adg

>  <m_score__min__energy>  (35) 
-9.3900000000000006

>  <m_primary>  (35) 
energy

$$$$
35:0
     RDKit          3D

 29 30  0  0  0  0  0  0  0  0999 V2000
   57.2017   32.8851   43.4936 H   0  0  0  0  0  0  0  0  0  0  0  0
   57.8260   32.2840   44.1710 C   0  0  0  0  0  0  0  0  0  0  0  0
   58.1220   31.0240   43.8100 C   0  0  0  0  0  0  0  0  0  0  0  0
   58.8656   30.8696   43.0143 H   0  0  0  0  0  0  0  0  0  0  0  0
   57.4950   29.8280   44.4320 C   0  0  0  0  0  0  0  0  0  0  0  0
   58.2510   28.7300   44.8790 C   0  0  0  0  0  0  0  0  0  0  0  0
   59.3444   28.7322   44.7583 H   0  0  0  0  0  0  0  0  0  0  0  0
   57.6370   27.6670   45.4590 N   0  0  0  0  0  0  0  0  0  0  0  0
   56.2910   27.6400   45.6240 C   0  0  0  0  0  0  0  0  0  0  0  0
   55.7420   26.6430   46.1600 O   0  0  0  0  0  0  0  0  0  0  0  0
   55.5360   28.6910   45.2150 N   0  0  0  0  0  0  0  0  0  0  0  0
   56.1020   29.7790   44.6320 C   0  0  0  0  0  0  0  0  0  0  0  0
   55.3640   30.7340   44.2660 O   0  0  0  0  0  0  0  0  0  0  0  0
   58.2940   32.9100   45.4320 C   0  0  0  0  0  0  0  0  0  0  0  0
   58.1360   32.2010   46.6330 C   0  0  0  0  0  0  0  0  0  0  0  0
   57.6660   31.2066   46.6195 H   0  0  0  0  0  0  0  0  0  0  0  0
   58.5690   32.7440   47.8460 C   0  0  0  0  0  0  0  0  0  0  0  0
   58.4290   32.1780   48.7788 H   0  0  0  0  0  0  0  0  0  0  0  0
   59.1820   34.0080   47.8820 C   0  0  0  0  0  0  0  0  0  0  0  0
   59.6390   34.5950   49.1150 N   0  0  0  0  0  0  0  0  0  0  0  0
   59.3960   35.5900   49.3220 H   0  0  0  0  0  0  0  0  0  0  0  0
   60.4310   33.8740   50.1070 C   0  0  0  0  0  0  0  0  0  0  0  0
   60.1088   34.1673   51.1170 H   0  0  0  0  0  0  0  0  0  0  0  0
   60.2859   32.7915   49.9757 H   0  0  0  0  0  0  0  0  0  0  0  0
   61.4951   34.1199   49.9757 H   0  0  0  0  0  0  0  0  0  0  0  0
   59.3570   34.7120   46.6810 C   0  0  0  0  0  0  0  0  0  0  0  0
   59.8403   35.7000   46.6944 H   0  0  0  0  0  0  0  0  0  0  0  0
   58.9230   34.1700   45.4670 C   0  0  0  0  0  0  0  0  0  0  0  0
   59.0738   34.7314   44.5331 H   0  0  0  0  0  0  0  0  0  0  0  0
  1  2  1  0
  2  3  2  0
  3  4  1  0
  3  5  1  0
  5  6  2  0
  6  7  1  0
  6  8  1  0
  8  9  1  0
  9 10  2  0
  9 11  1  0
 11 12  1  0
 12 13  2  0
  2 14  1  0
 14 15  2  0
 15 16  1  0
 15 17  1  0
 17 18  1  0
 17 19  2  0
 19 20  1  0
 20 21  1  0
 20 22  1  0
 22 23  1  0
 22 24  1  0
 22 25  1  0
 19 26  1  0
 26 27  1  0
 26 28  2  0
 28 29  1  0
 12  5  1  0
 28 14  1  0
M  CHG  2   8  -1  11  -1
M  END
>  <UniqueID>  (36) 
34

>  <SMILES>  (36) 
CNc1ccc(/C=C/c2c[n-]c(=O)[n-]c2=O)cc1

>  <Energy>  (36) 
35.581432758834886

>  <Genealogy>  (36) 
CNc1ccc(C=Cc2c[n-]c(=O)[n-]c2=O)cc1 (protonated)
CNc1ccc(/C=C/c2c[n-]c(=O)[n-]c2=O)cc1 (cis-trans isomerization)
CNc1ccc(/C=C/c2c[n-]c(=O)[n-]c2=O)cc1 (3D coordinates assigned)
CNc1ccc(/C=C/c2c[n-]c(=O)[n-]c2=O)cc1 (optimized conformer: 35.581432758834886 kcal/mol)

>  <smiles>  (36) 
CNc1ccc(C=Cc2c[nH]c(=O)[nH]c2=O)cc1

>  <score_type>  (36) 
oracle

>  <origin>  (36) 
adg

>  <m_score__min__energy>  (36) 
-10.66

>  <m_primary>  (36) 
energy

$$$$
36:0
     RDKit          3D

 39 40  0  0  0  0  0  0  0  0999 V2000
   54.2670   30.2030   52.4260 C   0  0  0  0  0  0  0  0  0  0  0  0
   55.2480   31.1660   51.9400 N   0  0  0  0  0  0  0  0  0  0  0  0
   56.6360   30.8300   51.8170 C   0  0  0  0  0  0  0  0  0  0  0  0
   57.0050   29.6340   51.9820 O   0  0  0  0  0  0  0  0  0  0  0  0
   57.6450   31.8570   51.4660 C   0  0  0  0  0  0  0  0  0  0  0  0
   57.8560   32.9430   52.3320 C   0  0  0  0  0  0  0  0  0  0  0  0
   58.7950   33.9270   52.0190 C   0  0  0  0  0  0  0  0  0  0  0  0
   59.5330   33.8410   50.8380 C   0  0  0  0  0  0  0  0  0  0  0  0
   59.3380   32.7630   49.9580 C   0  0  0  0  0  0  0  0  0  0  0  0
   60.0410   32.6610   48.7480 O   0  0  0  0  0  0  0  0  0  0  0  0
   59.4630   32.3910   47.4990 C   0  0  0  0  0  0  0  0  0  0  0  0
   59.6860   31.1410   46.9120 C   0  0  0  0  0  0  0  0  0  0  0  0
   59.1310   30.8330   45.6670 C   0  0  0  0  0  0  0  0  0  0  0  0
   58.3610   31.7850   44.9810 C   0  0  0  0  0  0  0  0  0  0  0  0
   57.7360   31.4430   43.6580 C   0  0  0  0  0  0  0  0  0  0  0  0
   56.7740   29.9460   43.7930 S   0  0  0  0  0  0  0  0  0  0  0  0
   57.8710   28.5510   43.9000 C   0  0  0  0  0  0  0  0  0  0  0  0
   55.9190   30.0000   45.0280 O   0  0  0  0  0  0  0  0  0  0  0  0
   55.8950   29.7940   42.5840 O   0  0  0  0  0  0  0  0  0  0  0  0
   58.1480   33.0450   45.5610 C   0  0  0  0  0  0  0  0  0  0  0  0
   58.7030   33.3540   46.8070 C   0  0  0  0  0  0  0  0  0  0  0  0
   58.5330   34.5990   47.3140 F   0  0  0  0  0  0  0  0  0  0  0  0
   58.3820   31.7840   50.2650 C   0  0  0  0  0  0  0  0  0  0  0  0
   58.1490   30.7930   49.3670 F   0  0  0  0  0  0  0  0  0  0  0  0
   54.2670   30.2030   53.5260 H   0  0  0  0  0  0  0  0  0  0  0  0
   53.2678   30.4807   52.0593 H   0  0  0  0  0  0  0  0  0  0  0  0
   54.5261   29.1988   52.0593 H   0  0  0  0  0  0  0  0  0  0  0  0
   54.9080   32.1040   51.6290 H   0  0  0  0  0  0  0  0  0  0  0  0
   57.2766   33.0183   53.2640 H   0  0  0  0  0  0  0  0  0  0  0  0
   58.9536   34.7722   52.7049 H   0  0  0  0  0  0  0  0  0  0  0  0
   60.2704   34.6202   50.5949 H   0  0  0  0  0  0  0  0  0  0  0  0
   60.3029   30.3949   47.4343 H   0  0  0  0  0  0  0  0  0  0  0  0
   59.2983   29.8406   45.2230 H   0  0  0  0  0  0  0  0  0  0  0  0
   57.0803   32.2680   43.3428 H   0  0  0  0  0  0  0  0  0  0  0  0
   58.5332   31.2892   42.9158 H   0  0  0  0  0  0  0  0  0  0  0  0
   58.0587   28.3124   44.9573 H   0  0  0  0  0  0  0  0  0  0  0  0
   57.4105   27.6836   43.4045 H   0  0  0  0  0  0  0  0  0  0  0  0
   58.8225   28.7940   43.4045 H   0  0  0  0  0  0  0  0  0  0  0  0
   57.5407   33.7944   45.0323 H   0  0  0  0  0  0  0  0  0  0  0  0
  1  2  1  0
  2  3  1  0
  3  4  2  0
  3  5  1  0
  5  6  2  0
  6  7  1  0
  7  8  2  0
  8  9  1  0
  9 10  1  0
 10 11  1  0
 11 12  2  0
 12 13  1  0
 13 14  2  0
 14 15  1  0
 15 16  1  0
 16 17  1  0
 16 18  2  0
 16 19  2  0
 14 20  1  0
 20 21  2  0
 21 22  1  0
  9 23  2  0
 23 24  1  0
 23  5  1  0
 21 11  1  0
  1 25  1  0
  1 26  1  0
  1 27  1  0
  2 28  1  0
  6 29  1  0
  7 30  1  0
  8 31  1  0
 12 32  1  0
 13 33  1  0
 15 34  1  0
 15 35  1  0
 17 36  1  0
 17 37  1  0
 17 38  1  0
 20 39  1  0
M  END
>  <UniqueID>  (37) 
35

>  <SMILES>  (37) 
CNC(=O)c1cccc(Oc2ccc(CS(C)(=O)=O)cc2F)c1F

>  <Energy>  (37) 
39.71704324264825

>  <Genealogy>  (37) 
CNC(=O)c1cccc(Oc2ccc(CS(C)(=O)=O)cc2F)c1F (3D coordinates assigned)
CNC(=O)c1cccc(Oc2ccc(CS(C)(=O)=O)cc2F)c1F (optimized conformer: 39.71704324264825 kcal/mol)

>  <smiles>  (37) 
CNC(=O)c1cccc(Oc2ccc(CS(C)(=O)=O)cc2F)c1F

>  <score_type>  (37) 
oracle

>  <origin>  (37) 
adg

>  <m_score__min__energy>  (37) 
-7.7199999999999998

>  <m_primary>  (37) 
energy

$$$$
37:0
     RDKit          3D

 47 49  0  0  0  0  0  0  0  0999 V2000
   63.3350   34.1190   48.9450 C   0  0  0  0  0  0  0  0  0  0  0  0
   62.7390   33.2040   47.8720 C   0  0  0  0  0  0  0  0  0  0  0  0
   62.9710   33.7760   46.4710 C   0  0  0  0  0  0  0  0  0  0  0  0
   61.3020   32.9690   48.1160 N   0  0  0  0  0  0  0  0  0  0  0  0
   60.3800   34.0690   48.1650 C   0  0  0  0  0  0  0  0  0  0  0  0
   60.0900   34.5760   49.2820 O   0  0  0  0  0  0  0  0  0  0  0  0
   59.7750   34.6060   46.9220 C   0  0  0  0  0  0  0  0  0  0  0  0
   59.7700   35.8510   46.7350 O   0  0  0  0  0  0  0  0  0  0  0  0
   59.1770   33.7320   45.8840 C   0  0  0  0  0  0  0  0  0  0  0  0
   59.1320   34.1640   44.5500 C   0  0  0  0  0  0  0  0  0  0  0  0
   58.5490   33.3930   43.5970 N   0  0  0  0  0  0  0  0  0  0  0  0
   57.9970   32.1840   43.8840 C   0  0  0  0  0  0  0  0  0  0  0  0
   57.4320   31.5330   42.9670 O   0  0  0  0  0  0  0  0  0  0  0  0
   58.0320   31.6920   45.2030 C   0  0  0  0  0  0  0  0  0  0  0  0
   57.4450   30.4290   45.5600 N   0  0  0  0  0  0  0  0  0  0  0  0
   58.0000   29.1620   45.1690 C   0  0  0  0  0  0  0  0  0  0  0  0
   59.1490   29.1040   44.6530 O   0  0  0  0  0  0  0  0  0  0  0  0
   57.2510   27.9170   45.4110 C   0  0  0  0  0  0  0  0  0  0  0  0
   57.8100   26.6530   45.4990 C   0  0  0  0  0  0  0  0  0  0  0  0
   56.7670   25.7860   45.7330 C   0  0  0  0  0  0  0  0  0  0  0  0
   55.6340   26.5680   45.7710 C   0  0  0  0  0  0  0  0  0  0  0  0
   54.3500   26.0880   45.9820 O   0  0  0  0  0  0  0  0  0  0  0  0
   55.9130   27.8720   45.5770 N   0  0  0  0  0  0  0  0  0  0  0  0
   58.5960   32.4930   46.2040 C   0  0  0  0  0  0  0  0  0  0  0  0
   60.7670   31.6380   48.1860 C   0  0  0  0  0  0  0  0  0  0  0  0
   61.1800   30.6540   47.2750 C   0  0  0  0  0  0  0  0  0  0  0  0
   60.6230   29.3730   47.3240 C   0  0  0  0  0  0  0  0  0  0  0  0
   59.6440   29.0730   48.2760 C   0  0  0  0  0  0  0  0  0  0  0  0
   59.2250   30.0510   49.1820 C   0  0  0  0  0  0  0  0  0  0  0  0
   59.7830   31.3320   49.1350 C   0  0  0  0  0  0  0  0  0  0  0  0
   63.0810   33.7291   49.9417 H   0  0  0  0  0  0  0  0  0  0  0  0
   64.4287   34.1525   48.8321 H   0  0  0  0  0  0  0  0  0  0  0  0
   62.9235   35.1329   48.8321 H   0  0  0  0  0  0  0  0  0  0  0  0
   63.2553   32.2345   47.9305 H   0  0  0  0  0  0  0  0  0  0  0  0
   63.3833   34.7925   46.5536 H   0  0  0  0  0  0  0  0  0  0  0  0
   63.6805   33.1357   45.9264 H   0  0  0  0  0  0  0  0  0  0  0  0
   62.0159   33.8108   45.9264 H   0  0  0  0  0  0  0  0  0  0  0  0
   59.5720   35.1338   44.2745 H   0  0  0  0  0  0  0  0  0  0  0  0
   56.6620   30.4340   46.2520 H   0  0  0  0  0  0  0  0  0  0  0  0
   58.8746   26.3938   45.4014 H   0  0  0  0  0  0  0  0  0  0  0  0
   56.8261   24.6953   45.8627 H   0  0  0  0  0  0  0  0  0  0  0  0
   58.5841   32.1496   47.2489 H   0  0  0  0  0  0  0  0  0  0  0  0
   61.9442   30.8914   46.5202 H   0  0  0  0  0  0  0  0  0  0  0  0
   60.9547   28.6012   46.6139 H   0  0  0  0  0  0  0  0  0  0  0  0
   59.2030   28.0659   48.3119 H   0  0  0  0  0  0  0  0  0  0  0  0
   58.4563   29.8130   49.9320 H   0  0  0  0  0  0  0  0  0  0  0  0
   59.4483   32.1022   49.8455 H   0  0  0  0  0  0  0  0  0  0  0  0
  1  2  1  0
  2  3  1  0
  2  4  1  0
  4  5  1  0
  5  6  2  0
  5  7  1  0
  7  8  2  0
  7  9  1  0
  9 10  2  0
 10 11  1  0
 11 12  1  0
 12 13  2  0
 12 14  1  0
 14 15  1  0
 15 16  1  0
 16 17  2  0
 16 18  1  0
 18 19  2  0
 19 20  1  0
 20 21  2  0
 21 22  1  0
 21 23  1  0
 14 24  2  0
  4 25  1  0
 25 26  2  0
 26 27  1  0
 27 28  2  0
 28 29  1  0
 29 30  2  0
 24  9  1  0
 30 25  1  0
 23 18  1  0
  1 31  1  0
  1 32  1  0
  1 33  1  0
  2 34  1  0
  3 35  1  0
  3 36  1  0
  3 37  1  0
 10 38  1  0
 15 39  1  0
 19 40  1  0
 20 41  1  0
 24 42  1  0
 26 43  1  0
 27 44  1  0
 28 45  1  0
 29 46  1  0
 30 47  1  0
M  CHG  3  11  -1  22  -1  23  -1
M  END
>  <UniqueID>  (38) 
36

>  <SMILES>  (38) 
CC(C)N(C(=O)C(=O)c1c[n-]c(=O)c(NC(=O)c2ccc([O-])[n-]2)c1)c1ccccc1

>  <Energy>  (38) 
92.0441690749534

>  <Genealogy>  (38) 
CC(C)N(C(=O)C(=O)c1c[n-]c(=O)c(NC(=O)c2ccc([O-])[n-]2)c1)c1ccccc1 (protonated)
CC(C)N(C(=O)C(=O)c1c[n-]c(=O)c(NC(=O)c2ccc([O-])[n-]2)c1)c1ccccc1 (3D coordinates assigned)
CC(C)N(C(=O)C(=O)c1c[n-]c(=O)c(NC(=O)c2ccc([O-])[n-]2)c1)c1ccccc1 (optimized conformer: 92.0441690749534 kcal/mol)

>  <smiles>  (38) 
CC(C)N(C(=O)C(=O)c1c[nH]c(=O)c(NC(=O)c2ccc(O)[nH]2)c1)c1ccccc1

>  <score_type>  (38) 
oracle

>  <origin>  (38) 
adg

>  <m_score__min__energy>  (38) 
-14.789999999999999

>  <m_primary>  (38) 
energy

$$$$
38:0
     RDKit          3D

 42 44  0  0  0  0  0  0  0  0999 V2000
   55.5180   20.8950   42.4680 H   0  0  0  0  0  0  0  0  0  0  0  0
   55.7870   21.8570   42.3020 O   0  0  0  0  0  0  0  0  0  0  0  0
   56.3780   22.6410   43.2920 C   0  0  0  0  0  0  0  0  0  0  0  0
   56.7760   23.9440   42.9810 C   0  0  0  0  0  0  0  0  0  0  0  0
   56.6220   24.3347   41.9643 H   0  0  0  0  0  0  0  0  0  0  0  0
   57.3680   24.7530   43.9530 C   0  0  0  0  0  0  0  0  0  0  0  0
   57.6703   25.7797   43.6991 H   0  0  0  0  0  0  0  0  0  0  0  0
   57.5800   24.2650   45.2520 C   0  0  0  0  0  0  0  0  0  0  0  0
   58.1800   25.1710   46.2960 C   0  0  0  0  0  0  0  0  0  0  0  0
   59.2058   24.8402   46.5158 H   0  0  0  0  0  0  0  0  0  0  0  0
   57.5627   25.1232   47.2052 H   0  0  0  0  0  0  0  0  0  0  0  0
   58.2130   26.5930   45.8050 C   0  0  0  0  0  0  0  0  0  0  0  0
   58.9020   26.8800   44.8370 O   0  0  0  0  0  0  0  0  0  0  0  0
   57.4300   27.6680   46.5120 C   0  0  0  0  0  0  0  0  0  0  0  0
   56.3872   27.3331   46.6145 H   0  0  0  0  0  0  0  0  0  0  0  0
   57.9044   27.8331   47.4906 H   0  0  0  0  0  0  0  0  0  0  0  0
   57.4430   28.9820   45.7750 C   0  0  0  0  0  0  0  0  0  0  0  0
   56.4140   29.5450   45.0400 C   0  0  0  0  0  0  0  0  0  0  0  0
   55.1500   28.9950   44.8790 O   0  0  0  0  0  0  0  0  0  0  0  0
   56.7780   30.7100   44.4760 N   0  0  0  0  0  0  0  0  0  0  0  0
   58.0530   30.9120   44.8630 C   0  0  0  0  0  0  0  0  0  0  0  0
   58.6675   31.7728   44.5605 H   0  0  0  0  0  0  0  0  0  0  0  0
   58.4850   29.8940   45.6900 C   0  0  0  0  0  0  0  0  0  0  0  0
   59.8290   29.8280   46.2990 C   0  0  0  0  0  0  0  0  0  0  0  0
   60.5564   29.1350   45.8511 H   0  0  0  0  0  0  0  0  0  0  0  0
   60.2300   30.5490   47.3570 C   0  0  0  0  0  0  0  0  0  0  0  0
   60.6194   30.0010   48.2277 H   0  0  0  0  0  0  0  0  0  0  0  0
   60.1880   32.0250   47.4410 C   0  0  0  0  0  0  0  0  0  0  0  0
   58.9340   32.6500   47.5470 C   0  0  0  0  0  0  0  0  0  0  0  0
   58.0210   32.0383   47.5941 H   0  0  0  0  0  0  0  0  0  0  0  0
   58.8390   34.0420   47.5930 C   0  0  0  0  0  0  0  0  0  0  0  0
   57.8517   34.5232   47.6538 H   0  0  0  0  0  0  0  0  0  0  0  0
   59.9940   34.8240   47.5620 C   0  0  0  0  0  0  0  0  0  0  0  0
   59.9159   35.9211   47.5801 H   0  0  0  0  0  0  0  0  0  0  0  0
   61.2500   34.2140   47.5080 C   0  0  0  0  0  0  0  0  0  0  0  0
   62.1590   34.8334   47.5008 H   0  0  0  0  0  0  0  0  0  0  0  0
   61.3580   32.8180   47.4630 C   0  0  0  0  0  0  0  0  0  0  0  0
   62.9670   32.1080   47.5300 Cl  0  0  0  0  0  0  0  0  0  0  0  0
   57.1740   22.9510   45.5700 C   0  0  0  0  0  0  0  0  0  0  0  0
   57.3600   22.4430   46.8510 O   0  0  0  0  0  0  0  0  0  0  0  0
   56.5780   22.1440   44.5910 C   0  0  0  0  0  0  0  0  0  0  0  0
   56.1830   20.8510   44.9140 O   0  0  0  0  0  0  0  0  0  0  0  0
  1  2  1  0
  2  3  1  0
  3  4  2  0
  4  5  1  0
  4  6  1  0
  6  7  1  0
  6  8  2  0
  8  9  1  0
  9 10  1  0
  9 11  1  0
  9 12  1  0
 12 13  2  0
 12 14  1  0
 14 15  1  0
 14 16  1  0
 14 17  1  0
 17 18  2  0
 18 19  1  0
 18 20  1  0
 20 21  1  0
 21 22  1  0
 21 23  2  0
 23 24  1  0
 24 25  1  0
 24 26  2  0
 26 27  1  0
 26 28  1  0
 28 29  2  0
 29 30  1  0
 29 31  1  0
 31 32  1  0
 31 33  2  0
 33 34  1  0
 33 35  1  0
 35 36  1  0
 35 37  2  0
 37 38  1  0
  8 39  1  0
 39 40  1  0
 39 41  2  0
 41 42  1  0
 41  3  1  0
 23 17  1  0
 37 28  1  0
M  CHG  4  19  -1  20  -1  40  -1  42  -1
M  END
>  <UniqueID>  (39) 
37

>  <SMILES>  (39) 
O=C(Cc1ccc(O)c([O-])c1[O-])Cc1c(/C=C\c2ccccc2Cl)c[n-]c1[O-]

>  <Energy>  (39) 
79.77797070038294

>  <Genealogy>  (39) 
O=C(Cc1ccc(O)c([O-])c1[O-])Cc1c(C=Cc2ccccc2Cl)c[n-]c1[O-] (protonated)
O=C(Cc1ccc(O)c([O-])c1[O-])Cc1c(/C=C\c2ccccc2Cl)c[n-]c1[O-] (cis-trans isomerization)
O=C(Cc1ccc(O)c([O-])c1[O-])Cc1c(/C=C\c2ccccc2Cl)c[n-]c1[O-] (3D coordinates assigned)
O=C(Cc1ccc(O)c([O-])c1[O-])Cc1c(/C=C\c2ccccc2Cl)c[n-]c1[O-] (optimized conformer: 79.77797070038294 kcal/mol)

>  <smiles>  (39) 
O=C(Cc1ccc(O)c(O)c1O)Cc1c(C=Cc2ccccc2Cl)c[nH]c1O

>  <score_type>  (39) 
oracle

>  <origin>  (39) 
adg

>  <m_score__min__energy>  (39) 
-17.539999999999999

>  <m_primary>  (39) 
energy

$$$$
39:0
     RDKit          3D

 62 65  0  0  0  0  0  0  0  0999 V2000
   62.9800   32.9770   51.3150 C   0  0  0  0  0  0  0  0  0  0  0  0
   63.6400   31.7940   50.1400 S   0  0  0  0  0  0  0  0  0  0  0  0
   63.6800   30.4690   50.8470 O   0  0  0  0  0  0  0  0  0  0  0  0
   65.0600   32.1990   49.8640 O   0  0  0  0  0  0  0  0  0  0  0  0
   62.7490   31.5640   48.6230 N   0  0  2  0  0  0  0  0  0  0  0  0
   63.6790   31.6800   47.4650 C   0  0  0  0  0  0  0  0  0  0  0  0
   63.6650   33.0600   46.7640 C   0  0  0  0  0  0  0  0  0  0  0  0
   63.2490   34.2030   47.6910 C   0  0  0  0  0  0  0  0  0  0  0  0
   61.9190   33.9250   48.4170 C   0  0  0  0  0  0  0  0  0  0  0  0
   61.5360   32.4140   48.4250 C   0  0  2  0  0  0  0  0  0  0  0  0
   60.3170   32.0650   49.3190 C   0  0  0  0  0  0  0  0  0  0  0  0
   59.6610   33.0520   50.0980 C   0  0  0  0  0  0  0  0  0  0  0  0
   58.5300   32.7480   50.8570 C   0  0  0  0  0  0  0  0  0  0  0  0
   58.0430   31.4480   50.9010 C   0  0  0  0  0  0  0  0  0  0  0  0
   58.7130   30.4360   50.2230 C   0  0  0  0  0  0  0  0  0  0  0  0
   59.8640   30.7160   49.4660 C   0  0  0  0  0  0  0  0  0  0  0  0
   60.5970   29.5510   48.9300 C   0  0  0  0  0  0  0  0  0  0  0  0
   61.3540   28.8950   49.6970 O   0  0  0  0  0  0  0  0  0  0  0  0
   60.4100   29.1160   47.5700 N   0  0  0  0  0  0  0  0  0  0  0  0
   60.5520   27.6880   47.2500 C   0  0  0  0  0  0  0  0  0  0  0  0
   60.2080   27.3960   45.7840 C   0  0  0  0  0  0  0  0  0  0  0  0
   59.0220   28.1660   45.3780 N   0  0  0  0  0  0  0  0  0  0  0  0
   58.0230   27.5740   44.5280 C   0  0  0  0  0  0  0  0  0  0  0  0
   57.6560   28.1890   43.4900 O   0  0  0  0  0  0  0  0  0  0  0  0
   57.3960   26.2740   44.8630 C   0  0  0  0  0  0  0  0  0  0  0  0
   57.4120   25.2190   43.9320 C   0  0  0  0  0  0  0  0  0  0  0  0
   56.7860   24.0040   44.2300 C   0  0  0  0  0  0  0  0  0  0  0  0
   56.1350   23.8330   45.4520 C   0  0  0  0  0  0  0  0  0  0  0  0
   56.1060   24.8760   46.3810 C   0  0  0  0  0  0  0  0  0  0  0  0
   56.7290   26.0930   46.0880 C   0  0  0  0  0  0  0  0  0  0  0  0
   58.9530   29.6080   45.6530 C   0  0  0  0  0  0  0  0  0  0  0  0
   60.1440   30.0800   46.4920 C   0  0  0  0  0  0  0  0  0  0  0  0
   63.1761   32.6255   52.3387 H   0  0  0  0  0  0  0  0  0  0  0  0
   63.4638   33.9532   51.1635 H   0  0  0  0  0  0  0  0  0  0  0  0
   61.8952   33.0780   51.1635 H   0  0  0  0  0  0  0  0  0  0  0  0
   62.4410   30.5630   48.6100 H   0  0  0  0  0  0  0  0  0  0  0  0
   64.7007   31.4881   47.8247 H   0  0  0  0  0  0  0  0  0  0  0  0
   63.3402   30.9471   46.7180 H   0  0  0  0  0  0  0  0  0  0  0  0
   64.6757   33.2689   46.3833 H   0  0  0  0  0  0  0  0  0  0  0  0
   62.9211   33.0081   45.9553 H   0  0  0  0  0  0  0  0  0  0  0  0
   64.0371   34.3500   48.4442 H   0  0  0  0  0  0  0  0  0  0  0  0
   63.1077   35.0999   47.0701 H   0  0  0  0  0  0  0  0  0  0  0  0
   62.0086   34.2698   49.4577 H   0  0  0  0  0  0  0  0  0  0  0  0
   61.1280   34.4629   47.8739 H   0  0  0  0  0  0  0  0  0  0  0  0
   61.1501   32.1646   47.4256 H   0  0  0  0  0  0  0  0  0  0  0  0
   60.0523   34.0800   50.1041 H   0  0  0  0  0  0  0  0  0  0  0  0
   58.0216   33.5422   51.4234 H   0  0  0  0  0  0  0  0  0  0  0  0
   57.1300   31.2199   51.4705 H   0  0  0  0  0  0  0  0  0  0  0  0
   58.3379   29.4035   50.2796 H   0  0  0  0  0  0  0  0  0  0  0  0
   61.5915   27.3823   47.4395 H   0  0  0  0  0  0  0  0  0  0  0  0
   59.8522   27.1242   47.8843 H   0  0  0  0  0  0  0  0  0  0  0  0
   61.0598   27.6780   45.1477 H   0  0  0  0  0  0  0  0  0  0  0  0
   59.9951   26.3226   45.6719 H   0  0  0  0  0  0  0  0  0  0  0  0
   57.9194   25.3504   42.9649 H   0  0  0  0  0  0  0  0  0  0  0  0
   56.8071   23.1819   43.4995 H   0  0  0  0  0  0  0  0  0  0  0  0
   55.6442   22.8763   45.6842 H   0  0  0  0  0  0  0  0  0  0  0  0
   55.5924   24.7396   47.3441 H   0  0  0  0  0  0  0  0  0  0  0  0
   56.6973   26.9136   46.8198 H   0  0  0  0  0  0  0  0  0  0  0  0
   58.9506   30.1537   44.6979 H   0  0  0  0  0  0  0  0  0  0  0  0
   58.0321   29.8060   46.2212 H   0  0  0  0  0  0  0  0  0  0  0  0
   61.0329   30.1630   45.8493 H   0  0  0  0  0  0  0  0  0  0  0  0
   59.9108   31.0606   46.9324 H   0  0  0  0  0  0  0  0  0  0  0  0
  1  2  1  0
  2  3  2  0
  2  4  2  0
  2  5  1  0
  5  6  1  0
  6  7  1  0
  7  8  1  0
  8  9  1  0
  9 10  1  0
 10 11  1  0
 11 12  2  0
 12 13  1  0
 13 14  2  0
 14 15  1  0
 15 16  2  0
 16 17  1  0
 17 18  2  0
 17 19  1  0
 19 20  1  0
 20 21  1  0
 21 22  1  0
 22 23  1  0
 23 24  2  0
 23 25  1  0
 25 26  2  0
 26 27  1  0
 27 28  2  0
 28 29  1  0
 29 30  2  0
 22 31  1  0
 31 32  1  0
 10  5  1  0
 16 11  1  0
 32 19  1  0
 30 25  1  0
  1 33  1  0
  1 34  1  0
  1 35  1  0
  5 36  1  1
  6 37  1  0
  6 38  1  0
  7 39  1  0
  7 40  1  0
  8 41  1  0
  8 42  1  0
  9 43  1  0
  9 44  1  0
 10 45  1  6
 12 46  1  0
 13 47  1  0
 14 48  1  0
 15 49  1  0
 20 50  1  0
 20 51  1  0
 21 52  1  0
 21 53  1  0
 26 54  1  0
 27 55  1  0
 28 56  1  0
 29 57  1  0
 30 58  1  0
 31 59  1  0
 31 60  1  0
 32 61  1  0
 32 62  1  0
M  CHG  1   5   1
M  END
>  <UniqueID>  (40) 
38

>  <SMILES>  (40) 
CS(=O)(=O)[N@@H+]1CCCC[C@@H]1c1ccccc1C(=O)N1CCN(C(=O)c2ccccc2)CC1

>  <Energy>  (40) 
99.39611808278214

>  <Genealogy>  (40) 
CS(=O)(=O)[NH+]1CCCCC1c1ccccc1C(=O)N1CCN(C(=O)c2ccccc2)CC1 (protonated)
CS(=O)(=O)[N@@H+]1CCCC[C@@H]1c1ccccc1C(=O)N1CCN(C(=O)c2ccccc2)CC1 (chirality)
CS(=O)(=O)[N@@H+]1CCCC[C@@H]1c1ccccc1C(=O)N1CCN(C(=O)c2ccccc2)CC1 (3D coordinates assigned)
CS(=O)(=O)[N@@H+]1CCCC[C@@H]1c1ccccc1C(=O)N1CCN(C(=O)c2ccccc2)CC1 (nonaromatic ring conformer: 99.39611808278214 kcal/mol)

>  <smiles>  (40) 
CS(=O)(=O)N1CCCCC1c1ccccc1C(=O)N1CCN(C(=O)c2ccccc2)CC1

>  <score_type>  (40) 
oracle

>  <origin>  (40) 
adg

>  <m_score__min__energy>  (40) 
-7.7199999999999998

>  <m_primary>  (40) 
energy

$$$$
40:0
     RDKit          3D

 66 69  0  0  0  0  0  0  0  0999 V2000
   56.4020   29.5990   42.7980 N   0  0  0  0  0  0  0  0  0  0  0  0
   56.3330   29.5070   44.2230 C   0  0  0  0  0  0  0  0  0  0  0  0
   55.2010   29.4980   44.7780 O   0  0  0  0  0  0  0  0  0  0  0  0
   57.5620   29.4190   45.0510 C   0  0  0  0  0  0  0  0  0  0  0  0
   58.5210   30.4470   45.0080 C   0  0  0  0  0  0  0  0  0  0  0  0
   59.6720   30.3750   45.7920 C   0  0  0  0  0  0  0  0  0  0  0  0
   59.8850   29.2830   46.6320 C   0  0  0  0  0  0  0  0  0  0  0  0
   58.9450   28.2410   46.6960 C   0  0  0  0  0  0  0  0  0  0  0  0
   59.1730   27.0930   47.6080 C   0  0  0  0  0  0  0  0  0  0  0  0
   58.2270   26.2990   47.8540 O   0  0  0  0  0  0  0  0  0  0  0  0
   60.4240   26.8990   48.2830 N   0  0  0  0  0  0  0  0  0  0  0  0
   60.7150   27.2660   49.6390 C   0  0  0  0  0  0  0  0  0  0  0  0
   60.8440   26.3000   50.6500 C   0  0  0  0  0  0  0  0  0  0  0  0
   61.1150   26.6910   51.9630 C   0  0  0  0  0  0  0  0  0  0  0  0
   61.2540   28.0440   52.2800 C   0  0  0  0  0  0  0  0  0  0  0  0
   61.1070   29.0220   51.2830 C   0  0  0  0  0  0  0  0  0  0  0  0
   61.2740   30.4890   51.6190 C   0  0  0  0  0  0  0  0  0  0  0  0
   61.5390   31.3490   50.4450 N   0  0  0  0  0  0  0  0  0  0  0  0
   61.0950   32.7440   50.6340 C   0  0  0  0  0  0  0  0  0  0  0  0
   61.2960   33.5840   49.3520 C   0  0  0  0  0  0  0  0  0  0  0  0
   61.8200   32.7340   48.1770 C   0  0  0  0  0  0  0  0  0  0  0  0
   62.0870   33.5650   46.9490 C   0  0  0  0  0  0  0  0  0  0  0  0
   63.2620   33.6390   46.4980 O   0  0  0  0  0  0  0  0  0  0  0  0
   61.0310   34.3110   46.3320 N   0  0  0  0  0  0  0  0  0  0  0  0
   59.7300   33.7470   45.9810 C   0  0  0  0  0  0  0  0  0  0  0  0
   58.9220   33.4070   47.2590 C   0  0  0  0  0  0  0  0  0  0  0  0
   57.3930   33.4550   47.0540 C   0  0  0  0  0  0  0  0  0  0  0  0
   57.0030   33.1540   45.6040 C   0  0  0  0  0  0  0  0  0  0  0  0
   57.6130   34.1800   44.6280 C   0  0  0  0  0  0  0  0  0  0  0  0
   58.9690   34.7470   45.0990 C   0  0  0  0  0  0  0  0  0  0  0  0
   63.0860   31.9620   48.5940 C   0  0  0  0  0  0  0  0  0  0  0  0
   62.9370   31.2920   49.9790 C   0  0  0  0  0  0  0  0  0  0  0  0
   60.8340   28.6230   49.9630 C   0  0  0  0  0  0  0  0  0  0  0  0
   57.7770   28.3190   45.9110 C   0  0  0  0  0  0  0  0  0  0  0  0
   56.8770   27.3020   45.9500 F   0  0  0  0  0  0  0  0  0  0  0  0
   57.3050   29.4830   42.2850 H   0  0  0  0  0  0  0  0  0  0  0  0
   55.5280   29.7280   42.2390 H   0  0  0  0  0  0  0  0  0  0  0  0
   58.3618   31.3146   44.3508 H   0  0  0  0  0  0  0  0  0  0  0  0
   60.4158   31.1842   45.7474 H   0  0  0  0  0  0  0  0  0  0  0  0
   60.7948   29.2370   47.2486 H   0  0  0  0  0  0  0  0  0  0  0  0
   60.7314   25.2331   50.4072 H   0  0  0  0  0  0  0  0  0  0  0  0
   61.2194   25.9303   52.7507 H   0  0  0  0  0  0  0  0  0  0  0  0
   61.4793   28.3446   53.3139 H   0  0  0  0  0  0  0  0  0  0  0  0
   60.3510   30.8401   52.1036 H   0  0  0  0  0  0  0  0  0  0  0  0
   62.1532   30.5669   52.2754 H   0  0  0  0  0  0  0  0  0  0  0  0
   60.0272   32.7460   50.8983 H   0  0  0  0  0  0  0  0  0  0  0  0
   61.6994   33.1916   51.4368 H   0  0  0  0  0  0  0  0  0  0  0  0
   60.3320   34.0294   49.0652 H   0  0  0  0  0  0  0  0  0  0  0  0
   62.0454   34.3594   49.5694 H   0  0  0  0  0  0  0  0  0  0  0  0
   61.0306   32.0136   47.9164 H   0  0  0  0  0  0  0  0  0  0  0  0
   59.8745   32.8117   45.4203 H   0  0  0  0  0  0  0  0  0  0  0  0
   59.1975   32.3933   47.5853 H   0  0  0  0  0  0  0  0  0  0  0  0
   59.1709   34.1704   48.0108 H   0  0  0  0  0  0  0  0  0  0  0  0
   56.9222   32.7092   47.7113 H   0  0  0  0  0  0  0  0  0  0  0  0
   57.0476   34.4708   47.2968 H   0  0  0  0  0  0  0  0  0  0  0  0
   57.3644   32.1497   45.3382 H   0  0  0  0  0  0  0  0  0  0  0  0
   55.9075   33.2111   45.5232 H   0  0  0  0  0  0  0  0  0  0  0  0
   57.7599   33.6897   43.6543 H   0  0  0  0  0  0  0  0  0  0  0  0
   56.9121   35.0256   44.5677 H   0  0  0  0  0  0  0  0  0  0  0  0
   59.5824   34.9821   44.2167 H   0  0  0  0  0  0  0  0  0  0  0  0
   58.7731   35.6496   45.6964 H   0  0  0  0  0  0  0  0  0  0  0  0
   63.2878   31.1828   47.8443 H   0  0  0  0  0  0  0  0  0  0  0  0
   63.9138   32.6837   48.6574 H   0  0  0  0  0  0  0  0  0  0  0  0
   63.2491   30.2398   49.9052 H   0  0  0  0  0  0  0  0  0  0  0  0
   63.5693   31.8315   50.6996 H   0  0  0  0  0  0  0  0  0  0  0  0
   60.7128   29.3836   49.1776 H   0  0  0  0  0  0  0  0  0  0  0  0
  1  2  1  0
  2  3  2  0
  2  4  1  0
  4  5  2  0
  5  6  1  0
  6  7  2  0
  7  8  1  0
  8  9  1  0
  9 10  2  0
  9 11  1  0
 11 12  1  0
 12 13  2  0
 13 14  1  0
 14 15  2  0
 15 16  1  0
 16 17  1  0
 17 18  1  0
 18 19  1  0
 19 20  1  0
 20 21  1  0
 21 22  1  0
 22 23  2  0
 22 24  1  0
 24 25  1  0
 25 26  1  0
 26 27  1  0
 27 28  1  0
 28 29  1  0
 29 30  1  0
 21 31  1  0
 31 32  1  0
 16 33  2  0
  8 34  2  0
 34 35  1  0
 34  4  1  0
 33 12  1  0
 32 18  1  0
 30 25  1  0
  1 36  1  0
  1 37  1  0
  5 38  1  0
  6 39  1  0
  7 40  1  0
 13 41  1  0
 14 42  1  0
 15 43  1  0
 17 44  1  0
 17 45  1  0
 19 46  1  0
 19 47  1  0
 20 48  1  0
 20 49  1  0
 21 50  1  0
 25 51  1  0
 26 52  1  0
 26 53  1  0
 27 54  1  0
 27 55  1  0
 28 56  1  0
 28 57  1  0
 29 58  1  0
 29 59  1  0
 30 60  1  0
 30 61  1  0
 31 62  1  0
 31 63  1  0
 32 64  1  0
 32 65  1  0
 33 66  1  0
M  CHG  2  11  -1  24  -1
M  END
>  <UniqueID>  (41) 
39

>  <SMILES>  (41) 
NC(=O)c1cccc(C(=O)[N-]c2cccc(CN3CCC(C(=O)[N-]C4CCCCC4)CC3)c2)c1F

>  <Energy>  (41) 
85.21833450153773

>  <Genealogy>  (41) 
NC(=O)c1cccc(C(=O)[N-]c2cccc(CN3CCC(C(=O)[N-]C4CCCCC4)CC3)c2)c1F (protonated)
NC(=O)c1cccc(C(=O)[N-]c2cccc(CN3CCC(C(=O)[N-]C4CCCCC4)CC3)c2)c1F (3D coordinates assigned)
NC(=O)c1cccc(C(=O)[N-]c2cccc(CN3CCC(C(=O)[N-]C4CCCCC4)CC3)c2)c1F (nonaromatic ring conformer: 85.21833450153773 kcal/mol)

>  <smiles>  (41) 
NC(=O)c1cccc(C(=O)Nc2cccc(CN3CCC(C(=O)NC4CCCCC4)CC3)c2)c1F

>  <score_type>  (41) 
oracle

>  <origin>  (41) 
adg

>  <m_score__min__energy>  (41) 
-13.359999999999999

>  <m_primary>  (41) 
energy

$$$$
41:0
     RDKit          3D

 56 59  0  0  0  0  0  0  0  0999 V2000
   58.5020   31.2620   50.3750 C   0  0  0  0  0  0  0  0  0  0  0  0
   58.3970   32.2630   51.2480 C   0  0  0  0  0  0  0  0  0  0  0  0
   59.2780   33.4540   51.1990 C   0  0  0  0  0  0  0  0  0  0  0  0
   59.2460   34.2810   52.1520 O   0  0  0  0  0  0  0  0  0  0  0  0
   60.1680   33.6880   50.0850 N   0  0  0  0  0  0  0  0  0  0  0  0
   59.6020   34.1860   48.8450 C   0  0  0  0  0  0  0  0  0  0  0  0
   60.3110   34.2210   47.7050 C   0  0  0  0  0  0  0  0  0  0  0  0
   59.7160   34.6910   46.4310 C   0  0  0  0  0  0  0  0  0  0  0  0
   58.5070   34.3270   45.9700 C   0  0  0  0  0  0  0  0  0  0  0  0
   58.1490   32.9540   45.5520 C   0  0  0  0  0  0  0  0  0  0  0  0
   58.5610   31.8350   46.2960 C   0  0  0  0  0  0  0  0  0  0  0  0
   58.1810   30.5480   45.9030 C   0  0  0  0  0  0  0  0  0  0  0  0
   57.3900   30.3620   44.7600 C   0  0  0  0  0  0  0  0  0  0  0  0
   56.9660   29.0010   44.3800 C   0  0  0  0  0  0  0  0  0  0  0  0
   57.3470   28.5270   43.2790 O   0  0  0  0  0  0  0  0  0  0  0  0
   56.1710   28.1800   45.2450 N   0  0  0  0  0  0  0  0  0  0  0  0
   56.6940   27.1530   46.1400 C   0  0  0  0  0  0  0  0  0  0  0  0
   56.6620   25.8230   45.4460 C   0  0  0  0  0  0  0  0  0  0  0  0
   55.5700   24.9590   45.5940 C   0  0  0  0  0  0  0  0  0  0  0  0
   55.5670   23.7180   44.9550 C   0  0  0  0  0  0  0  0  0  0  0  0
   56.6720   23.3340   44.1770 C   0  0  0  0  0  0  0  0  0  0  0  0
   56.7160   22.0220   43.4790 C   0  0  0  0  0  0  0  0  0  0  0  0
   56.1360   21.8720   42.3290 N   0  0  0  0  0  0  0  0  0  0  0  0
   57.4120   20.9080   44.0460 N   0  0  0  0  0  0  0  0  0  0  0  0
   57.7220   24.1920   44.0530 N   0  0  0  0  0  0  0  0  0  0  0  0
   57.7440   25.4080   44.6600 C   0  0  0  0  0  0  0  0  0  0  0  0
   57.0350   31.4740   43.9810 C   0  0  0  0  0  0  0  0  0  0  0  0
   57.4170   32.7610   44.3730 C   0  0  0  0  0  0  0  0  0  0  0  0
   61.7210   33.8300   47.7560 C   0  0  0  0  0  0  0  0  0  0  0  0
   62.8180   33.7260   46.4860 S   0  0  0  0  0  0  0  0  0  0  0  0
   64.1110   33.1900   47.4270 C   0  0  0  0  0  0  0  0  0  0  0  0
   63.6840   33.0860   48.7470 C   0  0  0  0  0  0  0  0  0  0  0  0
   62.3420   33.4400   48.9220 C   0  0  0  0  0  0  0  0  0  0  0  0
   61.6220   33.4550   50.2390 C   0  0  0  0  0  0  0  0  0  0  0  0
   57.8275   30.3961   50.4474 H   0  0  0  0  0  0  0  0  0  0  0  0
   59.2632   31.3015   49.5819 H   0  0  0  0  0  0  0  0  0  0  0  0
   57.6290   32.2034   52.0333 H   0  0  0  0  0  0  0  0  0  0  0  0
   58.5623   34.5452   48.8387 H   0  0  0  0  0  0  0  0  0  0  0  0
   60.3068   35.3881   45.8186 H   0  0  0  0  0  0  0  0  0  0  0  0
   57.7308   35.1032   45.8987 H   0  0  0  0  0  0  0  0  0  0  0  0
   59.1851   31.9723   47.1913 H   0  0  0  0  0  0  0  0  0  0  0  0
   58.5039   29.6776   46.4930 H   0  0  0  0  0  0  0  0  0  0  0  0
   57.7305   27.3988   46.4145 H   0  0  0  0  0  0  0  0  0  0  0  0
   56.0755   27.1081   47.0485 H   0  0  0  0  0  0  0  0  0  0  0  0
   54.7130   25.2588   46.2150 H   0  0  0  0  0  0  0  0  0  0  0  0
   54.7039   23.0442   45.0600 H   0  0  0  0  0  0  0  0  0  0  0  0
   56.2940   22.5170   41.5220 H   0  0  0  0  0  0  0  0  0  0  0  0
   57.4020   19.9850   43.5570 H   0  0  0  0  0  0  0  0  0  0  0  0
   58.0310   21.0090   44.8840 H   0  0  0  0  0  0  0  0  0  0  0  0
   58.6147   26.0682   44.5333 H   0  0  0  0  0  0  0  0  0  0  0  0
   56.4537   31.3327   43.0579 H   0  0  0  0  0  0  0  0  0  0  0  0
   57.1413   33.6264   43.7524 H   0  0  0  0  0  0  0  0  0  0  0  0
   65.1220   32.9611   47.0589 H   0  0  0  0  0  0  0  0  0  0  0  0
   64.3360   32.7584   49.5702 H   0  0  0  0  0  0  0  0  0  0  0  0
   61.7737   32.4852   50.7355 H   0  0  0  0  0  0  0  0  0  0  0  0
   62.0327   34.2824   50.8363 H   0  0  0  0  0  0  0  0  0  0  0  0
  1  2  2  0
  2  3  1  0
  3  4  2  0
  3  5  1  0
  5  6  1  0
  6  7  2  0
  7  8  1  0
  8  9  2  3
  9 10  1  0
 10 11  2  0
 11 12  1  0
 12 13  2  0
 13 14  1  0
 14 15  2  0
 14 16  1  0
 16 17  1  0
 17 18  1  0
 18 19  2  0
 19 20  1  0
 20 21  2  0
 21 22  1  0
 22 23  2  3
 22 24  1  0
 21 25  1  0
 25 26  2  0
 13 27  1  0
 27 28  2  0
  7 29  1  0
 29 30  1  0
 30 31  1  0
 31 32  2  0
 32 33  1  0
 33 34  1  0
 34  5  1  0
 28 10  1  0
 33 29  2  0
 26 18  1  0
  1 35  1  0
  1 36  1  0
  2 37  1  0
  6 38  1  0
  8 39  1  0
  9 40  1  0
 11 41  1  0
 12 42  1  0
 17 43  1  0
 17 44  1  0
 19 45  1  0
 20 46  1  0
 23 47  1  0
 24 48  1  0
 24 49  1  0
 26 50  1  0
 27 51  1  0
 28 52  1  0
 31 53  1  0
 32 54  1  0
 34 55  1  0
 34 56  1  0
M  CHG  1  16  -1
M  END
>  <UniqueID>  (42) 
40

>  <SMILES>  (42) 
C=CC(=O)N1C=C(C=Cc2ccc(C(=O)[N-]Cc3ccc(C(=N)N)nc3)cc2)c2sccc2C1

>  <Energy>  (42) 
102.47921859821075

>  <Genealogy>  (42) 
C=CC(=O)N1C=C(C=Cc2ccc(C(=O)[N-]Cc3ccc(C(=N)N)nc3)cc2)c2sccc2C1 (protonated)
C=CC(=O)N1C=C(C=Cc2ccc(C(=O)[N-]Cc3ccc(C(=N)N)nc3)cc2)c2sccc2C1 (3D coordinates assigned)
C=CC(=O)N1C=C(C=Cc2ccc(C(=O)[N-]Cc3ccc(C(=N)N)nc3)cc2)c2sccc2C1 (nonaromatic ring conformer: 102.47921859821075 kcal/mol)

>  <smiles>  (42) 
C=CC(=O)N1C=C(C=Cc2ccc(C(=O)NCc3ccc(C(=N)N)nc3)cc2)c2sccc2C1

>  <score_type>  (42) 
oracle

>  <origin>  (42) 
adg

>  <m_score__min__energy>  (42) 
-12.859999999999999

>  <m_primary>  (42) 
energy

$$$$
42:0
     RDKit          3D

 56 59  0  0  0  0  0  0  0  0999 V2000
   55.2580   29.3460   44.8670 O   0  0  0  0  0  0  0  0  0  0  0  0
   56.3560   29.6160   44.3100 C   0  0  0  0  0  0  0  0  0  0  0  0
   57.4040   28.5560   44.1940 C   0  0  0  0  0  0  0  0  0  0  0  0
   58.4680   28.7640   45.2370 C   0  0  0  0  0  0  0  0  0  0  0  0
   59.7340   29.2560   44.8720 C   0  0  0  0  0  0  0  0  0  0  0  0
   60.7280   29.4240   45.8410 C   0  0  0  0  0  0  0  0  0  0  0  0
   60.4700   29.0990   47.1760 C   0  0  0  0  0  0  0  0  0  0  0  0
   59.2180   28.5960   47.5430 C   0  0  0  0  0  0  0  0  0  0  0  0
   58.2210   28.4240   46.5780 C   0  0  0  0  0  0  0  0  0  0  0  0
   56.6510   30.9480   43.8710 N   0  0  0  0  0  0  0  0  0  0  0  0
   57.4390   31.9250   44.5680 C   0  0  0  0  0  0  0  0  0  0  0  0
   57.7560   31.6960   45.9120 C   0  0  0  0  0  0  0  0  0  0  0  0
   58.5320   32.6140   46.6250 C   0  0  0  0  0  0  0  0  0  0  0  0
   59.0080   33.7790   46.0010 C   0  0  0  0  0  0  0  0  0  0  0  0
   59.8280   34.7640   46.7480 C   0  0  0  0  0  0  0  0  0  0  0  0
   60.0040   35.9100   46.2510 O   0  0  0  0  0  0  0  0  0  0  0  0
   60.4220   34.4410   48.0250 N   0  0  0  0  0  0  0  0  0  0  0  0
   59.6360   34.6140   49.2570 C   0  0  0  0  0  0  0  0  0  0  0  0
   59.6770   33.3580   50.0870 C   0  0  0  0  0  0  0  0  0  0  0  0
   60.5110   33.2750   51.2130 C   0  0  0  0  0  0  0  0  0  0  0  0
   60.5080   32.1250   52.0080 C   0  0  0  0  0  0  0  0  0  0  0  0
   59.6690   31.0550   51.6910 C   0  0  0  0  0  0  0  0  0  0  0  0
   58.8290   31.1280   50.5750 C   0  0  0  0  0  0  0  0  0  0  0  0
   57.9910   30.0550   50.2740 O   0  0  0  0  0  0  0  0  0  0  0  0
   58.8330   32.2790   49.7740 C   0  0  0  0  0  0  0  0  0  0  0  0
   61.6630   33.7080   48.0830 C   0  0  0  0  0  0  0  0  0  0  0  0
   61.8220   32.5210   47.3450 C   0  0  0  0  0  0  0  0  0  0  0  0
   63.0190   31.8000   47.4160 C   0  0  0  0  0  0  0  0  0  0  0  0
   64.0640   32.2570   48.2210 C   0  0  0  0  0  0  0  0  0  0  0  0
   63.9170   33.4370   48.9550 C   0  0  0  0  0  0  0  0  0  0  0  0
   62.7240   34.1610   48.8880 C   0  0  0  0  0  0  0  0  0  0  0  0
   58.7230   33.9880   44.6410 C   0  0  0  0  0  0  0  0  0  0  0  0
   57.9480   33.0680   43.9290 C   0  0  0  0  0  0  0  0  0  0  0  0
   56.9406   27.5689   44.3389 H   0  0  0  0  0  0  0  0  0  0  0  0
   57.8629   28.6114   43.1958 H   0  0  0  0  0  0  0  0  0  0  0  0
   59.9426   29.5092   43.8221 H   0  0  0  0  0  0  0  0  0  0  0  0
   61.7156   29.8129   45.5521 H   0  0  0  0  0  0  0  0  0  0  0  0
   61.2515   29.2389   47.9373 H   0  0  0  0  0  0  0  0  0  0  0  0
   59.0172   28.3352   48.5926 H   0  0  0  0  0  0  0  0  0  0  0  0
   57.2398   28.0211   46.8695 H   0  0  0  0  0  0  0  0  0  0  0  0
   57.3914   30.7861   46.4111 H   0  0  0  0  0  0  0  0  0  0  0  0
   58.7715   32.4230   47.6815 H   0  0  0  0  0  0  0  0  0  0  0  0
   60.0548   35.4475   49.8400 H   0  0  0  0  0  0  0  0  0  0  0  0
   58.5916   34.8289   48.9866 H   0  0  0  0  0  0  0  0  0  0  0  0
   61.1693   34.1178   51.4708 H   0  0  0  0  0  0  0  0  0  0  0  0
   61.1684   32.0630   52.8855 H   0  0  0  0  0  0  0  0  0  0  0  0
   59.6686   30.1527   52.3202 H   0  0  0  0  0  0  0  0  0  0  0  0
   56.9930   30.1000   50.4420 H   0  0  0  0  0  0  0  0  0  0  0  0
   58.1723   32.3375   48.8965 H   0  0  0  0  0  0  0  0  0  0  0  0
   61.0013   32.1579   46.7090 H   0  0  0  0  0  0  0  0  0  0  0  0
   63.1368   30.8722   46.8370 H   0  0  0  0  0  0  0  0  0  0  0  0
   65.0037   31.6879   48.2775 H   0  0  0  0  0  0  0  0  0  0  0  0
   64.7424   33.7966   49.5869 H   0  0  0  0  0  0  0  0  0  0  0  0
   62.6138   35.0895   49.4674 H   0  0  0  0  0  0  0  0  0  0  0  0
   59.1127   34.8823   44.1328 H   0  0  0  0  0  0  0  0  0  0  0  0
   57.7357   33.2397   42.8634 H   0  0  0  0  0  0  0  0  0  0  0  0
  1  2  2  0
  2  3  1  0
  3  4  1  0
  4  5  2  0
  5  6  1  0
  6  7  2  0
  7  8  1  0
  8  9  2  0
  2 10  1  0
 10 11  1  0
 11 12  2  0
 12 13  1  0
 13 14  2  0
 14 15  1  0
 15 16  2  0
 15 17  1  0
 17 18  1  0
 18 19  1  0
 19 20  2  0
 20 21  1  0
 21 22  2  0
 22 23  1  0
 23 24  1  0
 23 25  2  0
 17 26  1  0
 26 27  2  0
 27 28  1  0
 28 29  2  0
 29 30  1  0
 30 31  2  0
 14 32  1  0
 32 33  2  0
  9  4  1  0
 33 11  1  0
 25 19  1  0
 31 26  1  0
  3 34  1  0
  3 35  1  0
  5 36  1  0
  6 37  1  0
  7 38  1  0
  8 39  1  0
  9 40  1  0
 12 41  1  0
 13 42  1  0
 18 43  1  0
 18 44  1  0
 20 45  1  0
 21 46  1  0
 22 47  1  0
 24 48  1  0
 25 49  1  0
 27 50  1  0
 28 51  1  0
 29 52  1  0
 30 53  1  0
 31 54  1  0
 32 55  1  0
 33 56  1  0
M  CHG  1  10  -1
M  END
>  <UniqueID>  (43) 
41

>  <SMILES>  (43) 
O=C(Cc1ccccc1)[N-]c1ccc(C(=O)N(Cc2cccc(O)c2)c2ccccc2)cc1

>  <Energy>  (43) 
69.16978079854987

>  <Genealogy>  (43) 
O=C(Cc1ccccc1)[N-]c1ccc(C(=O)N(Cc2cccc(O)c2)c2ccccc2)cc1 (protonated)
O=C(Cc1ccccc1)[N-]c1ccc(C(=O)N(Cc2cccc(O)c2)c2ccccc2)cc1 (3D coordinates assigned)
O=C(Cc1ccccc1)[N-]c1ccc(C(=O)N(Cc2cccc(O)c2)c2ccccc2)cc1 (optimized conformer: 69.16978079854987 kcal/mol)

>  <smiles>  (43) 
O=C(Cc1ccccc1)Nc1ccc(C(=O)N(Cc2cccc(O)c2)c2ccccc2)cc1

>  <score_type>  (43) 
oracle

>  <origin>  (43) 
adg

>  <m_score__min__energy>  (43) 
-11.9

>  <m_primary>  (43) 
energy

$$$$
43:0
     RDKit          3D

 68 72  0  0  0  0  0  0  0  0999 V2000
   56.2610   21.3400   42.6170 N   0  0  0  0  0  0  0  0  0  0  0  0
   56.7240   22.2100   43.2240 C   0  0  0  0  0  0  0  0  0  0  0  0
   57.3010   23.2910   43.9780 C   0  0  0  0  0  0  0  0  0  0  0  0
   57.8570   23.0450   45.2400 C   0  0  0  0  0  0  0  0  0  0  0  0
   58.4030   24.0970   45.9780 C   0  0  0  0  0  0  0  0  0  0  0  0
   58.3840   25.3980   45.4650 C   0  0  0  0  0  0  0  0  0  0  0  0
   57.8310   25.6540   44.1990 C   0  0  0  0  0  0  0  0  0  0  0  0
   57.8030   27.0600   43.6490 C   0  0  0  0  0  0  0  0  0  0  0  0
   57.5390   28.0820   44.6980 N   0  0  1  0  0  0  0  0  0  0  0  0
   58.7930   28.6530   45.2710 C   0  0  0  0  0  0  0  0  0  0  0  0
   58.8720   28.5430   46.7810 C   0  0  0  0  0  0  0  0  0  0  0  0
   58.0280   27.8270   47.3910 O   0  0  0  0  0  0  0  0  0  0  0  0
   59.8390   29.2940   47.5480 N   0  0  0  0  0  0  0  0  0  0  0  0
   60.1960   28.8000   48.8830 C   0  0  0  0  0  0  0  0  0  0  0  0
   61.1040   29.7830   49.6270 C   0  0  0  0  0  0  0  0  0  0  0  0
   60.7080   31.1840   49.3780 N   0  0  0  0  0  0  0  0  0  0  0  0
   59.3230   31.5130   49.8220 C   0  0  0  0  0  0  0  0  0  0  0  0
   58.8290   30.5970   50.9440 C   0  0  0  0  0  0  0  0  0  0  0  0
   57.7640   31.3930   51.6750 C   0  0  0  0  0  0  0  0  0  0  0  0
   58.1610   32.8550   51.5270 C   0  0  0  0  0  0  0  0  0  0  0  0
   59.2340   32.9130   50.4430 C   0  0  0  0  0  0  0  0  0  0  0  0
   60.9590   31.5270   47.9580 C   0  0  0  0  0  0  0  0  0  0  0  0
   60.5690   30.4220   46.9430 C   0  0  0  0  0  0  0  0  0  0  0  0
   56.6580   29.1560   44.1700 C   0  0  0  0  0  0  0  0  0  0  0  0
   57.2470   30.5370   44.3030 C   0  0  0  0  0  0  0  0  0  0  0  0
   57.6270   31.2280   43.1950 N   0  0  0  0  0  0  0  0  0  0  0  0
   58.1410   32.4830   43.2830 C   0  0  0  0  0  0  0  0  0  0  0  0
   58.4790   33.0870   42.2290 O   0  0  0  0  0  0  0  0  0  0  0  0
   58.2850   33.0890   44.5420 C   0  0  0  0  0  0  0  0  0  0  0  0
   58.8030   34.3860   44.7010 C   0  0  0  0  0  0  0  0  0  0  0  0
   58.9240   34.9380   45.9810 C   0  0  0  0  0  0  0  0  0  0  0  0
   58.5310   34.2030   47.1050 C   0  0  0  0  0  0  0  0  0  0  0  0
   58.0150   32.9140   46.9570 C   0  0  0  0  0  0  0  0  0  0  0  0
   57.8880   32.3540   45.6810 C   0  0  0  0  0  0  0  0  0  0  0  0
   57.3790   31.1030   45.5330 N   0  0  0  0  0  0  0  0  0  0  0  0
   57.2990   24.5890   43.4540 C   0  0  0  0  0  0  0  0  0  0  0  0
   57.8634   22.0240   45.6492 H   0  0  0  0  0  0  0  0  0  0  0  0
   58.8489   23.9022   46.9646 H   0  0  0  0  0  0  0  0  0  0  0  0
   58.8042   26.2252   46.0558 H   0  0  0  0  0  0  0  0  0  0  0  0
   58.7766   27.2757   43.1847 H   0  0  0  0  0  0  0  0  0  0  0  0
   56.9827   27.1145   42.9181 H   0  0  0  0  0  0  0  0  0  0  0  0
   56.9790   27.6270   45.4560 H   0  0  0  0  0  0  0  0  0  0  0  0
   59.6499   28.1166   44.8374 H   0  0  0  0  0  0  0  0  0  0  0  0
   58.8035   29.7247   45.0234 H   0  0  0  0  0  0  0  0  0  0  0  0
   59.2753   28.6535   49.4668 H   0  0  0  0  0  0  0  0  0  0  0  0
   60.7420   27.8526   48.7631 H   0  0  0  0  0  0  0  0  0  0  0  0
   61.0407   29.5806   50.7064 H   0  0  0  0  0  0  0  0  0  0  0  0
   62.1323   29.6459   49.2613 H   0  0  0  0  0  0  0  0  0  0  0  0
   58.7247   31.4110   48.9046 H   0  0  0  0  0  0  0  0  0  0  0  0
   58.4007   29.6738   50.5266 H   0  0  0  0  0  0  0  0  0  0  0  0
   59.6465   30.2950   51.6151 H   0  0  0  0  0  0  0  0  0  0  0  0
   56.7768   31.2169   51.2228 H   0  0  0  0  0  0  0  0  0  0  0  0
   57.6943   31.0985   52.7325 H   0  0  0  0  0  0  0  0  0  0  0  0
   57.2891   33.4559   51.2293 H   0  0  0  0  0  0  0  0  0  0  0  0
   58.5381   33.2598   52.4777 H   0  0  0  0  0  0  0  0  0  0  0  0
   58.9552   33.6495   49.6750 H   0  0  0  0  0  0  0  0  0  0  0  0
   60.2029   33.2160   50.8666 H   0  0  0  0  0  0  0  0  0  0  0  0
   60.3815   32.4318   47.7174 H   0  0  0  0  0  0  0  0  0  0  0  0
   62.0458   31.6668   47.8609 H   0  0  0  0  0  0  0  0  0  0  0  0
   59.9321   30.8720   46.1672 H   0  0  0  0  0  0  0  0  0  0  0  0
   61.5057   30.0164   46.5331 H   0  0  0  0  0  0  0  0  0  0  0  0
   56.4695   28.9591   43.1043 H   0  0  0  0  0  0  0  0  0  0  0  0
   55.7344   29.1395   44.7673 H   0  0  0  0  0  0  0  0  0  0  0  0
   59.1130   34.9667   43.8197 H   0  0  0  0  0  0  0  0  0  0  0  0
   59.3294   35.9531   46.1041 H   0  0  0  0  0  0  0  0  0  0  0  0
   58.6289   34.6422   48.1087 H   0  0  0  0  0  0  0  0  0  0  0  0
   57.7084   32.3390   47.8432 H   0  0  0  0  0  0  0  0  0  0  0  0
   56.8790   24.7756   42.4546 H   0  0  0  0  0  0  0  0  0  0  0  0
  1  2  3  0
  2  3  1  0
  3  4  2  0
  4  5  1  0
  5  6  2  0
  6  7  1  0
  7  8  1  0
  8  9  1  0
  9 10  1  0
 10 11  1  0
 11 12  2  0
 11 13  1  0
 13 14  1  0
 14 15  1  0
 15 16  1  0
 16 17  1  0
 17 18  1  0
 18 19  1  0
 19 20  1  0
 20 21  1  0
 16 22  1  0
 22 23  1  0
  9 24  1  0
 24 25  1  0
 25 26  2  0
 26 27  1  0
 27 28  2  0
 27 29  1  0
 29 30  2  0
 30 31  1  0
 31 32  2  0
 32 33  1  0
 33 34  2  0
 34 35  1  0
  7 36  2  0
 36  3  1  0
 23 13  1  0
 35 25  1  0
 21 17  1  0
 34 29  1  0
  4 37  1  0
  5 38  1  0
  6 39  1  0
  8 40  1  0
  8 41  1  0
  9 42  1  1
 10 43  1  0
 10 44  1  0
 14 45  1  0
 14 46  1  0
 15 47  1  0
 15 48  1  0
 17 49  1  0
 18 50  1  0
 18 51  1  0
 19 52  1  0
 19 53  1  0
 20 54  1  0
 20 55  1  0
 21 56  1  0
 21 57  1  0
 22 58  1  0
 22 59  1  0
 23 60  1  0
 23 61  1  0
 24 62  1  0
 24 63  1  0
 30 64  1  0
 31 65  1  0
 32 66  1  0
 33 67  1  0
 36 68  1  0
M  CHG  2   9   1  35  -1
M  END
>  <UniqueID>  (44) 
42

>  <SMILES>  (44) 
N#Cc1cccc(C[N@@H+](CC(=O)N2CCN(C3CCCC3)CC2)Cc2nc(=O)c3ccccc3[n-]2)c1

>  <Energy>  (44) 
92.09478165716024

>  <Genealogy>  (44) 
N#Cc1cccc(C[NH+](CC(=O)N2CCN(C3CCCC3)CC2)Cc2nc(=O)c3ccccc3[n-]2)c1 (protonated)
N#Cc1cccc(C[N@@H+](CC(=O)N2CCN(C3CCCC3)CC2)Cc2nc(=O)c3ccccc3[n-]2)c1 (chirality)
N#Cc1cccc(C[N@@H+](CC(=O)N2CCN(C3CCCC3)CC2)Cc2nc(=O)c3ccccc3[n-]2)c1 (3D coordinates assigned)
N#Cc1cccc(C[N@@H+](CC(=O)N2CCN(C3CCCC3)CC2)Cc2nc(=O)c3ccccc3[n-]2)c1 (nonaromatic ring conformer: 92.09478165716024 kcal/mol)

>  <smiles>  (44) 
N#Cc1cccc(CN(CC(=O)N2CCN(C3CCCC3)CC2)Cc2nc(=O)c3ccccc3[nH]2)c1

>  <score_type>  (44) 
oracle

>  <origin>  (44) 
adg

>  <m_score__min__energy>  (44) 
-10.029999999999999

>  <m_primary>  (44) 
energy

$$$$
44:0
     RDKit          3D

 48 51  0  0  0  0  0  0  0  0999 V2000
   59.1880   27.4800   43.8130 O   0  0  0  0  0  0  0  0  0  0  0  0
   57.9620   27.2710   44.0200 C   0  0  0  0  0  0  0  0  0  0  0  0
   57.3970   25.9090   43.7540 C   0  0  0  0  0  0  0  0  0  0  0  0
   57.1610   25.1790   45.0520 C   0  0  0  0  0  0  0  0  0  0  0  0
   57.9580   24.0660   45.3740 C   0  0  0  0  0  0  0  0  0  0  0  0
   57.7360   23.3560   46.5580 C   0  0  0  0  0  0  0  0  0  0  0  0
   56.7130   23.7450   47.4260 C   0  0  0  0  0  0  0  0  0  0  0  0
   55.9090   24.8430   47.1110 C   0  0  0  0  0  0  0  0  0  0  0  0
   56.1250   25.5590   45.9280 C   0  0  0  0  0  0  0  0  0  0  0  0
   55.3070   26.6460   45.6360 O   0  0  0  0  0  0  0  0  0  0  0  0
   57.0950   28.3440   44.4210 N   0  0  0  0  0  0  0  0  0  0  0  0
   57.5570   29.6420   44.8320 C   0  0  0  0  0  0  0  0  0  0  0  0
   57.1380   30.7770   44.1230 C   0  0  0  0  0  0  0  0  0  0  0  0
   57.5570   32.0520   44.5120 C   0  0  0  0  0  0  0  0  0  0  0  0
   58.3840   32.2090   45.6320 C   0  0  0  0  0  0  0  0  0  0  0  0
   58.9390   33.8120   46.1070 S   0  0  0  0  0  0  0  0  0  0  0  0
   59.7530   34.4100   44.9940 O   0  0  0  0  0  0  0  0  0  0  0  0
   57.7510   34.6930   46.3740 O   0  0  0  0  0  0  0  0  0  0  0  0
   59.9100   33.6940   47.5380 N   0  0  0  0  0  0  0  0  0  0  0  0
   59.3900   33.7160   48.9030 C   0  0  0  0  0  0  0  0  0  0  0  0
   60.6280   33.6060   49.8270 C   0  0  0  0  0  0  0  0  0  0  0  0
   61.7700   33.5380   48.8700 C   0  0  0  0  0  0  0  0  0  0  0  0
   63.1320   33.4370   49.1580 C   0  0  0  0  0  0  0  0  0  0  0  0
   64.0410   33.3890   48.0890 C   0  0  0  0  0  0  0  0  0  0  0  0
   63.5760   33.4430   46.7600 C   0  0  0  0  0  0  0  0  0  0  0  0
   62.2000   33.5450   46.4950 C   0  0  0  0  0  0  0  0  0  0  0  0
   61.3200   33.5910   47.5800 C   0  0  0  0  0  0  0  0  0  0  0  0
   58.7930   31.0810   46.3540 C   0  0  0  0  0  0  0  0  0  0  0  0
   58.3760   29.8050   45.9630 C   0  0  0  0  0  0  0  0  0  0  0  0
   56.4430   26.0104   43.2158 H   0  0  0  0  0  0  0  0  0  0  0  0
   58.1130   25.3365   43.1460 H   0  0  0  0  0  0  0  0  0  0  0  0
   58.7607   23.7521   44.6905 H   0  0  0  0  0  0  0  0  0  0  0  0
   58.3676   22.4903   46.8061 H   0  0  0  0  0  0  0  0  0  0  0  0
   56.5405   23.1865   48.3578 H   0  0  0  0  0  0  0  0  0  0  0  0
   55.1029   25.1461   47.7954 H   0  0  0  0  0  0  0  0  0  0  0  0
   56.0640   28.2020   44.3210 H   0  0  0  0  0  0  0  0  0  0  0  0
   56.4740   30.6627   43.2535 H   0  0  0  0  0  0  0  0  0  0  0  0
   57.2370   32.9340   43.9379 H   0  0  0  0  0  0  0  0  0  0  0  0
   58.8523   34.6566   49.0931 H   0  0  0  0  0  0  0  0  0  0  0  0
   58.6788   32.8955   49.0790 H   0  0  0  0  0  0  0  0  0  0  0  0
   60.7125   34.4884   50.4783 H   0  0  0  0  0  0  0  0  0  0  0  0
   60.5829   32.7397   50.5034 H   0  0  0  0  0  0  0  0  0  0  0  0
   63.4852   33.3959   50.1989 H   0  0  0  0  0  0  0  0  0  0  0  0
   65.1196   33.3090   48.2896 H   0  0  0  0  0  0  0  0  0  0  0  0
   64.2931   33.4052   45.9267 H   0  0  0  0  0  0  0  0  0  0  0  0
   61.8254   33.5875   45.4616 H   0  0  0  0  0  0  0  0  0  0  0  0
   59.4448   31.1992   47.2321 H   0  0  0  0  0  0  0  0  0  0  0  0
   58.6902   28.9247   46.5429 H   0  0  0  0  0  0  0  0  0  0  0  0
  1  2  2  0
  2  3  1  0
  3  4  1  0
  4  5  2  0
  5  6  1  0
  6  7  2  0
  7  8  1  0
  8  9  2  0
  9 10  1  0
  2 11  1  0
 11 12  1  0
 12 13  2  0
 13 14  1  0
 14 15  2  0
 15 16  1  0
 16 17  2  0
 16 18  2  0
 16 19  1  0
 19 20  1  0
 20 21  1  0
 21 22  1  0
 22 23  2  0
 23 24  1  0
 24 25  2  0
 25 26  1  0
 26 27  2  0
 15 28  1  0
 28 29  2  0
  9  4  1  0
 29 12  1  0
 27 19  1  0
 27 22  1  0
  3 30  1  0
  3 31  1  0
  5 32  1  0
  6 33  1  0
  7 34  1  0
  8 35  1  0
 11 36  1  0
 13 37  1  0
 14 38  1  0
 20 39  1  0
 20 40  1  0
 21 41  1  0
 21 42  1  0
 23 43  1  0
 24 44  1  0
 25 45  1  0
 26 46  1  0
 28 47  1  0
 29 48  1  0
M  CHG  1  10  -1
M  END
>  <UniqueID>  (45) 
43

>  <SMILES>  (45) 
O=C(Cc1ccccc1[O-])Nc1ccc(S(=O)(=O)N2CCc3ccccc32)cc1

>  <Energy>  (45) 
70.22005406318095

>  <Genealogy>  (45) 
O=C(Cc1ccccc1[O-])Nc1ccc(S(=O)(=O)N2CCc3ccccc32)cc1 (protonated)
O=C(Cc1ccccc1[O-])Nc1ccc(S(=O)(=O)N2CCc3ccccc32)cc1 (3D coordinates assigned)
O=C(Cc1ccccc1[O-])Nc1ccc(S(=O)(=O)N2CCc3ccccc32)cc1 (nonaromatic ring conformer: 70.22005406318095 kcal/mol)

>  <smiles>  (45) 
O=C(Cc1ccccc1O)Nc1ccc(S(=O)(=O)N2CCc3ccccc32)cc1

>  <score_type>  (45) 
oracle

>  <origin>  (45) 
adg

>  <m_score__min__energy>  (45) 
-12.449999999999999

>  <m_primary>  (45) 
energy

$$$$
45:0
     RDKit          3D

 30 32  0  0  0  0  0  0  0  0999 V2000
   55.0650   26.5730   45.9960 O   0  0  0  0  0  0  0  0  0  0  0  0
   56.3280   26.5650   46.0150 C   0  0  0  0  0  0  0  0  0  0  0  0
   57.0410   25.3240   46.1600 N   0  0  0  0  0  0  0  0  0  0  0  0
   56.8580   24.2240   45.4850 C   0  0  0  0  0  0  0  0  0  0  0  0
   57.8680   23.6570   44.7650 N   0  0  0  0  0  0  0  0  0  0  0  0
   57.6840   22.5110   44.0600 C   0  0  0  0  0  0  0  0  0  0  0  0
   56.4310   21.8960   44.0680 C   0  0  0  0  0  0  0  0  0  0  0  0
   56.2240   20.7220   43.3520 O   0  0  0  0  0  0  0  0  0  0  0  0
   55.4190   22.4540   44.7820 N   0  0  0  0  0  0  0  0  0  0  0  0
   55.6000   23.6010   45.4890 C   0  0  0  0  0  0  0  0  0  0  0  0
   54.6380   24.0910   46.1390 O   0  0  0  0  0  0  0  0  0  0  0  0
   57.0670   27.8500   45.8700 C   0  0  0  0  0  0  0  0  0  0  0  0
   58.4030   27.9230   46.3090 C   0  0  0  0  0  0  0  0  0  0  0  0
   59.1330   29.1060   46.2000 C   0  0  0  0  0  0  0  0  0  0  0  0
   58.5460   30.2490   45.6480 C   0  0  0  0  0  0  0  0  0  0  0  0
   59.2810   31.4410   45.5400 C   0  0  0  0  0  0  0  0  0  0  0  0
   58.6930   32.5810   44.9860 C   0  0  0  0  0  0  0  0  0  0  0  0
   57.3720   32.5400   44.5380 C   0  0  0  0  0  0  0  0  0  0  0  0
   56.6290   31.3610   44.6390 C   0  0  0  0  0  0  0  0  0  0  0  0
   57.2050   30.2020   45.1950 C   0  0  0  0  0  0  0  0  0  0  0  0
   56.4710   29.0030   45.3040 C   0  0  0  0  0  0  0  0  0  0  0  0
   55.1580   28.9630   44.8400 O   0  0  0  0  0  0  0  0  0  0  0  0
   58.5145   22.0716   43.4881 H   0  0  0  0  0  0  0  0  0  0  0  0
   56.8900   19.9590   43.4000 H   0  0  0  0  0  0  0  0  0  0  0  0
   58.8786   27.0321   46.7451 H   0  0  0  0  0  0  0  0  0  0  0  0
   60.1753   29.1404   46.5498 H   0  0  0  0  0  0  0  0  0  0  0  0
   60.3224   31.4771   45.8925 H   0  0  0  0  0  0  0  0  0  0  0  0
   59.2723   33.5124   44.9028 H   0  0  0  0  0  0  0  0  0  0  0  0
   56.9134   33.4403   44.1032 H   0  0  0  0  0  0  0  0  0  0  0  0
   55.5887   31.3378   44.2824 H   0  0  0  0  0  0  0  0  0  0  0  0
  1  2  2  0
  2  3  1  0
  3  4  2  3
  4  5  1  0
  5  6  1  0
  6  7  2  0
  7  8  1  0
  7  9  1  0
  9 10  1  0
 10 11  2  0
  2 12  1  0
 12 13  2  0
 13 14  1  0
 14 15  2  0
 15 16  1  0
 16 17  2  0
 17 18  1  0
 18 19  2  0
 19 20  1  0
 20 21  2  0
 21 22  1  0
 10  4  1  0
 21 12  1  0
 20 15  1  0
  6 23  1  0
  8 24  1  0
 13 25  1  0
 14 26  1  0
 16 27  1  0
 17 28  1  0
 18 29  1  0
 19 30  1  0
M  CHG  3   5  -1   9  -1  22  -1
M  END
>  <UniqueID>  (46) 
44

>  <SMILES>  (46) 
O=C(N=c1[n-]cc(O)[n-]c1=O)c1ccc2ccccc2c1[O-]

>  <Energy>  (46) 
44.965024427988176

>  <Genealogy>  (46) 
O=C(N=c1[n-]cc(O)[n-]c1=O)c1ccc2ccccc2c1[O-] (protonated)
O=C(N=c1[n-]cc(O)[n-]c1=O)c1ccc2ccccc2c1[O-] (3D coordinates assigned)
O=C(N=c1[n-]cc(O)[n-]c1=O)c1ccc2ccccc2c1[O-] (optimized conformer: 44.965024427988176 kcal/mol)

>  <smiles>  (46) 
O=C(N=c1[nH]cc(O)[nH]c1=O)c1ccc2ccccc2c1O

>  <score_type>  (46) 
oracle

>  <origin>  (46) 
adg

>  <m_score__min__energy>  (46) 
-14.48

>  <m_primary>  (46) 
energy

$$$$
46:0
     RDKit          3D

 33 35  0  0  0  0  0  0  0  0999 V2000
   60.0302   26.8222   45.8355 H   0  0  0  0  0  0  0  0  0  0  0  0
   58.9320   26.8130   45.8980 C   0  0  0  0  0  0  0  0  0  0  0  0
   58.2100   27.8070   45.3180 N   0  0  0  0  0  0  0  0  0  0  0  0
   56.8500   27.8530   45.3640 C   0  0  0  0  0  0  0  0  0  0  0  0
   56.2620   28.8620   44.7820 N   0  0  0  0  0  0  0  0  0  0  0  0
   56.7090   30.2180   44.6400 C   0  0  0  0  0  0  0  0  0  0  0  0
   55.8860   31.1730   44.6730 O   0  0  0  0  0  0  0  0  0  0  0  0
   58.1770   30.5060   44.5710 C   0  0  0  0  0  0  0  0  0  0  0  0
   58.7267   29.7088   45.0927 H   0  0  0  0  0  0  0  0  0  0  0  0
   58.4806   30.5491   43.5146 H   0  0  0  0  0  0  0  0  0  0  0  0
   58.4830   31.8040   45.2080 N   0  0  0  0  0  0  0  0  0  0  0  0
   58.4910   32.9080   44.4010 C   0  0  0  0  0  0  0  0  0  0  0  0
   58.2729   32.7936   43.3289 H   0  0  0  0  0  0  0  0  0  0  0  0
   58.7690   34.1710   44.9080 C   0  0  0  0  0  0  0  0  0  0  0  0
   58.7619   35.0456   44.2409 H   0  0  0  0  0  0  0  0  0  0  0  0
   59.0560   34.3290   46.2580 C   0  0  0  0  0  0  0  0  0  0  0  0
   59.3010   35.4880   46.6910 O   0  0  0  0  0  0  0  0  0  0  0  0
   59.0730   33.2050   47.1090 C   0  0  0  0  0  0  0  0  0  0  0  0
   59.3730   33.3190   48.4900 C   0  0  0  0  0  0  0  0  0  0  0  0
   59.6540   34.5500   49.0750 O   0  0  0  0  0  0  0  0  0  0  0  0
   59.3940   32.1840   49.3000 C   0  0  0  0  0  0  0  0  0  0  0  0
   59.6253   32.2821   50.3709 H   0  0  0  0  0  0  0  0  0  0  0  0
   59.1250   30.9300   48.7650 C   0  0  0  0  0  0  0  0  0  0  0  0
   59.1570   29.8080   49.5830 O   0  0  0  0  0  0  0  0  0  0  0  0
   58.8260   30.7940   47.4100 C   0  0  0  0  0  0  0  0  0  0  0  0
   58.6179   29.7951   46.9991 H   0  0  0  0  0  0  0  0  0  0  0  0
   58.7860   31.9210   46.5550 C   0  0  0  0  0  0  0  0  0  0  0  0
   56.1560   26.7920   46.0030 C   0  0  0  0  0  0  0  0  0  0  0  0
   54.7690   26.6930   45.9930 O   0  0  0  0  0  0  0  0  0  0  0  0
   56.8880   25.7730   46.6180 C   0  0  0  0  0  0  0  0  0  0  0  0
   56.3626   24.9602   47.1407 H   0  0  0  0  0  0  0  0  0  0  0  0
   58.2810   25.7820   46.5720 C   0  0  0  0  0  0  0  0  0  0  0  0
   58.8593   24.9848   47.0619 H   0  0  0  0  0  0  0  0  0  0  0  0
  1  2  1  0
  2  3  1  0
  3  4  1  0
  4  5  2  0
  5  6  1  0
  6  7  2  0
  6  8  1  0
  8  9  1  0
  8 10  1  0
  8 11  1  0
 11 12  1  0
 12 13  1  0
 12 14  2  0
 14 15  1  0
 14 16  1  0
 16 17  2  0
 16 18  1  0
 18 19  2  0
 19 20  1  0
 19 21  1  0
 21 22  1  0
 21 23  2  0
 23 24  1  0
 23 25  1  0
 25 26  1  0
 25 27  2  0
  4 28  1  0
 28 29  1  0
 28 30  2  0
 30 31  1  0
 30 32  1  0
 32 33  1  0
 32  2  2  0
 27 11  1  0
 27 18  1  0
M  CHG  4   3  -1  20  -1  24  -1  29  -1
M  END
>  <UniqueID>  (47) 
45

>  <SMILES>  (47) 
O=C(Cn1ccc(=O)c2c([O-])cc([O-])cc21)/N=c1/[n-]cccc1[O-]

>  <Energy>  (47) 
59.28282184970102

>  <Genealogy>  (47) 
O=C(Cn1ccc(=O)c2c([O-])cc([O-])cc21)N=c1[n-]cccc1[O-] (protonated)
O=C(Cn1ccc(=O)c2c([O-])cc([O-])cc21)/N=c1/[n-]cccc1[O-] (cis-trans isomerization)
O=C(Cn1ccc(=O)c2c([O-])cc([O-])cc21)/N=c1/[n-]cccc1[O-] (3D coordinates assigned)
O=C(Cn1ccc(=O)c2c([O-])cc([O-])cc21)/N=c1/[n-]cccc1[O-] (optimized conformer: 59.28282184970102 kcal/mol)

>  <smiles>  (47) 
O=C(Cn1ccc(=O)c2c(O)cc(O)cc21)N=c1[nH]cccc1O

>  <score_type>  (47) 
oracle

>  <origin>  (47) 
adg

>  <m_score__min__energy>  (47) 
-16.34

>  <m_primary>  (47) 
energy

$$$$
47:0
     RDKit          3D

 70 73  0  0  0  0  0  0  0  0999 V2000
   60.9010   34.2230   49.1390 C   0  0  0  0  0  0  0  0  0  0  0  0
   60.8210   32.8350   48.5220 C   0  0  0  0  0  0  0  0  0  0  0  0
   61.9730   32.2560   47.8970 C   0  0  0  0  0  0  0  0  0  0  0  0
   63.3920   32.8410   47.8890 C   0  0  2  0  0  0  0  0  0  0  0  0
   63.9970   32.8490   46.6230 O   0  0  0  0  0  0  0  0  0  0  0  0
   64.2560   32.1820   48.9020 N   0  0  0  0  0  0  0  0  0  0  0  0
   63.4860   31.4550   49.9330 C   0  0  0  0  0  0  0  0  0  0  0  0
   62.9500   32.4010   51.0360 C   0  0  0  0  0  0  0  0  0  0  0  0
   63.5680   33.6780   51.0330 O   0  0  0  0  0  0  0  0  0  0  0  0
   64.9640   33.5370   50.9000 C   0  0  0  0  0  0  0  0  0  0  0  0
   65.3210   33.0270   49.4940 C   0  0  0  0  0  0  0  0  0  0  0  0
   61.8240   31.0420   47.2250 C   0  0  0  0  0  0  0  0  0  0  0  0
   60.6070   30.3730   47.2020 C   0  0  0  0  0  0  0  0  0  0  0  0
   60.5030   29.0500   46.4870 C   0  0  0  0  0  0  0  0  0  0  0  0
   59.6600   29.1950   45.2560 C   0  0  0  0  0  0  0  0  0  0  0  0
   60.0710   28.7070   44.1690 O   0  0  0  0  0  0  0  0  0  0  0  0
   58.3840   29.8510   45.3250 N   0  0  0  0  0  0  0  0  0  0  0  0
   57.4630   29.8940   44.1820 C   0  0  2  0  0  0  0  0  0  0  0  0
   57.5320   31.2700   43.4880 C   0  0  0  0  0  0  0  0  0  0  0  0
   57.8580   32.3750   44.4620 C   0  0  0  0  0  0  0  0  0  0  0  0
   57.1520   32.4800   45.6740 C   0  0  0  0  0  0  0  0  0  0  0  0
   57.4690   33.4900   46.5890 C   0  0  0  0  0  0  0  0  0  0  0  0
   58.4860   34.4040   46.3000 C   0  0  0  0  0  0  0  0  0  0  0  0
   59.1920   34.3060   45.0960 C   0  0  0  0  0  0  0  0  0  0  0  0
   58.8850   33.2930   44.1820 C   0  0  0  0  0  0  0  0  0  0  0  0
   56.0610   29.5990   44.6470 C   0  0  0  0  0  0  0  0  0  0  0  0
   55.1510   30.4570   44.5010 O   0  0  0  0  0  0  0  0  0  0  0  0
   55.7620   28.3780   45.2410 O   0  0  0  0  0  0  0  0  0  0  0  0
   59.5330   30.8970   47.9320 C   0  0  0  0  0  0  0  0  0  0  0  0
   58.4550   30.2380   47.9740 O   0  0  0  0  0  0  0  0  0  0  0  0
   59.6450   32.0980   48.5980 N   0  0  0  0  0  0  0  0  0  0  0  0
   58.5200   32.5310   49.4660 C   0  0  0  0  0  0  0  0  0  0  0  0
   58.4110   31.6460   50.6810 C   0  0  0  0  0  0  0  0  0  0  0  0
   57.2010   31.5780   51.3930 C   0  0  0  0  0  0  0  0  0  0  0  0
   57.0880   30.7470   52.5120 C   0  0  0  0  0  0  0  0  0  0  0  0
   58.1800   29.9820   52.9300 C   0  0  0  0  0  0  0  0  0  0  0  0
   59.3890   30.0490   52.2310 C   0  0  0  0  0  0  0  0  0  0  0  0
   59.5090   30.8800   51.1130 C   0  0  0  0  0  0  0  0  0  0  0  0
   60.8961   34.1376   50.2357 H   0  0  0  0  0  0  0  0  0  0  0  0
   61.8290   34.7159   48.8138 H   0  0  0  0  0  0  0  0  0  0  0  0
   60.0357   34.8193   48.8138 H   0  0  0  0  0  0  0  0  0  0  0  0
   63.2780   33.8992   48.1670 H   0  0  0  0  0  0  0  0  0  0  0  0
   64.8260   32.3070   46.6930 H   0  0  0  0  0  0  0  0  0  0  0  0
   62.6338   30.9535   49.4511 H   0  0  0  0  0  0  0  0  0  0  0  0
   64.1603   30.7279   50.4091 H   0  0  0  0  0  0  0  0  0  0  0  0
   61.8690   32.5365   50.8839 H   0  0  0  0  0  0  0  0  0  0  0  0
   63.1784   31.9323   52.0046 H   0  0  0  0  0  0  0  0  0  0  0  0
   65.4439   34.5131   51.0639 H   0  0  0  0  0  0  0  0  0  0  0  0
   65.3211   32.8098   51.6441 H   0  0  0  0  0  0  0  0  0  0  0  0
   65.4876   33.8937   48.8375 H   0  0  0  0  0  0  0  0  0  0  0  0
   66.2240   32.4056   49.5863 H   0  0  0  0  0  0  0  0  0  0  0  0
   62.6883   30.6059   46.7027 H   0  0  0  0  0  0  0  0  0  0  0  0
   61.5095   28.7109   46.2009 H   0  0  0  0  0  0  0  0  0  0  0  0
   60.0368   28.3136   47.1581 H   0  0  0  0  0  0  0  0  0  0  0  0
   58.0680   30.2140   46.2520 H   0  0  0  0  0  0  0  0  0  0  0  0
   57.7603   29.1283   43.4504 H   0  0  0  0  0  0  0  0  0  0  0  0
   58.3111   31.2384   42.7121 H   0  0  0  0  0  0  0  0  0  0  0  0
   56.5452   31.4812   43.0503 H   0  0  0  0  0  0  0  0  0  0  0  0
   56.3477   31.7655   45.9034 H   0  0  0  0  0  0  0  0  0  0  0  0
   56.9168   33.5648   47.5374 H   0  0  0  0  0  0  0  0  0  0  0  0
   58.7312   35.1999   47.0186 H   0  0  0  0  0  0  0  0  0  0  0  0
   59.9904   35.0274   44.8678 H   0  0  0  0  0  0  0  0  0  0  0  0
   59.4490   33.2144   43.2409 H   0  0  0  0  0  0  0  0  0  0  0  0
   58.6924   33.5681   49.7894 H   0  0  0  0  0  0  0  0  0  0  0  0
   57.5841   32.4597   48.8924 H   0  0  0  0  0  0  0  0  0  0  0  0
   56.3398   32.1807   51.0688 H   0  0  0  0  0  0  0  0  0  0  0  0
   56.1379   30.6955   53.0640 H   0  0  0  0  0  0  0  0  0  0  0  0
   58.0885   29.3271   53.8090 H   0  0  0  0  0  0  0  0  0  0  0  0
   60.2479   29.4464   52.5614 H   0  0  0  0  0  0  0  0  0  0  0  0
   60.4641   30.9349   50.5700 H   0  0  0  0  0  0  0  0  0  0  0  0
  1  2  1  0
  2  3  2  0
  3  4  1  0
  4  5  1  0
  4  6  1  0
  6  7  1  0
  7  8  1  0
  8  9  1  0
  9 10  1  0
 10 11  1  0
  3 12  1  0
 12 13  2  0
 13 14  1  0
 14 15  1  0
 15 16  2  0
 15 17  1  0
 17 18  1  0
 18 19  1  0
 19 20  1  0
 20 21  2  0
 21 22  1  0
 22 23  2  0
 23 24  1  0
 24 25  2  0
 18 26  1  0
 26 27  2  0
 26 28  1  0
 13 29  1  0
 29 30  2  0
 29 31  1  0
 31 32  1  0
 32 33  1  0
 33 34  2  0
 34 35  1  0
 35 36  2  0
 36 37  1  0
 37 38  2  0
 31  2  1  0
 38 33  1  0
 11  6  1  0
 25 20  1  0
  1 39  1  0
  1 40  1  0
  1 41  1  0
  4 42  1  1
  5 43  1  0
  7 44  1  0
  7 45  1  0
  8 46  1  0
  8 47  1  0
 10 48  1  0
 10 49  1  0
 11 50  1  0
 11 51  1  0
 12 52  1  0
 14 53  1  0
 14 54  1  0
 17 55  1  0
 18 56  1  6
 19 57  1  0
 19 58  1  0
 21 59  1  0
 22 60  1  0
 23 61  1  0
 24 62  1  0
 25 63  1  0
 32 64  1  0
 32 65  1  0
 34 66  1  0
 35 67  1  0
 36 68  1  0
 37 69  1  0
 38 70  1  0
M  CHG  1  28  -1
M  END
>  <UniqueID>  (48) 
46

>  <SMILES>  (48) 
Cc1c([C@H](O)N2CCOCC2)cc(CC(=O)N[C@H](Cc2ccccc2)C(=O)[O-])c(=O)n1Cc1ccccc1

>  <Energy>  (48) 
99.90851030646382

>  <Genealogy>  (48) 
Cc1c(C(O)N2CCOCC2)cc(CC(=O)NC(Cc2ccccc2)C(=O)[O-])c(=O)n1Cc1ccccc1 (protonated)
Cc1c([C@H](O)N2CCOCC2)cc(CC(=O)N[C@H](Cc2ccccc2)C(=O)[O-])c(=O)n1Cc1ccccc1 (chirality)
Cc1c([C@H](O)N2CCOCC2)cc(CC(=O)N[C@H](Cc2ccccc2)C(=O)[O-])c(=O)n1Cc1ccccc1 (3D coordinates assigned)
Cc1c([C@H](O)N2CCOCC2)cc(CC(=O)N[C@H](Cc2ccccc2)C(=O)[O-])c(=O)n1Cc1ccccc1 (nonaromatic ring conformer: 99.90851030646382 kcal/mol)

>  <smiles>  (48) 
Cc1c(C(O)N2CCOCC2)cc(CC(=O)NC(Cc2ccccc2)C(=O)O)c(=O)n1Cc1ccccc1

>  <score_type>  (48) 
oracle

>  <origin>  (48) 
adg

>  <m_score__min__energy>  (48) 
-12.01

>  <m_primary>  (48) 
energy

$$$$
48:0
     RDKit          3D

 46 49  0  0  0  0  0  0  0  0999 V2000
   55.8680   29.3490   44.8070 N   0  0  0  0  0  0  0  0  0  0  0  0
   57.0360   29.3310   45.6260 C   0  0  0  0  0  0  0  0  0  0  0  0
   57.3860   30.3870   46.2180 O   0  0  0  0  0  0  0  0  0  0  0  0
   57.8030   28.0740   45.8060 C   0  0  0  0  0  0  0  0  0  0  0  0
   57.1040   26.8530   45.7700 C   0  0  0  0  0  0  0  0  0  0  0  0
   57.7530   25.6320   46.0290 C   0  0  0  0  0  0  0  0  0  0  0  0
   57.0150   24.3440   46.0050 C   0  0  0  0  0  0  0  0  0  0  0  0
   55.6470   24.2830   45.6800 C   0  0  0  0  0  0  0  0  0  0  0  0
   54.9840   23.0450   45.6650 C   0  0  0  0  0  0  0  0  0  0  0  0
   53.5460   22.9650   45.3270 C   0  0  0  0  0  0  0  0  0  0  0  0
   52.7330   21.9700   45.7360 N   0  0  0  0  0  0  0  0  0  0  0  0
   51.5330   22.2290   45.2490 N   0  0  0  0  0  0  0  0  0  0  0  0
   51.6540   23.3740   44.5570 C   0  0  0  0  0  0  0  0  0  0  0  0
   50.6940   23.9200   43.9520 O   0  0  0  0  0  0  0  0  0  0  0  0
   52.8990   23.8800   44.5730 N   0  0  0  0  0  0  0  0  0  0  0  0
   55.7080   21.8830   45.9720 C   0  0  0  0  0  0  0  0  0  0  0  0
   57.0660   21.9780   46.2770 C   0  0  0  0  0  0  0  0  0  0  0  0
   57.6800   23.1890   46.2850 N   0  0  0  0  0  0  0  0  0  0  0  0
   59.1170   25.6460   46.3500 C   0  0  0  0  0  0  0  0  0  0  0  0
   59.8290   26.8460   46.3720 C   0  0  0  0  0  0  0  0  0  0  0  0
   59.1960   28.0620   46.0780 C   0  0  0  0  0  0  0  0  0  0  0  0
   60.0320   29.2800   46.0200 C   0  0  0  0  0  0  0  0  0  0  0  0
   60.9090   29.3870   45.1190 O   0  0  0  0  0  0  0  0  0  0  0  0
   59.8150   30.3580   46.9440 N   0  0  0  0  0  0  0  0  0  0  0  0
   60.6270   31.5730   46.9380 C   0  0  0  0  0  0  0  0  0  0  0  0
   59.8770   32.6970   46.2770 C   0  0  0  0  0  0  0  0  0  0  0  0
   60.1710   34.0350   46.5900 C   0  0  0  0  0  0  0  0  0  0  0  0
   59.4820   35.0740   45.9550 C   0  0  0  0  0  0  0  0  0  0  0  0
   58.5010   34.7850   45.0020 C   0  0  0  0  0  0  0  0  0  0  0  0
   58.2070   33.4570   44.6820 C   0  0  0  0  0  0  0  0  0  0  0  0
   58.8930   32.4150   45.3160 C   0  0  0  0  0  0  0  0  0  0  0  0
   55.1820   28.5610   44.8320 H   0  0  0  0  0  0  0  0  0  0  0  0
   56.0294   26.8534   45.5348 H   0  0  0  0  0  0  0  0  0  0  0  0
   55.0973   25.2045   45.4378 H   0  0  0  0  0  0  0  0  0  0  0  0
   55.2080   20.9032   45.9722 H   0  0  0  0  0  0  0  0  0  0  0  0
   57.6406   21.0698   46.5115 H   0  0  0  0  0  0  0  0  0  0  0  0
   59.6310   24.7027   46.5867 H   0  0  0  0  0  0  0  0  0  0  0  0
   60.8999   26.8378   46.6231 H   0  0  0  0  0  0  0  0  0  0  0  0
   59.0310   30.2920   47.6320 H   0  0  0  0  0  0  0  0  0  0  0  0
   60.8656   31.8554   47.9740 H   0  0  0  0  0  0  0  0  0  0  0  0
   61.5539   31.3820   46.3773 H   0  0  0  0  0  0  0  0  0  0  0  0
   60.9452   34.2662   47.3365 H   0  0  0  0  0  0  0  0  0  0  0  0
   59.7126   36.1199   46.2060 H   0  0  0  0  0  0  0  0  0  0  0  0
   57.9603   35.6033   44.5039 H   0  0  0  0  0  0  0  0  0  0  0  0
   57.4357   33.2304   43.9311 H   0  0  0  0  0  0  0  0  0  0  0  0
   58.6604   31.3707   45.0604 H   0  0  0  0  0  0  0  0  0  0  0  0
  1  2  1  0
  2  3  2  0
  2  4  1  0
  4  5  2  0
  5  6  1  0
  6  7  1  0
  7  8  2  0
  8  9  1  0
  9 10  1  0
 10 11  2  0
 11 12  1  0
 12 13  1  0
 13 14  2  0
 13 15  1  0
  9 16  2  0
 16 17  1  0
 17 18  2  0
  6 19  2  0
 19 20  1  0
 20 21  2  0
 21 22  1  0
 22 23  2  0
 22 24  1  0
 24 25  1  0
 25 26  1  0
 26 27  2  0
 27 28  1  0
 28 29  2  0
 29 30  1  0
 30 31  2  0
 21  4  1  0
 31 26  1  0
 18  7  1  0
 15 10  1  0
  1 32  1  0
  5 33  1  0
  8 34  1  0
 16 35  1  0
 17 36  1  0
 19 37  1  0
 20 38  1  0
 24 39  1  0
 25 40  1  0
 25 41  1  0
 27 42  1  0
 28 43  1  0
 29 44  1  0
 30 45  1  0
 31 46  1  0
M  CHG  3   1  -1  12  -1  15  -1
M  END
>  <UniqueID>  (49) 
47

>  <SMILES>  (49) 
[NH-]C(=O)c1cc(-c2cc(-c3n[n-]c(=O)[n-]3)ccn2)ccc1C(=O)NCc1ccccc1

>  <Energy>  (49) 
95.19151815587482

>  <Genealogy>  (49) 
[NH-]C(=O)c1cc(-c2cc(-c3n[n-]c(=O)[n-]3)ccn2)ccc1C(=O)NCc1ccccc1 (protonated)
[NH-]C(=O)c1cc(-c2cc(-c3n[n-]c(=O)[n-]3)ccn2)ccc1C(=O)NCc1ccccc1 (3D coordinates assigned)
[NH-]C(=O)c1cc(-c2cc(-c3n[n-]c(=O)[n-]3)ccn2)ccc1C(=O)NCc1ccccc1 (optimized conformer: 95.19151815587482 kcal/mol)

>  <smiles>  (49) 
NC(=O)c1cc(-c2cc(-c3n[nH]c(=O)[nH]3)ccn2)ccc1C(=O)NCc1ccccc1

>  <score_type>  (49) 
oracle

>  <origin>  (49) 
adg

>  <m_score__min__energy>  (49) 
-15.31

>  <m_primary>  (49) 
energy

$$$$
49:0
     RDKit          3D

 34 36  0  0  0  0  0  0  0  0999 V2000
   56.8680   34.2960   44.5220 O   0  0  0  0  0  0  0  0  0  0  0  0
   57.9680   33.6840   44.4820 C   0  0  0  0  0  0  0  0  0  0  0  0
   57.9760   32.2570   43.9940 C   0  0  0  0  0  0  0  0  0  0  0  0
   57.5800   31.3440   45.0130 O   0  0  0  0  0  0  0  0  0  0  0  0
   58.4360   30.4080   45.5990 C   0  0  0  0  0  0  0  0  0  0  0  0
   59.4590   30.7930   46.2300 O   0  0  0  0  0  0  0  0  0  0  0  0
   58.0810   28.9720   45.5700 C   0  0  0  0  0  0  0  0  0  0  0  0
   59.1060   28.0210   45.7240 C   0  0  0  0  0  0  0  0  0  0  0  0
   58.8060   26.6640   45.8590 C   0  0  0  0  0  0  0  0  0  0  0  0
   57.4800   26.2370   45.8410 C   0  0  0  0  0  0  0  0  0  0  0  0
   56.4490   27.1610   45.6630 C   0  0  0  0  0  0  0  0  0  0  0  0
   55.1310   26.7180   45.6310 O   0  0  0  0  0  0  0  0  0  0  0  0
   56.7350   28.5250   45.5040 C   0  0  0  0  0  0  0  0  0  0  0  0
   55.6700   29.3920   45.2570 O   0  0  0  0  0  0  0  0  0  0  0  0
   59.1570   34.3880   44.8800 N   0  0  0  0  0  0  0  0  0  0  0  0
   59.8430   34.2920   46.1350 C   0  0  0  0  0  0  0  0  0  0  0  0
   59.1330   34.5830   47.3250 C   0  0  0  0  0  0  0  0  0  0  0  0
   59.7810   34.5570   48.5730 C   0  0  0  0  0  0  0  0  0  0  0  0
   61.1300   34.2150   48.5940 C   0  0  0  0  0  0  0  0  0  0  0  0
   61.9410   34.1460   49.6590 N   0  0  0  0  0  0  0  0  0  0  0  0
   63.1190   33.7770   49.0930 C   0  0  0  0  0  0  0  0  0  0  0  0
   64.1650   33.6000   49.7700 O   0  0  0  0  0  0  0  0  0  0  0  0
   63.0890   33.6130   47.7460 N   0  0  0  0  0  0  0  0  0  0  0  0
   61.8110   33.8990   47.4580 C   0  0  0  0  0  0  0  0  0  0  0  0
   61.2030   33.9100   46.2050 C   0  0  0  0  0  0  0  0  0  0  0  0
   57.2805   32.1673   43.1465 H   0  0  0  0  0  0  0  0  0  0  0  0
   59.0037   32.0060   43.6926 H   0  0  0  0  0  0  0  0  0  0  0  0
   60.1555   28.3500   45.7382 H   0  0  0  0  0  0  0  0  0  0  0  0
   59.6175   25.9313   45.9797 H   0  0  0  0  0  0  0  0  0  0  0  0
   57.2451   25.1698   45.9673 H   0  0  0  0  0  0  0  0  0  0  0  0
   55.7630   30.4000   45.2500 H   0  0  0  0  0  0  0  0  0  0  0  0
   58.0629   34.8321   47.2728 H   0  0  0  0  0  0  0  0  0  0  0  0
   59.2405   34.7985   49.5001 H   0  0  0  0  0  0  0  0  0  0  0  0
   61.7621   33.6308   45.2997 H   0  0  0  0  0  0  0  0  0  0  0  0
  1  2  2  0
  2  3  1  0
  3  4  1  0
  4  5  1  0
  5  6  2  0
  5  7  1  0
  7  8  2  0
  8  9  1  0
  9 10  2  0
 10 11  1  0
 11 12  1  0
 11 13  2  0
 13 14  1  0
  2 15  1  0
 15 16  1  0
 16 17  2  0
 17 18  1  0
 18 19  2  0
 19 20  1  0
 20 21  1  0
 21 22  2  0
 21 23  1  0
 23 24  1  0
 24 25  2  0
 13  7  1  0
 25 16  1  0
 24 19  1  0
  3 26  1  0
  3 27  1  0
  8 28  1  0
  9 29  1  0
 10 30  1  0
 14 31  1  0
 17 32  1  0
 18 33  1  0
 25 34  1  0
M  CHG  4  12  -1  15  -1  20  -1  23  -1
M  END
>  <UniqueID>  (50) 
48

>  <SMILES>  (50) 
O=C(COC(=O)c1cccc([O-])c1O)[N-]c1ccc2[n-]c(=O)[n-]c2c1

>  <Energy>  (50) 
77.50157906562984

>  <Genealogy>  (50) 
O=C(COC(=O)c1cccc([O-])c1O)[N-]c1ccc2[n-]c(=O)[n-]c2c1 (protonated)
O=C(COC(=O)c1cccc([O-])c1O)[N-]c1ccc2[n-]c(=O)[n-]c2c1 (3D coordinates assigned)
O=C(COC(=O)c1cccc([O-])c1O)[N-]c1ccc2[n-]c(=O)[n-]c2c1 (optimized conformer: 77.50157906562984 kcal/mol)

>  <smiles>  (50) 
O=C(COC(=O)c1cccc(O)c1O)Nc1ccc2[nH]c(=O)[nH]c2c1

>  <score_type>  (50) 
oracle

>  <origin>  (50) 
adg

>  <m_score__min__energy>  (50) 
-14.220000000000001

>  <m_primary>  (50) 
energy

$$$$
50:0
     RDKit          3D

 47 50  0  0  0  0  0  0  0  0999 V2000
   55.5370   29.8070   44.1190 C   0  0  0  0  0  0  0  0  0  0  0  0
   56.3560   30.1300   43.1150 C   0  0  0  0  0  0  0  0  0  0  0  0
   57.4680   31.1250   43.2910 C   0  0  0  0  0  0  0  0  0  0  0  0
   58.1550   30.9030   44.5670 N   0  0  0  0  0  0  0  0  0  0  0  0
   58.2820   31.7430   45.6420 C   0  0  0  0  0  0  0  0  0  0  0  0
   57.8350   33.1530   45.6880 C   0  0  0  0  0  0  0  0  0  0  0  0
   56.6780   33.4530   45.2950 O   0  0  0  0  0  0  0  0  0  0  0  0
   58.7220   34.2090   46.0780 N   0  0  0  0  0  0  0  0  0  0  0  0
   59.8730   34.0900   46.9270 C   0  0  0  0  0  0  0  0  0  0  0  0
   59.7900   34.2800   48.3160 C   0  0  0  0  0  0  0  0  0  0  0  0
   60.9330   34.1700   49.1130 C   0  0  0  0  0  0  0  0  0  0  0  0
   62.1840   33.8910   48.5340 C   0  0  0  0  0  0  0  0  0  0  0  0
   63.3890   33.7670   49.3900 C   0  0  0  0  0  0  0  0  0  0  0  0
   63.4780   34.4580   50.4400 O   0  0  0  0  0  0  0  0  0  0  0  0
   64.4750   32.9030   49.0130 N   0  0  0  0  0  0  0  0  0  0  0  0
   65.4560   32.4040   49.9390 C   0  0  0  0  0  0  0  0  0  0  0  0
   65.1490   31.2880   50.7340 C   0  0  0  0  0  0  0  0  0  0  0  0
   66.0800   30.7990   51.6570 C   0  0  0  0  0  0  0  0  0  0  0  0
   67.3190   31.4280   51.8020 C   0  0  0  0  0  0  0  0  0  0  0  0
   67.6260   32.5520   51.0300 C   0  0  0  0  0  0  0  0  0  0  0  0
   66.6990   33.0430   50.1060 C   0  0  0  0  0  0  0  0  0  0  0  0
   62.2630   33.7180   47.1410 C   0  0  0  0  0  0  0  0  0  0  0  0
   61.1170   33.8280   46.3470 C   0  0  0  0  0  0  0  0  0  0  0  0
   58.8930   31.0860   46.7240 C   0  0  0  0  0  0  0  0  0  0  0  0
   59.1050   29.8180   46.2520 C   0  0  0  0  0  0  0  0  0  0  0  0
   59.6810   28.3450   46.7960 S   0  0  0  0  0  0  0  0  0  0  0  0
   59.3310   27.5660   45.3110 C   0  0  0  0  0  0  0  0  0  0  0  0
   58.7560   28.4740   44.4090 C   0  0  0  0  0  0  0  0  0  0  0  0
   58.6600   29.7320   44.9960 C   0  0  0  0  0  0  0  0  0  0  0  0
   54.7321   29.0747   43.9583 H   0  0  0  0  0  0  0  0  0  0  0  0
   55.6673   30.2732   45.1068 H   0  0  0  0  0  0  0  0  0  0  0  0
   56.2128   29.6551   42.1332 H   0  0  0  0  0  0  0  0  0  0  0  0
   58.1883   31.0131   42.4672 H   0  0  0  0  0  0  0  0  0  0  0  0
   57.0431   32.1396   43.2862 H   0  0  0  0  0  0  0  0  0  0  0  0
   58.8207   34.5166   48.7790 H   0  0  0  0  0  0  0  0  0  0  0  0
   60.8534   34.3027   50.2021 H   0  0  0  0  0  0  0  0  0  0  0  0
   64.6240   32.7170   47.9950 H   0  0  0  0  0  0  0  0  0  0  0  0
   64.1709   30.7953   50.6306 H   0  0  0  0  0  0  0  0  0  0  0  0
   65.8361   29.9183   52.2692 H   0  0  0  0  0  0  0  0  0  0  0  0
   68.0526   31.0388   52.5234 H   0  0  0  0  0  0  0  0  0  0  0  0
   68.5989   33.0512   51.1497 H   0  0  0  0  0  0  0  0  0  0  0  0
   66.9421   33.9328   49.5067 H   0  0  0  0  0  0  0  0  0  0  0  0
   63.2328   33.4946   46.6724 H   0  0  0  0  0  0  0  0  0  0  0  0
   61.1956   33.7072   45.2565 H   0  0  0  0  0  0  0  0  0  0  0  0
   59.1419   31.4936   47.7149 H   0  0  0  0  0  0  0  0  0  0  0  0
   59.5288   26.5056   45.0954 H   0  0  0  0  0  0  0  0  0  0  0  0
   58.4292   28.2276   43.3880 H   0  0  0  0  0  0  0  0  0  0  0  0
  1  2  2  0
  2  3  1  0
  3  4  1  0
  4  5  1  0
  5  6  1  0
  6  7  2  0
  6  8  1  0
  8  9  1  0
  9 10  2  0
 10 11  1  0
 11 12  2  0
 12 13  1  0
 13 14  2  0
 13 15  1  0
 15 16  1  0
 16 17  2  0
 17 18  1  0
 18 19  2  0
 19 20  1  0
 20 21  2  0
 12 22  1  0
 22 23  2  0
  5 24  2  0
 24 25  1  0
 25 26  1  0
 26 27  1  0
 27 28  2  0
 28 29  1  0
 29  4  1  0
 23  9  1  0
 29 25  2  0
 21 16  1  0
  1 30  1  0
  1 31  1  0
  2 32  1  0
  3 33  1  0
  3 34  1  0
 10 35  1  0
 11 36  1  0
 15 37  1  0
 17 38  1  0
 18 39  1  0
 19 40  1  0
 20 41  1  0
 21 42  1  0
 22 43  1  0
 23 44  1  0
 24 45  1  0
 27 46  1  0
 28 47  1  0
M  CHG  1   8  -1
M  END
>  <UniqueID>  (51) 
49

>  <SMILES>  (51) 
C=CCn1c(C(=O)[N-]c2ccc(C(=O)Nc3ccccc3)cc2)cc2sccc21

>  <Energy>  (51) 
134.297628578087

>  <Genealogy>  (51) 
C=CCn1c(C(=O)[N-]c2ccc(C(=O)Nc3ccccc3)cc2)cc2sccc21 (protonated)
C=CCn1c(C(=O)[N-]c2ccc(C(=O)Nc3ccccc3)cc2)cc2sccc21 (3D coordinates assigned)
C=CCn1c(C(=O)[N-]c2ccc(C(=O)Nc3ccccc3)cc2)cc2sccc21 (optimized conformer: 134.297628578087 kcal/mol)

>  <smiles>  (51) 
C=CCn1c(C(=O)Nc2ccc(C(=O)Nc3ccccc3)cc2)cc2sccc21

>  <score_type>  (51) 
oracle

>  <origin>  (51) 
adg

>  <m_score__min__energy>  (51) 
-9.4000000000000004

>  <m_primary>  (51) 
energy

$$$$
51:0
     RDKit          3D

 59 62  0  0  0  0  0  0  0  0999 V2000
   50.0720   32.3250   51.2690 H   0  0  0  0  0  0  0  0  0  0  0  0
   51.0630   32.3300   50.9360 N   0  0  0  0  0  0  0  0  0  0  0  0
   51.7410   31.1120   50.6350 C   0  0  0  0  0  0  0  0  0  0  0  0
   51.4290   30.4770   49.5920 O   0  0  0  0  0  0  0  0  0  0  0  0
   52.8030   30.5990   51.5350 C   0  0  0  0  0  0  0  0  0  0  0  0
   52.5860   29.4490   52.3110 C   0  0  0  0  0  0  0  0  0  0  0  0
   51.6228   28.9214   52.2488 H   0  0  0  0  0  0  0  0  0  0  0  0
   53.5850   28.9710   53.1610 C   0  0  0  0  0  0  0  0  0  0  0  0
   53.4057   28.0671   53.7616 H   0  0  0  0  0  0  0  0  0  0  0  0
   54.8090   29.6330   53.2530 C   0  0  0  0  0  0  0  0  0  0  0  0
   55.5894   29.2480   53.9259 H   0  0  0  0  0  0  0  0  0  0  0  0
   55.0520   30.7910   52.4900 C   0  0  0  0  0  0  0  0  0  0  0  0
   56.3480   31.5250   52.5710 C   0  0  0  0  0  0  0  0  0  0  0  0
   56.3470   32.7580   52.2960 O   0  0  0  0  0  0  0  0  0  0  0  0
   57.5830   30.8600   52.9720 N   0  0  2  0  0  0  0  0  0  0  0  0
   57.4960   30.6250   53.9860 H   0  0  0  0  0  0  0  0  0  0  0  0
   58.7550   31.7470   52.8160 C   0  0  0  0  0  0  0  0  0  0  0  0
   58.5294   32.7178   53.2814 H   0  0  0  0  0  0  0  0  0  0  0  0
   59.6142   31.2614   53.3017 H   0  0  0  0  0  0  0  0  0  0  0  0
   59.1080   31.9730   51.3640 C   0  0  0  0  0  0  0  0  0  0  0  0
   58.8410   30.9810   50.4180 C   0  0  0  0  0  0  0  0  0  0  0  0
   59.1710   31.1910   49.1230 N   0  0  0  0  0  0  0  0  0  0  0  0
   59.7910   32.3280   48.7070 C   0  0  0  0  0  0  0  0  0  0  0  0
   60.0450   32.5000   47.4410 N   0  0  0  0  0  0  0  0  0  0  0  0
   59.2090   33.2610   46.5120 C   0  0  0  0  0  0  0  0  0  0  0  0
   58.4702   33.8431   47.0824 H   0  0  0  0  0  0  0  0  0  0  0  0
   59.8497   33.9358   45.9254 H   0  0  0  0  0  0  0  0  0  0  0  0
   58.4890   32.3300   45.5720 C   0  0  0  0  0  0  0  0  0  0  0  0
   58.1260   32.7710   44.2890 C   0  0  0  0  0  0  0  0  0  0  0  0
   58.4011   33.7840   43.9602 H   0  0  0  0  0  0  0  0  0  0  0  0
   57.4170   31.9290   43.4280 C   0  0  0  0  0  0  0  0  0  0  0  0
   57.1476   32.2776   42.4201 H   0  0  0  0  0  0  0  0  0  0  0  0
   57.0470   30.6400   43.8440 C   0  0  0  0  0  0  0  0  0  0  0  0
   56.3120   29.7290   42.9050 C   0  0  0  0  0  0  0  0  0  0  0  0
   55.7249   29.0013   43.4845 H   0  0  0  0  0  0  0  0  0  0  0  0
   55.6371   30.3229   42.2711 H   0  0  0  0  0  0  0  0  0  0  0  0
   57.0352   29.1950   42.2711 H   0  0  0  0  0  0  0  0  0  0  0  0
   57.4250   30.1930   45.1180 C   0  0  0  0  0  0  0  0  0  0  0  0
   57.1621   29.1748   45.4408 H   0  0  0  0  0  0  0  0  0  0  0  0
   58.1340   31.0340   45.9800 C   0  0  0  0  0  0  0  0  0  0  0  0
   58.4152   30.6792   46.9825 H   0  0  0  0  0  0  0  0  0  0  0  0
   60.1250   33.2980   49.6220 N   0  0  0  0  0  0  0  0  0  0  0  0
   60.7880   34.5440   49.1840 C   0  0  0  0  0  0  0  0  0  0  0  0
   60.5803   35.3405   49.9136 H   0  0  0  0  0  0  0  0  0  0  0  0
   60.3986   34.8257   48.1945 H   0  0  0  0  0  0  0  0  0  0  0  0
   62.2960   34.3380   49.0810 C   0  0  0  0  0  0  0  0  0  0  0  0
   62.7278   34.2790   50.0910 H   0  0  0  0  0  0  0  0  0  0  0  0
   62.5022   33.4033   48.5389 H   0  0  0  0  0  0  0  0  0  0  0  0
   62.7453   35.1831   48.5389 H   0  0  0  0  0  0  0  0  0  0  0  0
   59.7790   33.1340   50.9430 C   0  0  0  0  0  0  0  0  0  0  0  0
   60.0560   34.0300   51.7880 O   0  0  0  0  0  0  0  0  0  0  0  0
   58.1220   29.7110   50.7780 C   0  0  0  0  0  0  0  0  0  0  0  0
   57.1679   29.6864   50.2312 H   0  0  0  0  0  0  0  0  0  0  0  0
   58.7876   28.8791   50.5044 H   0  0  0  0  0  0  0  0  0  0  0  0
   57.8220   29.5670   52.2850 C   0  0  0  0  0  0  0  0  0  0  0  0
   56.9254   28.9406   52.4022 H   0  0  0  0  0  0  0  0  0  0  0  0
   58.7123   29.1167   52.7483 H   0  0  0  0  0  0  0  0  0  0  0  0
   54.0410   31.2610   51.6290 C   0  0  0  0  0  0  0  0  0  0  0  0
   54.2222   32.1594   51.0208 H   0  0  0  0  0  0  0  0  0  0  0  0
  1  2  1  0
  2  3  1  0
  3  4  2  0
  3  5  1  0
  5  6  2  0
  6  7  1  0
  6  8  1  0
  8  9  1  0
  8 10  2  0
 10 11  1  0
 10 12  1  0
 12 13  1  0
 13 14  2  0
 13 15  1  0
 15 16  1  1
 15 17  1  0
 17 18  1  0
 17 19  1  0
 17 20  1  0
 20 21  2  0
 21 22  1  0
 22 23  1  0
 23 24  2  0
 24 25  1  0
 25 26  1  0
 25 27  1  0
 25 28  1  0
 28 29  2  0
 29 30  1  0
 29 31  1  0
 31 32  1  0
 31 33  2  0
 33 34  1  0
 34 35  1  0
 34 36  1  0
 34 37  1  0
 33 38  1  0
 38 39  1  0
 38 40  2  0
 40 41  1  0
 23 42  1  0
 42 43  1  0
 43 44  1  0
 43 45  1  0
 43 46  1  0
 46 47  1  0
 46 48  1  0
 46 49  1  0
 42 50  1  0
 50 51  2  0
 21 52  1  0
 52 53  1  0
 52 54  1  0
 52 55  1  0
 55 56  1  0
 55 57  1  0
 12 58  2  0
 58 59  1  0
 58  5  1  0
 55 15  1  0
 50 20  1  0
 40 28  1  0
M  CHG  3   2  -1  15   1  22  -1
M  END
>  <UniqueID>  (52) 
50

>  <SMILES>  (52) 
CCn1c(=O)c2c([n-]/c1=N\Cc1ccc(C)cc1)CC[N@H+](C(=O)c1cccc(C([NH-])=O)c1)C2

>  <Energy>  (52) 
75.56729594003025

>  <Genealogy>  (52) 
CCn1c(=NCc2ccc(C)cc2)[n-]c2c(c1=O)C[NH+](C(=O)c1cccc(C([NH-])=O)c1)CC2 (protonated)
CCn1c(=NCc2ccc(C)cc2)[n-]c2c(c1=O)C[N@@H+](C(=O)c1cccc(C([NH-])=O)c1)CC2 (chirality)
CCn1c(=O)c2c([n-]/c1=N\Cc1ccc(C)cc1)CC[N@H+](C(=O)c1cccc(C([NH-])=O)c1)C2 (cis-trans isomerization)
CCn1c(=O)c2c([n-]/c1=N\Cc1ccc(C)cc1)CC[N@H+](C(=O)c1cccc(C([NH-])=O)c1)C2 (3D coordinates assigned)
CCn1c(=O)c2c([n-]/c1=N\Cc1ccc(C)cc1)CC[N@H+](C(=O)c1cccc(C([NH-])=O)c1)C2 (nonaromatic ring conformer: 75.56729594003025 kcal/mol)

>  <smiles>  (52) 
CCn1c(=NCc2ccc(C)cc2)[nH]c2c(c1=O)CN(C(=O)c1cccc(C(N)=O)c1)CC2

>  <score_type>  (52) 
oracle

>  <origin>  (52) 
adg

>  <m_score__min__energy>  (52) 
-12.42

>  <m_primary>  (52) 
energy

$$$$
52:0
     RDKit          3D

 58 61  0  0  0  0  0  0  0  0999 V2000
   62.9120   31.3200   47.1900 O   0  0  0  0  0  0  0  0  0  0  0  0
   62.4260   32.2280   47.9170 C   0  0  0  0  0  0  0  0  0  0  0  0
   61.5710   33.2730   47.3300 C   0  0  0  0  0  0  0  0  0  0  0  0
   61.6570   33.4880   46.0930 O   0  0  0  0  0  0  0  0  0  0  0  0
   60.7470   34.1360   48.1660 N   0  0  1  0  0  0  0  0  0  0  0  0
   59.2960   34.1330   47.7790 C   0  0  0  0  0  0  0  0  0  0  0  0
   59.0290   34.5910   46.3130 C   0  0  0  0  0  0  0  0  0  0  0  0
   58.7800   33.4570   45.3090 C   0  0  0  0  0  0  0  0  0  0  0  0
   57.8160   32.4860   45.8460 N   0  0  0  0  0  0  0  0  0  0  0  0
   57.4580   31.2890   44.6260 S   0  0  0  0  0  0  0  0  0  0  0  0
   58.0450   31.7050   43.3050 O   0  0  0  0  0  0  0  0  0  0  0  0
   55.9680   31.1450   44.4690 O   0  0  0  0  0  0  0  0  0  0  0  0
   58.1750   29.7490   45.0940 C   0  0  0  0  0  0  0  0  0  0  0  0
   59.5200   29.4970   44.7940 C   0  0  0  0  0  0  0  0  0  0  0  0
   60.1130   28.2890   45.1760 C   0  0  0  0  0  0  0  0  0  0  0  0
   59.3630   27.3170   45.8670 C   0  0  0  0  0  0  0  0  0  0  0  0
   59.9300   26.0650   46.2820 N   0  0  0  0  0  0  0  0  0  0  0  0
   59.4570   24.9290   45.9570 C   0  0  0  0  0  0  0  0  0  0  0  0
   58.8600   23.4910   45.5460 S   0  0  0  0  0  0  0  0  0  0  0  0
   58.0190   27.5770   46.1650 C   0  0  0  0  0  0  0  0  0  0  0  0
   57.4270   28.7850   45.7820 C   0  0  0  0  0  0  0  0  0  0  0  0
   58.3830   31.8260   47.0290 C   0  0  0  0  0  0  0  0  0  0  0  0
   58.5300   32.8340   48.1720 C   0  0  0  0  0  0  0  0  0  0  0  0
   60.8810   33.8510   49.6260 C   0  0  0  0  0  0  0  0  0  0  0  0
   62.3120   33.4900   50.0340 C   0  0  0  0  0  0  0  0  0  0  0  0
   62.7150   32.2790   49.3200 N   0  0  0  0  0  0  0  0  0  0  0  0
   63.3860   31.1740   50.0090 C   0  0  0  0  0  0  0  0  0  0  0  0
   64.7880   31.5710   50.3820 C   0  0  0  0  0  0  0  0  0  0  0  0
   65.5290   30.8090   51.3010 C   0  0  0  0  0  0  0  0  0  0  0  0
   66.8360   31.1800   51.6310 C   0  0  0  0  0  0  0  0  0  0  0  0
   67.4150   32.3070   51.0430 C   0  0  0  0  0  0  0  0  0  0  0  0
   66.6890   33.0650   50.1210 C   0  0  0  0  0  0  0  0  0  0  0  0
   65.3810   32.6990   49.7890 C   0  0  0  0  0  0  0  0  0  0  0  0
   61.1230   35.1050   48.0380 H   0  0  0  0  0  0  0  0  0  0  0  0
   58.8526   34.9189   48.4081 H   0  0  0  0  0  0  0  0  0  0  0  0
   58.1432   35.2432   46.3162 H   0  0  0  0  0  0  0  0  0  0  0  0
   59.9467   35.0977   45.9796 H   0  0  0  0  0  0  0  0  0  0  0  0
   58.3815   33.8824   44.3761 H   0  0  0  0  0  0  0  0  0  0  0  0
   59.7319   32.9398   45.1184 H   0  0  0  0  0  0  0  0  0  0  0  0
   60.1121   30.2520   44.2560 H   0  0  0  0  0  0  0  0  0  0  0  0
   61.1692   28.0972   44.9359 H   0  0  0  0  0  0  0  0  0  0  0  0
   57.4245   26.8250   46.7046 H   0  0  0  0  0  0  0  0  0  0  0  0
   56.3710   28.9785   46.0218 H   0  0  0  0  0  0  0  0  0  0  0  0
   57.7159   31.0108   47.3459 H   0  0  0  0  0  0  0  0  0  0  0  0
   59.3738   31.4207   46.7758 H   0  0  0  0  0  0  0  0  0  0  0  0
   57.5238   33.1165   48.5152 H   0  0  0  0  0  0  0  0  0  0  0  0
   59.1229   32.3406   48.9563 H   0  0  0  0  0  0  0  0  0  0  0  0
   60.5706   34.7443   50.1879 H   0  0  0  0  0  0  0  0  0  0  0  0
   60.2443   32.9831   49.8526 H   0  0  0  0  0  0  0  0  0  0  0  0
   62.9902   34.3158   49.7731 H   0  0  0  0  0  0  0  0  0  0  0  0
   62.3585   33.3166   51.1193 H   0  0  0  0  0  0  0  0  0  0  0  0
   62.8253   30.9200   50.9207 H   0  0  0  0  0  0  0  0  0  0  0  0
   63.4254   30.3031   49.3382 H   0  0  0  0  0  0  0  0  0  0  0  0
   65.0792   29.9175   51.7624 H   0  0  0  0  0  0  0  0  0  0  0  0
   67.4096   30.5830   52.3553 H   0  0  0  0  0  0  0  0  0  0  0  0
   68.4428   32.5977   51.3060 H   0  0  0  0  0  0  0  0  0  0  0  0
   67.1468   33.9505   49.6558 H   0  0  0  0  0  0  0  0  0  0  0  0
   64.8135   33.2966   49.0604 H   0  0  0  0  0  0  0  0  0  0  0  0
  1  2  2  0
  2  3  1  0
  3  4  2  0
  3  5  1  0
  5  6  1  0
  6  7  1  0
  7  8  1  0
  8  9  1  0
  9 10  1  0
 10 11  2  0
 10 12  2  0
 10 13  1  0
 13 14  2  0
 14 15  1  0
 15 16  2  0
 16 17  1  0
 17 18  2  0
 18 19  2  0
 16 20  1  0
 20 21  2  0
  9 22  1  0
 22 23  1  0
  5 24  1  0
 24 25  1  0
 25 26  1  0
 26 27  1  0
 27 28  1  0
 28 29  2  0
 29 30  1  0
 30 31  2  0
 31 32  1  0
 32 33  2  0
 26  2  1  0
 33 28  1  0
 23  6  1  0
 21 13  1  0
  5 34  1  1
  6 35  1  0
  7 36  1  0
  7 37  1  0
  8 38  1  0
  8 39  1  0
 14 40  1  0
 15 41  1  0
 20 42  1  0
 21 43  1  0
 22 44  1  0
 22 45  1  0
 23 46  1  0
 23 47  1  0
 24 48  1  0
 24 49  1  0
 25 50  1  0
 25 51  1  0
 27 52  1  0
 27 53  1  0
 29 54  1  0
 30 55  1  0
 31 56  1  0
 32 57  1  0
 33 58  1  0
M  CHG  1   5   1
M  END
>  <UniqueID>  (53) 
51

>  <SMILES>  (53) 
O=C1C(=O)[N@@H+](C2CCN(S(=O)(=O)c3ccc(N=C=S)cc3)CC2)CCN1Cc1ccccc1

>  <Energy>  (53) 
75.55951704201661

>  <Genealogy>  (53) 
O=C1C(=O)[NH+](C2CCN(S(=O)(=O)c3ccc(N=C=S)cc3)CC2)CCN1Cc1ccccc1 (protonated)
O=C1C(=O)[N@@H+](C2CCN(S(=O)(=O)c3ccc(N=C=S)cc3)CC2)CCN1Cc1ccccc1 (chirality)
O=C1C(=O)[N@@H+](C2CCN(S(=O)(=O)c3ccc(N=C=S)cc3)CC2)CCN1Cc1ccccc1 (3D coordinates assigned)
O=C1C(=O)[N@@H+](C2CCN(S(=O)(=O)c3ccc(N=C=S)cc3)CC2)CCN1Cc1ccccc1 (nonaromatic ring conformer: 75.55951704201661 kcal/mol)

>  <smiles>  (53) 
O=C1C(=O)N(C2CCN(S(=O)(=O)c3ccc(N=C=S)cc3)CC2)CCN1Cc1ccccc1

>  <score_type>  (53) 
oracle

>  <origin>  (53) 
adg

>  <m_score__min__energy>  (53) 
-8.2300000000000004

>  <m_primary>  (53) 
energy

$$$$
53:0
     RDKit          3D

 51 54  0  0  0  0  0  0  0  0999 V2000
   57.6093   35.4913   44.9304 H   0  0  0  0  0  0  0  0  0  0  0  0
   58.0580   34.5440   45.2640 C   0  0  0  0  0  0  0  0  0  0  0  0
   57.4100   33.3720   45.0440 N   0  0  0  0  0  0  0  0  0  0  0  0
   57.9410   32.1880   45.4520 C   0  0  0  0  0  0  0  0  0  0  0  0
   57.3380   31.0590   45.2210 N   0  0  0  0  0  0  0  0  0  0  0  0
   57.6910   29.7670   45.7430 C   0  0  0  0  0  0  0  0  0  0  0  0
   58.5790   29.6160   46.8230 C   0  0  0  0  0  0  0  0  0  0  0  0
   58.9970   30.5052   47.3175 H   0  0  0  0  0  0  0  0  0  0  0  0
   58.9320   28.3400   47.2700 C   0  0  0  0  0  0  0  0  0  0  0  0
   59.6197   28.2284   48.1213 H   0  0  0  0  0  0  0  0  0  0  0  0
   58.4150   27.2060   46.6400 C   0  0  0  0  0  0  0  0  0  0  0  0
   58.6979   26.2044   46.9960 H   0  0  0  0  0  0  0  0  0  0  0  0
   57.5340   27.3400   45.5520 C   0  0  0  0  0  0  0  0  0  0  0  0
   57.0200   26.1900   44.8580 N   0  0  0  0  0  0  0  0  0  0  0  0
   57.1990   26.1220   43.8320 H   0  0  0  0  0  0  0  0  0  0  0  0
   56.1900   25.1870   45.4710 C   0  0  0  0  0  0  0  0  0  0  0  0
   55.6390   25.4110   46.5820 O   0  0  0  0  0  0  0  0  0  0  0  0
   55.9110   23.8830   44.7670 C   0  0  0  0  0  0  0  0  0  0  0  0
   56.2859   23.0656   45.4005 H   0  0  0  0  0  0  0  0  0  0  0  0
   54.4050   23.6800   44.5760 C   0  0  0  0  0  0  0  0  0  0  0  0
   53.9163   23.6141   45.5593 H   0  0  0  0  0  0  0  0  0  0  0  0
   53.9886   24.5301   44.0158 H   0  0  0  0  0  0  0  0  0  0  0  0
   54.2285   22.7499   44.0158 H   0  0  0  0  0  0  0  0  0  0  0  0
   56.6520   23.8130   43.4270 C   0  0  0  0  0  0  0  0  0  0  0  0
   57.7319   23.7110   43.6100 H   0  0  0  0  0  0  0  0  0  0  0  0
   56.2935   22.9447   42.8547 H   0  0  0  0  0  0  0  0  0  0  0  0
   56.4624   24.7331   42.8547 H   0  0  0  0  0  0  0  0  0  0  0  0
   57.2020   28.6240   45.0950 C   0  0  0  0  0  0  0  0  0  0  0  0
   56.5493   28.7355   44.2166 H   0  0  0  0  0  0  0  0  0  0  0  0
   59.1480   32.1770   46.0750 N   0  0  0  0  0  0  0  0  0  0  0  0
   59.8370   33.3240   46.3290 C   0  0  0  0  0  0  0  0  0  0  0  0
   61.1520   33.2470   47.0150 C   0  0  0  0  0  0  0  0  0  0  0  0
   62.2880   33.8320   46.4320 C   0  0  0  0  0  0  0  0  0  0  0  0
   62.1998   34.3522   45.4668 H   0  0  0  0  0  0  0  0  0  0  0  0
   63.4960   33.7600   47.0520 N   0  0  0  0  0  0  0  0  0  0  0  0
   63.6690   33.1230   48.2390 C   0  0  0  0  0  0  0  0  0  0  0  0
   64.8590   33.1010   48.7680 N   0  0  0  0  0  0  0  0  0  0  0  0
   65.1520   32.9820   50.1950 C   0  0  0  0  0  0  0  0  0  0  0  0
   64.2290   33.4435   50.5758 H   0  0  0  0  0  0  0  0  0  0  0  0
   66.6270   33.1100   50.5300 C   0  0  0  0  0  0  0  0  0  0  0  0
   67.3493   33.3731   49.7432 H   0  0  0  0  0  0  0  0  0  0  0  0
   67.2124   33.6883   51.2600 H   0  0  0  0  0  0  0  0  0  0  0  0
   65.9600   31.7420   50.5250 C   0  0  0  0  0  0  0  0  0  0  0  0
   66.2004   31.0156   49.7347 H   0  0  0  0  0  0  0  0  0  0  0  0
   65.8636   30.9207   51.2503 H   0  0  0  0  0  0  0  0  0  0  0  0
   62.5610   32.5110   48.8550 C   0  0  0  0  0  0  0  0  0  0  0  0
   62.6802   31.9870   49.8148 H   0  0  0  0  0  0  0  0  0  0  0  0
   61.3100   32.5740   48.2390 C   0  0  0  0  0  0  0  0  0  0  0  0
   60.4421   32.0938   48.7145 H   0  0  0  0  0  0  0  0  0  0  0  0
   59.2910   34.5480   45.9120 C   0  0  0  0  0  0  0  0  0  0  0  0
   59.8262   35.4917   46.0934 H   0  0  0  0  0  0  0  0  0  0  0  0
  1  2  1  0
  2  3  1  0
  3  4  1  0
  4  5  2  0
  5  6  1  0
  6  7  2  0
  7  8  1  0
  7  9  1  0
  9 10  1  0
  9 11  2  0
 11 12  1  0
 11 13  1  0
 13 14  1  0
 14 15  1  0
 14 16  1  0
 16 17  2  0
 16 18  1  0
 18 19  1  0
 18 20  1  0
 20 21  1  0
 20 22  1  0
 20 23  1  0
 18 24  1  0
 24 25  1  0
 24 26  1  0
 24 27  1  0
 13 28  2  0
 28 29  1  0
  4 30  1  0
 30 31  2  0
 31 32  1  0
 32 33  2  0
 33 34  1  0
 33 35  1  0
 35 36  1  0
 36 37  2  0
 37 38  1  0
 38 39  1  0
 38 40  1  0
 40 41  1  0
 40 42  1  0
 40 43  1  0
 43 44  1  0
 43 45  1  0
 36 46  1  0
 46 47  1  0
 46 48  2  0
 48 49  1  0
 31 50  1  0
 50 51  1  0
 50  2  2  0
 28  6  1  0
 48 32  1  0
 43 38  1  0
M  CHG  2   3  -1  35  -1
M  END
>  <UniqueID>  (54) 
52

>  <SMILES>  (54) 
CC(C)C(=O)Nc1cccc(/N=c2/nc(-c3cc/c(=N\C4CC4)[n-]c3)cc[n-]2)c1

>  <Energy>  (54) 
330.25536451902

>  <Genealogy>  (54) 
CC(C)C(=O)Nc1cccc(N=c2nc(-c3ccc(=NC4CC4)[n-]c3)cc[n-]2)c1 (protonated)
CC(C)C(=O)Nc1cccc(/N=c2/nc(-c3cc/c(=N\C4CC4)[n-]c3)cc[n-]2)c1 (cis-trans isomerization)
CC(C)C(=O)Nc1cccc(/N=c2/nc(-c3cc/c(=N\C4CC4)[n-]c3)cc[n-]2)c1 (3D coordinates assigned)
CC(C)C(=O)Nc1cccc(/N=c2/nc(-c3cc/c(=N\C4CC4)[n-]c3)cc[n-]2)c1 (nonaromatic ring conformer: 330.25536451902 kcal/mol)

>  <smiles>  (54) 
CC(C)C(=O)Nc1cccc(N=c2nc(-c3ccc(=NC4CC4)[nH]c3)cc[nH]2)c1

>  <score_type>  (54) 
oracle

>  <origin>  (54) 
adg

>  <m_score__min__energy>  (54) 
-11.390000000000001

>  <m_primary>  (54) 
energy

$$$$
54:0
     RDKit          3D

 55 57  0  0  0  0  0  0  0  0999 V2000
   57.4560   32.3240   41.3680 C   0  0  0  0  0  0  0  0  0  0  0  0
   57.0180   31.1970   42.2950 C   0  0  0  0  0  0  0  0  0  0  0  0
   57.3890   31.5030   43.7150 C   0  0  0  0  0  0  0  0  0  0  0  0
   57.5460   32.7530   44.1860 N   0  0  0  0  0  0  0  0  0  0  0  0
   57.9090   32.6670   45.4560 N   0  0  0  0  0  0  0  0  0  0  0  0
   58.1670   33.8410   46.2920 C   0  0  0  0  0  0  0  0  0  0  0  0
   59.5580   33.8200   46.8830 C   0  0  0  0  0  0  0  0  0  0  0  0
   60.6660   33.6860   46.0320 C   0  0  0  0  0  0  0  0  0  0  0  0
   61.9670   33.7100   46.5450 C   0  0  0  0  0  0  0  0  0  0  0  0
   62.1790   33.8500   47.9310 C   0  0  0  0  0  0  0  0  0  0  0  0
   63.4940   33.9040   48.5020 N   0  0  0  0  0  0  0  0  0  0  0  0
   63.8470   33.7740   49.8870 C   0  0  0  0  0  0  0  0  0  0  0  0
   63.3900   34.5820   50.7400 O   0  0  0  0  0  0  0  0  0  0  0  0
   64.8110   32.7270   50.3000 C   0  0  0  0  0  0  0  0  0  0  0  0
   66.1800   33.0210   50.1990 C   0  0  0  0  0  0  0  0  0  0  0  0
   67.1380   32.1070   50.6310 C   0  0  0  0  0  0  0  0  0  0  0  0
   66.7450   30.8910   51.1810 C   0  0  0  0  0  0  0  0  0  0  0  0
   65.3860   30.5600   51.2940 C   0  0  0  0  0  0  0  0  0  0  0  0
   65.0180   29.2270   51.8930 C   0  0  0  0  0  0  0  0  0  0  0  0
   64.4000   31.4610   50.8030 C   0  0  0  0  0  0  0  0  0  0  0  0
   62.9360   31.0740   50.8320 C   0  0  0  0  0  0  0  0  0  0  0  0
   61.0760   34.0280   48.7730 C   0  0  0  0  0  0  0  0  0  0  0  0
   59.7780   34.0310   48.2580 C   0  0  0  0  0  0  0  0  0  0  0  0
   57.9840   31.3680   45.8230 C   0  0  0  0  0  0  0  0  0  0  0  0
   58.4150   30.8810   47.1750 C   0  0  0  0  0  0  0  0  0  0  0  0
   57.6840   30.5870   44.7180 C   0  0  0  0  0  0  0  0  0  0  0  0
   57.6200   29.0890   44.6390 C   0  0  0  0  0  0  0  0  0  0  0  0
   56.2720   28.6060   45.0710 C   0  0  0  0  0  0  0  0  0  0  0  0
   56.1530   27.4840   45.6350 O   0  0  0  0  0  0  0  0  0  0  0  0
   55.1530   29.4020   44.8760 O   0  0  0  0  0  0  0  0  0  0  0  0
   57.7900   33.1834   41.9680 H   0  0  0  0  0  0  0  0  0  0  0  0
   58.2843   31.9758   40.7334 H   0  0  0  0  0  0  0  0  0  0  0  0
   56.6100   32.6265   40.7334 H   0  0  0  0  0  0  0  0  0  0  0  0
   55.9269   31.0757   42.2252 H   0  0  0  0  0  0  0  0  0  0  0  0
   57.5259   30.2705   41.9891 H   0  0  0  0  0  0  0  0  0  0  0  0
   58.0559   34.7463   45.6771 H   0  0  0  0  0  0  0  0  0  0  0  0
   57.4449   33.8328   47.1218 H   0  0  0  0  0  0  0  0  0  0  0  0
   60.5096   33.5608   44.9504 H   0  0  0  0  0  0  0  0  0  0  0  0
   62.8267   33.6194   45.8648 H   0  0  0  0  0  0  0  0  0  0  0  0
   66.4996   33.9839   49.7740 H   0  0  0  0  0  0  0  0  0  0  0  0
   68.2074   32.3470   50.5372 H   0  0  0  0  0  0  0  0  0  0  0  0
   67.5084   30.1808   51.5314 H   0  0  0  0  0  0  0  0  0  0  0  0
   65.0382   29.3000   52.9904 H   0  0  0  0  0  0  0  0  0  0  0  0
   64.0079   28.9430   51.5629 H   0  0  0  0  0  0  0  0  0  0  0  0
   65.7394   28.4650   51.5629 H   0  0  0  0  0  0  0  0  0  0  0  0
   62.6008   30.9854   51.8759 H   0  0  0  0  0  0  0  0  0  0  0  0
   62.3424   31.8461   50.3206 H   0  0  0  0  0  0  0  0  0  0  0  0
   62.8015   30.1095   50.3206 H   0  0  0  0  0  0  0  0  0  0  0  0
   61.2330   34.1672   49.8528 H   0  0  0  0  0  0  0  0  0  0  0  0
   58.9231   34.1990   48.9296 H   0  0  0  0  0  0  0  0  0  0  0  0
   57.9009   31.4618   47.9550 H   0  0  0  0  0  0  0  0  0  0  0  0
   58.1575   29.8168   47.2807 H   0  0  0  0  0  0  0  0  0  0  0  0
   59.5026   31.0073   47.2807 H   0  0  0  0  0  0  0  0  0  0  0  0
   57.8045   28.7716   43.6021 H   0  0  0  0  0  0  0  0  0  0  0  0
   58.3846   28.6615   45.3043 H   0  0  0  0  0  0  0  0  0  0  0  0
  1  2  1  0
  2  3  1  0
  3  4  2  0
  4  5  1  0
  5  6  1  0
  6  7  1  0
  7  8  2  0
  8  9  1  0
  9 10  2  0
 10 11  1  0
 11 12  1  0
 12 13  2  0
 12 14  1  0
 14 15  2  0
 15 16  1  0
 16 17  2  0
 17 18  1  0
 18 19  1  0
 18 20  2  0
 20 21  1  0
 10 22  1  0
 22 23  2  0
  5 24  1  0
 24 25  1  0
 24 26  2  0
 26 27  1  0
 27 28  1  0
 28 29  2  0
 28 30  1  0
 26  3  1  0
 23  7  1  0
 20 14  1  0
  1 31  1  0
  1 32  1  0
  1 33  1  0
  2 34  1  0
  2 35  1  0
  6 36  1  0
  6 37  1  0
  8 38  1  0
  9 39  1  0
 15 40  1  0
 16 41  1  0
 17 42  1  0
 19 43  1  0
 19 44  1  0
 19 45  1  0
 21 46  1  0
 21 47  1  0
 21 48  1  0
 22 49  1  0
 23 50  1  0
 25 51  1  0
 25 52  1  0
 25 53  1  0
 27 54  1  0
 27 55  1  0
M  CHG  2  11  -1  30  -1
M  END
>  <UniqueID>  (55) 
53

>  <SMILES>  (55) 
CCc1nn(Cc2ccc([N-]C(=O)c3cccc(C)c3C)cc2)c(C)c1CC(=O)[O-]

>  <Energy>  (55) 
90.59249060936645

>  <Genealogy>  (55) 
CCc1nn(Cc2ccc([N-]C(=O)c3cccc(C)c3C)cc2)c(C)c1CC(=O)[O-] (protonated)
CCc1nn(Cc2ccc([N-]C(=O)c3cccc(C)c3C)cc2)c(C)c1CC(=O)[O-] (3D coordinates assigned)
CCc1nn(Cc2ccc([N-]C(=O)c3cccc(C)c3C)cc2)c(C)c1CC(=O)[O-] (optimized conformer: 90.59249060936645 kcal/mol)

>  <smiles>  (55) 
CCc1nn(Cc2ccc(NC(=O)c3cccc(C)c3C)cc2)c(C)c1CC(=O)O

>  <score_type>  (55) 
oracle

>  <origin>  (55) 
adg

>  <m_score__min__energy>  (55) 
-12.390000000000001

>  <m_primary>  (55) 
energy

$$$$
55:0
     RDKit          3D

 50 52  0  0  0  0  0  0  0  0999 V2000
   58.9840   28.8080   47.6560 C   0  0  0  0  0  0  0  0  0  0  0  0
   57.9920   28.5500   46.8050 C   0  0  0  0  0  0  0  0  0  0  0  0
   57.5100   29.5350   45.8120 C   0  0  0  0  0  0  0  0  0  0  0  0
   58.2920   30.6740   45.5710 C   0  0  0  0  0  0  0  0  0  0  0  0
   57.8370   31.6880   44.7100 C   0  0  0  0  0  0  0  0  0  0  0  0
   58.6090   32.9360   44.5190 C   0  0  0  0  0  0  0  0  0  0  0  0
   58.5570   34.0070   45.3290 C   0  0  0  0  0  0  0  0  0  0  0  0
   58.7960   33.9860   46.7860 C   0  0  0  0  0  0  0  0  0  0  0  0
   59.5910   34.8280   47.2850 O   0  0  0  0  0  0  0  0  0  0  0  0
   58.0630   33.1020   47.6480 N   0  0  0  0  0  0  0  0  0  0  0  0
   58.6260   32.4400   48.7970 C   0  0  0  0  0  0  0  0  0  0  0  0
   59.9950   32.1170   48.8710 C   0  0  0  0  0  0  0  0  0  0  0  0
   60.4980   31.4260   49.9770 C   0  0  0  0  0  0  0  0  0  0  0  0
   59.6450   31.0450   51.0140 C   0  0  0  0  0  0  0  0  0  0  0  0
   58.2810   31.3500   50.9490 C   0  0  0  0  0  0  0  0  0  0  0  0
   57.2040   30.8780   52.2590 S   0  0  0  0  0  0  0  0  0  0  0  0
   57.9350   29.9360   53.1710 O   0  0  0  0  0  0  0  0  0  0  0  0
   56.7680   32.0840   53.0430 O   0  0  0  0  0  0  0  0  0  0  0  0
   55.7990   30.0850   51.6210 N   0  0  0  0  0  0  0  0  0  0  0  0
   54.4670   30.2200   52.1400 C   0  0  0  0  0  0  0  0  0  0  0  0
   54.0000   29.4330   53.2080 C   0  0  0  0  0  0  0  0  0  0  0  0
   52.6970   29.5980   53.6830 C   0  0  0  0  0  0  0  0  0  0  0  0
   51.8520   30.5480   53.1060 C   0  0  0  0  0  0  0  0  0  0  0  0
   52.3020   31.3420   52.0390 C   0  0  0  0  0  0  0  0  0  0  0  0
   51.4050   32.3480   51.4280 C   0  0  0  0  0  0  0  0  0  0  0  0
   50.9140   33.2760   52.1240 O   0  0  0  0  0  0  0  0  0  0  0  0
   51.0880   32.2800   50.0750 O   0  0  0  0  0  0  0  0  0  0  0  0
   53.6130   31.1660   51.5600 C   0  0  0  0  0  0  0  0  0  0  0  0
   57.7750   32.0360   49.8370 C   0  0  0  0  0  0  0  0  0  0  0  0
   56.6470   31.5000   43.9980 C   0  0  0  0  0  0  0  0  0  0  0  0
   55.8890   30.3410   44.1870 C   0  0  0  0  0  0  0  0  0  0  0  0
   56.3090   29.3610   45.0910 C   0  0  0  0  0  0  0  0  0  0  0  0
   55.5450   28.2080   45.2360 O   0  0  0  0  0  0  0  0  0  0  0  0
   59.3050   28.0404   48.3756 H   0  0  0  0  0  0  0  0  0  0  0  0
   59.4821   29.7886   47.6391 H   0  0  0  0  0  0  0  0  0  0  0  0
   57.5104   27.5617   46.8423 H   0  0  0  0  0  0  0  0  0  0  0  0
   59.2717   30.7750   46.0608 H   0  0  0  0  0  0  0  0  0  0  0  0
   59.2769   32.9912   43.6467 H   0  0  0  0  0  0  0  0  0  0  0  0
   58.3171   34.9773   44.8697 H   0  0  0  0  0  0  0  0  0  0  0  0
   57.0740   32.8920   47.3900 H   0  0  0  0  0  0  0  0  0  0  0  0
   60.6715   32.4099   48.0545 H   0  0  0  0  0  0  0  0  0  0  0  0
   61.5692   31.1818   50.0303 H   0  0  0  0  0  0  0  0  0  0  0  0
   60.0458   30.5040   51.8839 H   0  0  0  0  0  0  0  0  0  0  0  0
   54.6623   28.6861   53.6701 H   0  0  0  0  0  0  0  0  0  0  0  0
   52.3349   28.9767   54.5154 H   0  0  0  0  0  0  0  0  0  0  0  0
   50.8288   30.6750   53.4892 H   0  0  0  0  0  0  0  0  0  0  0  0
   53.9715   31.7789   50.7198 H   0  0  0  0  0  0  0  0  0  0  0  0
   56.6997   32.2602   49.7787 H   0  0  0  0  0  0  0  0  0  0  0  0
   56.3069   32.2673   43.2869 H   0  0  0  0  0  0  0  0  0  0  0  0
   54.9565   30.1992   43.6211 H   0  0  0  0  0  0  0  0  0  0  0  0
  1  2  2  0
  2  3  1  0
  3  4  2  0
  4  5  1  0
  5  6  1  0
  6  7  2  3
  7  8  1  0
  8  9  2  0
  8 10  1  0
 10 11  1  0
 11 12  2  0
 12 13  1  0
 13 14  2  0
 14 15  1  0
 15 16  1  0
 16 17  2  0
 16 18  2  0
 16 19  1  0
 19 20  1  0
 20 21  2  0
 21 22  1  0
 22 23  2  0
 23 24  1  0
 24 25  1  0
 25 26  2  0
 25 27  1  0
 24 28  2  0
 15 29  2  0
  5 30  2  0
 30 31  1  0
 31 32  2  0
 32 33  1  0
 32  3  1  0
 29 11  1  0
 28 20  1  0
  1 34  1  0
  1 35  1  0
  2 36  1  0
  4 37  1  0
  6 38  1  0
  7 39  1  0
 10 40  1  0
 12 41  1  0
 13 42  1  0
 14 43  1  0
 21 44  1  0
 22 45  1  0
 23 46  1  0
 28 47  1  0
 29 48  1  0
 30 49  1  0
 31 50  1  0
M  CHG  3  19  -1  27  -1  33  -1
M  END
>  <UniqueID>  (56) 
54

>  <SMILES>  (56) 
C=Cc1cc(C=CC(=O)Nc2cccc(S(=O)(=O)[N-]c3cccc(C(=O)[O-])c3)c2)ccc1[O-]

>  <Energy>  (56) 
68.16037949134629

>  <Genealogy>  (56) 
C=Cc1cc(C=CC(=O)Nc2cccc(S(=O)(=O)[N-]c3cccc(C(=O)[O-])c3)c2)ccc1[O-] (protonated)
C=Cc1cc(C=CC(=O)Nc2cccc(S(=O)(=O)[N-]c3cccc(C(=O)[O-])c3)c2)ccc1[O-] (3D coordinates assigned)
C=Cc1cc(C=CC(=O)Nc2cccc(S(=O)(=O)[N-]c3cccc(C(=O)[O-])c3)c2)ccc1[O-] (optimized conformer: 68.16037949134629 kcal/mol)

>  <smiles>  (56) 
C=Cc1cc(C=CC(=O)Nc2cccc(S(=O)(=O)Nc3cccc(C(=O)O)c3)c2)ccc1O

>  <score_type>  (56) 
oracle

>  <origin>  (56) 
adg

>  <m_score__min__energy>  (56) 
-18.140000000000001

>  <m_primary>  (56) 
energy

$$$$
56:0
     RDKit          3D

 34 35  0  0  0  0  0  0  0  0999 V2000
   57.4440   32.3400   41.0060 C   0  0  0  0  0  0  0  0  0  0  0  0
   57.7790   31.9690   42.2300 C   0  0  0  0  0  0  0  0  0  0  0  0
   56.9310   30.8920   42.8660 C   0  0  0  0  0  0  0  0  0  0  0  0
   57.5170   30.6570   44.1680 N   0  0  0  0  0  0  0  0  0  0  0  0
   57.5820   31.4430   45.2340 C   0  0  0  0  0  0  0  0  0  0  0  0
   57.0250   33.1280   45.4130 S   0  0  0  0  0  0  0  0  0  0  0  0
   58.3560   34.1870   44.7210 C   0  0  0  0  0  0  0  0  0  0  0  0
   59.4590   34.2520   45.6980 C   0  0  0  0  0  0  0  0  0  0  0  0
   60.0020   35.3550   46.0020 O   0  0  0  0  0  0  0  0  0  0  0  0
   60.0060   33.1090   46.3750 N   0  0  0  0  0  0  0  0  0  0  0  0
   61.0820   33.4330   47.2740 C   0  0  0  0  0  0  0  0  0  0  0  0
   62.3610   33.3630   46.7760 C   0  0  0  0  0  0  0  0  0  0  0  0
   63.4850   33.6650   47.5210 C   0  0  0  0  0  0  0  0  0  0  0  0
   63.2890   34.0530   48.8330 C   0  0  0  0  0  0  0  0  0  0  0  0
   62.0050   34.1250   49.3460 C   0  0  0  0  0  0  0  0  0  0  0  0
   60.8810   33.8160   48.5740 C   0  0  0  0  0  0  0  0  0  0  0  0
   58.1920   30.7640   46.2040 N   0  0  0  0  0  0  0  0  0  0  0  0
   58.5210   29.5660   45.7850 N   0  0  0  0  0  0  0  0  0  0  0  0
   58.1050   29.4820   44.5130 C   0  0  0  0  0  0  0  0  0  0  0  0
   58.2480   28.4520   43.7660 O   0  0  0  0  0  0  0  0  0  0  0  0
   58.0232   33.1198   40.4897 H   0  0  0  0  0  0  0  0  0  0  0  0
   56.5861   31.8689   40.5039 H   0  0  0  0  0  0  0  0  0  0  0  0
   58.6313   32.4211   42.7583 H   0  0  0  0  0  0  0  0  0  0  0  0
   55.8902   31.2328   42.9687 H   0  0  0  0  0  0  0  0  0  0  0  0
   56.9098   29.9764   42.2568 H   0  0  0  0  0  0  0  0  0  0  0  0
   58.7211   33.7548   43.7776 H   0  0  0  0  0  0  0  0  0  0  0  0
   57.9686   35.1972   44.5227 H   0  0  0  0  0  0  0  0  0  0  0  0
   59.6470   32.1570   46.2110 H   0  0  0  0  0  0  0  0  0  0  0  0
   62.4970   33.0504   45.7302 H   0  0  0  0  0  0  0  0  0  0  0  0
   64.4940   33.5993   47.0878 H   0  0  0  0  0  0  0  0  0  0  0  0
   64.1512   34.3041   49.4682 H   0  0  0  0  0  0  0  0  0  0  0  0
   61.8650   34.4346   50.3922 H   0  0  0  0  0  0  0  0  0  0  0  0
   59.8675   33.8784   48.9969 H   0  0  0  0  0  0  0  0  0  0  0  0
   59.0090   28.8630   46.3750 H   0  0  0  0  0  0  0  0  0  0  0  0
  1  2  2  0
  2  3  1  0
  3  4  1  0
  4  5  1  0
  5  6  1  0
  6  7  1  0
  7  8  1  0
  8  9  2  0
  8 10  1  0
 10 11  1  0
 11 12  2  0
 12 13  1  0
 13 14  2  0
 14 15  1  0
 15 16  2  0
  5 17  2  0
 17 18  1  0
 18 19  1  0
 19 20  2  0
 19  4  1  0
 16 11  1  0
  1 21  1  0
  1 22  1  0
  2 23  1  0
  3 24  1  0
  3 25  1  0
  7 26  1  0
  7 27  1  0
 10 28  1  0
 12 29  1  0
 13 30  1  0
 14 31  1  0
 15 32  1  0
 16 33  1  0
 18 34  1  0
M  END
>  <smiles>  (57) 
C=CCn1c(SCC(=O)Nc2ccccc2)n[nH]c1=O

>  <score_type>  (57) 
oracle

>  <origin>  (57) 
adg

>  <m_score__min__energy>  (57) 
-7.1799999999999997

>  <m_primary>  (57) 
energy

$$$$
57:0
     RDKit          3D

 53 56  0  0  0  0  0  0  0  0999 V2000
   61.9712   34.4934   45.9247 H   0  0  0  0  0  0  0  0  0  0  0  0
   62.7730   33.8860   46.3700 C   0  0  0  0  0  0  0  0  0  0  0  0
   63.6318   33.5745   45.7573 H   0  0  0  0  0  0  0  0  0  0  0  0
   62.7030   33.5230   47.6680 C   0  0  0  0  0  0  0  0  0  0  0  0
   61.6050   33.8460   48.5270 C   0  0  0  0  0  0  0  0  0  0  0  0
   60.5240   34.5530   48.0810 C   0  0  0  0  0  0  0  0  0  0  0  0
   60.3102   35.5104   48.5787 H   0  0  0  0  0  0  0  0  0  0  0  0
   59.6160   34.1430   46.9870 C   0  0  0  0  0  0  0  0  0  0  0  0
   59.4120   34.9980   45.8950 C   0  0  0  0  0  0  0  0  0  0  0  0
   59.9171   35.9746   45.8610 H   0  0  0  0  0  0  0  0  0  0  0  0
   58.5690   34.6130   44.8500 C   0  0  0  0  0  0  0  0  0  0  0  0
   58.3921   35.2987   44.0083 H   0  0  0  0  0  0  0  0  0  0  0  0
   57.9500   33.3620   44.8690 C   0  0  0  0  0  0  0  0  0  0  0  0
   57.2716   33.0729   44.0528 H   0  0  0  0  0  0  0  0  0  0  0  0
   58.1920   32.4700   45.9300 C   0  0  0  0  0  0  0  0  0  0  0  0
   57.5850   31.2060   45.9930 O   0  0  0  0  0  0  0  0  0  0  0  0
   58.0730   30.0390   45.3890 C   0  0  0  0  0  0  0  0  0  0  0  0
   59.4460   29.7710   45.4560 C   0  0  0  0  0  0  0  0  0  0  0  0
   60.1148   30.4724   45.9763 H   0  0  0  0  0  0  0  0  0  0  0  0
   59.9730   28.6160   44.8650 C   0  0  0  0  0  0  0  0  0  0  0  0
   61.0508   28.4067   44.9317 H   0  0  0  0  0  0  0  0  0  0  0  0
   59.1300   27.7300   44.1910 C   0  0  0  0  0  0  0  0  0  0  0  0
   59.5418   26.8179   43.7345 H   0  0  0  0  0  0  0  0  0  0  0  0
   57.7630   28.0030   44.0970 C   0  0  0  0  0  0  0  0  0  0  0  0
   57.1012   27.3098   43.5570 H   0  0  0  0  0  0  0  0  0  0  0  0
   57.2330   29.1560   44.6880 C   0  0  0  0  0  0  0  0  0  0  0  0
   56.1576   29.3715   44.6038 H   0  0  0  0  0  0  0  0  0  0  0  0
   59.0220   32.8680   46.9840 C   0  0  0  0  0  0  0  0  0  0  0  0
   59.2118   32.1769   47.8185 H   0  0  0  0  0  0  0  0  0  0  0  0
   61.7040   33.4200   49.8840 C   0  0  0  0  0  0  0  0  0  0  0  0
   60.8580   33.8110   50.7380 O   0  0  0  0  0  0  0  0  0  0  0  0
   62.7370   32.6210   50.2980 N   0  0  0  0  0  0  0  0  0  0  0  0
   62.7360   32.0750   51.6750 C   0  0  0  0  0  0  0  0  0  0  0  0
   63.7628   32.0937   52.0690 H   0  0  0  0  0  0  0  0  0  0  0  0
   62.0711   32.6947   52.2946 H   0  0  0  0  0  0  0  0  0  0  0  0
   62.2160   30.6290   51.7000 C   0  0  0  0  0  0  0  0  0  0  0  0
   63.0333   29.9512   51.4124 H   0  0  0  0  0  0  0  0  0  0  0  0
   61.8617   30.4095   52.7180 H   0  0  0  0  0  0  0  0  0  0  0  0
   61.0640   30.4350   50.7500 C   0  0  0  0  0  0  0  0  0  0  0  0
   61.2660   29.8130   49.5070 C   0  0  0  0  0  0  0  0  0  0  0  0
   62.2630   29.4321   49.2406 H   0  0  0  0  0  0  0  0  0  0  0  0
   60.2050   29.6760   48.6070 C   0  0  0  0  0  0  0  0  0  0  0  0
   60.3672   29.1827   47.6373 H   0  0  0  0  0  0  0  0  0  0  0  0
   58.9390   30.1650   48.9380 C   0  0  0  0  0  0  0  0  0  0  0  0
   58.1055   30.0559   48.2286 H   0  0  0  0  0  0  0  0  0  0  0  0
   58.7300   30.7920   50.1680 C   0  0  0  0  0  0  0  0  0  0  0  0
   57.7326   31.1776   50.4260 H   0  0  0  0  0  0  0  0  0  0  0  0
   59.7880   30.9300   51.0720 C   0  0  0  0  0  0  0  0  0  0  0  0
   59.6213   31.4277   52.0387 H   0  0  0  0  0  0  0  0  0  0  0  0
   63.7420   32.2990   49.4300 C   0  0  0  0  0  0  0  0  0  0  0  0
   64.6980   31.5600   49.7960 O   0  0  0  0  0  0  0  0  0  0  0  0
   63.7290   32.7700   48.1600 N   0  0  0  0  0  0  0  0  0  0  0  0
   64.5320   32.5100   47.5410 H   0  0  0  0  0  0  0  0  0  0  0  0
  1  2  1  0
  2  3  1  0
  2  4  2  0
  4  5  1  0
  5  6  2  0
  6  7  1  0
  6  8  1  0
  8  9  2  0
  9 10  1  0
  9 11  1  0
 11 12  1  0
 11 13  2  0
 13 14  1  0
 13 15  1  0
 15 16  1  0
 16 17  1  0
 17 18  2  0
 18 19  1  0
 18 20  1  0
 20 21  1  0
 20 22  2  0
 22 23  1  0
 22 24  1  0
 24 25  1  0
 24 26  2  0
 26 27  1  0
 15 28  2  0
 28 29  1  0
  5 30  1  0
 30 31  2  0
 30 32  1  0
 32 33  1  0
 33 34  1  0
 33 35  1  0
 33 36  1  0
 36 37  1  0
 36 38  1  0
 36 39  1  0
 39 40  2  0
 40 41  1  0
 40 42  1  0
 42 43  1  0
 42 44  2  0
 44 45  1  0
 44 46  1  0
 46 47  1  0
 46 48  2  0
 48 49  1  0
 32 50  1  0
 50 51  2  0
 50 52  1  0
 52 53  1  0
 52  4  1  0
 28  8  1  0
 48 39  1  0
 26 17  1  0
M  END
>  <UniqueID>  (58) 
55

>  <SMILES>  (58) 
C=c1[nH]c(=O)n(CCc2ccccc2)c(=O)/c1=C\c1cccc(Oc2ccccc2)c1

>  <Energy>  (58) 
86.78965597420222

>  <Genealogy>  (58) 
C=c1[nH]c(=O)n(CCc2ccccc2)c(=O)/c1=C\c1cccc(Oc2ccccc2)c1 (cis-trans isomerization)
C=c1[nH]c(=O)n(CCc2ccccc2)c(=O)/c1=C\c1cccc(Oc2ccccc2)c1 (3D coordinates assigned)
C=c1[nH]c(=O)n(CCc2ccccc2)c(=O)/c1=C\c1cccc(Oc2ccccc2)c1 (optimized conformer: 86.78965597420222 kcal/mol)

>  <smiles>  (58) 
C=c1[nH]c(=O)n(CCc2ccccc2)c(=O)c1=Cc1cccc(Oc2ccccc2)c1

>  <score_type>  (58) 
oracle

>  <origin>  (58) 
adg

>  <m_score__min__energy>  (58) 
-9.8599999999999994

>  <m_primary>  (58) 
energy

$$$$
58:0
     RDKit          3D

 26 27  0  0  0  0  0  0  0  0999 V2000
   59.2170   24.4820   46.0000 C   0  0  0  0  0  0  0  0  0  0  0  0
   57.8030   24.7990   46.1970 N   0  0  0  0  0  0  0  0  0  0  0  0
   57.1280   25.8800   45.7560 C   0  0  0  0  0  0  0  0  0  0  0  0
   57.7050   26.9940   44.9720 C   0  0  0  0  0  0  0  0  0  0  0  0
   57.7980   26.8860   43.7200 O   0  0  0  0  0  0  0  0  0  0  0  0
   58.2120   28.1780   45.6010 N   0  0  0  0  0  0  0  0  0  0  0  0
   57.9000   29.5300   45.2340 C   0  0  0  0  0  0  0  0  0  0  0  0
   58.9260   30.4830   45.2600 C   0  0  0  0  0  0  0  0  0  0  0  0
   58.6660   31.8130   44.9170 C   0  0  0  0  0  0  0  0  0  0  0  0
   57.3820   32.1970   44.5270 C   0  0  0  0  0  0  0  0  0  0  0  0
   56.3570   31.2490   44.4650 C   0  0  0  0  0  0  0  0  0  0  0  0
   56.6110   29.9100   44.8000 C   0  0  0  0  0  0  0  0  0  0  0  0
   55.5950   28.9630   44.6770 O   0  0  0  0  0  0  0  0  0  0  0  0
   55.8260   25.7670   46.2050 C   0  0  0  0  0  0  0  0  0  0  0  0
   54.8100   26.6920   46.0010 O   0  0  0  0  0  0  0  0  0  0  0  0
   55.6650   24.6370   46.9180 N   0  0  0  0  0  0  0  0  0  0  0  0
   56.8940   24.0800   46.8910 C   0  0  0  0  0  0  0  0  0  0  0  0
   57.1610   22.9910   47.4660 O   0  0  0  0  0  0  0  0  0  0  0  0
   59.7078   24.3720   46.9782 H   0  0  0  0  0  0  0  0  0  0  0  0
   59.3069   23.5414   45.4368 H   0  0  0  0  0  0  0  0  0  0  0  0
   59.6998   25.2942   45.4368 H   0  0  0  0  0  0  0  0  0  0  0  0
   59.9431   30.1829   45.5522 H   0  0  0  0  0  0  0  0  0  0  0  0
   59.4745   32.5580   44.9545 H   0  0  0  0  0  0  0  0  0  0  0  0
   57.1768   33.2463   44.2683 H   0  0  0  0  0  0  0  0  0  0  0  0
   55.3473   31.5535   44.1524 H   0  0  0  0  0  0  0  0  0  0  0  0
   55.7970   27.9810   44.5240 H   0  0  0  0  0  0  0  0  0  0  0  0
  1  2  1  0
  2  3  1  0
  3  4  1  0
  4  5  2  0
  4  6  1  0
  6  7  1  0
  7  8  2  0
  8  9  1  0
  9 10  2  0
 10 11  1  0
 11 12  2  0
 12 13  1  0
  3 14  2  0
 14 15  1  0
 14 16  1  0
 16 17  1  0
 17 18  2  0
 17  2  1  0
 12  7  1  0
  1 19  1  0
  1 20  1  0
  1 21  1  0
  8 22  1  0
  9 23  1  0
 10 24  1  0
 11 25  1  0
 13 26  1  0
M  CHG  3   6  -1  15  -1  16  -1
M  END
>  <UniqueID>  (59) 
56

>  <SMILES>  (59) 
Cn1c(C(=O)[N-]c2ccccc2O)c([O-])[n-]c1=O

>  <Energy>  (59) 
66.52152981183747

>  <Genealogy>  (59) 
Cn1c(C(=O)[N-]c2ccccc2O)c([O-])[n-]c1=O (protonated)
Cn1c(C(=O)[N-]c2ccccc2O)c([O-])[n-]c1=O (3D coordinates assigned)
Cn1c(C(=O)[N-]c2ccccc2O)c([O-])[n-]c1=O (optimized conformer: 66.52152981183747 kcal/mol)

>  <smiles>  (59) 
Cn1c(C(=O)Nc2ccccc2O)c(O)[nH]c1=O

>  <score_type>  (59) 
oracle

>  <origin>  (59) 
adg

>  <m_score__min__energy>  (59) 
-13.789999999999999

>  <m_primary>  (59) 
energy

$$$$
59:0
     RDKit          3D

 70 74  0  0  0  0  0  0  0  0999 V2000
   56.9440   29.7110   51.7170 O   0  0  0  0  0  0  0  0  0  0  0  0
   56.1600   30.6960   51.8040 C   0  0  0  0  0  0  0  0  0  0  0  0
   56.6800   32.0320   51.6970 N   0  0  0  0  0  0  0  0  0  0  0  0
   57.9660   32.3460   51.1300 C   0  0  0  0  0  0  0  0  0  0  0  0
   58.1380   32.3820   49.7340 C   0  0  0  0  0  0  0  0  0  0  0  0
   59.3620   32.7750   49.1700 C   0  0  0  0  0  0  0  0  0  0  0  0
   59.5290   32.8140   47.7020 C   0  0  0  0  0  0  0  0  0  0  0  0
   59.8850   33.8900   47.1480 O   0  0  0  0  0  0  0  0  0  0  0  0
   59.2880   31.6480   46.8930 N   0  0  0  0  0  0  0  0  0  0  0  0
   59.8930   30.3560   47.2570 C   0  0  0  0  0  0  0  0  0  0  0  0
   58.9000   29.1910   47.0590 C   0  0  0  0  0  0  0  0  0  0  0  0
   57.8170   29.4860   45.9960 C   0  0  0  0  0  0  0  0  0  0  0  0
   57.2490   28.2180   45.4650 N   0  0  0  0  0  0  0  0  0  0  0  0
   57.8530   27.7880   44.1980 C   0  0  0  0  0  0  0  0  0  0  0  0
   57.7750   26.2660   44.1470 C   0  0  0  0  0  0  0  0  0  0  0  0
   57.1210   25.8460   45.4480 C   0  0  0  0  0  0  0  0  0  0  0  0
   57.2690   27.0520   46.3540 C   0  0  0  0  0  0  0  0  0  0  0  0
   58.3540   30.4620   44.9200 C   0  0  0  0  0  0  0  0  0  0  0  0
   58.6560   31.8170   45.5730 C   0  0  0  0  0  0  0  0  0  0  0  0
   60.4290   33.1170   50.0150 C   0  0  0  0  0  0  0  0  0  0  0  0
   60.2660   33.0950   51.4000 C   0  0  0  0  0  0  0  0  0  0  0  0
   59.0420   32.7160   51.9650 C   0  0  0  0  0  0  0  0  0  0  0  0
   58.8930   32.7300   53.3920 N   0  0  0  0  0  0  0  0  0  0  0  0
   59.2150   33.9650   54.1190 C   0  0  0  0  0  0  0  0  0  0  0  0
   58.8960   33.8550   55.6120 C   0  0  0  0  0  0  0  0  0  0  0  0
   59.2400   32.5770   56.1000 O   0  0  0  0  0  0  0  0  0  0  0  0
   58.3400   31.6300   55.5670 C   0  0  0  0  0  0  0  0  0  0  0  0
   58.5240   31.4690   54.0510 C   0  0  0  0  0  0  0  0  0  0  0  0
   54.7200   30.4640   52.0760 C   0  0  0  0  0  0  0  0  0  0  0  0
   54.2980   29.3380   52.8040 C   0  0  0  0  0  0  0  0  0  0  0  0
   52.9410   29.1250   53.0520 C   0  0  0  0  0  0  0  0  0  0  0  0
   51.9900   30.0320   52.5820 C   0  0  0  0  0  0  0  0  0  0  0  0
   52.3860   31.1710   51.8590 C   0  0  0  0  0  0  0  0  0  0  0  0
   51.4060   32.1090   51.3780 N   0  0  0  0  0  0  0  0  0  0  0  0
   50.6730   32.7270   52.1760 O   0  0  0  0  0  0  0  0  0  0  0  0
   51.2520   32.3330   50.0300 O   0  0  0  0  0  0  0  0  0  0  0  0
   53.7550   31.3810   51.6150 C   0  0  0  0  0  0  0  0  0  0  0  0
   56.1560   32.7930   52.1810 H   0  0  0  0  0  0  0  0  0  0  0  0
   57.3030   32.0987   49.0764 H   0  0  0  0  0  0  0  0  0  0  0  0
   60.7765   30.1841   46.6246 H   0  0  0  0  0  0  0  0  0  0  0  0
   60.1738   30.3935   48.3199 H   0  0  0  0  0  0  0  0  0  0  0  0
   59.4643   28.3005   46.7450 H   0  0  0  0  0  0  0  0  0  0  0  0
   58.3829   29.0366   48.0175 H   0  0  0  0  0  0  0  0  0  0  0  0
   56.9696   30.0121   46.4597 H   0  0  0  0  0  0  0  0  0  0  0  0
   57.2994   28.2211   43.3518 H   0  0  0  0  0  0  0  0  0  0  0  0
   58.8981   28.1250   44.1326 H   0  0  0  0  0  0  0  0  0  0  0  0
   57.1670   25.9415   43.2897 H   0  0  0  0  0  0  0  0  0  0  0  0
   58.7697   25.8119   44.0271 H   0  0  0  0  0  0  0  0  0  0  0  0
   56.0591   25.6066   45.2898 H   0  0  0  0  0  0  0  0  0  0  0  0
   57.5816   24.9430   45.8752 H   0  0  0  0  0  0  0  0  0  0  0  0
   56.4344   27.0999   47.0689 H   0  0  0  0  0  0  0  0  0  0  0  0
   58.1960   27.0062   46.9444 H   0  0  0  0  0  0  0  0  0  0  0  0
   59.2749   30.0528   44.4790 H   0  0  0  0  0  0  0  0  0  0  0  0
   57.5995   30.5926   44.1302 H   0  0  0  0  0  0  0  0  0  0  0  0
   59.3356   32.3852   44.9208 H   0  0  0  0  0  0  0  0  0  0  0  0
   57.7063   32.3549   45.7099 H   0  0  0  0  0  0  0  0  0  0  0  0
   61.3990   33.4039   49.5827 H   0  0  0  0  0  0  0  0  0  0  0  0
   61.1049   33.3774   52.0531 H   0  0  0  0  0  0  0  0  0  0  0  0
   60.2879   34.1768   54.0003 H   0  0  0  0  0  0  0  0  0  0  0  0
   58.5993   34.7746   53.7001 H   0  0  0  0  0  0  0  0  0  0  0  0
   59.4678   34.6176   56.1610 H   0  0  0  0  0  0  0  0  0  0  0  0
   57.8168   34.0113   55.7567 H   0  0  0  0  0  0  0  0  0  0  0  0
   58.5139   30.6587   56.0532 H   0  0  0  0  0  0  0  0  0  0  0  0
   57.3156   31.9842   55.7544 H   0  0  0  0  0  0  0  0  0  0  0  0
   59.3181   30.7300   53.8685 H   0  0  0  0  0  0  0  0  0  0  0  0
   57.5620   31.1410   53.6304 H   0  0  0  0  0  0  0  0  0  0  0  0
   55.0417   28.6203   53.1806 H   0  0  0  0  0  0  0  0  0  0  0  0
   52.6200   28.2393   53.6198 H   0  0  0  0  0  0  0  0  0  0  0  0
   50.9224   29.8544   52.7787 H   0  0  0  0  0  0  0  0  0  0  0  0
   54.0765   32.2728   51.0570 H   0  0  0  0  0  0  0  0  0  0  0  0
  1  2  2  0
  2  3  1  0
  3  4  1  0
  4  5  2  0
  5  6  1  0
  6  7  1  0
  7  8  2  0
  7  9  1  0
  9 10  1  0
 10 11  1  0
 11 12  1  0
 12 13  1  0
 13 14  1  0
 14 15  1  0
 15 16  1  0
 16 17  1  0
 12 18  1  0
 18 19  1  0
  6 20  2  0
 20 21  1  0
 21 22  2  0
 22 23  1  0
 23 24  1  0
 24 25  1  0
 25 26  1  0
 26 27  1  0
 27 28  1  0
  2 29  1  0
 29 30  2  0
 30 31  1  0
 31 32  2  0
 32 33  1  0
 33 34  1  0
 34 35  2  0
 34 36  1  0
 33 37  2  0
 22  4  1  0
 28 23  1  0
 37 29  1  0
 19  9  1  0
 17 13  1  0
  3 38  1  0
  5 39  1  0
 10 40  1  0
 10 41  1  0
 11 42  1  0
 11 43  1  0
 12 44  1  0
 14 45  1  0
 14 46  1  0
 15 47  1  0
 15 48  1  0
 16 49  1  0
 16 50  1  0
 17 51  1  0
 17 52  1  0
 18 53  1  0
 18 54  1  0
 19 55  1  0
 19 56  1  0
 20 57  1  0
 21 58  1  0
 24 59  1  0
 24 60  1  0
 25 61  1  0
 25 62  1  0
 27 63  1  0
 27 64  1  0
 28 65  1  0
 28 66  1  0
 30 67  1  0
 31 68  1  0
 32 69  1  0
 37 70  1  0
M  CHG  2  34   1  36  -1
M  END
>  <UniqueID>  (60) 
57

>  <SMILES>  (60) 
O=C(Nc1cc(C(=O)N2CCC(N3CCCC3)CC2)ccc1N1CCOCC1)c1cccc([N+](=O)[O-])c1

>  <Energy>  (60) 
103.4839500772111

>  <Genealogy>  (60) 
O=C(Nc1cc(C(=O)N2CCC(N3CCCC3)CC2)ccc1N1CCOCC1)c1cccc([N+](=O)[O-])c1 (3D coordinates assigned)
O=C(Nc1cc(C(=O)N2CCC(N3CCCC3)CC2)ccc1N1CCOCC1)c1cccc([N+](=O)[O-])c1 (nonaromatic ring conformer: 103.4839500772111 kcal/mol)

>  <smiles>  (60) 
O=C(Nc1cc(C(=O)N2CCC(N3CCCC3)CC2)ccc1N1CCOCC1)c1cccc([N+](=O)[O-])c1

>  <score_type>  (60) 
oracle

>  <origin>  (60) 
adg

>  <m_score__min__energy>  (60) 
-11.25

>  <m_primary>  (60) 
energy

$$$$
60:0
     RDKit          3D

 67 71  0  0  0  0  0  0  0  0999 V2000
   55.3630   29.3050   44.8750 N   0  0  0  0  0  0  0  0  0  0  0  0
   55.9980   29.7720   43.6800 C   0  0  0  0  0  0  0  0  0  0  0  0
   55.9480   29.0860   42.6210 O   0  0  0  0  0  0  0  0  0  0  0  0
   56.7950   31.0130   43.7160 C   0  0  0  0  0  0  0  0  0  0  0  0
   57.3030   31.5720   42.5350 C   0  0  0  0  0  0  0  0  0  0  0  0
   58.1480   32.6870   42.5850 C   0  0  0  0  0  0  0  0  0  0  0  0
   58.5330   33.2180   43.8150 C   0  0  0  0  0  0  0  0  0  0  0  0
   58.0480   32.6510   45.0010 C   0  0  0  0  0  0  0  0  0  0  0  0
   58.5590   33.0860   46.2590 N   0  0  0  0  0  0  0  0  0  0  0  0
   59.5820   34.1390   46.2340 C   0  0  0  0  0  0  0  0  0  0  0  0
   60.2060   34.3770   47.6050 C   0  0  0  0  0  0  0  0  0  0  0  0
   60.3700   33.1200   48.3640 N   0  0  0  0  0  0  0  0  0  0  0  0
   61.2700   32.1740   47.7140 C   0  0  0  0  0  0  0  0  0  0  0  0
   62.4640   32.1560   47.9920 O   0  0  0  0  0  0  0  0  0  0  0  0
   60.7790   31.1450   46.7160 C   0  0  0  0  0  0  0  0  0  0  0  0
   60.4040   29.9100   47.3980 N   0  0  0  0  0  0  0  0  0  0  0  0
   60.7980   29.5360   48.6380 C   0  0  0  0  0  0  0  0  0  0  0  0
   60.2290   28.3120   48.9760 C   0  0  0  0  0  0  0  0  0  0  0  0
   59.4550   27.9540   47.8940 C   0  0  0  0  0  0  0  0  0  0  0  0
   58.5990   26.8740   47.7160 C   0  0  0  0  0  0  0  0  0  0  0  0
   57.8130   26.8260   46.5350 C   0  0  0  0  0  0  0  0  0  0  0  0
   56.5430   25.5930   46.3800 S   0  0  0  0  0  0  0  0  0  0  0  0
   55.2810   26.2690   45.9330 O   0  0  0  0  0  0  0  0  0  0  0  0
   56.2870   24.9980   47.7340 O   0  0  0  0  0  0  0  0  0  0  0  0
   56.9090   24.2760   45.2920 N   0  0  0  0  0  0  0  0  0  0  0  0
   58.3490   23.9780   45.2230 C   0  0  0  0  0  0  0  0  0  0  0  0
   58.5510   22.5890   44.5720 C   0  0  0  0  0  0  0  0  0  0  0  0
   57.2900   22.0810   43.8610 C   0  0  0  0  0  0  0  0  0  0  0  0
   56.6030   23.2070   43.0710 C   0  0  0  0  0  0  0  0  0  0  0  0
   56.3410   24.4550   43.9460 C   0  0  0  0  0  0  0  0  0  0  0  0
   57.9230   27.8670   45.5810 C   0  0  0  0  0  0  0  0  0  0  0  0
   58.8210   28.9250   45.7790 C   0  0  0  0  0  0  0  0  0  0  0  0
   59.5780   28.9480   46.9540 C   0  0  0  0  0  0  0  0  0  0  0  0
   59.0520   32.5400   48.6900 C   0  0  0  0  0  0  0  0  0  0  0  0
   58.1300   32.3560   47.4620 C   0  0  0  0  0  0  0  0  0  0  0  0
   57.1480   31.5810   44.9500 C   0  0  0  0  0  0  0  0  0  0  0  0
   55.5390   28.3420   45.2390 H   0  0  0  0  0  0  0  0  0  0  0  0
   57.0360   31.1317   41.5630 H   0  0  0  0  0  0  0  0  0  0  0  0
   58.5087   33.1449   41.6521 H   0  0  0  0  0  0  0  0  0  0  0  0
   59.2156   34.0797   43.8544 H   0  0  0  0  0  0  0  0  0  0  0  0
   60.3753   33.8440   45.5314 H   0  0  0  0  0  0  0  0  0  0  0  0
   59.0933   35.0736   45.9215 H   0  0  0  0  0  0  0  0  0  0  0  0
   61.1938   34.8417   47.4698 H   0  0  0  0  0  0  0  0  0  0  0  0
   59.5324   35.0332   48.1757 H   0  0  0  0  0  0  0  0  0  0  0  0
   60.8010   33.3730   49.2910 H   0  0  0  0  0  0  0  0  0  0  0  0
   59.9031   31.5454   46.1845 H   0  0  0  0  0  0  0  0  0  0  0  0
   61.5878   30.9264   46.0032 H   0  0  0  0  0  0  0  0  0  0  0  0
   61.4715   30.1166   49.2856 H   0  0  0  0  0  0  0  0  0  0  0  0
   60.3680   27.7487   49.9106 H   0  0  0  0  0  0  0  0  0  0  0  0
   58.5322   26.0767   48.4709 H   0  0  0  0  0  0  0  0  0  0  0  0
   58.8547   24.7449   44.6179 H   0  0  0  0  0  0  0  0  0  0  0  0
   58.7748   23.9760   46.2373 H   0  0  0  0  0  0  0  0  0  0  0  0
   59.3657   22.6600   43.8363 H   0  0  0  0  0  0  0  0  0  0  0  0
   58.7902   21.8765   45.3752 H   0  0  0  0  0  0  0  0  0  0  0  0
   57.5701   21.2752   43.1666 H   0  0  0  0  0  0  0  0  0  0  0  0
   56.5870   21.7115   44.6221 H   0  0  0  0  0  0  0  0  0  0  0  0
   57.2488   23.4940   42.2280 H   0  0  0  0  0  0  0  0  0  0  0  0
   55.6315   22.8299   42.7189 H   0  0  0  0  0  0  0  0  0  0  0  0
   56.8055   25.3322   43.4719 H   0  0  0  0  0  0  0  0  0  0  0  0
   55.2545   24.6007   44.0374 H   0  0  0  0  0  0  0  0  0  0  0  0
   57.2979   27.8451   44.6762 H   0  0  0  0  0  0  0  0  0  0  0  0
   58.9277   29.7199   45.0261 H   0  0  0  0  0  0  0  0  0  0  0  0
   59.2115   31.5557   49.1545 H   0  0  0  0  0  0  0  0  0  0  0  0
   58.5488   33.2476   49.3653 H   0  0  0  0  0  0  0  0  0  0  0  0
   58.0935   31.2840   47.2180 H   0  0  0  0  0  0  0  0  0  0  0  0
   57.1498   32.7682   47.7437 H   0  0  0  0  0  0  0  0  0  0  0  0
   56.7156   31.1836   45.8801 H   0  0  0  0  0  0  0  0  0  0  0  0
  1  2  1  0
  2  3  2  0
  2  4  1  0
  4  5  2  0
  5  6  1  0
  6  7  2  0
  7  8  1  0
  8  9  1  0
  9 10  1  0
 10 11  1  0
 11 12  1  0
 12 13  1  0
 13 14  2  0
 13 15  1  0
 15 16  1  0
 16 17  1  0
 17 18  2  0
 18 19  1  0
 19 20  2  0
 20 21  1  0
 21 22  1  0
 22 23  2  0
 22 24  2  0
 22 25  1  0
 25 26  1  0
 26 27  1  0
 27 28  1  0
 28 29  1  0
 29 30  1  0
 21 31  2  0
 31 32  1  0
 32 33  2  0
 12 34  1  0
 34 35  1  0
  8 36  2  0
 36  4  1  0
 35  9  1  0
 33 16  1  0
 33 19  1  0
 30 25  1  0
  1 37  1  0
  5 38  1  0
  6 39  1  0
  7 40  1  0
 10 41  1  0
 10 42  1  0
 11 43  1  0
 11 44  1  0
 12 45  1  0
 15 46  1  0
 15 47  1  0
 17 48  1  0
 18 49  1  0
 20 50  1  0
 26 51  1  0
 26 52  1  0
 27 53  1  0
 27 54  1  0
 28 55  1  0
 28 56  1  0
 29 57  1  0
 29 58  1  0
 30 59  1  0
 30 60  1  0
 31 61  1  0
 32 62  1  0
 34 63  1  0
 34 64  1  0
 35 65  1  0
 35 66  1  0
 36 67  1  0
M  CHG  2   1  -1  12   1
M  END
>  <UniqueID>  (61) 
58

>  <SMILES>  (61) 
[NH-]C(=O)c1cccc(N2CC[NH+](C(=O)Cn3ccc4cc(S(=O)(=O)N5CCCCC5)ccc43)CC2)c1

>  <Energy>  (61) 
128.13033101993454

>  <Genealogy>  (61) 
[NH-]C(=O)c1cccc(N2CC[NH+](C(=O)Cn3ccc4cc(S(=O)(=O)N5CCCCC5)ccc43)CC2)c1 (protonated)
[NH-]C(=O)c1cccc(N2CC[NH+](C(=O)Cn3ccc4cc(S(=O)(=O)N5CCCCC5)ccc43)CC2)c1 (3D coordinates assigned)
[NH-]C(=O)c1cccc(N2CC[NH+](C(=O)Cn3ccc4cc(S(=O)(=O)N5CCCCC5)ccc43)CC2)c1 (nonaromatic ring conformer: 128.13033101993454 kcal/mol)

>  <smiles>  (61) 
NC(=O)c1cccc(N2CCN(C(=O)Cn3ccc4cc(S(=O)(=O)N5CCCCC5)ccc43)CC2)c1

>  <score_type>  (61) 
oracle

>  <origin>  (61) 
adg

>  <m_score__min__energy>  (61) 
-13.43

>  <m_primary>  (61) 
energy

$$$$
61:0
     RDKit          3D

 60 63  0  0  1  0  0  0  0  0999 V2000
   56.5470   30.4690   42.6470 C   0  0  0  0  0  0  0  0  0  0  0  0
   57.3350   31.0600   43.7490 C   0  0  0  0  0  0  0  0  0  0  0  0
   58.1120   32.1690   43.4820 C   0  0  0  0  0  0  0  0  0  0  0  0
   58.1410   32.7030   42.2020 O   0  0  0  0  0  0  0  0  0  0  0  0
   58.8220   32.6950   44.4940 N   0  0  0  0  0  0  0  0  0  0  0  0
   58.8220   32.2110   45.7430 C   0  0  0  0  0  0  0  0  0  0  0  0
   59.6270   32.8510   46.7750 C   0  0  0  0  0  0  0  0  0  0  0  0
   59.1200   33.6080   47.7890 C   0  0  0  0  0  0  0  0  0  0  0  0
   59.9350   34.2030   48.7630 C   0  0  0  0  0  0  0  0  0  0  0  0
   61.2990   34.0360   48.7230 C   0  0  0  0  0  0  0  0  0  0  0  0
   62.2550   34.5940   49.6800 C   0  0  0  0  0  0  0  0  0  0  0  0
   63.0640   33.6000   50.3340 N   0  0  0  0  0  0  0  0  0  0  0  0
   64.2280   33.0100   49.7860 C   0  0  0  0  0  0  0  0  0  0  0  0
   64.5830   33.3770   48.6380 O   0  0  0  0  0  0  0  0  0  0  0  0
   65.0270   32.0100   50.4780 C   0  0  0  0  0  0  0  0  0  0  0  0
   66.3980   32.0360   50.5430 C   0  0  0  0  0  0  0  0  0  0  0  0
   67.1430   31.0680   51.2070 C   0  0  0  0  0  0  0  0  0  0  0  0
   66.4970   30.0250   51.8380 C   0  0  0  0  0  0  0  0  0  0  0  0
   65.1200   29.9690   51.7920 C   0  0  0  0  0  0  0  0  0  0  0  0
   64.4020   30.9450   51.1220 C   0  0  0  0  0  0  0  0  0  0  0  0
   61.8220   33.2590   47.6830 C   0  0  0  0  0  0  0  0  0  0  0  0
   61.0120   32.6900   46.7470 C   0  0  0  0  0  0  0  0  0  0  0  0
   58.0630   31.1320   45.9960 N   0  0  0  0  0  0  0  0  0  0  0  0
   57.3260   30.5520   45.0290 C   0  0  0  0  0  0  0  0  0  0  0  0
   56.5900   29.5160   45.2410 N   0  0  0  0  0  0  0  0  0  0  0  0
   57.0090   28.2170   44.8230 C   0  0  0  0  0  0  0  0  0  0  0  0
   58.5270   28.2030   44.7330 C   0  0  0  0  0  0  0  0  0  0  0  0
   59.1510   27.8440   46.0210 C   0  0  0  0  0  0  0  0  0  0  0  0
   60.0210   26.7810   46.0910 C   0  0  0  0  0  0  0  0  0  0  0  0
   60.6470   26.3770   47.2480 C   0  0  0  0  0  0  0  0  0  0  0  0
   60.4030   27.0650   48.4220 C   0  0  0  0  0  0  0  0  0  0  0  0
   61.0290   26.6640   49.5890 O   0  0  0  0  0  0  0  0  0  0  0  0
   59.5220   28.1510   48.3850 C   0  0  0  0  0  0  0  0  0  0  0  0
   58.9080   28.5300   47.1930 C   0  0  0  0  0  0  0  0  0  0  0  0
   55.7329   29.8584   43.0648 H   0  0  0  0  0  0  0  0  0  0  0  0
   56.1219   31.2729   42.0281 H   0  0  0  0  0  0  0  0  0  0  0  0
   57.1997   29.8358   42.0281 H   0  0  0  0  0  0  0  0  0  0  0  0
   58.6420   32.2320   41.4460 H   0  0  0  0  0  0  0  0  0  0  0  0
   58.0317   33.7577   47.8454 H   0  0  0  0  0  0  0  0  0  0  0  0
   59.4807   34.8062   49.5628 H   0  0  0  0  0  0  0  0  0  0  0  0
   62.9208   35.2856   49.1430 H   0  0  0  0  0  0  0  0  0  0  0  0
   61.6697   35.0988   50.4627 H   0  0  0  0  0  0  0  0  0  0  0  0
   62.7860   33.2710   51.2990 H   0  0  0  0  0  0  0  0  0  0  0  0
   66.9315   32.8603   50.0471 H   0  0  0  0  0  0  0  0  0  0  0  0
   68.2408   31.1333   51.2291 H   0  0  0  0  0  0  0  0  0  0  0  0
   67.0708   29.2511   52.3689 H   0  0  0  0  0  0  0  0  0  0  0  0
   64.5891   29.1445   52.2903 H   0  0  0  0  0  0  0  0  0  0  0  0
   63.3044   30.8772   51.0976 H   0  0  0  0  0  0  0  0  0  0  0  0
   62.9093   33.1046   47.6201 H   0  0  0  0  0  0  0  0  0  0  0  0
   61.4634   32.0861   45.9460 H   0  0  0  0  0  0  0  0  0  0  0  0
   58.0190   30.7130   46.9340 H   0  0  0  0  0  0  0  0  0  0  0  0
   56.6741   27.4664   45.5541 H   0  0  0  0  0  0  0  0  0  0  0  0
   56.5720   27.9785   43.8421 H   0  0  0  0  0  0  0  0  0  0  0  0
   58.8315   27.4682   43.9732 H   0  0  0  0  0  0  0  0  0  0  0  0
   58.8619   29.2152   44.4622 H   0  0  0  0  0  0  0  0  0  0  0  0
   60.2287   26.2206   45.1675 H   0  0  0  0  0  0  0  0  0  0  0  0
   61.3331   25.5172   47.2388 H   0  0  0  0  0  0  0  0  0  0  0  0
   60.7270   27.0870   50.4590 H   0  0  0  0  0  0  0  0  0  0  0  0
   59.3116   28.7121   49.3074 H   0  0  0  0  0  0  0  0  0  0  0  0
   58.2199   29.3882   47.1864 H   0  0  0  0  0  0  0  0  0  0  0  0
  1  2  1  0
  2  3  2  0
  3  4  1  0
  3  5  1  0
  5  6  2  0
  6  7  1  0
  7  8  2  0
  8  9  1  0
  9 10  2  0
 10 11  1  0
 11 12  1  0
 12 13  1  0
 13 14  2  0
 13 15  1  0
 15 16  2  0
 16 17  1  0
 17 18  2  0
 18 19  1  0
 19 20  2  0
 10 21  1  0
 21 22  2  0
  6 23  1  0
 23 24  1  0
 24 25  2  0
 25 26  1  0
 26 27  1  0
 27 28  1  0
 28 29  2  0
 29 30  1  0
 30 31  2  0
 31 32  1  0
 31 33  1  0
 33 34  2  0
 24  2  1  0
 34 28  1  0
 22  7  1  0
 20 15  1  0
  1 35  1  0
  1 36  1  0
  1 37  1  0
  4 38  1  0
  8 39  1  0
  9 40  1  0
 11 41  1  0
 11 42  1  0
 12 43  1  0
 16 44  1  0
 17 45  1  0
 18 46  1  0
 19 47  1  0
 20 48  1  0
 21 49  1  0
 22 50  1  0
 23 51  1  0
 26 52  1  0
 26 53  1  0
 27 54  1  0
 27 55  1  0
 29 56  1  0
 30 57  1  0
 32 58  1  0
 33 59  1  0
 34 60  1  0
M  END
>  <smiles>  (62) 
Cc1c(O)nc(-c2ccc(CNC(=O)c3ccccc3)cc2)[nH]c1=NCCc1ccc(O)cc1

>  <score_type>  (62) 
oracle

>  <origin>  (62) 
adg

>  <m_score__min__energy>  (62) 
-9.0899999999999999

>  <m_primary>  (62) 
energy

$$$$
62:0
     RDKit          3D

 31 33  0  0  0  0  0  0  0  0999 V2000
   55.5260   21.1140   44.7380 N   0  0  0  0  0  0  0  0  0  0  0  0
   56.3920   22.1960   43.7070 S   0  0  0  0  0  0  0  0  0  0  0  0
   57.5390   21.4650   43.0680 O   0  0  0  0  0  0  0  0  0  0  0  0
   55.4790   22.6990   42.6240 O   0  0  0  0  0  0  0  0  0  0  0  0
   56.9980   23.5520   44.6530 C   0  0  0  0  0  0  0  0  0  0  0  0
   57.5880   24.6490   44.0110 C   0  0  0  0  0  0  0  0  0  0  0  0
   58.0560   25.7330   44.7590 C   0  0  0  0  0  0  0  0  0  0  0  0
   57.9120   25.7440   46.1560 C   0  0  0  0  0  0  0  0  0  0  0  0
   58.4460   26.8550   46.9620 C   0  0  0  0  0  0  0  0  0  0  0  0
   58.4230   28.1480   46.6010 C   0  0  0  0  0  0  0  0  0  0  0  0
   59.4740   29.1150   46.9190 C   0  0  0  0  0  0  0  0  0  0  0  0
   60.4380   28.9020   47.7020 O   0  0  0  0  0  0  0  0  0  0  0  0
   59.3160   30.3330   46.2000 N   0  0  0  0  0  0  0  0  0  0  0  0
   58.1100   30.1320   45.4670 C   0  0  0  0  0  0  0  0  0  0  0  0
   57.4840   31.0950   44.6720 C   0  0  0  0  0  0  0  0  0  0  0  0
   58.2330   32.6560   44.3840 Cl  0  0  0  0  0  0  0  0  0  0  0  0
   56.2280   30.7990   44.1240 C   0  0  0  0  0  0  0  0  0  0  0  0
   55.5950   29.5780   44.4170 C   0  0  0  0  0  0  0  0  0  0  0  0
   56.2230   28.6290   45.2400 C   0  0  0  0  0  0  0  0  0  0  0  0
   55.5220   27.4960   45.6280 O   0  0  0  0  0  0  0  0  0  0  0  0
   57.5280   28.8910   45.6950 C   0  0  0  0  0  0  0  0  0  0  0  0
   57.3460   24.6330   46.7980 C   0  0  0  0  0  0  0  0  0  0  0  0
   56.8780   23.5490   46.0490 C   0  0  0  0  0  0  0  0  0  0  0  0
   54.5600   21.4990   44.8420 H   0  0  0  0  0  0  0  0  0  0  0  0
   57.6831   24.6570   42.9151 H   0  0  0  0  0  0  0  0  0  0  0  0
   58.5391   26.5810   44.2514 H   0  0  0  0  0  0  0  0  0  0  0  0
   58.8980   26.6066   47.9336 H   0  0  0  0  0  0  0  0  0  0  0  0
   55.7351   31.5257   43.4614 H   0  0  0  0  0  0  0  0  0  0  0  0
   54.6004   29.3646   43.9984 H   0  0  0  0  0  0  0  0  0  0  0  0
   57.2699   24.6143   47.8952 H   0  0  0  0  0  0  0  0  0  0  0  0
   56.4140   22.6910   46.5574 H   0  0  0  0  0  0  0  0  0  0  0  0
  1  2  1  0
  2  3  2  0
  2  4  2  0
  2  5  1  0
  5  6  2  0
  6  7  1  0
  7  8  2  0
  8  9  1  0
  9 10  2  3
 10 11  1  0
 11 12  2  0
 11 13  1  0
 13 14  1  0
 14 15  2  0
 15 16  1  0
 15 17  1  0
 17 18  2  0
 18 19  1  0
 19 20  1  0
 19 21  2  0
  8 22  1  0
 22 23  2  0
 23  5  1  0
 21 10  1  0
 21 14  1  0
  1 24  1  0
  6 25  1  0
  7 26  1  0
  9 27  1  0
 17 28  1  0
 18 29  1  0
 22 30  1  0
 23 31  1  0
M  CHG  3   1  -1  13  -1  20  -1
M  END
>  <UniqueID>  (63) 
59

>  <SMILES>  (63) 
[NH-]S(=O)(=O)c1ccc(C=C2C(=O)[N-]c3c(Cl)ccc([O-])c32)cc1

>  <Energy>  (63) 
74.18108727307359

>  <Genealogy>  (63) 
[NH-]S(=O)(=O)c1ccc(C=C2C(=O)[N-]c3c(Cl)ccc([O-])c32)cc1 (protonated)
[NH-]S(=O)(=O)c1ccc(C=C2C(=O)[N-]c3c(Cl)ccc([O-])c32)cc1 (3D coordinates assigned)
[NH-]S(=O)(=O)c1ccc(C=C2C(=O)[N-]c3c(Cl)ccc([O-])c32)cc1 (nonaromatic ring conformer: 74.18108727307359 kcal/mol)

>  <smiles>  (63) 
NS(=O)(=O)c1ccc(C=C2C(=O)Nc3c(Cl)ccc(O)c32)cc1

>  <score_type>  (63) 
oracle

>  <origin>  (63) 
adg

>  <m_score__min__energy>  (63) 
-13.27

>  <m_primary>  (63) 
energy

$$$$
63:0
     RDKit          3D

 63 67  0  0  0  0  0  0  0  0999 V2000
   57.1934   20.9462   42.0277 H   0  0  0  0  0  0  0  0  0  0  0  0
   57.0870   21.4720   42.9880 C   0  0  0  0  0  0  0  0  0  0  0  0
   55.9190   22.0960   43.2950 N   0  0  0  0  0  0  0  0  0  0  0  0
   55.7530   22.7630   44.4690 C   0  0  0  0  0  0  0  0  0  0  0  0
   54.7955   23.2587   44.6870 H   0  0  0  0  0  0  0  0  0  0  0  0
   56.7990   22.8210   45.4030 C   0  0  0  0  0  0  0  0  0  0  0  0
   56.6260   23.5100   46.6950 C   0  0  0  0  0  0  0  0  0  0  0  0
   57.0240   22.9450   47.7500 O   0  0  0  0  0  0  0  0  0  0  0  0
   56.0110   24.8000   46.7930 N   0  0  0  0  0  0  0  0  0  0  0  0
   56.6170   26.0590   46.3580 C   0  0  1  0  0  0  0  0  0  0  0  0
   55.8598   26.8569   46.3484 H   0  0  0  0  0  0  0  0  0  0  0  0
   57.7360   26.4560   47.3520 C   0  0  0  0  0  0  0  0  0  0  0  0
   58.0662   25.5505   47.8822 H   0  0  0  0  0  0  0  0  0  0  0  0
   57.3092   27.2093   48.0306 H   0  0  0  0  0  0  0  0  0  0  0  0
   58.9640   27.1010   46.6810 C   0  0  0  0  0  0  0  0  0  0  0  0
   59.6251   26.3030   46.3121 H   0  0  0  0  0  0  0  0  0  0  0  0
   59.4681   27.7258   47.4330 H   0  0  0  0  0  0  0  0  0  0  0  0
   58.5760   28.0100   45.4970 C   0  0  2  0  0  0  0  0  0  0  0  0
   59.5104   28.3715   45.0429 H   0  0  0  0  0  0  0  0  0  0  0  0
   57.7850   29.1580   45.9620 N   0  0  0  0  0  0  0  0  0  0  0  0
   58.1000   30.4220   45.8940 C   0  0  0  0  0  0  0  0  0  0  0  0
   57.3700   31.2260   45.0760 N   0  0  0  0  0  0  0  0  0  0  0  0
   57.6320   32.5510   44.9370 C   0  0  0  0  0  0  0  0  0  0  0  0
   57.0176   33.1611   44.2586 H   0  0  0  0  0  0  0  0  0  0  0  0
   58.6770   33.1450   45.6500 C   0  0  0  0  0  0  0  0  0  0  0  0
   58.9380   34.8790   45.4780 Cl  0  0  0  0  0  0  0  0  0  0  0  0
   59.4520   32.3510   46.5190 C   0  0  0  0  0  0  0  0  0  0  0  0
   60.5450   32.9280   47.3320 C   0  0  0  0  0  0  0  0  0  0  0  0
   60.3670   33.1310   48.6680 N   0  0  0  0  0  0  0  0  0  0  0  0
   61.3440   33.6620   49.4570 C   0  0  0  0  0  0  0  0  0  0  0  0
   61.1460   33.8520   50.7270 N   0  0  0  0  0  0  0  0  0  0  0  0
   60.9790   32.7810   51.7050 C   0  0  0  0  0  0  0  0  0  0  0  0
   61.9504   32.5474   52.1652 H   0  0  0  0  0  0  0  0  0  0  0  0
   60.2752   33.0999   52.4879 H   0  0  0  0  0  0  0  0  0  0  0  0
   60.4450   31.5610   51.0100 C   0  0  0  0  0  0  0  0  0  0  0  0
   61.3310   30.6260   50.4450 C   0  0  0  0  0  0  0  0  0  0  0  0
   62.4167   30.7662   50.5532 H   0  0  0  0  0  0  0  0  0  0  0  0
   60.8390   29.5200   49.7470 C   0  0  0  0  0  0  0  0  0  0  0  0
   61.5373   28.7870   49.3167 H   0  0  0  0  0  0  0  0  0  0  0  0
   59.4630   29.3440   49.5950 C   0  0  0  0  0  0  0  0  0  0  0  0
   59.0773   28.4726   49.0455 H   0  0  0  0  0  0  0  0  0  0  0  0
   58.5750   30.2750   50.1410 C   0  0  0  0  0  0  0  0  0  0  0  0
   57.4909   30.1354   50.0176 H   0  0  0  0  0  0  0  0  0  0  0  0
   59.0590   31.3840   50.8440 C   0  0  0  0  0  0  0  0  0  0  0  0
   58.1810   32.2860   51.3500 F   0  0  0  0  0  0  0  0  0  0  0  0
   62.5750   34.0130   48.8920 C   0  0  0  0  0  0  0  0  0  0  0  0
   63.3692   34.4455   49.5182 H   0  0  0  0  0  0  0  0  0  0  0  0
   62.7870   33.8100   47.5280 C   0  0  0  0  0  0  0  0  0  0  0  0
   63.7548   34.0724   47.0758 H   0  0  0  0  0  0  0  0  0  0  0  0
   61.7700   33.2740   46.7390 C   0  0  0  0  0  0  0  0  0  0  0  0
   61.9260   33.1234   45.6606 H   0  0  0  0  0  0  0  0  0  0  0  0
   59.1680   30.9800   46.6250 C   0  0  0  0  0  0  0  0  0  0  0  0
   59.7795   30.3410   47.2790 H   0  0  0  0  0  0  0  0  0  0  0  0
   57.7760   27.2310   44.4200 C   0  0  0  0  0  0  0  0  0  0  0  0
   58.4550   26.9977   43.5866 H   0  0  0  0  0  0  0  0  0  0  0  0
   56.9388   27.8771   44.1173 H   0  0  0  0  0  0  0  0  0  0  0  0
   57.1610   25.9150   44.9250 C   0  0  0  0  0  0  0  0  0  0  0  0
   57.9334   25.1319   44.9130 H   0  0  0  0  0  0  0  0  0  0  0  0
   56.3234   25.6495   44.2632 H   0  0  0  0  0  0  0  0  0  0  0  0
   58.0040   22.1680   45.1070 C   0  0  0  0  0  0  0  0  0  0  0  0
   58.8314   22.1835   45.8317 H   0  0  0  0  0  0  0  0  0  0  0  0
   58.1520   21.4980   43.8910 C   0  0  0  0  0  0  0  0  0  0  0  0
   59.0992   20.9950   43.6464 H   0  0  0  0  0  0  0  0  0  0  0  0
  1  2  1  0
  2  3  2  0
  3  4  1  0
  4  5  1  0
  4  6  2  0
  6  7  1  0
  7  8  2  0
  7  9  1  0
  9 10  1  0
 10 11  1  6
 10 12  1  0
 12 13  1  0
 12 14  1  0
 12 15  1  0
 15 16  1  0
 15 17  1  0
 15 18  1  0
 18 19  1  6
 18 20  1  0
 20 21  2  0
 21 22  1  0
 22 23  1  0
 23 24  1  0
 23 25  2  0
 25 26  1  0
 25 27  1  0
 27 28  1  0
 28 29  1  0
 29 30  1  0
 30 31  2  0
 31 32  1  0
 32 33  1  0
 32 34  1  0
 32 35  1  0
 35 36  2  0
 36 37  1  0
 36 38  1  0
 38 39  1  0
 38 40  2  0
 40 41  1  0
 40 42  1  0
 42 43  1  0
 42 44  2  0
 44 45  1  0
 30 46  1  0
 46 47  1  0
 46 48  2  0
 48 49  1  0
 48 50  1  0
 50 51  1  0
 27 52  2  0
 52 53  1  0
 18 54  1  0
 54 55  1  0
 54 56  1  0
 54 57  1  0
 57 58  1  0
 57 59  1  0
  6 60  1  0
 60 61  1  0
 60 62  2  0
 62 63  1  0
 62  2  1  0
 57 10  1  0
 52 21  1  0
 50 28  2  0
 44 35  1  0
M  CHG  3   9  -1  22  -1  29  -1
M  END
>  <UniqueID>  (64) 
60

>  <SMILES>  (64) 
O=C([N-]C1CCC(/N=c2\cc(-c3ccc/c(=N/Cc4ccccc4F)[n-]3)c(Cl)c[n-]2)CC1)c1cccnc1

>  <Energy>  (64) 
86.41106115025369

>  <Genealogy>  (64) 
O=C([N-]C1CCC(N=c2cc(-c3cccc(=NCc4ccccc4F)[n-]3)c(Cl)c[n-]2)CC1)c1cccnc1 (protonated)
O=C([N-]C1CCC(/N=c2\cc(-c3ccc/c(=N/Cc4ccccc4F)[n-]3)c(Cl)c[n-]2)CC1)c1cccnc1 (cis-trans isomerization)
O=C([N-]C1CCC(/N=c2\cc(-c3ccc/c(=N/Cc4ccccc4F)[n-]3)c(Cl)c[n-]2)CC1)c1cccnc1 (3D coordinates assigned)
O=C([N-]C1CCC(/N=c2\cc(-c3ccc/c(=N/Cc4ccccc4F)[n-]3)c(Cl)c[n-]2)CC1)c1cccnc1 (nonaromatic ring conformer: 86.41106115025369 kcal/mol)

>  <smiles>  (64) 
O=C(NC1CCC(N=c2cc(-c3cccc(=NCc4ccccc4F)[nH]3)c(Cl)c[nH]2)CC1)c1cccnc1

>  <score_type>  (64) 
oracle

>  <origin>  (64) 
adg

>  <m_score__min__energy>  (64) 
-14.77

>  <m_primary>  (64) 
energy

$$$$
64:0
     RDKit          3D

 38 40  0  0  0  0  0  0  0  0999 V2000
   64.3590   33.2240   48.0430 N   0  0  0  0  0  0  0  0  0  0  0  0
   63.2780   32.3390   48.3260 C   0  0  0  0  0  0  0  0  0  0  0  0
   63.4020   31.4690   49.2300 O   0  0  0  0  0  0  0  0  0  0  0  0
   61.9870   32.4630   47.5620 C   0  0  0  0  0  0  0  0  0  0  0  0
   61.9320   33.7980   46.7760 C   0  0  0  0  0  0  0  0  0  0  0  0
   60.5120   34.3800   46.6430 C   0  0  0  0  0  0  0  0  0  0  0  0
   59.5030   33.3140   46.6180 N   0  0  0  0  0  0  0  0  0  0  0  0
   58.3770   33.4290   45.7340 C   0  0  0  0  0  0  0  0  0  0  0  0
   57.7660   34.5300   45.6510 O   0  0  0  0  0  0  0  0  0  0  0  0
   57.9370   32.2830   44.9060 C   0  0  0  0  0  0  0  0  0  0  0  0
   57.7620   32.4340   43.5210 C   0  0  0  0  0  0  0  0  0  0  0  0
   57.3580   31.3510   42.7400 C   0  0  0  0  0  0  0  0  0  0  0  0
   57.1290   30.1050   43.3290 C   0  0  0  0  0  0  0  0  0  0  0  0
   57.3090   29.9250   44.7120 C   0  0  0  0  0  0  0  0  0  0  0  0
   57.0670   28.5940   45.3220 C   0  0  0  0  0  0  0  0  0  0  0  0
   57.9650   27.8260   46.0410 C   0  0  0  0  0  0  0  0  0  0  0  0
   57.3630   26.6890   46.4310 N   0  0  0  0  0  0  0  0  0  0  0  0
   56.1160   26.8060   45.9350 C   0  0  0  0  0  0  0  0  0  0  0  0
   55.2350   25.9210   46.0950 O   0  0  0  0  0  0  0  0  0  0  0  0
   55.8880   27.9460   45.2560 N   0  0  0  0  0  0  0  0  0  0  0  0
   57.7230   31.0230   45.4910 C   0  0  0  0  0  0  0  0  0  0  0  0
   59.4830   32.2900   47.6750 C   0  0  0  0  0  0  0  0  0  0  0  0
   60.7770   32.3030   48.4970 C   0  0  0  0  0  0  0  0  0  0  0  0
   64.9600   33.0840   47.2000 H   0  0  0  0  0  0  0  0  0  0  0  0
   61.9444   31.6468   46.8258 H   0  0  0  0  0  0  0  0  0  0  0  0
   62.5616   34.5341   47.2972 H   0  0  0  0  0  0  0  0  0  0  0  0
   62.2895   33.5864   45.7575 H   0  0  0  0  0  0  0  0  0  0  0  0
   60.3137   35.0421   47.4988 H   0  0  0  0  0  0  0  0  0  0  0  0
   60.4515   34.9399   45.6981 H   0  0  0  0  0  0  0  0  0  0  0  0
   57.9444   33.4110   43.0496 H   0  0  0  0  0  0  0  0  0  0  0  0
   57.2192   31.4786   41.6563 H   0  0  0  0  0  0  0  0  0  0  0  0
   56.8054   29.2581   42.7060 H   0  0  0  0  0  0  0  0  0  0  0  0
   59.0072   28.1020   46.2592 H   0  0  0  0  0  0  0  0  0  0  0  0
   57.8810   30.8927   46.5718 H   0  0  0  0  0  0  0  0  0  0  0  0
   58.6325   32.4848   48.3448 H   0  0  0  0  0  0  0  0  0  0  0  0
   59.3885   31.3037   47.1972 H   0  0  0  0  0  0  0  0  0  0  0  0
   60.7503   33.1431   49.2066 H   0  0  0  0  0  0  0  0  0  0  0  0
   60.8667   31.3550   49.0477 H   0  0  0  0  0  0  0  0  0  0  0  0
  1  2  1  0
  2  3  2  0
  2  4  1  0
  4  5  1  0
  5  6  1  0
  6  7  1  0
  7  8  1  0
  8  9  2  0
  8 10  1  0
 10 11  2  0
 11 12  1  0
 12 13  2  0
 13 14  1  0
 14 15  1  0
 15 16  2  0
 16 17  1  0
 17 18  1  0
 18 19  2  0
 18 20  1  0
 14 21  2  0
  7 22  1  0
 22 23  1  0
 23  4  1  0
 21 10  1  0
 20 15  1  0
  1 24  1  0
  4 25  1  0
  5 26  1  0
  5 27  1  0
  6 28  1  0
  6 29  1  0
 11 30  1  0
 12 31  1  0
 13 32  1  0
 16 33  1  0
 21 34  1  0
 22 35  1  0
 22 36  1  0
 23 37  1  0
 23 38  1  0
M  CHG  3   1  -1  17  -1  20  -1
M  END
>  <UniqueID>  (65) 
61

>  <SMILES>  (65) 
[NH-]C(=O)C1CCN(C(=O)c2cccc(-c3c[n-]c(=O)[n-]3)c2)CC1

>  <Energy>  (65) 
74.8040377755798

>  <Genealogy>  (65) 
[NH-]C(=O)C1CCN(C(=O)c2cccc(-c3c[n-]c(=O)[n-]3)c2)CC1 (protonated)
[NH-]C(=O)C1CCN(C(=O)c2cccc(-c3c[n-]c(=O)[n-]3)c2)CC1 (3D coordinates assigned)
[NH-]C(=O)C1CCN(C(=O)c2cccc(-c3c[n-]c(=O)[n-]3)c2)CC1 (nonaromatic ring conformer: 74.8040377755798 kcal/mol)

>  <smiles>  (65) 
NC(=O)C1CCN(C(=O)c2cccc(-c3c[nH]c(=O)[nH]3)c2)CC1

>  <score_type>  (65) 
oracle

>  <origin>  (65) 
adg

>  <m_score__min__energy>  (65) 
-12.859999999999999

>  <m_primary>  (65) 
energy

$$$$
65:0
     RDKit          3D

 53 57  0  0  0  0  0  0  0  0999 V2000
   63.8790   29.7980   52.2130 O   0  0  0  0  0  0  0  0  0  0  0  0
   64.4730   30.4930   51.3430 C   0  0  0  0  0  0  0  0  0  0  0  0
   65.9070   30.4420   51.2520 N   0  0  0  0  0  0  0  0  0  0  0  0
   66.7220   29.6750   52.1930 C   0  0  0  0  0  0  0  0  0  0  0  0
   67.2070   28.4070   51.5460 C   0  0  0  0  0  0  0  0  0  0  0  0
   67.0410   27.1760   52.2030 C   0  0  0  0  0  0  0  0  0  0  0  0
   67.5090   25.9960   51.6160 C   0  0  0  0  0  0  0  0  0  0  0  0
   68.1470   26.0370   50.3720 C   0  0  0  0  0  0  0  0  0  0  0  0
   68.3200   27.2590   49.7160 C   0  0  0  0  0  0  0  0  0  0  0  0
   67.8540   28.4400   50.2990 C   0  0  0  0  0  0  0  0  0  0  0  0
   63.6750   31.3350   50.4200 C   0  0  0  0  0  0  0  0  0  0  0  0
   64.2710   31.9640   49.3010 C   0  0  0  0  0  0  0  0  0  0  0  0
   63.5040   32.7580   48.4330 C   0  0  0  0  0  0  0  0  0  0  0  0
   62.1410   32.9210   48.7010 C   0  0  0  0  0  0  0  0  0  0  0  0
   61.5630   32.3340   49.7940 C   0  0  0  0  0  0  0  0  0  0  0  0
   62.3000   31.5350   50.6680 C   0  0  0  0  0  0  0  0  0  0  0  0
   60.1080   32.6440   49.8520 C   0  0  0  0  0  0  0  0  0  0  0  0
   59.9130   33.6500   48.6830 C   0  0  2  0  0  0  0  0  0  0  0  0
   58.7950   33.2890   47.7380 C   0  0  0  0  0  0  0  0  0  0  0  0
   57.7750   32.6840   48.1700 O   0  0  0  0  0  0  0  0  0  0  0  0
   58.8750   33.6840   46.3510 N   0  0  0  0  0  0  0  0  0  0  0  0
   57.7710   33.4570   45.4580 C   0  0  0  0  0  0  0  0  0  0  0  0
   56.9700   34.4010   45.2190 O   0  0  0  0  0  0  0  0  0  0  0  0
   57.5420   32.1250   44.8580 C   0  0  0  0  0  0  0  0  0  0  0  0
   57.4100   31.9700   43.4680 C   0  0  0  0  0  0  0  0  0  0  0  0
   57.1820   30.6980   42.9380 C   0  0  0  0  0  0  0  0  0  0  0  0
   57.0820   29.5970   43.7890 C   0  0  0  0  0  0  0  0  0  0  0  0
   57.2120   29.7860   45.1660 C   0  0  0  0  0  0  0  0  0  0  0  0
   57.4340   31.0320   45.6650 N   0  0  0  0  0  0  0  0  0  0  0  0
   60.0250   34.4580   45.8570 C   0  0  0  0  0  0  0  0  0  0  0  0
   61.2800   34.0920   46.5930 C   0  0  0  0  0  0  0  0  0  0  0  0
   62.3940   34.1880   46.0150 O   0  0  0  0  0  0  0  0  0  0  0  0
   61.1890   33.6760   47.9630 N   0  0  0  0  0  0  0  0  0  0  0  0
   66.3960   30.9040   50.4530 H   0  0  0  0  0  0  0  0  0  0  0  0
   67.5876   30.2799   52.5010 H   0  0  0  0  0  0  0  0  0  0  0  0
   66.1112   29.4190   53.0713 H   0  0  0  0  0  0  0  0  0  0  0  0
   66.5413   27.1403   53.1823 H   0  0  0  0  0  0  0  0  0  0  0  0
   67.3752   25.0345   52.1333 H   0  0  0  0  0  0  0  0  0  0  0  0
   68.5124   25.1080   49.9101 H   0  0  0  0  0  0  0  0  0  0  0  0
   68.8240   27.2909   48.7388 H   0  0  0  0  0  0  0  0  0  0  0  0
   67.9941   29.3996   49.7798 H   0  0  0  0  0  0  0  0  0  0  0  0
   65.3458   31.8296   49.1093 H   0  0  0  0  0  0  0  0  0  0  0  0
   63.9659   33.2420   47.5599 H   0  0  0  0  0  0  0  0  0  0  0  0
   61.8164   31.0673   51.5383 H   0  0  0  0  0  0  0  0  0  0  0  0
   59.5049   31.7372   49.6970 H   0  0  0  0  0  0  0  0  0  0  0  0
   59.7909   33.0466   50.8253 H   0  0  0  0  0  0  0  0  0  0  0  0
   59.6261   34.6286   49.0954 H   0  0  0  0  0  0  0  0  0  0  0  0
   57.4855   32.8428   42.8028 H   0  0  0  0  0  0  0  0  0  0  0  0
   57.0814   30.5645   41.8508 H   0  0  0  0  0  0  0  0  0  0  0  0
   56.9028   28.5918   43.3797 H   0  0  0  0  0  0  0  0  0  0  0  0
   57.1349   28.9266   45.8483 H   0  0  0  0  0  0  0  0  0  0  0  0
   60.1637   34.2508   44.7856 H   0  0  0  0  0  0  0  0  0  0  0  0
   59.8230   35.5267   46.0217 H   0  0  0  0  0  0  0  0  0  0  0  0
  1  2  2  0
  2  3  1  0
  3  4  1  0
  4  5  1  0
  5  6  2  0
  6  7  1  0
  7  8  2  0
  8  9  1  0
  9 10  2  0
  2 11  1  0
 11 12  2  0
 12 13  1  0
 13 14  2  0
 14 15  1  0
 15 16  2  0
 15 17  1  0
 17 18  1  0
 18 19  1  0
 19 20  2  0
 19 21  1  0
 21 22  1  0
 22 23  2  0
 22 24  1  0
 24 25  2  0
 25 26  1  0
 26 27  2  0
 27 28  1  0
 28 29  2  0
 21 30  1  0
 30 31  1  0
 31 32  2  0
 31 33  1  0
 10  5  1  0
 16 11  1  0
 33 18  1  0
 33 14  1  0
 29 24  1  0
  3 34  1  0
  4 35  1  0
  4 36  1  0
  6 37  1  0
  7 38  1  0
  8 39  1  0
  9 40  1  0
 10 41  1  0
 12 42  1  0
 13 43  1  0
 16 44  1  0
 17 45  1  0
 17 46  1  0
 18 47  1  1
 25 48  1  0
 26 49  1  0
 27 50  1  0
 28 51  1  0
 30 52  1  0
 30 53  1  0
M  END
>  <UniqueID>  (66) 
62

>  <SMILES>  (66) 
O=C(NCc1ccccc1)c1ccc2c(c1)C[C@@H]1C(=O)N(C(=O)c3ccccn3)CC(=O)N21

>  <Energy>  (66) 
86.33334578954143

>  <Genealogy>  (66) 
O=C(NCc1ccccc1)c1ccc2c(c1)C[C@@H]1C(=O)N(C(=O)c3ccccn3)CC(=O)N21 (chirality)
O=C(NCc1ccccc1)c1ccc2c(c1)C[C@@H]1C(=O)N(C(=O)c3ccccn3)CC(=O)N21 (3D coordinates assigned)
O=C(NCc1ccccc1)c1ccc2c(c1)C[C@@H]1C(=O)N(C(=O)c3ccccn3)CC(=O)N21 (nonaromatic ring conformer: 86.33334578954143 kcal/mol)

>  <smiles>  (66) 
O=C(NCc1ccccc1)c1ccc2c(c1)CC1C(=O)N(C(=O)c3ccccn3)CC(=O)N21

>  <score_type>  (66) 
oracle

>  <origin>  (66) 
adg

>  <m_score__min__energy>  (66) 
-9.2200000000000006

>  <m_primary>  (66) 
energy

$$$$
66:0
     RDKit          3D

 44 46  0  0  0  0  0  0  0  0999 V2000
   54.6670   30.4110   53.6380 O   0  0  0  0  0  0  0  0  0  0  0  0
   54.4670   30.2680   52.4030 C   0  0  0  0  0  0  0  0  0  0  0  0
   53.2260   29.5360   51.9510 C   0  0  0  0  0  0  0  0  0  0  0  0
   52.3540   30.3830   51.0550 C   0  0  0  0  0  0  0  0  0  0  0  0
   52.0520   29.9610   49.7530 C   0  0  0  0  0  0  0  0  0  0  0  0
   51.2740   30.7280   48.9480 N   0  0  0  0  0  0  0  0  0  0  0  0
   50.7650   31.9070   49.3870 C   0  0  0  0  0  0  0  0  0  0  0  0
   50.0490   32.6050   48.6240 O   0  0  0  0  0  0  0  0  0  0  0  0
   51.0230   32.3310   50.6510 N   0  0  0  0  0  0  0  0  0  0  0  0
   51.7970   31.5980   51.4930 C   0  0  0  0  0  0  0  0  0  0  0  0
   52.0070   32.0190   52.6620 O   0  0  0  0  0  0  0  0  0  0  0  0
   55.4010   30.8530   51.4840 N   0  0  0  0  0  0  0  0  0  0  0  0
   56.8290   30.8670   51.6040 C   0  0  0  0  0  0  0  0  0  0  0  0
   57.4530   29.8890   52.3860 C   0  0  0  0  0  0  0  0  0  0  0  0
   58.8440   29.8690   52.5130 C   0  0  0  0  0  0  0  0  0  0  0  0
   59.6220   30.8170   51.8450 C   0  0  0  0  0  0  0  0  0  0  0  0
   59.0110   31.7810   51.0320 C   0  0  0  0  0  0  0  0  0  0  0  0
   59.9840   32.9940   50.2020 S   0  0  0  0  0  0  0  0  0  0  0  0
   59.2930   34.3270   50.2640 O   0  0  0  0  0  0  0  0  0  0  0  0
   61.3030   33.1130   50.9130 O   0  0  0  0  0  0  0  0  0  0  0  0
   60.2610   32.5220   48.5390 N   0  0  0  0  0  0  0  0  0  0  0  0
   59.0100   32.1450   47.8490 C   0  0  0  0  0  0  0  0  0  0  0  0
   58.1400   33.3590   47.4680 C   0  0  0  0  0  0  0  0  0  0  0  0
   58.9630   34.5710   47.0010 C   0  0  0  0  0  0  0  0  0  0  0  0
   60.3860   34.1760   46.6180 C   0  0  0  0  0  0  0  0  0  0  0  0
   61.0960   33.5100   47.8100 C   0  0  0  0  0  0  0  0  0  0  0  0
   57.6150   31.7960   50.9030 C   0  0  0  0  0  0  0  0  0  0  0  0
   53.5289   28.6339   51.3993 H   0  0  0  0  0  0  0  0  0  0  0  0
   52.6406   29.2820   52.8470 H   0  0  0  0  0  0  0  0  0  0  0  0
   52.4474   29.0039   49.3820 H   0  0  0  0  0  0  0  0  0  0  0  0
   56.8453   29.1321   52.9034 H   0  0  0  0  0  0  0  0  0  0  0  0
   59.3273   29.1054   53.1401 H   0  0  0  0  0  0  0  0  0  0  0  0
   60.7162   30.8070   51.9572 H   0  0  0  0  0  0  0  0  0  0  0  0
   59.2681   31.5973   46.9306 H   0  0  0  0  0  0  0  0  0  0  0  0
   58.4243   31.5276   48.5460 H   0  0  0  0  0  0  0  0  0  0  0  0
   57.4624   33.0619   46.6540 H   0  0  0  0  0  0  0  0  0  0  0  0
   57.5915   33.6646   48.3712 H   0  0  0  0  0  0  0  0  0  0  0  0
   58.4704   35.0200   46.1260 H   0  0  0  0  0  0  0  0  0  0  0  0
   59.0194   35.2873   47.8339 H   0  0  0  0  0  0  0  0  0  0  0  0
   60.3520   33.4697   45.7754 H   0  0  0  0  0  0  0  0  0  0  0  0
   60.9426   35.0801   46.3304 H   0  0  0  0  0  0  0  0  0  0  0  0
   61.9920   32.9943   47.4340 H   0  0  0  0  0  0  0  0  0  0  0  0
   61.3350   34.3114   48.5245 H   0  0  0  0  0  0  0  0  0  0  0  0
   57.1333   32.5386   50.2499 H   0  0  0  0  0  0  0  0  0  0  0  0
  1  2  2  0
  2  3  1  0
  3  4  1  0
  4  5  2  0
  5  6  1  0
  6  7  1  0
  7  8  2  0
  7  9  1  0
  9 10  1  0
 10 11  2  0
  2 12  1  0
 12 13  1  0
 13 14  2  0
 14 15  1  0
 15 16  2  0
 16 17  1  0
 17 18  1  0
 18 19  2  0
 18 20  2  0
 18 21  1  0
 21 22  1  0
 22 23  1  0
 23 24  1  0
 24 25  1  0
 25 26  1  0
 17 27  2  0
 10  4  1  0
 27 13  1  0
 26 21  1  0
  3 28  1  0
  3 29  1  0
  5 30  1  0
 14 31  1  0
 15 32  1  0
 16 33  1  0
 22 34  1  0
 22 35  1  0
 23 36  1  0
 23 37  1  0
 24 38  1  0
 24 39  1  0
 25 40  1  0
 25 41  1  0
 26 42  1  0
 26 43  1  0
 27 44  1  0
M  CHG  3   6  -1   9  -1  12  -1
M  END
>  <UniqueID>  (67) 
63

>  <SMILES>  (67) 
O=C(Cc1c[n-]c(=O)[n-]c1=O)[N-]c1cccc(S(=O)(=O)N2CCCCC2)c1

>  <Energy>  (67) 
56.34217391086416

>  <Genealogy>  (67) 
O=C(Cc1c[n-]c(=O)[n-]c1=O)[N-]c1cccc(S(=O)(=O)N2CCCCC2)c1 (protonated)
O=C(Cc1c[n-]c(=O)[n-]c1=O)[N-]c1cccc(S(=O)(=O)N2CCCCC2)c1 (3D coordinates assigned)
O=C(Cc1c[n-]c(=O)[n-]c1=O)[N-]c1cccc(S(=O)(=O)N2CCCCC2)c1 (nonaromatic ring conformer: 56.34217391086416 kcal/mol)

>  <smiles>  (67) 
O=C(Cc1c[nH]c(=O)[nH]c1=O)Nc1cccc(S(=O)(=O)N2CCCCC2)c1

>  <score_type>  (67) 
oracle

>  <origin>  (67) 
adg

>  <m_score__min__energy>  (67) 
-14.6

>  <m_primary>  (67) 
energy

$$$$
67:0
     RDKit          3D

 21 22  0  0  0  0  0  0  0  0999 V2000
   59.5370   30.1880   47.4660 C   0  0  0  0  0  0  0  0  0  0  0  0
   58.5150   31.1430   47.4040 O   0  0  0  0  0  0  0  0  0  0  0  0
   58.4850   32.2560   46.5950 C   0  0  0  0  0  0  0  0  0  0  0  0
   58.9300   33.4380   47.0550 N   0  0  0  0  0  0  0  0  0  0  0  0
   58.9120   34.5480   46.2790 C   0  0  0  0  0  0  0  0  0  0  0  0
   59.3380   35.6480   46.7420 O   0  0  0  0  0  0  0  0  0  0  0  0
   58.4510   34.5370   45.0110 N   0  0  0  0  0  0  0  0  0  0  0  0
   57.9990   33.3690   44.5210 C   0  0  0  0  0  0  0  0  0  0  0  0
   58.0100   32.2290   45.3000 C   0  0  0  0  0  0  0  0  0  0  0  0
   57.5200   30.9580   44.7710 C   0  0  0  0  0  0  0  0  0  0  0  0
   56.2580   30.5900   44.5030 N   0  0  0  0  0  0  0  0  0  0  0  0
   56.2790   29.3340   44.0330 N   0  0  0  0  0  0  0  0  0  0  0  0
   57.5700   28.9420   44.0170 C   0  0  0  0  0  0  0  0  0  0  0  0
   58.1440   27.4770   43.5240 S   0  0  0  0  0  0  0  0  0  0  0  0
   58.3050   29.9420   44.4680 O   0  0  0  0  0  0  0  0  0  0  0  0
   59.7711   29.9693   48.5183 H   0  0  0  0  0  0  0  0  0  0  0  0
   59.2082   29.2660   46.9642 H   0  0  0  0  0  0  0  0  0  0  0  0
   60.4346   30.5785   46.9642 H   0  0  0  0  0  0  0  0  0  0  0  0
   58.4290   35.3790   44.3980 H   0  0  0  0  0  0  0  0  0  0  0  0
   57.6172   33.3214   43.4905 H   0  0  0  0  0  0  0  0  0  0  0  0
   55.4520   28.7580   43.7320 H   0  0  0  0  0  0  0  0  0  0  0  0
  1  2  1  0
  2  3  1  0
  3  4  2  0
  4  5  1  0
  5  6  2  0
  5  7  1  0
  7  8  1  0
  8  9  2  0
  9 10  1  0
 10 11  2  0
 11 12  1  0
 12 13  1  0
 13 14  2  0
 13 15  1  0
  9  3  1  0
 15 10  1  0
  1 16  1  0
  1 17  1  0
  1 18  1  0
  7 19  1  0
  8 20  1  0
 12 21  1  0
M  END
>  <smiles>  (68) 
COc1nc(=O)[nH]cc1-c1n[nH]c(=S)o1

>  <score_type>  (68) 
oracle

>  <origin>  (68) 
adg

>  <m_score__min__energy>  (68) 
-5.46

>  <m_primary>  (68) 
energy

$$$$
68:0
     RDKit          3D

 46 49  0  0  0  0  0  0  0  0999 V2000
   55.5190   29.8330   43.3450 C   0  0  0  0  0  0  0  0  0  0  0  0
   56.4150   29.5530   44.2940 C   0  0  0  0  0  0  0  0  0  0  0  0
   56.4380   28.3800   44.9590 N   0  0  0  0  0  0  0  0  0  0  0  0
   57.4550   28.4550   45.8450 C   0  0  0  0  0  0  0  0  0  0  0  0
   57.8400   27.4700   46.6700 C   0  0  0  0  0  0  0  0  0  0  0  0
   57.2110   26.1390   46.7160 C   0  0  0  0  0  0  0  0  0  0  0  0
   57.8360   25.0420   47.1810 N   0  0  0  0  0  0  0  0  0  0  0  0
   56.8840   24.0870   47.1160 C   0  0  0  0  0  0  0  0  0  0  0  0
   57.0960   22.8950   47.4590 O   0  0  0  0  0  0  0  0  0  0  0  0
   55.6850   24.5120   46.6630 N   0  0  0  0  0  0  0  0  0  0  0  0
   55.9040   25.8150   46.4260 C   0  0  0  0  0  0  0  0  0  0  0  0
   54.9170   26.6950   45.9980 O   0  0  0  0  0  0  0  0  0  0  0  0
   58.0940   29.6770   45.7420 C   0  0  0  0  0  0  0  0  0  0  0  0
   57.4270   30.3880   44.7590 C   0  0  0  0  0  0  0  0  0  0  0  0
   57.8110   31.7270   44.2610 C   0  0  0  0  0  0  0  0  0  0  0  0
   57.6400   32.0000   43.0420 O   0  0  0  0  0  0  0  0  0  0  0  0
   58.4080   32.7090   45.1310 N   0  0  0  0  0  0  0  0  0  0  0  0
   59.2330   33.7780   44.5620 C   0  0  0  0  0  0  0  0  0  0  0  0
   60.1640   34.3480   45.6380 C   0  0  0  0  0  0  0  0  0  0  0  0
   59.4320   34.8680   46.8260 N   0  0  0  0  0  0  0  0  0  0  0  0
   60.2790   34.8000   48.0410 C   0  0  0  0  0  0  0  0  0  0  0  0
   61.4640   33.8420   47.8850 C   0  0  0  0  0  0  0  0  0  0  0  0
   60.9120   32.9640   48.9970 C   0  0  0  0  0  0  0  0  0  0  0  0
   59.7140   33.8900   49.1370 C   0  0  0  0  0  0  0  0  0  0  0  0
   58.1180   34.2070   47.0580 C   0  0  0  0  0  0  0  0  0  0  0  0
   58.0790   32.7560   46.5590 C   0  0  0  0  0  0  0  0  0  0  0  0
   55.5455   30.8065   42.8336 H   0  0  0  0  0  0  0  0  0  0  0  0
   54.7541   29.0902   43.0744 H   0  0  0  0  0  0  0  0  0  0  0  0
   55.8140   27.5610   44.7760 H   0  0  0  0  0  0  0  0  0  0  0  0
   58.6776   27.6686   47.3548 H   0  0  0  0  0  0  0  0  0  0  0  0
   58.9617   30.0173   46.3262 H   0  0  0  0  0  0  0  0  0  0  0  0
   59.8356   33.3729   43.7357 H   0  0  0  0  0  0  0  0  0  0  0  0
   58.5792   34.5794   44.1876 H   0  0  0  0  0  0  0  0  0  0  0  0
   60.8469   33.5514   45.9683 H   0  0  0  0  0  0  0  0  0  0  0  0
   60.7056   35.1939   45.1895 H   0  0  0  0  0  0  0  0  0  0  0  0
   60.4311   35.8730   48.2295 H   0  0  0  0  0  0  0  0  0  0  0  0
   61.5123   33.3455   46.9046 H   0  0  0  0  0  0  0  0  0  0  0  0
   62.4946   34.2225   47.9398 H   0  0  0  0  0  0  0  0  0  0  0  0
   60.6552   31.9433   48.6772 H   0  0  0  0  0  0  0  0  0  0  0  0
   61.5318   32.7206   49.8726 H   0  0  0  0  0  0  0  0  0  0  0  0
   58.7530   33.4213   48.8787 H   0  0  0  0  0  0  0  0  0  0  0  0
   59.4473   34.3061   50.1197 H   0  0  0  0  0  0  0  0  0  0  0  0
   57.9093   34.2118   48.1380 H   0  0  0  0  0  0  0  0  0  0  0  0
   57.3623   34.7700   46.4907 H   0  0  0  0  0  0  0  0  0  0  0  0
   58.8106   32.1573   47.1215 H   0  0  0  0  0  0  0  0  0  0  0  0
   57.0686   32.3484   46.7109 H   0  0  0  0  0  0  0  0  0  0  0  0
  1  2  2  0
  2  3  1  0
  3  4  1  0
  4  5  2  3
  5  6  1  0
  6  7  1  0
  7  8  1  0
  8  9  2  0
  8 10  1  0
 10 11  1  0
 11 12  1  0
  4 13  1  0
 13 14  2  0
 14 15  1  0
 15 16  2  0
 15 17  1  0
 17 18  1  0
 18 19  1  0
 19 20  1  0
 20 21  1  0
 21 22  1  0
 22 23  1  0
 23 24  1  0
 20 25  1  0
 25 26  1  0
 14  2  1  0
 26 17  1  0
 11  6  2  0
 24 21  1  0
  1 27  1  0
  1 28  1  0
  3 29  1  0
  5 30  1  0
 13 31  1  0
 18 32  1  0
 18 33  1  0
 19 34  1  0
 19 35  1  0
 21 36  1  0
 22 37  1  0
 22 38  1  0
 23 39  1  0
 23 40  1  0
 24 41  1  0
 24 42  1  0
 25 43  1  0
 25 44  1  0
 26 45  1  0
 26 46  1  0
M  CHG  3   7  -1  10  -1  12  -1
M  END
>  <UniqueID>  (69) 
64

>  <SMILES>  (69) 
C=c1[nH]c(=Cc2[n-]c(=O)[n-]c2[O-])cc1C(=O)N1CCN(C2CCC2)CC1

>  <Energy>  (69) 
181.56686449896623

>  <Genealogy>  (69) 
C=c1[nH]c(=Cc2[n-]c(=O)[n-]c2[O-])cc1C(=O)N1CCN(C2CCC2)CC1 (protonated)
C=c1[nH]c(=Cc2[n-]c(=O)[n-]c2[O-])cc1C(=O)N1CCN(C2CCC2)CC1 (3D coordinates assigned)
C=c1[nH]c(=Cc2[n-]c(=O)[n-]c2[O-])cc1C(=O)N1CCN(C2CCC2)CC1 (nonaromatic ring conformer: 181.56686449896623 kcal/mol)

>  <smiles>  (69) 
C=c1[nH]c(=Cc2[nH]c(=O)[nH]c2O)cc1C(=O)N1CCN(C2CCC2)CC1

>  <score_type>  (69) 
oracle

>  <origin>  (69) 
adg

>  <m_score__min__energy>  (69) 
-17.289999999999999

>  <m_primary>  (69) 
energy

$$$$
69:0
     RDKit          3D

 47 50  0  0  0  0  0  0  0  0999 V2000
   57.9570   25.9250   46.8300 C   0  0  0  0  0  0  0  0  0  0  0  0
   57.7170   27.2040   46.1000 C   0  0  0  0  0  0  0  0  0  0  0  0
   58.6840   28.1440   45.9290 N   0  0  0  0  0  0  0  0  0  0  0  0
   58.0250   29.1260   45.2980 C   0  0  0  0  0  0  0  0  0  0  0  0
   58.5240   30.3570   44.8860 C   0  0  0  0  0  0  0  0  0  0  0  0
   57.6280   31.2620   44.2720 C   0  0  0  0  0  0  0  0  0  0  0  0
   58.1280   32.5940   43.7890 C   0  0  0  0  0  0  0  0  0  0  0  0
   57.7840   33.6560   44.7630 N   0  0  0  0  0  0  0  0  0  0  0  0
   58.8730   34.6210   44.9650 C   0  0  0  0  0  0  0  0  0  0  0  0
   60.1130   33.9820   45.6020 C   0  0  0  0  0  0  0  0  0  0  0  0
   59.8120   32.9960   46.6570 N   0  0  0  0  0  0  0  0  0  0  0  0
   60.9470   32.4090   47.3410 C   0  0  0  0  0  0  0  0  0  0  0  0
   62.0980   32.8980   47.1760 O   0  0  0  0  0  0  0  0  0  0  0  0
   60.8320   31.1880   48.1600 C   0  0  0  0  0  0  0  0  0  0  0  0
   61.1880   31.1100   49.4940 C   0  0  0  0  0  0  0  0  0  0  0  0
   60.9250   29.8130   49.8920 C   0  0  0  0  0  0  0  0  0  0  0  0
   60.3920   29.1720   48.7880 C   0  0  0  0  0  0  0  0  0  0  0  0
   60.0300   27.7230   48.7260 C   0  0  0  0  0  0  0  0  0  0  0  0
   60.3360   30.0100   47.7340 N   0  0  0  0  0  0  0  0  0  0  0  0
   58.4710   32.3980   46.8300 C   0  0  0  0  0  0  0  0  0  0  0  0
   57.3520   33.1310   46.0700 C   0  0  0  0  0  0  0  0  0  0  0  0
   56.2700   30.8920   44.0840 C   0  0  0  0  0  0  0  0  0  0  0  0
   55.8060   29.6350   44.5130 C   0  0  0  0  0  0  0  0  0  0  0  0
   56.7220   28.7770   45.1180 C   0  0  0  0  0  0  0  0  0  0  0  0
   56.4930   27.5570   45.6260 N   0  0  0  0  0  0  0  0  0  0  0  0
   57.9224   26.1094   47.9139 H   0  0  0  0  0  0  0  0  0  0  0  0
   57.1800   25.1957   46.5571 H   0  0  0  0  0  0  0  0  0  0  0  0
   58.9455   25.5270   46.5571 H   0  0  0  0  0  0  0  0  0  0  0  0
   59.5823   30.6183   45.0332 H   0  0  0  0  0  0  0  0  0  0  0  0
   59.2207   32.5503   43.6706 H   0  0  0  0  0  0  0  0  0  0  0  0
   57.6535   32.8260   42.8241 H   0  0  0  0  0  0  0  0  0  0  0  0
   59.1555   35.0434   43.9894 H   0  0  0  0  0  0  0  0  0  0  0  0
   58.5075   35.3986   45.6518 H   0  0  0  0  0  0  0  0  0  0  0  0
   60.6853   33.4761   44.8105 H   0  0  0  0  0  0  0  0  0  0  0  0
   60.6761   34.7959   46.0821 H   0  0  0  0  0  0  0  0  0  0  0  0
   61.5989   31.9196   50.1150 H   0  0  0  0  0  0  0  0  0  0  0  0
   61.1035   29.3779   50.8864 H   0  0  0  0  0  0  0  0  0  0  0  0
   59.9308   27.3258   49.7470 H   0  0  0  0  0  0  0  0  0  0  0  0
   59.0751   27.6061   48.1927 H   0  0  0  0  0  0  0  0  0  0  0  0
   60.8178   27.1707   48.1927 H   0  0  0  0  0  0  0  0  0  0  0  0
   59.9530   29.7880   46.7890 H   0  0  0  0  0  0  0  0  0  0  0  0
   58.5078   31.3585   46.4720 H   0  0  0  0  0  0  0  0  0  0  0  0
   58.2274   32.4712   47.9002 H   0  0  0  0  0  0  0  0  0  0  0  0
   56.5218   32.4280   45.9070 H   0  0  0  0  0  0  0  0  0  0  0  0
   57.0504   33.9923   46.6841 H   0  0  0  0  0  0  0  0  0  0  0  0
   55.5754   31.5937   43.5991 H   0  0  0  0  0  0  0  0  0  0  0  0
   54.7554   29.3395   44.3754 H   0  0  0  0  0  0  0  0  0  0  0  0
  1  2  1  0
  2  3  2  0
  3  4  1  0
  4  5  2  0
  5  6  1  0
  6  7  1  0
  7  8  1  0
  8  9  1  0
  9 10  1  0
 10 11  1  0
 11 12  1  0
 12 13  2  0
 12 14  1  0
 14 15  2  0
 15 16  1  0
 16 17  2  0
 17 18  1  0
 17 19  1  0
 11 20  1  0
 20 21  1  0
  6 22  2  0
 22 23  1  0
 23 24  2  0
 24 25  1  0
 25  2  1  0
 24  4  1  0
 21  8  1  0
 19 14  1  0
  1 26  1  0
  1 27  1  0
  1 28  1  0
  5 29  1  0
  7 30  1  0
  7 31  1  0
  9 32  1  0
  9 33  1  0
 10 34  1  0
 10 35  1  0
 15 36  1  0
 16 37  1  0
 18 38  1  0
 18 39  1  0
 18 40  1  0
 19 41  1  0
 20 42  1  0
 20 43  1  0
 21 44  1  0
 21 45  1  0
 22 46  1  0
 23 47  1  0
M  CHG  1  25  -1
M  END
>  <UniqueID>  (70) 
65

>  <SMILES>  (70) 
Cc1nc2cc(CN3CCN(C(=O)c4ccc(C)[nH]4)CC3)ccc2[n-]1

>  <Energy>  (70) 
118.92216890704869

>  <Genealogy>  (70) 
Cc1nc2cc(CN3CCN(C(=O)c4ccc(C)[nH]4)CC3)ccc2[n-]1 (protonated)
Cc1nc2cc(CN3CCN(C(=O)c4ccc(C)[nH]4)CC3)ccc2[n-]1 (3D coordinates assigned)
Cc1nc2cc(CN3CCN(C(=O)c4ccc(C)[nH]4)CC3)ccc2[n-]1 (nonaromatic ring conformer: 118.92216890704869 kcal/mol)

>  <smiles>  (70) 
Cc1ccc(C(=O)N2CCN(Cc3ccc4[nH]c(C)nc4c3)CC2)[nH]1

>  <score_type>  (70) 
oracle

>  <origin>  (70) 
adg

>  <m_score__min__energy>  (70) 
-9.3000000000000007

>  <m_primary>  (70) 
energy

$$$$
70:0
     RDKit          3D

 64 66  0  0  0  0  0  0  0  0999 V2000
   60.9490   33.1150   50.8320 C   0  0  0  0  0  0  0  0  0  0  0  0
   59.4930   33.4300   50.4570 C   0  0  0  0  0  0  0  0  0  0  0  0
   58.7610   33.9580   51.7070 C   0  0  0  0  0  0  0  0  0  0  0  0
   58.8240   32.1430   49.9390 C   0  0  0  0  0  0  0  0  0  0  0  0
   59.5270   34.4320   49.4300 O   0  0  0  0  0  0  0  0  0  0  0  0
   60.1060   34.2990   48.1570 C   0  0  0  0  0  0  0  0  0  0  0  0
   61.3560   34.3760   48.0130 O   0  0  0  0  0  0  0  0  0  0  0  0
   59.2680   34.0700   47.0070 N   0  0  0  0  0  0  0  0  0  0  0  0
   57.8160   33.9240   47.1600 C   0  0  0  0  0  0  0  0  0  0  0  0
   57.3270   32.7640   46.2990 C   0  0  0  0  0  0  0  0  0  0  0  0
   57.6060   33.0300   44.8070 C   0  0  0  0  0  0  0  0  0  0  0  0
   57.5060   31.7580   43.9800 C   0  0  0  0  0  0  0  0  0  0  0  0
   58.5020   31.4220   43.2860 O   0  0  0  0  0  0  0  0  0  0  0  0
   56.3260   30.9420   43.8990 N   0  0  0  0  0  0  0  0  0  0  0  0
   56.2740   29.4880   43.9120 C   0  0  0  0  0  0  0  0  0  0  0  0
   56.6660   28.9580   45.2880 C   0  0  0  0  0  0  0  0  0  0  0  0
   58.0000   29.4400   45.6440 N   0  0  0  0  0  0  0  0  0  0  0  0
   58.6840   28.9720   46.8200 C   0  0  0  0  0  0  0  0  0  0  0  0
   58.2450   27.9590   47.4320 O   0  0  0  0  0  0  0  0  0  0  0  0
   59.8640   29.6850   47.3640 C   0  0  0  0  0  0  0  0  0  0  0  0
   60.2690   29.4450   48.6870 C   0  0  0  0  0  0  0  0  0  0  0  0
   61.3640   30.1220   49.2300 C   0  0  0  0  0  0  0  0  0  0  0  0
   62.0890   31.0420   48.4570 C   0  0  0  0  0  0  0  0  0  0  0  0
   63.2050   31.7510   49.0320 N   0  0  0  0  0  0  0  0  0  0  0  0
   63.7590   31.5140   50.3610 C   0  0  0  0  0  0  0  0  0  0  0  0
   64.8020   32.6350   50.5860 C   0  0  0  0  0  0  0  0  0  0  0  0
   64.8770   33.3870   49.3400 N   0  0  0  0  0  0  0  0  0  0  0  0
   63.9200   32.8350   48.4660 C   0  0  0  0  0  0  0  0  0  0  0  0
   63.7690   33.2350   47.2820 O   0  0  0  0  0  0  0  0  0  0  0  0
   61.6870   31.2800   47.1310 C   0  0  0  0  0  0  0  0  0  0  0  0
   60.5890   30.6050   46.5880 C   0  0  0  0  0  0  0  0  0  0  0  0
   58.8770   33.8790   44.5180 C   0  0  0  0  0  0  0  0  0  0  0  0
   59.8920   33.9960   45.6760 C   0  0  0  0  0  0  0  0  0  0  0  0
   61.0491   33.0933   51.9272 H   0  0  0  0  0  0  0  0  0  0  0  0
   61.2303   32.1352   50.4187 H   0  0  0  0  0  0  0  0  0  0  0  0
   61.6102   33.8909   50.4187 H   0  0  0  0  0  0  0  0  0  0  0  0
   59.2688   33.5917   52.6114 H   0  0  0  0  0  0  0  0  0  0  0  0
   58.7714   35.0579   51.7007 H   0  0  0  0  0  0  0  0  0  0  0  0
   57.7205   33.6011   51.7007 H   0  0  0  0  0  0  0  0  0  0  0  0
   58.5039   31.5271   50.7924 H   0  0  0  0  0  0  0  0  0  0  0  0
   57.9483   32.4056   49.3273 H   0  0  0  0  0  0  0  0  0  0  0  0
   59.5421   31.5771   49.3273 H   0  0  0  0  0  0  0  0  0  0  0  0
   57.5770   33.7236   48.2149 H   0  0  0  0  0  0  0  0  0  0  0  0
   57.3190   34.8519   46.8407 H   0  0  0  0  0  0  0  0  0  0  0  0
   57.8478   31.8445   46.6043 H   0  0  0  0  0  0  0  0  0  0  0  0
   56.2414   32.6557   46.4394 H   0  0  0  0  0  0  0  0  0  0  0  0
   56.7940   33.6898   44.4674 H   0  0  0  0  0  0  0  0  0  0  0  0
   55.2517   29.1590   43.6738 H   0  0  0  0  0  0  0  0  0  0  0  0
   56.9788   29.0974   43.1632 H   0  0  0  0  0  0  0  0  0  0  0  0
   55.9394   29.3097   46.0352 H   0  0  0  0  0  0  0  0  0  0  0  0
   56.6718   27.8583   45.2650 H   0  0  0  0  0  0  0  0  0  0  0  0
   58.3900   30.2300   45.0860 H   0  0  0  0  0  0  0  0  0  0  0  0
   59.7190   28.7172   49.3016 H   0  0  0  0  0  0  0  0  0  0  0  0
   61.6603   29.9323   50.2722 H   0  0  0  0  0  0  0  0  0  0  0  0
   62.9668   31.5689   51.1221 H   0  0  0  0  0  0  0  0  0  0  0  0
   64.2132   30.5152   50.4393 H   0  0  0  0  0  0  0  0  0  0  0  0
   64.4820   33.2924   51.4079 H   0  0  0  0  0  0  0  0  0  0  0  0
   65.7825   32.2171   50.8579 H   0  0  0  0  0  0  0  0  0  0  0  0
   62.2410   32.0036   46.5150 H   0  0  0  0  0  0  0  0  0  0  0  0
   60.2910   30.7956   45.5464 H   0  0  0  0  0  0  0  0  0  0  0  0
   59.3960   33.4263   43.6603 H   0  0  0  0  0  0  0  0  0  0  0  0
   58.5150   34.9019   44.3371 H   0  0  0  0  0  0  0  0  0  0  0  0
   60.5508   33.1155   45.6502 H   0  0  0  0  0  0  0  0  0  0  0  0
   60.4416   34.9371   45.5268 H   0  0  0  0  0  0  0  0  0  0  0  0
  1  2  1  0
  2  3  1  0
  2  4  1  0
  2  5  1  0
  5  6  1  0
  6  7  2  0
  6  8  1  0
  8  9  1  0
  9 10  1  0
 10 11  1  0
 11 12  1  0
 12 13  2  0
 12 14  1  0
 14 15  1  0
 15 16  1  0
 16 17  1  0
 17 18  1  0
 18 19  2  0
 18 20  1  0
 20 21  2  0
 21 22  1  0
 22 23  2  0
 23 24  1  0
 24 25  1  0
 25 26  1  0
 26 27  1  0
 27 28  1  0
 28 29  2  0
 23 30  1  0
 30 31  2  0
 11 32  1  0
 32 33  1  0
 33  8  1  0
 31 20  1  0
 28 24  1  0
  1 34  1  0
  1 35  1  0
  1 36  1  0
  3 37  1  0
  3 38  1  0
  3 39  1  0
  4 40  1  0
  4 41  1  0
  4 42  1  0
  9 43  1  0
  9 44  1  0
 10 45  1  0
 10 46  1  0
 11 47  1  0
 15 48  1  0
 15 49  1  0
 16 50  1  0
 16 51  1  0
 17 52  1  0
 21 53  1  0
 22 54  1  0
 25 55  1  0
 25 56  1  0
 26 57  1  0
 26 58  1  0
 30 59  1  0
 31 60  1  0
 32 61  1  0
 32 62  1  0
 33 63  1  0
 33 64  1  0
M  CHG  2  14  -1  27  -1
M  END
>  <UniqueID>  (71) 
66

>  <SMILES>  (71) 
CC(C)(C)OC(=O)N1CCC(C(=O)[N-]CCNC(=O)c2ccc(N3CC[N-]C3=O)cc2)CC1

>  <Energy>  (71) 
78.10262049555809

>  <Genealogy>  (71) 
CC(C)(C)OC(=O)N1CCC(C(=O)[N-]CCNC(=O)c2ccc(N3CC[N-]C3=O)cc2)CC1 (protonated)
CC(C)(C)OC(=O)N1CCC(C(=O)[N-]CCNC(=O)c2ccc(N3CC[N-]C3=O)cc2)CC1 (3D coordinates assigned)
CC(C)(C)OC(=O)N1CCC(C(=O)[N-]CCNC(=O)c2ccc(N3CC[N-]C3=O)cc2)CC1 (nonaromatic ring conformer: 78.10262049555809 kcal/mol)

>  <smiles>  (71) 
CC(C)(C)OC(=O)N1CCC(C(=O)NCCNC(=O)c2ccc(N3CCNC3=O)cc2)CC1

>  <score_type>  (71) 
oracle

>  <origin>  (71) 
adg

>  <m_score__min__energy>  (71) 
-11.390000000000001

>  <m_primary>  (71) 
energy

$$$$
71:0
     RDKit          3D

 46 49  0  0  0  0  0  0  0  0999 V2000
   64.5140   32.3450   48.6560 N   0  0  0  0  0  0  0  0  0  0  0  0
   63.3550   32.5740   49.4600 C   0  0  0  0  0  0  0  0  0  0  0  0
   63.3860   32.2710   50.6830 O   0  0  0  0  0  0  0  0  0  0  0  0
   62.1240   33.1550   48.8890 C   0  0  0  0  0  0  0  0  0  0  0  0
   61.3510   34.1730   49.4180 C   0  0  0  0  0  0  0  0  0  0  0  0
   60.3090   34.4240   48.6070 N   0  0  0  0  0  0  0  0  0  0  0  0
   60.4040   33.5750   47.5610 C   0  0  0  0  0  0  0  0  0  0  0  0
   59.4540   33.5020   46.4270 C   0  0  0  0  0  0  0  0  0  0  0  0
   59.1240   32.2820   45.8110 C   0  0  0  0  0  0  0  0  0  0  0  0
   58.2080   32.2640   44.7450 C   0  0  0  0  0  0  0  0  0  0  0  0
   57.8520   31.0760   44.0890 O   0  0  0  0  0  0  0  0  0  0  0  0
   57.5440   29.8600   44.7160 C   0  0  0  0  0  0  0  0  0  0  0  0
   56.2360   29.3850   44.6650 C   0  0  0  0  0  0  0  0  0  0  0  0
   55.9110   28.2110   45.2620 N   0  0  0  0  0  0  0  0  0  0  0  0
   56.8140   27.4460   45.9360 C   0  0  0  0  0  0  0  0  0  0  0  0
   56.3800   26.3210   46.4380 N   0  0  0  0  0  0  0  0  0  0  0  0
   55.6300   25.2760   45.8080 C   0  0  0  0  0  0  0  0  0  0  0  0
   54.3730   25.2620   45.9160 O   0  0  0  0  0  0  0  0  0  0  0  0
   56.3300   24.1620   45.1270 C   0  0  0  0  0  0  0  0  0  0  0  0
   55.7900   23.5810   43.9630 C   0  0  0  0  0  0  0  0  0  0  0  0
   56.4460   22.5200   43.3320 C   0  0  0  0  0  0  0  0  0  0  0  0
   57.6460   22.0280   43.8520 C   0  0  0  0  0  0  0  0  0  0  0  0
   58.1910   22.5970   45.0040 C   0  0  0  0  0  0  0  0  0  0  0  0
   57.5380   23.6550   45.6420 C   0  0  0  0  0  0  0  0  0  0  0  0
   58.1460   27.9280   46.0700 C   0  0  0  0  0  0  0  0  0  0  0  0
   59.3710   27.2250   47.1250 Cl  0  0  0  0  0  0  0  0  0  0  0  0
   58.4930   29.1320   45.4450 C   0  0  0  0  0  0  0  0  0  0  0  0
   57.6680   33.4680   44.2910 C   0  0  0  0  0  0  0  0  0  0  0  0
   58.0180   34.6630   44.9210 C   0  0  0  0  0  0  0  0  0  0  0  0
   58.8880   34.6520   45.9640 N   0  0  0  0  0  0  0  0  0  0  0  0
   61.5230   32.7740   47.7050 C   0  0  0  0  0  0  0  0  0  0  0  0
   65.3730   31.9360   49.0830 H   0  0  0  0  0  0  0  0  0  0  0  0
   64.5320   32.5810   47.6390 H   0  0  0  0  0  0  0  0  0  0  0  0
   61.5583   34.6987   50.3618 H   0  0  0  0  0  0  0  0  0  0  0  0
   59.5750   35.1430   48.7820 H   0  0  0  0  0  0  0  0  0  0  0  0
   59.5810   31.3450   46.1620 H   0  0  0  0  0  0  0  0  0  0  0  0
   55.4631   29.9641   44.1385 H   0  0  0  0  0  0  0  0  0  0  0  0
   54.8463   23.9645   43.5479 H   0  0  0  0  0  0  0  0  0  0  0  0
   56.0165   22.0714   42.4241 H   0  0  0  0  0  0  0  0  0  0  0  0
   58.1606   21.1931   43.3539 H   0  0  0  0  0  0  0  0  0  0  0  0
   59.1374   22.2115   45.4110 H   0  0  0  0  0  0  0  0  0  0  0  0
   57.9708   24.0946   46.5527 H   0  0  0  0  0  0  0  0  0  0  0  0
   59.5226   29.5104   45.5274 H   0  0  0  0  0  0  0  0  0  0  0  0
   56.9700   33.4751   43.4409 H   0  0  0  0  0  0  0  0  0  0  0  0
   57.5891   35.6142   44.5728 H   0  0  0  0  0  0  0  0  0  0  0  0
   61.8658   31.9898   47.0140 H   0  0  0  0  0  0  0  0  0  0  0  0
  1  2  1  0
  2  3  2  0
  2  4  1  0
  4  5  2  0
  5  6  1  0
  6  7  1  0
  7  8  1  0
  8  9  2  0
  9 10  1  0
 10 11  1  0
 11 12  1  0
 12 13  2  0
 13 14  1  0
 14 15  1  0
 15 16  2  3
 16 17  1  0
 17 18  2  0
 17 19  1  0
 19 20  2  0
 20 21  1  0
 21 22  2  0
 22 23  1  0
 23 24  2  0
 15 25  1  0
 25 26  1  0
 25 27  2  0
 10 28  2  0
 28 29  1  0
 29 30  2  0
  7 31  2  0
 31  4  1  0
 30  8  1  0
 27 12  1  0
 24 19  1  0
  1 32  1  0
  1 33  1  0
  5 34  1  0
  6 35  1  0
  9 36  1  0
 13 37  1  0
 20 38  1  0
 21 39  1  0
 22 40  1  0
 23 41  1  0
 24 42  1  0
 27 43  1  0
 28 44  1  0
 29 45  1  0
 31 46  1  0
M  CHG  1  14  -1
M  END
>  <UniqueID>  (72) 
67

>  <SMILES>  (72) 
NC(=O)c1c[nH]c(-c2cc(Oc3c[n-]c(=NC(=O)c4ccccc4)c(Cl)c3)ccn2)c1

>  <Energy>  (72) 
100.1268764040843

>  <Genealogy>  (72) 
NC(=O)c1c[nH]c(-c2cc(Oc3c[n-]c(=NC(=O)c4ccccc4)c(Cl)c3)ccn2)c1 (protonated)
NC(=O)c1c[nH]c(-c2cc(Oc3c[n-]c(=NC(=O)c4ccccc4)c(Cl)c3)ccn2)c1 (3D coordinates assigned)
NC(=O)c1c[nH]c(-c2cc(Oc3c[n-]c(=NC(=O)c4ccccc4)c(Cl)c3)ccn2)c1 (optimized conformer: 100.1268764040843 kcal/mol)

>  <smiles>  (72) 
NC(=O)c1c[nH]c(-c2cc(Oc3c[nH]c(=NC(=O)c4ccccc4)c(Cl)c3)ccn2)c1

>  <score_type>  (72) 
oracle

>  <origin>  (72) 
adg

>  <m_score__min__energy>  (72) 
-11.58

>  <m_primary>  (72) 
energy

$$$$
72:0
     RDKit          3D

 58 63  0  0  0  0  0  0  0  0999 V2000
   56.0460   29.4130   42.4090 O   0  0  0  0  0  0  0  0  0  0  0  0
   56.2880   29.8860   43.5590 C   0  0  0  0  0  0  0  0  0  0  0  0
   55.8510   29.1920   44.7320 N   0  0  0  0  0  0  0  0  0  0  0  0
   56.7040   28.4410   45.6040 C   0  0  0  0  0  0  0  0  0  0  0  0
   56.6460   27.0420   45.6990 C   0  0  0  0  0  0  0  0  0  0  0  0
   57.5650   26.3490   46.4930 C   0  0  0  0  0  0  0  0  0  0  0  0
   58.5790   27.0350   47.1610 C   0  0  0  0  0  0  0  0  0  0  0  0
   58.6290   28.4390   47.0820 C   0  0  0  0  0  0  0  0  0  0  0  0
   57.6810   29.1330   46.3240 C   0  0  0  0  0  0  0  0  0  0  0  0
   59.8640   29.3110   47.9550 S   0  0  0  0  0  0  0  0  0  0  0  0
   60.8360   29.9380   46.9980 O   0  0  0  0  0  0  0  0  0  0  0  0
   59.2420   30.3830   48.8160 O   0  0  0  0  0  0  0  0  0  0  0  0
   60.7120   28.1370   48.9830 C   0  0  0  0  0  0  0  0  0  0  0  0
   60.8100   26.8030   48.2520 C   0  0  0  0  0  0  0  0  0  0  0  0
   59.5120   26.3050   47.9110 O   0  0  0  0  0  0  0  0  0  0  0  0
   57.0180   31.1530   43.7130 C   0  0  0  0  0  0  0  0  0  0  0  0
   57.5240   31.9570   42.6980 C   0  0  0  0  0  0  0  0  0  0  0  0
   58.1590   33.0850   43.1250 N   0  0  0  0  0  0  0  0  0  0  0  0
   58.1520   33.1880   44.4700 C   0  0  0  0  0  0  0  0  0  0  0  0
   58.7590   34.2630   45.1340 O   0  0  0  0  0  0  0  0  0  0  0  0
   59.6700   34.1780   46.1990 C   0  0  0  0  0  0  0  0  0  0  0  0
   59.2780   34.6750   47.4510 C   0  0  0  0  0  0  0  0  0  0  0  0
   60.1310   34.5650   48.5490 C   0  0  0  0  0  0  0  0  0  0  0  0
   61.3860   33.9660   48.4180 C   0  0  0  0  0  0  0  0  0  0  0  0
   61.7990   33.4870   47.1690 C   0  0  0  0  0  0  0  0  0  0  0  0
   60.9310   33.5640   46.0710 C   0  0  0  0  0  0  0  0  0  0  0  0
   63.1490   32.8250   47.0120 C   0  0  0  0  0  0  0  0  0  0  0  0
   64.1120   33.2340   48.1270 C   0  0  0  0  0  0  0  0  0  0  0  0
   63.4340   33.0860   49.4940 C   0  0  1  0  0  0  0  0  0  0  0  0
   64.3760   33.5270   50.5900 C   0  0  0  0  0  0  0  0  0  0  0  0
   65.7220   33.1160   50.5640 C   0  0  0  0  0  0  0  0  0  0  0  0
   66.6320   33.6330   51.4850 C   0  0  0  0  0  0  0  0  0  0  0  0
   66.2130   34.5610   52.4440 C   0  0  0  0  0  0  0  0  0  0  0  0
   64.8750   34.9510   52.5020 C   0  0  0  0  0  0  0  0  0  0  0  0
   63.9600   34.4470   51.5710 C   0  0  0  0  0  0  0  0  0  0  0  0
   62.2300   33.8560   49.5240 O   0  0  0  0  0  0  0  0  0  0  0  0
   57.3960   31.8620   45.1860 S   0  0  0  0  0  0  0  0  0  0  0  0
   55.8735   26.4877   45.1459 H   0  0  0  0  0  0  0  0  0  0  0  0
   57.4877   25.2561   46.5913 H   0  0  0  0  0  0  0  0  0  0  0  0
   57.7046   30.2323   46.2943 H   0  0  0  0  0  0  0  0  0  0  0  0
   61.7230   28.5080   49.2070 H   0  0  0  0  0  0  0  0  0  0  0  0
   60.1560   28.0016   49.9224 H   0  0  0  0  0  0  0  0  0  0  0  0
   61.3954   26.9404   47.3309 H   0  0  0  0  0  0  0  0  0  0  0  0
   61.2994   26.0758   48.9166 H   0  0  0  0  0  0  0  0  0  0  0  0
   57.4200   31.7026   41.6329 H   0  0  0  0  0  0  0  0  0  0  0  0
   58.2942   35.1532   47.5671 H   0  0  0  0  0  0  0  0  0  0  0  0
   59.8124   34.9537   49.5275 H   0  0  0  0  0  0  0  0  0  0  0  0
   61.2370   33.1418   45.1024 H   0  0  0  0  0  0  0  0  0  0  0  0
   63.0160   31.7334   47.0383 H   0  0  0  0  0  0  0  0  0  0  0  0
   63.5792   33.1465   46.0520 H   0  0  0  0  0  0  0  0  0  0  0  0
   65.0030   32.5898   48.0918 H   0  0  0  0  0  0  0  0  0  0  0  0
   64.4021   34.2852   47.9826 H   0  0  0  0  0  0  0  0  0  0  0  0
   63.1792   32.0288   49.6597 H   0  0  0  0  0  0  0  0  0  0  0  0
   66.0571   32.3842   49.8142 H   0  0  0  0  0  0  0  0  0  0  0  0
   67.6831   33.3100   51.4574 H   0  0  0  0  0  0  0  0  0  0  0  0
   66.9396   34.9838   53.1534 H   0  0  0  0  0  0  0  0  0  0  0  0
   64.5395   35.6540   53.2787 H   0  0  0  0  0  0  0  0  0  0  0  0
   62.9095   34.7715   51.6059 H   0  0  0  0  0  0  0  0  0  0  0  0
  1  2  2  0
  2  3  1  0
  3  4  1  0
  4  5  2  0
  5  6  1  0
  6  7  2  0
  7  8  1  0
  8  9  2  0
  8 10  1  0
 10 11  2  0
 10 12  2  0
 10 13  1  0
 13 14  1  0
 14 15  1  0
  2 16  1  0
 16 17  2  0
 17 18  1  0
 18 19  2  0
 19 20  1  0
 20 21  1  0
 21 22  2  0
 22 23  1  0
 23 24  2  0
 24 25  1  0
 25 26  2  0
 25 27  1  0
 27 28  1  0
 28 29  1  0
 29 30  1  0
 30 31  2  0
 31 32  1  0
 32 33  2  0
 33 34  1  0
 34 35  2  0
 29 36  1  0
 19 37  1  0
  9  4  1  0
 37 16  1  0
 15  7  1  0
 26 21  1  0
 35 30  1  0
 36 24  1  0
  5 38  1  0
  6 39  1  0
  9 40  1  0
 13 41  1  0
 13 42  1  0
 14 43  1  0
 14 44  1  0
 17 45  1  0
 22 46  1  0
 23 47  1  0
 26 48  1  0
 27 49  1  0
 27 50  1  0
 28 51  1  0
 28 52  1  0
 29 53  1  1
 31 54  1  0
 32 55  1  0
 33 56  1  0
 34 57  1  0
 35 58  1  0
M  CHG  1   3  -1
M  END
>  <UniqueID>  (73) 
68

>  <SMILES>  (73) 
O=C([N-]c1ccc2c(c1)S(=O)(=O)CCO2)c1cnc(Oc2ccc3c(c2)CC[C@@H](c2ccccc2)O3)s1

>  <Energy>  (73) 
109.71481324742176

>  <Genealogy>  (73) 
O=C([N-]c1ccc2c(c1)S(=O)(=O)CCO2)c1cnc(Oc2ccc3c(c2)CCC(c2ccccc2)O3)s1 (protonated)
O=C([N-]c1ccc2c(c1)S(=O)(=O)CCO2)c1cnc(Oc2ccc3c(c2)CC[C@@H](c2ccccc2)O3)s1 (chirality)
O=C([N-]c1ccc2c(c1)S(=O)(=O)CCO2)c1cnc(Oc2ccc3c(c2)CC[C@@H](c2ccccc2)O3)s1 (3D coordinates assigned)
O=C([N-]c1ccc2c(c1)S(=O)(=O)CCO2)c1cnc(Oc2ccc3c(c2)CC[C@@H](c2ccccc2)O3)s1 (nonaromatic ring conformer: 109.71481324742176 kcal/mol)

>  <smiles>  (73) 
O=C(Nc1ccc2c(c1)S(=O)(=O)CCO2)c1cnc(Oc2ccc3c(c2)CCC(c2ccccc2)O3)s1

>  <score_type>  (73) 
oracle

>  <origin>  (73) 
adg

>  <m_score__min__energy>  (73) 
-11.82

>  <m_primary>  (73) 
energy

$$$$
73:0
     RDKit          3D

 33 35  0  0  0  0  0  0  0  0999 V2000
   55.4720   29.3400   44.8810 O   0  0  0  0  0  0  0  0  0  0  0  0
   56.4210   30.0980   44.5540 C   0  0  0  0  0  0  0  0  0  0  0  0
   57.7380   29.4880   44.1590 C   0  0  0  0  0  0  0  0  0  0  0  0
   58.1170   28.0820   45.1930 S   0  0  0  0  0  0  0  0  0  0  0  0
   59.6080   27.9980   45.3720 O   0  0  0  0  0  0  0  0  0  0  0  0
   57.4710   28.2570   46.5390 O   0  0  0  0  0  0  0  0  0  0  0  0
   57.5260   26.5810   44.4310 C   0  0  0  0  0  0  0  0  0  0  0  0
   57.1040   25.5980   45.4760 C   0  0  0  0  0  0  0  0  0  0  0  0
   58.0450   24.3210   46.0460 S   0  0  0  0  0  0  0  0  0  0  0  0
   56.8830   23.8620   47.1720 C   0  0  0  0  0  0  0  0  0  0  0  0
   57.0070   22.8900   47.9600 O   0  0  0  0  0  0  0  0  0  0  0  0
   55.7920   24.6570   47.1480 N   0  0  0  0  0  0  0  0  0  0  0  0
   55.9180   25.6290   46.2070 C   0  0  0  0  0  0  0  0  0  0  0  0
   54.9280   26.5840   45.9980 O   0  0  0  0  0  0  0  0  0  0  0  0
   56.2520   31.5140   44.6960 N   0  0  0  0  0  0  0  0  0  0  0  0
   57.2160   32.4250   45.2390 C   0  0  0  0  0  0  0  0  0  0  0  0
   57.5520   33.6260   44.5620 C   0  0  0  0  0  0  0  0  0  0  0  0
   58.4800   34.5260   45.1190 C   0  0  0  0  0  0  0  0  0  0  0  0
   59.0290   34.2050   46.3560 C   0  0  0  0  0  0  0  0  0  0  0  0
   59.9170   34.9130   47.0690 N   0  0  0  0  0  0  0  0  0  0  0  0
   60.0770   34.1390   48.1720 C   0  0  0  0  0  0  0  0  0  0  0  0
   60.8500   34.4580   49.1120 O   0  0  0  0  0  0  0  0  0  0  0  0
   59.3430   32.9970   48.1910 N   0  0  0  0  0  0  0  0  0  0  0  0
   58.6880   33.0670   47.0230 C   0  0  0  0  0  0  0  0  0  0  0  0
   57.7740   32.1540   46.5030 C   0  0  0  0  0  0  0  0  0  0  0  0
   57.6845   29.1610   43.1101 H   0  0  0  0  0  0  0  0  0  0  0  0
   58.5289   30.2423   44.2834 H   0  0  0  0  0  0  0  0  0  0  0  0
   56.6665   26.8159   43.7860 H   0  0  0  0  0  0  0  0  0  0  0  0
   58.3375   26.1405   43.8332 H   0  0  0  0  0  0  0  0  0  0  0  0
   55.1510   27.4750   45.5710 H   0  0  0  0  0  0  0  0  0  0  0  0
   57.0833   33.8556   43.5937 H   0  0  0  0  0  0  0  0  0  0  0  0
   58.7612   35.4510   44.5943 H   0  0  0  0  0  0  0  0  0  0  0  0
   57.4964   31.2487   47.0627 H   0  0  0  0  0  0  0  0  0  0  0  0
  1  2  2  0
  2  3  1  0
  3  4  1  0
  4  5  2  0
  4  6  2  0
  4  7  1  0
  7  8  1  0
  8  9  1  0
  9 10  1  0
 10 11  2  0
 10 12  1  0
 12 13  1  0
 13 14  1  0
  2 15  1  0
 15 16  1  0
 16 17  2  0
 17 18  1  0
 18 19  2  0
 19 20  1  0
 20 21  1  0
 21 22  2  0
 21 23  1  0
 23 24  1  0
 24 25  2  0
 13  8  2  0
 25 16  1  0
 24 19  1  0
  3 26  1  0
  3 27  1  0
  7 28  1  0
  7 29  1  0
 14 30  1  0
 17 31  1  0
 18 32  1  0
 25 33  1  0
M  CHG  4  12  -1  15  -1  20  -1  23  -1
M  END
>  <UniqueID>  (74) 
69

>  <SMILES>  (74) 
O=C(CS(=O)(=O)Cc1sc(=O)[n-]c1O)[N-]c1ccc2[n-]c(=O)[n-]c2c1

>  <Energy>  (74) 
96.7196745383371

>  <Genealogy>  (74) 
O=C(CS(=O)(=O)Cc1sc(=O)[n-]c1O)[N-]c1ccc2[n-]c(=O)[n-]c2c1 (protonated)
O=C(CS(=O)(=O)Cc1sc(=O)[n-]c1O)[N-]c1ccc2[n-]c(=O)[n-]c2c1 (3D coordinates assigned)
O=C(CS(=O)(=O)Cc1sc(=O)[n-]c1O)[N-]c1ccc2[n-]c(=O)[n-]c2c1 (optimized conformer: 96.7196745383371 kcal/mol)

>  <smiles>  (74) 
O=C(CS(=O)(=O)Cc1sc(=O)[nH]c1O)Nc1ccc2[nH]c(=O)[nH]c2c1

>  <score_type>  (74) 
oracle

>  <origin>  (74) 
adg

>  <m_score__min__energy>  (74) 
-14.49

>  <m_primary>  (74) 
energy

$$$$
74:0
     RDKit          3D

 34 36  0  0  0  0  0  0  0  0999 V2000
   59.8820   29.4330   50.4810 O   0  0  0  0  0  0  0  0  0  0  0  0
   59.5850   29.7850   51.6520 C   0  0  0  0  0  0  0  0  0  0  0  0
   59.5470   28.8230   52.6550 O   0  0  0  0  0  0  0  0  0  0  0  0
   59.2990   31.2070   51.9640 C   0  0  0  0  0  0  0  0  0  0  0  0
   60.3320   32.0610   52.4140 C   0  0  0  0  0  0  0  0  0  0  0  0
   61.6390   31.6020   52.5340 O   0  0  0  0  0  0  0  0  0  0  0  0
   60.0490   33.3840   52.7680 C   0  0  0  0  0  0  0  0  0  0  0  0
   58.7440   33.8690   52.6970 C   0  0  0  0  0  0  0  0  0  0  0  0
   57.7160   33.0410   52.2490 C   0  0  0  0  0  0  0  0  0  0  0  0
   57.9840   31.7250   51.8570 C   0  0  0  0  0  0  0  0  0  0  0  0
   56.9230   30.9560   51.3620 O   0  0  0  0  0  0  0  0  0  0  0  0
   55.9730   30.3060   52.1660 C   0  0  0  0  0  0  0  0  0  0  0  0
   56.3060   29.2090   52.9830 C   0  0  0  0  0  0  0  0  0  0  0  0
   55.3260   28.5890   53.7630 C   0  0  0  0  0  0  0  0  0  0  0  0
   54.0090   29.0530   53.7330 C   0  0  0  0  0  0  0  0  0  0  0  0
   53.6630   30.1480   52.9260 C   0  0  0  0  0  0  0  0  0  0  0  0
   52.2380   30.6230   52.8610 C   0  0  0  0  0  0  0  0  0  0  0  0
   51.8440   30.8770   51.4390 C   0  0  0  0  0  0  0  0  0  0  0  0
   51.9110   29.9560   50.4620 N   0  0  0  0  0  0  0  0  0  0  0  0
   51.3990   30.6020   49.3910 C   0  0  0  0  0  0  0  0  0  0  0  0
   51.2970   30.0620   48.2590 O   0  0  0  0  0  0  0  0  0  0  0  0
   51.0000   31.8690   49.6310 N   0  0  0  0  0  0  0  0  0  0  0  0
   51.2830   32.0250   50.9340 C   0  0  0  0  0  0  0  0  0  0  0  0
   51.0280   33.1890   51.6470 O   0  0  0  0  0  0  0  0  0  0  0  0
   54.6490   30.7600   52.1350 C   0  0  0  0  0  0  0  0  0  0  0  0
   60.8608   34.0457   53.1044 H   0  0  0  0  0  0  0  0  0  0  0  0
   58.5254   34.9052   52.9945 H   0  0  0  0  0  0  0  0  0  0  0  0
   56.6863   33.4252   52.2033 H   0  0  0  0  0  0  0  0  0  0  0  0
   57.3414   28.8384   53.0076 H   0  0  0  0  0  0  0  0  0  0  0  0
   55.5924   27.7340   54.4017 H   0  0  0  0  0  0  0  0  0  0  0  0
   53.2398   28.5583   54.3443 H   0  0  0  0  0  0  0  0  0  0  0  0
   51.5784   29.8540   53.2894 H   0  0  0  0  0  0  0  0  0  0  0  0
   52.1440   31.5580   53.4329 H   0  0  0  0  0  0  0  0  0  0  0  0
   54.3782   31.6047   51.4845 H   0  0  0  0  0  0  0  0  0  0  0  0
  1  2  2  0
  2  3  1  0
  2  4  1  0
  4  5  2  0
  5  6  1  0
  5  7  1  0
  7  8  2  0
  8  9  1  0
  9 10  2  0
 10 11  1  0
 11 12  1  0
 12 13  2  0
 13 14  1  0
 14 15  2  0
 15 16  1  0
 16 17  1  0
 17 18  1  0
 18 19  1  0
 19 20  1  0
 20 21  2  0
 20 22  1  0
 22 23  1  0
 23 24  1  0
 16 25  2  0
 10  4  1  0
 25 12  1  0
 23 18  2  0
  7 26  1  0
  8 27  1  0
  9 28  1  0
 13 29  1  0
 14 30  1  0
 15 31  1  0
 17 32  1  0
 17 33  1  0
 25 34  1  0
M  CHG  5   3  -1   6  -1  19  -1  22  -1  24  -1
M  END
>  <UniqueID>  (75) 
70

>  <SMILES>  (75) 
O=C([O-])c1c([O-])cccc1Oc1cccc(Cc2[n-]c(=O)[n-]c2[O-])c1

>  <Energy>  (75) 
77.34061119089813

>  <Genealogy>  (75) 
O=C([O-])c1c([O-])cccc1Oc1cccc(Cc2[n-]c(=O)[n-]c2[O-])c1 (protonated)
O=C([O-])c1c([O-])cccc1Oc1cccc(Cc2[n-]c(=O)[n-]c2[O-])c1 (3D coordinates assigned)
O=C([O-])c1c([O-])cccc1Oc1cccc(Cc2[n-]c(=O)[n-]c2[O-])c1 (optimized conformer: 77.34061119089813 kcal/mol)

>  <smiles>  (75) 
O=C(O)c1c(O)cccc1Oc1cccc(Cc2[nH]c(=O)[nH]c2O)c1

>  <score_type>  (75) 
oracle

>  <origin>  (75) 
adg

>  <m_score__min__energy>  (75) 
-17.98

>  <m_primary>  (75) 
energy

$$$$
75:0
     RDKit          3D

 43 45  0  0  0  0  0  0  0  0999 V2000
   58.6190   34.7920   45.0420 H   0  0  0  0  0  0  0  0  0  0  0  0
   57.9550   34.0410   45.3340 N   0  0  0  0  0  0  0  0  0  0  0  0
   57.7890   32.9170   44.7080 C   0  0  0  0  0  0  0  0  0  0  0  0
   57.5590   32.9570   43.3690 N   0  0  0  0  0  0  0  0  0  0  0  0
   57.3530   31.8390   42.6310 C   0  0  0  0  0  0  0  0  0  0  0  0
   57.1864   31.9197   41.5467 H   0  0  0  0  0  0  0  0  0  0  0  0
   57.3520   30.5910   43.2420 C   0  0  0  0  0  0  0  0  0  0  0  0
   57.1779   29.6847   42.6434 H   0  0  0  0  0  0  0  0  0  0  0  0
   57.5730   30.4890   44.6210 C   0  0  0  0  0  0  0  0  0  0  0  0
   57.5180   29.1450   45.2360 C   0  0  0  0  0  0  0  0  0  0  0  0
   58.6850   28.5730   45.7600 C   0  0  0  0  0  0  0  0  0  0  0  0
   59.6335   29.1273   45.7036 H   0  0  0  0  0  0  0  0  0  0  0  0
   58.6600   27.3000   46.3570 C   0  0  0  0  0  0  0  0  0  0  0  0
   59.9000   26.7810   46.9710 C   0  0  0  0  0  0  0  0  0  0  0  0
   60.2460   25.5870   46.7600 O   0  0  0  0  0  0  0  0  0  0  0  0
   60.7600   27.6640   47.7030 N   0  0  0  0  0  0  0  0  0  0  0  0
   60.3680   28.8600   48.3920 C   0  0  0  0  0  0  0  0  0  0  0  0
   61.0660   30.0700   48.2410 C   0  0  0  0  0  0  0  0  0  0  0  0
   61.9304   30.1233   47.5628 H   0  0  0  0  0  0  0  0  0  0  0  0
   60.6660   31.2050   48.9490 C   0  0  0  0  0  0  0  0  0  0  0  0
   61.2105   32.1519   48.8189 H   0  0  0  0  0  0  0  0  0  0  0  0
   59.5770   31.1430   49.8220 C   0  0  0  0  0  0  0  0  0  0  0  0
   59.2612   32.0427   50.3705 H   0  0  0  0  0  0  0  0  0  0  0  0
   58.8830   29.9310   50.0010 C   0  0  0  0  0  0  0  0  0  0  0  0
   57.7900   29.8110   50.8730 O   0  0  0  0  0  0  0  0  0  0  0  0
   57.2870   30.8700   51.6810 C   0  0  0  0  0  0  0  0  0  0  0  0
   57.4100   30.6111   52.7430 H   0  0  0  0  0  0  0  0  0  0  0  0
   57.8425   31.7939   51.4621 H   0  0  0  0  0  0  0  0  0  0  0  0
   56.2199   31.0232   51.4621 H   0  0  0  0  0  0  0  0  0  0  0  0
   59.2920   28.7970   49.2870 C   0  0  0  0  0  0  0  0  0  0  0  0
   58.7611   27.8444   49.4311 H   0  0  0  0  0  0  0  0  0  0  0  0
   57.4450   26.5720   46.3770 C   0  0  0  0  0  0  0  0  0  0  0  0
   57.3610   25.2660   46.8650 O   0  0  0  0  0  0  0  0  0  0  0  0
   58.1720   24.7040   47.0860 H   0  0  0  0  0  0  0  0  0  0  0  0
   56.2820   27.1530   45.8590 C   0  0  0  0  0  0  0  0  0  0  0  0
   55.3319   26.6006   45.9047 H   0  0  0  0  0  0  0  0  0  0  0  0
   56.3130   28.4250   45.2850 C   0  0  0  0  0  0  0  0  0  0  0  0
   55.1440   28.9640   44.7560 O   0  0  0  0  0  0  0  0  0  0  0  0
   57.8320   31.6630   45.3770 C   0  0  0  0  0  0  0  0  0  0  0  0
   58.1540   31.5900   46.8550 C   0  0  0  0  0  0  0  0  0  0  0  0
   57.2449   31.7961   47.4389 H   0  0  0  0  0  0  0  0  0  0  0  0
   58.5269   30.5845   47.0998 H   0  0  0  0  0  0  0  0  0  0  0  0
   58.9241   32.3364   47.0998 H   0  0  0  0  0  0  0  0  0  0  0  0
  1  2  1  0
  2  3  2  0
  3  4  1  0
  4  5  1  0
  5  6  1  0
  5  7  2  0
  7  8  1  0
  7  9  1  0
  9 10  1  0
 10 11  2  0
 11 12  1  0
 11 13  1  0
 13 14  1  0
 14 15  2  0
 14 16  1  0
 16 17  1  0
 17 18  2  0
 18 19  1  0
 18 20  1  0
 20 21  1  0
 20 22  2  0
 22 23  1  0
 22 24  1  0
 24 25  1  0
 25 26  1  0
 26 27  1  0
 26 28  1  0
 26 29  1  0
 24 30  2  0
 30 31  1  0
 13 32  2  0
 32 33  1  0
 33 34  1  0
 32 35  1  0
 35 36  1  0
 35 37  2  0
 37 38  1  0
  9 39  2  0
 39 40  1  0
 40 41  1  0
 40 42  1  0
 40 43  1  0
 39  3  1  0
 37 10  1  0
 30 17  1  0
M  CHG  3   4  -1  16  -1  38  -1
M  END
>  <UniqueID>  (76) 
71

>  <SMILES>  (76) 
[H]/N=c1/[n-]ccc(-c2cc(C(=O)[N-]c3cccc(OC)c3)c(O)cc2[O-])c1C

>  <Energy>  (76) 
66.86975662122144

>  <Genealogy>  (76) 
COc1cccc([N-]C(=O)c2cc(-c3cc[n-]c(=N)c3C)c([O-])cc2O)c1 (protonated)
[H]/N=c1/[n-]ccc(-c2cc(C(=O)[N-]c3cccc(OC)c3)c(O)cc2[O-])c1C (cis-trans isomerization)
[H]/N=c1/[n-]ccc(-c2cc(C(=O)[N-]c3cccc(OC)c3)c(O)cc2[O-])c1C (3D coordinates assigned)
[H]/N=c1/[n-]ccc(-c2cc(C(=O)[N-]c3cccc(OC)c3)c(O)cc2[O-])c1C (optimized conformer: 66.86975662122144 kcal/mol)

>  <smiles>  (76) 
COc1cccc(NC(=O)c2cc(-c3cc[nH]c(=N)c3C)c(O)cc2O)c1

>  <score_type>  (76) 
oracle

>  <origin>  (76) 
adg

>  <m_score__min__energy>  (76) 
-11.59

>  <m_primary>  (76) 
energy

$$$$
76:0
     RDKit          3D

 46 48  0  0  0  0  0  0  0  0999 V2000
   54.4100   23.6690   43.9320 C   0  0  0  0  0  0  0  0  0  0  0  0
   55.5240   23.3270   43.3800 C   0  0  0  0  0  0  0  0  0  0  0  0
   56.8010   23.0400   43.9660 C   0  0  0  0  0  0  0  0  0  0  0  0
   57.7580   23.9610   44.3280 C   0  0  0  0  0  0  0  0  0  0  0  0
   57.5050   25.6890   44.1010 S   0  0  0  0  0  0  0  0  0  0  0  0
   58.1740   26.6820   45.4490 C   0  0  0  0  0  0  0  0  0  0  0  0
   57.9160   28.1360   45.2960 C   0  0  0  0  0  0  0  0  0  0  0  0
   56.7030   28.5990   44.8780 N   0  0  0  0  0  0  0  0  0  0  0  0
   56.8380   29.9420   44.8510 C   0  0  0  0  0  0  0  0  0  0  0  0
   55.8830   30.6940   44.5020 O   0  0  0  0  0  0  0  0  0  0  0  0
   58.0610   30.3170   45.2300 N   0  0  0  0  0  0  0  0  0  0  0  0
   58.7600   29.2030   45.5150 C   0  0  0  0  0  0  0  0  0  0  0  0
   60.1350   29.0640   45.9850 C   0  0  0  0  0  0  0  0  0  0  0  0
   61.0650   28.6020   45.2750 O   0  0  0  0  0  0  0  0  0  0  0  0
   60.5080   29.4790   47.3850 C   0  0  0  0  0  0  0  0  0  0  0  0
   61.2490   30.8060   47.3480 C   0  0  0  0  0  0  0  0  0  0  0  0
   60.2610   31.9160   47.1340 C   0  0  0  0  0  0  0  0  0  0  0  0
   59.0190   31.8330   47.7290 C   0  0  0  0  0  0  0  0  0  0  0  0
   58.0640   32.8400   47.5600 C   0  0  0  0  0  0  0  0  0  0  0  0
   58.3860   33.9360   46.7810 C   0  0  0  0  0  0  0  0  0  0  0  0
   59.6260   34.0310   46.1820 C   0  0  0  0  0  0  0  0  0  0  0  0
   60.5470   33.0210   46.3650 C   0  0  0  0  0  0  0  0  0  0  0  0
   58.9420   23.5700   44.8790 N   0  0  0  0  0  0  0  0  0  0  0  0
   59.2380   22.2950   45.0940 C   0  0  0  0  0  0  0  0  0  0  0  0
   60.3190   21.9130   45.5990 O   0  0  0  0  0  0  0  0  0  0  0  0
   58.3360   21.3670   44.7560 N   0  0  0  0  0  0  0  0  0  0  0  0
   57.1600   21.7020   44.2140 C   0  0  0  0  0  0  0  0  0  0  0  0
   56.2930   20.6580   43.8990 O   0  0  0  0  0  0  0  0  0  0  0  0
   53.5209   23.8504   43.3102 H   0  0  0  0  0  0  0  0  0  0  0  0
   54.3487   23.7794   45.0247 H   0  0  0  0  0  0  0  0  0  0  0  0
   55.4892   23.2417   42.2839 H   0  0  0  0  0  0  0  0  0  0  0  0
   57.7169   26.3442   46.3908 H   0  0  0  0  0  0  0  0  0  0  0  0
   59.2653   26.5439   45.4428 H   0  0  0  0  0  0  0  0  0  0  0  0
   55.8670   28.0580   44.6340 H   0  0  0  0  0  0  0  0  0  0  0  0
   58.4350   31.2940   45.3000 H   0  0  0  0  0  0  0  0  0  0  0  0
   59.5953   29.5870   47.9894 H   0  0  0  0  0  0  0  0  0  0  0  0
   61.1585   28.7118   47.8303 H   0  0  0  0  0  0  0  0  0  0  0  0
   61.7753   30.9604   48.3015 H   0  0  0  0  0  0  0  0  0  0  0  0
   61.9807   30.7985   46.5267 H   0  0  0  0  0  0  0  0  0  0  0  0
   58.7754   30.9573   48.3485 H   0  0  0  0  0  0  0  0  0  0  0  0
   57.0760   32.7619   48.0373 H   0  0  0  0  0  0  0  0  0  0  0  0
   57.6479   34.7389   46.6374 H   0  0  0  0  0  0  0  0  0  0  0  0
   59.8775   34.9053   45.5637 H   0  0  0  0  0  0  0  0  0  0  0  0
   61.5336   33.1004   45.8850 H   0  0  0  0  0  0  0  0  0  0  0  0
   58.5670   20.3570   44.9250 H   0  0  0  0  0  0  0  0  0  0  0  0
   56.6410   19.7230   43.7530 H   0  0  0  0  0  0  0  0  0  0  0  0
  1  2  2  0
  2  3  1  0
  3  4  1  0
  4  5  1  0
  5  6  1  0
  6  7  1  0
  7  8  1  0
  8  9  1  0
  9 10  2  0
  9 11  1  0
 11 12  1  0
 12 13  1  0
 13 14  2  0
 13 15  1  0
 15 16  1  0
 16 17  1  0
 17 18  2  0
 18 19  1  0
 19 20  2  0
 20 21  1  0
 21 22  2  0
  4 23  2  0
 23 24  1  0
 24 25  2  0
 24 26  1  0
 26 27  1  0
 27 28  1  0
 27  3  2  0
 12  7  2  0
 22 17  1  0
  1 29  1  0
  1 30  1  0
  2 31  1  0
  6 32  1  0
  6 33  1  0
  8 34  1  0
 11 35  1  0
 15 36  1  0
 15 37  1  0
 16 38  1  0
 16 39  1  0
 18 40  1  0
 19 41  1  0
 20 42  1  0
 21 43  1  0
 22 44  1  0
 26 45  1  0
 28 46  1  0
M  END
>  <smiles>  (77) 
C=Cc1c(SCc2[nH]c(=O)[nH]c2C(=O)CCc2ccccc2)nc(=O)[nH]c1O

>  <score_type>  (77) 
oracle

>  <origin>  (77) 
adg

>  <m_score__min__energy>  (77) 
-9.6199999999999992

>  <m_primary>  (77) 
energy

$$$$
77:0
     RDKit          3D

 35 37  0  0  0  0  0  0  0  0999 V2000
   58.8573   31.9807   48.2676 H   0  0  0  0  0  0  0  0  0  0  0  0
   58.5800   32.3180   47.2580 C   0  0  0  0  0  0  0  0  0  0  0  0
   57.7730   31.5480   46.4840 N   0  0  0  0  0  0  0  0  0  0  0  0
   57.4120   31.9380   45.2330 C   0  0  0  0  0  0  0  0  0  0  0  0
   56.6370   31.1640   44.5310 N   0  0  0  0  0  0  0  0  0  0  0  0
   56.3650   29.7560   44.6720 C   0  0  0  0  0  0  0  0  0  0  0  0
   55.1630   29.3930   44.7690 O   0  0  0  0  0  0  0  0  0  0  0  0
   57.4280   28.6890   44.6720 C   0  0  0  0  0  0  0  0  0  0  0  0
   57.1670   27.9229   43.9270 H   0  0  0  0  0  0  0  0  0  0  0  0
   58.3917   29.1586   44.4255 H   0  0  0  0  0  0  0  0  0  0  0  0
   57.5740   27.8980   46.3140 S   0  0  0  0  0  0  0  0  0  0  0  0
   56.8510   26.3440   45.7960 C   0  0  0  0  0  0  0  0  0  0  0  0
   55.5210   26.1110   45.9970 N   0  0  0  0  0  0  0  0  0  0  0  0
   54.9480   24.9390   45.6060 C   0  0  0  0  0  0  0  0  0  0  0  0
   53.7190   24.7400   45.7940 O   0  0  0  0  0  0  0  0  0  0  0  0
   55.7460   23.9730   44.9950 C   0  0  0  0  0  0  0  0  0  0  0  0
   57.0730   24.2250   44.8100 C   0  0  0  0  0  0  0  0  0  0  0  0
   57.6330   25.3960   45.2040 N   0  0  0  0  0  0  0  0  0  0  0  0
   57.7810   23.1080   44.1510 C   0  0  0  0  0  0  0  0  0  0  0  0
   58.2147   23.4289   43.1924 H   0  0  0  0  0  0  0  0  0  0  0  0
   58.6221   22.7241   44.7469 H   0  0  0  0  0  0  0  0  0  0  0  0
   56.6730   22.0560   43.9300 C   0  0  0  0  0  0  0  0  0  0  0  0
   56.5649   21.8456   42.8557 H   0  0  0  0  0  0  0  0  0  0  0  0
   56.9262   21.1161   44.4423 H   0  0  0  0  0  0  0  0  0  0  0  0
   55.3560   22.6380   44.4870 C   0  0  0  0  0  0  0  0  0  0  0  0
   54.6000   22.7265   43.6929 H   0  0  0  0  0  0  0  0  0  0  0  0
   54.9053   22.0026   45.2636 H   0  0  0  0  0  0  0  0  0  0  0  0
   57.8730   33.1210   44.7470 N   0  0  0  0  0  0  0  0  0  0  0  0
   58.6830   33.9300   45.4810 C   0  0  0  0  0  0  0  0  0  0  0  0
   59.1520   35.2240   44.8900 C   0  0  0  0  0  0  0  0  0  0  0  0
   59.4062   35.9255   45.6983 H   0  0  0  0  0  0  0  0  0  0  0  0
   60.0415   35.0424   44.2689 H   0  0  0  0  0  0  0  0  0  0  0  0
   58.3527   35.6545   44.2689 H   0  0  0  0  0  0  0  0  0  0  0  0
   59.0580   33.5360   46.7750 C   0  0  0  0  0  0  0  0  0  0  0  0
   60.1020   34.5250   47.7880 Cl  0  0  0  0  0  0  0  0  0  0  0  0
  1  2  1  0
  2  3  1  0
  3  4  1  0
  4  5  2  0
  5  6  1  0
  6  7  2  0
  6  8  1  0
  8  9  1  0
  8 10  1  0
  8 11  1  0
 11 12  1  0
 12 13  2  0
 13 14  1  0
 14 15  2  0
 14 16  1  0
 16 17  2  0
 17 18  1  0
 17 19  1  0
 19 20  1  0
 19 21  1  0
 19 22  1  0
 22 23  1  0
 22 24  1  0
 22 25  1  0
 25 26  1  0
 25 27  1  0
  4 28  1  0
 28 29  2  0
 29 30  1  0
 30 31  1  0
 30 32  1  0
 30 33  1  0
 29 34  1  0
 34 35  1  0
 34  2  2  0
 18 12  1  0
 25 16  1  0
M  CHG  2   3  -1  18  -1
M  END
>  <UniqueID>  (78) 
72

>  <SMILES>  (78) 
Cc1n/c(=N\C(=O)CSc2nc(=O)c3c([n-]2)CCC3)[n-]cc1Cl

>  <Energy>  (78) 
47.06479143082466

>  <Genealogy>  (78) 
Cc1nc(=NC(=O)CSc2nc(=O)c3c([n-]2)CCC3)[n-]cc1Cl (protonated)
Cc1n/c(=N\C(=O)CSc2nc(=O)c3c([n-]2)CCC3)[n-]cc1Cl (cis-trans isomerization)
Cc1n/c(=N\C(=O)CSc2nc(=O)c3c([n-]2)CCC3)[n-]cc1Cl (3D coordinates assigned)
Cc1n/c(=N\C(=O)CSc2nc(=O)c3c([n-]2)CCC3)[n-]cc1Cl (nonaromatic ring conformer: 47.06479143082466 kcal/mol)

>  <smiles>  (78) 
Cc1nc(=NC(=O)CSc2nc(=O)c3c([nH]2)CCC3)[nH]cc1Cl

>  <score_type>  (78) 
oracle

>  <origin>  (78) 
adg

>  <m_score__min__energy>  (78) 
-11.550000000000001

>  <m_primary>  (78) 
energy

$$$$
78:0
     RDKit          3D

 56 59  0  0  0  0  0  0  0  0999 V2000
   51.8600   28.3660   52.4360 O   0  0  0  0  0  0  0  0  0  0  0  0
   52.2400   29.4810   52.8810 C   0  0  0  0  0  0  0  0  0  0  0  0
   53.2260   29.5020   53.9230 N   0  0  0  0  0  0  0  0  0  0  0  0
   54.4780   30.2610   53.9230 C   0  0  0  0  0  0  0  0  0  0  0  0
   55.6630   29.2870   54.0960 C   0  0  0  0  0  0  0  0  0  0  0  0
   56.2150   28.8320   52.7370 C   0  0  0  0  0  0  0  0  0  0  0  0
   56.6920   29.9710   51.9140 N   0  0  0  0  0  0  0  0  0  0  0  0
   58.1640   30.0460   51.7620 C   0  0  0  0  0  0  0  0  0  0  0  0
   58.6140   30.7560   50.5000 C   0  0  0  0  0  0  0  0  0  0  0  0
   58.6970   32.1560   50.4570 C   0  0  0  0  0  0  0  0  0  0  0  0
   59.1020   32.8060   49.2890 C   0  0  0  0  0  0  0  0  0  0  0  0
   59.4440   32.0700   48.1420 C   0  0  0  0  0  0  0  0  0  0  0  0
   59.8990   32.7890   46.8840 C   0  0  0  0  0  0  0  0  0  0  0  0
   60.5280   34.1790   47.1930 C   0  0  0  0  0  0  0  0  0  0  0  0
   59.6520   35.3500   46.7270 C   0  0  0  0  0  0  0  0  0  0  0  0
   59.3350   35.2630   45.2230 C   0  0  0  0  0  0  0  0  0  0  0  0
   59.0970   33.8230   44.7180 C   0  0  0  0  0  0  0  0  0  0  0  0
   58.7480   32.8590   45.8560 C   0  0  0  0  0  0  0  0  0  0  0  0
   59.3980   30.6660   48.1990 C   0  0  0  0  0  0  0  0  0  0  0  0
   58.9910   30.0160   49.3680 C   0  0  0  0  0  0  0  0  0  0  0  0
   56.0600   31.2770   52.2140 C   0  0  0  0  0  0  0  0  0  0  0  0
   54.5960   31.1000   52.6260 C   0  0  0  0  0  0  0  0  0  0  0  0
   51.6790   30.7070   52.2880 C   0  0  0  0  0  0  0  0  0  0  0  0
   51.6620   31.0680   50.9520 C   0  0  0  0  0  0  0  0  0  0  0  0
   51.1360   32.3000   50.7970 N   0  0  0  0  0  0  0  0  0  0  0  0
   50.8320   32.7110   52.0430 C   0  0  0  0  0  0  0  0  0  0  0  0
   50.2670   33.9490   52.3190 O   0  0  0  0  0  0  0  0  0  0  0  0
   51.1590   31.7720   52.9930 C   0  0  0  0  0  0  0  0  0  0  0  0
   54.4911   30.9676   54.7660 H   0  0  0  0  0  0  0  0  0  0  0  0
   56.4632   29.7924   54.6566 H   0  0  0  0  0  0  0  0  0  0  0  0
   55.3065   28.4000   54.6403 H   0  0  0  0  0  0  0  0  0  0  0  0
   57.0553   28.1432   52.9089 H   0  0  0  0  0  0  0  0  0  0  0  0
   55.3980   28.3394   52.1893 H   0  0  0  0  0  0  0  0  0  0  0  0
   58.5750   30.5850   52.6284 H   0  0  0  0  0  0  0  0  0  0  0  0
   58.5322   29.0115   51.6960 H   0  0  0  0  0  0  0  0  0  0  0  0
   58.4413   32.7459   51.3496 H   0  0  0  0  0  0  0  0  0  0  0  0
   59.1537   33.9046   49.2669 H   0  0  0  0  0  0  0  0  0  0  0  0
   60.7089   32.2013   46.4271 H   0  0  0  0  0  0  0  0  0  0  0  0
   60.6764   34.2629   48.2797 H   0  0  0  0  0  0  0  0  0  0  0  0
   61.4787   34.2398   46.6431 H   0  0  0  0  0  0  0  0  0  0  0  0
   58.7079   35.3352   47.2914 H   0  0  0  0  0  0  0  0  0  0  0  0
   60.2051   36.2837   46.9066 H   0  0  0  0  0  0  0  0  0  0  0  0
   58.4287   35.8541   45.0249 H   0  0  0  0  0  0  0  0  0  0  0  0
   60.2150   35.6488   44.6875 H   0  0  0  0  0  0  0  0  0  0  0  0
   58.2670   33.8338   43.9962 H   0  0  0  0  0  0  0  0  0  0  0  0
   60.0293   33.4709   44.2523 H   0  0  0  0  0  0  0  0  0  0  0  0
   57.8350   33.2099   46.3594 H   0  0  0  0  0  0  0  0  0  0  0  0
   58.5892   31.8558   45.4337 H   0  0  0  0  0  0  0  0  0  0  0  0
   59.6844   30.0743   47.3170 H   0  0  0  0  0  0  0  0  0  0  0  0
   58.9660   28.9168   49.4011 H   0  0  0  0  0  0  0  0  0  0  0  0
   56.6083   31.7610   53.0356 H   0  0  0  0  0  0  0  0  0  0  0  0
   56.0947   31.8982   51.3069 H   0  0  0  0  0  0  0  0  0  0  0  0
   54.1489   32.0904   52.7971 H   0  0  0  0  0  0  0  0  0  0  0  0
   54.0679   30.5710   51.8190 H   0  0  0  0  0  0  0  0  0  0  0  0
   52.0276   30.4363   50.1290 H   0  0  0  0  0  0  0  0  0  0  0  0
   51.0327   31.8531   54.0827 H   0  0  0  0  0  0  0  0  0  0  0  0
  1  2  2  0
  2  3  1  0
  3  4  1  0
  4  5  1  0
  5  6  1  0
  6  7  1  0
  7  8  1  0
  8  9  1  0
  9 10  2  0
 10 11  1  0
 11 12  2  0
 12 13  1  0
 13 14  1  0
 14 15  1  0
 15 16  1  0
 16 17  1  0
 17 18  1  0
 12 19  1  0
 19 20  2  0
  7 21  1  0
 21 22  1  0
  2 23  1  0
 23 24  2  0
 24 25  1  0
 25 26  1  0
 26 27  1  0
 26 28  2  0
 22  4  1  0
 28 23  1  0
 20  9  1  0
 18 13  1  0
  4 29  1  0
  5 30  1  0
  5 31  1  0
  6 32  1  0
  6 33  1  0
  8 34  1  0
  8 35  1  0
 10 36  1  0
 11 37  1  0
 13 38  1  0
 14 39  1  0
 14 40  1  0
 15 41  1  0
 15 42  1  0
 16 43  1  0
 16 44  1  0
 17 45  1  0
 17 46  1  0
 18 47  1  0
 18 48  1  0
 19 49  1  0
 20 50  1  0
 21 51  1  0
 21 52  1  0
 22 53  1  0
 22 54  1  0
 24 55  1  0
 28 56  1  0
M  CHG  3   3  -1  25  -1  27  -1
M  END
>  <UniqueID>  (79) 
73

>  <SMILES>  (79) 
O=C([N-]C1CCN(Cc2ccc(C3CCCCC3)cc2)CC1)c1c[n-]c([O-])c1

>  <Energy>  (79) 
99.6348895465645

>  <Genealogy>  (79) 
O=C([N-]C1CCN(Cc2ccc(C3CCCCC3)cc2)CC1)c1c[n-]c([O-])c1 (protonated)
O=C([N-]C1CCN(Cc2ccc(C3CCCCC3)cc2)CC1)c1c[n-]c([O-])c1 (3D coordinates assigned)
O=C([N-]C1CCN(Cc2ccc(C3CCCCC3)cc2)CC1)c1c[n-]c([O-])c1 (nonaromatic ring conformer: 99.6348895465645 kcal/mol)

>  <smiles>  (79) 
O=C(NC1CCN(Cc2ccc(C3CCCCC3)cc2)CC1)c1c[nH]c(O)c1

>  <score_type>  (79) 
oracle

>  <origin>  (79) 
adg

>  <m_score__min__energy>  (79) 
-17.489999999999998

>  <m_primary>  (79) 
energy

$$$$
79:0
     RDKit          3D

 54 56  0  0  0  0  0  0  0  0999 V2000
   61.7910   33.8660   46.3740 C   0  0  0  0  0  0  0  0  0  0  0  0
   60.8460   32.9860   47.2340 C   0  0  0  0  0  0  0  0  0  0  0  0
   61.0580   31.5130   46.8160 C   0  0  0  0  0  0  0  0  0  0  0  0
   61.2220   33.2280   48.7310 C   0  0  2  0  0  0  0  0  0  0  0  0
   62.5700   32.8970   48.9770 O   0  0  0  0  0  0  0  0  0  0  0  0
   60.2880   32.5180   49.7470 C   0  0  2  0  0  0  0  0  0  0  0  0
   60.5970   31.0090   49.9720 C   0  0  0  0  0  0  0  0  0  0  0  0
   59.3950   30.0950   49.6740 C   0  0  0  0  0  0  0  0  0  0  0  0
   59.7670   28.9300   48.7880 C   0  0  0  0  0  0  0  0  0  0  0  0
   59.5010   28.9750   47.4060 C   0  0  0  0  0  0  0  0  0  0  0  0
   59.8510   27.8970   46.5820 C   0  0  0  0  0  0  0  0  0  0  0  0
   60.4600   26.7620   47.1330 C   0  0  0  0  0  0  0  0  0  0  0  0
   60.7320   26.7130   48.5030 C   0  0  0  0  0  0  0  0  0  0  0  0
   60.3830   27.7890   49.3310 C   0  0  0  0  0  0  0  0  0  0  0  0
   58.8820   32.6930   49.3840 N   0  0  0  0  0  0  0  0  0  0  0  0
   58.4530   33.0280   48.0570 C   0  0  0  0  0  0  0  0  0  0  0  0
   57.2140   33.0630   47.8140 O   0  0  0  0  0  0  0  0  0  0  0  0
   59.4140   33.3470   47.0240 N   0  0  0  0  0  0  0  0  0  0  0  0
   58.9200   33.9370   45.7550 C   0  0  0  0  0  0  0  0  0  0  0  0
   58.3480   32.8830   44.8370 C   0  0  0  0  0  0  0  0  0  0  0  0
   58.4520   33.0230   43.4430 C   0  0  0  0  0  0  0  0  0  0  0  0
   57.9490   32.0350   42.5960 C   0  0  0  0  0  0  0  0  0  0  0  0
   57.3220   30.9030   43.1290 C   0  0  0  0  0  0  0  0  0  0  0  0
   57.1910   30.7510   44.5230 C   0  0  0  0  0  0  0  0  0  0  0  0
   56.5360   29.5450   45.0940 C   0  0  0  0  0  0  0  0  0  0  0  0
   55.1510   29.2910   44.8550 N   0  0  0  0  0  0  0  0  0  0  0  0
   57.2040   28.7260   45.7890 O   0  0  0  0  0  0  0  0  0  0  0  0
   57.7020   31.7520   45.3710 C   0  0  0  0  0  0  0  0  0  0  0  0
   62.4350   34.4657   47.0339 H   0  0  0  0  0  0  0  0  0  0  0  0
   62.4161   33.2208   45.7392 H   0  0  0  0  0  0  0  0  0  0  0  0
   61.1919   34.5354   45.7392 H   0  0  0  0  0  0  0  0  0  0  0  0
   61.1482   30.8860   47.7153 H   0  0  0  0  0  0  0  0  0  0  0  0
   60.1993   31.1744   46.2176 H   0  0  0  0  0  0  0  0  0  0  0  0
   61.9773   31.4303   46.2176 H   0  0  0  0  0  0  0  0  0  0  0  0
   61.0772   34.3060   48.8952 H   0  0  0  0  0  0  0  0  0  0  0  0
   62.6380   32.6630   49.9400 H   0  0  0  0  0  0  0  0  0  0  0  0
   60.4918   33.0147   50.7071 H   0  0  0  0  0  0  0  0  0  0  0  0
   61.4285   30.7199   49.3124 H   0  0  0  0  0  0  0  0  0  0  0  0
   60.8503   30.8812   51.0348 H   0  0  0  0  0  0  0  0  0  0  0  0
   59.0026   29.7052   50.6248 H   0  0  0  0  0  0  0  0  0  0  0  0
   58.6401   30.6939   49.1434 H   0  0  0  0  0  0  0  0  0  0  0  0
   59.0158   29.8612   46.9709 H   0  0  0  0  0  0  0  0  0  0  0  0
   59.6475   27.9420   45.5019 H   0  0  0  0  0  0  0  0  0  0  0  0
   60.7237   25.9106   46.4883 H   0  0  0  0  0  0  0  0  0  0  0  0
   61.2217   25.8269   48.9331 H   0  0  0  0  0  0  0  0  0  0  0  0
   60.5920   27.7403   50.4099 H   0  0  0  0  0  0  0  0  0  0  0  0
   58.1530   32.4820   50.1040 H   0  0  0  0  0  0  0  0  0  0  0  0
   58.1359   34.6734   45.9852 H   0  0  0  0  0  0  0  0  0  0  0  0
   59.7693   34.4139   45.2439 H   0  0  0  0  0  0  0  0  0  0  0  0
   58.9325   33.9162   43.0171 H   0  0  0  0  0  0  0  0  0  0  0  0
   58.0455   32.1461   41.5059 H   0  0  0  0  0  0  0  0  0  0  0  0
   56.9292   30.1274   42.4551 H   0  0  0  0  0  0  0  0  0  0  0  0
   54.4540   29.3530   45.6300 H   0  0  0  0  0  0  0  0  0  0  0  0
   57.5955   31.6493   46.4610 H   0  0  0  0  0  0  0  0  0  0  0  0
  1  2  1  0
  2  3  1  0
  2  4  1  0
  4  5  1  0
  4  6  1  0
  6  7  1  0
  7  8  1  0
  8  9  1  0
  9 10  2  0
 10 11  1  0
 11 12  2  0
 12 13  1  0
 13 14  2  0
  6 15  1  0
 15 16  1  0
 16 17  2  0
 16 18  1  0
 18 19  1  0
 19 20  1  0
 20 21  2  0
 21 22  1  0
 22 23  2  0
 23 24  1  0
 24 25  1  0
 25 26  1  0
 25 27  2  0
 24 28  2  0
 18  2  1  0
 28 20  1  0
 14  9  1  0
  1 29  1  0
  1 30  1  0
  1 31  1  0
  3 32  1  0
  3 33  1  0
  3 34  1  0
  4 35  1  1
  5 36  1  0
  6 37  1  1
  7 38  1  0
  7 39  1  0
  8 40  1  0
  8 41  1  0
 10 42  1  0
 11 43  1  0
 12 44  1  0
 13 45  1  0
 14 46  1  0
 15 47  1  0
 19 48  1  0
 19 49  1  0
 21 50  1  0
 22 51  1  0
 23 52  1  0
 26 53  1  0
 28 54  1  0
M  CHG  1  26  -1
M  END
>  <UniqueID>  (80) 
74

>  <SMILES>  (80) 
CC1(C)[C@H](O)[C@H](CCc2ccccc2)NC(=O)N1Cc1cccc(C([NH-])=O)c1

>  <Energy>  (80) 
59.213711826242935

>  <Genealogy>  (80) 
CC1(C)C(O)C(CCc2ccccc2)NC(=O)N1Cc1cccc(C([NH-])=O)c1 (protonated)
CC1(C)[C@H](O)[C@H](CCc2ccccc2)NC(=O)N1Cc1cccc(C([NH-])=O)c1 (chirality)
CC1(C)[C@H](O)[C@H](CCc2ccccc2)NC(=O)N1Cc1cccc(C([NH-])=O)c1 (3D coordinates assigned)
CC1(C)[C@H](O)[C@H](CCc2ccccc2)NC(=O)N1Cc1cccc(C([NH-])=O)c1 (nonaromatic ring conformer: 59.213711826242935 kcal/mol)

>  <smiles>  (80) 
CC1(C)C(O)C(CCc2ccccc2)NC(=O)N1Cc1cccc(C(N)=O)c1

>  <score_type>  (80) 
oracle

>  <origin>  (80) 
adg

>  <m_score__min__energy>  (80) 
-12.48

>  <m_primary>  (80) 
energy

$$$$
80:0
     RDKit          3D

 52 56  0  0  0  0  0  0  0  0999 V2000
   60.6160   29.6340   45.8450 C   0  0  0  0  0  0  0  0  0  0  0  0
   59.9170   29.2770   44.5400 C   0  0  0  0  0  0  0  0  0  0  0  0
   58.5220   28.9010   44.7960 N   0  0  0  0  0  0  0  0  0  0  0  0
   58.0950   27.7720   45.4110 C   0  0  0  0  0  0  0  0  0  0  0  0
   58.8460   26.7270   45.9540 C   0  0  0  0  0  0  0  0  0  0  0  0
   58.1500   25.6560   46.5430 C   0  0  0  0  0  0  0  0  0  0  0  0
   56.7350   25.6460   46.5930 C   0  0  0  0  0  0  0  0  0  0  0  0
   56.0730   24.5300   47.2050 N   0  0  0  0  0  0  0  0  0  0  0  0
   55.5070   23.4040   46.5210 C   0  0  0  0  0  0  0  0  0  0  0  0
   54.5680   22.7700   47.0710 O   0  0  0  0  0  0  0  0  0  0  0  0
   55.9250   23.0370   45.1470 C   0  0  0  0  0  0  0  0  0  0  0  0
   55.0620   23.3570   44.0850 C   0  0  0  0  0  0  0  0  0  0  0  0
   55.3670   22.9730   42.7780 C   0  0  0  0  0  0  0  0  0  0  0  0
   56.5310   22.2570   42.5160 C   0  0  0  0  0  0  0  0  0  0  0  0
   57.4050   21.9340   43.5550 C   0  0  0  0  0  0  0  0  0  0  0  0
   57.1280   22.3280   44.8770 C   0  0  0  0  0  0  0  0  0  0  0  0
   58.1400   22.0330   45.9220 C   0  0  0  0  0  0  0  0  0  0  0  0
   59.3530   22.3240   45.7500 O   0  0  0  0  0  0  0  0  0  0  0  0
   57.7670   21.3790   47.0900 O   0  0  0  0  0  0  0  0  0  0  0  0
   56.0040   26.7050   46.0030 C   0  0  0  0  0  0  0  0  0  0  0  0
   56.7250   27.7470   45.4310 C   0  0  0  0  0  0  0  0  0  0  0  0
   56.3390   28.9010   44.7910 C   0  0  0  0  0  0  0  0  0  0  0  0
   55.1530   29.2810   44.6000 O   0  0  0  0  0  0  0  0  0  0  0  0
   57.4430   29.5820   44.4000 N   0  0  0  0  0  0  0  0  0  0  0  0
   57.4460   30.8890   43.7360 C   0  0  0  0  0  0  0  0  0  0  0  0
   57.9400   31.9390   44.6790 C   0  0  0  0  0  0  0  0  0  0  0  0
   57.9100   31.7810   46.0290 N   0  0  0  0  0  0  0  0  0  0  0  0
   58.4520   32.9270   46.4650 C   0  0  0  0  0  0  0  0  0  0  0  0
   58.6770   33.3160   47.7840 C   0  0  0  0  0  0  0  0  0  0  0  0
   59.2670   34.5760   48.0000 C   0  0  0  0  0  0  0  0  0  0  0  0
   59.6120   35.4020   46.9050 C   0  0  0  0  0  0  0  0  0  0  0  0
   59.3710   34.9720   45.5860 C   0  0  0  0  0  0  0  0  0  0  0  0
   58.7850   33.7210   45.4110 C   0  0  0  0  0  0  0  0  0  0  0  0
   58.4700   33.1160   44.2570 N   0  0  0  0  0  0  0  0  0  0  0  0
   59.9928   29.3157   46.6937 H   0  0  0  0  0  0  0  0  0  0  0  0
   61.5886   29.1222   45.8920 H   0  0  0  0  0  0  0  0  0  0  0  0
   60.7715   30.7219   45.8920 H   0  0  0  0  0  0  0  0  0  0  0  0
   59.9408   30.1460   43.8660 H   0  0  0  0  0  0  0  0  0  0  0  0
   60.4376   28.4262   44.0763 H   0  0  0  0  0  0  0  0  0  0  0  0
   59.9454   26.7411   45.9221 H   0  0  0  0  0  0  0  0  0  0  0  0
   58.7133   24.8137   46.9711 H   0  0  0  0  0  0  0  0  0  0  0  0
   54.1362   23.9161   44.2858 H   0  0  0  0  0  0  0  0  0  0  0  0
   54.6867   23.2366   41.9547 H   0  0  0  0  0  0  0  0  0  0  0  0
   56.7629   21.9447   41.4871 H   0  0  0  0  0  0  0  0  0  0  0  0
   58.3209   21.3649   43.3379 H   0  0  0  0  0  0  0  0  0  0  0  0
   54.9040   26.7035   45.9973 H   0  0  0  0  0  0  0  0  0  0  0  0
   58.1055   30.8495   42.8565 H   0  0  0  0  0  0  0  0  0  0  0  0
   56.4214   31.1377   43.4224 H   0  0  0  0  0  0  0  0  0  0  0  0
   58.4037   32.6626   48.6256 H   0  0  0  0  0  0  0  0  0  0  0  0
   59.4608   34.9201   49.0267 H   0  0  0  0  0  0  0  0  0  0  0  0
   60.0710   36.3854   47.0847 H   0  0  0  0  0  0  0  0  0  0  0  0
   59.6363   35.6021   44.7242 H   0  0  0  0  0  0  0  0  0  0  0  0
  1  2  1  0
  2  3  1  0
  3  4  1  0
  4  5  2  0
  5  6  1  0
  6  7  2  0
  7  8  1  0
  8  9  1  0
  9 10  2  0
  9 11  1  0
 11 12  2  0
 12 13  1  0
 13 14  2  0
 14 15  1  0
 15 16  2  0
 16 17  1  0
 17 18  2  0
 17 19  1  0
  7 20  1  0
 20 21  2  0
 21 22  1  0
 22 23  2  0
 22 24  1  0
 24 25  1  0
 25 26  1  0
 26 27  2  0
 27 28  1  0
 28 29  2  0
 29 30  1  0
 30 31  2  0
 31 32  1  0
 32 33  2  0
 33 34  1  0
 24  3  1  0
 34 26  1  0
 21  4  1  0
 33 28  1  0
 16 11  1  0
  1 35  1  0
  1 36  1  0
  1 37  1  0
  2 38  1  0
  2 39  1  0
  5 40  1  0
  6 41  1  0
 12 42  1  0
 13 43  1  0
 14 44  1  0
 15 45  1  0
 20 46  1  0
 25 47  1  0
 25 48  1  0
 29 49  1  0
 30 50  1  0
 31 51  1  0
 32 52  1  0
M  CHG  3   8  -1  19  -1  34  -1
M  END
>  <UniqueID>  (81) 
75

>  <SMILES>  (81) 
CCn1c2ccc([N-]C(=O)c3ccccc3C(=O)[O-])cc2c(=O)n1Cc1nc2ccccc2[n-]1

>  <Energy>  (81) 
143.52804937224982

>  <Genealogy>  (81) 
CCn1c2ccc([N-]C(=O)c3ccccc3C(=O)[O-])cc2c(=O)n1Cc1nc2ccccc2[n-]1 (protonated)
CCn1c2ccc([N-]C(=O)c3ccccc3C(=O)[O-])cc2c(=O)n1Cc1nc2ccccc2[n-]1 (3D coordinates assigned)
CCn1c2ccc([N-]C(=O)c3ccccc3C(=O)[O-])cc2c(=O)n1Cc1nc2ccccc2[n-]1 (optimized conformer: 143.52804937224982 kcal/mol)

>  <smiles>  (81) 
CCn1c2ccc(NC(=O)c3ccccc3C(=O)O)cc2c(=O)n1Cc1nc2ccccc2[nH]1

>  <score_type>  (81) 
oracle

>  <origin>  (81) 
adg

>  <m_score__min__energy>  (81) 
-14.609999999999999

>  <m_primary>  (81) 
energy

$$$$
81:0
     RDKit          3D

 56 60  0  0  0  0  0  0  0  0999 V2000
   55.2130   29.3280   42.6020 H   0  0  0  0  0  0  0  0  0  0  0  0
   55.1140   29.7320   43.5610 N   0  0  0  0  0  0  0  0  0  0  0  0
   56.1220   29.8860   44.3590 C   0  0  0  0  0  0  0  0  0  0  0  0
   56.6860   28.7940   44.9400 N   0  0  0  0  0  0  0  0  0  0  0  0
   57.7490   28.8980   45.7790 C   0  0  0  0  0  0  0  0  0  0  0  0
   58.1802   27.9932   46.2322 H   0  0  0  0  0  0  0  0  0  0  0  0
   58.2960   30.1490   46.0680 C   0  0  0  0  0  0  0  0  0  0  0  0
   59.1544   30.2331   46.7507 H   0  0  0  0  0  0  0  0  0  0  0  0
   57.7450   31.2980   45.4830 C   0  0  0  0  0  0  0  0  0  0  0  0
   58.3210   32.6360   45.7520 C   0  0  0  0  0  0  0  0  0  0  0  0
   58.7220   33.4860   44.6990 C   0  0  0  0  0  0  0  0  0  0  0  0
   58.5709   33.1753   43.6547 H   0  0  0  0  0  0  0  0  0  0  0  0
   59.3170   34.7350   44.9840 C   0  0  0  0  0  0  0  0  0  0  0  0
   59.6117   35.3992   44.1582 H   0  0  0  0  0  0  0  0  0  0  0  0
   59.5300   35.1260   46.2760 N   0  0  0  0  0  0  0  0  0  0  0  0
   59.1390   34.3090   47.2850 C   0  0  0  0  0  0  0  0  0  0  0  0
   58.5440   33.1000   47.0550 C   0  0  0  0  0  0  0  0  0  0  0  0
   58.3660   32.5040   48.2840 C   0  0  0  0  0  0  0  0  0  0  0  0
   57.9150   31.5218   48.4887 H   0  0  0  0  0  0  0  0  0  0  0  0
   58.8790   33.4100   49.2160 C   0  0  0  0  0  0  0  0  0  0  0  0
   59.0780   33.1450   50.6940 C   0  0  0  0  0  0  0  0  0  0  0  0
   58.6748   34.0116   51.2385 H   0  0  0  0  0  0  0  0  0  0  0  0
   58.2770   31.9110   51.1940 C   0  0  0  0  0  0  0  0  0  0  0  0
   57.7994   32.1710   52.1502 H   0  0  0  0  0  0  0  0  0  0  0  0
   57.5435   31.6652   50.4120 H   0  0  0  0  0  0  0  0  0  0  0  0
   59.1450   30.6550   51.4090 C   0  0  0  0  0  0  0  0  0  0  0  0
   59.5480   30.6674   52.4325 H   0  0  0  0  0  0  0  0  0  0  0  0
   58.5178   29.7651   51.2519 H   0  0  0  0  0  0  0  0  0  0  0  0
   60.2620   30.6150   50.4530 N   0  0  0  0  0  0  0  0  0  0  0  0
   60.4390   29.5030   49.5550 C   0  0  0  0  0  0  0  0  0  0  0  0
   59.7370   28.4620   49.6840 O   0  0  0  0  0  0  0  0  0  0  0  0
   61.3720   29.5940   48.5140 O   0  0  0  0  0  0  0  0  0  0  0  0
   61.1800   30.4050   47.3570 C   0  0  0  0  0  0  0  0  0  0  0  0
   61.4271   29.8190   46.4595 H   0  0  0  0  0  0  0  0  0  0  0  0
   60.1297   30.7299   47.3214 H   0  0  0  0  0  0  0  0  0  0  0  0
   62.0620   31.6200   47.4120 C   0  0  0  0  0  0  0  0  0  0  0  0
   61.7190   32.7870   46.7090 C   0  0  0  0  0  0  0  0  0  0  0  0
   60.7923   32.8179   46.1172 H   0  0  0  0  0  0  0  0  0  0  0  0
   62.5520   33.9100   46.7590 C   0  0  0  0  0  0  0  0  0  0  0  0
   62.2785   34.8220   46.2082 H   0  0  0  0  0  0  0  0  0  0  0  0
   63.7310   33.8740   47.5080 C   0  0  0  0  0  0  0  0  0  0  0  0
   64.3851   34.7576   47.5461 H   0  0  0  0  0  0  0  0  0  0  0  0
   64.0800   32.7160   48.2090 C   0  0  0  0  0  0  0  0  0  0  0  0
   65.0085   32.6891   48.7981 H   0  0  0  0  0  0  0  0  0  0  0  0
   63.2500   31.5920   48.1620 C   0  0  0  0  0  0  0  0  0  0  0  0
   63.5280   30.6822   48.7142 H   0  0  0  0  0  0  0  0  0  0  0  0
   61.1850   31.7590   50.3790 C   0  0  0  0  0  0  0  0  0  0  0  0
   62.1156   31.5016   50.9060 H   0  0  0  0  0  0  0  0  0  0  0  0
   61.3812   31.9750   49.3184 H   0  0  0  0  0  0  0  0  0  0  0  0
   60.5790   33.0170   51.0220 C   0  0  0  0  0  0  0  0  0  0  0  0
   60.7037   32.9573   52.1133 H   0  0  0  0  0  0  0  0  0  0  0  0
   61.0993   33.8984   50.6189 H   0  0  0  0  0  0  0  0  0  0  0  0
   59.3540   34.5150   48.5930 N   0  0  0  0  0  0  0  0  0  0  0  0
   59.8410   35.3290   49.0300 H   0  0  0  0  0  0  0  0  0  0  0  0
   56.6410   31.1630   44.6260 C   0  0  0  0  0  0  0  0  0  0  0  0
   56.1854   32.0525   44.1665 H   0  0  0  0  0  0  0  0  0  0  0  0
  1  2  1  0
  2  3  2  0
  3  4  1  0
  4  5  1  0
  5  6  1  0
  5  7  2  0
  7  8  1  0
  7  9  1  0
  9 10  1  0
 10 11  2  0
 11 12  1  0
 11 13  1  0
 13 14  1  0
 13 15  2  0
 15 16  1  0
 16 17  2  0
 17 18  1  0
 18 19  1  0
 18 20  2  0
 20 21  1  0
 21 22  1  0
 21 23  1  0
 23 24  1  0
 23 25  1  0
 23 26  1  0
 26 27  1  0
 26 28  1  0
 26 29  1  0
 29 30  1  0
 30 31  2  0
 30 32  1  0
 32 33  1  0
 33 34  1  0
 33 35  1  0
 33 36  1  0
 36 37  2  0
 37 38  1  0
 37 39  1  0
 39 40  1  0
 39 41  2  0
 41 42  1  0
 41 43  1  0
 43 44  1  0
 43 45  2  0
 45 46  1  0
 29 47  1  0
 47 48  1  0
 47 49  1  0
 47 50  1  0
 50 51  1  0
 50 52  1  0
 20 53  1  0
 53 54  1  0
  9 55  2  0
 55 56  1  0
 55  3  1  0
 17 10  1  0
 50 21  1  0
 53 16  1  0
 45 36  1  0
M  CHG  1   4  -1
M  END
>  <UniqueID>  (82) 
76

>  <SMILES>  (82) 
[H]/N=c1\cc(-c2ccnc3[nH]c(C4CCN(C(=O)OCc5ccccc5)CC4)cc23)cc[n-]1

>  <Energy>  (82) 
101.06128842640773

>  <Genealogy>  (82) 
N=c1cc(-c2ccnc3[nH]c(C4CCN(C(=O)OCc5ccccc5)CC4)cc23)cc[n-]1 (protonated)
[H]/N=c1\cc(-c2ccnc3[nH]c(C4CCN(C(=O)OCc5ccccc5)CC4)cc23)cc[n-]1 (cis-trans isomerization)
[H]/N=c1\cc(-c2ccnc3[nH]c(C4CCN(C(=O)OCc5ccccc5)CC4)cc23)cc[n-]1 (3D coordinates assigned)
[H]/N=c1\cc(-c2ccnc3[nH]c(C4CCN(C(=O)OCc5ccccc5)CC4)cc23)cc[n-]1 (nonaromatic ring conformer: 101.06128842640773 kcal/mol)

>  <smiles>  (82) 
N=c1cc(-c2ccnc3[nH]c(C4CCN(C(=O)OCc5ccccc5)CC4)cc23)cc[nH]1

>  <score_type>  (82) 
oracle

>  <origin>  (82) 
adg

>  <m_score__min__energy>  (82) 
-12.23

>  <m_primary>  (82) 
energy

$$$$
82:0
     RDKit          3D

 36 39  0  0  0  0  0  0  0  0999 V2000
   58.7020   31.1720   44.5560 H   0  0  0  0  0  0  0  0  0  0  0  0
   58.9090   30.2500   44.9140 O   0  0  0  0  0  0  0  0  0  0  0  0
   57.9540   29.2520   45.1350 C   0  0  0  0  0  0  0  0  0  0  0  0
   58.2850   27.9580   45.6190 C   0  0  0  0  0  0  0  0  0  0  0  0
   59.7220   27.5480   45.9000 C   0  0  0  0  0  0  0  0  0  0  0  0
   59.8372   26.4757   45.6834 H   0  0  0  0  0  0  0  0  0  0  0  0
   60.3850   28.1487   45.2600 H   0  0  0  0  0  0  0  0  0  0  0  0
   60.0950   27.8010   47.3410 C   0  0  0  0  0  0  0  0  0  0  0  0
   60.3770   26.7300   48.2070 C   0  0  0  0  0  0  0  0  0  0  0  0
   60.3007   25.6954   47.8412 H   0  0  0  0  0  0  0  0  0  0  0  0
   60.7540   26.9740   49.5310 C   0  0  0  0  0  0  0  0  0  0  0  0
   60.9818   26.1318   50.2009 H   0  0  0  0  0  0  0  0  0  0  0  0
   60.8420   28.2850   50.0050 C   0  0  0  0  0  0  0  0  0  0  0  0
   61.1459   28.4747   51.0450 H   0  0  0  0  0  0  0  0  0  0  0  0
   60.5440   29.3550   49.1580 C   0  0  0  0  0  0  0  0  0  0  0  0
   60.6087   30.3869   49.5335 H   0  0  0  0  0  0  0  0  0  0  0  0
   60.1640   29.1170   47.8350 C   0  0  0  0  0  0  0  0  0  0  0  0
   59.9174   29.9625   47.1760 H   0  0  0  0  0  0  0  0  0  0  0  0
   57.2320   27.0450   45.8860 C   0  0  0  0  0  0  0  0  0  0  0  0
   57.5000   25.7100   46.4560 C   0  0  0  0  0  0  0  0  0  0  0  0
   57.7388   25.6246   47.5264 H   0  0  0  0  0  0  0  0  0  0  0  0
   57.4610   24.6010   45.7090 C   0  0  0  0  0  0  0  0  0  0  0  0
   56.3610   23.7720   45.4250 C   0  0  0  0  0  0  0  0  0  0  0  0
   55.3103   24.0255   45.6294 H   0  0  0  0  0  0  0  0  0  0  0  0
   56.7880   22.6100   44.8600 N   0  0  0  0  0  0  0  0  0  0  0  0
   58.0880   22.7700   44.6910 N   0  0  0  0  0  0  0  0  0  0  0  0
   59.1070   21.9100   44.7930 C   0  0  0  0  0  0  0  0  0  0  0  0
   59.0847   20.8531   44.4890 H   0  0  0  0  0  0  0  0  0  0  0  0
   60.1740   22.5540   45.3330 N   0  0  0  0  0  0  0  0  0  0  0  0
   59.7960   23.8020   45.6280 N   0  0  0  0  0  0  0  0  0  0  0  0
   58.5230   23.8910   45.2060 C   0  0  0  0  0  0  0  0  0  0  0  0
   55.9070   27.4240   45.6200 C   0  0  0  0  0  0  0  0  0  0  0  0
   54.8580   26.5430   45.8590 O   0  0  0  0  0  0  0  0  0  0  0  0
   55.6370   28.6540   45.1220 N   0  0  0  0  0  0  0  0  0  0  0  0
   56.6130   29.5630   44.8770 C   0  0  0  0  0  0  0  0  0  0  0  0
   56.3020   30.6960   44.4260 O   0  0  0  0  0  0  0  0  0  0  0  0
  1  2  1  0
  2  3  1  0
  3  4  2  0
  4  5  1  0
  5  6  1  0
  5  7  1  0
  5  8  1  0
  8  9  2  0
  9 10  1  0
  9 11  1  0
 11 12  1  0
 11 13  2  0
 13 14  1  0
 13 15  1  0
 15 16  1  0
 15 17  2  0
 17 18  1  0
  4 19  1  0
 19 20  1  0
 20 21  1  0
 20 22  2  0
 22 23  1  0
 23 24  1  0
 23 25  2  0
 25 26  1  0
 26 27  1  0
 27 28  1  0
 27 29  2  0
 29 30  1  0
 30 31  2  0
 19 32  2  0
 32 33  1  0
 32 34  1  0
 34 35  1  0
 35 36  2  0
 35  3  1  0
 17  8  1  0
 31 22  1  0
 31 26  1  0
M  CHG  2  33  -1  34  -1
M  END
>  <UniqueID>  (83) 
77

>  <SMILES>  (83) 
O=c1[n-]c([O-])c(/C=c2\cnn3cnnc23)c(Cc2ccccc2)c1O

>  <Energy>  (83) 
149.1976841245261

>  <Genealogy>  (83) 
O=c1[n-]c([O-])c(C=c2cnn3cnnc23)c(Cc2ccccc2)c1O (protonated)
O=c1[n-]c([O-])c(/C=c2\cnn3cnnc23)c(Cc2ccccc2)c1O (cis-trans isomerization)
O=c1[n-]c([O-])c(/C=c2\cnn3cnnc23)c(Cc2ccccc2)c1O (3D coordinates assigned)
O=c1[n-]c([O-])c(/C=c2\cnn3cnnc23)c(Cc2ccccc2)c1O (optimized conformer: 149.1976841245261 kcal/mol)

>  <smiles>  (83) 
O=c1[nH]c(O)c(C=c2cnn3cnnc23)c(Cc2ccccc2)c1O

>  <score_type>  (83) 
oracle

>  <origin>  (83) 
adg

>  <m_score__min__energy>  (83) 
-12.609999999999999

>  <m_primary>  (83) 
energy

$$$$
83:0
     RDKit          3D

 55 58  0  0  0  0  0  0  0  0999 V2000
   56.6110   23.9530   43.5930 C   0  0  0  0  0  0  0  0  0  0  0  0
   56.5250   23.1150   44.8480 C   0  0  0  0  0  0  0  0  0  0  0  0
   56.5250   23.9640   46.1000 C   0  0  0  0  0  0  0  0  0  0  0  0
   57.3300   25.1400   46.0180 N   0  0  0  0  0  0  0  0  0  0  0  0
   58.6700   25.1680   45.9660 C   0  0  0  0  0  0  0  0  0  0  0  0
   59.3000   24.0950   45.9850 O   0  0  0  0  0  0  0  0  0  0  0  0
   59.3870   26.3080   45.8950 N   0  0  0  0  0  0  0  0  0  0  0  0
   58.7360   27.4830   45.8710 C   0  0  0  0  0  0  0  0  0  0  0  0
   59.1380   28.7770   45.8040 N   0  0  0  0  0  0  0  0  0  0  0  0
   58.1130   29.6090   45.8080 C   0  0  0  0  0  0  0  0  0  0  0  0
   58.0350   31.0640   45.7520 C   0  0  0  0  0  0  0  0  0  0  0  0
   58.8840   31.8640   46.5240 C   0  0  0  0  0  0  0  0  0  0  0  0
   58.8310   33.2400   46.4890 C   0  0  0  0  0  0  0  0  0  0  0  0
   59.9230   34.1810   47.4820 S   0  0  0  0  0  0  0  0  0  0  0  0
   59.4250   34.2720   48.9000 O   0  0  0  0  0  0  0  0  0  0  0  0
   59.9650   35.6180   46.9870 O   0  0  0  0  0  0  0  0  0  0  0  0
   61.5060   33.5930   47.5170 N   0  0  0  0  0  0  0  0  0  0  0  0
   62.3080   33.8410   46.3700 C   0  0  0  0  0  0  0  0  0  0  0  0
   63.7630   33.8160   46.8150 C   0  0  0  0  0  0  0  0  0  0  0  0
   64.0390   32.5450   47.4160 N   0  0  0  0  0  0  0  0  0  0  0  0
   63.1970   32.2360   48.5340 C   0  0  0  0  0  0  0  0  0  0  0  0
   61.7200   32.3660   48.2020 C   0  0  0  0  0  0  0  0  0  0  0  0
   57.9280   33.8980   45.6820 C   0  0  0  0  0  0  0  0  0  0  0  0
   57.0860   33.1220   44.9150 C   0  0  0  0  0  0  0  0  0  0  0  0
   57.1420   31.7440   44.9520 C   0  0  0  0  0  0  0  0  0  0  0  0
   56.2580   31.0430   44.1490 O   0  0  0  0  0  0  0  0  0  0  0  0
   56.6590   30.4690   42.9190 C   0  0  0  0  0  0  0  0  0  0  0  0
   57.0050   28.8260   45.8810 N   0  0  0  0  0  0  0  0  0  0  0  0
   57.3600   27.5380   45.9200 C   0  0  0  0  0  0  0  0  0  0  0  0
   56.6880   26.3370   45.9930 C   0  0  0  0  0  0  0  0  0  0  0  0
   55.4230   26.3830   46.0370 O   0  0  0  0  0  0  0  0  0  0  0  0
   56.7198   25.0129   43.8666 H   0  0  0  0  0  0  0  0  0  0  0  0
   57.4814   23.6363   42.9996 H   0  0  0  0  0  0  0  0  0  0  0  0
   55.6945   23.8197   42.9996 H   0  0  0  0  0  0  0  0  0  0  0  0
   55.5962   22.5264   44.8186 H   0  0  0  0  0  0  0  0  0  0  0  0
   57.4100   22.4625   44.8811 H   0  0  0  0  0  0  0  0  0  0  0  0
   55.4891   24.2706   46.3072 H   0  0  0  0  0  0  0  0  0  0  0  0
   56.9580   23.3436   46.8985 H   0  0  0  0  0  0  0  0  0  0  0  0
   60.4460   26.3090   45.8550 H   0  0  0  0  0  0  0  0  0  0  0  0
   60.1320   29.0370   45.7570 H   0  0  0  0  0  0  0  0  0  0  0  0
   59.6193   31.3775   47.1817 H   0  0  0  0  0  0  0  0  0  0  0  0
   62.1331   33.0615   45.6138 H   0  0  0  0  0  0  0  0  0  0  0  0
   62.0559   34.8145   45.9242 H   0  0  0  0  0  0  0  0  0  0  0  0
   64.4187   33.9637   45.9443 H   0  0  0  0  0  0  0  0  0  0  0  0
   63.9460   34.6213   47.5417 H   0  0  0  0  0  0  0  0  0  0  0  0
   63.9490   31.7630   46.7310 H   0  0  0  0  0  0  0  0  0  0  0  0
   63.3977   31.2022   48.8519 H   0  0  0  0  0  0  0  0  0  0  0  0
   63.4249   32.9560   49.3338 H   0  0  0  0  0  0  0  0  0  0  0  0
   61.4108   31.5271   47.5612 H   0  0  0  0  0  0  0  0  0  0  0  0
   61.1279   32.3496   49.1289 H   0  0  0  0  0  0  0  0  0  0  0  0
   57.8813   34.9966   45.6514 H   0  0  0  0  0  0  0  0  0  0  0  0
   56.3525   33.6126   44.2583 H   0  0  0  0  0  0  0  0  0  0  0  0
   57.2790   29.5815   43.1134 H   0  0  0  0  0  0  0  0  0  0  0  0
   55.7685   30.1754   42.3438 H   0  0  0  0  0  0  0  0  0  0  0  0
   57.2411   31.2041   42.3438 H   0  0  0  0  0  0  0  0  0  0  0  0
  1  2  1  0
  2  3  1  0
  3  4  1  0
  4  5  1  0
  5  6  2  0
  5  7  1  0
  7  8  1  0
  8  9  1  0
  9 10  1  0
 10 11  1  0
 11 12  2  0
 12 13  1  0
 13 14  1  0
 14 15  2  0
 14 16  2  0
 14 17  1  0
 17 18  1  0
 18 19  1  0
 19 20  1  0
 20 21  1  0
 21 22  1  0
 13 23  2  0
 23 24  1  0
 24 25  2  0
 25 26  1  0
 26 27  1  0
 10 28  2  0
 28 29  1  0
 29 30  1  0
 30 31  2  0
 30  4  1  0
 29  8  2  0
 25 11  1  0
 22 17  1  0
  1 32  1  0
  1 33  1  0
  1 34  1  0
  2 35  1  0
  2 36  1  0
  3 37  1  0
  3 38  1  0
  7 39  1  0
  9 40  1  0
 12 41  1  0
 18 42  1  0
 18 43  1  0
 19 44  1  0
 19 45  1  0
 20 46  1  0
 21 47  1  0
 21 48  1  0
 22 49  1  0
 22 50  1  0
 23 51  1  0
 24 52  1  0
 27 53  1  0
 27 54  1  0
 27 55  1  0
M  END
>  <smiles>  (84) 
CCCn1c(=O)[nH]c2[nH]c(-c3cc(S(=O)(=O)N4CCNCC4)ccc3OC)nc2c1=O

>  <score_type>  (84) 
oracle

>  <origin>  (84) 
adg

>  <m_score__min__energy>  (84) 
-9.4199999999999999

>  <m_primary>  (84) 
energy

$$$$
84:0
     RDKit          3D

 46 49  0  0  0  0  0  0  0  0999 V2000
   60.2064   35.1761   46.8358 H   0  0  0  0  0  0  0  0  0  0  0  0
   60.4840   34.1310   46.6340 C   0  0  0  0  0  0  0  0  0  0  0  0
   59.5620   33.3570   46.0160 C   0  0  0  0  0  0  0  0  0  0  0  0
   58.5370   33.9900   45.1530 C   0  0  0  0  0  0  0  0  0  0  0  0
   58.5970   35.2150   44.8630 O   0  0  0  0  0  0  0  0  0  0  0  0
   57.4460   33.2160   44.6560 N   0  0  0  0  0  0  0  0  0  0  0  0
   57.3290   31.8240   44.9410 C   0  0  0  0  0  0  0  0  0  0  0  0
   56.3230   31.1940   44.5170 O   0  0  0  0  0  0  0  0  0  0  0  0
   58.3620   31.1430   45.6760 N   0  0  0  0  0  0  0  0  0  0  0  0
   58.2420   29.7340   45.9430 C   0  0  0  0  0  0  0  0  0  0  0  0
   58.5360   29.2240   47.2180 C   0  0  0  0  0  0  0  0  0  0  0  0
   58.8587   29.9047   48.0196 H   0  0  0  0  0  0  0  0  0  0  0  0
   58.4200   27.8540   47.4720 C   0  0  0  0  0  0  0  0  0  0  0  0
   58.6491   27.4594   48.4729 H   0  0  0  0  0  0  0  0  0  0  0  0
   58.0130   26.9850   46.4550 C   0  0  0  0  0  0  0  0  0  0  0  0
   57.8690   25.2650   46.7750 Cl  0  0  0  0  0  0  0  0  0  0  0  0
   57.7220   27.4860   45.1820 C   0  0  0  0  0  0  0  0  0  0  0  0
   57.4024   26.8019   44.3821 H   0  0  0  0  0  0  0  0  0  0  0  0
   57.8370   28.8560   44.9250 C   0  0  0  0  0  0  0  0  0  0  0  0
   57.6095   29.2468   43.9222 H   0  0  0  0  0  0  0  0  0  0  0  0
   59.5260   31.8720   46.1180 C   0  0  0  0  0  0  0  0  0  0  0  0
   60.5330   31.2370   46.5350 O   0  0  0  0  0  0  0  0  0  0  0  0
   61.8270   33.6990   47.0610 C   0  0  0  0  0  0  0  0  0  0  0  0
   62.0450   33.0060   48.1550 O   0  0  0  0  0  0  0  0  0  0  0  0
   63.3270   32.7310   48.2240 C   0  0  0  0  0  0  0  0  0  0  0  0
   63.9410   31.9730   49.3190 C   0  0  0  0  0  0  0  0  0  0  0  0
   65.0370   32.3590   49.8080 O   0  0  0  0  0  0  0  0  0  0  0  0
   63.2310   30.8570   49.8790 N   0  0  0  0  0  0  0  0  0  0  0  0
   61.9990   30.8020   50.3030 C   0  0  0  0  0  0  0  0  0  0  0  0
   61.7660   30.2930   51.5870 C   0  0  0  0  0  0  0  0  0  0  0  0
   62.6094   29.9605   52.2100 H   0  0  0  0  0  0  0  0  0  0  0  0
   60.4620   30.2090   52.0730 C   0  0  0  0  0  0  0  0  0  0  0  0
   60.2733   29.7972   53.0754 H   0  0  0  0  0  0  0  0  0  0  0  0
   59.3990   30.6470   51.2880 C   0  0  0  0  0  0  0  0  0  0  0  0
   58.3659   30.5638   51.6564 H   0  0  0  0  0  0  0  0  0  0  0  0
   59.6570   31.1950   50.0240 C   0  0  0  0  0  0  0  0  0  0  0  0
   58.5190   31.6620   49.1650 C   0  0  0  0  0  0  0  0  0  0  0  0
   57.6916   32.0016   49.8054 H   0  0  0  0  0  0  0  0  0  0  0  0
   58.8565   32.4943   48.5299 H   0  0  0  0  0  0  0  0  0  0  0  0
   58.1746   30.8325   48.5299 H   0  0  0  0  0  0  0  0  0  0  0  0
   60.9400   31.2530   49.5560 N   0  0  0  0  0  0  0  0  0  0  0  0
   61.0890   31.6940   48.6240 H   0  0  0  0  0  0  0  0  0  0  0  0
   63.9850   33.2510   47.1250 C   0  0  0  0  0  0  0  0  0  0  0  0
   65.0600   33.1843   46.9013 H   0  0  0  0  0  0  0  0  0  0  0  0
   63.0130   33.8710   46.3670 C   0  0  0  0  0  0  0  0  0  0  0  0
   63.1515   34.3939   45.4092 H   0  0  0  0  0  0  0  0  0  0  0  0
  1  2  1  0
  2  3  2  3
  3  4  1  0
  4  5  2  0
  4  6  1  0
  6  7  1  0
  7  8  2  0
  7  9  1  0
  9 10  1  0
 10 11  2  0
 11 12  1  0
 11 13  1  0
 13 14  1  0
 13 15  2  0
 15 16  1  0
 15 17  1  0
 17 18  1  0
 17 19  2  0
 19 20  1  0
  9 21  1  0
 21 22  2  0
  2 23  1  0
 23 24  1  0
 24 25  1  0
 25 26  1  0
 26 27  2  0
 26 28  1  0
 28 29  2  0
 29 30  1  0
 30 31  1  0
 30 32  2  0
 32 33  1  0
 32 34  1  0
 34 35  1  0
 34 36  2  0
 36 37  1  0
 37 38  1  0
 37 39  1  0
 37 40  1  0
 36 41  1  0
 41 42  1  0
 25 43  2  0
 43 44  1  0
 43 45  1  0
 45 46  1  0
 21  3  1  0
 45 23  2  0
 19 10  1  0
 41 29  1  0
M  CHG  1   6  -1
M  END
>  <UniqueID>  (85) 
78

>  <SMILES>  (85) 
Cc1ccc/c(=N/C(=O)c2ccc(C=C3C(=O)[N-]C(=O)N(c4ccc(Cl)cc4)C3=O)o2)[nH]1

>  <Energy>  (85) 
97.96933142114096

>  <Genealogy>  (85) 
Cc1cccc(=NC(=O)c2ccc(C=C3C(=O)[N-]C(=O)N(c4ccc(Cl)cc4)C3=O)o2)[nH]1 (protonated)
Cc1ccc/c(=N/C(=O)c2ccc(C=C3C(=O)[N-]C(=O)N(c4ccc(Cl)cc4)C3=O)o2)[nH]1 (cis-trans isomerization)
Cc1ccc/c(=N/C(=O)c2ccc(C=C3C(=O)[N-]C(=O)N(c4ccc(Cl)cc4)C3=O)o2)[nH]1 (3D coordinates assigned)
Cc1ccc/c(=N/C(=O)c2ccc(C=C3C(=O)[N-]C(=O)N(c4ccc(Cl)cc4)C3=O)o2)[nH]1 (nonaromatic ring conformer: 97.96933142114096 kcal/mol)

>  <smiles>  (85) 
Cc1cccc(=NC(=O)c2ccc(C=C3C(=O)NC(=O)N(c4ccc(Cl)cc4)C3=O)o2)[nH]1

>  <score_type>  (85) 
oracle

>  <origin>  (85) 
adg

>  <m_score__min__energy>  (85) 
-10.41

>  <m_primary>  (85) 
energy

$$$$
85:0
     RDKit          3D

 33 35  0  0  0  0  0  0  0  0999 V2000
   57.8350   26.6190   42.5340 C   0  0  0  0  0  0  0  0  0  0  0  0
   58.0080   27.2300   43.7100 C   0  0  0  0  0  0  0  0  0  0  0  0
   58.2580   28.5530   43.7940 N   0  0  0  0  0  0  0  0  0  0  0  0
   58.2680   28.8820   45.1000 C   0  0  0  0  0  0  0  0  0  0  0  0
   58.4670   30.2620   45.6040 C   0  0  0  0  0  0  0  0  0  0  0  0
   59.6510   30.5810   46.2960 C   0  0  0  0  0  0  0  0  0  0  0  0
   59.8680   31.8770   46.7720 C   0  0  0  0  0  0  0  0  0  0  0  0
   58.9070   32.8690   46.5670 C   0  0  0  0  0  0  0  0  0  0  0  0
   57.7240   32.5650   45.8920 C   0  0  0  0  0  0  0  0  0  0  0  0
   57.4950   31.2690   45.4150 C   0  0  0  0  0  0  0  0  0  0  0  0
   56.2900   30.9910   44.7790 O   0  0  0  0  0  0  0  0  0  0  0  0
   58.0190   27.7620   45.8730 C   0  0  0  0  0  0  0  0  0  0  0  0
   57.8790   26.6940   45.0010 C   0  0  0  0  0  0  0  0  0  0  0  0
   57.6660   25.4310   45.4200 C   0  0  0  0  0  0  0  0  0  0  0  0
   56.3710   24.7250   45.3900 C   0  0  0  0  0  0  0  0  0  0  0  0
   55.1690   25.4020   45.6540 C   0  0  0  0  0  0  0  0  0  0  0  0
   55.1770   26.7520   45.9910 O   0  0  0  0  0  0  0  0  0  0  0  0
   53.9870   24.7350   45.5750 N   0  0  0  0  0  0  0  0  0  0  0  0
   53.9430   23.4230   45.2280 C   0  0  0  0  0  0  0  0  0  0  0  0
   52.8380   22.8260   45.1650 O   0  0  0  0  0  0  0  0  0  0  0  0
   55.0910   22.7570   44.9420 N   0  0  0  0  0  0  0  0  0  0  0  0
   56.2980   23.3770   45.0060 C   0  0  0  0  0  0  0  0  0  0  0  0
   57.3430   22.7310   44.7280 O   0  0  0  0  0  0  0  0  0  0  0  0
   57.6326   25.5383   42.5002 H   0  0  0  0  0  0  0  0  0  0  0  0
   57.8951   27.1968   41.5999 H   0  0  0  0  0  0  0  0  0  0  0  0
   58.3990   29.2070   42.9910 H   0  0  0  0  0  0  0  0  0  0  0  0
   60.4113   29.8039   46.4633 H   0  0  0  0  0  0  0  0  0  0  0  0
   60.7977   32.1160   47.3092 H   0  0  0  0  0  0  0  0  0  0  0  0
   59.0823   33.8898   46.9374 H   0  0  0  0  0  0  0  0  0  0  0  0
   56.9676   33.3478   45.7340 H   0  0  0  0  0  0  0  0  0  0  0  0
   57.9461   27.7260   46.9700 H   0  0  0  0  0  0  0  0  0  0  0  0
   58.5308   24.8799   45.8180 H   0  0  0  0  0  0  0  0  0  0  0  0
   55.1260   27.4680   45.2760 H   0  0  0  0  0  0  0  0  0  0  0  0
  1  2  2  0
  2  3  1  0
  3  4  1  0
  4  5  1  0
  5  6  2  0
  6  7  1  0
  7  8  2  0
  8  9  1  0
  9 10  2  0
 10 11  1  0
  4 12  2  0
 12 13  1  0
 13 14  2  3
 14 15  1  0
 15 16  2  0
 16 17  1  0
 16 18  1  0
 18 19  1  0
 19 20  2  0
 19 21  1  0
 21 22  1  0
 22 23  2  0
 13  2  1  0
 22 15  1  0
 10  5  1  0
  1 24  1  0
  1 25  1  0
  3 26  1  0
  6 27  1  0
  7 28  1  0
  8 29  1  0
  9 30  1  0
 12 31  1  0
 14 32  1  0
 17 33  1  0
M  CHG  3  11  -1  18  -1  21  -1
M  END
>  <UniqueID>  (86) 
79

>  <SMILES>  (86) 
C=c1[nH]c(-c2ccccc2[O-])cc1=Cc1c(O)[n-]c(=O)[n-]c1=O

>  <Energy>  (86) 
81.04894148460849

>  <Genealogy>  (86) 
C=c1[nH]c(-c2ccccc2[O-])cc1=Cc1c(O)[n-]c(=O)[n-]c1=O (protonated)
C=c1[nH]c(-c2ccccc2[O-])cc1=Cc1c(O)[n-]c(=O)[n-]c1=O (3D coordinates assigned)
C=c1[nH]c(-c2ccccc2[O-])cc1=Cc1c(O)[n-]c(=O)[n-]c1=O (optimized conformer: 81.04894148460849 kcal/mol)

>  <smiles>  (86) 
C=c1[nH]c(-c2ccccc2O)cc1=Cc1c(O)[nH]c(=O)[nH]c1=O

>  <score_type>  (86) 
oracle

>  <origin>  (86) 
adg

>  <m_score__min__energy>  (86) 
-14.529999999999999

>  <m_primary>  (86) 
energy

$$$$
86:0
     RDKit          3D

 48 51  0  0  0  0  0  0  0  0999 V2000
   55.8500   28.5810   45.2460 O   0  0  0  0  0  0  0  0  0  0  0  0
   56.9920   28.2780   45.6860 C   0  0  0  0  0  0  0  0  0  0  0  0
   58.0840   29.1990   45.5660 N   0  0  0  0  0  0  0  0  0  0  0  0
   58.0060   30.5680   45.1420 C   0  0  0  0  0  0  0  0  0  0  0  0
   57.8080   30.9200   43.7950 C   0  0  0  0  0  0  0  0  0  0  0  0
   57.7660   32.2650   43.4200 C   0  0  0  0  0  0  0  0  0  0  0  0
   57.9240   33.2680   44.3800 C   0  0  0  0  0  0  0  0  0  0  0  0
   58.1270   32.9330   45.7290 C   0  0  0  0  0  0  0  0  0  0  0  0
   58.3140   34.0160   46.7620 C   0  0  0  0  0  0  0  0  0  0  0  0
   59.1770   33.5410   47.9040 C   0  0  0  0  0  0  0  0  0  0  0  0
   58.5620   32.9590   48.9690 N   0  0  0  0  0  0  0  0  0  0  0  0
   59.2430   32.4960   50.0160 N   0  0  0  0  0  0  0  0  0  0  0  0
   60.5950   32.5720   50.0750 C   0  0  0  0  0  0  0  0  0  0  0  0
   61.1970   32.1330   51.0910 O   0  0  0  0  0  0  0  0  0  0  0  0
   61.3010   33.1400   49.0040 C   0  0  0  0  0  0  0  0  0  0  0  0
   60.5870   33.6370   47.9020 C   0  0  0  0  0  0  0  0  0  0  0  0
   61.3830   34.2950   46.7980 C   0  0  0  0  0  0  0  0  0  0  0  0
   62.6070   33.4400   46.4340 C   0  0  0  0  0  0  0  0  0  0  0  0
   63.4120   32.9280   47.6560 C   0  0  0  0  0  0  0  0  0  0  0  0
   62.8030   33.2930   49.0210 C   0  0  0  0  0  0  0  0  0  0  0  0
   58.1910   31.5770   46.0950 C   0  0  0  0  0  0  0  0  0  0  0  0
   57.2120   26.9790   46.3500 C   0  0  0  0  0  0  0  0  0  0  0  0
   57.8070   26.9630   47.4620 O   0  0  0  0  0  0  0  0  0  0  0  0
   56.7690   25.7000   45.7480 C   0  0  0  0  0  0  0  0  0  0  0  0
   57.7150   24.7530   45.3130 C   0  0  0  0  0  0  0  0  0  0  0  0
   57.3010   23.5530   44.7260 C   0  0  0  0  0  0  0  0  0  0  0  0
   55.9400   23.2880   44.5580 C   0  0  0  0  0  0  0  0  0  0  0  0
   55.5310   22.0950   43.9740 O   0  0  0  0  0  0  0  0  0  0  0  0
   54.9910   24.2230   44.9750 C   0  0  0  0  0  0  0  0  0  0  0  0
   55.3960   25.4260   45.5670 C   0  0  0  0  0  0  0  0  0  0  0  0
   54.4280   26.3350   45.9830 O   0  0  0  0  0  0  0  0  0  0  0  0
   57.6859   30.1344   43.0348 H   0  0  0  0  0  0  0  0  0  0  0  0
   57.6080   32.5354   42.3655 H   0  0  0  0  0  0  0  0  0  0  0  0
   57.8892   34.3251   44.0779 H   0  0  0  0  0  0  0  0  0  0  0  0
   58.7938   34.8847   46.2875 H   0  0  0  0  0  0  0  0  0  0  0  0
   57.3263   34.2876   47.1629 H   0  0  0  0  0  0  0  0  0  0  0  0
   60.7442   34.4093   45.9098 H   0  0  0  0  0  0  0  0  0  0  0  0
   61.7278   35.2798   47.1463 H   0  0  0  0  0  0  0  0  0  0  0  0
   62.2601   32.5682   45.8598 H   0  0  0  0  0  0  0  0  0  0  0  0
   63.2847   34.0878   45.8586 H   0  0  0  0  0  0  0  0  0  0  0  0
   63.4755   31.8318   47.5904 H   0  0  0  0  0  0  0  0  0  0  0  0
   64.3948   33.4199   47.6109 H   0  0  0  0  0  0  0  0  0  0  0  0
   63.2231   32.6292   49.7910 H   0  0  0  0  0  0  0  0  0  0  0  0
   63.0449   34.3430   49.2422 H   0  0  0  0  0  0  0  0  0  0  0  0
   58.3888   31.3056   47.1425 H   0  0  0  0  0  0  0  0  0  0  0  0
   58.7887   24.9584   45.4357 H   0  0  0  0  0  0  0  0  0  0  0  0
   58.0486   22.8166   44.3961 H   0  0  0  0  0  0  0  0  0  0  0  0
   53.9198   24.0139   44.8380 H   0  0  0  0  0  0  0  0  0  0  0  0
  1  2  2  0
  2  3  1  0
  3  4  1  0
  4  5  2  0
  5  6  1  0
  6  7  2  0
  7  8  1  0
  8  9  1  0
  9 10  1  0
 10 11  2  0
 11 12  1  0
 12 13  1  0
 13 14  2  0
 13 15  1  0
 15 16  2  0
 16 17  1  0
 17 18  1  0
 18 19  1  0
 19 20  1  0
  8 21  2  0
  2 22  1  0
 22 23  2  0
 22 24  1  0
 24 25  2  0
 25 26  1  0
 26 27  2  0
 27 28  1  0
 27 29  1  0
 29 30  2  0
 30 31  1  0
 21  4  1  0
 30 24  1  0
 16 10  1  0
 20 15  1  0
  5 32  1  0
  6 33  1  0
  7 34  1  0
  9 35  1  0
  9 36  1  0
 17 37  1  0
 17 38  1  0
 18 39  1  0
 18 40  1  0
 19 41  1  0
 19 42  1  0
 20 43  1  0
 20 44  1  0
 21 45  1  0
 25 46  1  0
 26 47  1  0
 29 48  1  0
M  CHG  4   3  -1  12  -1  28  -1  31  -1
M  END
>  <UniqueID>  (87) 
80

>  <SMILES>  (87) 
O=C([N-]c1cccc(Cc2n[n-]c(=O)c3c2CCCC3)c1)C(=O)c1ccc([O-])cc1[O-]

>  <Energy>  (87) 
67.77363161153148

>  <Genealogy>  (87) 
O=C([N-]c1cccc(Cc2n[n-]c(=O)c3c2CCCC3)c1)C(=O)c1ccc([O-])cc1[O-] (protonated)
O=C([N-]c1cccc(Cc2n[n-]c(=O)c3c2CCCC3)c1)C(=O)c1ccc([O-])cc1[O-] (3D coordinates assigned)
O=C([N-]c1cccc(Cc2n[n-]c(=O)c3c2CCCC3)c1)C(=O)c1ccc([O-])cc1[O-] (nonaromatic ring conformer: 67.77363161153148 kcal/mol)

>  <smiles>  (87) 
O=C(Nc1cccc(Cc2n[nH]c(=O)c3c2CCCC3)c1)C(=O)c1ccc(O)cc1O

>  <score_type>  (87) 
oracle

>  <origin>  (87) 
adg

>  <m_score__min__energy>  (87) 
-18

>  <m_primary>  (87) 
energy

$$$$
87:0
     RDKit          3D

 66 69  0  0  0  0  0  0  0  0999 V2000
   59.3080   33.6670   50.5350 C   0  0  0  0  0  0  0  0  0  0  0  0
   59.6360   34.1890   49.2520 O   0  0  0  0  0  0  0  0  0  0  0  0
   60.9020   34.0950   48.6540 C   0  0  0  0  0  0  0  0  0  0  0  0
   62.0910   34.3030   49.3830 C   0  0  0  0  0  0  0  0  0  0  0  0
   63.3330   34.1750   48.7570 C   0  0  0  0  0  0  0  0  0  0  0  0
   63.4070   33.8380   47.4040 C   0  0  0  0  0  0  0  0  0  0  0  0
   62.2360   33.6360   46.6710 C   0  0  0  0  0  0  0  0  0  0  0  0
   60.9840   33.7710   47.2870 C   0  0  0  0  0  0  0  0  0  0  0  0
   59.7940   33.5680   46.5130 N   0  0  0  0  0  0  0  0  0  0  0  0
   59.6060   34.3400   45.2800 C   0  0  0  0  0  0  0  0  0  0  0  0
   58.3870   33.8450   44.5070 C   0  0  0  0  0  0  0  0  0  0  0  0
   58.3450   32.3740   44.5840 N   0  0  0  0  0  0  0  0  0  0  0  0
   57.4150   31.8060   43.5840 C   0  0  0  0  0  0  0  0  0  0  0  0
   56.3970   30.8650   44.2500 C   0  0  0  0  0  0  0  0  0  0  0  0
   56.3870   29.4420   43.6590 C   0  0  0  0  0  0  0  0  0  0  0  0
   57.7360   28.7120   43.7640 C   0  0  0  0  0  0  0  0  0  0  0  0
   58.5740   29.2820   44.8190 N   0  0  0  0  0  0  0  0  0  0  0  0
   58.8000   28.6140   46.0720 C   0  0  0  0  0  0  0  0  0  0  0  0
   58.2740   27.4870   46.2820 O   0  0  0  0  0  0  0  0  0  0  0  0
   59.6220   29.2390   47.1370 C   0  0  0  0  0  0  0  0  0  0  0  0
   60.7540   29.9980   46.7920 C   0  0  0  0  0  0  0  0  0  0  0  0
   61.5460   30.5840   47.7820 C   0  0  0  0  0  0  0  0  0  0  0  0
   61.2210   30.4320   49.1410 C   0  0  0  0  0  0  0  0  0  0  0  0
   62.0660   31.0510   50.1950 C   0  0  0  0  0  0  0  0  0  0  0  0
   61.5010   31.4480   51.4220 C   0  0  0  0  0  0  0  0  0  0  0  0
   62.2990   32.0300   52.4120 C   0  0  0  0  0  0  0  0  0  0  0  0
   63.6640   32.2240   52.1900 C   0  0  0  0  0  0  0  0  0  0  0  0
   64.2360   31.8340   50.9760 C   0  0  0  0  0  0  0  0  0  0  0  0
   63.4430   31.2500   49.9830 C   0  0  0  0  0  0  0  0  0  0  0  0
   60.0810   29.6870   49.4850 C   0  0  0  0  0  0  0  0  0  0  0  0
   59.2870   29.1000   48.4950 C   0  0  0  0  0  0  0  0  0  0  0  0
   57.9770   31.9410   45.9490 C   0  0  0  0  0  0  0  0  0  0  0  0
   58.7210   32.7250   47.0550 C   0  0  0  0  0  0  0  0  0  0  0  0
   59.7208   34.3240   51.3147 H   0  0  0  0  0  0  0  0  0  0  0  0
   58.2144   33.6146   50.6409 H   0  0  0  0  0  0  0  0  0  0  0  0
   59.7353   32.6589   50.6409 H   0  0  0  0  0  0  0  0  0  0  0  0
   62.0401   34.5673   50.4496 H   0  0  0  0  0  0  0  0  0  0  0  0
   64.2561   34.3403   49.3319 H   0  0  0  0  0  0  0  0  0  0  0  0
   64.3871   33.7317   46.9160 H   0  0  0  0  0  0  0  0  0  0  0  0
   62.2961   33.3697   45.6054 H   0  0  0  0  0  0  0  0  0  0  0  0
   59.4631   35.3999   45.5372 H   0  0  0  0  0  0  0  0  0  0  0  0
   60.4974   34.2143   44.6478 H   0  0  0  0  0  0  0  0  0  0  0  0
   57.4720   34.2653   44.9499 H   0  0  0  0  0  0  0  0  0  0  0  0
   58.4542   34.1639   43.4564 H   0  0  0  0  0  0  0  0  0  0  0  0
   56.8756   32.6262   43.0877 H   0  0  0  0  0  0  0  0  0  0  0  0
   57.9981   31.2292   42.8510 H   0  0  0  0  0  0  0  0  0  0  0  0
   56.6388   30.7942   45.3208 H   0  0  0  0  0  0  0  0  0  0  0  0
   55.3997   31.2934   44.0713 H   0  0  0  0  0  0  0  0  0  0  0  0
   55.6307   28.8500   44.1952 H   0  0  0  0  0  0  0  0  0  0  0  0
   56.1629   29.5441   42.5869 H   0  0  0  0  0  0  0  0  0  0  0  0
   57.5516   27.6510   43.9882 H   0  0  0  0  0  0  0  0  0  0  0  0
   58.2643   28.8240   42.8057 H   0  0  0  0  0  0  0  0  0  0  0  0
   58.9770   30.2300   44.6510 H   0  0  0  0  0  0  0  0  0  0  0  0
   61.0184   30.1316   45.7326 H   0  0  0  0  0  0  0  0  0  0  0  0
   62.4320   31.1697   47.4956 H   0  0  0  0  0  0  0  0  0  0  0  0
   60.4262   31.2996   51.6029 H   0  0  0  0  0  0  0  0  0  0  0  0
   61.8501   32.3359   53.3685 H   0  0  0  0  0  0  0  0  0  0  0  0
   64.2886   32.6835   52.9702 H   0  0  0  0  0  0  0  0  0  0  0  0
   65.3113   31.9865   50.8013 H   0  0  0  0  0  0  0  0  0  0  0  0
   63.8987   30.9441   49.0297 H   0  0  0  0  0  0  0  0  0  0  0  0
   59.8101   29.5641   50.5440 H   0  0  0  0  0  0  0  0  0  0  0  0
   58.3937   28.5253   48.7810 H   0  0  0  0  0  0  0  0  0  0  0  0
   56.8951   32.0878   46.0832 H   0  0  0  0  0  0  0  0  0  0  0  0
   58.2642   30.8836   46.0465 H   0  0  0  0  0  0  0  0  0  0  0  0
   57.9987   33.3663   47.5813 H   0  0  0  0  0  0  0  0  0  0  0  0
   59.1790   31.9933   47.7369 H   0  0  0  0  0  0  0  0  0  0  0  0
  1  2  1  0
  2  3  1  0
  3  4  2  0
  4  5  1  0
  5  6  2  0
  6  7  1  0
  7  8  2  0
  8  9  1  0
  9 10  1  0
 10 11  1  0
 11 12  1  0
 12 13  1  0
 13 14  1  0
 14 15  1  0
 15 16  1  0
 16 17  1  0
 17 18  1  0
 18 19  2  0
 18 20  1  0
 20 21  2  0
 21 22  1  0
 22 23  2  0
 23 24  1  0
 24 25  2  0
 25 26  1  0
 26 27  2  0
 27 28  1  0
 28 29  2  0
 23 30  1  0
 30 31  2  0
 12 32  1  0
 32 33  1  0
  8  3  1  0
 33  9  1  0
 31 20  1  0
 29 24  1  0
  1 34  1  0
  1 35  1  0
  1 36  1  0
  4 37  1  0
  5 38  1  0
  6 39  1  0
  7 40  1  0
 10 41  1  0
 10 42  1  0
 11 43  1  0
 11 44  1  0
 13 45  1  0
 13 46  1  0
 14 47  1  0
 14 48  1  0
 15 49  1  0
 15 50  1  0
 16 51  1  0
 16 52  1  0
 17 53  1  0
 21 54  1  0
 22 55  1  0
 25 56  1  0
 26 57  1  0
 27 58  1  0
 28 59  1  0
 29 60  1  0
 30 61  1  0
 31 62  1  0
 32 63  1  0
 32 64  1  0
 33 65  1  0
 33 66  1  0
M  END
>  <UniqueID>  (88) 
81

>  <SMILES>  (88) 
COc1ccccc1N1CCN(CCCCNC(=O)c2ccc(-c3ccccc3)cc2)CC1

>  <Energy>  (88) 
81.43102643030457

>  <Genealogy>  (88) 
COc1ccccc1N1CCN(CCCCNC(=O)c2ccc(-c3ccccc3)cc2)CC1 (3D coordinates assigned)
COc1ccccc1N1CCN(CCCCNC(=O)c2ccc(-c3ccccc3)cc2)CC1 (nonaromatic ring conformer: 81.43102643030457 kcal/mol)

>  <smiles>  (88) 
COc1ccccc1N1CCN(CCCCNC(=O)c2ccc(-c3ccccc3)cc2)CC1

>  <score_type>  (88) 
oracle

>  <origin>  (88) 
adg

>  <m_score__min__energy>  (88) 
-9.0099999999999998

>  <m_primary>  (88) 
energy

$$$$
88:0
     RDKit          3D

 47 50  0  0  0  0  0  0  0  0999 V2000
   54.4100   27.6030   54.2670 C   0  0  0  0  0  0  0  0  0  0  0  0
   54.8290   28.6030   53.4850 C   0  0  0  0  0  0  0  0  0  0  0  0
   56.1330   28.7690   53.1800 N   0  0  0  0  0  0  0  0  0  0  0  0
   56.2100   29.7680   52.2820 C   0  0  0  0  0  0  0  0  0  0  0  0
   57.4710   30.2090   51.6570 C   0  0  0  0  0  0  0  0  0  0  0  0
   58.1710   29.3690   51.0310 O   0  0  0  0  0  0  0  0  0  0  0  0
   57.9180   31.5720   51.7540 N   0  0  0  0  0  0  0  0  0  0  0  0
   58.5040   32.2340   50.5810 C   0  0  0  0  0  0  0  0  0  0  0  0
   59.9410   32.6710   50.8900 C   0  0  0  0  0  0  0  0  0  0  0  0
   60.0440   33.2800   52.2270 N   0  0  0  0  0  0  0  0  0  0  0  0
   61.3410   33.5750   52.7760 C   0  0  0  0  0  0  0  0  0  0  0  0
   61.4820   33.8890   54.1370 C   0  0  0  0  0  0  0  0  0  0  0  0
   62.7410   34.1860   54.6680 C   0  0  0  0  0  0  0  0  0  0  0  0
   63.8730   34.1790   53.8460 C   0  0  0  0  0  0  0  0  0  0  0  0
   65.4390   34.5590   54.5490 Cl  0  0  0  0  0  0  0  0  0  0  0  0
   63.7420   33.8720   52.4810 C   0  0  0  0  0  0  0  0  0  0  0  0
   65.1370   33.8630   51.4110 Cl  0  0  0  0  0  0  0  0  0  0  0  0
   62.4800   33.5740   51.9530 C   0  0  0  0  0  0  0  0  0  0  0  0
   58.8260   33.5050   53.0190 C   0  0  0  0  0  0  0  0  0  0  0  0
   58.0030   32.2150   53.0770 C   0  0  0  0  0  0  0  0  0  0  0  0
   54.9500   30.2520   51.9930 C   0  0  0  0  0  0  0  0  0  0  0  0
   54.0580   29.5410   52.7810 C   0  0  0  0  0  0  0  0  0  0  0  0
   52.7330   29.7860   52.7900 C   0  0  0  0  0  0  0  0  0  0  0  0
   52.0770   30.9680   52.2160 C   0  0  0  0  0  0  0  0  0  0  0  0
   51.6470   32.0070   52.9530 N   0  0  0  0  0  0  0  0  0  0  0  0
   51.0260   32.7960   52.0490 C   0  0  0  0  0  0  0  0  0  0  0  0
   50.4950   33.8930   52.3600 O   0  0  0  0  0  0  0  0  0  0  0  0
   51.0100   32.3100   50.7890 N   0  0  0  0  0  0  0  0  0  0  0  0
   51.6650   31.1450   50.9100 C   0  0  0  0  0  0  0  0  0  0  0  0
   51.8550   30.2600   49.8520 O   0  0  0  0  0  0  0  0  0  0  0  0
   53.3396   27.4957   54.4964 H   0  0  0  0  0  0  0  0  0  0  0  0
   55.1357   26.8875   54.6810 H   0  0  0  0  0  0  0  0  0  0  0  0
   56.9340   28.2000   53.5390 H   0  0  0  0  0  0  0  0  0  0  0  0
   58.5105   31.5338   49.7327 H   0  0  0  0  0  0  0  0  0  0  0  0
   57.9032   33.1201   50.3282 H   0  0  0  0  0  0  0  0  0  0  0  0
   60.5995   31.7910   50.8463 H   0  0  0  0  0  0  0  0  0  0  0  0
   60.2413   33.4220   50.1445 H   0  0  0  0  0  0  0  0  0  0  0  0
   60.5967   33.9015   54.7897 H   0  0  0  0  0  0  0  0  0  0  0  0
   62.8418   34.4262   55.7367 H   0  0  0  0  0  0  0  0  0  0  0  0
   62.3791   33.3368   50.8836 H   0  0  0  0  0  0  0  0  0  0  0  0
   59.1040   33.8077   54.0394 H   0  0  0  0  0  0  0  0  0  0  0  0
   58.2269   34.2987   52.5488 H   0  0  0  0  0  0  0  0  0  0  0  0
   58.4783   31.5187   53.7836 H   0  0  0  0  0  0  0  0  0  0  0  0
   56.9841   32.4687   53.4049 H   0  0  0  0  0  0  0  0  0  0  0  0
   54.7016   31.0482   51.2758 H   0  0  0  0  0  0  0  0  0  0  0  0
   52.0867   29.0356   53.2688 H   0  0  0  0  0  0  0  0  0  0  0  0
   51.0730   29.8430   49.3640 H   0  0  0  0  0  0  0  0  0  0  0  0
  1  2  2  0
  2  3  1  0
  3  4  1  0
  4  5  1  0
  5  6  2  0
  5  7  1  0
  7  8  1  0
  8  9  1  0
  9 10  1  0
 10 11  1  0
 11 12  2  0
 12 13  1  0
 13 14  2  0
 14 15  1  0
 14 16  1  0
 16 17  1  0
 16 18  2  0
 10 19  1  0
 19 20  1  0
  4 21  2  0
 21 22  1  0
 22 23  2  3
 23 24  1  0
 24 25  1  0
 25 26  1  0
 26 27  2  0
 26 28  1  0
 28 29  1  0
 29 30  1  0
 22  2  1  0
 29 24  2  0
 20  7  1  0
 18 11  1  0
  1 31  1  0
  1 32  1  0
  3 33  1  0
  8 34  1  0
  8 35  1  0
  9 36  1  0
  9 37  1  0
 12 38  1  0
 13 39  1  0
 18 40  1  0
 19 41  1  0
 19 42  1  0
 20 43  1  0
 20 44  1  0
 21 45  1  0
 23 46  1  0
 30 47  1  0
M  CHG  2  25  -1  28  -1
M  END
>  <UniqueID>  (89) 
82

>  <SMILES>  (89) 
C=c1[nH]c(C(=O)N2CCN(c3ccc(Cl)c(Cl)c3)CC2)cc1=Cc1[n-]c(=O)[n-]c1O

>  <Energy>  (89) 
127.38270841981789

>  <Genealogy>  (89) 
C=c1[nH]c(C(=O)N2CCN(c3ccc(Cl)c(Cl)c3)CC2)cc1=Cc1[n-]c(=O)[n-]c1O (protonated)
C=c1[nH]c(C(=O)N2CCN(c3ccc(Cl)c(Cl)c3)CC2)cc1=Cc1[n-]c(=O)[n-]c1O (3D coordinates assigned)
C=c1[nH]c(C(=O)N2CCN(c3ccc(Cl)c(Cl)c3)CC2)cc1=Cc1[n-]c(=O)[n-]c1O (nonaromatic ring conformer: 127.38270841981789 kcal/mol)

>  <smiles>  (89) 
C=c1[nH]c(C(=O)N2CCN(c3ccc(Cl)c(Cl)c3)CC2)cc1=Cc1[nH]c(=O)[nH]c1O

>  <score_type>  (89) 
oracle

>  <origin>  (89) 
adg

>  <m_score__min__energy>  (89) 
-12.59

>  <m_primary>  (89) 
energy

$$$$
89:0
     RDKit          3D

 43 44  0  0  0  0  0  0  0  0999 V2000
   57.0310   34.6210   44.8450 C   0  0  0  0  0  0  0  0  0  0  0  0
   58.3340   34.2870   45.4940 C   0  0  0  0  0  0  0  0  0  0  0  0
   59.2940   35.1000   45.4170 O   0  0  0  0  0  0  0  0  0  0  0  0
   58.4950   33.0320   46.1690 N   0  0  0  0  0  0  0  0  0  0  0  0
   59.7350   32.6590   46.8470 C   0  0  0  0  0  0  0  0  0  0  0  0
   59.7810   31.1700   47.0630 C   0  0  0  0  0  0  0  0  0  0  0  0
   59.1750   30.5930   48.1900 C   0  0  0  0  0  0  0  0  0  0  0  0
   59.2050   29.2070   48.3730 C   0  0  0  0  0  0  0  0  0  0  0  0
   59.8440   28.3850   47.4350 C   0  0  0  0  0  0  0  0  0  0  0  0
   59.9150   26.6380   47.6680 S   0  0  0  0  0  0  0  0  0  0  0  0
   60.7950   26.3480   48.8510 O   0  0  0  0  0  0  0  0  0  0  0  0
   60.5160   25.9790   46.4560 O   0  0  0  0  0  0  0  0  0  0  0  0
   58.3350   25.9620   47.9600 N   0  0  0  0  0  0  0  0  0  0  0  0
   57.8350   25.2160   46.8010 C   0  0  0  0  0  0  0  0  0  0  0  0
   57.7730   26.0820   45.5690 C   0  0  0  0  0  0  0  0  0  0  0  0
   58.1220   25.5550   44.3170 C   0  0  0  0  0  0  0  0  0  0  0  0
   58.0870   26.3640   43.1780 C   0  0  0  0  0  0  0  0  0  0  0  0
   57.7070   27.7050   43.2820 C   0  0  0  0  0  0  0  0  0  0  0  0
   57.3570   28.2430   44.5290 C   0  0  0  0  0  0  0  0  0  0  0  0
   56.8760   29.9310   44.6700 S   0  0  0  0  0  0  0  0  0  0  0  0
   55.1530   30.0460   44.6060 N   0  0  0  0  0  0  0  0  0  0  0  0
   57.4710   30.7310   43.5460 O   0  0  0  0  0  0  0  0  0  0  0  0
   57.3700   30.4900   45.9740 O   0  0  0  0  0  0  0  0  0  0  0  0
   57.3780   27.4270   45.6660 C   0  0  0  0  0  0  0  0  0  0  0  0
   60.4390   28.9580   46.3040 C   0  0  0  0  0  0  0  0  0  0  0  0
   60.4080   30.3430   46.1180 C   0  0  0  0  0  0  0  0  0  0  0  0
   56.2746   34.8149   45.6197 H   0  0  0  0  0  0  0  0  0  0  0  0
   57.1524   35.5171   44.2186 H   0  0  0  0  0  0  0  0  0  0  0  0
   56.7064   33.7770   44.2186 H   0  0  0  0  0  0  0  0  0  0  0  0
   57.7010   32.3520   46.1710 H   0  0  0  0  0  0  0  0  0  0  0  0
   60.5928   32.9633   46.2292 H   0  0  0  0  0  0  0  0  0  0  0  0
   59.7771   33.1650   47.8228 H   0  0  0  0  0  0  0  0  0  0  0  0
   58.6749   31.2332   48.9316 H   0  0  0  0  0  0  0  0  0  0  0  0
   58.7253   28.7603   49.2564 H   0  0  0  0  0  0  0  0  0  0  0  0
   58.5060   24.3663   46.6068 H   0  0  0  0  0  0  0  0  0  0  0  0
   56.8167   24.8680   47.0288 H   0  0  0  0  0  0  0  0  0  0  0  0
   58.4244   24.5009   44.2312 H   0  0  0  0  0  0  0  0  0  0  0  0
   58.3590   25.9447   42.1981 H   0  0  0  0  0  0  0  0  0  0  0  0
   57.6824   28.3397   42.3839 H   0  0  0  0  0  0  0  0  0  0  0  0
   54.7750   29.1090   44.8680 H   0  0  0  0  0  0  0  0  0  0  0  0
   57.0835   27.8412   46.6416 H   0  0  0  0  0  0  0  0  0  0  0  0
   60.9324   28.3159   45.5595 H   0  0  0  0  0  0  0  0  0  0  0  0
   60.8769   30.7867   45.2273 H   0  0  0  0  0  0  0  0  0  0  0  0
  1  2  1  0
  2  3  2  0
  2  4  1  0
  4  5  1  0
  5  6  1  0
  6  7  2  0
  7  8  1  0
  8  9  2  0
  9 10  1  0
 10 11  2  0
 10 12  2  0
 10 13  1  0
 13 14  1  0
 14 15  1  0
 15 16  2  0
 16 17  1  0
 17 18  2  0
 18 19  1  0
 19 20  1  0
 20 21  1  0
 20 22  2  0
 20 23  2  0
 19 24  2  0
  9 25  1  0
 25 26  2  0
 26  6  1  0
 24 15  1  0
  1 27  1  0
  1 28  1  0
  1 29  1  0
  4 30  1  0
  5 31  1  0
  5 32  1  0
  7 33  1  0
  8 34  1  0
 14 35  1  0
 14 36  1  0
 16 37  1  0
 17 38  1  0
 18 39  1  0
 21 40  1  0
 24 41  1  0
 25 42  1  0
 26 43  1  0
M  CHG  2  13  -1  21  -1
M  END
>  <UniqueID>  (90) 
83

>  <SMILES>  (90) 
CC(=O)NCc1ccc(S(=O)(=O)[N-]Cc2cccc(S([NH-])(=O)=O)c2)cc1

>  <Energy>  (90) 
35.90440568849105

>  <Genealogy>  (90) 
CC(=O)NCc1ccc(S(=O)(=O)[N-]Cc2cccc(S([NH-])(=O)=O)c2)cc1 (protonated)
CC(=O)NCc1ccc(S(=O)(=O)[N-]Cc2cccc(S([NH-])(=O)=O)c2)cc1 (3D coordinates assigned)
CC(=O)NCc1ccc(S(=O)(=O)[N-]Cc2cccc(S([NH-])(=O)=O)c2)cc1 (optimized conformer: 35.90440568849105 kcal/mol)

>  <smiles>  (90) 
CC(=O)NCc1ccc(S(=O)(=O)NCc2cccc(S(N)(=O)=O)c2)cc1

>  <score_type>  (90) 
oracle

>  <origin>  (90) 
adg

>  <m_score__min__energy>  (90) 
-12.98

>  <m_primary>  (90) 
energy

$$$$
90:0
     RDKit          3D

 52 55  0  0  0  0  0  0  0  0999 V2000
   59.5930   35.6280   45.2360 C   0  0  0  0  0  0  0  0  0  0  0  0
   59.2250   34.5110   45.8610 C   0  0  0  0  0  0  0  0  0  0  0  0
   59.4060   34.1820   47.2740 C   0  0  0  0  0  0  0  0  0  0  0  0
   59.9490   34.9210   48.1370 O   0  0  0  0  0  0  0  0  0  0  0  0
   58.8840   32.8860   47.5600 N   0  0  0  0  0  0  0  0  0  0  0  0
   58.3790   32.4180   46.3130 C   0  0  0  0  0  0  0  0  0  0  0  0
   57.7760   31.1850   46.0750 C   0  0  0  0  0  0  0  0  0  0  0  0
   57.3470   30.8880   44.7660 C   0  0  0  0  0  0  0  0  0  0  0  0
   56.6190   29.3250   44.4030 S   0  0  0  0  0  0  0  0  0  0  0  0
   57.2790   28.7450   43.1840 O   0  0  0  0  0  0  0  0  0  0  0  0
   55.1520   29.4930   44.1140 O   0  0  0  0  0  0  0  0  0  0  0  0
   56.8320   28.2350   45.7390 N   0  0  0  0  0  0  0  0  0  0  0  0
   58.1700   27.6530   45.6950 C   0  0  0  0  0  0  0  0  0  0  0  0
   59.1370   28.5860   46.3670 C   0  0  0  0  0  0  0  0  0  0  0  0
   60.1600   29.1940   45.6240 C   0  0  0  0  0  0  0  0  0  0  0  0
   61.0760   30.0450   46.2490 C   0  0  0  0  0  0  0  0  0  0  0  0
   60.9860   30.3030   47.6290 C   0  0  0  0  0  0  0  0  0  0  0  0
   61.9280   31.1900   48.2720 N   0  0  0  0  0  0  0  0  0  0  0  0
   62.3050   30.9900   49.6760 C   0  0  0  0  0  0  0  0  0  0  0  0
   62.5920   32.3440   50.3430 C   0  0  0  0  0  0  0  0  0  0  0  0
   63.5300   33.2100   49.5770 N   0  0  0  0  0  0  0  0  0  0  0  0
   64.7630   33.4700   50.3390 C   0  0  0  0  0  0  0  0  0  0  0  0
   63.8640   32.7170   48.2240 C   0  0  0  0  0  0  0  0  0  0  0  0
   62.6120   32.2280   47.4910 C   0  0  0  0  0  0  0  0  0  0  0  0
   59.9690   29.6760   48.3720 C   0  0  0  0  0  0  0  0  0  0  0  0
   59.0570   28.8210   47.7480 C   0  0  0  0  0  0  0  0  0  0  0  0
   57.5360   31.8310   43.7300 C   0  0  0  0  0  0  0  0  0  0  0  0
   58.1440   33.0700   43.9920 C   0  0  0  0  0  0  0  0  0  0  0  0
   58.5590   33.3380   45.2960 C   0  0  0  0  0  0  0  0  0  0  0  0
   59.3948   35.7473   44.1606 H   0  0  0  0  0  0  0  0  0  0  0  0
   60.0951   36.4312   45.7952 H   0  0  0  0  0  0  0  0  0  0  0  0
   58.8800   32.3880   48.4780 H   0  0  0  0  0  0  0  0  0  0  0  0
   57.6379   30.4597   46.8904 H   0  0  0  0  0  0  0  0  0  0  0  0
   58.1678   26.6857   46.2187 H   0  0  0  0  0  0  0  0  0  0  0  0
   58.4717   27.4990   44.6485 H   0  0  0  0  0  0  0  0  0  0  0  0
   60.2417   29.0001   44.5443 H   0  0  0  0  0  0  0  0  0  0  0  0
   61.8739   30.5169   45.6568 H   0  0  0  0  0  0  0  0  0  0  0  0
   61.4810   30.4904   50.2065 H   0  0  0  0  0  0  0  0  0  0  0  0
   63.2106   30.3672   49.7207 H   0  0  0  0  0  0  0  0  0  0  0  0
   61.6394   32.8821   50.4571 H   0  0  0  0  0  0  0  0  0  0  0  0
   63.0746   32.1276   51.3075 H   0  0  0  0  0  0  0  0  0  0  0  0
   64.5449   33.4240   51.4162 H   0  0  0  0  0  0  0  0  0  0  0  0
   65.5179   32.7113   50.0850 H   0  0  0  0  0  0  0  0  0  0  0  0
   65.1472   34.4689   50.0850 H   0  0  0  0  0  0  0  0  0  0  0  0
   64.3221   33.5338   47.6470 H   0  0  0  0  0  0  0  0  0  0  0  0
   64.5632   31.8735   48.3222 H   0  0  0  0  0  0  0  0  0  0  0  0
   61.9278   33.0758   47.3391 H   0  0  0  0  0  0  0  0  0  0  0  0
   62.9120   31.8026   46.5220 H   0  0  0  0  0  0  0  0  0  0  0  0
   59.8912   29.8605   49.4536 H   0  0  0  0  0  0  0  0  0  0  0  0
   58.2725   28.3297   48.3423 H   0  0  0  0  0  0  0  0  0  0  0  0
   57.2038   31.5923   42.7089 H   0  0  0  0  0  0  0  0  0  0  0  0
   58.2888   33.8089   43.1901 H   0  0  0  0  0  0  0  0  0  0  0  0
  1  2  2  0
  2  3  1  0
  3  4  2  0
  3  5  1  0
  5  6  1  0
  6  7  2  0
  7  8  1  0
  8  9  1  0
  9 10  2  0
  9 11  2  0
  9 12  1  0
 12 13  1  0
 13 14  1  0
 14 15  2  0
 15 16  1  0
 16 17  2  0
 17 18  1  0
 18 19  1  0
 19 20  1  0
 20 21  1  0
 21 22  1  0
 21 23  1  0
 23 24  1  0
 17 25  1  0
 25 26  2  0
  8 27  2  0
 27 28  1  0
 28 29  2  0
 29  2  1  0
 29  6  1  0
 26 14  1  0
 24 18  1  0
  1 30  1  0
  1 31  1  0
  5 32  1  0
  7 33  1  0
 13 34  1  0
 13 35  1  0
 15 36  1  0
 16 37  1  0
 19 38  1  0
 19 39  1  0
 20 40  1  0
 20 41  1  0
 22 42  1  0
 22 43  1  0
 22 44  1  0
 23 45  1  0
 23 46  1  0
 24 47  1  0
 24 48  1  0
 25 49  1  0
 26 50  1  0
 27 51  1  0
 28 52  1  0
M  CHG  1  12  -1
M  END
>  <UniqueID>  (91) 
84

>  <SMILES>  (91) 
C=C1C(=O)Nc2cc(S(=O)(=O)[N-]Cc3ccc(N4CCN(C)CC4)cc3)ccc21

>  <Energy>  (91) 
91.37842613361123

>  <Genealogy>  (91) 
C=C1C(=O)Nc2cc(S(=O)(=O)[N-]Cc3ccc(N4CCN(C)CC4)cc3)ccc21 (protonated)
C=C1C(=O)Nc2cc(S(=O)(=O)[N-]Cc3ccc(N4CCN(C)CC4)cc3)ccc21 (3D coordinates assigned)
C=C1C(=O)Nc2cc(S(=O)(=O)[N-]Cc3ccc(N4CCN(C)CC4)cc3)ccc21 (nonaromatic ring conformer: 91.37842613361123 kcal/mol)

>  <smiles>  (91) 
C=C1C(=O)Nc2cc(S(=O)(=O)NCc3ccc(N4CCN(C)CC4)cc3)ccc21

>  <score_type>  (91) 
oracle

>  <origin>  (91) 
adg

>  <m_score__min__energy>  (91) 
-10.25

>  <m_primary>  (91) 
energy

$$$$
91:0
     RDKit          3D

 39 41  0  0  0  0  0  0  0  0999 V2000
   59.4541   30.0856   45.1157 H   0  0  0  0  0  0  0  0  0  0  0  0
   58.4370   29.6670   45.1310 C   0  0  0  0  0  0  0  0  0  0  0  0
   58.2030   28.4790   45.7460 N   0  0  0  0  0  0  0  0  0  0  0  0
   56.9590   27.9400   45.7870 C   0  0  0  0  0  0  0  0  0  0  0  0
   56.7800   26.8070   46.4020 N   0  0  0  0  0  0  0  0  0  0  0  0
   56.8870   25.4900   45.8350 C   0  0  0  0  0  0  0  0  0  0  0  0
   58.1570   24.9090   45.7210 C   0  0  0  0  0  0  0  0  0  0  0  0
   59.0410   25.4521   46.0865 H   0  0  0  0  0  0  0  0  0  0  0  0
   58.3080   23.6440   45.1460 C   0  0  0  0  0  0  0  0  0  0  0  0
   59.3069   23.1880   45.0801 H   0  0  0  0  0  0  0  0  0  0  0  0
   57.1920   22.9540   44.6530 C   0  0  0  0  0  0  0  0  0  0  0  0
   57.3800   21.3540   43.9440 S   0  0  0  0  0  0  0  0  0  0  0  0
   56.2640   21.0950   42.9700 O   0  0  0  0  0  0  0  0  0  0  0  0
   58.6880   21.2740   43.2060 O   0  0  0  0  0  0  0  0  0  0  0  0
   57.3470   20.1590   45.1900 N   0  0  0  0  0  0  0  0  0  0  0  0
   58.3320   20.0270   45.5130 H   0  0  0  0  0  0  0  0  0  0  0  0
   57.0540   19.2600   44.7430 H   0  0  0  0  0  0  0  0  0  0  0  0
   55.9230   23.5420   44.7420 C   0  0  0  0  0  0  0  0  0  0  0  0
   55.0431   23.0059   44.3569 H   0  0  0  0  0  0  0  0  0  0  0  0
   55.7700   24.8070   45.3180 C   0  0  0  0  0  0  0  0  0  0  0  0
   54.7734   25.2699   45.3673 H   0  0  0  0  0  0  0  0  0  0  0  0
   55.9180   28.6140   45.2300 N   0  0  0  0  0  0  0  0  0  0  0  0
   56.0980   29.8050   44.6030 C   0  0  0  0  0  0  0  0  0  0  0  0
   55.0990   30.4050   44.1260 O   0  0  0  0  0  0  0  0  0  0  0  0
   57.3870   30.3610   44.5160 C   0  0  0  0  0  0  0  0  0  0  0  0
   57.6530   31.6480   43.8290 C   0  0  0  0  0  0  0  0  0  0  0  0
   58.1470   31.6340   42.6700 O   0  0  0  0  0  0  0  0  0  0  0  0
   57.4000   32.9150   44.4520 N   0  0  0  0  0  0  0  0  0  0  0  0
   58.1550   33.4990   45.5250 C   0  0  0  0  0  0  0  0  0  0  0  0
   58.1010   32.9020   46.7910 C   0  0  0  0  0  0  0  0  0  0  0  0
   57.4807   32.0073   46.9483 H   0  0  0  0  0  0  0  0  0  0  0  0
   58.8320   33.4380   47.8560 C   0  0  0  0  0  0  0  0  0  0  0  0
   58.7774   32.9707   48.8503 H   0  0  0  0  0  0  0  0  0  0  0  0
   59.6320   34.5670   47.6580 C   0  0  0  0  0  0  0  0  0  0  0  0
   60.1999   34.9933   48.4981 H   0  0  0  0  0  0  0  0  0  0  0  0
   59.7100   35.1540   46.3920 C   0  0  0  0  0  0  0  0  0  0  0  0
   60.3461   36.0375   46.2345 H   0  0  0  0  0  0  0  0  0  0  0  0
   58.9810   34.6200   45.3260 C   0  0  0  0  0  0  0  0  0  0  0  0
   59.0533   35.0777   44.3284 H   0  0  0  0  0  0  0  0  0  0  0  0
  1  2  1  0
  2  3  1  0
  3  4  1  0
  4  5  2  0
  5  6  1  0
  6  7  2  0
  7  8  1  0
  7  9  1  0
  9 10  1  0
  9 11  2  0
 11 12  1  0
 12 13  2  0
 12 14  2  0
 12 15  1  0
 15 16  1  0
 15 17  1  0
 11 18  1  0
 18 19  1  0
 18 20  2  0
 20 21  1  0
  4 22  1  0
 22 23  1  0
 23 24  2  0
 23 25  1  0
 25 26  1  0
 26 27  2  0
 26 28  1  0
 28 29  1  0
 29 30  2  0
 30 31  1  0
 30 32  1  0
 32 33  1  0
 32 34  2  0
 34 35  1  0
 34 36  1  0
 36 37  1  0
 36 38  2  0
 38 39  1  0
 25  2  2  0
 38 29  1  0
 20  6  1  0
M  CHG  3   3  -1  22  -1  28  -1
M  END
>  <UniqueID>  (92) 
85

>  <SMILES>  (92) 
NS(=O)(=O)c1ccc(/N=c2/[n-]cc(C(=O)[N-]c3ccccc3)c(=O)[n-]2)cc1

>  <Energy>  (92) 
56.5313255061459

>  <Genealogy>  (92) 
NS(=O)(=O)c1ccc(N=c2[n-]cc(C(=O)[N-]c3ccccc3)c(=O)[n-]2)cc1 (protonated)
NS(=O)(=O)c1ccc(/N=c2/[n-]cc(C(=O)[N-]c3ccccc3)c(=O)[n-]2)cc1 (cis-trans isomerization)
NS(=O)(=O)c1ccc(/N=c2/[n-]cc(C(=O)[N-]c3ccccc3)c(=O)[n-]2)cc1 (3D coordinates assigned)
NS(=O)(=O)c1ccc(/N=c2/[n-]cc(C(=O)[N-]c3ccccc3)c(=O)[n-]2)cc1 (optimized conformer: 56.5313255061459 kcal/mol)

>  <smiles>  (92) 
NS(=O)(=O)c1ccc(N=c2[nH]cc(C(=O)Nc3ccccc3)c(=O)[nH]2)cc1

>  <score_type>  (92) 
oracle

>  <origin>  (92) 
adg

>  <m_score__min__energy>  (92) 
-13.73

>  <m_primary>  (92) 
energy

$$$$
