0:0
     RDKit          3D

 55 58  0  0  0  0  0  0  0  0999 V2000
   63.3480   33.8320   46.4130 C   0  0  0  0  0  0  0  0  0  0  0  0
   63.2980   33.3050   47.8420 C   0  0  0  0  0  0  0  0  0  0  0  0
   63.1700   31.8850   47.8500 O   0  0  0  0  0  0  0  0  0  0  0  0
   61.9430   31.2240   47.7270 C   0  0  0  0  0  0  0  0  0  0  0  0
   61.6600   30.6010   46.6680 O   0  0  0  0  0  0  0  0  0  0  0  0
   60.9880   31.2230   48.8610 C   0  0  0  0  0  0  0  0  0  0  0  0
   59.6910   31.7620   48.6920 C   0  0  0  0  0  0  0  0  0  0  0  0
   59.2290   32.2790   47.3850 C   0  0  0  0  0  0  0  0  0  0  0  0
   59.9150   33.3350   46.7680 C   0  0  0  0  0  0  0  0  0  0  0  0
   59.4740   33.8340   45.5420 C   0  0  0  0  0  0  0  0  0  0  0  0
   58.3550   33.2750   44.9190 C   0  0  0  0  0  0  0  0  0  0  0  0
   57.6700   32.2100   45.5130 C   0  0  0  0  0  0  0  0  0  0  0  0
   56.5330   31.6620   44.8350 N   0  0  0  0  0  0  0  0  0  0  0  0
   56.3850   30.0230   44.2930 S   0  0  0  0  0  0  0  0  0  0  0  0
   57.3920   29.7630   43.2100 O   0  0  0  0  0  0  0  0  0  0  0  0
   55.0010   29.7680   43.7690 O   0  0  0  0  0  0  0  0  0  0  0  0
   56.6960   28.9560   45.6240 N   0  0  0  0  0  0  0  0  0  0  0  0
   58.0000   28.5400   46.0500 C   0  0  0  0  0  0  0  0  0  0  0  0
   59.0830   28.4420   45.1580 C   0  0  0  0  0  0  0  0  0  0  0  0
   60.3430   28.0350   45.6160 C   0  0  0  0  0  0  0  0  0  0  0  0
   60.5280   27.7240   46.9680 C   0  0  0  0  0  0  0  0  0  0  0  0
   59.4530   27.8140   47.8590 C   0  0  0  0  0  0  0  0  0  0  0  0
   58.1970   28.2260   47.4030 C   0  0  0  0  0  0  0  0  0  0  0  0
   58.1070   31.7180   46.7570 C   0  0  0  0  0  0  0  0  0  0  0  0
   58.8400   31.8490   49.8090 C   0  0  0  0  0  0  0  0  0  0  0  0
   57.6900   32.3560   49.6980 O   0  0  0  0  0  0  0  0  0  0  0  0
   59.2400   31.4180   50.9970 O   0  0  0  0  0  0  0  0  0  0  0  0
   60.4310   30.8690   51.2030 C   0  0  0  0  0  0  0  0  0  0  0  0
   60.7590   30.4210   52.4870 C   0  0  0  0  0  0  0  0  0  0  0  0
   61.9910   29.7900   52.7300 C   0  0  0  0  0  0  0  0  0  0  0  0
   62.3500   29.3170   54.0020 O   0  0  0  0  0  0  0  0  0  0  0  0
   62.6710   27.9610   54.2990 C   0  0  0  0  0  0  0  0  0  0  0  0
   62.8900   29.6150   51.6700 C   0  0  0  0  0  0  0  0  0  0  0  0
   64.1040   28.9710   51.8870 O   0  0  0  0  0  0  0  0  0  0  0  0
   62.5780   30.0770   50.3870 C   0  0  0  0  0  0  0  0  0  0  0  0
   61.3540   30.7310   50.1390 C   0  0  0  0  0  0  0  0  0  0  0  0
   63.4519   34.9270   46.4294 H   0  0  0  0  0  0  0  0  0  0  0  0
   64.2082   33.3899   45.8890 H   0  0  0  0  0  0  0  0  0  0  0  0
   62.4200   33.5596   45.8890 H   0  0  0  0  0  0  0  0  0  0  0  0
   64.2243   33.5872   48.3638 H   0  0  0  0  0  0  0  0  0  0  0  0
   62.4260   33.7421   48.3504 H   0  0  0  0  0  0  0  0  0  0  0  0
   60.8020   33.7705   47.2513 H   0  0  0  0  0  0  0  0  0  0  0  0
   60.0081   34.6690   45.0649 H   0  0  0  0  0  0  0  0  0  0  0  0
   58.0103   33.6755   43.9542 H   0  0  0  0  0  0  0  0  0  0  0  0
   58.9400   28.6862   44.0950 H   0  0  0  0  0  0  0  0  0  0  0  0
   61.1862   27.9599   44.9135 H   0  0  0  0  0  0  0  0  0  0  0  0
   61.5179   27.4090   47.3298 H   0  0  0  0  0  0  0  0  0  0  0  0
   59.5961   27.5603   48.9197 H   0  0  0  0  0  0  0  0  0  0  0  0
   57.3578   28.3044   48.1099 H   0  0  0  0  0  0  0  0  0  0  0  0
   57.5665   30.8900   47.2390 H   0  0  0  0  0  0  0  0  0  0  0  0
   60.0469   30.5638   53.3131 H   0  0  0  0  0  0  0  0  0  0  0  0
   62.7038   27.8224   55.3897 H   0  0  0  0  0  0  0  0  0  0  0  0
   61.9045   27.2999   53.8683 H   0  0  0  0  0  0  0  0  0  0  0  0
   63.6525   27.7137   53.8683 H   0  0  0  0  0  0  0  0  0  0  0  0
   63.2936   29.9288   49.5649 H   0  0  0  0  0  0  0  0  0  0  0  0
  1  2  1  0
  2  3  1  0
  3  4  1  0
  4  5  2  0
  4  6  1  0
  6  7  2  0
  7  8  1  0
  8  9  2  0
  9 10  1  0
 10 11  2  0
 11 12  1  0
 12 13  1  0
 13 14  1  0
 14 15  2  0
 14 16  2  0
 14 17  1  0
 17 18  1  0
 18 19  2  0
 19 20  1  0
 20 21  2  0
 21 22  1  0
 22 23  2  0
 12 24  2  0
  7 25  1  0
 25 26  2  0
 25 27  1  0
 27 28  1  0
 28 29  2  0
 29 30  1  0
 30 31  1  0
 31 32  1  0
 30 33  2  0
 33 34  1  0
 33 35  1  0
 35 36  2  0
 36  6  1  0
 24  8  1  0
 36 28  1  0
 23 18  1  0
  1 37  1  0
  1 38  1  0
  1 39  1  0
  2 40  1  0
  2 41  1  0
  9 42  1  0
 10 43  1  0
 11 44  1  0
 19 45  1  0
 20 46  1  0
 21 47  1  0
 22 48  1  0
 23 49  1  0
 24 50  1  0
 29 51  1  0
 32 52  1  0
 32 53  1  0
 32 54  1  0
 35 55  1  0
M  CHG  3  13  -1  17  -1  34  -1
M  END
>  <UniqueID>  (1) 
1

>  <SMILES>  (1) 
CCOC(=O)c1c(-c2cccc([N-]S(=O)(=O)[N-]c3ccccc3)c2)c(=O)oc2cc(OC)c([O-])cc12

>  <Energy>  (1) 
79.05124359267532

>  <Genealogy>  (1) 
CCOC(=O)c1c(-c2cccc([N-]S(=O)(=O)[N-]c3ccccc3)c2)c(=O)oc2cc(OC)c([O-])cc12 (protonated)
CCOC(=O)c1c(-c2cccc([N-]S(=O)(=O)[N-]c3ccccc3)c2)c(=O)oc2cc(OC)c([O-])cc12 (3D coordinates assigned)
CCOC(=O)c1c(-c2cccc([N-]S(=O)(=O)[N-]c3ccccc3)c2)c(=O)oc2cc(OC)c([O-])cc12 (optimized conformer: 79.05124359267532 kcal/mol)

>  <smiles>  (1) 
CCOC(=O)c1c(-c2cccc(NS(=O)(=O)Nc3ccccc3)c2)c(=O)oc2cc(OC)c(O)cc12

>  <score_type>  (1) 
oracle

>  <origin>  (1) 
adg

>  <m_score__min__energy>  (1) 
-13.41

>  <m_primary>  (1) 
energy

$$$$
1:0
     RDKit          3D

 43 44  0  0  0  0  0  0  0  0999 V2000
   56.8050   22.3540   47.2760 H   0  0  0  0  0  0  0  0  0  0  0  0
   57.5340   23.0300   47.4730 O   0  0  0  0  0  0  0  0  0  0  0  0
   57.4220   24.3600   47.0730 C   0  0  0  0  0  0  0  0  0  0  0  0
   56.1700   24.8760   46.7400 C   0  0  0  0  0  0  0  0  0  0  0  0
   55.2810   24.2305   46.7950 H   0  0  0  0  0  0  0  0  0  0  0  0
   56.0370   26.2070   46.3370 C   0  0  0  0  0  0  0  0  0  0  0  0
   54.7760   26.6810   45.9890 O   0  0  0  0  0  0  0  0  0  0  0  0
   57.1650   27.0530   46.2800 C   0  0  0  0  0  0  0  0  0  0  0  0
   57.0100   28.4830   45.8070 C   0  0  0  0  0  0  0  0  0  0  0  0
   57.7904   29.1034   46.2719 H   0  0  0  0  0  0  0  0  0  0  0  0
   56.0118   28.8440   46.0958 H   0  0  0  0  0  0  0  0  0  0  0  0
   57.1410   28.5680   44.2910 C   0  0  0  0  0  0  0  0  0  0  0  0
   58.0379   29.1500   44.0325 H   0  0  0  0  0  0  0  0  0  0  0  0
   57.2287   27.5542   43.8731 H   0  0  0  0  0  0  0  0  0  0  0  0
   56.2509   29.0611   43.8731 H   0  0  0  0  0  0  0  0  0  0  0  0
   58.4400   26.5180   46.5940 C   0  0  0  0  0  0  0  0  0  0  0  0
   59.6570   27.3540   46.5630 C   0  0  0  0  0  0  0  0  0  0  0  0
   60.3447   27.2851   47.4187 H   0  0  0  0  0  0  0  0  0  0  0  0
   59.9850   28.1910   45.5680 C   0  0  0  0  0  0  0  0  0  0  0  0
   60.0239   27.7692   44.5528 H   0  0  0  0  0  0  0  0  0  0  0  0
   60.2990   29.6280   45.7100 C   0  0  0  0  0  0  0  0  0  0  0  0
   61.4470   29.9520   46.1150 O   0  0  0  0  0  0  0  0  0  0  0  0
   59.3370   30.6410   45.3790 N   0  0  0  0  0  0  0  0  0  0  0  0
   58.8450   31.5650   46.1600 C   0  0  0  0  0  0  0  0  0  0  0  0
   57.6170   32.2530   45.7140 C   0  0  0  0  0  0  0  0  0  0  0  0
   57.3940   33.4500   46.0330 O   0  0  0  0  0  0  0  0  0  0  0  0
   56.6910   31.5800   44.9270 O   0  0  0  0  0  0  0  0  0  0  0  0
   59.3970   31.8410   47.5460 C   0  0  0  0  0  0  0  0  0  0  0  0
   58.7526   32.5748   48.0522 H   0  0  0  0  0  0  0  0  0  0  0  0
   59.4190   30.8986   48.1128 H   0  0  0  0  0  0  0  0  0  0  0  0
   60.7990   32.3890   47.4600 C   0  0  0  0  0  0  0  0  0  0  0  0
   61.8120   31.8650   48.2830 C   0  0  0  0  0  0  0  0  0  0  0  0
   61.5732   31.0752   49.0105 H   0  0  0  0  0  0  0  0  0  0  0  0
   63.1210   32.3440   48.1800 C   0  0  0  0  0  0  0  0  0  0  0  0
   63.9090   31.9308   48.8267 H   0  0  0  0  0  0  0  0  0  0  0  0
   63.4310   33.3470   47.2570 C   0  0  0  0  0  0  0  0  0  0  0  0
   64.4623   33.7209   47.1755 H   0  0  0  0  0  0  0  0  0  0  0  0
   62.4290   33.8740   46.4380 C   0  0  0  0  0  0  0  0  0  0  0  0
   62.6727   34.6641   45.7125 H   0  0  0  0  0  0  0  0  0  0  0  0
   61.1180   33.4000   46.5380 C   0  0  0  0  0  0  0  0  0  0  0  0
   60.3328   33.8202   45.8923 H   0  0  0  0  0  0  0  0  0  0  0  0
   58.5530   25.1780   47.0000 C   0  0  0  0  0  0  0  0  0  0  0  0
   59.5398   24.7690   47.2627 H   0  0  0  0  0  0  0  0  0  0  0  0
  1  2  1  0
  2  3  1  0
  3  4  2  0
  4  5  1  0
  4  6  1  0
  6  7  1  0
  6  8  2  0
  8  9  1  0
  9 10  1  0
  9 11  1  0
  9 12  1  0
 12 13  1  0
 12 14  1  0
 12 15  1  0
  8 16  1  0
 16 17  1  0
 17 18  1  0
 17 19  2  3
 19 20  1  0
 19 21  1  0
 21 22  2  0
 21 23  1  0
 23 24  2  0
 24 25  1  0
 25 26  2  0
 25 27  1  0
 24 28  1  0
 28 29  1  0
 28 30  1  0
 28 31  1  0
 31 32  2  0
 32 33  1  0
 32 34  1  0
 34 35  1  0
 34 36  2  0
 36 37  1  0
 36 38  1  0
 38 39  1  0
 38 40  2  0
 40 41  1  0
 16 42  2  0
 42 43  1  0
 42  3  1  0
 40 31  1  0
M  CHG  2   7  -1  27  -1
M  END
>  <UniqueID>  (2) 
2

>  <SMILES>  (2) 
CCc1c([O-])cc(O)cc1C=CC(=O)/N=C(\Cc1ccccc1)C(=O)[O-]

>  <Energy>  (2) 
50.20735795095835

>  <Genealogy>  (2) 
CCc1c([O-])cc(O)cc1C=CC(=O)N=C(Cc1ccccc1)C(=O)[O-] (protonated)
CCc1c([O-])cc(O)cc1C=CC(=O)/N=C(\Cc1ccccc1)C(=O)[O-] (cis-trans isomerization)
CCc1c([O-])cc(O)cc1C=CC(=O)/N=C(\Cc1ccccc1)C(=O)[O-] (3D coordinates assigned)
CCc1c([O-])cc(O)cc1C=CC(=O)/N=C(\Cc1ccccc1)C(=O)[O-] (optimized conformer: 50.20735795095835 kcal/mol)

>  <smiles>  (2) 
CCc1c(O)cc(O)cc1C=CC(=O)N=C(Cc1ccccc1)C(=O)O

>  <score_type>  (2) 
oracle

>  <origin>  (2) 
adg

>  <m_score__min__energy>  (2) 
-12.130000000000001

>  <m_primary>  (2) 
energy

$$$$
2:0
     RDKit          3D

 45 48  0  0  0  0  0  0  0  0999 V2000
   59.9940   35.9140   46.1220 C   0  0  0  0  0  0  0  0  0  0  0  0
   59.1390   34.7450   45.7310 C   0  0  0  0  0  0  0  0  0  0  0  0
   58.1700   34.2590   46.6210 C   0  0  0  0  0  0  0  0  0  0  0  0
   57.3440   33.1940   46.2480 C   0  0  0  0  0  0  0  0  0  0  0  0
   57.4680   32.6190   44.9790 C   0  0  0  0  0  0  0  0  0  0  0  0
   56.3590   31.2950   44.4960 S   0  0  0  0  0  0  0  0  0  0  0  0
   57.3160   30.0210   45.3270 C   0  0  0  0  0  0  0  0  0  0  0  0
   58.5750   30.3340   45.8550 C   0  0  0  0  0  0  0  0  0  0  0  0
   59.2970   29.3790   46.5920 C   0  0  0  0  0  0  0  0  0  0  0  0
   60.5820   29.6840   47.1520 N   0  0  0  0  0  0  0  0  0  0  0  0
   61.1130   31.2760   47.5760 S   0  0  0  0  0  0  0  0  0  0  0  0
   62.5720   31.2740   47.9390 O   0  0  0  0  0  0  0  0  0  0  0  0
   60.9170   32.1870   46.3960 O   0  0  0  0  0  0  0  0  0  0  0  0
   60.1250   31.8520   48.9140 C   0  0  0  0  0  0  0  0  0  0  0  0
   59.1640   31.0010   49.4800 C   0  0  0  0  0  0  0  0  0  0  0  0
   58.4310   31.4100   50.6010 C   0  0  0  0  0  0  0  0  0  0  0  0
   58.6660   32.6660   51.1700 C   0  0  0  0  0  0  0  0  0  0  0  0
   59.6250   33.5150   50.6150 C   0  0  0  0  0  0  0  0  0  0  0  0
   60.3550   33.1120   49.4870 C   0  0  0  0  0  0  0  0  0  0  0  0
   58.7420   28.1060   46.8070 C   0  0  0  0  0  0  0  0  0  0  0  0
   59.4220   27.1770   47.5360 N   0  0  0  0  0  0  0  0  0  0  0  0
   58.9280   25.9280   47.7560 C   0  0  0  0  0  0  0  0  0  0  0  0
   57.6890   25.5610   47.2270 C   0  0  0  0  0  0  0  0  0  0  0  0
   56.9610   26.4880   46.4780 C   0  0  0  0  0  0  0  0  0  0  0  0
   57.4800   27.7770   46.2550 C   0  0  0  0  0  0  0  0  0  0  0  0
   56.7700   28.7410   45.5140 C   0  0  0  0  0  0  0  0  0  0  0  0
   55.5200   28.4380   44.9830 O   0  0  0  0  0  0  0  0  0  0  0  0
   58.4180   33.1140   44.0790 C   0  0  0  0  0  0  0  0  0  0  0  0
   59.2530   34.1730   44.4520 C   0  0  0  0  0  0  0  0  0  0  0  0
   60.0434   35.9815   47.2188 H   0  0  0  0  0  0  0  0  0  0  0  0
   61.0077   35.7786   45.7169 H   0  0  0  0  0  0  0  0  0  0  0  0
   59.5578   36.8390   45.7169 H   0  0  0  0  0  0  0  0  0  0  0  0
   58.0595   34.7168   47.6151 H   0  0  0  0  0  0  0  0  0  0  0  0
   56.5947   32.8074   46.9545 H   0  0  0  0  0  0  0  0  0  0  0  0
   59.0020   31.3345   45.6918 H   0  0  0  0  0  0  0  0  0  0  0  0
   58.9855   30.0082   49.0414 H   0  0  0  0  0  0  0  0  0  0  0  0
   57.6705   30.7436   51.0340 H   0  0  0  0  0  0  0  0  0  0  0  0
   58.0952   32.9846   52.0547 H   0  0  0  0  0  0  0  0  0  0  0  0
   59.8087   34.5025   51.0633 H   0  0  0  0  0  0  0  0  0  0  0  0
   61.1086   33.7845   49.0512 H   0  0  0  0  0  0  0  0  0  0  0  0
   59.5060   25.2062   48.3518 H   0  0  0  0  0  0  0  0  0  0  0  0
   57.2898   24.5505   47.3987 H   0  0  0  0  0  0  0  0  0  0  0  0
   55.9812   26.2105   46.0620 H   0  0  0  0  0  0  0  0  0  0  0  0
   58.5086   32.6700   43.0767 H   0  0  0  0  0  0  0  0  0  0  0  0
   60.0002   34.5587   43.7429 H   0  0  0  0  0  0  0  0  0  0  0  0
  1  2  1  0
  2  3  2  0
  3  4  1  0
  4  5  2  0
  5  6  1  0
  6  7  1  0
  7  8  2  0
  8  9  1  0
  9 10  1  0
 10 11  1  0
 11 12  2  0
 11 13  2  0
 11 14  1  0
 14 15  2  0
 15 16  1  0
 16 17  2  0
 17 18  1  0
 18 19  2  0
  9 20  2  0
 20 21  1  0
 21 22  2  0
 22 23  1  0
 23 24  2  0
 24 25  1  0
 25 26  2  0
 26 27  1  0
  5 28  1  0
 28 29  2  0
 29  2  1  0
 26  7  1  0
 19 14  1  0
 25 20  1  0
  1 30  1  0
  1 31  1  0
  1 32  1  0
  3 33  1  0
  4 34  1  0
  8 35  1  0
 15 36  1  0
 16 37  1  0
 17 38  1  0
 18 39  1  0
 19 40  1  0
 22 41  1  0
 23 42  1  0
 24 43  1  0
 28 44  1  0
 29 45  1  0
M  CHG  2  10  -1  27  -1
M  END
>  <UniqueID>  (3) 
3

>  <SMILES>  (3) 
Cc1ccc(Sc2cc([N-]S(=O)(=O)c3ccccc3)c3ncccc3c2[O-])cc1

>  <Energy>  (3) 
52.670198637285985

>  <Genealogy>  (3) 
Cc1ccc(Sc2cc([N-]S(=O)(=O)c3ccccc3)c3ncccc3c2[O-])cc1 (protonated)
Cc1ccc(Sc2cc([N-]S(=O)(=O)c3ccccc3)c3ncccc3c2[O-])cc1 (3D coordinates assigned)
Cc1ccc(Sc2cc([N-]S(=O)(=O)c3ccccc3)c3ncccc3c2[O-])cc1 (optimized conformer: 52.670198637285985 kcal/mol)

>  <smiles>  (3) 
Cc1ccc(Sc2cc(NS(=O)(=O)c3ccccc3)c3ncccc3c2O)cc1

>  <score_type>  (3) 
oracle

>  <origin>  (3) 
adg

>  <m_score__min__energy>  (3) 
-12.93

>  <m_primary>  (3) 
energy

$$$$
3:0
     RDKit          3D

 31 32  0  0  0  0  0  0  0  0999 V2000
   55.1700   29.2820   44.7890 N   0  0  0  0  0  0  0  0  0  0  0  0
   56.8300   29.6810   44.5260 S   0  0  0  0  0  0  0  0  0  0  0  0
   57.0850   29.7990   43.0490 O   0  0  0  0  0  0  0  0  0  0  0  0
   57.1400   31.0000   45.1760 O   0  0  0  0  0  0  0  0  0  0  0  0
   57.8530   28.4240   45.2150 C   0  0  0  0  0  0  0  0  0  0  0  0
   58.9060   28.7590   46.0740 C   0  0  0  0  0  0  0  0  0  0  0  0
   59.7100   27.7570   46.6230 C   0  0  0  0  0  0  0  0  0  0  0  0
   59.4760   26.4170   46.3040 C   0  0  0  0  0  0  0  0  0  0  0  0
   58.4450   26.0680   45.4200 C   0  0  0  0  0  0  0  0  0  0  0  0
   58.2180   24.6810   45.1170 N   0  0  0  0  0  0  0  0  0  0  0  0
   59.2110   23.6540   45.2610 C   0  0  0  0  0  0  0  0  0  0  0  0
   60.3180   23.9020   45.8110 O   0  0  0  0  0  0  0  0  0  0  0  0
   58.9060   22.2540   44.8270 C   0  0  0  0  0  0  0  0  0  0  0  0
   57.6460   21.4960   45.9100 S   0  0  0  0  0  0  0  0  0  0  0  0
   56.4920   22.8690   45.7940 C   0  0  0  0  0  0  0  0  0  0  0  0
   56.4140   23.7700   46.8060 N   0  0  0  0  0  0  0  0  0  0  0  0
   55.5650   24.7980   46.7510 N   0  0  0  0  0  0  0  0  0  0  0  0
   54.7510   24.9680   45.6780 C   0  0  0  0  0  0  0  0  0  0  0  0
   53.9560   25.9420   45.6360 O   0  0  0  0  0  0  0  0  0  0  0  0
   54.7960   24.0820   44.6510 N   0  0  0  0  0  0  0  0  0  0  0  0
   55.6520   23.0290   44.6870 C   0  0  0  0  0  0  0  0  0  0  0  0
   55.6780   22.2110   43.7300 O   0  0  0  0  0  0  0  0  0  0  0  0
   57.6230   27.0790   44.8890 C   0  0  0  0  0  0  0  0  0  0  0  0
   54.9780   29.4350   45.8050 H   0  0  0  0  0  0  0  0  0  0  0  0
   59.1010   29.8138   46.3175 H   0  0  0  0  0  0  0  0  0  0  0  0
   60.5287   28.0235   47.3076 H   0  0  0  0  0  0  0  0  0  0  0  0
   60.1042   25.6312   46.7489 H   0  0  0  0  0  0  0  0  0  0  0  0
   57.2430   24.3850   44.8830 H   0  0  0  0  0  0  0  0  0  0  0  0
   58.5294   22.2712   43.7936 H   0  0  0  0  0  0  0  0  0  0  0  0
   59.8282   21.6577   44.8899 H   0  0  0  0  0  0  0  0  0  0  0  0
   56.7956   26.8134   44.2146 H   0  0  0  0  0  0  0  0  0  0  0  0
  1  2  1  0
  2  3  2  0
  2  4  2  0
  2  5  1  0
  5  6  2  0
  6  7  1  0
  7  8  2  0
  8  9  1  0
  9 10  1  0
 10 11  1  0
 11 12  2  0
 11 13  1  0
 13 14  1  0
 14 15  1  0
 15 16  2  0
 16 17  1  0
 17 18  1  0
 18 19  2  0
 18 20  1  0
 20 21  1  0
 21 22  2  0
  9 23  2  0
 23  5  1  0
 21 15  1  0
  1 24  1  0
  6 25  1  0
  7 26  1  0
  8 27  1  0
 10 28  1  0
 13 29  1  0
 13 30  1  0
 23 31  1  0
M  CHG  3   1  -1  17  -1  20  -1
M  END
>  <UniqueID>  (4) 
4

>  <SMILES>  (4) 
[NH-]S(=O)(=O)c1cccc(NC(=O)CSc2n[n-]c(=O)[n-]c2=O)c1

>  <Energy>  (4) 
32.25575042890915

>  <Genealogy>  (4) 
[NH-]S(=O)(=O)c1cccc(NC(=O)CSc2n[n-]c(=O)[n-]c2=O)c1 (protonated)
[NH-]S(=O)(=O)c1cccc(NC(=O)CSc2n[n-]c(=O)[n-]c2=O)c1 (3D coordinates assigned)
[NH-]S(=O)(=O)c1cccc(NC(=O)CSc2n[n-]c(=O)[n-]c2=O)c1 (optimized conformer: 32.25575042890915 kcal/mol)

>  <smiles>  (4) 
NS(=O)(=O)c1cccc(NC(=O)CSc2n[nH]c(=O)[nH]c2=O)c1

>  <score_type>  (4) 
oracle

>  <origin>  (4) 
adg

>  <m_score__min__energy>  (4) 
-13.970000000000001

>  <m_primary>  (4) 
energy

$$$$
4:0
     RDKit          3D

 38 39  0  0  0  0  0  0  0  0999 V2000
   59.7050   33.8030   49.8250 C   0  0  0  0  0  0  0  0  0  0  0  0
   59.7830   32.7120   48.7990 C   0  0  0  0  0  0  0  0  0  0  0  0
   60.6870   32.8110   47.7300 C   0  0  0  0  0  0  0  0  0  0  0  0
   60.7360   31.8130   46.7530 C   0  0  0  0  0  0  0  0  0  0  0  0
   59.8850   30.6960   46.8290 C   0  0  0  0  0  0  0  0  0  0  0  0
   59.9190   29.6760   45.8080 N   0  0  0  0  0  0  0  0  0  0  0  0
   58.5800   29.1890   45.5160 C   0  0  0  0  0  0  0  0  0  0  0  0
   58.2150   27.8490   45.8250 C   0  0  0  0  0  0  0  0  0  0  0  0
   59.2110   26.8500   46.3730 C   0  0  0  0  0  0  0  0  0  0  0  0
   56.8660   27.4830   45.6860 C   0  0  0  0  0  0  0  0  0  0  0  0
   56.4760   26.3220   45.9840 O   0  0  0  0  0  0  0  0  0  0  0  0
   55.9620   28.3820   45.2400 N   0  0  0  0  0  0  0  0  0  0  0  0
   56.3210   29.6430   44.9070 C   0  0  0  0  0  0  0  0  0  0  0  0
   55.4370   30.4420   44.4920 O   0  0  0  0  0  0  0  0  0  0  0  0
   57.6220   30.0440   45.0130 N   0  0  0  0  0  0  0  0  0  0  0  0
   57.9540   31.3560   44.6190 N   0  0  0  0  0  0  0  0  0  0  0  0
   57.5600   32.5050   45.4340 C   0  0  0  0  0  0  0  0  0  0  0  0
   58.1530   33.7970   44.8790 C   0  0  0  0  0  0  0  0  0  0  0  0
   57.1450   34.6950   44.5760 F   0  0  0  0  0  0  0  0  0  0  0  0
   58.8890   33.5320   43.7380 F   0  0  0  0  0  0  0  0  0  0  0  0
   58.9890   34.3620   45.8250 F   0  0  0  0  0  0  0  0  0  0  0  0
   58.9540   30.6220   47.8820 C   0  0  0  0  0  0  0  0  0  0  0  0
   58.9050   31.6210   48.8580 C   0  0  0  0  0  0  0  0  0  0  0  0
   59.7365   33.3620   50.8322 H   0  0  0  0  0  0  0  0  0  0  0  0
   60.5565   34.4877   49.6977 H   0  0  0  0  0  0  0  0  0  0  0  0
   58.7648   34.3596   49.6977 H   0  0  0  0  0  0  0  0  0  0  0  0
   61.3601   33.6782   47.6609 H   0  0  0  0  0  0  0  0  0  0  0  0
   61.4461   31.9019   45.9176 H   0  0  0  0  0  0  0  0  0  0  0  0
   60.5330   28.8770   46.0820 H   0  0  0  0  0  0  0  0  0  0  0  0
   60.3790   30.0960   44.9720 H   0  0  0  0  0  0  0  0  0  0  0  0
   59.1872   26.8739   47.4725 H   0  0  0  0  0  0  0  0  0  0  0  0
   58.9488   25.8409   46.0224 H   0  0  0  0  0  0  0  0  0  0  0  0
   60.2209   27.1091   46.0224 H   0  0  0  0  0  0  0  0  0  0  0  0
   58.7390   31.4910   43.9400 H   0  0  0  0  0  0  0  0  0  0  0  0
   56.4629   32.5848   45.4371 H   0  0  0  0  0  0  0  0  0  0  0  0
   57.9380   32.3562   46.4562 H   0  0  0  0  0  0  0  0  0  0  0  0
   58.2593   29.7709   47.9372 H   0  0  0  0  0  0  0  0  0  0  0  0
   58.1737   31.5508   49.6767 H   0  0  0  0  0  0  0  0  0  0  0  0
  1  2  1  0
  2  3  2  0
  3  4  1  0
  4  5  2  0
  5  6  1  0
  6  7  1  0
  7  8  2  0
  8  9  1  0
  8 10  1  0
 10 11  2  0
 10 12  1  0
 12 13  1  0
 13 14  2  0
 13 15  1  0
 15 16  1  0
 16 17  1  0
 17 18  1  0
 18 19  1  0
 18 20  1  0
 18 21  1  0
  5 22  1  0
 22 23  2  0
 23  2  1  0
 15  7  1  0
  1 24  1  0
  1 25  1  0
  1 26  1  0
  3 27  1  0
  4 28  1  0
  6 29  1  0
  6 30  1  0
  9 31  1  0
  9 32  1  0
  9 33  1  0
 16 34  1  0
 17 35  1  0
 17 36  1  0
 22 37  1  0
 23 38  1  0
M  CHG  2   6   1  12  -1
M  END
>  <UniqueID>  (5) 
5

>  <SMILES>  (5) 
Cc1ccc([NH2+]c2c(C)c(=O)[n-]c(=O)n2NCC(F)(F)F)cc1

>  <Energy>  (5) 
48.86101756697253

>  <Genealogy>  (5) 
Cc1ccc([NH2+]c2c(C)c(=O)[n-]c(=O)n2NCC(F)(F)F)cc1 (protonated)
Cc1ccc([NH2+]c2c(C)c(=O)[n-]c(=O)n2NCC(F)(F)F)cc1 (3D coordinates assigned)
Cc1ccc([NH2+]c2c(C)c(=O)[n-]c(=O)n2NCC(F)(F)F)cc1 (optimized conformer: 48.86101756697253 kcal/mol)

>  <smiles>  (5) 
Cc1ccc(Nc2c(C)c(=O)[nH]c(=O)n2NCC(F)(F)F)cc1

>  <score_type>  (5) 
oracle

>  <origin>  (5) 
adg

>  <m_score__min__energy>  (5) 
-6.5599999999999996

>  <m_primary>  (5) 
energy

$$$$
5:0
     RDKit          3D

 62 65  0  0  0  0  0  0  0  0999 V2000
   54.9520   24.9040   45.6200 C   0  0  0  0  0  0  0  0  0  0  0  0
   55.5330   26.1250   46.0620 O   0  0  0  0  0  0  0  0  0  0  0  0
   56.9050   26.3150   46.2790 C   0  0  0  0  0  0  0  0  0  0  0  0
   57.7940   25.3350   45.8130 C   0  0  0  0  0  0  0  0  0  0  0  0
   59.1710   25.4860   45.9900 C   0  0  0  0  0  0  0  0  0  0  0  0
   59.6750   26.6170   46.6370 C   0  0  0  0  0  0  0  0  0  0  0  0
   58.8000   27.6060   47.1080 C   0  0  0  0  0  0  0  0  0  0  0  0
   59.4350   29.0170   47.9480 S   0  0  0  0  0  0  0  0  0  0  0  0
   58.3950   29.5730   48.8840 O   0  0  0  0  0  0  0  0  0  0  0  0
   60.6290   28.6030   48.7670 O   0  0  0  0  0  0  0  0  0  0  0  0
   59.8950   30.2360   46.7970 N   0  0  0  0  0  0  0  0  0  0  0  0
   61.3070   30.4060   46.4470 C   0  0  0  0  0  0  0  0  0  0  0  0
   61.9400   31.4710   47.2960 C   0  0  0  0  0  0  0  0  0  0  0  0
   62.1690   32.6100   46.8030 O   0  0  0  0  0  0  0  0  0  0  0  0
   62.3090   31.1830   48.6510 N   0  0  0  0  0  0  0  0  0  0  0  0
   63.0280   32.1180   49.4700 C   0  0  0  0  0  0  0  0  0  0  0  0
   64.4210   31.9960   49.5760 C   0  0  0  0  0  0  0  0  0  0  0  0
   65.1550   32.8990   50.3490 C   0  0  0  0  0  0  0  0  0  0  0  0
   64.5050   33.9380   51.0200 C   0  0  0  0  0  0  0  0  0  0  0  0
   63.1200   34.0820   50.9090 C   0  0  0  0  0  0  0  0  0  0  0  0
   62.3730   33.1850   50.1290 C   0  0  0  0  0  0  0  0  0  0  0  0
   60.9260   33.4080   49.9750 C   0  0  0  0  0  0  0  0  0  0  0  0
   60.5260   34.4220   49.3360 O   0  0  0  0  0  0  0  0  0  0  0  0
   59.9720   32.5160   50.5730 N   0  0  0  0  0  0  0  0  0  0  0  0
   58.5370   32.6900   50.4310 C   0  0  0  0  0  0  0  0  0  0  0  0
   57.9040   31.5840   51.2690 C   0  0  0  0  0  0  0  0  0  0  0  0
   59.0160   30.5770   51.5510 C   0  0  0  0  0  0  0  0  0  0  0  0
   60.3250   31.3250   51.3270 C   0  0  0  0  0  0  0  0  0  0  0  0
   58.9100   31.1450   46.2800 C   0  0  0  0  0  0  0  0  0  0  0  0
   58.2570   30.8680   45.0700 C   0  0  0  0  0  0  0  0  0  0  0  0
   57.3130   31.7620   44.5570 C   0  0  0  0  0  0  0  0  0  0  0  0
   57.0300   32.9490   45.2410 C   0  0  0  0  0  0  0  0  0  0  0  0
   57.6880   33.2400   46.4400 C   0  0  0  0  0  0  0  0  0  0  0  0
   58.6250   32.3420   46.9600 C   0  0  0  0  0  0  0  0  0  0  0  0
   57.4160   27.4520   46.9340 C   0  0  0  0  0  0  0  0  0  0  0  0
   54.6638   24.2983   46.4918 H   0  0  0  0  0  0  0  0  0  0  0  0
   54.0605   25.1207   45.0132 H   0  0  0  0  0  0  0  0  0  0  0  0
   55.6825   24.3489   45.0132 H   0  0  0  0  0  0  0  0  0  0  0  0
   57.4036   24.4411   45.3045 H   0  0  0  0  0  0  0  0  0  0  0  0
   59.8601   24.7129   45.6193 H   0  0  0  0  0  0  0  0  0  0  0  0
   60.7600   26.7317   46.7771 H   0  0  0  0  0  0  0  0  0  0  0  0
   61.8358   29.4548   46.6072 H   0  0  0  0  0  0  0  0  0  0  0  0
   61.3758   30.7079   45.3915 H   0  0  0  0  0  0  0  0  0  0  0  0
   61.8650   30.3670   49.1240 H   0  0  0  0  0  0  0  0  0  0  0  0
   64.9396   31.1832   49.0465 H   0  0  0  0  0  0  0  0  0  0  0  0
   66.2468   32.7918   50.4295 H   0  0  0  0  0  0  0  0  0  0  0  0
   65.0838   34.6424   51.6355 H   0  0  0  0  0  0  0  0  0  0  0  0
   62.6117   34.9030   51.4358 H   0  0  0  0  0  0  0  0  0  0  0  0
   58.2312   33.6781   50.8055 H   0  0  0  0  0  0  0  0  0  0  0  0
   58.2226   32.6332   49.3784 H   0  0  0  0  0  0  0  0  0  0  0  0
   57.5135   31.9953   52.2115 H   0  0  0  0  0  0  0  0  0  0  0  0
   57.0604   31.1139   50.7424 H   0  0  0  0  0  0  0  0  0  0  0  0
   58.9531   30.2186   52.5891 H   0  0  0  0  0  0  0  0  0  0  0  0
   58.9378   29.6959   50.8971 H   0  0  0  0  0  0  0  0  0  0  0  0
   60.7789   31.6011   52.2902 H   0  0  0  0  0  0  0  0  0  0  0  0
   61.0596   30.7069   50.7901 H   0  0  0  0  0  0  0  0  0  0  0  0
   58.4889   29.9428   44.5222 H   0  0  0  0  0  0  0  0  0  0  0  0
   56.7926   31.5322   43.6155 H   0  0  0  0  0  0  0  0  0  0  0  0
   56.2894   33.6539   44.8354 H   0  0  0  0  0  0  0  0  0  0  0  0
   57.4683   34.1760   46.9744 H   0  0  0  0  0  0  0  0  0  0  0  0
   59.1407   32.5727   47.9039 H   0  0  0  0  0  0  0  0  0  0  0  0
   56.7275   28.2227   47.3108 H   0  0  0  0  0  0  0  0  0  0  0  0
  1  2  1  0
  2  3  1  0
  3  4  2  0
  4  5  1  0
  5  6  2  0
  6  7  1  0
  7  8  1  0
  8  9  2  0
  8 10  2  0
  8 11  1  0
 11 12  1  0
 12 13  1  0
 13 14  2  0
 13 15  1  0
 15 16  1  0
 16 17  2  0
 17 18  1  0
 18 19  2  0
 19 20  1  0
 20 21  2  0
 21 22  1  0
 22 23  2  0
 22 24  1  0
 24 25  1  0
 25 26  1  0
 26 27  1  0
 27 28  1  0
 11 29  1  0
 29 30  2  0
 30 31  1  0
 31 32  2  0
 32 33  1  0
 33 34  2  0
  7 35  2  0
 35  3  1  0
 21 16  1  0
 28 24  1  0
 34 29  1  0
  1 36  1  0
  1 37  1  0
  1 38  1  0
  4 39  1  0
  5 40  1  0
  6 41  1  0
 12 42  1  0
 12 43  1  0
 15 44  1  0
 17 45  1  0
 18 46  1  0
 19 47  1  0
 20 48  1  0
 25 49  1  0
 25 50  1  0
 26 51  1  0
 26 52  1  0
 27 53  1  0
 27 54  1  0
 28 55  1  0
 28 56  1  0
 30 57  1  0
 31 58  1  0
 32 59  1  0
 33 60  1  0
 34 61  1  0
 35 62  1  0
M  END
>  <UniqueID>  (6) 
6

>  <SMILES>  (6) 
COc1cccc(S(=O)(=O)N(CC(=O)Nc2ccccc2C(=O)N2CCCC2)c2ccccc2)c1

>  <Energy>  (6) 
78.04169535560372

>  <Genealogy>  (6) 
COc1cccc(S(=O)(=O)N(CC(=O)Nc2ccccc2C(=O)N2CCCC2)c2ccccc2)c1 (3D coordinates assigned)
COc1cccc(S(=O)(=O)N(CC(=O)Nc2ccccc2C(=O)N2CCCC2)c2ccccc2)c1 (nonaromatic ring conformer: 78.04169535560372 kcal/mol)

>  <smiles>  (6) 
COc1cccc(S(=O)(=O)N(CC(=O)Nc2ccccc2C(=O)N2CCCC2)c2ccccc2)c1

>  <score_type>  (6) 
oracle

>  <origin>  (6) 
adg

>  <m_score__min__energy>  (6) 
-9.6199999999999992

>  <m_primary>  (6) 
energy

$$$$
6:0
     RDKit          3D

 30 30  0  0  0  0  0  0  0  0999 V2000
   54.8400   26.3400   45.9910 N   0  0  0  0  0  0  0  0  0  0  0  0
   56.2920   25.4030   45.9750 S   0  0  0  0  0  0  0  0  0  0  0  0
   56.4060   24.6480   47.2690 O   0  0  0  0  0  0  0  0  0  0  0  0
   56.2420   24.4240   44.8360 O   0  0  0  0  0  0  0  0  0  0  0  0
   57.7220   26.4640   45.7940 C   0  0  0  0  0  0  0  0  0  0  0  0
   57.8280   27.0480   44.3810 C   0  0  0  0  0  0  0  0  0  0  0  0
   57.9040   28.5080   44.4030 N   0  0  0  0  0  0  0  0  0  0  0  0
   56.7410   29.3140   44.6280 C   0  0  0  0  0  0  0  0  0  0  0  0
   55.6160   28.7740   44.8060 O   0  0  0  0  0  0  0  0  0  0  0  0
   56.8560   30.8060   44.6300 C   0  0  0  0  0  0  0  0  0  0  0  0
   58.2320   31.1590   44.7050 O   0  0  0  0  0  0  0  0  0  0  0  0
   58.8660   31.9440   45.6880 C   0  0  0  0  0  0  0  0  0  0  0  0
   59.8830   31.3130   46.4310 C   0  0  0  0  0  0  0  0  0  0  0  0
   60.3060   29.6350   46.1140 Cl  0  0  0  0  0  0  0  0  0  0  0  0
   60.5670   31.9990   47.4370 C   0  0  0  0  0  0  0  0  0  0  0  0
   60.2530   33.3280   47.7170 C   0  0  0  0  0  0  0  0  0  0  0  0
   61.1150   34.1860   48.9820 Cl  0  0  0  0  0  0  0  0  0  0  0  0
   59.2550   33.9750   46.9870 C   0  0  0  0  0  0  0  0  0  0  0  0
   58.5570   33.3040   45.9740 C   0  0  0  0  0  0  0  0  0  0  0  0
   57.3560   34.2590   45.1100 Cl  0  0  0  0  0  0  0  0  0  0  0  0
   55.1240   27.3450   46.0070 H   0  0  0  0  0  0  0  0  0  0  0  0
   57.6443   27.2909   46.5152 H   0  0  0  0  0  0  0  0  0  0  0  0
   58.6208   25.8576   45.9795 H   0  0  0  0  0  0  0  0  0  0  0  0
   58.7334   26.6512   43.8984 H   0  0  0  0  0  0  0  0  0  0  0  0
   56.9250   26.7602   43.8227 H   0  0  0  0  0  0  0  0  0  0  0  0
   58.8150   28.9910   44.2250 H   0  0  0  0  0  0  0  0  0  0  0  0
   56.4200   31.2118   43.7052 H   0  0  0  0  0  0  0  0  0  0  0  0
   56.3156   31.2216   45.4933 H   0  0  0  0  0  0  0  0  0  0  0  0
   61.3556   31.4893   48.0099 H   0  0  0  0  0  0  0  0  0  0  0  0
   59.0133   35.0248   47.2096 H   0  0  0  0  0  0  0  0  0  0  0  0
  1  2  1  0
  2  3  2  0
  2  4  2  0
  2  5  1  0
  5  6  1  0
  6  7  1  0
  7  8  1  0
  8  9  2  0
  8 10  1  0
 10 11  1  0
 11 12  1  0
 12 13  2  0
 13 14  1  0
 13 15  1  0
 15 16  2  0
 16 17  1  0
 16 18  1  0
 18 19  2  0
 19 20  1  0
 19 12  1  0
  1 21  1  0
  5 22  1  0
  5 23  1  0
  6 24  1  0
  6 25  1  0
  7 26  1  0
 10 27  1  0
 10 28  1  0
 15 29  1  0
 18 30  1  0
M  CHG  1   1  -1
M  END
>  <UniqueID>  (7) 
7

>  <SMILES>  (7) 
[NH-]S(=O)(=O)CCNC(=O)COc1c(Cl)cc(Cl)cc1Cl

>  <Energy>  (7) 
24.13604666305797

>  <Genealogy>  (7) 
[NH-]S(=O)(=O)CCNC(=O)COc1c(Cl)cc(Cl)cc1Cl (protonated)
[NH-]S(=O)(=O)CCNC(=O)COc1c(Cl)cc(Cl)cc1Cl (3D coordinates assigned)
[NH-]S(=O)(=O)CCNC(=O)COc1c(Cl)cc(Cl)cc1Cl (optimized conformer: 24.13604666305797 kcal/mol)

>  <smiles>  (7) 
NS(=O)(=O)CCNC(=O)COc1c(Cl)cc(Cl)cc1Cl

>  <score_type>  (7) 
oracle

>  <origin>  (7) 
adg

>  <m_score__min__energy>  (7) 
-10.69

>  <m_primary>  (7) 
energy

$$$$
7:0
     RDKit          3D

 54 58  0  0  0  0  0  0  0  0999 V2000
   57.3692   32.4748   51.9333 H   0  0  0  0  0  0  0  0  0  0  0  0
   58.0770   32.1760   51.1460 C   0  0  0  0  0  0  0  0  0  0  0  0
   58.5960   33.1130   50.3110 N   0  0  0  0  0  0  0  0  0  0  0  0
   59.4840   32.7810   49.3320 C   0  0  0  0  0  0  0  0  0  0  0  0
   59.9910   33.7600   48.4640 O   0  0  0  0  0  0  0  0  0  0  0  0
   59.5890   33.9520   47.1360 C   0  0  0  0  0  0  0  0  0  0  0  0
   59.1510   32.8790   46.4270 N   0  0  0  0  0  0  0  0  0  0  0  0
   58.7460   32.9940   45.1320 C   0  0  0  0  0  0  0  0  0  0  0  0
   58.3370   31.9610   44.4550 N   0  0  0  0  0  0  0  0  0  0  0  0
   57.9200   30.6890   44.9820 C   0  0  0  0  0  0  0  0  0  0  0  0
   56.6430   30.1540   44.7310 C   0  0  0  0  0  0  0  0  0  0  0  0
   55.9214   30.7221   44.1255 H   0  0  0  0  0  0  0  0  0  0  0  0
   56.2860   28.9040   45.2470 C   0  0  0  0  0  0  0  0  0  0  0  0
   55.2750   28.5075   45.0716 H   0  0  0  0  0  0  0  0  0  0  0  0
   57.2140   28.1520   45.9890 C   0  0  0  0  0  0  0  0  0  0  0  0
   56.8840   26.8760   46.5590 N   0  0  0  0  0  0  0  0  0  0  0  0
   56.4320   25.7120   45.8560 C   0  0  0  0  0  0  0  0  0  0  0  0
   55.2070   25.4160   45.8300 O   0  0  0  0  0  0  0  0  0  0  0  0
   57.3780   24.9440   45.1010 N   0  0  0  0  0  0  0  0  0  0  0  0
   58.2940   25.3940   44.8760 H   0  0  0  0  0  0  0  0  0  0  0  0
   57.1140   23.6340   44.5700 C   0  0  0  0  0  0  0  0  0  0  0  0
   56.8130   23.4930   43.2070 C   0  0  0  0  0  0  0  0  0  0  0  0
   56.7704   24.3831   42.5622 H   0  0  0  0  0  0  0  0  0  0  0  0
   56.5670   22.2300   42.6630 C   0  0  0  0  0  0  0  0  0  0  0  0
   56.3132   22.1307   41.5973 H   0  0  0  0  0  0  0  0  0  0  0  0
   56.6430   21.0930   43.4710 C   0  0  0  0  0  0  0  0  0  0  0  0
   56.4335   20.1017   43.0427 H   0  0  0  0  0  0  0  0  0  0  0  0
   56.9850   21.2100   44.8250 C   0  0  0  0  0  0  0  0  0  0  0  0
   57.0550   19.9890   45.6940 C   0  0  0  0  0  0  0  0  0  0  0  0
   57.0377   20.2903   46.7518 H   0  0  0  0  0  0  0  0  0  0  0  0
   56.1926   19.3393   45.4837 H   0  0  0  0  0  0  0  0  0  0  0  0
   57.9860   19.4421   45.4837 H   0  0  0  0  0  0  0  0  0  0  0  0
   57.2100   22.4840   45.3740 C   0  0  0  0  0  0  0  0  0  0  0  0
   57.4630   22.5824   46.4400 H   0  0  0  0  0  0  0  0  0  0  0  0
   58.4880   28.6820   46.2270 C   0  0  0  0  0  0  0  0  0  0  0  0
   59.2148   28.1098   46.8224 H   0  0  0  0  0  0  0  0  0  0  0  0
   58.8430   29.9320   45.7140 C   0  0  0  0  0  0  0  0  0  0  0  0
   59.8559   30.3248   45.8865 H   0  0  0  0  0  0  0  0  0  0  0  0
   58.8090   34.2050   44.5170 N   0  0  0  0  0  0  0  0  0  0  0  0
   59.2570   35.3040   45.1760 C   0  0  0  0  0  0  0  0  0  0  0  0
   59.3004   36.2748   44.6606 H   0  0  0  0  0  0  0  0  0  0  0  0
   59.6620   35.2020   46.5060 C   0  0  0  0  0  0  0  0  0  0  0  0
   60.0312   36.0841   47.0497 H   0  0  0  0  0  0  0  0  0  0  0  0
   59.8570   31.4370   49.1710 C   0  0  0  0  0  0  0  0  0  0  0  0
   60.7620   31.0240   48.1780 C   0  0  0  0  0  0  0  0  0  0  0  0
   61.2013   31.7634   47.4922 H   0  0  0  0  0  0  0  0  0  0  0  0
   61.1040   29.6720   48.0620 C   0  0  0  0  0  0  0  0  0  0  0  0
   61.8118   29.3503   47.2838 H   0  0  0  0  0  0  0  0  0  0  0  0
   60.5490   28.7290   48.9320 C   0  0  0  0  0  0  0  0  0  0  0  0
   60.8209   27.6675   48.8354 H   0  0  0  0  0  0  0  0  0  0  0  0
   59.6500   29.1300   49.9240 C   0  0  0  0  0  0  0  0  0  0  0  0
   59.2166   28.3849   50.6073 H   0  0  0  0  0  0  0  0  0  0  0  0
   59.3010   30.4800   50.0480 C   0  0  0  0  0  0  0  0  0  0  0  0
   58.4290   30.8720   51.0120 N   0  0  0  0  0  0  0  0  0  0  0  0
  1  2  1  0
  2  3  2  0
  3  4  1  0
  4  5  1  0
  5  6  1  0
  6  7  1  0
  7  8  1  0
  8  9  2  0
  9 10  1  0
 10 11  2  0
 11 12  1  0
 11 13  1  0
 13 14  1  0
 13 15  2  0
 15 16  1  0
 16 17  1  0
 17 18  2  0
 17 19  1  0
 19 20  1  0
 19 21  1  0
 21 22  2  0
 22 23  1  0
 22 24  1  0
 24 25  1  0
 24 26  2  0
 26 27  1  0
 26 28  1  0
 28 29  1  0
 29 30  1  0
 29 31  1  0
 29 32  1  0
 28 33  2  0
 33 34  1  0
 15 35  1  0
 35 36  1  0
 35 37  2  0
 37 38  1  0
  8 39  1  0
 39 40  2  0
 40 41  1  0
 40 42  1  0
 42 43  1  0
  4 44  2  0
 44 45  1  0
 45 46  1  0
 45 47  2  0
 47 48  1  0
 47 49  1  0
 49 50  1  0
 49 51  2  0
 51 52  1  0
 51 53  1  0
 53 54  2  0
 54  2  1  0
 42  6  2  0
 53 44  1  0
 37 10  1  0
 33 21  1  0
M  CHG  2   7  -1  16  -1
M  END
>  <UniqueID>  (8) 
8

>  <SMILES>  (8) 
Cc1cccc(NC(=O)[N-]c2ccc(/N=c3/nccc(Oc4ncnc5ccccc45)[n-]3)cc2)c1

>  <Energy>  (8) 
83.38782987158129

>  <Genealogy>  (8) 
Cc1cccc(NC(=O)[N-]c2ccc(N=c3nccc(Oc4ncnc5ccccc45)[n-]3)cc2)c1 (protonated)
Cc1cccc(NC(=O)[N-]c2ccc(/N=c3/nccc(Oc4ncnc5ccccc45)[n-]3)cc2)c1 (cis-trans isomerization)
Cc1cccc(NC(=O)[N-]c2ccc(/N=c3/nccc(Oc4ncnc5ccccc45)[n-]3)cc2)c1 (3D coordinates assigned)
Cc1cccc(NC(=O)[N-]c2ccc(/N=c3/nccc(Oc4ncnc5ccccc45)[n-]3)cc2)c1 (optimized conformer: 83.38782987158129 kcal/mol)

>  <smiles>  (8) 
Cc1cccc(NC(=O)Nc2ccc(N=c3nccc(Oc4ncnc5ccccc45)[nH]3)cc2)c1

>  <score_type>  (8) 
oracle

>  <origin>  (8) 
adg

>  <m_score__min__energy>  (8) 
-11.44

>  <m_primary>  (8) 
energy

$$$$
8:0
     RDKit          3D

 65 69  0  0  0  0  0  0  0  0999 V2000
   58.3150   33.1600   43.7560 C   0  0  0  0  0  0  0  0  0  0  0  0
   58.2140   34.3380   44.6340 N   0  0  0  0  0  0  0  0  0  0  0  0
   59.5050   34.6710   45.2830 C   0  0  0  0  0  0  0  0  0  0  0  0
   59.6340   34.0910   46.7030 C   0  0  0  0  0  0  0  0  0  0  0  0
   58.8560   32.8400   46.8050 N   0  0  0  0  0  0  0  0  0  0  0  0
   59.2540   32.0630   48.0190 C   0  0  1  0  0  0  0  0  0  0  0  0
   58.1490   31.9560   49.1100 C   0  0  0  0  0  0  0  0  0  0  0  0
   58.5970   31.1280   50.3570 C   0  0  2  0  0  0  0  0  0  0  0  0
   58.8750   32.0300   51.5520 C   0  0  0  0  0  0  0  0  0  0  0  0
   59.2490   33.3720   51.3470 C   0  0  0  0  0  0  0  0  0  0  0  0
   59.4800   34.2170   52.4360 C   0  0  0  0  0  0  0  0  0  0  0  0
   59.3390   33.7350   53.7400 C   0  0  0  0  0  0  0  0  0  0  0  0
   59.5610   34.5570   54.7950 F   0  0  0  0  0  0  0  0  0  0  0  0
   58.9680   32.4060   53.9550 C   0  0  0  0  0  0  0  0  0  0  0  0
   58.7360   31.5580   52.8690 C   0  0  0  0  0  0  0  0  0  0  0  0
   59.7480   30.2440   50.0760 N   0  0  0  0  0  0  0  0  0  0  0  0
   60.4160   29.5890   51.1700 C   0  0  0  0  0  0  0  0  0  0  0  0
   59.7790   28.7660   51.8820 O   0  0  0  0  0  0  0  0  0  0  0  0
   61.8420   29.9160   51.5110 C   0  0  0  0  0  0  0  0  0  0  0  0
   62.1090   31.3460   51.3490 N   0  0  0  0  0  0  0  0  0  0  0  0
   62.3590   32.0050   50.0900 C   0  0  0  0  0  0  0  0  0  0  0  0
   62.7850   31.3030   48.9450 C   0  0  0  0  0  0  0  0  0  0  0  0
   63.0690   31.9880   47.7600 C   0  0  0  0  0  0  0  0  0  0  0  0
   62.9250   33.3750   47.7000 C   0  0  0  0  0  0  0  0  0  0  0  0
   62.4840   34.0800   48.8200 C   0  0  0  0  0  0  0  0  0  0  0  0
   62.1940   33.3990   50.0060 C   0  0  0  0  0  0  0  0  0  0  0  0
   59.9330   29.7660   48.7270 C   0  0  0  0  0  0  0  0  0  0  0  0
   60.3120   28.4350   48.4630 C   0  0  0  0  0  0  0  0  0  0  0  0
   60.4110   27.9790   47.1480 C   0  0  0  0  0  0  0  0  0  0  0  0
   60.1050   28.8320   46.0880 C   0  0  0  0  0  0  0  0  0  0  0  0
   59.7130   30.1490   46.3390 C   0  0  0  0  0  0  0  0  0  0  0  0
   59.6500   30.6370   47.6610 C   0  0  0  0  0  0  0  0  0  0  0  0
   57.4140   33.1670   46.7180 C   0  0  0  0  0  0  0  0  0  0  0  0
   57.1140   34.2070   45.6100 C   0  0  0  0  0  0  0  0  0  0  0  0
   58.3930   32.2507   44.3700 H   0  0  0  0  0  0  0  0  0  0  0  0
   57.4189   33.0980   43.1211 H   0  0  0  0  0  0  0  0  0  0  0  0
   59.2086   33.2514   43.1211 H   0  0  0  0  0  0  0  0  0  0  0  0
   60.3215   34.2690   44.6651 H   0  0  0  0  0  0  0  0  0  0  0  0
   59.5555   35.7664   45.3701 H   0  0  0  0  0  0  0  0  0  0  0  0
   60.6924   33.8813   46.9170 H   0  0  0  0  0  0  0  0  0  0  0  0
   59.2463   34.8201   47.4297 H   0  0  0  0  0  0  0  0  0  0  0  0
   60.0992   32.6363   48.4275 H   0  0  0  0  0  0  0  0  0  0  0  0
   57.8840   32.9711   49.4406 H   0  0  0  0  0  0  0  0  0  0  0  0
   57.2927   31.4329   48.6593 H   0  0  0  0  0  0  0  0  0  0  0  0
   57.7521   30.4713   50.6118 H   0  0  0  0  0  0  0  0  0  0  0  0
   59.3601   33.7579   50.3229 H   0  0  0  0  0  0  0  0  0  0  0  0
   59.7734   35.2635   52.2663 H   0  0  0  0  0  0  0  0  0  0  0  0
   58.8582   32.0260   54.9814 H   0  0  0  0  0  0  0  0  0  0  0  0
   58.4423   30.5128   53.0459 H   0  0  0  0  0  0  0  0  0  0  0  0
   62.0359   29.6306   52.5555 H   0  0  0  0  0  0  0  0  0  0  0  0
   62.5006   29.3586   50.8287 H   0  0  0  0  0  0  0  0  0  0  0  0
   62.2910   31.8840   52.2270 H   0  0  0  0  0  0  0  0  0  0  0  0
   62.8948   30.2092   48.9838 H   0  0  0  0  0  0  0  0  0  0  0  0
   63.4068   31.4326   46.8726 H   0  0  0  0  0  0  0  0  0  0  0  0
   63.1593   33.9124   46.7692 H   0  0  0  0  0  0  0  0  0  0  0  0
   62.3644   35.1723   48.7700 H   0  0  0  0  0  0  0  0  0  0  0  0
   61.8334   33.9588   50.8816 H   0  0  0  0  0  0  0  0  0  0  0  0
   60.5308   27.7522   49.2972 H   0  0  0  0  0  0  0  0  0  0  0  0
   60.7307   26.9458   46.9473 H   0  0  0  0  0  0  0  0  0  0  0  0
   60.1724   28.4671   45.0525 H   0  0  0  0  0  0  0  0  0  0  0  0
   59.4516   30.8103   45.4998 H   0  0  0  0  0  0  0  0  0  0  0  0
   56.8547   32.2454   46.4992 H   0  0  0  0  0  0  0  0  0  0  0  0
   57.1086   33.6027   47.6807 H   0  0  0  0  0  0  0  0  0  0  0  0
   56.2044   33.8974   45.0746 H   0  0  0  0  0  0  0  0  0  0  0  0
   56.9876   35.1842   46.0990 H   0  0  0  0  0  0  0  0  0  0  0  0
  1  2  1  0
  2  3  1  0
  3  4  1  0
  4  5  1  0
  5  6  1  0
  6  7  1  0
  7  8  1  0
  8  9  1  0
  9 10  2  0
 10 11  1  0
 11 12  2  0
 12 13  1  0
 12 14  1  0
 14 15  2  0
  8 16  1  0
 16 17  1  0
 17 18  2  0
 17 19  1  0
 19 20  1  0
 20 21  1  0
 21 22  2  0
 22 23  1  0
 23 24  2  0
 24 25  1  0
 25 26  2  0
 16 27  1  0
 27 28  2  0
 28 29  1  0
 29 30  2  0
 30 31  1  0
 31 32  2  0
  5 33  1  0
 33 34  1  0
 34  2  1  0
 32  6  1  0
 15  9  1  0
 26 21  1  0
 32 27  1  0
  1 35  1  0
  1 36  1  0
  1 37  1  0
  3 38  1  0
  3 39  1  0
  4 40  1  0
  4 41  1  0
  6 42  1  1
  7 43  1  0
  7 44  1  0
  8 45  1  1
 10 46  1  0
 11 47  1  0
 14 48  1  0
 15 49  1  0
 19 50  1  0
 19 51  1  0
 20 52  1  0
 22 53  1  0
 23 54  1  0
 24 55  1  0
 25 56  1  0
 26 57  1  0
 28 58  1  0
 29 59  1  0
 30 60  1  0
 31 61  1  0
 33 62  1  0
 33 63  1  0
 34 64  1  0
 34 65  1  0
M  END
>  <UniqueID>  (9) 
9

>  <SMILES>  (9) 
CN1CCN([C@H]2C[C@H](c3ccc(F)cc3)N(C(=O)CNc3ccccc3)c3ccccc32)CC1

>  <Energy>  (9) 
99.47162620825918

>  <Genealogy>  (9) 
CN1CCN([C@H]2C[C@H](c3ccc(F)cc3)N(C(=O)CNc3ccccc3)c3ccccc32)CC1 (chirality)
CN1CCN([C@H]2C[C@H](c3ccc(F)cc3)N(C(=O)CNc3ccccc3)c3ccccc32)CC1 (3D coordinates assigned)
CN1CCN([C@H]2C[C@H](c3ccc(F)cc3)N(C(=O)CNc3ccccc3)c3ccccc32)CC1 (nonaromatic ring conformer: 99.47162620825918 kcal/mol)

>  <smiles>  (9) 
CN1CCN(C2CC(c3ccc(F)cc3)N(C(=O)CNc3ccccc3)c3ccccc32)CC1

>  <score_type>  (9) 
oracle

>  <origin>  (9) 
adg

>  <m_score__min__energy>  (9) 
-8.9600000000000009

>  <m_primary>  (9) 
energy

$$$$
9:0
     RDKit          3D

 39 40  0  0  0  0  0  0  0  0999 V2000
   58.1020   26.1940   45.5660 C   0  0  0  0  0  0  0  0  0  0  0  0
   56.6850   26.3900   46.0090 C   0  0  0  0  0  0  0  0  0  0  0  0
   56.1510   25.5240   46.7520 O   0  0  0  0  0  0  0  0  0  0  0  0
   55.9040   27.5160   45.5830 N   0  0  0  0  0  0  0  0  0  0  0  0
   56.4080   28.8150   45.2470 C   0  0  0  0  0  0  0  0  0  0  0  0
   57.4900   29.3300   45.9680 C   0  0  0  0  0  0  0  0  0  0  0  0
   58.0020   30.5950   45.6650 C   0  0  0  0  0  0  0  0  0  0  0  0
   57.4450   31.3520   44.6260 C   0  0  0  0  0  0  0  0  0  0  0  0
   58.0790   32.9590   44.2830 S   0  0  0  0  0  0  0  0  0  0  0  0
   57.0060   33.9950   44.4830 O   0  0  0  0  0  0  0  0  0  0  0  0
   58.5190   33.0020   42.8470 O   0  0  0  0  0  0  0  0  0  0  0  0
   59.4540   33.2920   45.3040 N   0  0  0  0  0  0  0  0  0  0  0  0
   59.2530   34.4640   46.1680 C   0  0  0  0  0  0  0  0  0  0  0  0
   59.9010   34.3300   47.5620 C   0  0  0  0  0  0  0  0  0  0  0  0
   61.1540   33.4850   47.5650 C   0  0  0  0  0  0  0  0  0  0  0  0
   61.2240   32.3080   48.3320 C   0  0  0  0  0  0  0  0  0  0  0  0
   62.3880   31.5320   48.3300 C   0  0  0  0  0  0  0  0  0  0  0  0
   63.4850   31.9150   47.5520 C   0  0  0  0  0  0  0  0  0  0  0  0
   63.4140   33.0670   46.7670 C   0  0  0  0  0  0  0  0  0  0  0  0
   62.2510   33.8420   46.7640 C   0  0  0  0  0  0  0  0  0  0  0  0
   56.3920   30.8180   43.8700 C   0  0  0  0  0  0  0  0  0  0  0  0
   55.8790   29.5540   44.1750 C   0  0  0  0  0  0  0  0  0  0  0  0
   58.7529   26.1040   46.4482 H   0  0  0  0  0  0  0  0  0  0  0  0
   58.1739   25.2774   44.9622 H   0  0  0  0  0  0  0  0  0  0  0  0
   58.4201   27.0567   44.9622 H   0  0  0  0  0  0  0  0  0  0  0  0
   57.9404   28.7368   46.7775 H   0  0  0  0  0  0  0  0  0  0  0  0
   58.8457   30.9977   46.2447 H   0  0  0  0  0  0  0  0  0  0  0  0
   59.6630   32.4460   45.8810 H   0  0  0  0  0  0  0  0  0  0  0  0
   59.6866   35.3422   45.6672 H   0  0  0  0  0  0  0  0  0  0  0  0
   58.1690   34.5619   46.3272 H   0  0  0  0  0  0  0  0  0  0  0  0
   60.1586   35.3361   47.9245 H   0  0  0  0  0  0  0  0  0  0  0  0
   59.1698   33.8272   48.2120 H   0  0  0  0  0  0  0  0  0  0  0  0
   60.3593   31.9962   48.9363 H   0  0  0  0  0  0  0  0  0  0  0  0
   62.4404   30.6191   48.9414 H   0  0  0  0  0  0  0  0  0  0  0  0
   64.4030   31.3090   47.5586 H   0  0  0  0  0  0  0  0  0  0  0  0
   64.2745   33.3652   46.1500 H   0  0  0  0  0  0  0  0  0  0  0  0
   62.1944   34.7386   46.1293 H   0  0  0  0  0  0  0  0  0  0  0  0
   55.9685   31.3951   43.0348 H   0  0  0  0  0  0  0  0  0  0  0  0
   55.0581   29.1361   43.5737 H   0  0  0  0  0  0  0  0  0  0  0  0
  1  2  1  0
  2  3  2  0
  2  4  1  0
  4  5  1  0
  5  6  2  0
  6  7  1  0
  7  8  2  0
  8  9  1  0
  9 10  2  0
  9 11  2  0
  9 12  1  0
 12 13  1  0
 13 14  1  0
 14 15  1  0
 15 16  2  0
 16 17  1  0
 17 18  2  0
 18 19  1  0
 19 20  2  0
  8 21  1  0
 21 22  2  0
 22  5  1  0
 20 15  1  0
  1 23  1  0
  1 24  1  0
  1 25  1  0
  6 26  1  0
  7 27  1  0
 12 28  1  0
 13 29  1  0
 13 30  1  0
 14 31  1  0
 14 32  1  0
 16 33  1  0
 17 34  1  0
 18 35  1  0
 19 36  1  0
 20 37  1  0
 21 38  1  0
 22 39  1  0
M  CHG  1   4  -1
M  END
>  <UniqueID>  (10) 
10

>  <SMILES>  (10) 
CC(=O)[N-]c1ccc(S(=O)(=O)NCCc2ccccc2)cc1

>  <Energy>  (10) 
38.92542435781167

>  <Genealogy>  (10) 
CC(=O)[N-]c1ccc(S(=O)(=O)NCCc2ccccc2)cc1 (protonated)
CC(=O)[N-]c1ccc(S(=O)(=O)NCCc2ccccc2)cc1 (3D coordinates assigned)
CC(=O)[N-]c1ccc(S(=O)(=O)NCCc2ccccc2)cc1 (optimized conformer: 38.92542435781167 kcal/mol)

>  <smiles>  (10) 
CC(=O)Nc1ccc(S(=O)(=O)NCCc2ccccc2)cc1

>  <score_type>  (10) 
oracle

>  <origin>  (10) 
adg

>  <m_score__min__energy>  (10) 
-9.6400000000000006

>  <m_primary>  (10) 
energy

$$$$
10:0
     RDKit          3D

 44 46  0  0  1  0  0  0  0  0999 V2000
   57.0150   30.8480   42.8120 C   0  0  0  0  0  0  0  0  0  0  0  0
   56.2940   30.5320   44.1090 C   0  0  0  0  0  0  0  0  0  0  0  0
   55.3230   29.7360   43.9690 O   0  0  0  0  0  0  0  0  0  0  0  0
   56.7470   31.1060   45.2250 O   0  0  0  0  0  0  0  0  0  0  0  0
   57.6170   32.1400   45.4420 C   0  0  0  0  0  0  0  0  0  0  0  0
   57.1680   33.4520   45.3180 C   0  0  0  0  0  0  0  0  0  0  0  0
   57.9720   34.5420   45.5160 C   0  0  0  0  0  0  0  0  0  0  0  0
   59.3030   34.3450   45.8550 C   0  0  0  0  0  0  0  0  0  0  0  0
   59.8030   33.0690   45.9910 C   0  0  0  0  0  0  0  0  0  0  0  0
   58.9700   31.9370   45.7880 C   0  0  0  0  0  0  0  0  0  0  0  0
   59.4690   30.6840   45.8150 N   0  0  0  0  0  0  0  0  0  0  0  0
   59.5010   29.8040   46.6620 C   0  0  0  0  0  0  0  0  0  0  0  0
   60.2550   30.0150   47.7730 N   0  0  0  0  0  0  0  0  0  0  0  0
   60.3220   29.1110   48.7430 C   0  0  0  0  0  0  0  0  0  0  0  0
   61.1270   29.3280   49.9030 N   0  0  0  0  0  0  0  0  0  0  0  0
   61.8380   30.5820   50.0900 C   0  0  0  0  0  0  0  0  0  0  0  0
   61.2450   28.3010   50.9280 C   0  0  0  0  0  0  0  0  0  0  0  0
   59.6480   27.9600   48.6590 N   0  0  0  0  0  0  0  0  0  0  0  0
   58.9000   27.7380   47.5650 C   0  0  0  0  0  0  0  0  0  0  0  0
   58.2270   26.5490   47.5010 C   0  0  0  0  0  0  0  0  0  0  0  0
   57.4660   26.3070   46.3860 C   0  0  0  0  0  0  0  0  0  0  0  0
   56.7570   25.0650   46.2890 N   0  0  0  0  0  0  0  0  0  0  0  0
   55.5190   25.1250   46.3460 O   0  0  0  0  0  0  0  0  0  0  0  0
   57.4400   23.8680   46.1370 O   0  0  0  0  0  0  0  0  0  0  0  0
   57.3270   27.1600   45.3340 C   0  0  0  0  0  0  0  0  0  0  0  0
   58.0290   28.3820   45.4200 C   0  0  0  0  0  0  0  0  0  0  0  0
   58.7900   28.6400   46.5210 C   0  0  0  0  0  0  0  0  0  0  0  0
   58.0012   31.2803   43.0367 H   0  0  0  0  0  0  0  0  0  0  0  0
   57.1438   29.9238   42.2295 H   0  0  0  0  0  0  0  0  0  0  0  0
   56.4227   31.5690   42.2295 H   0  0  0  0  0  0  0  0  0  0  0  0
   56.1152   33.6210   45.0476 H   0  0  0  0  0  0  0  0  0  0  0  0
   57.5686   35.5597   45.4079 H   0  0  0  0  0  0  0  0  0  0  0  0
   59.9614   35.2114   46.0158 H   0  0  0  0  0  0  0  0  0  0  0  0
   60.8598   32.9250   46.2600 H   0  0  0  0  0  0  0  0  0  0  0  0
   61.9515   30.7823   51.1656 H   0  0  0  0  0  0  0  0  0  0  0  0
   62.8315   30.5134   49.6229 H   0  0  0  0  0  0  0  0  0  0  0  0
   61.2690   31.3993   49.6229 H   0  0  0  0  0  0  0  0  0  0  0  0
   61.1914   28.7678   51.9226 H   0  0  0  0  0  0  0  0  0  0  0  0
   60.4241   27.5771   50.8179 H   0  0  0  0  0  0  0  0  0  0  0  0
   62.2087   27.7821   50.8179 H   0  0  0  0  0  0  0  0  0  0  0  0
   59.6980   27.2510   49.4170 H   0  0  0  0  0  0  0  0  0  0  0  0
   58.2938   25.8126   48.3154 H   0  0  0  0  0  0  0  0  0  0  0  0
   56.7016   26.9106   44.4641 H   0  0  0  0  0  0  0  0  0  0  0  0
   57.9624   29.1190   44.6061 H   0  0  0  0  0  0  0  0  0  0  0  0
  1  2  1  0
  2  3  2  0
  2  4  1  0
  4  5  1  0
  5  6  2  0
  6  7  1  0
  7  8  2  0
  8  9  1  0
  9 10  2  0
 10 11  1  0
 11 12  2  0
 12 13  1  0
 13 14  2  0
 14 15  1  0
 15 16  1  0
 15 17  1  0
 14 18  1  0
 18 19  1  0
 19 20  2  0
 20 21  1  0
 21 22  1  0
 22 23  2  0
 22 24  1  0
 21 25  2  0
 25 26  1  0
 26 27  2  0
 10  5  1  0
 27 12  1  0
 27 19  1  0
  1 28  1  0
  1 29  1  0
  1 30  1  0
  6 31  1  0
  7 32  1  0
  8 33  1  0
  9 34  1  0
 16 35  1  0
 16 36  1  0
 16 37  1  0
 17 38  1  0
 17 39  1  0
 17 40  1  0
 18 41  1  0
 20 42  1  0
 25 43  1  0
 26 44  1  0
M  CHG  2  22   1  24  -1
M  END
>  <smiles>  (11) 
CC(=O)Oc1ccccc1N=c1nc(N(C)C)[nH]c2cc([N+](=O)[O-])ccc12

>  <score_type>  (11) 
oracle

>  <origin>  (11) 
adg

>  <m_score__min__energy>  (11) 
-7.7999999999999998

>  <m_primary>  (11) 
energy

$$$$
11:0
     RDKit          3D

 40 42  0  0  1  0  0  0  0  0999 V2000
   64.2020   33.4670   47.4570 N   0  0  0  0  0  0  0  0  0  0  0  0
   62.9390   33.6440   47.7420 C   0  0  0  0  0  0  0  0  0  0  0  0
   62.5500   33.7600   49.0060 N   0  0  0  0  0  0  0  0  0  0  0  0
   61.2610   33.9450   49.3700 C   0  0  0  0  0  0  0  0  0  0  0  0
   60.9450   34.0540   50.7050 O   0  0  0  0  0  0  0  0  0  0  0  0
   59.8550   33.5130   51.3350 C   0  0  0  0  0  0  0  0  0  0  0  0
   59.3110   32.3520   50.7930 C   0  0  0  0  0  0  0  0  0  0  0  0
   58.2100   31.7300   51.3550 C   0  0  0  0  0  0  0  0  0  0  0  0
   57.6240   32.2680   52.4890 C   0  0  0  0  0  0  0  0  0  0  0  0
   58.1460   33.4180   53.0440 C   0  0  0  0  0  0  0  0  0  0  0  0
   59.2580   34.0340   52.4640 C   0  0  0  0  0  0  0  0  0  0  0  0
   60.3340   34.0120   48.3480 C   0  0  0  0  0  0  0  0  0  0  0  0
   60.7020   33.8960   47.0110 C   0  0  0  0  0  0  0  0  0  0  0  0
   59.8810   33.9520   46.0400 N   0  0  0  0  0  0  0  0  0  0  0  0
   59.0900   32.8540   45.5970 C   0  0  0  0  0  0  0  0  0  0  0  0
   59.2650   31.5650   46.0640 C   0  0  0  0  0  0  0  0  0  0  0  0
   58.4830   30.5210   45.6160 C   0  0  0  0  0  0  0  0  0  0  0  0
   57.4840   30.7330   44.6710 C   0  0  0  0  0  0  0  0  0  0  0  0
   56.5070   29.4220   44.1130 S   0  0  0  0  0  0  0  0  0  0  0  0
   56.2880   29.5560   42.4010 N   0  0  0  0  0  0  0  0  0  0  0  0
   55.1530   29.3780   44.7590 O   0  0  0  0  0  0  0  0  0  0  0  0
   57.2560   28.1160   44.3310 O   0  0  0  0  0  0  0  0  0  0  0  0
   57.2930   32.0300   44.1880 C   0  0  0  0  0  0  0  0  0  0  0  0
   58.0860   33.0750   44.6460 C   0  0  0  0  0  0  0  0  0  0  0  0
   62.0120   33.7130   46.7590 N   0  0  0  0  0  0  0  0  0  0  0  0
   64.5140   32.4720   47.3880 H   0  0  0  0  0  0  0  0  0  0  0  0
   63.2600   33.7070   49.7760 H   0  0  0  0  0  0  0  0  0  0  0  0
   59.7692   31.9167   49.8927 H   0  0  0  0  0  0  0  0  0  0  0  0
   57.8024   30.8134   50.9037 H   0  0  0  0  0  0  0  0  0  0  0  0
   56.7485   31.7816   52.9438 H   0  0  0  0  0  0  0  0  0  0  0  0
   57.6861   33.8508   53.9446 H   0  0  0  0  0  0  0  0  0  0  0  0
   59.6646   34.9508   52.9158 H   0  0  0  0  0  0  0  0  0  0  0  0
   59.2734   34.1615   48.5985 H   0  0  0  0  0  0  0  0  0  0  0  0
   60.0473   31.3669   46.8115 H   0  0  0  0  0  0  0  0  0  0  0  0
   58.6512   29.5081   46.0107 H   0  0  0  0  0  0  0  0  0  0  0  0
   57.1390   29.3400   41.8610 H   0  0  0  0  0  0  0  0  0  0  0  0
   55.5180   28.9130   42.0790 H   0  0  0  0  0  0  0  0  0  0  0  0
   56.5100   32.2251   43.4405 H   0  0  0  0  0  0  0  0  0  0  0  0
   57.9228   34.0905   44.2560 H   0  0  0  0  0  0  0  0  0  0  0  0
   62.3500   33.6200   45.7940 H   0  0  0  0  0  0  0  0  0  0  0  0
  1  2  2  3
  2  3  1  0
  3  4  1  0
  4  5  1  0
  5  6  1  0
  6  7  2  0
  7  8  1  0
  8  9  2  0
  9 10  1  0
 10 11  2  0
  4 12  2  0
 12 13  1  0
 13 14  2  0
 14 15  1  0
 15 16  2  0
 16 17  1  0
 17 18  2  0
 18 19  1  0
 19 20  1  0
 19 21  2  0
 19 22  2  0
 18 23  1  0
 23 24  2  0
 13 25  1  0
 25  2  1  0
 11  6  1  0
 24 15  1  0
  1 26  1  0
  3 27  1  0
  7 28  1  0
  8 29  1  0
  9 30  1  0
 10 31  1  0
 11 32  1  0
 12 33  1  0
 16 34  1  0
 17 35  1  0
 20 36  1  0
 20 37  1  0
 23 38  1  0
 24 39  1  0
 25 40  1  0
M  END
>  <smiles>  (12) 
N=c1[nH]c(Oc2ccccc2)cc(=Nc2ccc(S(N)(=O)=O)cc2)[nH]1

>  <score_type>  (12) 
oracle

>  <origin>  (12) 
adg

>  <m_score__min__energy>  (12) 
-8.6199999999999992

>  <m_primary>  (12) 
energy

$$$$
12:0
     RDKit          3D

 26 27  0  0  0  0  0  0  0  0999 V2000
   55.1430   28.6010   45.6210 H   0  0  0  0  0  0  0  0  0  0  0  0
   55.4830   29.2430   44.8700 N   0  0  0  0  0  0  0  0  0  0  0  0
   57.2050   29.3080   45.0040 S   0  0  0  0  0  0  0  0  0  0  0  0
   57.8100   28.6130   43.8170 O   0  0  0  0  0  0  0  0  0  0  0  0
   57.6410   28.5960   46.2540 O   0  0  0  0  0  0  0  0  0  0  0  0
   57.7320   30.9940   45.0700 C   0  0  0  0  0  0  0  0  0  0  0  0
   58.2480   31.5120   46.2700 C   0  0  0  0  0  0  0  0  0  0  0  0
   58.3168   30.8637   47.1560 H   0  0  0  0  0  0  0  0  0  0  0  0
   58.6780   32.8500   46.3530 C   0  0  0  0  0  0  0  0  0  0  0  0
   59.2210   33.3920   47.6220 C   0  0  0  0  0  0  0  0  0  0  0  0
   58.6270   33.1500   48.7080 O   0  0  0  0  0  0  0  0  0  0  0  0
   60.4180   34.1900   47.6020 N   0  0  0  0  0  0  0  0  0  0  0  0
   61.6380   33.8050   47.8460 C   0  0  0  0  0  0  0  0  0  0  0  0
   62.9150   33.7320   46.7450 S   0  0  0  0  0  0  0  0  0  0  0  0
   64.0110   33.1600   47.8880 C   0  0  0  0  0  0  0  0  0  0  0  0
   65.0692   32.9213   47.7057 H   0  0  0  0  0  0  0  0  0  0  0  0
   63.3440   33.0420   49.1040 C   0  0  0  0  0  0  0  0  0  0  0  0
   63.8392   32.6867   50.0197 H   0  0  0  0  0  0  0  0  0  0  0  0
   62.0330   33.4000   49.0720 N   0  0  0  0  0  0  0  0  0  0  0  0
   61.4070   33.3640   49.9060 H   0  0  0  0  0  0  0  0  0  0  0  0
   58.5850   33.6650   45.2120 C   0  0  0  0  0  0  0  0  0  0  0  0
   58.9175   34.7124   45.2610 H   0  0  0  0  0  0  0  0  0  0  0  0
   58.0740   33.1560   44.0170 C   0  0  0  0  0  0  0  0  0  0  0  0
   58.0069   33.8052   43.1316 H   0  0  0  0  0  0  0  0  0  0  0  0
   57.6470   31.8280   43.9370 C   0  0  0  0  0  0  0  0  0  0  0  0
   57.0160   31.2470   42.3990 Cl  0  0  0  0  0  0  0  0  0  0  0  0
  1  2  1  0
  2  3  1  0
  3  4  2  0
  3  5  2  0
  3  6  1  0
  6  7  2  0
  7  8  1  0
  7  9  1  0
  9 10  1  0
 10 11  2  0
 10 12  1  0
 12 13  2  0
 13 14  1  0
 14 15  1  0
 15 16  1  0
 15 17  2  0
 17 18  1  0
 17 19  1  0
 19 20  1  0
  9 21  2  0
 21 22  1  0
 21 23  1  0
 23 24  1  0
 23 25  2  0
 25 26  1  0
 25  6  1  0
 19 13  1  0
M  CHG  1   2  -1
M  END
>  <UniqueID>  (13) 
11

>  <SMILES>  (13) 
[NH-]S(=O)(=O)c1cc(C(=O)/N=c2/[nH]ccs2)ccc1Cl

>  <Energy>  (13) 
62.08319290289362

>  <Genealogy>  (13) 
[NH-]S(=O)(=O)c1cc(C(=O)N=c2[nH]ccs2)ccc1Cl (protonated)
[NH-]S(=O)(=O)c1cc(C(=O)/N=c2/[nH]ccs2)ccc1Cl (cis-trans isomerization)
[NH-]S(=O)(=O)c1cc(C(=O)/N=c2/[nH]ccs2)ccc1Cl (3D coordinates assigned)
[NH-]S(=O)(=O)c1cc(C(=O)/N=c2/[nH]ccs2)ccc1Cl (optimized conformer: 62.08319290289362 kcal/mol)

>  <smiles>  (13) 
NS(=O)(=O)c1cc(C(=O)N=c2[nH]ccs2)ccc1Cl

>  <score_type>  (13) 
oracle

>  <origin>  (13) 
adg

>  <m_score__min__energy>  (13) 
-10.65

>  <m_primary>  (13) 
energy

$$$$
13:0
     RDKit          3D

 49 53  0  0  1  0  0  0  0  0999 V2000
   55.2020   24.2120   44.9940 C   0  0  0  0  0  0  0  0  0  0  0  0
   55.2590   25.2200   45.9820 O   0  0  0  0  0  0  0  0  0  0  0  0
   56.4320   25.8930   46.2900 C   0  0  0  0  0  0  0  0  0  0  0  0
   56.6440   27.1210   45.6640 C   0  0  0  0  0  0  0  0  0  0  0  0
   57.8040   27.8570   45.9260 C   0  0  0  0  0  0  0  0  0  0  0  0
   58.7510   27.3570   46.8170 C   0  0  0  0  0  0  0  0  0  0  0  0
   59.9980   28.1040   47.1260 C   0  0  0  0  0  0  0  0  0  0  0  0
   59.7770   29.2180   48.0840 C   0  0  0  0  0  0  0  0  0  0  0  0
   60.4130   30.3960   48.1870 N   0  0  0  0  0  0  0  0  0  0  0  0
   59.8840   31.0920   49.1940 C   0  0  0  0  0  0  0  0  0  0  0  0
   60.1460   32.3390   49.7330 C   0  0  0  0  0  0  0  0  0  0  0  0
   61.1280   33.0650   49.1800 C   0  0  0  0  0  0  0  0  0  0  0  0
   60.7500   34.5800   48.3120 S   0  0  0  0  0  0  0  0  0  0  0  0
   59.4880   34.2240   47.1000 C   0  0  0  0  0  0  0  0  0  0  0  0
   59.6440   34.7960   45.8440 C   0  0  0  0  0  0  0  0  0  0  0  0
   58.6950   34.5460   44.8840 C   0  0  0  0  0  0  0  0  0  0  0  0
   57.5960   33.7470   45.1300 C   0  0  0  0  0  0  0  0  0  0  0  0
   57.4510   33.1810   46.3920 C   0  0  0  0  0  0  0  0  0  0  0  0
   58.4000   33.4240   47.3680 C   0  0  0  0  0  0  0  0  0  0  0  0
   59.4090   32.7880   50.7940 C   0  0  0  0  0  0  0  0  0  0  0  0
   59.6650   33.9210   51.2650 O   0  0  0  0  0  0  0  0  0  0  0  0
   58.4250   32.0090   51.3140 N   0  0  0  0  0  0  0  0  0  0  0  0
   58.1620   30.7970   50.7980 C   0  0  0  0  0  0  0  0  0  0  0  0
   58.8780   30.3000   49.7270 C   0  0  0  0  0  0  0  0  0  0  0  0
   58.8100   29.1420   49.0440 N   0  0  0  0  0  0  0  0  0  0  0  0
   57.1960   30.2280   51.4360 N   0  0  0  0  0  0  0  0  0  0  0  0
   56.7150   31.0640   52.4820 C   0  0  0  0  0  0  0  0  0  0  0  0
   55.7840   30.7990   53.2820 O   0  0  0  0  0  0  0  0  0  0  0  0
   57.5510   32.3070   52.4200 C   0  0  0  0  0  0  0  0  0  0  0  0
   58.5300   26.1390   47.4300 C   0  0  0  0  0  0  0  0  0  0  0  0
   57.3790   25.4120   47.1680 C   0  0  0  0  0  0  0  0  0  0  0  0
   55.1463   23.2262   45.4788 H   0  0  0  0  0  0  0  0  0  0  0  0
   54.3110   24.3632   44.3669 H   0  0  0  0  0  0  0  0  0  0  0  0
   56.1044   24.2617   44.3669 H   0  0  0  0  0  0  0  0  0  0  0  0
   55.8948   27.5129   44.9603 H   0  0  0  0  0  0  0  0  0  0  0  0
   57.9678   28.8256   45.4311 H   0  0  0  0  0  0  0  0  0  0  0  0
   60.7280   27.4055   47.5610 H   0  0  0  0  0  0  0  0  0  0  0  0
   60.3643   28.5422   46.1859 H   0  0  0  0  0  0  0  0  0  0  0  0
   62.1714   32.7263   49.2611 H   0  0  0  0  0  0  0  0  0  0  0  0
   60.5105   35.4365   45.6229 H   0  0  0  0  0  0  0  0  0  0  0  0
   58.8138   34.9964   43.8875 H   0  0  0  0  0  0  0  0  0  0  0  0
   56.8499   33.5618   44.3432 H   0  0  0  0  0  0  0  0  0  0  0  0
   56.5837   32.5417   46.6133 H   0  0  0  0  0  0  0  0  0  0  0  0
   58.2848   32.9750   48.3655 H   0  0  0  0  0  0  0  0  0  0  0  0
   58.1430   28.3610   49.2310 H   0  0  0  0  0  0  0  0  0  0  0  0
   56.9354   33.1959   52.2178 H   0  0  0  0  0  0  0  0  0  0  0  0
   58.0769   32.5416   53.3572 H   0  0  0  0  0  0  0  0  0  0  0  0
   59.2758   25.7414   48.1341 H   0  0  0  0  0  0  0  0  0  0  0  0
   57.2204   24.4435   47.6649 H   0  0  0  0  0  0  0  0  0  0  0  0
  1  2  1  0
  2  3  1  0
  3  4  2  0
  4  5  1  0
  5  6  2  0
  6  7  1  0
  7  8  1  0
  8  9  2  0
  9 10  1  0
 10 11  1  0
 11 12  2  0
 12 13  1  0
 13 14  1  0
 14 15  2  0
 15 16  1  0
 16 17  2  0
 17 18  1  0
 18 19  2  0
 11 20  1  0
 20 21  2  0
 20 22  1  0
 22 23  1  0
 23 24  1  0
 24 25  1  0
 23 26  2  0
 26 27  1  0
 27 28  2  0
 27 29  1  0
  6 30  1  0
 30 31  2  0
 31  3  1  0
 25  8  1  0
 24 10  2  0
 19 14  1  0
 29 22  1  0
  1 32  1  0
  1 33  1  0
  1 34  1  0
  4 35  1  0
  5 36  1  0
  7 37  1  0
  7 38  1  0
 12 39  1  0
 15 40  1  0
 16 41  1  0
 17 42  1  0
 18 43  1  0
 19 44  1  0
 25 45  1  0
 29 46  1  0
 29 47  1  0
 30 48  1  0
 31 49  1  0
M  END
>  <smiles>  (14) 
COc1ccc(Cc2nc3c(=CSc4ccccc4)c(=O)n4c(c3[nH]2)=NC(=O)C4)cc1

>  <score_type>  (14) 
oracle

>  <origin>  (14) 
adg

>  <m_score__min__energy>  (14) 
-8.8399999999999999

>  <m_primary>  (14) 
energy

$$$$
14:0
     RDKit          3D

 39 41  0  0  0  0  0  0  0  0999 V2000
   59.5870   34.3150   48.8690 C   0  0  0  0  0  0  0  0  0  0  0  0
   59.1630   34.0290   47.4600 C   0  0  0  0  0  0  0  0  0  0  0  0
   59.4850   34.9390   46.4200 C   0  0  0  0  0  0  0  0  0  0  0  0
   59.1140   34.6670   45.0900 C   0  0  0  0  0  0  0  0  0  0  0  0
   58.4370   33.4780   44.8370 C   0  0  0  0  0  0  0  0  0  0  0  0
   57.9950   33.0200   43.6570 N   0  0  0  0  0  0  0  0  0  0  0  0
   57.4180   31.8400   44.0030 C   0  0  0  0  0  0  0  0  0  0  0  0
   56.6490   30.7550   42.8050 S   0  0  0  0  0  0  0  0  0  0  0  0
   57.0620   29.2170   43.7030 C   0  0  0  0  0  0  0  0  0  0  0  0
   56.1100   28.9640   44.8420 C   0  0  0  0  0  0  0  0  0  0  0  0
   55.1500   29.7600   45.0300 O   0  0  0  0  0  0  0  0  0  0  0  0
   56.1470   27.7510   45.6040 N   0  0  0  0  0  0  0  0  0  0  0  0
   57.3030   26.9530   45.8920 C   0  0  0  0  0  0  0  0  0  0  0  0
   58.4670   27.5870   46.3430 C   0  0  0  0  0  0  0  0  0  0  0  0
   59.6240   26.8440   46.5870 C   0  0  0  0  0  0  0  0  0  0  0  0
   59.6340   25.4650   46.3630 C   0  0  0  0  0  0  0  0  0  0  0  0
   58.4830   24.8240   45.8830 C   0  0  0  0  0  0  0  0  0  0  0  0
   58.4800   23.0920   45.5660 S   0  0  0  0  0  0  0  0  0  0  0  0
   57.7010   22.7450   44.0600 N   0  0  0  0  0  0  0  0  0  0  0  0
   59.8980   22.5960   45.5070 O   0  0  0  0  0  0  0  0  0  0  0  0
   57.7450   22.3880   46.6710 O   0  0  0  0  0  0  0  0  0  0  0  0
   57.3240   25.5720   45.6370 C   0  0  0  0  0  0  0  0  0  0  0  0
   57.4830   31.5380   45.3260 N   0  0  0  0  0  0  0  0  0  0  0  0
   58.1360   32.5960   45.8280 C   0  0  0  0  0  0  0  0  0  0  0  0
   58.4910   32.8250   47.1550 C   0  0  0  0  0  0  0  0  0  0  0  0
   58.8825   33.8398   49.5675 H   0  0  0  0  0  0  0  0  0  0  0  0
   60.5971   33.9129   49.0367 H   0  0  0  0  0  0  0  0  0  0  0  0
   59.5926   35.4021   49.0367 H   0  0  0  0  0  0  0  0  0  0  0  0
   60.0295   35.8653   46.6554 H   0  0  0  0  0  0  0  0  0  0  0  0
   59.3511   35.3703   44.2782 H   0  0  0  0  0  0  0  0  0  0  0  0
   57.0121   28.3707   43.0021 H   0  0  0  0  0  0  0  0  0  0  0  0
   58.0743   29.3247   44.1198 H   0  0  0  0  0  0  0  0  0  0  0  0
   58.4702   28.6749   46.5058 H   0  0  0  0  0  0  0  0  0  0  0  0
   60.5302   27.3460   46.9567 H   0  0  0  0  0  0  0  0  0  0  0  0
   60.5450   24.8820   46.5632 H   0  0  0  0  0  0  0  0  0  0  0  0
   56.6880   22.6000   44.2680 H   0  0  0  0  0  0  0  0  0  0  0  0
   58.0720   21.8280   43.7280 H   0  0  0  0  0  0  0  0  0  0  0  0
   56.4257   25.0749   45.2420 H   0  0  0  0  0  0  0  0  0  0  0  0
   58.2555   32.0916   47.9403 H   0  0  0  0  0  0  0  0  0  0  0  0
  1  2  1  0
  2  3  2  0
  3  4  1  0
  4  5  2  0
  5  6  1  0
  6  7  1  0
  7  8  1  0
  8  9  1  0
  9 10  1  0
 10 11  2  0
 10 12  1  0
 12 13  1  0
 13 14  2  0
 14 15  1  0
 15 16  2  0
 16 17  1  0
 17 18  1  0
 18 19  1  0
 18 20  2  0
 18 21  2  0
 17 22  2  0
  7 23  2  0
 23 24  1  0
 24 25  2  0
 25  2  1  0
 24  5  1  0
 22 13  1  0
  1 26  1  0
  1 27  1  0
  1 28  1  0
  3 29  1  0
  4 30  1  0
  9 31  1  0
  9 32  1  0
 14 33  1  0
 15 34  1  0
 16 35  1  0
 19 36  1  0
 19 37  1  0
 22 38  1  0
 25 39  1  0
M  CHG  2   6  -1  12  -1
M  END
>  <UniqueID>  (15) 
12

>  <SMILES>  (15) 
Cc1ccc2[n-]c(SCC(=O)[N-]c3cccc(S(N)(=O)=O)c3)nc2c1

>  <Energy>  (15) 
72.28036658896492

>  <Genealogy>  (15) 
Cc1ccc2[n-]c(SCC(=O)[N-]c3cccc(S(N)(=O)=O)c3)nc2c1 (protonated)
Cc1ccc2[n-]c(SCC(=O)[N-]c3cccc(S(N)(=O)=O)c3)nc2c1 (3D coordinates assigned)
Cc1ccc2[n-]c(SCC(=O)[N-]c3cccc(S(N)(=O)=O)c3)nc2c1 (optimized conformer: 72.28036658896492 kcal/mol)

>  <smiles>  (15) 
Cc1ccc2[nH]c(SCC(=O)Nc3cccc(S(N)(=O)=O)c3)nc2c1

>  <score_type>  (15) 
oracle

>  <origin>  (15) 
adg

>  <m_score__min__energy>  (15) 
-12.76

>  <m_primary>  (15) 
energy

$$$$
15:0
     RDKit          3D

 32 34  0  0  0  0  0  0  0  0999 V2000
   57.9920   33.6040   43.8910 O   0  0  0  0  0  0  0  0  0  0  0  0
   57.8450   32.5120   44.5000 C   0  0  0  0  0  0  0  0  0  0  0  0
   58.0660   31.2230   43.7760 C   0  0  0  0  0  0  0  0  0  0  0  0
   57.1640   30.1650   44.3320 C   0  0  0  0  0  0  0  0  0  0  0  0
   55.7840   30.0790   44.1780 C   0  0  0  0  0  0  0  0  0  0  0  0
   55.3360   28.9720   44.7420 O   0  0  0  0  0  0  0  0  0  0  0  0
   56.3660   28.3290   45.2440 C   0  0  0  0  0  0  0  0  0  0  0  0
   56.3670   27.1070   45.9210 C   0  0  0  0  0  0  0  0  0  0  0  0
   55.1860   26.4060   46.1560 O   0  0  0  0  0  0  0  0  0  0  0  0
   57.6050   26.5990   46.3600 C   0  0  0  0  0  0  0  0  0  0  0  0
   57.6590   25.3870   47.0380 O   0  0  0  0  0  0  0  0  0  0  0  0
   58.7990   27.3160   46.1120 C   0  0  0  0  0  0  0  0  0  0  0  0
   58.7660   28.5450   45.4290 C   0  0  0  0  0  0  0  0  0  0  0  0
   57.5240   29.0230   45.0130 C   0  0  0  0  0  0  0  0  0  0  0  0
   57.4800   32.4860   45.8850 N   0  0  0  0  0  0  0  0  0  0  0  0
   58.2820   32.9410   46.9850 C   0  0  0  0  0  0  0  0  0  0  0  0
   58.5150   32.1410   48.1190 C   0  0  0  0  0  0  0  0  0  0  0  0
   59.3250   32.6130   49.1580 C   0  0  0  0  0  0  0  0  0  0  0  0
   59.9180   33.8750   49.0670 C   0  0  0  0  0  0  0  0  0  0  0  0
   59.7090   34.6640   47.9330 C   0  0  0  0  0  0  0  0  0  0  0  0
   58.9020   34.1940   46.8920 C   0  0  0  0  0  0  0  0  0  0  0  0
   57.8481   31.3631   42.7069 H   0  0  0  0  0  0  0  0  0  0  0  0
   59.1128   30.9105   43.9043 H   0  0  0  0  0  0  0  0  0  0  0  0
   55.1586   30.8229   43.6628 H   0  0  0  0  0  0  0  0  0  0  0  0
   55.1560   25.6190   46.7930 H   0  0  0  0  0  0  0  0  0  0  0  0
   59.7612   26.9089   46.4562 H   0  0  0  0  0  0  0  0  0  0  0  0
   59.6886   29.1099   45.2298 H   0  0  0  0  0  0  0  0  0  0  0  0
   58.0594   31.1423   48.1889 H   0  0  0  0  0  0  0  0  0  0  0  0
   59.4952   31.9894   50.0480 H   0  0  0  0  0  0  0  0  0  0  0  0
   60.5490   34.2471   49.8876 H   0  0  0  0  0  0  0  0  0  0  0  0
   60.1795   35.6555   47.8590 H   0  0  0  0  0  0  0  0  0  0  0  0
   58.7530   34.8121   45.9943 H   0  0  0  0  0  0  0  0  0  0  0  0
  1  2  2  0
  2  3  1  0
  3  4  1  0
  4  5  2  0
  5  6  1  0
  6  7  1  0
  7  8  2  0
  8  9  1  0
  8 10  1  0
 10 11  1  0
 10 12  2  0
 12 13  1  0
 13 14  2  0
  2 15  1  0
 15 16  1  0
 16 17  2  0
 17 18  1  0
 18 19  2  0
 19 20  1  0
 20 21  2  0
 14  4  1  0
 21 16  1  0
 14  7  1  0
  3 22  1  0
  3 23  1  0
  5 24  1  0
  9 25  1  0
 12 26  1  0
 13 27  1  0
 17 28  1  0
 18 29  1  0
 19 30  1  0
 20 31  1  0
 21 32  1  0
M  CHG  2  11  -1  15  -1
M  END
>  <UniqueID>  (16) 
13

>  <SMILES>  (16) 
O=C(Cc1coc2c(O)c([O-])ccc12)[N-]c1ccccc1

>  <Energy>  (16) 
69.49226641936943

>  <Genealogy>  (16) 
O=C(Cc1coc2c(O)c([O-])ccc12)[N-]c1ccccc1 (protonated)
O=C(Cc1coc2c(O)c([O-])ccc12)[N-]c1ccccc1 (3D coordinates assigned)
O=C(Cc1coc2c(O)c([O-])ccc12)[N-]c1ccccc1 (optimized conformer: 69.49226641936943 kcal/mol)

>  <smiles>  (16) 
O=C(Cc1coc2c(O)c(O)ccc12)Nc1ccccc1

>  <score_type>  (16) 
oracle

>  <origin>  (16) 
adg

>  <m_score__min__energy>  (16) 
-11.09

>  <m_primary>  (16) 
energy

$$$$
16:0
     RDKit          3D

 39 40  0  0  0  0  0  0  0  0999 V2000
   61.1690   32.8860   48.2310 N   0  0  0  0  0  0  0  0  0  0  0  0
   59.5460   33.4780   48.1780 S   0  0  0  0  0  0  0  0  0  0  0  0
   59.5500   34.9340   48.5480 O   0  0  0  0  0  0  0  0  0  0  0  0
   58.7080   32.7110   49.1630 O   0  0  0  0  0  0  0  0  0  0  0  0
   58.8740   33.2830   46.5620 C   0  0  0  0  0  0  0  0  0  0  0  0
   59.4390   33.9740   45.4810 C   0  0  0  0  0  0  0  0  0  0  0  0
   58.8970   33.8380   44.1990 C   0  0  0  0  0  0  0  0  0  0  0  0
   57.7930   33.0070   43.9890 C   0  0  0  0  0  0  0  0  0  0  0  0
   57.2370   32.2910   45.0570 C   0  0  0  0  0  0  0  0  0  0  0  0
   56.0950   31.4580   44.8270 N   0  0  0  0  0  0  0  0  0  0  0  0
   56.1440   30.1120   44.3400 C   0  0  0  0  0  0  0  0  0  0  0  0
   55.1910   29.3340   44.6100 O   0  0  0  0  0  0  0  0  0  0  0  0
   57.2080   29.6700   43.3720 C   0  0  0  0  0  0  0  0  0  0  0  0
   58.1340   28.7800   43.9940 O   0  0  0  0  0  0  0  0  0  0  0  0
   58.4940   28.8560   45.3450 C   0  0  0  0  0  0  0  0  0  0  0  0
   59.5680   29.4170   45.6920 O   0  0  0  0  0  0  0  0  0  0  0  0
   57.5640   28.3120   46.3510 C   0  0  0  0  0  0  0  0  0  0  0  0
   57.6220   27.0780   46.8760 C   0  0  0  0  0  0  0  0  0  0  0  0
   57.1930   25.8350   46.1940 C   0  0  0  0  0  0  0  0  0  0  0  0
   58.1230   24.8220   45.8900 C   0  0  0  0  0  0  0  0  0  0  0  0
   57.7230   23.6810   45.1870 C   0  0  0  0  0  0  0  0  0  0  0  0
   58.8900   22.4290   44.8050 Cl  0  0  0  0  0  0  0  0  0  0  0  0
   56.3950   23.5470   44.7720 C   0  0  0  0  0  0  0  0  0  0  0  0
   55.4700   24.5590   45.0470 C   0  0  0  0  0  0  0  0  0  0  0  0
   55.8650   25.7040   45.7450 C   0  0  0  0  0  0  0  0  0  0  0  0
   54.9340   26.7060   45.9950 O   0  0  0  0  0  0  0  0  0  0  0  0
   57.7640   32.4530   46.3490 C   0  0  0  0  0  0  0  0  0  0  0  0
   61.7040   33.5250   48.8610 H   0  0  0  0  0  0  0  0  0  0  0  0
   60.3110   34.6250   45.6416 H   0  0  0  0  0  0  0  0  0  0  0  0
   59.3403   34.3860   43.3545 H   0  0  0  0  0  0  0  0  0  0  0  0
   57.3595   32.9149   42.9822 H   0  0  0  0  0  0  0  0  0  0  0  0
   56.7309   29.1565   42.5243 H   0  0  0  0  0  0  0  0  0  0  0  0
   57.7568   30.5590   43.0278 H   0  0  0  0  0  0  0  0  0  0  0  0
   56.7559   28.9716   46.7002 H   0  0  0  0  0  0  0  0  0  0  0  0
   58.0209   26.9819   47.8966 H   0  0  0  0  0  0  0  0  0  0  0  0
   59.1707   24.9289   46.2075 H   0  0  0  0  0  0  0  0  0  0  0  0
   56.0773   22.6448   44.2287 H   0  0  0  0  0  0  0  0  0  0  0  0
   54.4273   24.4537   44.7127 H   0  0  0  0  0  0  0  0  0  0  0  0
   57.3037   31.9262   47.1978 H   0  0  0  0  0  0  0  0  0  0  0  0
  1  2  1  0
  2  3  2  0
  2  4  2  0
  2  5  1  0
  5  6  2  0
  6  7  1  0
  7  8  2  0
  8  9  1  0
  9 10  1  0
 10 11  1  0
 11 12  2  0
 11 13  1  0
 13 14  1  0
 14 15  1  0
 15 16  2  0
 15 17  1  0
 17 18  2  3
 18 19  1  0
 19 20  2  0
 20 21  1  0
 21 22  1  0
 21 23  2  0
 23 24  1  0
 24 25  2  0
 25 26  1  0
  9 27  2  0
 27  5  1  0
 25 19  1  0
  1 28  1  0
  6 29  1  0
  7 30  1  0
  8 31  1  0
 13 32  1  0
 13 33  1  0
 17 34  1  0
 18 35  1  0
 20 36  1  0
 23 37  1  0
 24 38  1  0
 27 39  1  0
M  CHG  3   1  -1  10  -1  26  -1
M  END
>  <UniqueID>  (17) 
14

>  <SMILES>  (17) 
[NH-]S(=O)(=O)c1cccc([N-]C(=O)COC(=O)C=Cc2cc(Cl)ccc2[O-])c1

>  <Energy>  (17) 
49.73718558532559

>  <Genealogy>  (17) 
[NH-]S(=O)(=O)c1cccc([N-]C(=O)COC(=O)C=Cc2cc(Cl)ccc2[O-])c1 (protonated)
[NH-]S(=O)(=O)c1cccc([N-]C(=O)COC(=O)C=Cc2cc(Cl)ccc2[O-])c1 (3D coordinates assigned)
[NH-]S(=O)(=O)c1cccc([N-]C(=O)COC(=O)C=Cc2cc(Cl)ccc2[O-])c1 (optimized conformer: 49.73718558532559 kcal/mol)

>  <smiles>  (17) 
NS(=O)(=O)c1cccc(NC(=O)COC(=O)C=Cc2cc(Cl)ccc2O)c1

>  <score_type>  (17) 
oracle

>  <origin>  (17) 
adg

>  <m_score__min__energy>  (17) 
-15

>  <m_primary>  (17) 
energy

$$$$
17:0
     RDKit          3D

 61 65  0  0  0  0  0  0  0  0999 V2000
   56.6710   34.1470   43.6580 H   0  0  0  0  0  0  0  0  0  0  0  0
   56.6430   34.4920   44.6100 O   0  0  0  0  0  0  0  0  0  0  0  0
   57.6880   34.2540   45.5000 C   0  0  0  0  0  0  0  0  0  0  0  0
   58.9490   34.8060   45.2500 C   0  0  0  0  0  0  0  0  0  0  0  0
   59.1113   35.4167   44.3496 H   0  0  0  0  0  0  0  0  0  0  0  0
   60.0040   34.5840   46.1410 C   0  0  0  0  0  0  0  0  0  0  0  0
   60.9937   35.0184   45.9364 H   0  0  0  0  0  0  0  0  0  0  0  0
   59.8060   33.8090   47.2960 C   0  0  0  0  0  0  0  0  0  0  0  0
   60.9290   33.6220   48.2890 C   0  0  0  0  0  0  0  0  0  0  0  0
   60.9551   34.4954   48.9572 H   0  0  0  0  0  0  0  0  0  0  0  0
   61.8615   33.5161   47.7152 H   0  0  0  0  0  0  0  0  0  0  0  0
   60.7750   32.4020   49.1130 N   0  0  0  0  0  0  0  0  0  0  0  0
   59.7670   32.3720   50.1640 C   0  0  0  0  0  0  0  0  0  0  0  0
   59.7880   33.3110   51.2180 C   0  0  0  0  0  0  0  0  0  0  0  0
   60.5826   34.0708   51.2545 H   0  0  0  0  0  0  0  0  0  0  0  0
   58.8080   33.2850   52.2170 C   0  0  0  0  0  0  0  0  0  0  0  0
   58.8311   34.0285   53.0274 H   0  0  0  0  0  0  0  0  0  0  0  0
   57.8020   32.3190   52.1880 C   0  0  0  0  0  0  0  0  0  0  0  0
   57.0316   32.3028   52.9730 H   0  0  0  0  0  0  0  0  0  0  0  0
   57.7740   31.3740   51.1630 C   0  0  0  0  0  0  0  0  0  0  0  0
   56.9851   30.6076   51.1449 H   0  0  0  0  0  0  0  0  0  0  0  0
   58.7470   31.3980   50.1570 C   0  0  0  0  0  0  0  0  0  0  0  0
   58.7157   30.6489   49.3521 H   0  0  0  0  0  0  0  0  0  0  0  0
   61.8610   31.3960   49.1290 C   0  0  0  0  0  0  0  0  0  0  0  0
   62.5681   31.6507   49.9322 H   0  0  0  0  0  0  0  0  0  0  0  0
   62.3512   31.4122   48.1444 H   0  0  0  0  0  0  0  0  0  0  0  0
   61.3370   29.9910   49.3660 C   0  0  0  0  0  0  0  0  0  0  0  0
   60.7440   29.2700   48.3110 C   0  0  0  0  0  0  0  0  0  0  0  0
   60.6443   29.7404   47.3217 H   0  0  0  0  0  0  0  0  0  0  0  0
   60.2810   27.9670   48.5030 C   0  0  0  0  0  0  0  0  0  0  0  0
   59.7930   27.2290   47.3710 N   0  0  0  0  0  0  0  0  0  0  0  0
   58.6130   27.2970   46.8080 C   0  0  0  0  0  0  0  0  0  0  0  0
   57.5860   26.3770   47.1110 C   0  0  0  0  0  0  0  0  0  0  0  0
   57.7690   25.5672   47.8327 H   0  0  0  0  0  0  0  0  0  0  0  0
   56.3370   26.4940   46.4950 C   0  0  0  0  0  0  0  0  0  0  0  0
   55.5426   25.7688   46.7255 H   0  0  0  0  0  0  0  0  0  0  0  0
   56.1000   27.4980   45.6140 N   0  0  0  0  0  0  0  0  0  0  0  0
   57.0510   28.4190   45.3040 C   0  0  0  0  0  0  0  0  0  0  0  0
   56.7520   29.4420   44.3960 C   0  0  0  0  0  0  0  0  0  0  0  0
   55.7547   29.4910   43.9345 H   0  0  0  0  0  0  0  0  0  0  0  0
   57.7160   30.4010   44.0740 C   0  0  0  0  0  0  0  0  0  0  0  0
   57.3340   31.6810   42.9380 Cl  0  0  0  0  0  0  0  0  0  0  0  0
   58.9860   30.3410   44.6580 C   0  0  0  0  0  0  0  0  0  0  0  0
   59.7418   31.0987   44.4036 H   0  0  0  0  0  0  0  0  0  0  0  0
   59.2990   29.3230   45.5630 C   0  0  0  0  0  0  0  0  0  0  0  0
   60.3009   29.2816   46.0151 H   0  0  0  0  0  0  0  0  0  0  0  0
   58.3350   28.3470   45.9000 C   0  0  0  0  0  0  0  0  0  0  0  0
   60.4380   27.3580   49.7560 C   0  0  0  0  0  0  0  0  0  0  0  0
   60.1269   26.3127   49.8990 H   0  0  0  0  0  0  0  0  0  0  0  0
   60.9870   28.0710   50.8230 C   0  0  0  0  0  0  0  0  0  0  0  0
   61.0727   27.5951   51.8110 H   0  0  0  0  0  0  0  0  0  0  0  0
   61.4320   29.3950   50.6440 C   0  0  0  0  0  0  0  0  0  0  0  0
   61.9840   30.1340   51.7060 O   0  0  0  0  0  0  0  0  0  0  0  0
   61.3080   30.4500   52.9170 C   0  0  0  0  0  0  0  0  0  0  0  0
   61.9336   30.1576   53.7732 H   0  0  0  0  0  0  0  0  0  0  0  0
   61.1142   31.5320   52.9571 H   0  0  0  0  0  0  0  0  0  0  0  0
   60.3535   29.9048   52.9571 H   0  0  0  0  0  0  0  0  0  0  0  0
   58.5410   33.2460   47.5370 C   0  0  0  0  0  0  0  0  0  0  0  0
   58.3790   32.6263   48.4313 H   0  0  0  0  0  0  0  0  0  0  0  0
   57.4870   33.4700   46.6450 C   0  0  0  0  0  0  0  0  0  0  0  0
   56.4983   33.0301   46.8423 H   0  0  0  0  0  0  0  0  0  0  0  0
  1  2  1  0
  2  3  1  0
  3  4  2  0
  4  5  1  0
  4  6  1  0
  6  7  1  0
  6  8  2  0
  8  9  1  0
  9 10  1  0
  9 11  1  0
  9 12  1  0
 12 13  1  0
 13 14  2  0
 14 15  1  0
 14 16  1  0
 16 17  1  0
 16 18  2  0
 18 19  1  0
 18 20  1  0
 20 21  1  0
 20 22  2  0
 22 23  1  0
 12 24  1  0
 24 25  1  0
 24 26  1  0
 24 27  1  0
 27 28  2  0
 28 29  1  0
 28 30  1  0
 30 31  1  0
 31 32  2  0
 32 33  1  0
 33 34  1  0
 33 35  2  0
 35 36  1  0
 35 37  1  0
 37 38  1  0
 38 39  2  0
 39 40  1  0
 39 41  1  0
 41 42  1  0
 41 43  2  0
 43 44  1  0
 43 45  1  0
 45 46  1  0
 45 47  2  0
 30 48  2  0
 48 49  1  0
 48 50  1  0
 50 51  1  0
 50 52  2  0
 52 53  1  0
 53 54  1  0
 54 55  1  0
 54 56  1  0
 54 57  1  0
  8 58  1  0
 58 59  1  0
 58 60  2  0
 60 61  1  0
 60  3  1  0
 22 13  1  0
 52 27  1  0
 47 32  1  0
 47 38  1  0
M  CHG  1  37  -1
M  END
>  <UniqueID>  (18) 
15

>  <SMILES>  (18) 
COc1ccc(/N=c2\cc[n-]c3cc(Cl)ccc23)cc1CN(Cc1ccc(O)cc1)c1ccccc1

>  <Energy>  (18) 
83.94482033737995

>  <Genealogy>  (18) 
COc1ccc(N=c2cc[n-]c3cc(Cl)ccc23)cc1CN(Cc1ccc(O)cc1)c1ccccc1 (protonated)
COc1ccc(/N=c2\cc[n-]c3cc(Cl)ccc23)cc1CN(Cc1ccc(O)cc1)c1ccccc1 (cis-trans isomerization)
COc1ccc(/N=c2\cc[n-]c3cc(Cl)ccc23)cc1CN(Cc1ccc(O)cc1)c1ccccc1 (3D coordinates assigned)
COc1ccc(/N=c2\cc[n-]c3cc(Cl)ccc23)cc1CN(Cc1ccc(O)cc1)c1ccccc1 (optimized conformer: 83.94482033737995 kcal/mol)

>  <smiles>  (18) 
COc1ccc(N=c2cc[nH]c3cc(Cl)ccc23)cc1CN(Cc1ccc(O)cc1)c1ccccc1

>  <score_type>  (18) 
oracle

>  <origin>  (18) 
adg

>  <m_score__min__energy>  (18) 
-10.869999999999999

>  <m_primary>  (18) 
energy

$$$$
18:0
     RDKit          3D

 72 76  0  0  0  0  0  0  0  0999 V2000
   57.9265   27.1037   48.1941 H   0  0  0  0  0  0  0  0  0  0  0  0
   58.4400   27.5820   47.3470 C   0  0  0  0  0  0  0  0  0  0  0  0
   57.8230   27.6500   46.1390 N   0  0  0  0  0  0  0  0  0  0  0  0
   58.3990   28.2290   45.0510 C   0  0  0  0  0  0  0  0  0  0  0  0
   57.6520   28.2600   43.7710 C   0  0  0  0  0  0  0  0  0  0  0  0
   57.8740   27.3850   42.8890 O   0  0  0  0  0  0  0  0  0  0  0  0
   56.6280   29.3390   43.5250 C   0  0  0  0  0  0  0  0  0  0  0  0
   56.3544   29.3289   42.4596 H   0  0  0  0  0  0  0  0  0  0  0  0
   55.7609   29.1286   44.1683 H   0  0  0  0  0  0  0  0  0  0  0  0
   57.1350   30.7060   43.8780 C   0  0  0  0  0  0  0  0  0  0  0  0
   57.2830   31.0990   45.1720 N   0  0  0  0  0  0  0  0  0  0  0  0
   57.7020   32.3820   45.2540 C   0  0  0  0  0  0  0  0  0  0  0  0
   57.9580   33.0000   46.3680 N   0  0  0  0  0  0  0  0  0  0  0  0
   59.2360   33.0930   47.0190 C   0  0  0  0  0  0  0  0  0  0  0  0
   60.3200   33.7840   46.4450 C   0  0  0  0  0  0  0  0  0  0  0  0
   60.1938   34.2942   45.4787 H   0  0  0  0  0  0  0  0  0  0  0  0
   61.5560   33.8250   47.0970 C   0  0  0  0  0  0  0  0  0  0  0  0
   62.3925   34.3831   46.6511 H   0  0  0  0  0  0  0  0  0  0  0  0
   61.7330   33.1580   48.3160 C   0  0  0  0  0  0  0  0  0  0  0  0
   63.2860   33.2260   49.1410 S   0  0  0  0  0  0  0  0  0  0  0  0
   63.5230   31.9410   49.8840 O   0  0  0  0  0  0  0  0  0  0  0  0
   63.2910   34.3600   50.1280 O   0  0  0  0  0  0  0  0  0  0  0  0
   64.5450   33.4670   47.9810 N   0  0  0  0  0  0  0  0  0  0  0  0
   65.4510   33.2890   48.4690 H   0  0  0  0  0  0  0  0  0  0  0  0
   64.4400   32.7210   47.2580 H   0  0  0  0  0  0  0  0  0  0  0  0
   60.6630   32.4490   48.8780 C   0  0  0  0  0  0  0  0  0  0  0  0
   60.7959   31.9237   49.8353 H   0  0  0  0  0  0  0  0  0  0  0  0
   59.4270   32.4070   48.2260 C   0  0  0  0  0  0  0  0  0  0  0  0
   58.5982   31.8312   48.6637 H   0  0  0  0  0  0  0  0  0  0  0  0
   57.9130   33.0730   43.7390 S   0  0  0  0  0  0  0  0  0  0  0  0
   57.4310   31.6800   42.9260 C   0  0  0  0  0  0  0  0  0  0  0  0
   57.3618   31.5596   41.8348 H   0  0  0  0  0  0  0  0  0  0  0  0
   59.6840   28.7820   45.1780 C   0  0  0  0  0  0  0  0  0  0  0  0
   60.3040   29.3820   44.1300 F   0  0  0  0  0  0  0  0  0  0  0  0
   60.3400   28.7250   46.4080 C   0  0  0  0  0  0  0  0  0  0  0  0
   61.3457   29.1596   46.5067 H   0  0  0  0  0  0  0  0  0  0  0  0
   59.7320   28.1180   47.5270 C   0  0  0  0  0  0  0  0  0  0  0  0
   60.3950   28.0590   48.8250 N   0  0  0  0  0  0  0  0  0  0  0  0
   60.6890   26.7570   49.4420 C   0  0  0  0  0  0  0  0  0  0  0  0
   60.6665   26.8568   50.5372 H   0  0  0  0  0  0  0  0  0  0  0  0
   59.9341   26.0223   49.1252 H   0  0  0  0  0  0  0  0  0  0  0  0
   61.6863   26.4179   49.1252 H   0  0  0  0  0  0  0  0  0  0  0  0
   60.8600   29.2710   49.5260 C   0  0  0  0  0  0  0  0  0  0  0  0
   61.8211   29.5830   49.0913 H   0  0  0  0  0  0  0  0  0  0  0  0
   60.0890   30.0456   49.4013 H   0  0  0  0  0  0  0  0  0  0  0  0
   61.0540   29.0400   51.0480 C   0  0  2  0  0  0  0  0  0  0  0  0
   61.1330   27.9468   51.1414 H   0  0  0  0  0  0  0  0  0  0  0  0
   59.8990   29.5720   51.9120 C   0  0  0  0  0  0  0  0  0  0  0  0
   59.5081   28.7636   52.5474 H   0  0  0  0  0  0  0  0  0  0  0  0
   59.0870   29.9424   51.2690 H   0  0  0  0  0  0  0  0  0  0  0  0
   60.4130   30.6670   52.7590 N   0  0  0  0  0  0  0  0  0  0  0  0
   59.4720   31.8150   52.8610 C   0  0  0  0  0  0  0  0  0  0  0  0
   59.2906   31.9958   53.9308 H   0  0  0  0  0  0  0  0  0  0  0  0
   60.0880   33.0810   52.2090 C   0  0  0  0  0  0  0  0  0  0  0  0
   60.7521   33.5675   52.9386 H   0  0  0  0  0  0  0  0  0  0  0  0
   60.6410   32.7634   51.3127 H   0  0  0  0  0  0  0  0  0  0  0  0
   59.0130   34.0910   51.7670 C   0  0  0  0  0  0  0  0  0  0  0  0
   59.3999   35.1121   51.9003 H   0  0  0  0  0  0  0  0  0  0  0  0
   58.7708   33.9105   50.7093 H   0  0  0  0  0  0  0  0  0  0  0  0
   57.8390   33.9360   52.5350 O   0  0  0  0  0  0  0  0  0  0  0  0
   57.1860   32.7290   52.1810 C   0  0  0  0  0  0  0  0  0  0  0  0
   56.3801   32.5429   52.9061 H   0  0  0  0  0  0  0  0  0  0  0  0
   56.8032   32.8548   51.1574 H   0  0  0  0  0  0  0  0  0  0  0  0
   58.1280   31.5020   52.1690 C   0  0  0  0  0  0  0  0  0  0  0  0
   57.6388   30.6704   52.6974 H   0  0  0  0  0  0  0  0  0  0  0  0
   58.3326   31.2337   51.1220 H   0  0  0  0  0  0  0  0  0  0  0  0
   61.7130   31.0360   52.1880 C   0  0  0  0  0  0  0  0  0  0  0  0
   62.3857   31.3993   52.9789 H   0  0  0  0  0  0  0  0  0  0  0  0
   61.6065   31.8411   51.4460 H   0  0  0  0  0  0  0  0  0  0  0  0
   62.2780   29.7840   51.5570 C   0  0  0  0  0  0  0  0  0  0  0  0
   62.8194   29.1817   52.3015 H   0  0  0  0  0  0  0  0  0  0  0  0
   63.0010   30.0037   50.7576 H   0  0  0  0  0  0  0  0  0  0  0  0
  1  2  1  0
  2  3  2  0
  3  4  1  0
  4  5  1  0
  5  6  2  0
  5  7  1  0
  7  8  1  0
  7  9  1  0
  7 10  1  0
 10 11  1  0
 11 12  1  0
 12 13  2  0
 13 14  1  0
 14 15  2  0
 15 16  1  0
 15 17  1  0
 17 18  1  0
 17 19  2  0
 19 20  1  0
 20 21  2  0
 20 22  2  0
 20 23  1  0
 23 24  1  0
 23 25  1  0
 19 26  1  0
 26 27  1  0
 26 28  2  0
 28 29  1  0
 12 30  1  0
 30 31  1  0
 31 32  1  0
  4 33  2  0
 33 34  1  0
 33 35  1  0
 35 36  1  0
 35 37  2  0
 37 38  1  0
 38 39  1  0
 39 40  1  0
 39 41  1  0
 39 42  1  0
 38 43  1  0
 43 44  1  0
 43 45  1  0
 43 46  1  0
 46 47  1  6
 46 48  1  0
 48 49  1  0
 48 50  1  0
 48 51  1  0
 51 52  1  0
 52 53  1  0
 52 54  1  0
 54 55  1  0
 54 56  1  0
 54 57  1  0
 57 58  1  0
 57 59  1  0
 57 60  1  0
 60 61  1  0
 61 62  1  0
 61 63  1  0
 61 64  1  0
 64 65  1  0
 64 66  1  0
 51 67  1  0
 67 68  1  0
 67 69  1  0
 67 70  1  0
 70 71  1  0
 70 72  1  0
 37  2  1  0
 70 46  1  0
 31 10  2  0
 64 52  1  0
 28 14  1  0
M  CHG  1  11  -1
M  END
>  <UniqueID>  (19) 
16

>  <SMILES>  (19) 
CN(C[C@H]1CCN(C2CCOCC2)C1)c1cnc(C(=O)Cc2cs/c(=N/c3ccc(S(N)(=O)=O)cc3)[n-]2)c(F)c1

>  <Energy>  (19) 
126.58826312090947

>  <Genealogy>  (19) 
CN(CC1CCN(C2CCOCC2)C1)c1cnc(C(=O)Cc2csc(=Nc3ccc(S(N)(=O)=O)cc3)[n-]2)c(F)c1 (protonated)
CN(C[C@H]1CCN(C2CCOCC2)C1)c1cnc(C(=O)Cc2csc(=Nc3ccc(S(N)(=O)=O)cc3)[n-]2)c(F)c1 (chirality)
CN(C[C@H]1CCN(C2CCOCC2)C1)c1cnc(C(=O)Cc2cs/c(=N/c3ccc(S(N)(=O)=O)cc3)[n-]2)c(F)c1 (cis-trans isomerization)
CN(C[C@H]1CCN(C2CCOCC2)C1)c1cnc(C(=O)Cc2cs/c(=N/c3ccc(S(N)(=O)=O)cc3)[n-]2)c(F)c1 (3D coordinates assigned)
CN(C[C@H]1CCN(C2CCOCC2)C1)c1cnc(C(=O)Cc2cs/c(=N/c3ccc(S(N)(=O)=O)cc3)[n-]2)c(F)c1 (nonaromatic ring conformer: 126.58826312090947 kcal/mol)

>  <smiles>  (19) 
CN(CC1CCN(C2CCOCC2)C1)c1cnc(C(=O)Cc2csc(=Nc3ccc(S(N)(=O)=O)cc3)[nH]2)c(F)c1

>  <score_type>  (19) 
oracle

>  <origin>  (19) 
adg

>  <m_score__min__energy>  (19) 
-11.529999999999999

>  <m_primary>  (19) 
energy

$$$$
19:0
     RDKit          3D

 44 46  0  0  0  0  0  0  0  0999 V2000
   55.1640   26.3260   45.8050 N   0  0  0  0  0  0  0  0  0  0  0  0
   56.5620   26.0100   45.7880 C   0  0  0  0  0  0  0  0  0  0  0  0
   56.9590   24.6730   45.6240 C   0  0  0  0  0  0  0  0  0  0  0  0
   58.3080   24.3200   45.7010 C   0  0  0  0  0  0  0  0  0  0  0  0
   59.2740   25.2970   45.9490 C   0  0  0  0  0  0  0  0  0  0  0  0
   58.8940   26.6320   46.1000 C   0  0  0  0  0  0  0  0  0  0  0  0
   57.5480   27.0050   45.9930 C   0  0  0  0  0  0  0  0  0  0  0  0
   57.2140   28.3930   46.1160 N   0  0  0  0  0  0  0  0  0  0  0  0
   56.5530   29.1500   45.0960 C   0  0  0  0  0  0  0  0  0  0  0  0
   55.3270   28.9760   44.8630 O   0  0  0  0  0  0  0  0  0  0  0  0
   57.3170   30.1840   44.3320 C   0  0  0  0  0  0  0  0  0  0  0  0
   58.5290   30.6020   45.1180 C   0  0  0  0  0  0  0  0  0  0  0  0
   58.6060   31.8890   45.6680 C   0  0  0  0  0  0  0  0  0  0  0  0
   59.7090   32.2630   46.4420 C   0  0  0  0  0  0  0  0  0  0  0  0
   60.7560   31.3540   46.6800 C   0  0  0  0  0  0  0  0  0  0  0  0
   61.9310   31.7260   47.5030 C   0  0  0  0  0  0  0  0  0  0  0  0
   63.0790   31.6830   46.9810 O   0  0  0  0  0  0  0  0  0  0  0  0
   61.7830   32.1230   48.8790 N   0  0  0  0  0  0  0  0  0  0  0  0
   62.8740   32.5660   49.7040 C   0  0  0  0  0  0  0  0  0  0  0  0
   64.0970   31.8700   49.7310 C   0  0  0  0  0  0  0  0  0  0  0  0
   65.1560   32.3330   50.5180 C   0  0  0  0  0  0  0  0  0  0  0  0
   65.0100   33.4990   51.2750 C   0  0  0  0  0  0  0  0  0  0  0  0
   66.3410   34.0770   52.2600 Cl  0  0  0  0  0  0  0  0  0  0  0  0
   63.8070   34.2100   51.2360 C   0  0  0  0  0  0  0  0  0  0  0  0
   62.7450   33.7520   50.4480 C   0  0  0  0  0  0  0  0  0  0  0  0
   61.5840   34.4530   50.4240 F   0  0  0  0  0  0  0  0  0  0  0  0
   60.6600   30.0550   46.1480 C   0  0  0  0  0  0  0  0  0  0  0  0
   59.5580   29.6830   45.3740 C   0  0  0  0  0  0  0  0  0  0  0  0
   54.4830   25.7770   46.3740 H   0  0  0  0  0  0  0  0  0  0  0  0
   54.7790   27.0580   45.1680 H   0  0  0  0  0  0  0  0  0  0  0  0
   56.2019   23.8981   45.4335 H   0  0  0  0  0  0  0  0  0  0  0  0
   58.6098   23.2709   45.5661 H   0  0  0  0  0  0  0  0  0  0  0  0
   60.3345   25.0150   46.0254 H   0  0  0  0  0  0  0  0  0  0  0  0
   59.6576   27.3969   46.3046 H   0  0  0  0  0  0  0  0  0  0  0  0
   57.6344   29.7645   43.3659 H   0  0  0  0  0  0  0  0  0  0  0  0
   56.6738   31.0598   44.1609 H   0  0  0  0  0  0  0  0  0  0  0  0
   57.7939   32.6092   45.4897 H   0  0  0  0  0  0  0  0  0  0  0  0
   59.7584   33.2759   46.8681 H   0  0  0  0  0  0  0  0  0  0  0  0
   60.8450   32.0530   49.3330 H   0  0  0  0  0  0  0  0  0  0  0  0
   64.2204   30.9571   49.1299 H   0  0  0  0  0  0  0  0  0  0  0  0
   66.1058   31.7786   50.5415 H   0  0  0  0  0  0  0  0  0  0  0  0
   63.6949   35.1316   51.8260 H   0  0  0  0  0  0  0  0  0  0  0  0
   61.4599   29.3256   46.3433 H   0  0  0  0  0  0  0  0  0  0  0  0
   59.4967   28.6644   44.9632 H   0  0  0  0  0  0  0  0  0  0  0  0
  1  2  1  0
  2  3  2  0
  3  4  1  0
  4  5  2  0
  5  6  1  0
  6  7  2  0
  7  8  1  0
  8  9  1  0
  9 10  2  0
  9 11  1  0
 11 12  1  0
 12 13  2  0
 13 14  1  0
 14 15  2  0
 15 16  1  0
 16 17  2  0
 16 18  1  0
 18 19  1  0
 19 20  2  0
 20 21  1  0
 21 22  2  0
 22 23  1  0
 22 24  1  0
 24 25  2  0
 25 26  1  0
 15 27  1  0
 27 28  2  0
  7  2  1  0
 28 12  1  0
 25 19  1  0
  1 29  1  0
  1 30  1  0
  3 31  1  0
  4 32  1  0
  5 33  1  0
  6 34  1  0
 11 35  1  0
 11 36  1  0
 13 37  1  0
 14 38  1  0
 18 39  1  0
 20 40  1  0
 21 41  1  0
 24 42  1  0
 27 43  1  0
 28 44  1  0
M  CHG  1   8  -1
M  END
>  <UniqueID>  (20) 
17

>  <SMILES>  (20) 
Nc1ccccc1[N-]C(=O)Cc1ccc(C(=O)Nc2ccc(Cl)cc2F)cc1

>  <Energy>  (20) 
57.78543839593449

>  <Genealogy>  (20) 
Nc1ccccc1[N-]C(=O)Cc1ccc(C(=O)Nc2ccc(Cl)cc2F)cc1 (protonated)
Nc1ccccc1[N-]C(=O)Cc1ccc(C(=O)Nc2ccc(Cl)cc2F)cc1 (3D coordinates assigned)
Nc1ccccc1[N-]C(=O)Cc1ccc(C(=O)Nc2ccc(Cl)cc2F)cc1 (optimized conformer: 57.78543839593449 kcal/mol)

>  <smiles>  (20) 
Nc1ccccc1NC(=O)Cc1ccc(C(=O)Nc2ccc(Cl)cc2F)cc1

>  <score_type>  (20) 
oracle

>  <origin>  (20) 
adg

>  <m_score__min__energy>  (20) 
-10.41

>  <m_primary>  (20) 
energy

$$$$
20:0
     RDKit          3D

 31 34  0  0  0  0  0  0  0  0999 V2000
   65.0160   33.4650   50.1080 C   0  0  0  0  0  0  0  0  0  0  0  0
   63.8720   33.2950   49.4480 C   0  0  0  0  0  0  0  0  0  0  0  0
   62.8280   34.2450   49.4510 N   0  0  0  0  0  0  0  0  0  0  0  0
   61.8240   33.6660   48.6360 C   0  0  0  0  0  0  0  0  0  0  0  0
   60.6390   34.3280   48.4090 C   0  0  0  0  0  0  0  0  0  0  0  0
   59.5640   33.9100   47.6470 C   0  0  0  0  0  0  0  0  0  0  0  0
   59.3750   32.7290   46.9070 C   0  0  0  0  0  0  0  0  0  0  0  0
   58.1200   32.6630   46.2480 C   0  0  0  0  0  0  0  0  0  0  0  0
   57.7540   31.5730   45.4710 C   0  0  0  0  0  0  0  0  0  0  0  0
   56.5440   31.5360   44.8490 N   0  0  0  0  0  0  0  0  0  0  0  0
   56.1790   30.4730   44.0860 C   0  0  0  0  0  0  0  0  0  0  0  0
   57.0610   29.4000   43.9360 C   0  0  0  0  0  0  0  0  0  0  0  0
   58.2700   29.4380   44.5580 N   0  0  0  0  0  0  0  0  0  0  0  0
   58.6350   30.5030   45.3220 C   0  0  0  0  0  0  0  0  0  0  0  0
   59.8740   30.5320   45.9520 C   0  0  0  0  0  0  0  0  0  0  0  0
   60.2930   31.6310   46.7610 C   0  0  0  0  0  0  0  0  0  0  0  0
   61.5930   31.5150   47.3430 C   0  0  0  0  0  0  0  0  0  0  0  0
   62.2550   30.4650   47.0970 O   0  0  0  0  0  0  0  0  0  0  0  0
   62.2530   32.4330   48.1730 C   0  0  0  0  0  0  0  0  0  0  0  0
   63.5800   32.1350   48.6680 N   0  0  0  0  0  0  0  0  0  0  0  0
   65.7943   32.6887   50.0685 H   0  0  0  0  0  0  0  0  0  0  0  0
   65.1827   34.3817   50.6927 H   0  0  0  0  0  0  0  0  0  0  0  0
   62.8050   35.1670   49.9430 H   0  0  0  0  0  0  0  0  0  0  0  0
   60.5344   35.3101   48.8933 H   0  0  0  0  0  0  0  0  0  0  0  0
   58.7202   34.6149   47.6141 H   0  0  0  0  0  0  0  0  0  0  0  0
   57.4160   33.5012   46.3563 H   0  0  0  0  0  0  0  0  0  0  0  0
   55.1971   30.4572   43.5904 H   0  0  0  0  0  0  0  0  0  0  0  0
   56.7803   28.5325   43.3206 H   0  0  0  0  0  0  0  0  0  0  0  0
   60.5553   29.6782   45.8225 H   0  0  0  0  0  0  0  0  0  0  0  0
   64.2580   32.0530   47.8760 H   0  0  0  0  0  0  0  0  0  0  0  0
   63.5620   31.2850   49.2780 H   0  0  0  0  0  0  0  0  0  0  0  0
  1  2  2  0
  2  3  1  0
  3  4  1  0
  4  5  1  0
  5  6  2  0
  6  7  1  0
  7  8  2  0
  8  9  1  0
  9 10  2  0
 10 11  1  0
 11 12  2  0
 12 13  1  0
 13 14  2  0
 14 15  1  0
 15 16  2  0
 16 17  1  0
 17 18  2  0
 17 19  1  0
 19 20  1  0
 20  2  1  0
 19  4  2  0
 16  7  1  0
 14  9  1  0
  1 21  1  0
  1 22  1  0
  3 23  1  0
  5 24  1  0
  6 25  1  0
  8 26  1  0
 11 27  1  0
 12 28  1  0
 15 29  1  0
 20 30  1  0
 20 31  1  0
M  CHG  1  20   1
M  END
>  <UniqueID>  (21) 
18

>  <SMILES>  (21) 
C=C1Nc2ccc3cc4nccnc4cc3c(=O)c2[NH2+]1

>  <Energy>  (21) 
85.84034519830742

>  <Genealogy>  (21) 
C=C1Nc2ccc3cc4nccnc4cc3c(=O)c2[NH2+]1 (protonated)
C=C1Nc2ccc3cc4nccnc4cc3c(=O)c2[NH2+]1 (3D coordinates assigned)
C=C1Nc2ccc3cc4nccnc4cc3c(=O)c2[NH2+]1 (nonaromatic ring conformer: 85.84034519830742 kcal/mol)

>  <smiles>  (21) 
C=C1Nc2ccc3cc4nccnc4cc3c(=O)c2N1

>  <score_type>  (21) 
oracle

>  <origin>  (21) 
adg

>  <m_score__min__energy>  (21) 
-5.6699999999999999

>  <m_primary>  (21) 
energy

$$$$
21:0
     RDKit          3D

 56 59  0  0  0  0  0  0  0  0999 V2000
   63.7660   33.7350   47.7820 C   0  0  0  0  0  0  0  0  0  0  0  0
   62.7910   33.2930   48.8400 C   0  0  0  0  0  0  0  0  0  0  0  0
   61.4600   33.2370   48.5480 N   0  0  0  0  0  0  0  0  0  0  0  0
   60.5460   32.7840   49.4560 C   0  0  0  0  0  0  0  0  0  0  0  0
   59.1070   32.6820   49.1130 C   0  0  0  0  0  0  0  0  0  0  0  0
   58.3890   31.8440   49.7180 O   0  0  0  0  0  0  0  0  0  0  0  0
   58.4840   33.5380   48.1420 N   0  0  0  0  0  0  0  0  0  0  0  0
   58.4350   33.3510   46.7180 C   0  0  0  0  0  0  0  0  0  0  0  0
   58.9220   34.3640   45.8860 C   0  0  0  0  0  0  0  0  0  0  0  0
   58.9070   34.2080   44.4970 C   0  0  0  0  0  0  0  0  0  0  0  0
   58.4060   33.0370   43.9290 C   0  0  0  0  0  0  0  0  0  0  0  0
   57.8860   32.0250   44.7510 C   0  0  0  0  0  0  0  0  0  0  0  0
   57.2580   30.5460   44.0310 S   0  0  0  0  0  0  0  0  0  0  0  0
   56.0290   30.1340   44.7950 O   0  0  0  0  0  0  0  0  0  0  0  0
   56.8750   30.8280   42.6020 O   0  0  0  0  0  0  0  0  0  0  0  0
   58.4840   29.2870   44.1220 N   0  0  0  0  0  0  0  0  0  0  0  0
   57.9510   27.9620   43.7390 C   0  0  0  0  0  0  0  0  0  0  0  0
   57.4040   27.1700   44.9490 C   0  0  0  0  0  0  0  0  0  0  0  0
   57.0230   28.0490   45.9880 O   0  0  0  0  0  0  0  0  0  0  0  0
   58.1700   28.6860   46.5280 C   0  0  0  0  0  0  0  0  0  0  0  0
   59.1260   29.2400   45.4440 C   0  0  0  0  0  0  0  0  0  0  0  0
   57.8810   32.1940   46.1450 C   0  0  0  0  0  0  0  0  0  0  0  0
   60.9900   32.4240   50.7380 C   0  0  0  0  0  0  0  0  0  0  0  0
   62.3120   32.5000   51.0390 N   0  0  0  0  0  0  0  0  0  0  0  0
   63.2260   32.9070   50.1240 C   0  0  0  0  0  0  0  0  0  0  0  0
   64.6090   32.9890   50.4920 N   0  0  0  0  0  0  0  0  0  0  0  0
   65.0470   34.1440   51.2890 C   0  0  0  0  0  0  0  0  0  0  0  0
   66.5860   34.2570   51.4000 C   0  0  0  0  0  0  0  0  0  0  0  0
   67.2670   33.4920   50.4260 O   0  0  0  0  0  0  0  0  0  0  0  0
   66.9170   32.1360   50.5770 C   0  0  0  0  0  0  0  0  0  0  0  0
   65.5030   31.9140   50.0590 C   0  0  0  0  0  0  0  0  0  0  0  0
   64.6675   34.1437   48.2619 H   0  0  0  0  0  0  0  0  0  0  0  0
   64.0424   32.8742   47.1554 H   0  0  0  0  0  0  0  0  0  0  0  0
   63.3007   34.5102   47.1554 H   0  0  0  0  0  0  0  0  0  0  0  0
   61.1310   33.5700   47.6110 H   0  0  0  0  0  0  0  0  0  0  0  0
   59.3195   35.2897   46.3275 H   0  0  0  0  0  0  0  0  0  0  0  0
   59.2913   35.0107   43.8505 H   0  0  0  0  0  0  0  0  0  0  0  0
   58.4183   32.9064   42.8368 H   0  0  0  0  0  0  0  0  0  0  0  0
   57.1360   28.1059   43.0143 H   0  0  0  0  0  0  0  0  0  0  0  0
   58.7794   27.3813   43.3071 H   0  0  0  0  0  0  0  0  0  0  0  0
   56.5286   26.5843   44.6318 H   0  0  0  0  0  0  0  0  0  0  0  0
   58.1942   26.5018   45.3219 H   0  0  0  0  0  0  0  0  0  0  0  0
   57.8398   29.5213   47.1630 H   0  0  0  0  0  0  0  0  0  0  0  0
   58.7267   27.9283   47.0990 H   0  0  0  0  0  0  0  0  0  0  0  0
   59.4335   30.2576   45.7268 H   0  0  0  0  0  0  0  0  0  0  0  0
   59.9946   28.5683   45.3786 H   0  0  0  0  0  0  0  0  0  0  0  0
   57.4422   31.4185   46.7900 H   0  0  0  0  0  0  0  0  0  0  0  0
   60.2699   32.0817   51.4958 H   0  0  0  0  0  0  0  0  0  0  0  0
   64.6619   35.0605   50.8181 H   0  0  0  0  0  0  0  0  0  0  0  0
   64.6541   34.0074   52.3073 H   0  0  0  0  0  0  0  0  0  0  0  0
   66.8698   35.3127   51.2780 H   0  0  0  0  0  0  0  0  0  0  0  0
   66.8746   33.8659   52.3868 H   0  0  0  0  0  0  0  0  0  0  0  0
   67.6188   31.5107   50.0056 H   0  0  0  0  0  0  0  0  0  0  0  0
   66.9637   31.8625   51.6414 H   0  0  0  0  0  0  0  0  0  0  0  0
   65.5235   31.8846   48.9596 H   0  0  0  0  0  0  0  0  0  0  0  0
   65.1276   30.9626   50.4640 H   0  0  0  0  0  0  0  0  0  0  0  0
  1  2  1  0
  2  3  2  0
  3  4  1  0
  4  5  1  0
  5  6  2  0
  5  7  1  0
  7  8  1  0
  8  9  2  0
  9 10  1  0
 10 11  2  0
 11 12  1  0
 12 13  1  0
 13 14  2  0
 13 15  2  0
 13 16  1  0
 16 17  1  0
 17 18  1  0
 18 19  1  0
 19 20  1  0
 20 21  1  0
 12 22  2  0
  4 23  2  0
 23 24  1  0
 24 25  2  0
 25 26  1  0
 26 27  1  0
 27 28  1  0
 28 29  1  0
 29 30  1  0
 30 31  1  0
 25  2  1  0
 31 26  1  0
 22  8  1  0
 21 16  1  0
  1 32  1  0
  1 33  1  0
  1 34  1  0
  3 35  1  0
  9 36  1  0
 10 37  1  0
 11 38  1  0
 17 39  1  0
 17 40  1  0
 18 41  1  0
 18 42  1  0
 20 43  1  0
 20 44  1  0
 21 45  1  0
 21 46  1  0
 22 47  1  0
 23 48  1  0
 27 49  1  0
 27 50  1  0
 28 51  1  0
 28 52  1  0
 30 53  1  0
 30 54  1  0
 31 55  1  0
 31 56  1  0
M  CHG  2   3   1   7  -1
M  END
>  <UniqueID>  (22) 
19

>  <SMILES>  (22) 
Cc1[nH+]c(C(=O)[N-]c2cccc(S(=O)(=O)N3CCOCC3)c2)cnc1N1CCOCC1

>  <Energy>  (22) 
84.21021746758365

>  <Genealogy>  (22) 
Cc1[nH+]c(C(=O)[N-]c2cccc(S(=O)(=O)N3CCOCC3)c2)cnc1N1CCOCC1 (protonated)
Cc1[nH+]c(C(=O)[N-]c2cccc(S(=O)(=O)N3CCOCC3)c2)cnc1N1CCOCC1 (3D coordinates assigned)
Cc1[nH+]c(C(=O)[N-]c2cccc(S(=O)(=O)N3CCOCC3)c2)cnc1N1CCOCC1 (nonaromatic ring conformer: 84.21021746758365 kcal/mol)

>  <smiles>  (22) 
Cc1nc(C(=O)Nc2cccc(S(=O)(=O)N3CCOCC3)c2)cnc1N1CCOCC1

>  <score_type>  (22) 
oracle

>  <origin>  (22) 
adg

>  <m_score__min__energy>  (22) 
-8.3399999999999999

>  <m_primary>  (22) 
energy

$$$$
22:0
     RDKit          3D

 68 72  0  0  0  0  0  0  0  0999 V2000
   60.4320   29.5060   49.7360 C   0  0  0  0  0  0  0  0  0  0  0  0
   59.7730   28.4560   49.0340 O   0  0  0  0  0  0  0  0  0  0  0  0
   59.5280   28.4590   47.6540 C   0  0  0  0  0  0  0  0  0  0  0  0
   60.6230   28.3820   46.7850 C   0  0  0  0  0  0  0  0  0  0  0  0
   60.4320   28.3780   45.4010 C   0  0  0  0  0  0  0  0  0  0  0  0
   59.1430   28.4550   44.8710 C   0  0  0  0  0  0  0  0  0  0  0  0
   58.0330   28.5460   45.7240 C   0  0  0  0  0  0  0  0  0  0  0  0
   56.6450   28.5880   45.1520 C   0  0  0  0  0  0  0  0  0  0  0  0
   56.1990   29.9720   45.0720 N   0  0  0  0  0  0  0  0  0  0  0  0
   56.9370   30.9910   44.3890 C   0  0  0  0  0  0  0  0  0  0  0  0
   56.9410   31.0200   43.1270 O   0  0  0  0  0  0  0  0  0  0  0  0
   57.6930   32.0060   45.1590 C   0  0  0  0  0  0  0  0  0  0  0  0
   57.7830   33.3320   44.6980 C   0  0  0  0  0  0  0  0  0  0  0  0
   58.5030   34.2870   45.4210 C   0  0  0  0  0  0  0  0  0  0  0  0
   59.1420   33.9390   46.6200 C   0  0  0  0  0  0  0  0  0  0  0  0
   59.9490   34.9590   47.3810 C   0  0  0  0  0  0  0  0  0  0  0  0
   60.8290   34.2900   48.3670 N   0  0  0  0  0  0  0  0  0  0  0  0
   62.0560   33.8330   47.9720 C   0  0  0  0  0  0  0  0  0  0  0  0
   62.4440   34.0060   46.7820 O   0  0  0  0  0  0  0  0  0  0  0  0
   62.8900   33.1720   48.8810 C   0  0  0  0  0  0  0  0  0  0  0  0
   64.1610   32.7030   48.4910 C   0  0  0  0  0  0  0  0  0  0  0  0
   64.9870   32.0550   49.4070 C   0  0  0  0  0  0  0  0  0  0  0  0
   64.5590   31.8660   50.7170 C   0  0  0  0  0  0  0  0  0  0  0  0
   63.3020   32.3200   51.1180 C   0  0  0  0  0  0  0  0  0  0  0  0
   62.4380   32.9810   50.2080 C   0  0  0  0  0  0  0  0  0  0  0  0
   61.1890   33.4390   50.5770 N   0  0  0  0  0  0  0  0  0  0  0  0
   60.6870   33.2650   51.9620 C   0  0  0  0  0  0  0  0  0  0  0  0
   59.8130   32.0470   52.0610 C   0  0  0  0  0  0  0  0  0  0  0  0
   60.2900   30.9810   52.5360 O   0  0  0  0  0  0  0  0  0  0  0  0
   58.4690   32.0800   51.5590 N   0  0  0  0  0  0  0  0  0  0  0  0
   57.4400   31.1630   51.9670 C   0  0  0  0  0  0  0  0  0  0  0  0
   57.7500   29.8620   52.4060 C   0  0  0  0  0  0  0  0  0  0  0  0
   56.7320   28.9980   52.8250 C   0  0  0  0  0  0  0  0  0  0  0  0
   55.4020   29.4280   52.8220 C   0  0  0  0  0  0  0  0  0  0  0  0
   55.0890   30.7250   52.4070 C   0  0  0  0  0  0  0  0  0  0  0  0
   53.7990   31.1450   52.4140 F   0  0  0  0  0  0  0  0  0  0  0  0
   56.1040   31.5920   51.9880 C   0  0  0  0  0  0  0  0  0  0  0  0
   60.4010   34.0980   49.6580 C   0  0  0  0  0  0  0  0  0  0  0  0
   59.2690   34.5370   50.0060 O   0  0  0  0  0  0  0  0  0  0  0  0
   59.0540   32.6180   47.0830 C   0  0  0  0  0  0  0  0  0  0  0  0
   58.3360   31.6600   46.3600 C   0  0  0  0  0  0  0  0  0  0  0  0
   58.2280   28.5340   47.1160 C   0  0  0  0  0  0  0  0  0  0  0  0
   60.3299   29.3434   50.8191 H   0  0  0  0  0  0  0  0  0  0  0  0
   61.4982   29.5152   49.4655 H   0  0  0  0  0  0  0  0  0  0  0  0
   59.9767   30.4701   49.4655 H   0  0  0  0  0  0  0  0  0  0  0  0
   61.6420   28.3242   47.1952 H   0  0  0  0  0  0  0  0  0  0  0  0
   61.2994   28.3140   44.7275 H   0  0  0  0  0  0  0  0  0  0  0  0
   58.9971   28.4443   43.7808 H   0  0  0  0  0  0  0  0  0  0  0  0
   56.6488   28.1444   44.1454 H   0  0  0  0  0  0  0  0  0  0  0  0
   55.9624   28.0177   45.7992 H   0  0  0  0  0  0  0  0  0  0  0  0
   57.2829   33.6194   43.7614 H   0  0  0  0  0  0  0  0  0  0  0  0
   58.5690   35.3193   45.0469 H   0  0  0  0  0  0  0  0  0  0  0  0
   60.5667   35.5328   46.6745 H   0  0  0  0  0  0  0  0  0  0  0  0
   59.2616   35.6317   47.9149 H   0  0  0  0  0  0  0  0  0  0  0  0
   64.5031   32.8497   47.4559 H   0  0  0  0  0  0  0  0  0  0  0  0
   65.9775   31.6929   49.0943 H   0  0  0  0  0  0  0  0  0  0  0  0
   65.2139   31.3568   51.4394 H   0  0  0  0  0  0  0  0  0  0  0  0
   62.9759   32.1627   52.1567 H   0  0  0  0  0  0  0  0  0  0  0  0
   61.5422   33.1522   52.6445 H   0  0  0  0  0  0  0  0  0  0  0  0
   60.0935   34.1494   52.2368 H   0  0  0  0  0  0  0  0  0  0  0  0
   58.2360   32.7910   50.8290 H   0  0  0  0  0  0  0  0  0  0  0  0
   58.7964   29.5232   52.4198 H   0  0  0  0  0  0  0  0  0  0  0  0
   56.9789   27.9788   53.1572 H   0  0  0  0  0  0  0  0  0  0  0  0
   54.6023   28.7458   53.1461 H   0  0  0  0  0  0  0  0  0  0  0  0
   55.8534   32.6158   51.6732 H   0  0  0  0  0  0  0  0  0  0  0  0
   59.5531   32.3335   48.0211 H   0  0  0  0  0  0  0  0  0  0  0  0
   58.2740   30.6275   46.7343 H   0  0  0  0  0  0  0  0  0  0  0  0
   57.3599   28.5835   47.7898 H   0  0  0  0  0  0  0  0  0  0  0  0
  1  2  1  0
  2  3  1  0
  3  4  2  0
  4  5  1  0
  5  6  2  0
  6  7  1  0
  7  8  1  0
  8  9  1  0
  9 10  1  0
 10 11  2  0
 10 12  1  0
 12 13  2  0
 13 14  1  0
 14 15  2  0
 15 16  1  0
 16 17  1  0
 17 18  1  0
 18 19  2  0
 18 20  1  0
 20 21  2  0
 21 22  1  0
 22 23  2  0
 23 24  1  0
 24 25  2  0
 25 26  1  0
 26 27  1  0
 27 28  1  0
 28 29  2  0
 28 30  1  0
 30 31  1  0
 31 32  2  0
 32 33  1  0
 33 34  2  0
 34 35  1  0
 35 36  1  0
 35 37  2  0
 26 38  1  0
 38 39  2  0
 15 40  1  0
 40 41  2  0
  7 42  2  0
 42  3  1  0
 41 12  1  0
 38 17  1  0
 25 20  1  0
 37 31  1  0
  1 43  1  0
  1 44  1  0
  1 45  1  0
  4 46  1  0
  5 47  1  0
  6 48  1  0
  8 49  1  0
  8 50  1  0
 13 51  1  0
 14 52  1  0
 16 53  1  0
 16 54  1  0
 21 55  1  0
 22 56  1  0
 23 57  1  0
 24 58  1  0
 27 59  1  0
 27 60  1  0
 30 61  1  0
 32 62  1  0
 33 63  1  0
 34 64  1  0
 37 65  1  0
 40 66  1  0
 41 67  1  0
 42 68  1  0
M  CHG  1   9  -1
M  END
>  <UniqueID>  (23) 
20

>  <SMILES>  (23) 
COc1cccc(C[N-]C(=O)c2ccc(Cn3c(=O)c4ccccc4n(CC(=O)Nc4cccc(F)c4)c3=O)cc2)c1

>  <Energy>  (23) 
89.07499007786316

>  <Genealogy>  (23) 
COc1cccc(C[N-]C(=O)c2ccc(Cn3c(=O)c4ccccc4n(CC(=O)Nc4cccc(F)c4)c3=O)cc2)c1 (protonated)
COc1cccc(C[N-]C(=O)c2ccc(Cn3c(=O)c4ccccc4n(CC(=O)Nc4cccc(F)c4)c3=O)cc2)c1 (3D coordinates assigned)
COc1cccc(C[N-]C(=O)c2ccc(Cn3c(=O)c4ccccc4n(CC(=O)Nc4cccc(F)c4)c3=O)cc2)c1 (optimized conformer: 89.07499007786316 kcal/mol)

>  <smiles>  (23) 
COc1cccc(CNC(=O)c2ccc(Cn3c(=O)c4ccccc4n(CC(=O)Nc4cccc(F)c4)c3=O)cc2)c1

>  <score_type>  (23) 
oracle

>  <origin>  (23) 
adg

>  <m_score__min__energy>  (23) 
-11.960000000000001

>  <m_primary>  (23) 
energy

$$$$
23:0
     RDKit          3D

 54 59  0  0  0  0  0  0  0  0999 V2000
   55.1550   29.3250   44.8470 N   0  0  0  0  0  0  0  0  0  0  0  0
   56.5310   29.4610   45.1970 C   0  0  0  0  0  0  0  0  0  0  0  0
   57.1410   30.5180   44.8790 O   0  0  0  0  0  0  0  0  0  0  0  0
   57.2430   28.3810   45.9220 C   0  0  0  0  0  0  0  0  0  0  0  0
   58.5140   28.6120   46.5000 C   0  0  0  0  0  0  0  0  0  0  0  0
   59.2010   27.5910   47.2050 C   0  0  0  0  0  0  0  0  0  0  0  0
   60.4840   27.8830   47.7880 N   0  0  0  0  0  0  0  0  0  0  0  0
   60.6750   28.7690   48.9360 C   0  0  0  0  0  0  0  0  0  0  0  0
   60.5540   30.2070   48.5080 C   0  0  0  0  0  0  0  0  0  0  0  0
   60.8750   30.5780   47.1920 C   0  0  0  0  0  0  0  0  0  0  0  0
   60.7220   31.9040   46.7780 C   0  0  0  0  0  0  0  0  0  0  0  0
   60.2450   32.8670   47.6710 C   0  0  0  0  0  0  0  0  0  0  0  0
   59.9260   32.5160   48.9870 C   0  0  0  0  0  0  0  0  0  0  0  0
   59.4160   33.5290   49.8680 N   0  0  0  0  0  0  0  0  0  0  0  0
   59.2350   33.4220   51.2880 C   0  0  0  0  0  0  0  0  0  0  0  0
   59.9420   34.1420   52.0410 O   0  0  0  0  0  0  0  0  0  0  0  0
   58.2670   32.4820   51.8920 C   0  0  0  0  0  0  0  0  0  0  0  0
   57.3460   31.7830   51.0780 C   0  0  0  0  0  0  0  0  0  0  0  0
   56.4430   30.8560   51.6430 C   0  0  0  0  0  0  0  0  0  0  0  0
   56.4330   30.6220   53.0290 C   0  0  0  0  0  0  0  0  0  0  0  0
   57.3360   31.3350   53.8120 C   0  0  0  0  0  0  0  0  0  0  0  0
   57.4740   31.2910   55.1460 N   0  0  0  0  0  0  0  0  0  0  0  0
   58.4290   32.1570   55.4720 N   0  0  0  0  0  0  0  0  0  0  0  0
   58.8970   32.7490   54.3490 C   0  0  0  0  0  0  0  0  0  0  0  0
   58.2140   32.2310   53.2700 C   0  0  0  0  0  0  0  0  0  0  0  0
   60.0600   31.1770   49.3950 C   0  0  0  0  0  0  0  0  0  0  0  0
   58.6190   26.3060   47.3080 C   0  0  0  0  0  0  0  0  0  0  0  0
   57.3690   26.1060   46.7340 C   0  0  0  0  0  0  0  0  0  0  0  0
   56.6460   24.9770   46.7380 N   0  0  0  0  0  0  0  0  0  0  0  0
   55.5370   25.3370   46.0450 C   0  0  0  0  0  0  0  0  0  0  0  0
   54.3890   24.4040   45.8150 C   0  0  0  0  0  0  0  0  0  0  0  0
   54.4710   23.6050   44.5240 C   0  0  0  0  0  0  0  0  0  0  0  0
   54.7560   22.9290   45.8550 C   0  0  0  0  0  0  0  0  0  0  0  0
   55.5270   26.6290   45.6280 N   0  0  0  0  0  0  0  0  0  0  0  0
   56.7040   27.0950   46.0730 C   0  0  0  0  0  0  0  0  0  0  0  0
   54.4100   29.3430   45.5780 H   0  0  0  0  0  0  0  0  0  0  0  0
   58.9787   29.6040   46.4004 H   0  0  0  0  0  0  0  0  0  0  0  0
   61.3430   27.5810   47.2720 H   0  0  0  0  0  0  0  0  0  0  0  0
   59.9097   28.5502   49.6953 H   0  0  0  0  0  0  0  0  0  0  0  0
   61.6782   28.6023   49.3553 H   0  0  0  0  0  0  0  0  0  0  0  0
   61.2480   29.8225   46.4849 H   0  0  0  0  0  0  0  0  0  0  0  0
   60.9776   32.1901   45.7471 H   0  0  0  0  0  0  0  0  0  0  0  0
   60.1196   33.9076   47.3371 H   0  0  0  0  0  0  0  0  0  0  0  0
   57.3328   31.9633   49.9930 H   0  0  0  0  0  0  0  0  0  0  0  0
   55.7415   30.3124   50.9931 H   0  0  0  0  0  0  0  0  0  0  0  0
   55.7355   29.9003   53.4792 H   0  0  0  0  0  0  0  0  0  0  0  0
   59.6873   33.5129   54.3048 H   0  0  0  0  0  0  0  0  0  0  0  0
   59.7755   30.8871   50.4173 H   0  0  0  0  0  0  0  0  0  0  0  0
   59.1405   25.4885   47.8274 H   0  0  0  0  0  0  0  0  0  0  0  0
   53.6247   25.0317   46.2965 H   0  0  0  0  0  0  0  0  0  0  0  0
   53.5532   23.3613   43.9688 H   0  0  0  0  0  0  0  0  0  0  0  0
   55.0161   23.7145   43.5749 H   0  0  0  0  0  0  0  0  0  0  0  0
   54.0444   22.1961   46.2631 H   0  0  0  0  0  0  0  0  0  0  0  0
   55.5928   22.3467   46.2681 H   0  0  0  0  0  0  0  0  0  0  0  0
  1  2  1  0
  2  3  2  0
  2  4  1  0
  4  5  2  0
  5  6  1  0
  6  7  1  0
  7  8  1  0
  8  9  1  0
  9 10  2  0
 10 11  1  0
 11 12  2  0
 12 13  1  0
 13 14  1  0
 14 15  1  0
 15 16  2  0
 15 17  1  0
 17 18  2  0
 18 19  1  0
 19 20  2  0
 20 21  1  0
 21 22  1  0
 22 23  1  0
 23 24  2  0
 24 25  1  0
 13 26  2  0
  6 27  2  0
 27 28  1  0
 28 29  1  0
 29 30  1  0
 30 31  1  0
 31 32  1  0
 32 33  1  0
 30 34  2  0
 34 35  1  0
 35  4  1  0
 26  9  1  0
 35 28  2  0
 25 17  1  0
 33 31  1  0
 25 21  2  0
  1 36  1  0
  5 37  1  0
  7 38  1  0
  8 39  1  0
  8 40  1  0
 10 41  1  0
 11 42  1  0
 12 43  1  0
 18 44  1  0
 19 45  1  0
 20 46  1  0
 24 47  1  0
 26 48  1  0
 27 49  1  0
 31 50  1  0
 32 51  1  0
 32 52  1  0
 33 53  1  0
 33 54  1  0
M  CHG  4   1  -1  14  -1  22  -1  29  -1
M  END
>  <UniqueID>  (24) 
21

>  <SMILES>  (24) 
[NH-]C(=O)c1cc(NCc2cccc([N-]C(=O)c3cccc4[n-]ncc34)c2)cc2[n-]c(C3CC3)nc12

>  <Energy>  (24) 
403.1897450921725

>  <Genealogy>  (24) 
[NH-]C(=O)c1cc(NCc2cccc([N-]C(=O)c3cccc4[n-]ncc34)c2)cc2[n-]c(C3CC3)nc12 (protonated)
[NH-]C(=O)c1cc(NCc2cccc([N-]C(=O)c3cccc4[n-]ncc34)c2)cc2[n-]c(C3CC3)nc12 (3D coordinates assigned)
[NH-]C(=O)c1cc(NCc2cccc([N-]C(=O)c3cccc4[n-]ncc34)c2)cc2[n-]c(C3CC3)nc12 (nonaromatic ring conformer: 403.1897450921725 kcal/mol)

>  <smiles>  (24) 
NC(=O)c1cc(NCc2cccc(NC(=O)c3cccc4[nH]ncc34)c2)cc2[nH]c(C3CC3)nc12

>  <score_type>  (24) 
oracle

>  <origin>  (24) 
adg

>  <m_score__min__energy>  (24) 
-17.780000000000001

>  <m_primary>  (24) 
energy

$$$$
24:0
     RDKit          3D

 48 51  0  0  0  0  0  0  0  0999 V2000
   58.2160   21.4320   43.6650 C   0  0  0  0  0  0  0  0  0  0  0  0
   56.4380   21.4240   43.5490 S   0  0  0  0  0  0  0  0  0  0  0  0
   55.9290   20.0100   43.5270 O   0  0  0  0  0  0  0  0  0  0  0  0
   56.0370   22.1060   42.2710 O   0  0  0  0  0  0  0  0  0  0  0  0
   55.7550   22.2770   44.8660 O   0  0  0  0  0  0  0  0  0  0  0  0
   56.1850   23.5280   45.3330 C   0  0  0  0  0  0  0  0  0  0  0  0
   55.3070   24.6110   45.5360 C   0  0  0  0  0  0  0  0  0  0  0  0
   55.7910   25.8370   46.0020 C   0  0  0  0  0  0  0  0  0  0  0  0
   57.1570   25.9960   46.2680 C   0  0  0  0  0  0  0  0  0  0  0  0
   57.6740   27.2070   46.7370 C   0  0  0  0  0  0  0  0  0  0  0  0
   59.0460   27.3230   47.0000 C   0  0  0  0  0  0  0  0  0  0  0  0
   59.5970   28.6040   47.5110 C   0  0  0  0  0  0  0  0  0  0  0  0
   59.2380   29.0820   48.7820 C   0  0  0  0  0  0  0  0  0  0  0  0
   59.7450   30.2970   49.2520 C   0  0  0  0  0  0  0  0  0  0  0  0
   60.6170   31.0580   48.4520 C   0  0  0  0  0  0  0  0  0  0  0  0
   61.1510   32.3160   48.8880 N   0  0  0  0  0  0  0  0  0  0  0  0
   60.3030   33.8280   48.8450 S   0  0  0  0  0  0  0  0  0  0  0  0
   61.3000   34.9520   48.9070 O   0  0  0  0  0  0  0  0  0  0  0  0
   59.3930   33.9140   50.0380 O   0  0  0  0  0  0  0  0  0  0  0  0
   59.3850   33.9630   47.3480 C   0  0  0  0  0  0  0  0  0  0  0  0
   59.8640   34.7480   46.2900 C   0  0  0  0  0  0  0  0  0  0  0  0
   59.1260   34.8560   45.1060 C   0  0  0  0  0  0  0  0  0  0  0  0
   57.9090   34.1810   44.9760 C   0  0  0  0  0  0  0  0  0  0  0  0
   57.4300   33.3940   46.0280 C   0  0  0  0  0  0  0  0  0  0  0  0
   58.1660   33.2830   47.2120 C   0  0  0  0  0  0  0  0  0  0  0  0
   60.9730   30.5810   47.1860 C   0  0  0  0  0  0  0  0  0  0  0  0
   60.4660   29.3680   46.7150 C   0  0  0  0  0  0  0  0  0  0  0  0
   59.8660   26.1990   46.7610 C   0  0  0  0  0  0  0  0  0  0  0  0
   61.1100   26.2600   46.9510 O   0  0  0  0  0  0  0  0  0  0  0  0
   59.3390   25.0630   46.3130 O   0  0  0  0  0  0  0  0  0  0  0  0
   58.0410   24.9200   46.0630 C   0  0  0  0  0  0  0  0  0  0  0  0
   57.5510   23.6970   45.5940 C   0  0  0  0  0  0  0  0  0  0  0  0
   58.5144   21.4333   44.7238 H   0  0  0  0  0  0  0  0  0  0  0  0
   58.6197   20.5357   43.1714 H   0  0  0  0  0  0  0  0  0  0  0  0
   58.6116   22.3319   43.1714 H   0  0  0  0  0  0  0  0  0  0  0  0
   54.2338   24.4911   45.3265 H   0  0  0  0  0  0  0  0  0  0  0  0
   55.0988   26.6772   46.1598 H   0  0  0  0  0  0  0  0  0  0  0  0
   57.0065   28.0661   46.8992 H   0  0  0  0  0  0  0  0  0  0  0  0
   58.5529   28.4960   49.4122 H   0  0  0  0  0  0  0  0  0  0  0  0
   59.4611   30.6594   50.2510 H   0  0  0  0  0  0  0  0  0  0  0  0
   60.8215   35.2800   46.3907 H   0  0  0  0  0  0  0  0  0  0  0  0
   59.5039   35.4725   44.2771 H   0  0  0  0  0  0  0  0  0  0  0  0
   57.3280   34.2688   44.0461 H   0  0  0  0  0  0  0  0  0  0  0  0
   56.4731   32.8616   45.9241 H   0  0  0  0  0  0  0  0  0  0  0  0
   57.7884   32.6617   48.0375 H   0  0  0  0  0  0  0  0  0  0  0  0
   61.6585   31.1667   46.5558 H   0  0  0  0  0  0  0  0  0  0  0  0
   60.7490   29.0088   45.7146 H   0  0  0  0  0  0  0  0  0  0  0  0
   58.2448   22.8596   45.4284 H   0  0  0  0  0  0  0  0  0  0  0  0
  1  2  1  0
  2  3  2  0
  2  4  2  0
  2  5  1  0
  5  6  1  0
  6  7  2  0
  7  8  1  0
  8  9  2  0
  9 10  1  0
 10 11  2  0
 11 12  1  0
 12 13  2  0
 13 14  1  0
 14 15  2  0
 15 16  1  0
 16 17  1  0
 17 18  2  0
 17 19  2  0
 17 20  1  0
 20 21  2  0
 21 22  1  0
 22 23  2  0
 23 24  1  0
 24 25  2  0
 15 26  1  0
 26 27  2  0
 11 28  1  0
 28 29  2  0
 28 30  1  0
 30 31  1  0
 31 32  2  0
 32  6  1  0
 31  9  1  0
 27 12  1  0
 25 20  1  0
  1 33  1  0
  1 34  1  0
  1 35  1  0
  7 36  1  0
  8 37  1  0
 10 38  1  0
 13 39  1  0
 14 40  1  0
 21 41  1  0
 22 42  1  0
 23 43  1  0
 24 44  1  0
 25 45  1  0
 26 46  1  0
 27 47  1  0
 32 48  1  0
M  CHG  1  16  -1
M  END
>  <UniqueID>  (25) 
22

>  <SMILES>  (25) 
CS(=O)(=O)Oc1ccc2cc(-c3ccc([N-]S(=O)(=O)c4ccccc4)cc3)c(=O)oc2c1

>  <Energy>  (25) 
62.58607661246614

>  <Genealogy>  (25) 
CS(=O)(=O)Oc1ccc2cc(-c3ccc([N-]S(=O)(=O)c4ccccc4)cc3)c(=O)oc2c1 (protonated)
CS(=O)(=O)Oc1ccc2cc(-c3ccc([N-]S(=O)(=O)c4ccccc4)cc3)c(=O)oc2c1 (3D coordinates assigned)
CS(=O)(=O)Oc1ccc2cc(-c3ccc([N-]S(=O)(=O)c4ccccc4)cc3)c(=O)oc2c1 (optimized conformer: 62.58607661246614 kcal/mol)

>  <smiles>  (25) 
CS(=O)(=O)Oc1ccc2cc(-c3ccc(NS(=O)(=O)c4ccccc4)cc3)c(=O)oc2c1

>  <score_type>  (25) 
oracle

>  <origin>  (25) 
adg

>  <m_score__min__energy>  (25) 
-10.75

>  <m_primary>  (25) 
energy

$$$$
25:0
     RDKit          3D

 34 35  0  0  0  0  0  0  0  0999 V2000
   55.1300   27.0830   45.1500 H   0  0  0  0  0  0  0  0  0  0  0  0
   55.0900   26.4380   45.9710 N   0  0  0  0  0  0  0  0  0  0  0  0
   56.2840   25.9260   46.5620 C   0  0  0  0  0  0  0  0  0  0  0  0
   56.2030   24.9170   47.3120 O   0  0  0  0  0  0  0  0  0  0  0  0
   57.5980   26.5730   46.2860 C   0  0  0  0  0  0  0  0  0  0  0  0
   58.7840   25.9100   46.6600 C   0  0  0  0  0  0  0  0  0  0  0  0
   58.7246   24.9232   47.1423 H   0  0  0  0  0  0  0  0  0  0  0  0
   60.0330   26.4880   46.4270 C   0  0  0  0  0  0  0  0  0  0  0  0
   60.9480   25.9592   46.7321 H   0  0  0  0  0  0  0  0  0  0  0  0
   60.1230   27.7330   45.8090 C   0  0  0  0  0  0  0  0  0  0  0  0
   61.1087   28.1836   45.6208 H   0  0  0  0  0  0  0  0  0  0  0  0
   58.9640   28.4080   45.4290 C   0  0  0  0  0  0  0  0  0  0  0  0
   59.0417   29.3853   44.9302 H   0  0  0  0  0  0  0  0  0  0  0  0
   57.6970   27.8520   45.6770 C   0  0  0  0  0  0  0  0  0  0  0  0
   56.5210   28.5450   45.2290 N   0  0  0  0  0  0  0  0  0  0  0  0
   56.4720   29.7520   44.7440 C   0  0  0  0  0  0  0  0  0  0  0  0
   56.2342   30.5771   45.4315 H   0  0  0  0  0  0  0  0  0  0  0  0
   56.7220   30.0850   43.2960 C   0  0  0  0  0  0  0  0  0  0  0  0
   57.3151   29.2815   42.8348 H   0  0  0  0  0  0  0  0  0  0  0  0
   55.7573   30.1825   42.7766 H   0  0  0  0  0  0  0  0  0  0  0  0
   57.4740   31.3840   43.1880 C   0  0  0  0  0  0  0  0  0  0  0  0
   57.7360   31.8240   42.0360 O   0  0  0  0  0  0  0  0  0  0  0  0
   57.8850   32.1690   44.3880 C   0  0  0  0  0  0  0  0  0  0  0  0
   58.7960   31.6530   45.3330 C   0  0  0  0  0  0  0  0  0  0  0  0
   59.2236   30.6501   45.1871 H   0  0  0  0  0  0  0  0  0  0  0  0
   59.1600   32.4050   46.4530 C   0  0  0  0  0  0  0  0  0  0  0  0
   59.8705   31.9905   47.1833 H   0  0  0  0  0  0  0  0  0  0  0  0
   58.6250   33.6830   46.6500 C   0  0  0  0  0  0  0  0  0  0  0  0
   58.9820   34.4400   47.7640 O   0  0  0  0  0  0  0  0  0  0  0  0
   59.9330   34.7580   47.9040 H   0  0  0  0  0  0  0  0  0  0  0  0
   57.7240   34.2050   45.7200 C   0  0  0  0  0  0  0  0  0  0  0  0
   57.3030   35.2101   45.8703 H   0  0  0  0  0  0  0  0  0  0  0  0
   57.3540   33.4560   44.5980 C   0  0  0  0  0  0  0  0  0  0  0  0
   56.6415   33.8764   43.8730 H   0  0  0  0  0  0  0  0  0  0  0  0
  1  2  1  0
  2  3  1  0
  3  4  2  0
  3  5  1  0
  5  6  2  0
  6  7  1  0
  6  8  1  0
  8  9  1  0
  8 10  2  0
 10 11  1  0
 10 12  1  0
 12 13  1  0
 12 14  2  0
 14 15  1  0
 15 16  2  0
 16 17  1  0
 16 18  1  0
 18 19  1  0
 18 20  1  0
 18 21  1  0
 21 22  2  0
 21 23  1  0
 23 24  2  0
 24 25  1  0
 24 26  1  0
 26 27  1  0
 26 28  2  0
 28 29  1  0
 29 30  1  0
 28 31  1  0
 31 32  1  0
 31 33  2  0
 33 34  1  0
 14  5  1  0
 33 23  1  0
M  CHG  1   2  -1
M  END
>  <UniqueID>  (26) 
23

>  <SMILES>  (26) 
[NH-]C(=O)c1ccccc1/N=C\CC(=O)c1ccc(O)cc1

>  <Energy>  (26) 
44.05328714633171

>  <Genealogy>  (26) 
[NH-]C(=O)c1ccccc1N=CCC(=O)c1ccc(O)cc1 (protonated)
[NH-]C(=O)c1ccccc1/N=C\CC(=O)c1ccc(O)cc1 (cis-trans isomerization)
[NH-]C(=O)c1ccccc1/N=C\CC(=O)c1ccc(O)cc1 (3D coordinates assigned)
[NH-]C(=O)c1ccccc1/N=C\CC(=O)c1ccc(O)cc1 (optimized conformer: 44.05328714633171 kcal/mol)

>  <smiles>  (26) 
NC(=O)c1ccccc1N=CCC(=O)c1ccc(O)cc1

>  <score_type>  (26) 
oracle

>  <origin>  (26) 
adg

>  <m_score__min__energy>  (26) 
-10.960000000000001

>  <m_primary>  (26) 
energy

$$$$
26:0
     RDKit          3D

 27 29  0  0  0  0  0  0  0  0999 V2000
   57.2780   21.5980   47.7570 O   0  0  0  0  0  0  0  0  0  0  0  0
   57.3050   21.9980   46.5630 C   0  0  0  0  0  0  0  0  0  0  0  0
   57.6530   23.3940   46.2130 C   0  0  0  0  0  0  0  0  0  0  0  0
   58.9950   23.7020   45.9930 C   0  0  0  0  0  0  0  0  0  0  0  0
   59.3880   24.9940   45.6620 C   0  0  0  0  0  0  0  0  0  0  0  0
   58.4480   26.0440   45.5490 C   0  0  0  0  0  0  0  0  0  0  0  0
   57.0710   25.7360   45.7480 C   0  0  0  0  0  0  0  0  0  0  0  0
   56.6850   24.4100   46.0860 C   0  0  0  0  0  0  0  0  0  0  0  0
   55.3440   24.0950   46.2920 O   0  0  0  0  0  0  0  0  0  0  0  0
   56.1110   26.7630   45.6210 C   0  0  0  0  0  0  0  0  0  0  0  0
   54.7610   26.5220   45.8610 O   0  0  0  0  0  0  0  0  0  0  0  0
   56.4850   28.0550   45.2570 C   0  0  0  0  0  0  0  0  0  0  0  0
   55.4930   29.0290   45.2390 O   0  0  0  0  0  0  0  0  0  0  0  0
   57.8340   28.3700   44.9790 C   0  0  0  0  0  0  0  0  0  0  0  0
   58.2450   29.6630   44.5310 C   0  0  0  0  0  0  0  0  0  0  0  0
   57.3240   30.6930   44.0130 C   0  0  0  0  0  0  0  0  0  0  0  0
   57.0210   30.7280   42.7920 O   0  0  0  0  0  0  0  0  0  0  0  0
   56.8790   31.7020   44.8560 O   0  0  0  0  0  0  0  0  0  0  0  0
   59.5660   29.9700   44.4880 N   0  0  0  0  0  0  0  0  0  0  0  0
   60.5290   29.0790   44.8100 C   0  0  0  0  0  0  0  0  0  0  0  0
   60.1910   27.7770   45.1530 C   0  0  0  0  0  0  0  0  0  0  0  0
   58.8350   27.3810   45.2210 C   0  0  0  0  0  0  0  0  0  0  0  0
   57.0630   21.2897   45.7569 H   0  0  0  0  0  0  0  0  0  0  0  0
   59.7541   22.9110   46.0826 H   0  0  0  0  0  0  0  0  0  0  0  0
   60.4531   25.2037   45.4842 H   0  0  0  0  0  0  0  0  0  0  0  0
   61.5851   29.3864   44.8004 H   0  0  0  0  0  0  0  0  0  0  0  0
   60.9842   27.0475   45.3737 H   0  0  0  0  0  0  0  0  0  0  0  0
  1  2  2  0
  2  3  1  0
  3  4  2  0
  4  5  1  0
  5  6  2  0
  6  7  1  0
  7  8  2  0
  8  9  1  0
  7 10  1  0
 10 11  1  0
 10 12  2  0
 12 13  1  0
 12 14  1  0
 14 15  2  0
 15 16  1  0
 16 17  2  0
 16 18  1  0
 15 19  1  0
 19 20  2  0
 20 21  1  0
 21 22  2  0
  8  3  1  0
 22 14  1  0
 22  6  1  0
  2 23  1  0
  4 24  1  0
  5 25  1  0
 20 26  1  0
 21 27  1  0
M  CHG  4   9  -1  11  -1  13  -1  18  -1
M  END
>  <UniqueID>  (27) 
24

>  <SMILES>  (27) 
O=Cc1ccc2c(c1[O-])c([O-])c([O-])c1c(C(=O)[O-])nccc12

>  <Energy>  (27) 
60.19156976707804

>  <Genealogy>  (27) 
O=Cc1ccc2c(c1[O-])c([O-])c([O-])c1c(C(=O)[O-])nccc12 (protonated)
O=Cc1ccc2c(c1[O-])c([O-])c([O-])c1c(C(=O)[O-])nccc12 (3D coordinates assigned)
O=Cc1ccc2c(c1[O-])c([O-])c([O-])c1c(C(=O)[O-])nccc12 (optimized conformer: 60.19156976707804 kcal/mol)

>  <smiles>  (27) 
O=Cc1ccc2c(c1O)c(O)c(O)c1c(C(=O)O)nccc12

>  <score_type>  (27) 
oracle

>  <origin>  (27) 
adg

>  <m_score__min__energy>  (27) 
-16.399999999999999

>  <m_primary>  (27) 
energy

$$$$
27:0
     RDKit          3D

 53 56  0  0  0  0  0  0  0  0999 V2000
   64.0280   28.1060   52.3680 C   0  0  0  0  0  0  0  0  0  0  0  0
   62.8080   27.6230   51.8130 O   0  0  0  0  0  0  0  0  0  0  0  0
   61.6730   28.4140   51.5790 C   0  0  0  0  0  0  0  0  0  0  0  0
   61.3750   28.9340   50.3060 C   0  0  0  0  0  0  0  0  0  0  0  0
   60.2390   29.7220   50.1120 C   0  0  0  0  0  0  0  0  0  0  0  0
   59.3770   30.0090   51.1820 C   0  0  0  0  0  0  0  0  0  0  0  0
   58.1730   30.8470   50.9720 C   0  0  0  0  0  0  0  0  0  0  0  0
   57.0340   30.4050   51.2870 O   0  0  0  0  0  0  0  0  0  0  0  0
   58.2900   32.1380   50.3620 N   0  0  0  0  0  0  0  0  0  0  0  0
   58.8880   32.3870   49.0860 C   0  0  0  0  0  0  0  0  0  0  0  0
   58.3470   32.0080   47.8690 C   0  0  0  0  0  0  0  0  0  0  0  0
   59.1850   32.3520   46.8600 N   0  0  0  0  0  0  0  0  0  0  0  0
   58.9340   32.0870   45.4340 C   0  0  2  0  0  0  0  0  0  0  0  0
   58.0490   33.1940   44.8440 C   0  0  0  0  0  0  0  0  0  0  0  0
   58.4320   30.6640   45.2320 C   0  0  0  0  0  0  0  0  0  0  0  0
   59.2910   29.5470   45.1370 C   0  0  0  0  0  0  0  0  0  0  0  0
   58.7670   28.2640   44.9490 C   0  0  0  0  0  0  0  0  0  0  0  0
   57.3870   28.0750   44.8590 C   0  0  0  0  0  0  0  0  0  0  0  0
   56.5250   29.1670   44.9610 C   0  0  0  0  0  0  0  0  0  0  0  0
   55.1510   28.9770   44.8750 O   0  0  0  0  0  0  0  0  0  0  0  0
   57.0420   30.4530   45.1500 C   0  0  0  0  0  0  0  0  0  0  0  0
   60.2710   32.9160   47.4450 C   0  0  0  0  0  0  0  0  0  0  0  0
   61.4390   33.3880   46.8350 C   0  0  0  0  0  0  0  0  0  0  0  0
   62.4650   33.8820   47.6580 C   0  0  0  0  0  0  0  0  0  0  0  0
   62.3200   33.8850   49.0600 C   0  0  0  0  0  0  0  0  0  0  0  0
   61.1420   33.4020   49.6540 C   0  0  0  0  0  0  0  0  0  0  0  0
   60.1240   32.9470   48.8140 C   0  0  0  0  0  0  0  0  0  0  0  0
   59.6730   29.4850   52.4540 C   0  0  0  0  0  0  0  0  0  0  0  0
   60.8170   28.6890   52.6560 C   0  0  0  0  0  0  0  0  0  0  0  0
   61.1380   28.1520   53.9130 O   0  0  0  0  0  0  0  0  0  0  0  0
   61.0740   26.7680   54.2420 C   0  0  0  0  0  0  0  0  0  0  0  0
   63.9663   28.0816   53.4660 H   0  0  0  0  0  0  0  0  0  0  0  0
   64.8604   27.4696   52.0333 H   0  0  0  0  0  0  0  0  0  0  0  0
   64.1992   29.1398   52.0333 H   0  0  0  0  0  0  0  0  0  0  0  0
   62.0415   28.7182   49.4580 H   0  0  0  0  0  0  0  0  0  0  0  0
   60.0174   30.1216   49.1114 H   0  0  0  0  0  0  0  0  0  0  0  0
   57.3790   31.5019   47.7397 H   0  0  0  0  0  0  0  0  0  0  0  0
   59.8707   32.1298   44.8588 H   0  0  0  0  0  0  0  0  0  0  0  0
   57.5887   33.7697   45.6605 H   0  0  0  0  0  0  0  0  0  0  0  0
   58.6636   33.8636   44.2244 H   0  0  0  0  0  0  0  0  0  0  0  0
   57.2605   32.7419   44.2244 H   0  0  0  0  0  0  0  0  0  0  0  0
   60.3795   29.6870   45.2114 H   0  0  0  0  0  0  0  0  0  0  0  0
   59.4447   27.4010   44.8718 H   0  0  0  0  0  0  0  0  0  0  0  0
   56.9791   27.0647   44.7076 H   0  0  0  0  0  0  0  0  0  0  0  0
   56.3557   31.3084   45.2355 H   0  0  0  0  0  0  0  0  0  0  0  0
   61.5506   33.3726   45.7408 H   0  0  0  0  0  0  0  0  0  0  0  0
   63.3891   34.2696   47.2044 H   0  0  0  0  0  0  0  0  0  0  0  0
   63.1341   34.2678   49.6929 H   0  0  0  0  0  0  0  0  0  0  0  0
   61.0253   33.3829   50.7476 H   0  0  0  0  0  0  0  0  0  0  0  0
   59.0034   29.6995   53.2999 H   0  0  0  0  0  0  0  0  0  0  0  0
   61.0686   26.6510   55.3357 H   0  0  0  0  0  0  0  0  0  0  0  0
   60.1548   26.3334   53.8222 H   0  0  0  0  0  0  0  0  0  0  0  0
   61.9492   26.2505   53.8222 H   0  0  0  0  0  0  0  0  0  0  0  0
  1  2  1  0
  2  3  1  0
  3  4  2  0
  4  5  1  0
  5  6  2  0
  6  7  1  0
  7  8  2  0
  7  9  1  0
  9 10  1  0
 10 11  2  0
 11 12  1  0
 12 13  1  0
 13 14  1  0
 13 15  1  0
 15 16  2  0
 16 17  1  0
 17 18  2  0
 18 19  1  0
 19 20  1  0
 19 21  2  0
 12 22  1  0
 22 23  2  0
 23 24  1  0
 24 25  2  0
 25 26  1  0
 26 27  2  0
  6 28  1  0
 28 29  2  0
 29 30  1  0
 30 31  1  0
 29  3  1  0
 27 10  1  0
 21 15  1  0
 27 22  1  0
  1 32  1  0
  1 33  1  0
  1 34  1  0
  4 35  1  0
  5 36  1  0
 11 37  1  0
 13 38  1  6
 14 39  1  0
 14 40  1  0
 14 41  1  0
 16 42  1  0
 17 43  1  0
 18 44  1  0
 21 45  1  0
 23 46  1  0
 24 47  1  0
 25 48  1  0
 26 49  1  0
 28 50  1  0
 31 51  1  0
 31 52  1  0
 31 53  1  0
M  CHG  2   9  -1  20  -1
M  END
>  <UniqueID>  (28) 
25

>  <SMILES>  (28) 
COc1ccc(C(=O)[N-]c2cn([C@H](C)c3cccc([O-])c3)c3ccccc23)cc1OC

>  <Energy>  (28) 
98.11124537673706

>  <Genealogy>  (28) 
COc1ccc(C(=O)[N-]c2cn(C(C)c3cccc([O-])c3)c3ccccc23)cc1OC (protonated)
COc1ccc(C(=O)[N-]c2cn([C@H](C)c3cccc([O-])c3)c3ccccc23)cc1OC (chirality)
COc1ccc(C(=O)[N-]c2cn([C@H](C)c3cccc([O-])c3)c3ccccc23)cc1OC (3D coordinates assigned)
COc1ccc(C(=O)[N-]c2cn([C@H](C)c3cccc([O-])c3)c3ccccc23)cc1OC (optimized conformer: 98.11124537673706 kcal/mol)

>  <smiles>  (28) 
COc1ccc(C(=O)Nc2cn(C(C)c3cccc(O)c3)c3ccccc23)cc1OC

>  <score_type>  (28) 
oracle

>  <origin>  (28) 
adg

>  <m_score__min__energy>  (28) 
-13.67

>  <m_primary>  (28) 
energy

$$$$
28:0
     RDKit          3D

 50 52  0  0  0  0  0  0  0  0999 V2000
   55.1700   26.4030   45.9900 N   0  0  0  0  0  0  0  0  0  0  0  0
   56.8180   25.9340   46.2240 S   0  0  0  0  0  0  0  0  0  0  0  0
   57.2350   25.0450   45.0860 O   0  0  0  0  0  0  0  0  0  0  0  0
   56.9410   25.1770   47.5170 O   0  0  0  0  0  0  0  0  0  0  0  0
   57.8390   27.3660   46.2870 C   0  0  0  0  0  0  0  0  0  0  0  0
   58.2390   27.9860   45.0970 C   0  0  0  0  0  0  0  0  0  0  0  0
   59.0400   29.1320   45.1320 C   0  0  0  0  0  0  0  0  0  0  0  0
   59.4640   29.6630   46.3640 C   0  0  0  0  0  0  0  0  0  0  0  0
   60.2680   30.8480   46.4480 N   0  0  0  0  0  0  0  0  0  0  0  0
   61.1810   31.1920   47.4990 C   0  0  0  0  0  0  0  0  0  0  0  0
   62.3870   30.8260   47.4550 O   0  0  0  0  0  0  0  0  0  0  0  0
   60.6960   31.9880   48.6700 C   0  0  0  0  0  0  0  0  0  0  0  0
   60.8630   33.4300   48.3920 N   0  0  0  0  0  0  0  0  0  0  0  0
   61.5450   33.7020   47.0970 C   0  0  0  0  0  0  0  0  0  0  0  0
   60.6080   34.2360   45.9910 C   0  0  0  0  0  0  0  0  0  0  0  0
   59.2130   33.5950   46.0900 C   0  0  0  0  0  0  0  0  0  0  0  0
   58.2810   33.9720   44.9100 C   0  0  0  0  0  0  0  0  0  0  0  0
   57.7120   32.7880   44.1580 C   0  0  0  0  0  0  0  0  0  0  0  0
   56.9680   31.8070   44.8400 C   0  0  0  0  0  0  0  0  0  0  0  0
   56.4450   30.7110   44.1480 C   0  0  0  0  0  0  0  0  0  0  0  0
   56.6510   30.5870   42.7710 C   0  0  0  0  0  0  0  0  0  0  0  0
   57.3750   31.5650   42.0830 C   0  0  0  0  0  0  0  0  0  0  0  0
   57.9000   32.6640   42.7700 C   0  0  0  0  0  0  0  0  0  0  0  0
   58.5700   33.8670   47.4700 C   0  0  0  0  0  0  0  0  0  0  0  0
   59.6090   34.1920   48.5610 C   0  0  0  0  0  0  0  0  0  0  0  0
   59.0380   29.0550   47.5530 C   0  0  0  0  0  0  0  0  0  0  0  0
   58.2330   27.9120   47.5170 C   0  0  0  0  0  0  0  0  0  0  0  0
   55.1520   27.0630   45.1800 H   0  0  0  0  0  0  0  0  0  0  0  0
   57.9216   27.5696   44.1296 H   0  0  0  0  0  0  0  0  0  0  0  0
   59.3396   29.6200   44.1928 H   0  0  0  0  0  0  0  0  0  0  0  0
   59.6323   31.7698   48.8458 H   0  0  0  0  0  0  0  0  0  0  0  0
   61.2795   31.7178   49.5625 H   0  0  0  0  0  0  0  0  0  0  0  0
   62.3336   34.4487   47.2720 H   0  0  0  0  0  0  0  0  0  0  0  0
   61.9422   32.7406   46.7395 H   0  0  0  0  0  0  0  0  0  0  0  0
   60.5108   35.3265   46.0981 H   0  0  0  0  0  0  0  0  0  0  0  0
   61.0412   33.9807   45.0127 H   0  0  0  0  0  0  0  0  0  0  0  0
   59.3563   32.5078   46.0031 H   0  0  0  0  0  0  0  0  0  0  0  0
   57.4422   34.5611   45.3091 H   0  0  0  0  0  0  0  0  0  0  0  0
   58.8965   34.5332   44.1915 H   0  0  0  0  0  0  0  0  0  0  0  0
   56.7974   31.9033   45.9224 H   0  0  0  0  0  0  0  0  0  0  0  0
   55.8701   29.9444   44.6882 H   0  0  0  0  0  0  0  0  0  0  0  0
   56.2437   29.7206   42.2293 H   0  0  0  0  0  0  0  0  0  0  0  0
   57.5321   31.4699   40.9984 H   0  0  0  0  0  0  0  0  0  0  0  0
   58.4623   33.4347   42.2224 H   0  0  0  0  0  0  0  0  0  0  0  0
   57.8821   34.7201   47.3749 H   0  0  0  0  0  0  0  0  0  0  0  0
   58.0447   32.9504   47.7764 H   0  0  0  0  0  0  0  0  0  0  0  0
   59.8406   35.2665   48.5188 H   0  0  0  0  0  0  0  0  0  0  0  0
   59.1744   33.9100   49.5314 H   0  0  0  0  0  0  0  0  0  0  0  0
   59.3392   29.4802   48.5218 H   0  0  0  0  0  0  0  0  0  0  0  0
   57.9081   27.4401   48.4560 H   0  0  0  0  0  0  0  0  0  0  0  0
  1  2  1  0
  2  3  2  0
  2  4  2  0
  2  5  1  0
  5  6  2  0
  6  7  1  0
  7  8  2  0
  8  9  1  0
  9 10  1  0
 10 11  2  0
 10 12  1  0
 12 13  1  0
 13 14  1  0
 14 15  1  0
 15 16  1  0
 16 17  1  0
 17 18  1  0
 18 19  2  0
 19 20  1  0
 20 21  2  0
 21 22  1  0
 22 23  2  0
 16 24  1  0
 24 25  1  0
  8 26  1  0
 26 27  2  0
 27  5  1  0
 25 13  1  0
 23 18  1  0
  1 28  1  0
  6 29  1  0
  7 30  1  0
 12 31  1  0
 12 32  1  0
 14 33  1  0
 14 34  1  0
 15 35  1  0
 15 36  1  0
 16 37  1  0
 17 38  1  0
 17 39  1  0
 19 40  1  0
 20 41  1  0
 21 42  1  0
 22 43  1  0
 23 44  1  0
 24 45  1  0
 24 46  1  0
 25 47  1  0
 25 48  1  0
 26 49  1  0
 27 50  1  0
M  CHG  2   1  -1   9  -1
M  END
>  <UniqueID>  (29) 
26

>  <SMILES>  (29) 
[NH-]S(=O)(=O)c1ccc([N-]C(=O)CN2CCC(Cc3ccccc3)CC2)cc1

>  <Energy>  (29) 
62.97948482482036

>  <Genealogy>  (29) 
[NH-]S(=O)(=O)c1ccc([N-]C(=O)CN2CCC(Cc3ccccc3)CC2)cc1 (protonated)
[NH-]S(=O)(=O)c1ccc([N-]C(=O)CN2CCC(Cc3ccccc3)CC2)cc1 (3D coordinates assigned)
[NH-]S(=O)(=O)c1ccc([N-]C(=O)CN2CCC(Cc3ccccc3)CC2)cc1 (nonaromatic ring conformer: 62.97948482482036 kcal/mol)

>  <smiles>  (29) 
NS(=O)(=O)c1ccc(NC(=O)CN2CCC(Cc3ccccc3)CC2)cc1

>  <score_type>  (29) 
oracle

>  <origin>  (29) 
adg

>  <m_score__min__energy>  (29) 
-12.6

>  <m_primary>  (29) 
energy

$$$$
29:0
     RDKit          3D

 55 58  0  0  0  0  0  0  0  0999 V2000
   63.7010   33.0570   46.8060 C   0  0  0  0  0  0  0  0  0  0  0  0
   62.2210   33.4220   46.8710 C   0  0  0  0  0  0  0  0  0  0  0  0
   61.6960   33.4980   48.3090 C   0  0  0  0  0  0  0  0  0  0  0  0
   60.3300   32.9720   48.4260 N   0  0  0  0  0  0  0  0  0  0  0  0
   59.2000   33.4890   47.9010 C   0  0  0  0  0  0  0  0  0  0  0  0
   59.1230   34.9610   46.8780 S   0  0  0  0  0  0  0  0  0  0  0  0
   57.8430   34.2890   45.7560 C   0  0  0  0  0  0  0  0  0  0  0  0
   58.4470   33.5910   44.5630 C   0  0  0  0  0  0  0  0  0  0  0  0
   59.6080   33.9070   44.1820 O   0  0  0  0  0  0  0  0  0  0  0  0
   57.7240   32.5610   43.8500 N   0  0  0  0  0  0  0  0  0  0  0  0
   58.0750   32.2880   42.4520 C   0  0  0  0  0  0  0  0  0  0  0  0
   56.6430   31.7940   44.4870 C   0  0  0  0  0  0  0  0  0  0  0  0
   57.1240   30.4370   44.8990 C   0  0  0  0  0  0  0  0  0  0  0  0
   56.2350   29.4300   45.1070 N   0  0  0  0  0  0  0  0  0  0  0  0
   56.6450   28.1830   45.4570 C   0  0  0  0  0  0  0  0  0  0  0  0
   55.7850   27.2830   45.6530 O   0  0  0  0  0  0  0  0  0  0  0  0
   58.0160   27.9150   45.5940 C   0  0  0  0  0  0  0  0  0  0  0  0
   58.5060   26.6460   45.9550 C   0  0  0  0  0  0  0  0  0  0  0  0
   59.8830   26.4410   46.0860 C   0  0  0  0  0  0  0  0  0  0  0  0
   60.7770   27.4900   45.8520 C   0  0  0  0  0  0  0  0  0  0  0  0
   60.2990   28.7540   45.4940 C   0  0  0  0  0  0  0  0  0  0  0  0
   58.9230   28.9720   45.3660 C   0  0  0  0  0  0  0  0  0  0  0  0
   58.4570   30.2000   45.0210 N   0  0  0  0  0  0  0  0  0  0  0  0
   58.1170   32.7630   48.2340 N   0  0  0  0  0  0  0  0  0  0  0  0
   58.5410   31.7670   48.9950 N   0  0  0  0  0  0  0  0  0  0  0  0
   59.8780   31.8950   49.1090 C   0  0  0  0  0  0  0  0  0  0  0  0
   60.7130   30.9530   49.8830 C   0  0  0  0  0  0  0  0  0  0  0  0
   61.7500   31.4460   50.6920 C   0  0  0  0  0  0  0  0  0  0  0  0
   62.5510   30.5690   51.4270 C   0  0  0  0  0  0  0  0  0  0  0  0
   62.3370   29.1920   51.3500 C   0  0  0  0  0  0  0  0  0  0  0  0
   61.3240   28.6880   50.5300 C   0  0  0  0  0  0  0  0  0  0  0  0
   60.5160   29.5590   49.7890 C   0  0  0  0  0  0  0  0  0  0  0  0
   59.2480   28.8700   48.7790 Cl  0  0  0  0  0  0  0  0  0  0  0  0
   64.0996   32.9587   47.8265 H   0  0  0  0  0  0  0  0  0  0  0  0
   63.8202   32.1026   46.2723 H   0  0  0  0  0  0  0  0  0  0  0  0
   64.2503   33.8466   46.2723 H   0  0  0  0  0  0  0  0  0  0  0  0
   62.0782   34.4016   46.3914 H   0  0  0  0  0  0  0  0  0  0  0  0
   61.6594   32.6311   46.3523 H   0  0  0  0  0  0  0  0  0  0  0  0
   62.3595   32.9104   48.9605 H   0  0  0  0  0  0  0  0  0  0  0  0
   61.6786   34.5564   48.6081 H   0  0  0  0  0  0  0  0  0  0  0  0
   57.2248   33.5695   46.3130 H   0  0  0  0  0  0  0  0  0  0  0  0
   57.2388   35.1309   45.3870 H   0  0  0  0  0  0  0  0  0  0  0  0
   58.9428   31.6130   42.4169 H   0  0  0  0  0  0  0  0  0  0  0  0
   57.2213   31.8142   41.9454 H   0  0  0  0  0  0  0  0  0  0  0  0
   58.3241   33.2321   41.9454 H   0  0  0  0  0  0  0  0  0  0  0  0
   56.2914   32.3372   45.3765 H   0  0  0  0  0  0  0  0  0  0  0  0
   55.8236   31.6725   43.7632 H   0  0  0  0  0  0  0  0  0  0  0  0
   57.8064   25.8162   46.1339 H   0  0  0  0  0  0  0  0  0  0  0  0
   60.2643   25.4503   46.3743 H   0  0  0  0  0  0  0  0  0  0  0  0
   61.8594   27.3204   45.9498 H   0  0  0  0  0  0  0  0  0  0  0  0
   61.0052   29.5777   45.3128 H   0  0  0  0  0  0  0  0  0  0  0  0
   61.9324   32.5294   50.7471 H   0  0  0  0  0  0  0  0  0  0  0  0
   63.3525   30.9646   52.0681 H   0  0  0  0  0  0  0  0  0  0  0  0
   62.9654   28.5039   51.9345 H   0  0  0  0  0  0  0  0  0  0  0  0
   61.1606   27.6021   50.4663 H   0  0  0  0  0  0  0  0  0  0  0  0
  1  2  1  0
  2  3  1  0
  3  4  1  0
  4  5  1  0
  5  6  1  0
  6  7  1  0
  7  8  1  0
  8  9  2  0
  8 10  1  0
 10 11  1  0
 10 12  1  0
 12 13  1  0
 13 14  2  0
 14 15  1  0
 15 16  2  0
 15 17  1  0
 17 18  2  0
 18 19  1  0
 19 20  2  0
 20 21  1  0
 21 22  2  0
 22 23  1  0
  5 24  2  0
 24 25  1  0
 25 26  2  0
 26 27  1  0
 27 28  2  0
 28 29  1  0
 29 30  2  0
 30 31  1  0
 31 32  2  0
 32 33  1  0
 26  4  1  0
 32 27  1  0
 23 13  1  0
 22 17  1  0
  1 34  1  0
  1 35  1  0
  1 36  1  0
  2 37  1  0
  2 38  1  0
  3 39  1  0
  3 40  1  0
  7 41  1  0
  7 42  1  0
 11 43  1  0
 11 44  1  0
 11 45  1  0
 12 46  1  0
 12 47  1  0
 18 48  1  0
 19 49  1  0
 20 50  1  0
 21 51  1  0
 28 52  1  0
 29 53  1  0
 30 54  1  0
 31 55  1  0
M  CHG  1  23  -1
M  END
>  <UniqueID>  (30) 
27

>  <SMILES>  (30) 
CCCn1c(SCC(=O)N(C)Cc2nc(=O)c3ccccc3[n-]2)nnc1-c1ccccc1Cl

>  <Energy>  (30) 
89.63066445691183

>  <Genealogy>  (30) 
CCCn1c(SCC(=O)N(C)Cc2nc(=O)c3ccccc3[n-]2)nnc1-c1ccccc1Cl (protonated)
CCCn1c(SCC(=O)N(C)Cc2nc(=O)c3ccccc3[n-]2)nnc1-c1ccccc1Cl (3D coordinates assigned)
CCCn1c(SCC(=O)N(C)Cc2nc(=O)c3ccccc3[n-]2)nnc1-c1ccccc1Cl (optimized conformer: 89.63066445691183 kcal/mol)

>  <smiles>  (30) 
CCCn1c(SCC(=O)N(C)Cc2nc(=O)c3ccccc3[nH]2)nnc1-c1ccccc1Cl

>  <score_type>  (30) 
oracle

>  <origin>  (30) 
adg

>  <m_score__min__energy>  (30) 
-12.02

>  <m_primary>  (30) 
energy

$$$$
30:0
     RDKit          3D

 47 49  0  0  1  0  0  0  0  0999 V2000
   53.8920   24.0560   45.2710 C   0  0  0  0  0  0  0  0  0  0  0  0
   55.1540   24.2110   45.6200 C   0  0  0  0  0  0  0  0  0  0  0  0
   55.8230   25.5240   45.6600 C   0  0  0  0  0  0  0  0  0  0  0  0
   55.1550   26.4640   46.1300 O   0  0  0  0  0  0  0  0  0  0  0  0
   57.1210   25.7350   45.2080 N   0  0  0  0  0  0  0  0  0  0  0  0
   57.8530   26.9410   45.2000 C   0  0  0  0  0  0  0  0  0  0  0  0
   59.2230   27.0390   45.1910 C   0  0  0  0  0  0  0  0  0  0  0  0
   59.8840   28.2740   45.1840 C   0  0  0  0  0  0  0  0  0  0  0  0
   59.1820   29.4580   45.1830 C   0  0  0  0  0  0  0  0  0  0  0  0
   57.8060   29.3690   45.1910 C   0  0  0  0  0  0  0  0  0  0  0  0
   57.0400   30.5670   45.1920 N   0  0  0  0  0  0  0  0  0  0  0  0
   57.6360   31.6930   45.3780 C   0  0  0  0  0  0  0  0  0  0  0  0
   57.5590   32.6080   44.3910 N   0  0  0  0  0  0  0  0  0  0  0  0
   58.1470   33.8180   44.4830 C   0  0  0  0  0  0  0  0  0  0  0  0
   58.8610   34.1400   45.6380 C   0  0  0  0  0  0  0  0  0  0  0  0
   59.6400   35.6960   45.8030 Cl  0  0  0  0  0  0  0  0  0  0  0  0
   58.9280   33.1870   46.6410 C   0  0  0  0  0  0  0  0  0  0  0  0
   59.5970   33.4840   47.7260 N   0  0  0  0  0  0  0  0  0  0  0  0
   60.9720   33.0480   47.7750 C   0  0  0  0  0  0  0  0  0  0  0  0
   61.9770   33.8590   47.2420 C   0  0  0  0  0  0  0  0  0  0  0  0
   63.2980   33.4240   47.2980 C   0  0  0  0  0  0  0  0  0  0  0  0
   63.6050   32.1960   47.8800 C   0  0  0  0  0  0  0  0  0  0  0  0
   62.5770   31.4320   48.3930 C   0  0  0  0  0  0  0  0  0  0  0  0
   61.2530   31.8290   48.3560 C   0  0  0  0  0  0  0  0  0  0  0  0
   59.9650   30.8290   49.0200 S   0  0  0  0  0  0  0  0  0  0  0  0
   58.5560   31.7150   49.3880 N   0  0  0  0  0  0  0  0  0  0  0  0
   59.6170   29.7750   48.0070 O   0  0  0  0  0  0  0  0  0  0  0  0
   60.4840   30.1940   50.2840 O   0  0  0  0  0  0  0  0  0  0  0  0
   58.3230   31.9940   46.4970 N   0  0  0  0  0  0  0  0  0  0  0  0
   57.1620   28.1500   45.2000 C   0  0  0  0  0  0  0  0  0  0  0  0
   53.4441   23.0514   45.2590 H   0  0  0  0  0  0  0  0  0  0  0  0
   53.2871   24.9313   44.9918 H   0  0  0  0  0  0  0  0  0  0  0  0
   55.7352   23.3183   45.8943 H   0  0  0  0  0  0  0  0  0  0  0  0
   57.6300   24.8840   44.8190 H   0  0  0  0  0  0  0  0  0  0  0  0
   59.8216   26.1161   45.1892 H   0  0  0  0  0  0  0  0  0  0  0  0
   60.9837   28.2981   45.1792 H   0  0  0  0  0  0  0  0  0  0  0  0
   59.6953   30.4309   45.1761 H   0  0  0  0  0  0  0  0  0  0  0  0
   57.0360   32.4270   43.4970 H   0  0  0  0  0  0  0  0  0  0  0  0
   58.0650   34.5416   43.6586 H   0  0  0  0  0  0  0  0  0  0  0  0
   61.7278   34.8278   46.7845 H   0  0  0  0  0  0  0  0  0  0  0  0
   64.1007   34.0507   46.8821 H   0  0  0  0  0  0  0  0  0  0  0  0
   64.6456   31.8428   47.9295 H   0  0  0  0  0  0  0  0  0  0  0  0
   62.8218   30.4630   48.8523 H   0  0  0  0  0  0  0  0  0  0  0  0
   58.3340   31.7680   50.4170 H   0  0  0  0  0  0  0  0  0  0  0  0
   58.4210   32.5920   48.8780 H   0  0  0  0  0  0  0  0  0  0  0  0
   58.3840   31.2880   47.2630 H   0  0  0  0  0  0  0  0  0  0  0  0
   56.0622   28.1318   45.2075 H   0  0  0  0  0  0  0  0  0  0  0  0
  1  2  2  0
  2  3  1  0
  3  4  2  0
  3  5  1  0
  5  6  1  0
  6  7  2  0
  7  8  1  0
  8  9  2  0
  9 10  1  0
 10 11  1  0
 11 12  2  0
 12 13  1  0
 13 14  1  0
 14 15  2  0
 15 16  1  0
 15 17  1  0
 17 18  2  0
 18 19  1  0
 19 20  2  0
 20 21  1  0
 21 22  2  0
 22 23  1  0
 23 24  2  0
 24 25  1  0
 25 26  1  0
 25 27  2  0
 25 28  2  0
 17 29  1  0
 10 30  2  0
 30  6  1  0
 29 12  1  0
 24 19  1  0
  1 31  1  0
  1 32  1  0
  2 33  1  0
  5 34  1  0
  7 35  1  0
  8 36  1  0
  9 37  1  0
 13 38  1  0
 14 39  1  0
 20 40  1  0
 21 41  1  0
 22 42  1  0
 23 43  1  0
 26 44  1  0
 26 45  1  0
 29 46  1  0
 30 47  1  0
M  END
>  <smiles>  (31) 
C=CC(=O)Nc1cccc(N=c2[nH]cc(Cl)c(=Nc3ccccc3S(N)(=O)=O)[nH]2)c1

>  <score_type>  (31) 
oracle

>  <origin>  (31) 
adg

>  <m_score__min__energy>  (31) 
-9.9600000000000009

>  <m_primary>  (31) 
energy

$$$$
31:0
     RDKit          3D

 54 56  0  0  0  0  0  0  0  0999 V2000
   62.1770   30.9830   47.1760 C   0  0  0  0  0  0  0  0  0  0  0  0
   62.3680   31.7520   48.4190 N   0  0  0  0  0  0  0  0  0  0  0  0
   63.6750   32.4490   48.3890 C   0  0  0  0  0  0  0  0  0  0  0  0
   63.6970   33.6400   49.3600 C   0  0  0  0  0  0  0  0  0  0  0  0
   62.5060   34.5870   49.1680 C   0  0  0  0  0  0  0  0  0  0  0  0
   61.5740   34.0520   48.1750 N   0  0  0  0  0  0  0  0  0  0  0  0
   60.1460   34.1650   48.3000 C   0  0  0  0  0  0  0  0  0  0  0  0
   59.6530   34.8670   49.2250 O   0  0  0  0  0  0  0  0  0  0  0  0
   59.2370   33.4920   47.3410 C   0  0  0  0  0  0  0  0  0  0  0  0
   58.9300   32.1240   47.4640 C   0  0  0  0  0  0  0  0  0  0  0  0
   58.0860   31.4970   46.5400 C   0  0  0  0  0  0  0  0  0  0  0  0
   57.5250   32.2330   45.4820 C   0  0  0  0  0  0  0  0  0  0  0  0
   56.6680   31.6290   44.5040 N   0  0  0  0  0  0  0  0  0  0  0  0
   56.5090   29.9240   44.2280 S   0  0  0  0  0  0  0  0  0  0  0  0
   56.4260   29.6590   42.7510 O   0  0  0  0  0  0  0  0  0  0  0  0
   55.2810   29.4070   44.9130 O   0  0  0  0  0  0  0  0  0  0  0  0
   57.9150   29.1140   44.8790 C   0  0  0  0  0  0  0  0  0  0  0  0
   59.2270   29.3130   44.4760 C   0  0  0  0  0  0  0  0  0  0  0  0
   60.1390   28.5070   45.1690 C   0  0  0  0  0  0  0  0  0  0  0  0
   59.5450   27.6830   46.1160 C   0  0  0  0  0  0  0  0  0  0  0  0
   57.8860   27.9480   46.0880 S   0  0  0  0  0  0  0  0  0  0  0  0
   57.8080   33.5990   45.3730 C   0  0  0  0  0  0  0  0  0  0  0  0
   58.6550   34.2260   46.2930 C   0  0  0  0  0  0  0  0  0  0  0  0
   62.2570   30.8660   49.5980 C   0  0  0  0  0  0  0  0  0  0  0  0
   60.8710   30.9390   50.1830 C   0  0  0  0  0  0  0  0  0  0  0  0
   60.5100   32.0220   51.0000 C   0  0  0  0  0  0  0  0  0  0  0  0
   59.2200   32.1060   51.5280 C   0  0  0  0  0  0  0  0  0  0  0  0
   58.2800   31.1090   51.2460 C   0  0  0  0  0  0  0  0  0  0  0  0
   56.5100   31.2380   51.9500 Br  0  0  0  0  0  0  0  0  0  0  0  0
   58.6320   30.0290   50.4340 C   0  0  0  0  0  0  0  0  0  0  0  0
   59.9210   29.9420   49.9020 C   0  0  0  0  0  0  0  0  0  0  0  0
   61.9187   29.9430   47.4243 H   0  0  0  0  0  0  0  0  0  0  0  0
   61.3632   31.4326   46.5881 H   0  0  0  0  0  0  0  0  0  0  0  0
   63.1066   30.9996   46.5881 H   0  0  0  0  0  0  0  0  0  0  0  0
   64.4657   31.7396   48.6746 H   0  0  0  0  0  0  0  0  0  0  0  0
   63.8416   32.8293   47.3704 H   0  0  0  0  0  0  0  0  0  0  0  0
   63.6763   33.2540   50.3898 H   0  0  0  0  0  0  0  0  0  0  0  0
   64.6126   34.2150   49.1574 H   0  0  0  0  0  0  0  0  0  0  0  0
   61.9817   34.7067   50.1275 H   0  0  0  0  0  0  0  0  0  0  0  0
   62.8806   35.5586   48.8136 H   0  0  0  0  0  0  0  0  0  0  0  0
   61.9850   33.6050   47.3260 H   0  0  0  0  0  0  0  0  0  0  0  0
   59.3573   31.5421   48.2940 H   0  0  0  0  0  0  0  0  0  0  0  0
   57.8611   30.4251   46.6421 H   0  0  0  0  0  0  0  0  0  0  0  0
   59.5206   30.0288   43.6941 H   0  0  0  0  0  0  0  0  0  0  0  0
   61.2227   28.5249   44.9811 H   0  0  0  0  0  0  0  0  0  0  0  0
   60.0718   26.9759   46.7737 H   0  0  0  0  0  0  0  0  0  0  0  0
   57.3605   34.1850   44.5567 H   0  0  0  0  0  0  0  0  0  0  0  0
   58.8670   35.3010   46.1956 H   0  0  0  0  0  0  0  0  0  0  0  0
   62.4675   29.8301   49.2937 H   0  0  0  0  0  0  0  0  0  0  0  0
   62.9820   31.1923   50.3582 H   0  0  0  0  0  0  0  0  0  0  0  0
   61.2463   32.8076   51.2252 H   0  0  0  0  0  0  0  0  0  0  0  0
   58.9425   32.9575   52.1667 H   0  0  0  0  0  0  0  0  0  0  0  0
   57.8929   29.2450   50.2127 H   0  0  0  0  0  0  0  0  0  0  0  0
   60.1932   29.0904   49.2611 H   0  0  0  0  0  0  0  0  0  0  0  0
  1  2  1  0
  2  3  1  0
  3  4  1  0
  4  5  1  0
  5  6  1  0
  6  7  1  0
  7  8  2  0
  7  9  1  0
  9 10  2  0
 10 11  1  0
 11 12  2  0
 12 13  1  0
 13 14  1  0
 14 15  2  0
 14 16  2  0
 14 17  1  0
 17 18  2  0
 18 19  1  0
 19 20  2  0
 20 21  1  0
 12 22  1  0
 22 23  2  0
  2 24  1  0
 24 25  1  0
 25 26  2  0
 26 27  1  0
 27 28  2  0
 28 29  1  0
 28 30  1  0
 30 31  2  0
 23  9  1  0
 31 25  1  0
 21 17  1  0
  1 32  1  0
  1 33  1  0
  1 34  1  0
  3 35  1  0
  3 36  1  0
  4 37  1  0
  4 38  1  0
  5 39  1  0
  5 40  1  0
  6 41  1  0
 10 42  1  0
 11 43  1  0
 18 44  1  0
 19 45  1  0
 20 46  1  0
 22 47  1  0
 23 48  1  0
 24 49  1  0
 24 50  1  0
 26 51  1  0
 27 52  1  0
 30 53  1  0
 31 54  1  0
M  CHG  1  13  -1
M  END
>  <UniqueID>  (32) 
28

>  <SMILES>  (32) 
CN(CCCNC(=O)c1ccc([N-]S(=O)(=O)c2cccs2)cc1)Cc1ccc(Br)cc1

>  <Energy>  (32) 
83.95751845739751

>  <Genealogy>  (32) 
CN(CCCNC(=O)c1ccc([N-]S(=O)(=O)c2cccs2)cc1)Cc1ccc(Br)cc1 (protonated)
CN(CCCNC(=O)c1ccc([N-]S(=O)(=O)c2cccs2)cc1)Cc1ccc(Br)cc1 (3D coordinates assigned)
CN(CCCNC(=O)c1ccc([N-]S(=O)(=O)c2cccs2)cc1)Cc1ccc(Br)cc1 (optimized conformer: 83.95751845739751 kcal/mol)

>  <smiles>  (32) 
CN(CCCNC(=O)c1ccc(NS(=O)(=O)c2cccs2)cc1)Cc1ccc(Br)cc1

>  <score_type>  (32) 
oracle

>  <origin>  (32) 
adg

>  <m_score__min__energy>  (32) 
-12.029999999999999

>  <m_primary>  (32) 
energy

$$$$
32:0
     RDKit          3D

 70 74  0  0  0  0  0  0  0  0999 V2000
   56.0620   22.6400   42.7530 C   0  0  0  0  0  0  0  0  0  0  0  0
   56.9080   23.0980   43.9030 C   0  0  0  0  0  0  0  0  0  0  0  0
   58.1570   22.5060   44.1430 C   0  0  0  0  0  0  0  0  0  0  0  0
   58.9570   22.9530   45.1980 C   0  0  0  0  0  0  0  0  0  0  0  0
   58.5240   24.0020   46.0120 C   0  0  0  0  0  0  0  0  0  0  0  0
   57.2910   24.6250   45.7650 C   0  0  0  0  0  0  0  0  0  0  0  0
   56.8100   25.7340   46.6610 C   0  0  0  0  0  0  0  0  0  0  0  0
   57.1030   27.0660   46.0350 C   0  0  0  0  0  0  0  0  0  0  0  0
   58.4160   27.5070   45.8740 C   0  0  0  0  0  0  0  0  0  0  0  0
   58.6430   28.7320   45.2470 C   0  0  0  0  0  0  0  0  0  0  0  0
   59.8310   29.1270   45.0920 O   0  0  0  0  0  0  0  0  0  0  0  0
   57.5870   29.4900   44.8020 N   0  0  0  0  0  0  0  0  0  0  0  0
   57.8280   30.7740   44.1170 C   0  0  0  0  0  0  0  0  0  0  0  0
   57.0220   31.8920   44.7910 C   0  0  0  0  0  0  0  0  0  0  0  0
   57.5270   33.3000   44.4290 C   0  0  0  0  0  0  0  0  0  0  0  0
   57.7900   34.2020   45.6500 C   0  0  0  0  0  0  0  0  0  0  0  0
   59.2140   34.1940   46.0580 N   0  0  0  0  0  0  0  0  0  0  0  0
   59.7700   32.8160   46.0530 C   0  0  0  0  0  0  0  0  0  0  0  0
   61.0550   32.7150   46.8860 C   0  0  0  0  0  0  0  0  0  0  0  0
   60.8120   33.0710   48.3860 C   0  0  0  0  0  0  0  0  0  0  0  0
   60.8210   31.8330   49.2820 C   0  0  0  0  0  0  0  0  0  0  0  0
   61.9790   31.1050   49.5800 C   0  0  0  0  0  0  0  0  0  0  0  0
   61.7320   30.1320   50.4780 N   0  0  0  0  0  0  0  0  0  0  0  0
   60.4380   30.2430   50.7990 C   0  0  0  0  0  0  0  0  0  0  0  0
   59.7540   29.4690   51.7340 C   0  0  0  0  0  0  0  0  0  0  0  0
   58.4080   29.7700   51.9850 C   0  0  0  0  0  0  0  0  0  0  0  0
   57.7770   30.8400   51.3150 C   0  0  0  0  0  0  0  0  0  0  0  0
   56.4090   31.1500   51.5940 N   0  0  0  0  0  0  0  0  0  0  0  0
   58.4960   31.6110   50.3770 C   0  0  0  0  0  0  0  0  0  0  0  0
   59.8370   31.2800   50.1180 C   0  0  0  0  0  0  0  0  0  0  0  0
   59.5590   33.9610   48.5360 C   0  0  0  0  0  0  0  0  0  0  0  0
   59.4190   34.9150   47.3420 C   0  0  0  0  0  0  0  0  0  0  0  0
   56.3070   29.0140   44.9470 C   0  0  0  0  0  0  0  0  0  0  0  0
   55.3210   29.6690   44.5130 O   0  0  0  0  0  0  0  0  0  0  0  0
   56.0830   27.8210   45.5560 N   0  0  0  0  0  0  0  0  0  0  0  0
   56.4840   24.1660   44.7110 C   0  0  0  0  0  0  0  0  0  0  0  0
   55.1556   22.1493   43.1372 H   0  0  0  0  0  0  0  0  0  0  0  0
   55.7773   23.5072   42.1390 H   0  0  0  0  0  0  0  0  0  0  0  0
   56.6325   21.9275   42.1390 H   0  0  0  0  0  0  0  0  0  0  0  0
   58.5080   21.6868   43.4982 H   0  0  0  0  0  0  0  0  0  0  0  0
   59.9305   22.4773   45.3879 H   0  0  0  0  0  0  0  0  0  0  0  0
   59.1515   24.3410   46.8495 H   0  0  0  0  0  0  0  0  0  0  0  0
   55.7252   25.6342   46.8132 H   0  0  0  0  0  0  0  0  0  0  0  0
   57.3310   25.6678   47.6275 H   0  0  0  0  0  0  0  0  0  0  0  0
   59.2585   26.8990   46.2354 H   0  0  0  0  0  0  0  0  0  0  0  0
   58.8996   31.0173   44.1672 H   0  0  0  0  0  0  0  0  0  0  0  0
   57.5123   30.6861   43.0670 H   0  0  0  0  0  0  0  0  0  0  0  0
   55.9714   31.8050   44.4768 H   0  0  0  0  0  0  0  0  0  0  0  0
   57.1370   31.7708   45.8782 H   0  0  0  0  0  0  0  0  0  0  0  0
   58.4663   33.1969   43.8659 H   0  0  0  0  0  0  0  0  0  0  0  0
   56.7327   33.7826   43.8407 H   0  0  0  0  0  0  0  0  0  0  0  0
   57.5001   35.2326   45.3975 H   0  0  0  0  0  0  0  0  0  0  0  0
   57.1968   33.8124   46.4904 H   0  0  0  0  0  0  0  0  0  0  0  0
   59.0201   32.1283   46.4710 H   0  0  0  0  0  0  0  0  0  0  0  0
   60.0152   32.5508   45.0140 H   0  0  0  0  0  0  0  0  0  0  0  0
   61.4383   31.6859   46.8233 H   0  0  0  0  0  0  0  0  0  0  0  0
   61.7795   33.4362   46.4798 H   0  0  0  0  0  0  0  0  0  0  0  0
   61.6587   33.6728   48.7478 H   0  0  0  0  0  0  0  0  0  0  0  0
   62.9661   31.3027   49.1367 H   0  0  0  0  0  0  0  0  0  0  0  0
   62.4250   29.4570   50.8720 H   0  0  0  0  0  0  0  0  0  0  0  0
   60.2564   28.6443   52.2608 H   0  0  0  0  0  0  0  0  0  0  0  0
   57.8396   29.1680   52.7093 H   0  0  0  0  0  0  0  0  0  0  0  0
   55.9810   30.9010   52.5140 H   0  0  0  0  0  0  0  0  0  0  0  0
   55.8110   31.6220   50.8800 H   0  0  0  0  0  0  0  0  0  0  0  0
   58.0163   32.4544   49.8588 H   0  0  0  0  0  0  0  0  0  0  0  0
   58.6666   33.3202   48.5916 H   0  0  0  0  0  0  0  0  0  0  0  0
   59.6603   34.5589   49.4537 H   0  0  0  0  0  0  0  0  0  0  0  0
   58.5569   35.5753   47.5173 H   0  0  0  0  0  0  0  0  0  0  0  0
   60.3555   35.4860   47.2588 H   0  0  0  0  0  0  0  0  0  0  0  0
   55.5135   24.6461   44.5170 H   0  0  0  0  0  0  0  0  0  0  0  0
  1  2  1  0
  2  3  2  0
  3  4  1  0
  4  5  2  0
  5  6  1  0
  6  7  1  0
  7  8  1  0
  8  9  2  0
  9 10  1  0
 10 11  2  0
 10 12  1  0
 12 13  1  0
 13 14  1  0
 14 15  1  0
 15 16  1  0
 16 17  1  0
 17 18  1  0
 18 19  1  0
 19 20  1  0
 20 21  1  0
 21 22  2  0
 22 23  1  0
 23 24  1  0
 24 25  2  0
 25 26  1  0
 26 27  2  0
 27 28  1  0
 27 29  1  0
 29 30  2  0
 20 31  1  0
 31 32  1  0
 12 33  1  0
 33 34  2  0
 33 35  1  0
  6 36  2  0
 36  2  1  0
 35  8  1  0
 32 17  1  0
 30 21  1  0
 30 24  1  0
  1 37  1  0
  1 38  1  0
  1 39  1  0
  3 40  1  0
  4 41  1  0
  5 42  1  0
  7 43  1  0
  7 44  1  0
  9 45  1  0
 13 46  1  0
 13 47  1  0
 14 48  1  0
 14 49  1  0
 15 50  1  0
 15 51  1  0
 16 52  1  0
 16 53  1  0
 18 54  1  0
 18 55  1  0
 19 56  1  0
 19 57  1  0
 20 58  1  0
 22 59  1  0
 23 60  1  0
 25 61  1  0
 26 62  1  0
 28 63  1  0
 28 64  1  0
 29 65  1  0
 31 66  1  0
 31 67  1  0
 32 68  1  0
 32 69  1  0
 36 70  1  0
M  CHG  1  35  -1
M  END
>  <UniqueID>  (33) 
29

>  <SMILES>  (33) 
Cc1cccc(Cc2cc(=O)n(CCCCN3CCC(c4c[nH]c5ccc(N)cc45)CC3)c(=O)[n-]2)c1

>  <Energy>  (33) 
119.87915551543466

>  <Genealogy>  (33) 
Cc1cccc(Cc2cc(=O)n(CCCCN3CCC(c4c[nH]c5ccc(N)cc45)CC3)c(=O)[n-]2)c1 (protonated)
Cc1cccc(Cc2cc(=O)n(CCCCN3CCC(c4c[nH]c5ccc(N)cc45)CC3)c(=O)[n-]2)c1 (3D coordinates assigned)
Cc1cccc(Cc2cc(=O)n(CCCCN3CCC(c4c[nH]c5ccc(N)cc45)CC3)c(=O)[n-]2)c1 (nonaromatic ring conformer: 119.87915551543466 kcal/mol)

>  <smiles>  (33) 
Cc1cccc(Cc2cc(=O)n(CCCCN3CCC(c4c[nH]c5ccc(N)cc45)CC3)c(=O)[nH]2)c1

>  <score_type>  (33) 
oracle

>  <origin>  (33) 
adg

>  <m_score__min__energy>  (33) 
-11.81

>  <m_primary>  (33) 
energy

$$$$
33:0
     RDKit          3D

 26 27  0  0  1  0  0  0  0  0999 V2000
   55.3140   29.1200   44.8770 O   0  0  0  0  0  0  0  0  0  0  0  0
   56.6640   29.3830   44.9460 C   0  0  1  0  0  0  0  0  0  0  0  0
   57.4390   28.1510   44.5370 C   0  0  0  0  0  0  0  0  0  0  0  0
   57.2160   27.0510   45.5130 C   0  0  0  0  0  0  0  0  0  0  0  0
   58.2390   26.4630   46.2640 C   0  0  0  0  0  0  0  0  0  0  0  0
   57.6600   25.5140   47.0270 N   0  0  0  0  0  0  0  0  0  0  0  0
   56.3210   25.5030   46.7680 C   0  0  0  0  0  0  0  0  0  0  0  0
   56.0430   26.4470   45.8390 N   0  0  0  0  0  0  0  0  0  0  0  0
   57.0620   30.5070   44.0540 C   0  0  0  0  0  0  0  0  0  0  0  0
   56.6740   30.4850   42.7270 C   0  0  0  0  0  0  0  0  0  0  0  0
   57.0420   31.5330   41.8820 C   0  0  0  0  0  0  0  0  0  0  0  0
   57.7950   32.5790   42.4060 C   0  0  0  0  0  0  0  0  0  0  0  0
   58.1880   32.6130   43.7320 C   0  0  0  0  0  0  0  0  0  0  0  0
   57.8170   31.5590   44.5720 C   0  0  0  0  0  0  0  0  0  0  0  0
   58.3580   31.6030   46.4020 Br  0  0  0  0  0  0  0  0  0  0  0  0
   55.1570   28.1410   44.8670 H   0  0  0  0  0  0  0  0  0  0  0  0
   56.8903   29.6665   45.9845 H   0  0  0  0  0  0  0  0  0  0  0  0
   57.1035   27.8257   43.5412 H   0  0  0  0  0  0  0  0  0  0  0  0
   58.5113   28.3953   44.5132 H   0  0  0  0  0  0  0  0  0  0  0  0
   59.3073   26.7238   46.2374 H   0  0  0  0  0  0  0  0  0  0  0  0
   58.1750   24.8980   47.7010 H   0  0  0  0  0  0  0  0  0  0  0  0
   55.5852   24.8343   47.2386 H   0  0  0  0  0  0  0  0  0  0  0  0
   56.0782   29.6456   42.3392 H   0  0  0  0  0  0  0  0  0  0  0  0
   56.7429   31.5320   40.8235 H   0  0  0  0  0  0  0  0  0  0  0  0
   58.0877   33.4069   41.7436 H   0  0  0  0  0  0  0  0  0  0  0  0
   58.7818   33.4544   44.1185 H   0  0  0  0  0  0  0  0  0  0  0  0
  1  2  1  0
  2  3  1  0
  3  4  1  0
  4  5  2  0
  5  6  1  0
  6  7  1  0
  7  8  2  0
  2  9  1  0
  9 10  2  0
 10 11  1  0
 11 12  2  0
 12 13  1  0
 13 14  2  0
 14 15  1  0
  8  4  1  0
 14  9  1  0
  1 16  1  0
  2 17  1  1
  3 18  1  0
  3 19  1  0
  5 20  1  0
  6 21  1  0
  7 22  1  0
 10 23  1  0
 11 24  1  0
 12 25  1  0
 13 26  1  0
M  END
>  <smiles>  (34) 
OC(Cc1c[nH]cn1)c1ccccc1Br

>  <score_type>  (34) 
oracle

>  <origin>  (34) 
adg

>  <m_score__min__energy>  (34) 
-6.6500000000000004

>  <m_primary>  (34) 
energy

$$$$
34:0
     RDKit          3D

 48 50  0  0  0  0  0  0  0  0999 V2000
   60.7380   26.7900   46.8530 C   0  0  0  0  0  0  0  0  0  0  0  0
   59.6940   27.5970   46.1400 C   0  0  0  0  0  0  0  0  0  0  0  0
   58.3330   27.3320   46.3530 C   0  0  0  0  0  0  0  0  0  0  0  0
   57.3580   28.0590   45.6660 C   0  0  0  0  0  0  0  0  0  0  0  0
   57.7320   29.0460   44.7450 C   0  0  0  0  0  0  0  0  0  0  0  0
   56.4970   29.9500   43.8770 S   0  0  0  0  0  0  0  0  0  0  0  0
   55.1990   29.9410   44.6370 O   0  0  0  0  0  0  0  0  0  0  0  0
   56.2810   29.3130   42.5330 O   0  0  0  0  0  0  0  0  0  0  0  0
   57.0120   31.5910   43.6520 N   0  0  0  0  0  0  0  0  0  0  0  0
   57.7850   32.3500   44.5910 C   0  0  0  0  0  0  0  0  0  0  0  0
   58.5480   33.4660   44.2030 C   0  0  0  0  0  0  0  0  0  0  0  0
   59.2960   34.1690   45.1530 C   0  0  0  0  0  0  0  0  0  0  0  0
   59.2950   33.7740   46.4960 C   0  0  0  0  0  0  0  0  0  0  0  0
   60.0960   34.5140   47.4290 N   0  0  0  0  0  0  0  0  0  0  0  0
   61.3240   33.8450   48.4540 S   0  0  0  0  0  0  0  0  0  0  0  0
   61.8290   34.9170   49.3780 O   0  0  0  0  0  0  0  0  0  0  0  0
   62.4730   33.3610   47.6140 O   0  0  0  0  0  0  0  0  0  0  0  0
   60.6480   32.5370   49.4180 C   0  0  0  0  0  0  0  0  0  0  0  0
   60.0320   32.7940   50.6510 C   0  0  0  0  0  0  0  0  0  0  0  0
   59.4930   31.7440   51.4010 C   0  0  0  0  0  0  0  0  0  0  0  0
   59.5440   30.4310   50.9180 C   0  0  0  0  0  0  0  0  0  0  0  0
   58.9980   29.3740   51.7190 N   0  0  0  0  0  0  0  0  0  0  0  0
   57.7190   29.3850   52.3650 C   0  0  0  0  0  0  0  0  0  0  0  0
   57.5510   28.8650   53.6840 N   0  0  0  0  0  0  0  0  0  0  0  0
   56.7160   29.8060   51.7320 O   0  0  0  0  0  0  0  0  0  0  0  0
   60.1880   30.1700   49.6970 C   0  0  0  0  0  0  0  0  0  0  0  0
   60.7320   31.2190   48.9500 C   0  0  0  0  0  0  0  0  0  0  0  0
   58.5220   32.6660   46.8840 C   0  0  0  0  0  0  0  0  0  0  0  0
   57.7790   31.9580   45.9340 C   0  0  0  0  0  0  0  0  0  0  0  0
   59.0910   29.3030   44.5200 C   0  0  0  0  0  0  0  0  0  0  0  0
   60.0680   28.5780   45.2080 C   0  0  0  0  0  0  0  0  0  0  0  0
   60.6032   26.8942   47.9397 H   0  0  0  0  0  0  0  0  0  0  0  0
   60.6390   25.7314   46.5711 H   0  0  0  0  0  0  0  0  0  0  0  0
   61.7375   27.1526   46.5711 H   0  0  0  0  0  0  0  0  0  0  0  0
   58.0323   26.5484   47.0640 H   0  0  0  0  0  0  0  0  0  0  0  0
   56.2925   27.8557   45.8489 H   0  0  0  0  0  0  0  0  0  0  0  0
   58.5565   33.7864   43.1507 H   0  0  0  0  0  0  0  0  0  0  0  0
   59.8907   35.0405   44.8419 H   0  0  0  0  0  0  0  0  0  0  0  0
   59.9725   33.8250   51.0297 H   0  0  0  0  0  0  0  0  0  0  0  0
   59.0265   31.9508   52.3755 H   0  0  0  0  0  0  0  0  0  0  0  0
   56.6170   28.9060   54.1500 H   0  0  0  0  0  0  0  0  0  0  0  0
   58.3230   28.3520   54.1630 H   0  0  0  0  0  0  0  0  0  0  0  0
   60.2645   29.1367   49.3275 H   0  0  0  0  0  0  0  0  0  0  0  0
   61.2280   31.0088   47.9909 H   0  0  0  0  0  0  0  0  0  0  0  0
   58.5014   32.3546   47.9388 H   0  0  0  0  0  0  0  0  0  0  0  0
   57.1851   31.0859   46.2452 H   0  0  0  0  0  0  0  0  0  0  0  0
   59.3900   30.0783   43.7992 H   0  0  0  0  0  0  0  0  0  0  0  0
   61.1332   28.7767   45.0186 H   0  0  0  0  0  0  0  0  0  0  0  0
  1  2  1  0
  2  3  2  0
  3  4  1  0
  4  5  2  0
  5  6  1  0
  6  7  2  0
  6  8  2  0
  6  9  1  0
  9 10  1  0
 10 11  2  0
 11 12  1  0
 12 13  2  0
 13 14  1  0
 14 15  1  0
 15 16  2  0
 15 17  2  0
 15 18  1  0
 18 19  2  0
 19 20  1  0
 20 21  2  0
 21 22  1  0
 22 23  1  0
 23 24  1  0
 23 25  2  0
 21 26  1  0
 26 27  2  0
 13 28  1  0
 28 29  2  0
  5 30  1  0
 30 31  2  0
 31  2  1  0
 29 10  1  0
 27 18  1  0
  1 32  1  0
  1 33  1  0
  1 34  1  0
  3 35  1  0
  4 36  1  0
 11 37  1  0
 12 38  1  0
 19 39  1  0
 20 40  1  0
 24 41  1  0
 24 42  1  0
 26 43  1  0
 27 44  1  0
 28 45  1  0
 29 46  1  0
 30 47  1  0
 31 48  1  0
M  CHG  3   9  -1  14  -1  22  -1
M  END
>  <UniqueID>  (35) 
30

>  <SMILES>  (35) 
Cc1ccc(S(=O)(=O)[N-]c2ccc([N-]S(=O)(=O)c3ccc([N-]C(N)=O)cc3)cc2)cc1

>  <Energy>  (35) 
58.917675082440965

>  <Genealogy>  (35) 
Cc1ccc(S(=O)(=O)[N-]c2ccc([N-]S(=O)(=O)c3ccc([N-]C(N)=O)cc3)cc2)cc1 (protonated)
Cc1ccc(S(=O)(=O)[N-]c2ccc([N-]S(=O)(=O)c3ccc([N-]C(N)=O)cc3)cc2)cc1 (3D coordinates assigned)
Cc1ccc(S(=O)(=O)[N-]c2ccc([N-]S(=O)(=O)c3ccc([N-]C(N)=O)cc3)cc2)cc1 (optimized conformer: 58.917675082440965 kcal/mol)

>  <smiles>  (35) 
Cc1ccc(S(=O)(=O)Nc2ccc(NS(=O)(=O)c3ccc(NC(N)=O)cc3)cc2)cc1

>  <score_type>  (35) 
oracle

>  <origin>  (35) 
adg

>  <m_score__min__energy>  (35) 
-12.84

>  <m_primary>  (35) 
energy

$$$$
35:0
     RDKit          3D

 45 47  0  0  0  0  0  0  0  0999 V2000
   59.2260   33.9140   51.6890 C   0  0  0  0  0  0  0  0  0  0  0  0
   59.4210   33.2860   50.3340 C   0  0  0  0  0  0  0  0  0  0  0  0
   60.2820   33.8970   49.4090 C   0  0  0  0  0  0  0  0  0  0  0  0
   60.4820   33.3390   48.1460 C   0  0  0  0  0  0  0  0  0  0  0  0
   59.8170   32.1630   47.7740 C   0  0  0  0  0  0  0  0  0  0  0  0
   60.0690   31.5590   46.4110 C   0  0  0  0  0  0  0  0  0  0  0  0
   58.8820   30.8520   45.9100 N   0  0  0  0  0  0  0  0  0  0  0  0
   57.8990   31.3920   45.1300 C   0  0  0  0  0  0  0  0  0  0  0  0
   57.9140   32.7880   44.5700 C   0  0  0  0  0  0  0  0  0  0  0  0
   57.5130   33.8170   45.6280 C   0  0  0  0  0  0  0  0  0  0  0  0
   58.6070   34.5860   45.9850 F   0  0  0  0  0  0  0  0  0  0  0  0
   57.0160   33.1850   46.7540 F   0  0  0  0  0  0  0  0  0  0  0  0
   56.5330   34.6450   45.1130 F   0  0  0  0  0  0  0  0  0  0  0  0
   56.8860   30.5300   44.8580 N   0  0  0  0  0  0  0  0  0  0  0  0
   57.2570   29.4220   45.5130 C   0  0  0  0  0  0  0  0  0  0  0  0
   56.5560   28.2660   45.5650 N   0  0  0  0  0  0  0  0  0  0  0  0
   57.0600   27.2250   46.2890 C   0  0  0  0  0  0  0  0  0  0  0  0
   56.3190   25.9550   46.3610 C   0  0  0  0  0  0  0  0  0  0  0  0
   56.9440   24.7650   46.8430 N   0  0  0  0  0  0  0  0  0  0  0  0
   55.1140   25.9150   45.9940 O   0  0  0  0  0  0  0  0  0  0  0  0
   58.2530   27.3670   46.9470 N   0  0  0  0  0  0  0  0  0  0  0  0
   58.9760   28.5260   46.9120 C   0  0  0  0  0  0  0  0  0  0  0  0
   60.2750   28.5710   47.6530 C   0  0  0  0  0  0  0  0  0  0  0  0
   58.4480   29.5910   46.1540 C   0  0  0  0  0  0  0  0  0  0  0  0
   58.9660   31.5370   48.7000 C   0  0  0  0  0  0  0  0  0  0  0  0
   58.7560   32.0900   49.9750 C   0  0  0  0  0  0  0  0  0  0  0  0
   57.8280   31.3940   50.9380 C   0  0  0  0  0  0  0  0  0  0  0  0
   59.4552   33.1758   52.4717 H   0  0  0  0  0  0  0  0  0  0  0  0
   59.8979   34.7788   51.7925 H   0  0  0  0  0  0  0  0  0  0  0  0
   58.1824   34.2461   51.7925 H   0  0  0  0  0  0  0  0  0  0  0  0
   60.8045   34.8255   49.6828 H   0  0  0  0  0  0  0  0  0  0  0  0
   61.1672   33.8261   47.4366 H   0  0  0  0  0  0  0  0  0  0  0  0
   60.3311   32.3622   45.7065 H   0  0  0  0  0  0  0  0  0  0  0  0
   60.8916   30.8342   46.5002 H   0  0  0  0  0  0  0  0  0  0  0  0
   58.9280   33.0192   44.2118 H   0  0  0  0  0  0  0  0  0  0  0  0
   57.1882   32.8383   43.7450 H   0  0  0  0  0  0  0  0  0  0  0  0
   56.4050   23.8720   46.8870 H   0  0  0  0  0  0  0  0  0  0  0  0
   57.9410   24.7620   47.1550 H   0  0  0  0  0  0  0  0  0  0  0  0
   60.0800   28.5642   48.7356 H   0  0  0  0  0  0  0  0  0  0  0  0
   60.8811   27.6933   47.3841 H   0  0  0  0  0  0  0  0  0  0  0  0
   60.8189   29.4885   47.3841 H   0  0  0  0  0  0  0  0  0  0  0  0
   58.4573   30.6017   48.4236 H   0  0  0  0  0  0  0  0  0  0  0  0
   58.1323   31.6222   51.9702 H   0  0  0  0  0  0  0  0  0  0  0  0
   56.7984   31.7445   50.7732 H   0  0  0  0  0  0  0  0  0  0  0  0
   57.8762   30.3075   50.7732 H   0  0  0  0  0  0  0  0  0  0  0  0
  1  2  1  0
  2  3  2  0
  3  4  1  0
  4  5  2  0
  5  6  1  0
  6  7  1  0
  7  8  1  0
  8  9  1  0
  9 10  1  0
 10 11  1  0
 10 12  1  0
 10 13  1  0
  8 14  2  0
 14 15  1  0
 15 16  2  0
 16 17  1  0
 17 18  1  0
 18 19  1  0
 18 20  2  0
 17 21  2  0
 21 22  1  0
 22 23  1  0
 22 24  2  0
  5 25  1  0
 25 26  2  0
 26 27  1  0
 26  2  1  0
 24  7  1  0
 24 15  1  0
  1 28  1  0
  1 29  1  0
  1 30  1  0
  3 31  1  0
  4 32  1  0
  6 33  1  0
  6 34  1  0
  9 35  1  0
  9 36  1  0
 19 37  1  0
 19 38  1  0
 23 39  1  0
 23 40  1  0
 23 41  1  0
 25 42  1  0
 27 43  1  0
 27 44  1  0
 27 45  1  0
M  END
>  <UniqueID>  (36) 
31

>  <SMILES>  (36) 
Cc1ccc(Cn2c(CC(F)(F)F)nc3nc(C(N)=O)nc(C)c32)cc1C

>  <Energy>  (36) 
84.36043256104116

>  <Genealogy>  (36) 
Cc1ccc(Cn2c(CC(F)(F)F)nc3nc(C(N)=O)nc(C)c32)cc1C (3D coordinates assigned)
Cc1ccc(Cn2c(CC(F)(F)F)nc3nc(C(N)=O)nc(C)c32)cc1C (optimized conformer: 84.36043256104116 kcal/mol)

>  <smiles>  (36) 
Cc1ccc(Cn2c(CC(F)(F)F)nc3nc(C(N)=O)nc(C)c32)cc1C

>  <score_type>  (36) 
oracle

>  <origin>  (36) 
adg

>  <m_score__min__energy>  (36) 
-8.1400000000000006

>  <m_primary>  (36) 
energy

$$$$
36:0
     RDKit          3D

 42 43  0  0  0  0  0  0  0  0999 V2000
   58.0156   33.3420   42.9349 H   0  0  0  0  0  0  0  0  0  0  0  0
   57.7900   32.3950   43.4470 C   0  0  0  0  0  0  0  0  0  0  0  0
   58.0750   32.2520   44.8070 C   0  0  0  0  0  0  0  0  0  0  0  0
   58.5259   33.0863   45.3643 H   0  0  0  0  0  0  0  0  0  0  0  0
   57.7880   31.0500   45.4610 C   0  0  0  0  0  0  0  0  0  0  0  0
   58.0276   30.9379   46.5287 H   0  0  0  0  0  0  0  0  0  0  0  0
   57.1930   29.9800   44.7600 C   0  0  0  0  0  0  0  0  0  0  0  0
   56.8700   28.6540   45.4210 C   0  0  0  0  0  0  0  0  0  0  0  0
   55.7914   28.4674   45.3128 H   0  0  0  0  0  0  0  0  0  0  0  0
   57.1822   28.7384   46.4724 H   0  0  0  0  0  0  0  0  0  0  0  0
   57.6200   27.4720   44.8340 C   0  0  0  0  0  0  0  0  0  0  0  0
   58.6540   27.6470   44.0580 N   0  0  0  0  0  0  0  0  0  0  0  0
   59.9760   28.1190   44.4660 C   0  0  0  0  0  0  0  0  0  0  0  0
   60.2862   28.9428   43.8063 H   0  0  0  0  0  0  0  0  0  0  0  0
   60.6905   27.2859   44.3923 H   0  0  0  0  0  0  0  0  0  0  0  0
   59.9420   28.6200   45.9210 C   0  0  0  0  0  0  0  0  0  0  0  0
   58.9332   29.0083   46.1246 H   0  0  0  0  0  0  0  0  0  0  0  0
   60.7289   29.3845   46.0012 H   0  0  0  0  0  0  0  0  0  0  0  0
   60.2550   27.5950   46.9440 N   0  0  0  0  0  0  0  0  0  0  0  0
   59.1400   27.3230   47.8640 C   0  0  0  0  0  0  0  0  0  0  0  0
   59.4922   27.4089   48.9025 H   0  0  0  0  0  0  0  0  0  0  0  0
   58.3341   28.0509   47.6887 H   0  0  0  0  0  0  0  0  0  0  0  0
   58.7598   26.3058   47.6887 H   0  0  0  0  0  0  0  0  0  0  0  0
   60.7920   26.3480   46.3730 C   0  0  0  0  0  0  0  0  0  0  0  0
   61.0847   25.6683   47.1868 H   0  0  0  0  0  0  0  0  0  0  0  0
   60.0213   25.8670   45.7529 H   0  0  0  0  0  0  0  0  0  0  0  0
   61.6711   26.5774   45.7529 H   0  0  0  0  0  0  0  0  0  0  0  0
   57.2350   26.0750   45.1790 C   0  0  0  0  0  0  0  0  0  0  0  0
   58.1490   25.0350   44.9180 C   0  0  0  0  0  0  0  0  0  0  0  0
   59.1234   25.2694   44.4646 H   0  0  0  0  0  0  0  0  0  0  0  0
   57.8330   23.7090   45.2280 C   0  0  0  0  0  0  0  0  0  0  0  0
   59.0940   22.3180   44.8750 Br  0  0  0  0  0  0  0  0  0  0  0  0
   56.5970   23.4010   45.7990 C   0  0  0  0  0  0  0  0  0  0  0  0
   56.3511   22.3583   46.0486 H   0  0  0  0  0  0  0  0  0  0  0  0
   55.6740   24.4150   46.0530 C   0  0  0  0  0  0  0  0  0  0  0  0
   54.7005   24.1677   46.5015 H   0  0  0  0  0  0  0  0  0  0  0  0
   55.9780   25.7460   45.7410 C   0  0  0  0  0  0  0  0  0  0  0  0
   55.0110   26.7150   45.9750 O   0  0  0  0  0  0  0  0  0  0  0  0
   56.9270   30.1340   43.3870 C   0  0  0  0  0  0  0  0  0  0  0  0
   56.4856   29.3010   42.8202 H   0  0  0  0  0  0  0  0  0  0  0  0
   57.2190   31.3370   42.7370 C   0  0  0  0  0  0  0  0  0  0  0  0
   56.9987   31.4500   41.6652 H   0  0  0  0  0  0  0  0  0  0  0  0
  1  2  1  0
  2  3  2  0
  3  4  1  0
  3  5  1  0
  5  6  1  0
  5  7  2  0
  7  8  1  0
  8  9  1  0
  8 10  1  0
  8 11  1  0
 11 12  2  0
 12 13  1  0
 13 14  1  0
 13 15  1  0
 13 16  1  0
 16 17  1  0
 16 18  1  0
 16 19  1  0
 19 20  1  0
 20 21  1  0
 20 22  1  0
 20 23  1  0
 19 24  1  0
 24 25  1  0
 24 26  1  0
 24 27  1  0
 11 28  1  0
 28 29  2  0
 29 30  1  0
 29 31  1  0
 31 32  1  0
 31 33  2  0
 33 34  1  0
 33 35  1  0
 35 36  1  0
 35 37  2  0
 37 38  1  0
  7 39  1  0
 39 40  1  0
 39 41  2  0
 41 42  1  0
 41  2  1  0
 37 28  1  0
M  CHG  1  38  -1
M  END
>  <UniqueID>  (37) 
32

>  <SMILES>  (37) 
CN(C)CC/N=C(\Cc1ccccc1)c1cc(Br)ccc1[O-]

>  <Energy>  (37) 
49.31055517572437

>  <Genealogy>  (37) 
CN(C)CCN=C(Cc1ccccc1)c1cc(Br)ccc1[O-] (protonated)
CN(C)CC/N=C(\Cc1ccccc1)c1cc(Br)ccc1[O-] (cis-trans isomerization)
CN(C)CC/N=C(\Cc1ccccc1)c1cc(Br)ccc1[O-] (3D coordinates assigned)
CN(C)CC/N=C(\Cc1ccccc1)c1cc(Br)ccc1[O-] (optimized conformer: 49.31055517572437 kcal/mol)

>  <smiles>  (37) 
CN(C)CCN=C(Cc1ccccc1)c1cc(Br)ccc1O

>  <score_type>  (37) 
oracle

>  <origin>  (37) 
adg

>  <m_score__min__energy>  (37) 
-10.73

>  <m_primary>  (37) 
energy

$$$$
37:0
     RDKit          3D

 60 63  0  0  1  0  0  0  0  0999 V2000
   58.4850   34.4760   52.3760 C   0  0  0  0  0  0  0  0  0  0  0  0
   58.5790   33.2350   52.8280 C   0  0  0  0  0  0  0  0  0  0  0  0
   58.8920   32.9660   54.2790 C   0  0  0  0  0  0  0  0  0  0  0  0
   58.3920   32.1020   51.9890 N   0  0  0  0  0  0  0  0  0  0  0  0
   57.4390   31.1330   52.0940 C   0  0  0  0  0  0  0  0  0  0  0  0
   57.5870   30.2300   51.1170 N   0  0  0  0  0  0  0  0  0  0  0  0
   58.6190   30.5830   50.3710 C   0  0  0  0  0  0  0  0  0  0  0  0
   59.1590   29.9730   49.2560 C   0  0  0  0  0  0  0  0  0  0  0  0
   58.6510   28.8660   48.7740 N   0  0  0  0  0  0  0  0  0  0  0  0
   59.5990   27.9060   48.2440 C   0  0  0  0  0  0  0  0  0  0  0  0
   58.9830   27.3420   47.0070 C   0  0  0  0  0  0  0  0  0  0  0  0
   59.0130   25.9760   46.7720 C   0  0  0  0  0  0  0  0  0  0  0  0
   58.4500   25.4330   45.6340 C   0  0  0  0  0  0  0  0  0  0  0  0
   57.8490   26.2840   44.7210 C   0  0  0  0  0  0  0  0  0  0  0  0
   57.7960   27.6560   44.9160 C   0  0  0  0  0  0  0  0  0  0  0  0
   57.1620   28.4450   43.9260 N   0  0  0  0  0  0  0  0  0  0  0  0
   56.7020   30.0870   44.1490 S   0  0  0  0  0  0  0  0  0  0  0  0
   57.0030   31.0970   42.7360 C   0  0  0  0  0  0  0  0  0  0  0  0
   57.3820   30.6340   45.3800 O   0  0  0  0  0  0  0  0  0  0  0  0
   55.2140   30.1940   44.4430 O   0  0  0  0  0  0  0  0  0  0  0  0
   58.3690   28.1550   46.0620 C   0  0  0  0  0  0  0  0  0  0  0  0
   60.2180   30.5520   48.6860 N   0  0  0  0  0  0  0  0  0  0  0  0
   60.7370   31.7070   49.2010 C   0  0  0  0  0  0  0  0  0  0  0  0
   61.8350   32.2160   48.5280 O   0  0  0  0  0  0  0  0  0  0  0  0
   61.7870   33.3580   47.7120 C   0  0  0  0  0  0  0  0  0  0  0  0
   60.6840   34.3130   48.0480 C   0  0  0  0  0  0  0  0  0  0  0  0
   59.5610   34.1700   47.0600 C   0  0  0  0  0  0  0  0  0  0  0  0
   59.6390   34.6900   45.8040 C   0  0  0  0  0  0  0  0  0  0  0  0
   58.5940   34.5550   44.8900 C   0  0  0  0  0  0  0  0  0  0  0  0
   57.4460   33.8890   45.2270 C   0  0  0  0  0  0  0  0  0  0  0  0
   57.3590   33.3570   46.5000 C   0  0  0  0  0  0  0  0  0  0  0  0
   58.3990   33.4960   47.4000 C   0  0  0  0  0  0  0  0  0  0  0  0
   60.1930   32.2830   50.2890 N   0  0  0  0  0  0  0  0  0  0  0  0
   59.1180   31.7460   50.9130 C   0  0  0  0  0  0  0  0  0  0  0  0
   58.2563   34.6593   51.3158 H   0  0  0  0  0  0  0  0  0  0  0  0
   58.6357   35.3236   53.0607 H   0  0  0  0  0  0  0  0  0  0  0  0
   58.2116   33.5508   54.9154 H   0  0  0  0  0  0  0  0  0  0  0  0
   58.7609   31.8944   54.4898 H   0  0  0  0  0  0  0  0  0  0  0  0
   59.9317   33.2567   54.4898 H   0  0  0  0  0  0  0  0  0  0  0  0
   56.6602   31.0981   52.8701 H   0  0  0  0  0  0  0  0  0  0  0  0
   60.5495   28.4041   48.0023 H   0  0  0  0  0  0  0  0  0  0  0  0
   59.8164   27.1150   48.9768 H   0  0  0  0  0  0  0  0  0  0  0  0
   59.4942   25.3125   47.5056 H   0  0  0  0  0  0  0  0  0  0  0  0
   58.4782   24.3478   45.4563 H   0  0  0  0  0  0  0  0  0  0  0  0
   57.3993   25.8578   43.8121 H   0  0  0  0  0  0  0  0  0  0  0  0
   56.9730   27.9750   43.0090 H   0  0  0  0  0  0  0  0  0  0  0  0
   57.3030   32.1038   43.0621 H   0  0  0  0  0  0  0  0  0  0  0  0
   57.8076   30.6522   42.1321 H   0  0  0  0  0  0  0  0  0  0  0  0
   56.0862   31.1653   42.1321 H   0  0  0  0  0  0  0  0  0  0  0  0
   58.3402   29.2405   46.2377 H   0  0  0  0  0  0  0  0  0  0  0  0
   60.6350   30.1060   47.8500 H   0  0  0  0  0  0  0  0  0  0  0  0
   62.7446   33.8906   47.8091 H   0  0  0  0  0  0  0  0  0  0  0  0
   61.5946   33.0042   46.6884 H   0  0  0  0  0  0  0  0  0  0  0  0
   60.3094   34.0955   49.0591 H   0  0  0  0  0  0  0  0  0  0  0  0
   61.0721   35.3414   48.0068 H   0  0  0  0  0  0  0  0  0  0  0  0
   60.5487   35.2300   45.5026 H   0  0  0  0  0  0  0  0  0  0  0  0
   58.6935   34.9896   43.8844 H   0  0  0  0  0  0  0  0  0  0  0  0
   56.6202   33.7809   44.5084 H   0  0  0  0  0  0  0  0  0  0  0  0
   56.4499   32.8157   46.8008 H   0  0  0  0  0  0  0  0  0  0  0  0
   58.3022   33.0628   48.4065 H   0  0  0  0  0  0  0  0  0  0  0  0
  1  2  2  0
  2  3  1  0
  2  4  1  0
  4  5  1  0
  5  6  2  0
  6  7  1  0
  7  8  1  0
  8  9  2  0
  9 10  1  0
 10 11  1  0
 11 12  2  0
 12 13  1  0
 13 14  2  0
 14 15  1  0
 15 16  1  0
 16 17  1  0
 17 18  1  0
 17 19  2  0
 17 20  2  0
 15 21  2  0
  8 22  1  0
 22 23  1  0
 23 24  1  0
 24 25  1  0
 25 26  1  0
 26 27  1  0
 27 28  2  0
 28 29  1  0
 29 30  2  0
 30 31  1  0
 31 32  2  0
 23 33  2  0
 33 34  1  0
 34  4  1  0
 34  7  2  0
 21 11  1  0
 32 27  1  0
  1 35  1  0
  1 36  1  0
  3 37  1  0
  3 38  1  0
  3 39  1  0
  5 40  1  0
 10 41  1  0
 10 42  1  0
 12 43  1  0
 13 44  1  0
 14 45  1  0
 16 46  1  0
 18 47  1  0
 18 48  1  0
 18 49  1  0
 21 50  1  0
 22 51  1  0
 25 52  1  0
 25 53  1  0
 26 54  1  0
 26 55  1  0
 28 56  1  0
 29 57  1  0
 30 58  1  0
 31 59  1  0
 32 60  1  0
M  END
>  <smiles>  (38) 
C=C(C)n1cnc2c(=NCc3cccc(NS(C)(=O)=O)c3)[nH]c(OCCc3ccccc3)nc21

>  <score_type>  (38) 
oracle

>  <origin>  (38) 
adg

>  <m_score__min__energy>  (38) 
-9.7100000000000009

>  <m_primary>  (38) 
energy

$$$$
38:0
     RDKit          3D

 29 30  0  0  0  0  0  0  0  0999 V2000
   63.8160   32.9330   47.9330 C   0  0  0  0  0  0  0  0  0  0  0  0
   62.3800   33.1730   47.5710 C   0  0  0  0  0  0  0  0  0  0  0  0
   62.0540   33.8390   46.3810 C   0  0  0  0  0  0  0  0  0  0  0  0
   60.7190   34.0960   46.0610 C   0  0  0  0  0  0  0  0  0  0  0  0
   59.6930   33.6960   46.9260 C   0  0  0  0  0  0  0  0  0  0  0  0
   57.9870   34.0400   46.4660 S   0  0  0  0  0  0  0  0  0  0  0  0
   57.8180   32.5060   45.5490 C   0  0  0  0  0  0  0  0  0  0  0  0
   58.1170   31.2860   46.1660 C   0  0  0  0  0  0  0  0  0  0  0  0
   57.9820   30.0890   45.4560 C   0  0  0  0  0  0  0  0  0  0  0  0
   57.5510   30.1050   44.1210 C   0  0  0  0  0  0  0  0  0  0  0  0
   57.4120   28.8820   43.3940 N   0  0  0  0  0  0  0  0  0  0  0  0
   57.2590   31.3310   43.5040 C   0  0  0  0  0  0  0  0  0  0  0  0
   57.3950   32.5270   44.2150 C   0  0  0  0  0  0  0  0  0  0  0  0
   60.0150   33.0500   48.1360 C   0  0  0  0  0  0  0  0  0  0  0  0
   58.9880   32.6550   49.0690 C   0  0  0  0  0  0  0  0  0  0  0  0
   58.1640   32.3390   49.8170 N   0  0  0  0  0  0  0  0  0  0  0  0
   61.3570   32.7960   48.4530 C   0  0  0  0  0  0  0  0  0  0  0  0
   63.9201   32.9156   49.0279 H   0  0  0  0  0  0  0  0  0  0  0  0
   64.1423   31.9679   47.5182 H   0  0  0  0  0  0  0  0  0  0  0  0
   64.4384   33.7396   47.5182 H   0  0  0  0  0  0  0  0  0  0  0  0
   62.8530   34.1604   45.6966 H   0  0  0  0  0  0  0  0  0  0  0  0
   60.4720   34.6159   45.1236 H   0  0  0  0  0  0  0  0  0  0  0  0
   58.4588   31.2687   47.2114 H   0  0  0  0  0  0  0  0  0  0  0  0
   58.2144   29.1318   45.9457 H   0  0  0  0  0  0  0  0  0  0  0  0
   56.6560   28.2020   43.6320 H   0  0  0  0  0  0  0  0  0  0  0  0
   58.0620   28.6490   42.6110 H   0  0  0  0  0  0  0  0  0  0  0  0
   56.9219   31.3511   42.4571 H   0  0  0  0  0  0  0  0  0  0  0  0
   57.1693   33.4858   43.7254 H   0  0  0  0  0  0  0  0  0  0  0  0
   61.6092   32.2974   49.4005 H   0  0  0  0  0  0  0  0  0  0  0  0
  1  2  1  0
  2  3  2  0
  3  4  1  0
  4  5  2  0
  5  6  1  0
  6  7  1  0
  7  8  2  0
  8  9  1  0
  9 10  2  0
 10 11  1  0
 10 12  1  0
 12 13  2  0
  5 14  1  0
 14 15  1  0
 15 16  3  0
 14 17  2  0
 17  2  1  0
 13  7  1  0
  1 18  1  0
  1 19  1  0
  1 20  1  0
  3 21  1  0
  4 22  1  0
  8 23  1  0
  9 24  1  0
 11 25  1  0
 11 26  1  0
 12 27  1  0
 13 28  1  0
 17 29  1  0
M  END
>  <UniqueID>  (39) 
33

>  <SMILES>  (39) 
Cc1ccc(Sc2ccc(N)cc2)c(C#N)c1

>  <Energy>  (39) 
23.304748919184398

>  <Genealogy>  (39) 
Cc1ccc(Sc2ccc(N)cc2)c(C#N)c1 (3D coordinates assigned)
Cc1ccc(Sc2ccc(N)cc2)c(C#N)c1 (optimized conformer: 23.304748919184398 kcal/mol)

>  <smiles>  (39) 
Cc1ccc(Sc2ccc(N)cc2)c(C#N)c1

>  <score_type>  (39) 
oracle

>  <origin>  (39) 
adg

>  <m_score__min__energy>  (39) 
-6.3499999999999996

>  <m_primary>  (39) 
energy

$$$$
39:0
     RDKit          3D

 53 56  0  0  0  0  0  0  0  0999 V2000
   57.8130   29.4820   52.5780 O   0  0  0  0  0  0  0  0  0  0  0  0
   57.6860   30.2340   51.5710 C   0  0  0  0  0  0  0  0  0  0  0  0
   56.4770   30.9970   51.4030 N   0  0  0  0  0  0  0  0  0  0  0  0
   55.2160   30.6370   51.9940 C   0  0  0  0  0  0  0  0  0  0  0  0
   55.1420   30.0650   53.2790 C   0  0  0  0  0  0  0  0  0  0  0  0
   53.9040   29.7040   53.8210 C   0  0  0  0  0  0  0  0  0  0  0  0
   52.7310   29.8970   53.0830 C   0  0  0  0  0  0  0  0  0  0  0  0
   52.7970   30.4450   51.8000 C   0  0  0  0  0  0  0  0  0  0  0  0
   54.0330   30.8070   51.2540 C   0  0  0  0  0  0  0  0  0  0  0  0
   58.8080   30.3600   50.6070 C   0  0  0  0  0  0  0  0  0  0  0  0
   59.8040   31.3250   50.8010 C   0  0  0  0  0  0  0  0  0  0  0  0
   60.8720   31.4330   49.9000 C   0  0  0  0  0  0  0  0  0  0  0  0
   61.9190   32.3980   50.0750 N   0  0  0  0  0  0  0  0  0  0  0  0
   62.3120   33.6740   48.9650 S   0  0  0  0  0  0  0  0  0  0  0  0
   63.5580   33.3160   48.2050 O   0  0  0  0  0  0  0  0  0  0  0  0
   62.5230   34.9480   49.7350 O   0  0  0  0  0  0  0  0  0  0  0  0
   60.9910   33.9000   47.8190 C   0  0  0  0  0  0  0  0  0  0  0  0
   59.6670   34.0040   48.2750 C   0  0  0  0  0  0  0  0  0  0  0  0
   58.6210   34.1880   47.3640 C   0  0  0  0  0  0  0  0  0  0  0  0
   58.8900   34.2610   45.9940 C   0  0  0  0  0  0  0  0  0  0  0  0
   60.2060   34.1450   45.5330 C   0  0  0  0  0  0  0  0  0  0  0  0
   61.2540   33.9660   46.4410 C   0  0  0  0  0  0  0  0  0  0  0  0
   62.5240   33.8530   45.9730 F   0  0  0  0  0  0  0  0  0  0  0  0
   60.9200   30.5670   48.7970 C   0  0  0  0  0  0  0  0  0  0  0  0
   61.8780   30.6640   47.9820 O   0  0  0  0  0  0  0  0  0  0  0  0
   59.9420   29.6220   48.6080 N   0  0  0  0  0  0  0  0  0  0  0  0
   60.0080   28.6850   47.4730 C   0  0  0  0  0  0  0  0  0  0  0  0
   58.7370   28.7500   46.6640 C   0  0  0  0  0  0  0  0  0  0  0  0
   58.3340   29.9620   46.0790 C   0  0  0  0  0  0  0  0  0  0  0  0
   57.1370   30.0310   45.3570 C   0  0  0  0  0  0  0  0  0  0  0  0
   56.3320   28.8950   45.2220 C   0  0  0  0  0  0  0  0  0  0  0  0
   55.1430   28.9660   44.5100 O   0  0  0  0  0  0  0  0  0  0  0  0
   56.7240   27.6880   45.8090 C   0  0  0  0  0  0  0  0  0  0  0  0
   57.9200   27.6150   46.5300 C   0  0  0  0  0  0  0  0  0  0  0  0
   58.9120   29.5020   49.5010 C   0  0  0  0  0  0  0  0  0  0  0  0
   56.5420   31.9170   50.9140 H   0  0  0  0  0  0  0  0  0  0  0  0
   56.0622   29.9014   53.8591 H   0  0  0  0  0  0  0  0  0  0  0  0
   53.8525   29.2675   54.8294 H   0  0  0  0  0  0  0  0  0  0  0  0
   51.7578   29.6174   53.5129 H   0  0  0  0  0  0  0  0  0  0  0  0
   51.8754   30.5922   51.2178 H   0  0  0  0  0  0  0  0  0  0  0  0
   54.0795   31.2276   50.2386 H   0  0  0  0  0  0  0  0  0  0  0  0
   59.7478   32.0024   51.6659 H   0  0  0  0  0  0  0  0  0  0  0  0
   59.4514   33.9406   49.3518 H   0  0  0  0  0  0  0  0  0  0  0  0
   57.5860   34.2753   47.7261 H   0  0  0  0  0  0  0  0  0  0  0  0
   58.0675   34.4096   45.2789 H   0  0  0  0  0  0  0  0  0  0  0  0
   60.4164   34.1947   44.4545 H   0  0  0  0  0  0  0  0  0  0  0  0
   60.8604   28.9524   46.8312 H   0  0  0  0  0  0  0  0  0  0  0  0
   60.1329   27.6631   47.8604 H   0  0  0  0  0  0  0  0  0  0  0  0
   58.9609   30.8592   46.1887 H   0  0  0  0  0  0  0  0  0  0  0  0
   56.8287   30.9804   44.8948 H   0  0  0  0  0  0  0  0  0  0  0  0
   56.0908   26.7947   45.7035 H   0  0  0  0  0  0  0  0  0  0  0  0
   58.2224   26.6647   46.9943 H   0  0  0  0  0  0  0  0  0  0  0  0
   58.1531   28.7203   49.3496 H   0  0  0  0  0  0  0  0  0  0  0  0
  1  2  2  0
  2  3  1  0
  3  4  1  0
  4  5  2  0
  5  6  1  0
  6  7  2  0
  7  8  1  0
  8  9  2  0
  2 10  1  0
 10 11  1  0
 11 12  2  0
 12 13  1  0
 13 14  1  0
 14 15  2  0
 14 16  2  0
 14 17  1  0
 17 18  2  0
 18 19  1  0
 19 20  2  0
 20 21  1  0
 21 22  2  0
 22 23  1  0
 12 24  1  0
 24 25  2  0
 24 26  1  0
 26 27  1  0
 27 28  1  0
 28 29  2  0
 29 30  1  0
 30 31  2  0
 31 32  1  0
 31 33  1  0
 33 34  2  0
 26 35  1  0
  9  4  1  0
 35 10  2  0
 22 17  1  0
 34 28  1  0
  3 36  1  0
  5 37  1  0
  6 38  1  0
  7 39  1  0
  8 40  1  0
  9 41  1  0
 11 42  1  0
 18 43  1  0
 19 44  1  0
 20 45  1  0
 21 46  1  0
 27 47  1  0
 27 48  1  0
 29 49  1  0
 30 50  1  0
 33 51  1  0
 34 52  1  0
 35 53  1  0
M  CHG  2  13  -1  32  -1
M  END
>  <UniqueID>  (40) 
34

>  <SMILES>  (40) 
O=C(Nc1ccccc1)c1cc([N-]S(=O)(=O)c2ccccc2F)c(=O)n(Cc2ccc([O-])cc2)c1

>  <Energy>  (40) 
70.17268060406604

>  <Genealogy>  (40) 
O=C(Nc1ccccc1)c1cc([N-]S(=O)(=O)c2ccccc2F)c(=O)n(Cc2ccc([O-])cc2)c1 (protonated)
O=C(Nc1ccccc1)c1cc([N-]S(=O)(=O)c2ccccc2F)c(=O)n(Cc2ccc([O-])cc2)c1 (3D coordinates assigned)
O=C(Nc1ccccc1)c1cc([N-]S(=O)(=O)c2ccccc2F)c(=O)n(Cc2ccc([O-])cc2)c1 (optimized conformer: 70.17268060406604 kcal/mol)

>  <smiles>  (40) 
O=C(Nc1ccccc1)c1cc(NS(=O)(=O)c2ccccc2F)c(=O)n(Cc2ccc(O)cc2)c1

>  <score_type>  (40) 
oracle

>  <origin>  (40) 
adg

>  <m_score__min__energy>  (40) 
-12.81

>  <m_primary>  (40) 
energy

$$$$
40:0
     RDKit          3D

 64 66  0  0  1  0  0  0  0  0999 V2000
   58.8980   26.4790   45.2420 C   0  0  0  0  0  0  0  0  0  0  0  0
   59.1180   27.0060   46.6290 C   0  0  0  0  0  0  0  0  0  0  0  0
   60.4070   26.4360   47.1370 C   0  0  0  0  0  0  0  0  0  0  0  0
   59.0910   28.7600   46.6500 S   0  0  0  0  0  0  0  0  0  0  0  0
   58.7560   29.2410   48.0720 O   0  0  0  0  0  0  0  0  0  0  0  0
   60.4900   29.3030   46.4230 O   0  0  0  0  0  0  0  0  0  0  0  0
   58.0030   29.5140   45.5540 C   0  0  0  0  0  0  0  0  0  0  0  0
   56.8280   28.8090   45.2310 C   0  0  0  0  0  0  0  0  0  0  0  0
   55.8740   29.3370   44.3930 C   0  0  0  0  0  0  0  0  0  0  0  0
   56.0100   30.5840   43.8210 C   0  0  0  0  0  0  0  0  0  0  0  0
   57.1560   31.2880   44.1270 C   0  0  0  0  0  0  0  0  0  0  0  0
   59.1700   32.1210   50.7540 C   0  0  0  0  0  0  0  0  0  0  0  0
   59.2550   31.5490   45.2290 N   0  0  0  0  0  0  0  0  0  0  0  0
   59.4720   32.2820   46.2470 C   0  0  0  0  0  0  0  0  0  0  0  0
   59.6600   31.7250   47.4550 N   0  0  0  0  0  0  0  0  0  0  0  0
   59.8880   32.5160   48.5190 C   0  0  0  0  0  0  0  0  0  0  0  0
   60.0630   31.9430   49.6580 N   0  0  0  0  0  0  0  0  0  0  0  0
   58.1280   30.7450   44.9840 C   0  0  0  0  0  0  0  0  0  0  0  0
   58.0700   31.3150   50.9590 C   0  0  0  0  0  0  0  0  0  0  0  0
   57.2120   31.4990   52.0270 C   0  0  0  0  0  0  0  0  0  0  0  0
   56.0580   30.6370   52.2240 C   0  0  0  0  0  0  0  0  0  0  0  0
   54.7460   31.1980   52.2560 N   0  0  0  0  0  0  0  0  0  0  0  0
   56.1910   29.3970   52.3680 O   0  0  0  0  0  0  0  0  0  0  0  0
   57.4520   32.5190   52.9250 C   0  0  0  0  0  0  0  0  0  0  0  0
   58.5500   33.3520   52.7530 C   0  0  0  0  0  0  0  0  0  0  0  0
   59.3790   33.1350   51.6770 C   0  0  0  0  0  0  0  0  0  0  0  0
   60.4880   33.9490   51.4720 O   0  0  0  0  0  0  0  0  0  0  0  0
   61.8150   33.4440   51.4780 C   0  0  0  0  0  0  0  0  0  0  0  0
   62.4190   33.7300   50.1670 C   0  0  0  0  0  0  0  0  0  0  0  0
   62.2260   34.8770   49.6730 O   0  0  0  0  0  0  0  0  0  0  0  0
   63.1990   32.7800   49.4510 N   0  0  0  0  0  0  0  0  0  0  0  0
   63.7550   33.1520   48.1660 C   0  0  0  0  0  0  0  0  0  0  0  0
   63.4410   31.4660   49.9780 C   0  0  0  0  0  0  0  0  0  0  0  0
   59.9390   33.8600   48.4400 N   0  0  0  0  0  0  0  0  0  0  0  0
   59.7470   34.4040   47.2150 C   0  0  0  0  0  0  0  0  0  0  0  0
   59.5100   33.6450   46.0900 C   0  0  0  0  0  0  0  0  0  0  0  0
   59.2800   34.4620   44.5710 Cl  0  0  0  0  0  0  0  0  0  0  0  0
   58.4748   25.4652   45.2978 H   0  0  0  0  0  0  0  0  0  0  0  0
   58.2001   27.1387   44.7055 H   0  0  0  0  0  0  0  0  0  0  0  0
   59.8578   26.4467   44.7055 H   0  0  0  0  0  0  0  0  0  0  0  0
   58.3031   26.6933   47.2984 H   0  0  0  0  0  0  0  0  0  0  0  0
   60.4009   26.4387   48.2370 H   0  0  0  0  0  0  0  0  0  0  0  0
   60.5201   25.4040   46.7735 H   0  0  0  0  0  0  0  0  0  0  0  0
   61.2465   27.0468   46.7735 H   0  0  0  0  0  0  0  0  0  0  0  0
   56.6687   27.8089   45.6605 H   0  0  0  0  0  0  0  0  0  0  0  0
   54.9734   28.7453   44.1720 H   0  0  0  0  0  0  0  0  0  0  0  0
   55.2410   30.9979   43.1522 H   0  0  0  0  0  0  0  0  0  0  0  0
   57.3109   32.2875   43.6945 H   0  0  0  0  0  0  0  0  0  0  0  0
   59.6260   30.6960   47.5500 H   0  0  0  0  0  0  0  0  0  0  0  0
   57.8688   30.4989   50.2494 H   0  0  0  0  0  0  0  0  0  0  0  0
   54.1720   31.1970   53.1490 H   0  0  0  0  0  0  0  0  0  0  0  0
   54.3650   31.6140   51.3670 H   0  0  0  0  0  0  0  0  0  0  0  0
   56.7736   32.6723   53.7772 H   0  0  0  0  0  0  0  0  0  0  0  0
   58.7524   34.1681   53.4623 H   0  0  0  0  0  0  0  0  0  0  0  0
   62.3972   33.9349   52.2718 H   0  0  0  0  0  0  0  0  0  0  0  0
   61.8095   32.3603   51.6667 H   0  0  0  0  0  0  0  0  0  0  0  0
   64.6603   33.7577   48.3197 H   0  0  0  0  0  0  0  0  0  0  0  0
   64.0129   32.2439   47.6013 H   0  0  0  0  0  0  0  0  0  0  0  0
   63.0140   33.7369   47.6013 H   0  0  0  0  0  0  0  0  0  0  0  0
   63.4339   31.5048   51.0773 H   0  0  0  0  0  0  0  0  0  0  0  0
   62.6540   30.7808   49.6302 H   0  0  0  0  0  0  0  0  0  0  0  0
   64.4205   31.1061   49.6302 H   0  0  0  0  0  0  0  0  0  0  0  0
   60.1190   34.4350   49.2950 H   0  0  0  0  0  0  0  0  0  0  0  0
   59.7818   35.4988   47.1138 H   0  0  0  0  0  0  0  0  0  0  0  0
  1  2  1  0
  2  3  1  0
  2  4  1  0
  4  5  2  0
  4  6  2  0
  4  7  1  0
  7  8  2  0
  8  9  1  0
  9 10  2  0
 10 11  1  0
 11 12  2  0
 12 13  1  0
 13 14  2  0
 14 15  1  0
 15 16  1  0
 16 17  2  0
 17 18  1  0
 18 19  2  0
 19 20  1  0
 20 21  1  0
 21 22  1  0
 21 23  2  0
 20 24  2  0
 24 25  1  0
 25 26  2  0
 26 27  1  0
 27 28  1  0
 28 29  1  0
 29 30  2  0
 29 31  1  0
 31 32  1  0
 31 33  1  0
 16 34  1  0
 34 35  1  0
 35 36  2  0
 36 37  1  0
 12  7  1  0
 36 14  1  0
 26 18  1  0
  1 38  1  0
  1 39  1  0
  1 40  1  0
  2 41  1  0
  3 42  1  0
  3 43  1  0
  3 44  1  0
  8 45  1  0
  9 46  1  0
 10 47  1  0
 11 48  1  0
 15 49  1  0
 19 50  1  0
 22 51  1  0
 22 52  1  0
 24 53  1  0
 25 54  1  0
 28 55  1  0
 28 56  1  0
 32 57  1  0
 32 58  1  0
 32 59  1  0
 33 60  1  0
 33 61  1  0
 33 62  1  0
 34 63  1  0
 35 64  1  0
M  END
>  <smiles>  (41) 
CC(C)S(=O)(=O)c1ccccc1N=c1[nH]c(=Nc2cc(C(N)=O)ccc2OCC(=O)N(C)C)[nH]cc1Cl

>  <score_type>  (41) 
oracle

>  <origin>  (41) 
adg

>  <m_score__min__energy>  (41) 
-9.4700000000000006

>  <m_primary>  (41) 
energy

$$$$
41:0
     RDKit          3D

 31 34  0  0  0  0  0  0  0  0999 V2000
   57.3950   33.4810   44.1230 O   0  0  0  0  0  0  0  0  0  0  0  0
   58.2550   33.4020   45.2160 C   0  0  0  0  0  0  0  0  0  0  0  0
   58.7570   34.5840   45.7810 C   0  0  0  0  0  0  0  0  0  0  0  0
   59.6180   34.5340   46.8750 C   0  0  0  0  0  0  0  0  0  0  0  0
   59.9860   33.3030   47.4140 C   0  0  0  0  0  0  0  0  0  0  0  0
   59.4950   32.1140   46.8650 C   0  0  0  0  0  0  0  0  0  0  0  0
   58.6210   32.1440   45.7560 C   0  0  0  0  0  0  0  0  0  0  0  0
   58.0790   30.8500   45.1480 C   0  0  0  0  0  0  0  0  0  0  0  0
   58.4990   30.7910   43.8000 O   0  0  0  0  0  0  0  0  0  0  0  0
   57.3510   30.6160   43.0280 C   0  0  0  0  0  0  0  0  0  0  0  0
   56.1740   30.6720   43.9580 C   0  0  0  0  0  0  0  0  0  0  0  0
   56.6700   30.8780   45.2440 O   0  0  0  0  0  0  0  0  0  0  0  0
   58.5800   29.5970   45.8580 C   0  0  0  0  0  0  0  0  0  0  0  0
   58.1680   28.3230   45.4140 C   0  0  0  0  0  0  0  0  0  0  0  0
   58.6180   27.1640   46.0530 C   0  0  0  0  0  0  0  0  0  0  0  0
   58.0480   25.4490   45.4350 Br  0  0  0  0  0  0  0  0  0  0  0  0
   59.4840   27.2590   47.1440 C   0  0  0  0  0  0  0  0  0  0  0  0
   59.9000   28.5110   47.5960 C   0  0  0  0  0  0  0  0  0  0  0  0
   59.4540   29.6760   46.9600 C   0  0  0  0  0  0  0  0  0  0  0  0
   59.8890   30.9090   47.4370 O   0  0  0  0  0  0  0  0  0  0  0  0
   57.0370   32.6500   43.6650 H   0  0  0  0  0  0  0  0  0  0  0  0
   58.4687   35.5572   45.3571 H   0  0  0  0  0  0  0  0  0  0  0  0
   60.0068   35.4652   47.3128 H   0  0  0  0  0  0  0  0  0  0  0  0
   60.6671   33.2660   48.2769 H   0  0  0  0  0  0  0  0  0  0  0  0
   57.2763   31.4170   42.2778 H   0  0  0  0  0  0  0  0  0  0  0  0
   57.3821   29.6531   42.4972 H   0  0  0  0  0  0  0  0  0  0  0  0
   55.5092   31.5010   43.6739 H   0  0  0  0  0  0  0  0  0  0  0  0
   55.5951   29.7379   43.9094 H   0  0  0  0  0  0  0  0  0  0  0  0
   57.4851   28.2407   44.5556 H   0  0  0  0  0  0  0  0  0  0  0  0
   59.8380   26.3469   47.6467 H   0  0  0  0  0  0  0  0  0  0  0  0
   60.5817   28.5837   48.4562 H   0  0  0  0  0  0  0  0  0  0  0  0
  1  2  1  0
  2  3  2  0
  3  4  1  0
  4  5  2  0
  5  6  1  0
  6  7  2  0
  7  8  1  0
  8  9  1  0
  9 10  1  0
 10 11  1  0
 11 12  1  0
  8 13  1  0
 13 14  2  0
 14 15  1  0
 15 16  1  0
 15 17  2  0
 17 18  1  0
 18 19  2  0
 19 20  1  0
  7  2  1  0
 12  8  1  0
 19 13  1  0
 20  6  1  0
  1 21  1  0
  3 22  1  0
  4 23  1  0
  5 24  1  0
 10 25  1  0
 10 26  1  0
 11 27  1  0
 11 28  1  0
 14 29  1  0
 17 30  1  0
 18 31  1  0
M  END
>  <UniqueID>  (42) 
35

>  <SMILES>  (42) 
Oc1cccc2c1C1(OCCO1)c1cc(Br)ccc1O2

>  <Energy>  (42) 
36.804725241028144

>  <Genealogy>  (42) 
Oc1cccc2c1C1(OCCO1)c1cc(Br)ccc1O2 (3D coordinates assigned)
Oc1cccc2c1C1(OCCO1)c1cc(Br)ccc1O2 (nonaromatic ring conformer: 36.804725241028144 kcal/mol)

>  <smiles>  (42) 
Oc1cccc2c1C1(OCCO1)c1cc(Br)ccc1O2

>  <score_type>  (42) 
oracle

>  <origin>  (42) 
adg

>  <m_score__min__energy>  (42) 
-6.6600000000000001

>  <m_primary>  (42) 
energy

$$$$
42:0
     RDKit          3D

 62 65  0  0  0  0  0  0  0  0999 V2000
   55.0040   30.6700   52.0170 C   0  0  0  0  0  0  0  0  0  0  0  0
   56.2800   30.1110   52.6320 C   0  0  0  0  0  0  0  0  0  0  0  0
   57.2730   29.9750   51.6200 O   0  0  0  0  0  0  0  0  0  0  0  0
   58.1850   30.9810   51.2730 C   0  0  0  0  0  0  0  0  0  0  0  0
   58.0910   32.2900   51.7770 C   0  0  0  0  0  0  0  0  0  0  0  0
   58.9760   33.2780   51.3350 C   0  0  0  0  0  0  0  0  0  0  0  0
   59.9340   32.9860   50.3460 C   0  0  0  0  0  0  0  0  0  0  0  0
   60.8040   34.0160   49.8280 N   0  0  0  0  0  0  0  0  0  0  0  0
   62.1970   33.7110   50.0530 C   0  0  0  0  0  0  0  0  0  0  0  0
   62.8110   33.8940   51.5670 S   0  0  0  0  0  0  0  0  0  0  0  0
   62.9700   32.9780   49.0710 N   0  0  0  0  0  0  0  0  0  0  0  0
   63.5650   31.6770   49.4270 C   0  0  0  0  0  0  0  0  0  0  0  0
   64.9100   31.8300   50.0820 C   0  0  0  0  0  0  0  0  0  0  0  0
   65.8810   32.7760   49.7640 C   0  0  0  0  0  0  0  0  0  0  0  0
   67.0380   32.6650   50.5450 C   0  0  0  0  0  0  0  0  0  0  0  0
   66.9870   31.6360   51.4720 C   0  0  0  0  0  0  0  0  0  0  0  0
   65.5010   30.8640   51.3220 S   0  0  0  0  0  0  0  0  0  0  0  0
   62.7910   33.3010   47.6440 C   0  0  0  0  0  0  0  0  0  0  0  0
   61.4540   32.8190   47.1300 C   0  0  0  0  0  0  0  0  0  0  0  0
   61.2160   31.4460   46.9900 C   0  0  0  0  0  0  0  0  0  0  0  0
   60.0030   30.9850   46.4710 C   0  0  0  0  0  0  0  0  0  0  0  0
   59.7890   29.6160   46.2740 C   0  0  0  0  0  0  0  0  0  0  0  0
   58.5800   29.1660   45.7480 C   0  0  0  0  0  0  0  0  0  0  0  0
   57.5660   30.0790   45.4070 C   0  0  0  0  0  0  0  0  0  0  0  0
   56.3410   29.6540   44.8700 O   0  0  0  0  0  0  0  0  0  0  0  0
   55.9920   29.7330   43.4910 C   0  0  0  0  0  0  0  0  0  0  0  0
   57.7670   31.4600   45.5910 C   0  0  0  0  0  0  0  0  0  0  0  0
   56.7130   32.3130   45.2090 O   0  0  0  0  0  0  0  0  0  0  0  0
   56.7330   33.7390   45.2290 C   0  0  0  0  0  0  0  0  0  0  0  0
   58.9960   31.9160   46.1350 C   0  0  0  0  0  0  0  0  0  0  0  0
   59.2290   33.2400   46.3460 N   0  0  0  0  0  0  0  0  0  0  0  0
   60.4080   33.7130   46.8310 C   0  0  0  0  0  0  0  0  0  0  0  0
   60.5510   34.9530   46.9920 O   0  0  0  0  0  0  0  0  0  0  0  0
   60.0930   31.6520   49.9350 C   0  0  0  0  0  0  0  0  0  0  0  0
   59.2190   30.6620   50.3880 C   0  0  0  0  0  0  0  0  0  0  0  0
   54.3131   30.9727   52.8177 H   0  0  0  0  0  0  0  0  0  0  0  0
   55.2490   31.5432   51.3945 H   0  0  0  0  0  0  0  0  0  0  0  0
   54.5282   29.8979   51.3945 H   0  0  0  0  0  0  0  0  0  0  0  0
   56.6424   30.7968   53.4119 H   0  0  0  0  0  0  0  0  0  0  0  0
   56.0725   29.1270   53.0776 H   0  0  0  0  0  0  0  0  0  0  0  0
   57.3194   32.5375   52.5208 H   0  0  0  0  0  0  0  0  0  0  0  0
   58.9233   34.2900   51.7629 H   0  0  0  0  0  0  0  0  0  0  0  0
   60.6130   34.1020   48.8010 H   0  0  0  0  0  0  0  0  0  0  0  0
   60.5980   34.9410   50.2720 H   0  0  0  0  0  0  0  0  0  0  0  0
   62.8895   31.1563   50.1216 H   0  0  0  0  0  0  0  0  0  0  0  0
   63.7036   31.1028   48.4991 H   0  0  0  0  0  0  0  0  0  0  0  0
   65.7521   33.5346   48.9779 H   0  0  0  0  0  0  0  0  0  0  0  0
   67.9057   33.3318   50.4332 H   0  0  0  0  0  0  0  0  0  0  0  0
   67.7823   31.3700   52.1838 H   0  0  0  0  0  0  0  0  0  0  0  0
   62.8517   34.3916   47.5141 H   0  0  0  0  0  0  0  0  0  0  0  0
   63.5830   32.7938   47.0736 H   0  0  0  0  0  0  0  0  0  0  0  0
   61.9900   30.7246   47.2909 H   0  0  0  0  0  0  0  0  0  0  0  0
   60.5768   28.8940   46.5349 H   0  0  0  0  0  0  0  0  0  0  0  0
   58.4172   28.0885   45.5983 H   0  0  0  0  0  0  0  0  0  0  0  0
   54.9231   29.9750   43.3966 H   0  0  0  0  0  0  0  0  0  0  0  0
   56.5900   30.5185   43.0058 H   0  0  0  0  0  0  0  0  0  0  0  0
   56.1934   28.7665   43.0058 H   0  0  0  0  0  0  0  0  0  0  0  0
   56.7379   34.0910   46.2711 H   0  0  0  0  0  0  0  0  0  0  0  0
   57.6363   34.1003   44.7156 H   0  0  0  0  0  0  0  0  0  0  0  0
   55.8402   34.1255   44.7156 H   0  0  0  0  0  0  0  0  0  0  0  0
   60.9123   31.3855   49.2511 H   0  0  0  0  0  0  0  0  0  0  0  0
   59.3449   29.6240   50.0462 H   0  0  0  0  0  0  0  0  0  0  0  0
  1  2  1  0
  2  3  1  0
  3  4  1  0
  4  5  2  0
  5  6  1  0
  6  7  2  0
  7  8  1  0
  8  9  1  0
  9 10  2  0
  9 11  1  0
 11 12  1  0
 12 13  1  0
 13 14  2  0
 14 15  1  0
 15 16  2  0
 16 17  1  0
 11 18  1  0
 18 19  1  0
 19 20  2  0
 20 21  1  0
 21 22  2  0
 22 23  1  0
 23 24  2  0
 24 25  1  0
 25 26  1  0
 24 27  1  0
 27 28  1  0
 28 29  1  0
 27 30  2  0
 30 31  1  0
 31 32  1  0
 32 33  2  0
  7 34  1  0
 34 35  2  0
 35  4  1  0
 17 13  1  0
 32 19  1  0
 30 21  1  0
  1 36  1  0
  1 37  1  0
  1 38  1  0
  2 39  1  0
  2 40  1  0
  5 41  1  0
  6 42  1  0
  8 43  1  0
  8 44  1  0
 12 45  1  0
 12 46  1  0
 14 47  1  0
 15 48  1  0
 16 49  1  0
 18 50  1  0
 18 51  1  0
 20 52  1  0
 22 53  1  0
 23 54  1  0
 26 55  1  0
 26 56  1  0
 26 57  1  0
 29 58  1  0
 29 59  1  0
 29 60  1  0
 34 61  1  0
 35 62  1  0
M  CHG  2   8   1  31  -1
M  END
>  <UniqueID>  (43) 
36

>  <SMILES>  (43) 
CCOc1ccc([NH2+]C(=S)N(Cc2cccs2)Cc2cc3ccc(OC)c(OC)c3[n-]c2=O)cc1

>  <Energy>  (43) 
92.50908395350629

>  <Genealogy>  (43) 
CCOc1ccc([NH2+]C(=S)N(Cc2cccs2)Cc2cc3ccc(OC)c(OC)c3[n-]c2=O)cc1 (protonated)
CCOc1ccc([NH2+]C(=S)N(Cc2cccs2)Cc2cc3ccc(OC)c(OC)c3[n-]c2=O)cc1 (3D coordinates assigned)
CCOc1ccc([NH2+]C(=S)N(Cc2cccs2)Cc2cc3ccc(OC)c(OC)c3[n-]c2=O)cc1 (optimized conformer: 92.50908395350629 kcal/mol)

>  <smiles>  (43) 
CCOc1ccc(NC(=S)N(Cc2cccs2)Cc2cc3ccc(OC)c(OC)c3[nH]c2=O)cc1

>  <score_type>  (43) 
oracle

>  <origin>  (43) 
adg

>  <m_score__min__energy>  (43) 
-10.23

>  <m_primary>  (43) 
energy

$$$$
43:0
     RDKit          3D

 46 48  0  0  0  0  0  0  0  0999 V2000
   64.8610   32.8260   49.3980 C   0  0  0  0  0  0  0  0  0  0  0  0
   63.5650   33.2360   49.8260 O   0  0  0  0  0  0  0  0  0  0  0  0
   62.5160   33.5750   48.9590 C   0  0  0  0  0  0  0  0  0  0  0  0
   61.2480   33.9700   49.4260 C   0  0  0  0  0  0  0  0  0  0  0  0
   60.2340   34.2960   48.5200 C   0  0  0  0  0  0  0  0  0  0  0  0
   60.4640   34.2160   47.1360 C   0  0  0  0  0  0  0  0  0  0  0  0
   59.4450   34.5770   46.1900 N   0  0  0  0  0  0  0  0  0  0  0  0
   58.5550   33.6360   45.5720 C   0  0  0  0  0  0  0  0  0  0  0  0
   57.0170   34.1150   45.2490 S   0  0  0  0  0  0  0  0  0  0  0  0
   59.0070   32.3030   45.2540 N   0  0  0  0  0  0  0  0  0  0  0  0
   58.2610   31.3470   44.4860 C   0  0  0  0  0  0  0  0  0  0  0  0
   57.4920   31.7870   43.4010 C   0  0  0  0  0  0  0  0  0  0  0  0
   56.7170   30.8800   42.6730 C   0  0  0  0  0  0  0  0  0  0  0  0
   56.6990   29.5290   43.0300 C   0  0  0  0  0  0  0  0  0  0  0  0
   57.4590   29.0710   44.1140 C   0  0  0  0  0  0  0  0  0  0  0  0
   57.3940   27.6840   44.4840 N   0  0  0  0  0  0  0  0  0  0  0  0
   57.8500   26.6060   43.6480 C   0  0  0  0  0  0  0  0  0  0  0  0
   58.3440   26.8390   42.5110 O   0  0  0  0  0  0  0  0  0  0  0  0
   57.7620   25.2100   44.1160 C   0  0  0  0  0  0  0  0  0  0  0  0
   56.9760   24.3010   43.3880 C   0  0  0  0  0  0  0  0  0  0  0  0
   56.8810   22.9660   43.7920 C   0  0  0  0  0  0  0  0  0  0  0  0
   57.5600   22.5300   44.9300 C   0  0  0  0  0  0  0  0  0  0  0  0
   58.3260   23.4280   45.6750 C   0  0  0  0  0  0  0  0  0  0  0  0
   58.4300   24.7690   45.2810 C   0  0  0  0  0  0  0  0  0  0  0  0
   59.4080   25.9660   46.4190 Br  0  0  0  0  0  0  0  0  0  0  0  0
   58.2160   29.9930   44.8600 C   0  0  0  0  0  0  0  0  0  0  0  0
   61.7340   33.8460   46.6750 C   0  0  0  0  0  0  0  0  0  0  0  0
   62.7480   33.5200   47.5800 C   0  0  0  0  0  0  0  0  0  0  0  0
   65.4914   32.6266   50.2771 H   0  0  0  0  0  0  0  0  0  0  0  0
   64.7751   31.9112   48.7933 H   0  0  0  0  0  0  0  0  0  0  0  0
   65.3169   33.6238   48.7933 H   0  0  0  0  0  0  0  0  0  0  0  0
   61.0542   34.0224   50.5075 H   0  0  0  0  0  0  0  0  0  0  0  0
   59.2502   34.6171   48.8930 H   0  0  0  0  0  0  0  0  0  0  0  0
   59.3360   35.5870   45.9440 H   0  0  0  0  0  0  0  0  0  0  0  0
   59.9290   31.9870   45.6280 H   0  0  0  0  0  0  0  0  0  0  0  0
   57.4981   32.8507   43.1208 H   0  0  0  0  0  0  0  0  0  0  0  0
   56.1203   31.2300   41.8178 H   0  0  0  0  0  0  0  0  0  0  0  0
   56.0839   28.8204   42.4559 H   0  0  0  0  0  0  0  0  0  0  0  0
   56.9210   27.4450   45.3840 H   0  0  0  0  0  0  0  0  0  0  0  0
   56.4321   24.6418   42.4947 H   0  0  0  0  0  0  0  0  0  0  0  0
   56.2702   22.2586   43.2119 H   0  0  0  0  0  0  0  0  0  0  0  0
   57.4916   21.4770   45.2406 H   0  0  0  0  0  0  0  0  0  0  0  0
   58.8514   23.0811   46.5770 H   0  0  0  0  0  0  0  0  0  0  0  0
   58.7768   29.6515   45.7426 H   0  0  0  0  0  0  0  0  0  0  0  0
   61.9345   33.8118   45.5940 H   0  0  0  0  0  0  0  0  0  0  0  0
   63.7369   33.2176   47.2051 H   0  0  0  0  0  0  0  0  0  0  0  0
  1  2  1  0
  2  3  1  0
  3  4  2  0
  4  5  1  0
  5  6  2  0
  6  7  1  0
  7  8  1  0
  8  9  2  0
  8 10  1  0
 10 11  1  0
 11 12  2  0
 12 13  1  0
 13 14  2  0
 14 15  1  0
 15 16  1  0
 16 17  1  0
 17 18  2  0
 17 19  1  0
 19 20  2  0
 20 21  1  0
 21 22  2  0
 22 23  1  0
 23 24  2  0
 24 25  1  0
 15 26  2  0
  6 27  1  0
 27 28  2  0
 28  3  1  0
 26 11  1  0
 24 19  1  0
  1 29  1  0
  1 30  1  0
  1 31  1  0
  4 32  1  0
  5 33  1  0
  7 34  1  0
 10 35  1  0
 12 36  1  0
 13 37  1  0
 14 38  1  0
 16 39  1  0
 20 40  1  0
 21 41  1  0
 22 42  1  0
 23 43  1  0
 26 44  1  0
 27 45  1  0
 28 46  1  0
M  END
>  <UniqueID>  (44) 
37

>  <SMILES>  (44) 
COc1ccc(NC(=S)Nc2cccc(NC(=O)c3ccccc3Br)c2)cc1

>  <Energy>  (44) 
68.1395968979542

>  <Genealogy>  (44) 
COc1ccc(NC(=S)Nc2cccc(NC(=O)c3ccccc3Br)c2)cc1 (3D coordinates assigned)
COc1ccc(NC(=S)Nc2cccc(NC(=O)c3ccccc3Br)c2)cc1 (optimized conformer: 68.1395968979542 kcal/mol)

>  <smiles>  (44) 
COc1ccc(NC(=S)Nc2cccc(NC(=O)c3ccccc3Br)c2)cc1

>  <score_type>  (44) 
oracle

>  <origin>  (44) 
adg

>  <m_score__min__energy>  (44) 
-8.5

>  <m_primary>  (44) 
energy

$$$$
44:0
     RDKit          3D

 50 52  0  0  0  0  0  0  0  0999 V2000
   58.9682   31.7075   48.2111 H   0  0  0  0  0  0  0  0  0  0  0  0
   58.5180   31.4780   47.2340 C   0  0  0  0  0  0  0  0  0  0  0  0
   58.1710   30.4575   47.0143 H   0  0  0  0  0  0  0  0  0  0  0  0
   58.3920   32.4440   46.3090 C   0  0  0  0  0  0  0  0  0  0  0  0
   57.8400   32.3000   45.0240 C   0  0  0  0  0  0  0  0  0  0  0  0
   57.1450   31.2890   44.4670 C   0  0  0  0  0  0  0  0  0  0  0  0
   56.2627   31.5559   43.8667 H   0  0  0  0  0  0  0  0  0  0  0  0
   57.4650   29.8600   44.5930 C   0  0  0  0  0  0  0  0  0  0  0  0
   56.5660   28.8460   44.8470 C   0  0  0  0  0  0  0  0  0  0  0  0
   55.1830   28.9770   44.9200 O   0  0  0  0  0  0  0  0  0  0  0  0
   57.2360   27.6900   45.0160 N   0  0  0  0  0  0  0  0  0  0  0  0
   56.6760   26.3580   45.2570 C   0  0  0  0  0  0  0  0  0  0  0  0
   55.6258   26.3453   44.9300 H   0  0  0  0  0  0  0  0  0  0  0  0
   57.2665   25.6231   44.6902 H   0  0  0  0  0  0  0  0  0  0  0  0
   56.7420   25.9900   46.7530 C   0  0  0  0  0  0  0  0  0  0  0  0
   56.0676   26.6682   47.2963 H   0  0  0  0  0  0  0  0  0  0  0  0
   56.2800   24.5430   46.9630 C   0  0  0  0  0  0  0  0  0  0  0  0
   56.2127   24.3323   48.0405 H   0  0  0  0  0  0  0  0  0  0  0  0
   55.2923   24.4025   46.4996 H   0  0  0  0  0  0  0  0  0  0  0  0
   57.0035   23.8562   46.4996 H   0  0  0  0  0  0  0  0  0  0  0  0
   58.1560   26.1810   47.3180 C   0  0  0  0  0  0  0  0  0  0  0  0
   58.1155   26.1755   48.4172 H   0  0  0  0  0  0  0  0  0  0  0  0
   58.8033   25.3621   46.9709 H   0  0  0  0  0  0  0  0  0  0  0  0
   58.5628   27.1423   46.9709 H   0  0  0  0  0  0  0  0  0  0  0  0
   58.5350   28.0300   44.8820 C   0  0  0  0  0  0  0  0  0  0  0  0
   59.4880   27.2110   44.9830 O   0  0  0  0  0  0  0  0  0  0  0  0
   58.7120   29.3440   44.6380 N   0  0  0  0  0  0  0  0  0  0  0  0
   59.6190   29.8530   44.5380 H   0  0  0  0  0  0  0  0  0  0  0  0
   58.1280   33.4690   44.3450 C   0  0  0  0  0  0  0  0  0  0  0  0
   57.8942   33.6896   43.2930 H   0  0  0  0  0  0  0  0  0  0  0  0
   58.7640   34.3060   45.2370 C   0  0  0  0  0  0  0  0  0  0  0  0
   59.2680   35.6750   44.8920 C   0  0  0  0  0  0  0  0  0  0  0  0
   59.4737   36.2338   45.8169 H   0  0  0  0  0  0  0  0  0  0  0  0
   60.1929   35.5876   44.3030 H   0  0  0  0  0  0  0  0  0  0  0  0
   58.5072   36.2082   44.3030 H   0  0  0  0  0  0  0  0  0  0  0  0
   58.9250   33.6920   46.4340 N   0  0  0  0  0  0  0  0  0  0  0  0
   59.6230   34.2740   47.5930 C   0  0  0  0  0  0  0  0  0  0  0  0
   59.6702   35.3665   47.4734 H   0  0  0  0  0  0  0  0  0  0  0  0
   59.0681   34.0104   48.5055 H   0  0  0  0  0  0  0  0  0  0  0  0
   61.0250   33.7290   47.7080 C   0  0  0  0  0  0  0  0  0  0  0  0
   61.9240   33.8510   46.6330 C   0  0  0  0  0  0  0  0  0  0  0  0
   61.6053   34.3513   45.7066 H   0  0  0  0  0  0  0  0  0  0  0  0
   63.2210   33.3390   46.7370 C   0  0  0  0  0  0  0  0  0  0  0  0
   63.9189   33.4353   45.8922 H   0  0  0  0  0  0  0  0  0  0  0  0
   63.6320   32.7050   47.9130 C   0  0  0  0  0  0  0  0  0  0  0  0
   64.6522   32.3016   47.9931 H   0  0  0  0  0  0  0  0  0  0  0  0
   62.7460   32.5840   48.9870 C   0  0  0  0  0  0  0  0  0  0  0  0
   63.0703   32.0863   49.9128 H   0  0  0  0  0  0  0  0  0  0  0  0
   61.4490   33.0940   48.8870 C   0  0  0  0  0  0  0  0  0  0  0  0
   60.7563   32.9977   49.7361 H   0  0  0  0  0  0  0  0  0  0  0  0
  1  2  1  0
  2  3  1  0
  2  4  2  0
  4  5  1  0
  5  6  2  0
  6  7  1  0
  6  8  1  0
  8  9  2  0
  9 10  1  0
  9 11  1  0
 11 12  1  0
 12 13  1  0
 12 14  1  0
 12 15  1  0
 15 16  1  0
 15 17  1  0
 17 18  1  0
 17 19  1  0
 17 20  1  0
 15 21  1  0
 21 22  1  0
 21 23  1  0
 21 24  1  0
 11 25  1  0
 25 26  2  0
 25 27  1  0
 27 28  1  0
  5 29  1  0
 29 30  1  0
 29 31  2  0
 31 32  1  0
 32 33  1  0
 32 34  1  0
 32 35  1  0
 31 36  1  0
 36 37  1  0
 37 38  1  0
 37 39  1  0
 37 40  1  0
 40 41  2  0
 41 42  1  0
 41 43  1  0
 43 44  1  0
 43 45  2  0
 45 46  1  0
 45 47  1  0
 47 48  1  0
 47 49  2  0
 49 50  1  0
 36  4  1  0
 49 40  1  0
 27  8  1  0
M  CHG  1  10  -1
M  END
>  <UniqueID>  (45) 
38

>  <SMILES>  (45) 
C=c1/c(=C\c2[nH]c(=O)n(CC(C)C)c2[O-])cc(C)n1Cc1ccccc1

>  <Energy>  (45) 
117.41375672140164

>  <Genealogy>  (45) 
C=c1c(=Cc2[nH]c(=O)n(CC(C)C)c2[O-])cc(C)n1Cc1ccccc1 (protonated)
C=c1/c(=C\c2[nH]c(=O)n(CC(C)C)c2[O-])cc(C)n1Cc1ccccc1 (cis-trans isomerization)
C=c1/c(=C\c2[nH]c(=O)n(CC(C)C)c2[O-])cc(C)n1Cc1ccccc1 (3D coordinates assigned)
C=c1/c(=C\c2[nH]c(=O)n(CC(C)C)c2[O-])cc(C)n1Cc1ccccc1 (optimized conformer: 117.41375672140164 kcal/mol)

>  <smiles>  (45) 
C=c1c(=Cc2[nH]c(=O)n(CC(C)C)c2O)cc(C)n1Cc1ccccc1

>  <score_type>  (45) 
oracle

>  <origin>  (45) 
adg

>  <m_score__min__energy>  (45) 
-11.960000000000001

>  <m_primary>  (45) 
energy

$$$$
45:0
     RDKit          3D

 45 47  0  0  0  0  0  0  0  0999 V2000
   57.0597   32.3325   52.5669 H   0  0  0  0  0  0  0  0  0  0  0  0
   57.7490   31.9100   51.8210 C   0  0  0  0  0  0  0  0  0  0  0  0
   58.7340   32.7190   51.2460 C   0  0  0  0  0  0  0  0  0  0  0  0
   58.8180   33.7743   51.5446 H   0  0  0  0  0  0  0  0  0  0  0  0
   59.6160   32.1920   50.2900 C   0  0  0  0  0  0  0  0  0  0  0  0
   60.6840   33.0600   49.6840 C   0  0  0  0  0  0  0  0  0  0  0  0
   60.9948   33.8184   50.4176 H   0  0  0  0  0  0  0  0  0  0  0  0
   61.5421   32.4302   49.4065 H   0  0  0  0  0  0  0  0  0  0  0  0
   60.1630   33.7450   48.4540 C   0  0  0  0  0  0  0  0  0  0  0  0
   60.1660   33.2310   47.2050 N   0  0  0  0  0  0  0  0  0  0  0  0
   60.7080   31.9480   46.7590 C   0  0  0  0  0  0  0  0  0  0  0  0
   60.9670   31.3350   47.6349 H   0  0  0  0  0  0  0  0  0  0  0  0
   59.9550   31.4225   46.1533 H   0  0  0  0  0  0  0  0  0  0  0  0
   61.6097   32.1215   46.1533 H   0  0  0  0  0  0  0  0  0  0  0  0
   59.5900   34.2030   46.4660 C   0  0  0  0  0  0  0  0  0  0  0  0
   59.3150   34.1240   44.6950 S   0  0  0  0  0  0  0  0  0  0  0  0
   57.5180   33.8890   44.8700 C   0  0  0  0  0  0  0  0  0  0  0  0
   57.1108   34.6589   45.5418 H   0  0  0  0  0  0  0  0  0  0  0  0
   57.0383   33.9737   43.8837 H   0  0  0  0  0  0  0  0  0  0  0  0
   57.2490   32.5370   45.4410 C   0  0  0  0  0  0  0  0  0  0  0  0
   57.5000   32.3220   46.6570 O   0  0  0  0  0  0  0  0  0  0  0  0
   56.7780   31.4920   44.5750 N   0  0  0  0  0  0  0  0  0  0  0  0
   56.6740   30.2180   44.8330 C   0  0  0  0  0  0  0  0  0  0  0  0
   55.4810   29.6140   44.9880 N   0  0  0  0  0  0  0  0  0  0  0  0
   55.7270   28.3620   45.2440 O   0  0  0  0  0  0  0  0  0  0  0  0
   57.0190   28.1280   45.2610 C   0  0  0  0  0  0  0  0  0  0  0  0
   57.6340   26.7990   45.5440 C   0  0  0  0  0  0  0  0  0  0  0  0
   57.7025   26.6509   46.6318 H   0  0  0  0  0  0  0  0  0  0  0  0
   57.0114   26.0058   45.1044 H   0  0  0  0  0  0  0  0  0  0  0  0
   58.6416   26.7602   45.1044 H   0  0  0  0  0  0  0  0  0  0  0  0
   57.6990   29.3010   45.0060 C   0  0  0  0  0  0  0  0  0  0  0  0
   58.7851   29.4673   44.9531 H   0  0  0  0  0  0  0  0  0  0  0  0
   59.2380   35.2630   47.2200 N   0  0  0  0  0  0  0  0  0  0  0  0
   59.5980   34.9670   48.4590 N   0  0  0  0  0  0  0  0  0  0  0  0
   59.4570   35.5920   49.2830 H   0  0  0  0  0  0  0  0  0  0  0  0
   59.5180   30.8370   49.9370 C   0  0  0  0  0  0  0  0  0  0  0  0
   60.2211   30.4085   49.2076 H   0  0  0  0  0  0  0  0  0  0  0  0
   58.5300   30.0300   50.5090 C   0  0  0  0  0  0  0  0  0  0  0  0
   58.4543   28.9719   50.2181 H   0  0  0  0  0  0  0  0  0  0  0  0
   57.6360   30.5570   51.4490 C   0  0  0  0  0  0  0  0  0  0  0  0
   56.6560   29.7090   51.9840 O   0  0  0  0  0  0  0  0  0  0  0  0
   55.4030   30.1500   52.4960 C   0  0  0  0  0  0  0  0  0  0  0  0
   55.4321   30.1398   53.5956 H   0  0  0  0  0  0  0  0  0  0  0  0
   55.2025   31.1727   52.1440 H   0  0  0  0  0  0  0  0  0  0  0  0
   54.6062   29.4783   52.1440 H   0  0  0  0  0  0  0  0  0  0  0  0
  1  2  1  0
  2  3  2  0
  3  4  1  0
  3  5  1  0
  5  6  1  0
  6  7  1  0
  6  8  1  0
  6  9  1  0
  9 10  1  0
 10 11  1  0
 11 12  1  0
 11 13  1  0
 11 14  1  0
 10 15  1  0
 15 16  1  0
 16 17  1  0
 17 18  1  0
 17 19  1  0
 17 20  1  0
 20 21  2  0
 20 22  1  0
 22 23  2  0
 23 24  1  0
 24 25  1  0
 25 26  1  0
 26 27  1  0
 27 28  1  0
 27 29  1  0
 27 30  1  0
 26 31  2  0
 31 32  1  0
 15 33  2  0
 33 34  1  0
 34 35  1  0
  5 36  2  0
 36 37  1  0
 36 38  1  0
 38 39  1  0
 38 40  2  0
 40 41  1  0
 41 42  1  0
 42 43  1  0
 42 44  1  0
 42 45  1  0
 40  2  1  0
 34  9  2  0
 31 23  1  0
M  CHG  2  24  -1  34   1
M  END
>  <UniqueID>  (46) 
39

>  <SMILES>  (46) 
COc1ccc(Cc2[nH+]nc(SCC(=O)/N=c3\cc(C)o[n-]3)n2C)cc1

>  <Energy>  (46) 
107.92209198160863

>  <Genealogy>  (46) 
COc1ccc(Cc2[nH+]nc(SCC(=O)N=c3cc(C)o[n-]3)n2C)cc1 (protonated)
COc1ccc(Cc2[nH+]nc(SCC(=O)/N=c3\cc(C)o[n-]3)n2C)cc1 (cis-trans isomerization)
COc1ccc(Cc2[nH+]nc(SCC(=O)/N=c3\cc(C)o[n-]3)n2C)cc1 (3D coordinates assigned)
COc1ccc(Cc2[nH+]nc(SCC(=O)/N=c3\cc(C)o[n-]3)n2C)cc1 (optimized conformer: 107.92209198160863 kcal/mol)

>  <smiles>  (46) 
COc1ccc(Cc2nnc(SCC(=O)N=c3cc(C)o[nH]3)n2C)cc1

>  <score_type>  (46) 
oracle

>  <origin>  (46) 
adg

>  <m_score__min__energy>  (46) 
-9.9100000000000001

>  <m_primary>  (46) 
energy

$$$$
46:0
     RDKit          3D

 30 31  0  0  0  0  0  0  0  0999 V2000
   59.5497   27.0332   47.7740 H   0  0  0  0  0  0  0  0  0  0  0  0
   58.9860   27.7270   47.1330 C   0  0  0  0  0  0  0  0  0  0  0  0
   59.3410   29.0750   47.0900 C   0  0  0  0  0  0  0  0  0  0  0  0
   60.1803   29.4358   47.7027 H   0  0  0  0  0  0  0  0  0  0  0  0
   58.6390   29.9780   46.2730 C   0  0  0  0  0  0  0  0  0  0  0  0
   59.0800   31.4170   46.2490 C   0  0  0  0  0  0  0  0  0  0  0  0
   59.1923   31.7833   47.2801 H   0  0  0  0  0  0  0  0  0  0  0  0
   60.0437   31.4965   45.7247 H   0  0  0  0  0  0  0  0  0  0  0  0
   58.3263   32.0228   45.7247 H   0  0  0  0  0  0  0  0  0  0  0  0
   57.5890   29.4950   45.4530 C   0  0  0  0  0  0  0  0  0  0  0  0
   56.6790   30.5570   44.3580 S   0  0  0  0  0  0  0  0  0  0  0  0
   55.2220   30.1880   44.3780 O   0  0  0  0  0  0  0  0  0  0  0  0
   56.8120   31.9840   44.8110 O   0  0  0  0  0  0  0  0  0  0  0  0
   57.2530   30.3970   42.7330 N   0  0  0  0  0  0  0  0  0  0  0  0
   58.1800   30.8740   42.6750 H   0  0  0  0  0  0  0  0  0  0  0  0
   57.4160   29.3800   42.5570 H   0  0  0  0  0  0  0  0  0  0  0  0
   57.2490   28.1330   45.5020 C   0  0  0  0  0  0  0  0  0  0  0  0
   56.4468   27.7505   44.8538 H   0  0  0  0  0  0  0  0  0  0  0  0
   57.9190   27.2530   46.3670 C   0  0  0  0  0  0  0  0  0  0  0  0
   57.5910   25.8550   46.4190 N   0  0  0  0  0  0  0  0  0  0  0  0
   57.1570   25.1530   45.4420 N   0  0  0  0  0  0  0  0  0  0  0  0
   55.8500   24.5590   45.3560 C   0  0  0  0  0  0  0  0  0  0  0  0
   54.7150   25.3320   45.6220 C   0  0  0  0  0  0  0  0  0  0  0  0
   54.8430   26.6650   45.9940 O   0  0  0  0  0  0  0  0  0  0  0  0
   53.4790   24.7770   45.5300 N   0  0  0  0  0  0  0  0  0  0  0  0
   53.3200   23.4790   45.1640 C   0  0  0  0  0  0  0  0  0  0  0  0
   52.1650   22.9840   45.0920 O   0  0  0  0  0  0  0  0  0  0  0  0
   54.4040   22.7180   44.8670 N   0  0  0  0  0  0  0  0  0  0  0  0
   55.6610   23.2290   44.9420 C   0  0  0  0  0  0  0  0  0  0  0  0
   56.6420   22.5080   44.6220 O   0  0  0  0  0  0  0  0  0  0  0  0
  1  2  1  0
  2  3  2  0
  3  4  1  0
  3  5  1  0
  5  6  1  0
  6  7  1  0
  6  8  1  0
  6  9  1  0
  5 10  2  0
 10 11  1  0
 11 12  2  0
 11 13  2  0
 11 14  1  0
 14 15  1  0
 14 16  1  0
 10 17  1  0
 17 18  1  0
 17 19  2  0
 19 20  1  0
 20 21  2  0
 21 22  1  0
 22 23  2  0
 23 24  1  0
 23 25  1  0
 25 26  1  0
 26 27  2  0
 26 28  1  0
 28 29  1  0
 29 30  2  0
 19  2  1  0
 29 22  1  0
M  CHG  3  24  -1  25  -1  28  -1
M  END
>  <UniqueID>  (47) 
40

>  <SMILES>  (47) 
Cc1ccc(/N=N\c2c([O-])[n-]c(=O)[n-]c2=O)cc1S(N)(=O)=O

>  <Energy>  (47) 
47.16032332062371

>  <Genealogy>  (47) 
Cc1ccc(N=Nc2c([O-])[n-]c(=O)[n-]c2=O)cc1S(N)(=O)=O (protonated)
Cc1ccc(/N=N\c2c([O-])[n-]c(=O)[n-]c2=O)cc1S(N)(=O)=O (cis-trans isomerization)
Cc1ccc(/N=N\c2c([O-])[n-]c(=O)[n-]c2=O)cc1S(N)(=O)=O (3D coordinates assigned)
Cc1ccc(/N=N\c2c([O-])[n-]c(=O)[n-]c2=O)cc1S(N)(=O)=O (optimized conformer: 47.16032332062371 kcal/mol)

>  <smiles>  (47) 
Cc1ccc(N=Nc2c(O)[nH]c(=O)[nH]c2=O)cc1S(N)(=O)=O

>  <score_type>  (47) 
oracle

>  <origin>  (47) 
adg

>  <m_score__min__energy>  (47) 
-15.19

>  <m_primary>  (47) 
energy

$$$$
47:0
     RDKit          3D

 33 35  0  0  0  0  0  0  0  0999 V2000
   54.9690   25.6210   45.9950 O   0  0  0  0  0  0  0  0  0  0  0  0
   56.0010   26.3390   45.9490 C   0  0  0  0  0  0  0  0  0  0  0  0
   57.3590   25.7330   46.1620 C   0  0  0  0  0  0  0  0  0  0  0  0
   58.3060   26.7360   46.8380 C   0  0  0  0  0  0  0  0  0  0  0  0
   58.2520   28.0990   46.1860 C   0  0  0  0  0  0  0  0  0  0  0  0
   59.3720   28.9420   46.2130 C   0  0  0  0  0  0  0  0  0  0  0  0
   59.2920   30.2370   45.6900 C   0  0  0  0  0  0  0  0  0  0  0  0
   58.0820   30.7130   45.1520 C   0  0  0  0  0  0  0  0  0  0  0  0
   57.9540   32.0370   44.6160 N   0  0  0  0  0  0  0  0  0  0  0  0
   57.8640   33.4920   45.5550 S   0  0  0  0  0  0  0  0  0  0  0  0
   57.7630   34.6700   44.6250 O   0  0  0  0  0  0  0  0  0  0  0  0
   56.6360   33.4450   46.4180 O   0  0  0  0  0  0  0  0  0  0  0  0
   59.2820   33.6300   46.5880 C   0  0  0  0  0  0  0  0  0  0  0  0
   59.1280   33.7030   47.9800 C   0  0  0  0  0  0  0  0  0  0  0  0
   60.2510   33.8100   48.8070 C   0  0  0  0  0  0  0  0  0  0  0  0
   61.5320   33.8490   48.2460 C   0  0  0  0  0  0  0  0  0  0  0  0
   62.6200   33.9580   49.0490 F   0  0  0  0  0  0  0  0  0  0  0  0
   61.6900   33.7790   46.8580 C   0  0  0  0  0  0  0  0  0  0  0  0
   60.5680   33.6720   46.0290 C   0  0  0  0  0  0  0  0  0  0  0  0
   56.9610   29.8740   45.1400 C   0  0  0  0  0  0  0  0  0  0  0  0
   57.0400   28.5740   45.6510 C   0  0  0  0  0  0  0  0  0  0  0  0
   55.8900   27.7240   45.6170 N   0  0  0  0  0  0  0  0  0  0  0  0
   57.2603   24.8434   46.8014 H   0  0  0  0  0  0  0  0  0  0  0  0
   57.7788   25.4575   45.1833 H   0  0  0  0  0  0  0  0  0  0  0  0
   58.0193   26.8371   47.8952 H   0  0  0  0  0  0  0  0  0  0  0  0
   59.3323   26.3531   46.7371 H   0  0  0  0  0  0  0  0  0  0  0  0
   60.3171   28.5838   46.6470 H   0  0  0  0  0  0  0  0  0  0  0  0
   60.1796   30.8866   45.6994 H   0  0  0  0  0  0  0  0  0  0  0  0
   58.1214   33.6760   48.4227 H   0  0  0  0  0  0  0  0  0  0  0  0
   60.1269   33.8635   49.8987 H   0  0  0  0  0  0  0  0  0  0  0  0
   62.6976   33.8081   46.4177 H   0  0  0  0  0  0  0  0  0  0  0  0
   60.6944   33.6207   44.9375 H   0  0  0  0  0  0  0  0  0  0  0  0
   56.0102   30.2401   44.7253 H   0  0  0  0  0  0  0  0  0  0  0  0
  1  2  2  0
  2  3  1  0
  3  4  1  0
  4  5  1  0
  5  6  2  0
  6  7  1  0
  7  8  2  0
  8  9  1  0
  9 10  1  0
 10 11  2  0
 10 12  2  0
 10 13  1  0
 13 14  2  0
 14 15  1  0
 15 16  2  0
 16 17  1  0
 16 18  1  0
 18 19  2  0
  8 20  1  0
 20 21  2  0
 21 22  1  0
 22  2  1  0
 21  5  1  0
 19 13  1  0
  3 23  1  0
  3 24  1  0
  4 25  1  0
  4 26  1  0
  6 27  1  0
  7 28  1  0
 14 29  1  0
 15 30  1  0
 18 31  1  0
 19 32  1  0
 20 33  1  0
M  CHG  2   9  -1  22  -1
M  END
>  <UniqueID>  (48) 
41

>  <SMILES>  (48) 
O=C1CCc2ccc([N-]S(=O)(=O)c3ccc(F)cc3)cc2[N-]1

>  <Energy>  (48) 
38.476618373640406

>  <Genealogy>  (48) 
O=C1CCc2ccc([N-]S(=O)(=O)c3ccc(F)cc3)cc2[N-]1 (protonated)
O=C1CCc2ccc([N-]S(=O)(=O)c3ccc(F)cc3)cc2[N-]1 (3D coordinates assigned)
O=C1CCc2ccc([N-]S(=O)(=O)c3ccc(F)cc3)cc2[N-]1 (nonaromatic ring conformer: 38.476618373640406 kcal/mol)

>  <smiles>  (48) 
O=C1CCc2ccc(NS(=O)(=O)c3ccc(F)cc3)cc2N1

>  <score_type>  (48) 
oracle

>  <origin>  (48) 
adg

>  <m_score__min__energy>  (48) 
-11.210000000000001

>  <m_primary>  (48) 
energy

$$$$
48:0
     RDKit          3D

 66 69  0  0  0  0  0  0  0  0999 V2000
   63.3940   33.8400   46.3240 C   0  0  0  0  0  0  0  0  0  0  0  0
   63.1680   33.8440   47.8340 C   0  0  0  0  0  0  0  0  0  0  0  0
   61.7040   34.1410   48.1750 C   0  0  0  0  0  0  0  0  0  0  0  0
   60.8200   33.1300   47.5640 N   0  0  0  0  0  0  0  0  0  0  0  0
   60.6660   31.9030   48.1660 C   0  0  0  0  0  0  0  0  0  0  0  0
   61.2720   31.6140   49.2340 O   0  0  0  0  0  0  0  0  0  0  0  0
   59.8290   30.9740   47.5710 C   0  0  0  0  0  0  0  0  0  0  0  0
   59.5760   29.7120   47.9560 N   0  0  0  0  0  0  0  0  0  0  0  0
   58.7230   29.2080   47.0280 C   0  0  0  0  0  0  0  0  0  0  0  0
   58.2050   27.8180   47.0400 C   0  0  0  0  0  0  0  0  0  0  0  0
   58.8380   26.8240   47.8070 C   0  0  0  0  0  0  0  0  0  0  0  0
   58.3400   25.5180   47.8280 C   0  0  0  0  0  0  0  0  0  0  0  0
   57.1930   25.1850   47.0930 C   0  0  0  0  0  0  0  0  0  0  0  0
   56.6690   23.7730   47.1000 C   0  0  0  0  0  0  0  0  0  0  0  0
   55.1400   23.7360   46.9940 C   0  0  0  0  0  0  0  0  0  0  0  0
   54.6780   24.3290   45.7420 N   0  0  0  0  0  0  0  0  0  0  0  0
   54.1270   23.5720   44.6600 C   0  0  0  0  0  0  0  0  0  0  0  0
   52.9790   23.0600   44.7550 O   0  0  0  0  0  0  0  0  0  0  0  0
   54.9320   23.3660   43.4160 C   0  0  0  0  0  0  0  0  0  0  0  0
   56.3000   22.8490   43.7650 C   0  0  0  0  0  0  0  0  0  0  0  0
   57.3210   23.7330   44.1380 C   0  0  0  0  0  0  0  0  0  0  0  0
   58.5770   23.2390   44.4930 C   0  0  0  0  0  0  0  0  0  0  0  0
   58.7980   21.8600   44.4810 C   0  0  0  0  0  0  0  0  0  0  0  0
   57.7940   21.0080   44.1330 N   0  0  0  0  0  0  0  0  0  0  0  0
   56.5620   21.4690   43.7810 C   0  0  0  0  0  0  0  0  0  0  0  0
   56.5660   26.1710   46.3180 C   0  0  0  0  0  0  0  0  0  0  0  0
   57.0660   27.4750   46.2910 C   0  0  0  0  0  0  0  0  0  0  0  0
   58.4350   30.1690   46.0550 C   0  0  0  0  0  0  0  0  0  0  0  0
   59.1590   31.2850   46.4330 C   0  0  0  0  0  0  0  0  0  0  0  0
   59.2680   32.5060   45.8340 N   0  0  0  0  0  0  0  0  0  0  0  0
   58.5450   32.8010   44.5850 C   0  0  0  0  0  0  0  0  0  0  0  0
   57.3950   33.7770   44.8540 C   0  0  0  0  0  0  0  0  0  0  0  0
   57.0020   33.7750   46.3280 C   0  0  0  0  0  0  0  0  0  0  0  0
   60.1170   33.4310   46.4070 C   0  0  0  0  0  0  0  0  0  0  0  0
   60.2570   34.5660   45.8680 O   0  0  0  0  0  0  0  0  0  0  0  0
   64.4738   33.8209   46.1149 H   0  0  0  0  0  0  0  0  0  0  0  0
   62.9196   32.9501   45.8846 H   0  0  0  0  0  0  0  0  0  0  0  0
   62.9514   34.7461   45.8846 H   0  0  0  0  0  0  0  0  0  0  0  0
   63.4378   32.8578   48.2397 H   0  0  0  0  0  0  0  0  0  0  0  0
   63.7953   34.6311   48.2777 H   0  0  0  0  0  0  0  0  0  0  0  0
   61.5751   34.1230   49.2673 H   0  0  0  0  0  0  0  0  0  0  0  0
   61.4391   35.1330   47.7803 H   0  0  0  0  0  0  0  0  0  0  0  0
   59.9580   29.2310   48.8000 H   0  0  0  0  0  0  0  0  0  0  0  0
   59.7325   27.0762   48.3954 H   0  0  0  0  0  0  0  0  0  0  0  0
   58.8505   24.7474   48.4242 H   0  0  0  0  0  0  0  0  0  0  0  0
   57.0990   23.2288   46.2462 H   0  0  0  0  0  0  0  0  0  0  0  0
   56.9586   23.3041   48.0520 H   0  0  0  0  0  0  0  0  0  0  0  0
   54.8033   22.6898   47.0401 H   0  0  0  0  0  0  0  0  0  0  0  0
   54.7211   24.3181   47.8280 H   0  0  0  0  0  0  0  0  0  0  0  0
   54.4218   22.6371   42.7691 H   0  0  0  0  0  0  0  0  0  0  0  0
   55.0338   24.3267   42.8900 H   0  0  0  0  0  0  0  0  0  0  0  0
   57.1326   24.8167   44.1510 H   0  0  0  0  0  0  0  0  0  0  0  0
   59.3847   23.9287   44.7793 H   0  0  0  0  0  0  0  0  0  0  0  0
   59.7861   21.4607   44.7535 H   0  0  0  0  0  0  0  0  0  0  0  0
   57.9720   19.9780   44.1370 H   0  0  0  0  0  0  0  0  0  0  0  0
   55.7685   20.7577   43.5080 H   0  0  0  0  0  0  0  0  0  0  0  0
   55.6740   25.9158   45.7270 H   0  0  0  0  0  0  0  0  0  0  0  0
   56.5647   28.2393   45.6790 H   0  0  0  0  0  0  0  0  0  0  0  0
   57.7768   30.0613   45.1803 H   0  0  0  0  0  0  0  0  0  0  0  0
   59.2403   33.2503   43.8607 H   0  0  0  0  0  0  0  0  0  0  0  0
   58.1326   31.8648   44.1807 H   0  0  0  0  0  0  0  0  0  0  0  0
   57.7111   34.7912   44.5685 H   0  0  0  0  0  0  0  0  0  0  0  0
   56.5241   33.4604   44.2613 H   0  0  0  0  0  0  0  0  0  0  0  0
   57.9096   33.7796   46.9495 H   0  0  0  0  0  0  0  0  0  0  0  0
   56.4019   34.6701   46.5487 H   0  0  0  0  0  0  0  0  0  0  0  0
   56.4111   32.8738   46.5487 H   0  0  0  0  0  0  0  0  0  0  0  0
  1  2  1  0
  2  3  1  0
  3  4  1  0
  4  5  1  0
  5  6  2  0
  5  7  1  0
  7  8  1  0
  8  9  1  0
  9 10  1  0
 10 11  2  0
 11 12  1  0
 12 13  2  0
 13 14  1  0
 14 15  1  0
 15 16  1  0
 16 17  1  0
 17 18  2  0
 17 19  1  0
 19 20  1  0
 20 21  2  0
 21 22  1  0
 22 23  2  0
 23 24  1  0
 24 25  2  0
 13 26  1  0
 26 27  2  0
  9 28  2  0
 28 29  1  0
 29 30  1  0
 30 31  1  0
 31 32  1  0
 32 33  1  0
 30 34  1  0
 34 35  2  0
 34  4  1  0
 29  7  2  0
 27 10  1  0
 25 20  1  0
  1 36  1  0
  1 37  1  0
  1 38  1  0
  2 39  1  0
  2 40  1  0
  3 41  1  0
  3 42  1  0
  8 43  1  0
 11 44  1  0
 12 45  1  0
 14 46  1  0
 14 47  1  0
 15 48  1  0
 15 49  1  0
 19 50  1  0
 19 51  1  0
 21 52  1  0
 22 53  1  0
 23 54  1  0
 24 55  1  0
 25 56  1  0
 26 57  1  0
 27 58  1  0
 28 59  1  0
 31 60  1  0
 31 61  1  0
 32 62  1  0
 32 63  1  0
 33 64  1  0
 33 65  1  0
 33 66  1  0
M  CHG  2  16  -1  24   1
M  END
>  <UniqueID>  (49) 
42

>  <SMILES>  (49) 
CCCn1c(=O)c2[nH]c(-c3ccc(CC[N-]C(=O)Cc4ccc[nH+]c4)cc3)cc2n(CCC)c1=O

>  <Energy>  (49) 
96.55577675056395

>  <Genealogy>  (49) 
CCCn1c(=O)c2[nH]c(-c3ccc(CC[N-]C(=O)Cc4ccc[nH+]c4)cc3)cc2n(CCC)c1=O (protonated)
CCCn1c(=O)c2[nH]c(-c3ccc(CC[N-]C(=O)Cc4ccc[nH+]c4)cc3)cc2n(CCC)c1=O (3D coordinates assigned)
CCCn1c(=O)c2[nH]c(-c3ccc(CC[N-]C(=O)Cc4ccc[nH+]c4)cc3)cc2n(CCC)c1=O (optimized conformer: 96.55577675056395 kcal/mol)

>  <smiles>  (49) 
CCCn1c(=O)c2[nH]c(-c3ccc(CCNC(=O)Cc4cccnc4)cc3)cc2n(CCC)c1=O

>  <score_type>  (49) 
oracle

>  <origin>  (49) 
adg

>  <m_score__min__energy>  (49) 
-9.1899999999999995

>  <m_primary>  (49) 
energy

$$$$
49:0
     RDKit          3D

 52 54  0  0  0  0  0  0  0  0999 V2000
   55.7830   24.0220   44.2990 C   0  0  0  0  0  0  0  0  0  0  0  0
   57.0830   24.7990   44.0860 C   0  0  0  0  0  0  0  0  0  0  0  0
   57.9730   24.8260   45.2640 N   0  0  0  0  0  0  0  0  0  0  0  0
   58.6530   23.5760   45.6590 C   0  0  0  0  0  0  0  0  0  0  0  0
   58.7090   22.5200   44.5510 C   0  0  0  0  0  0  0  0  0  0  0  0
   57.5310   25.9380   46.5410 S   0  0  0  0  0  0  0  0  0  0  0  0
   56.0800   26.3030   46.3920 O   0  0  0  0  0  0  0  0  0  0  0  0
   57.7010   25.2560   47.8690 O   0  0  0  0  0  0  0  0  0  0  0  0
   58.5120   27.4070   46.5390 C   0  0  0  0  0  0  0  0  0  0  0  0
   59.3170   27.7100   45.4330 C   0  0  0  0  0  0  0  0  0  0  0  0
   60.0770   28.8810   45.4150 C   0  0  0  0  0  0  0  0  0  0  0  0
   60.0710   29.7460   46.5230 C   0  0  0  0  0  0  0  0  0  0  0  0
   60.8080   30.9380   46.5320 O   0  0  0  0  0  0  0  0  0  0  0  0
   60.3400   32.1370   47.0830 C   0  0  0  0  0  0  0  0  0  0  0  0
   60.9480   32.6130   48.2500 C   0  0  0  0  0  0  0  0  0  0  0  0
   60.5610   33.8350   48.8030 C   0  0  0  0  0  0  0  0  0  0  0  0
   59.5520   34.5860   48.1990 C   0  0  0  0  0  0  0  0  0  0  0  0
   58.9120   34.1080   47.0540 C   0  0  0  0  0  0  0  0  0  0  0  0
   59.2810   32.8720   46.4900 C   0  0  0  0  0  0  0  0  0  0  0  0
   58.5130   32.3450   45.3350 C   0  0  0  0  0  0  0  0  0  0  0  0
   58.4920   32.9600   44.0820 C   0  0  0  0  0  0  0  0  0  0  0  0
   57.5650   32.0220   43.0390 S   0  0  0  0  0  0  0  0  0  0  0  0
   57.1920   30.8290   44.1570 C   0  0  0  0  0  0  0  0  0  0  0  0
   56.2900   29.3700   43.7880 S   0  0  0  0  0  0  0  0  0  0  0  0
   55.9480   28.4840   45.2340 N   0  0  0  0  0  0  0  0  0  0  0  0
   54.9960   29.7390   43.1200 O   0  0  0  0  0  0  0  0  0  0  0  0
   57.1000   28.5070   42.8630 O   0  0  0  0  0  0  0  0  0  0  0  0
   57.7880   31.1400   45.3700 C   0  0  0  0  0  0  0  0  0  0  0  0
   59.3160   29.4090   47.6520 C   0  0  0  0  0  0  0  0  0  0  0  0
   58.5340   28.2510   47.6580 C   0  0  0  0  0  0  0  0  0  0  0  0
   55.5953   23.9098   45.3770 H   0  0  0  0  0  0  0  0  0  0  0  0
   54.9486   24.5696   43.8366 H   0  0  0  0  0  0  0  0  0  0  0  0
   55.8701   23.0277   43.8366 H   0  0  0  0  0  0  0  0  0  0  0  0
   57.6293   24.3349   43.2517 H   0  0  0  0  0  0  0  0  0  0  0  0
   56.7978   25.8416   43.8818 H   0  0  0  0  0  0  0  0  0  0  0  0
   59.6835   23.8216   45.9551 H   0  0  0  0  0  0  0  0  0  0  0  0
   58.0674   23.1419   46.4828 H   0  0  0  0  0  0  0  0  0  0  0  0
   58.7621   21.5180   45.0018 H   0  0  0  0  0  0  0  0  0  0  0  0
   57.8057   22.5942   43.9277 H   0  0  0  0  0  0  0  0  0  0  0  0
   59.5994   22.6894   43.9277 H   0  0  0  0  0  0  0  0  0  0  0  0
   59.3504   27.0223   44.5751 H   0  0  0  0  0  0  0  0  0  0  0  0
   60.6827   29.1276   44.5305 H   0  0  0  0  0  0  0  0  0  0  0  0
   61.7370   32.0197   48.7354 H   0  0  0  0  0  0  0  0  0  0  0  0
   61.0516   34.2059   49.7150 H   0  0  0  0  0  0  0  0  0  0  0  0
   59.2602   35.5568   48.6259 H   0  0  0  0  0  0  0  0  0  0  0  0
   58.1122   34.7025   46.5883 H   0  0  0  0  0  0  0  0  0  0  0  0
   58.9976   33.9013   43.8206 H   0  0  0  0  0  0  0  0  0  0  0  0
   56.7770   27.8820   45.4330 H   0  0  0  0  0  0  0  0  0  0  0  0
   55.1520   27.8430   45.0210 H   0  0  0  0  0  0  0  0  0  0  0  0
   57.7026   30.5093   46.2672 H   0  0  0  0  0  0  0  0  0  0  0  0
   59.3382   30.0589   48.5392 H   0  0  0  0  0  0  0  0  0  0  0  0
   57.9331   28.0006   48.5447 H   0  0  0  0  0  0  0  0  0  0  0  0
  1  2  1  0
  2  3  1  0
  3  4  1  0
  4  5  1  0
  3  6  1  0
  6  7  2  0
  6  8  2  0
  6  9  1  0
  9 10  2  0
 10 11  1  0
 11 12  2  0
 12 13  1  0
 13 14  1  0
 14 15  2  0
 15 16  1  0
 16 17  2  0
 17 18  1  0
 18 19  2  0
 19 20  1  0
 20 21  2  0
 21 22  1  0
 22 23  1  0
 23 24  1  0
 24 25  1  0
 24 26  2  0
 24 27  2  0
 23 28  2  0
 12 29  1  0
 29 30  2  0
 30  9  1  0
 19 14  1  0
 28 20  1  0
  1 31  1  0
  1 32  1  0
  1 33  1  0
  2 34  1  0
  2 35  1  0
  4 36  1  0
  4 37  1  0
  5 38  1  0
  5 39  1  0
  5 40  1  0
 10 41  1  0
 11 42  1  0
 15 43  1  0
 16 44  1  0
 17 45  1  0
 18 46  1  0
 21 47  1  0
 25 48  1  0
 25 49  1  0
 28 50  1  0
 29 51  1  0
 30 52  1  0
M  END
>  <UniqueID>  (50) 
43

>  <SMILES>  (50) 
CCN(CC)S(=O)(=O)c1ccc(Oc2ccccc2-c2csc(S(N)(=O)=O)c2)cc1

>  <Energy>  (50) 
93.97892208171574

>  <Genealogy>  (50) 
CCN(CC)S(=O)(=O)c1ccc(Oc2ccccc2-c2csc(S(N)(=O)=O)c2)cc1 (3D coordinates assigned)
CCN(CC)S(=O)(=O)c1ccc(Oc2ccccc2-c2csc(S(N)(=O)=O)c2)cc1 (optimized conformer: 93.97892208171574 kcal/mol)

>  <smiles>  (50) 
CCN(CC)S(=O)(=O)c1ccc(Oc2ccccc2-c2csc(S(N)(=O)=O)c2)cc1

>  <score_type>  (50) 
oracle

>  <origin>  (50) 
adg

>  <m_score__min__energy>  (50) 
-9.8599999999999994

>  <m_primary>  (50) 
energy

$$$$
50:0
     RDKit          3D

 28 29  0  0  0  0  0  0  0  0999 V2000
   59.2500   34.2220   44.8570 C   0  0  0  0  0  0  0  0  0  0  0  0
   58.0850   33.3830   45.2890 C   0  0  0  0  0  0  0  0  0  0  0  0
   57.4660   33.7130   46.3370 O   0  0  0  0  0  0  0  0  0  0  0  0
   57.6510   32.1840   44.5210 C   0  0  0  0  0  0  0  0  0  0  0  0
   57.4600   32.2400   43.1260 C   0  0  0  0  0  0  0  0  0  0  0  0
   57.0320   31.1120   42.4240 C   0  0  0  0  0  0  0  0  0  0  0  0
   56.8010   29.9110   43.0960 C   0  0  0  0  0  0  0  0  0  0  0  0
   57.0100   29.8210   44.4780 C   0  0  0  0  0  0  0  0  0  0  0  0
   56.7420   28.5790   45.1480 N   0  0  0  0  0  0  0  0  0  0  0  0
   57.5780   28.0260   46.1830 C   0  0  0  0  0  0  0  0  0  0  0  0
   58.5720   28.6710   46.6090 O   0  0  0  0  0  0  0  0  0  0  0  0
   57.2790   26.7560   46.7800 N   0  0  0  0  0  0  0  0  0  0  0  0
   56.3740   25.9160   46.3750 C   0  0  0  0  0  0  0  0  0  0  0  0
   55.1220   26.2630   46.0020 N   0  0  0  0  0  0  0  0  0  0  0  0
   54.4120   25.1830   45.5800 C   0  0  0  0  0  0  0  0  0  0  0  0
   55.1020   23.9770   45.6060 C   0  0  0  0  0  0  0  0  0  0  0  0
   56.6580   24.2740   46.1770 S   0  0  0  0  0  0  0  0  0  0  0  0
   57.4140   30.9660   45.1880 C   0  0  0  0  0  0  0  0  0  0  0  0
   59.7774   34.6018   45.7445 H   0  0  0  0  0  0  0  0  0  0  0  0
   59.9385   33.6111   44.2548 H   0  0  0  0  0  0  0  0  0  0  0  0
   58.8888   35.0687   44.2548 H   0  0  0  0  0  0  0  0  0  0  0  0
   57.6496   33.1796   42.5863 H   0  0  0  0  0  0  0  0  0  0  0  0
   56.8762   31.1700   41.3366 H   0  0  0  0  0  0  0  0  0  0  0  0
   56.4528   29.0299   42.5371 H   0  0  0  0  0  0  0  0  0  0  0  0
   55.9190   28.0290   44.8160 H   0  0  0  0  0  0  0  0  0  0  0  0
   53.3677   25.2583   45.2427 H   0  0  0  0  0  0  0  0  0  0  0  0
   54.7010   22.9977   45.3055 H   0  0  0  0  0  0  0  0  0  0  0  0
   57.5467   30.9097   46.2785 H   0  0  0  0  0  0  0  0  0  0  0  0
  1  2  1  0
  2  3  2  0
  2  4  1  0
  4  5  2  0
  5  6  1  0
  6  7  2  0
  7  8  1  0
  8  9  1  0
  9 10  1  0
 10 11  2  0
 10 12  1  0
 12 13  2  3
 13 14  1  0
 14 15  1  0
 15 16  2  0
 16 17  1  0
  8 18  2  0
 18  4  1  0
 17 13  1  0
  1 19  1  0
  1 20  1  0
  1 21  1  0
  5 22  1  0
  6 23  1  0
  7 24  1  0
  9 25  1  0
 15 26  1  0
 16 27  1  0
 18 28  1  0
M  CHG  1  14  -1
M  END
>  <UniqueID>  (51) 
44

>  <SMILES>  (51) 
CC(=O)c1cccc(NC(=O)N=c2[n-]ccs2)c1

>  <Energy>  (51) 
67.66179486537638

>  <Genealogy>  (51) 
CC(=O)c1cccc(NC(=O)N=c2[n-]ccs2)c1 (protonated)
CC(=O)c1cccc(NC(=O)N=c2[n-]ccs2)c1 (3D coordinates assigned)
CC(=O)c1cccc(NC(=O)N=c2[n-]ccs2)c1 (optimized conformer: 67.66179486537638 kcal/mol)

>  <smiles>  (51) 
CC(=O)c1cccc(NC(=O)N=c2[nH]ccs2)c1

>  <score_type>  (51) 
oracle

>  <origin>  (51) 
adg

>  <m_score__min__energy>  (51) 
-8.3900000000000006

>  <m_primary>  (51) 
energy

$$$$
51:0
     RDKit          3D

 44 46  0  0  0  0  0  0  0  0999 V2000
   61.8170   32.9890   47.7010 C   0  0  0  0  0  0  0  0  0  0  0  0
   61.1970   31.6280   47.8820 C   0  0  0  0  0  0  0  0  0  0  0  0
   61.2210   30.7140   46.8150 C   0  0  0  0  0  0  0  0  0  0  0  0
   60.6410   29.4500   46.9480 C   0  0  0  0  0  0  0  0  0  0  0  0
   60.0240   29.0730   48.1430 C   0  0  0  0  0  0  0  0  0  0  0  0
   59.4650   27.7850   48.2220 O   0  0  0  0  0  0  0  0  0  0  0  0
   59.1530   26.9520   47.1050 C   0  0  0  0  0  0  0  0  0  0  0  0
   57.9280   27.4450   46.3970 C   0  0  0  0  0  0  0  0  0  0  0  0
   57.7800   28.6780   45.7990 C   0  0  0  0  0  0  0  0  0  0  0  0
   56.4930   28.6490   45.2950 C   0  0  0  0  0  0  0  0  0  0  0  0
   55.7870   29.7170   44.5560 C   0  0  0  0  0  0  0  0  0  0  0  0
   54.7610   29.4060   43.8970 O   0  0  0  0  0  0  0  0  0  0  0  0
   56.2440   31.0750   44.4980 N   0  0  0  0  0  0  0  0  0  0  0  0
   57.5750   31.5290   44.1180 C   0  0  0  0  0  0  0  0  0  0  0  0
   58.0280   32.5940   45.0770 C   0  0  0  0  0  0  0  0  0  0  0  0
   58.7360   33.7130   44.6070 C   0  0  0  0  0  0  0  0  0  0  0  0
   59.1840   34.6880   45.5050 C   0  0  0  0  0  0  0  0  0  0  0  0
   58.9360   34.5480   46.8740 C   0  0  0  0  0  0  0  0  0  0  0  0
   58.2480   33.4280   47.3500 C   0  0  0  0  0  0  0  0  0  0  0  0
   57.7990   32.4500   46.4560 C   0  0  0  0  0  0  0  0  0  0  0  0
   55.9110   27.4790   45.6230 N   0  0  0  0  0  0  0  0  0  0  0  0
   56.7850   26.7440   46.2930 N   0  0  0  0  0  0  0  0  0  0  0  0
   59.9880   29.9840   49.2150 C   0  0  0  0  0  0  0  0  0  0  0  0
   60.5670   31.2610   49.0950 C   0  0  0  0  0  0  0  0  0  0  0  0
   60.5200   32.2070   50.2670 C   0  0  0  0  0  0  0  0  0  0  0  0
   62.0196   33.4336   48.6865 H   0  0  0  0  0  0  0  0  0  0  0  0
   62.7594   32.8912   47.1422 H   0  0  0  0  0  0  0  0  0  0  0  0
   61.1247   33.6359   47.1422 H   0  0  0  0  0  0  0  0  0  0  0  0
   61.7009   30.9963   45.8663 H   0  0  0  0  0  0  0  0  0  0  0  0
   60.6705   28.7453   46.1039 H   0  0  0  0  0  0  0  0  0  0  0  0
   60.0007   26.9568   46.4040 H   0  0  0  0  0  0  0  0  0  0  0  0
   58.9621   25.9318   47.4694 H   0  0  0  0  0  0  0  0  0  0  0  0
   58.5145   29.4945   45.7372 H   0  0  0  0  0  0  0  0  0  0  0  0
   58.2759   30.6819   44.1515 H   0  0  0  0  0  0  0  0  0  0  0  0
   57.5477   31.9388   43.0975 H   0  0  0  0  0  0  0  0  0  0  0  0
   58.9384   33.8227   43.5314 H   0  0  0  0  0  0  0  0  0  0  0  0
   59.7323   35.5662   45.1334 H   0  0  0  0  0  0  0  0  0  0  0  0
   59.2826   35.3198   47.5770 H   0  0  0  0  0  0  0  0  0  0  0  0
   58.0596   33.3156   48.4279 H   0  0  0  0  0  0  0  0  0  0  0  0
   57.2650   31.5656   46.8337 H   0  0  0  0  0  0  0  0  0  0  0  0
   59.5014   29.6944   50.1581 H   0  0  0  0  0  0  0  0  0  0  0  0
   60.5486   31.6316   51.2040 H   0  0  0  0  0  0  0  0  0  0  0  0
   61.3856   32.8846   50.2262 H   0  0  0  0  0  0  0  0  0  0  0  0
   59.5915   32.7954   50.2262 H   0  0  0  0  0  0  0  0  0  0  0  0
  1  2  1  0
  2  3  2  0
  3  4  1  0
  4  5  2  0
  5  6  1  0
  6  7  1  0
  7  8  1  0
  8  9  2  0
  9 10  1  0
 10 11  1  0
 11 12  2  0
 11 13  1  0
 13 14  1  0
 14 15  1  0
 15 16  2  0
 16 17  1  0
 17 18  2  0
 18 19  1  0
 19 20  2  0
 10 21  2  0
 21 22  1  0
  5 23  1  0
 23 24  2  0
 24 25  1  0
 24  2  1  0
 22  8  1  0
 20 15  1  0
  1 26  1  0
  1 27  1  0
  1 28  1  0
  3 29  1  0
  4 30  1  0
  7 31  1  0
  7 32  1  0
  9 33  1  0
 14 34  1  0
 14 35  1  0
 16 36  1  0
 17 37  1  0
 18 38  1  0
 19 39  1  0
 20 40  1  0
 23 41  1  0
 25 42  1  0
 25 43  1  0
 25 44  1  0
M  CHG  2  13  -1  22  -1
M  END
>  <UniqueID>  (52) 
45

>  <SMILES>  (52) 
Cc1ccc(OCc2cc(C(=O)[N-]Cc3ccccc3)n[n-]2)cc1C

>  <Energy>  (52) 
75.54953393528436

>  <Genealogy>  (52) 
Cc1ccc(OCc2cc(C(=O)[N-]Cc3ccccc3)n[n-]2)cc1C (protonated)
Cc1ccc(OCc2cc(C(=O)[N-]Cc3ccccc3)n[n-]2)cc1C (3D coordinates assigned)
Cc1ccc(OCc2cc(C(=O)[N-]Cc3ccccc3)n[n-]2)cc1C (optimized conformer: 75.54953393528436 kcal/mol)

>  <smiles>  (52) 
Cc1ccc(OCc2cc(C(=O)NCc3ccccc3)n[nH]2)cc1C

>  <score_type>  (52) 
oracle

>  <origin>  (52) 
adg

>  <m_score__min__energy>  (52) 
-12.130000000000001

>  <m_primary>  (52) 
energy

$$$$
52:0
     RDKit          3D

 48 49  0  0  0  0  0  0  0  0999 V2000
   57.8130   26.6630   43.9410 C   0  0  0  0  0  0  0  0  0  0  0  0
   59.0270   27.4020   44.0230 O   0  0  0  0  0  0  0  0  0  0  0  0
   59.3050   28.3470   45.0170 C   0  0  0  0  0  0  0  0  0  0  0  0
   58.3390   28.7720   45.9470 C   0  0  0  0  0  0  0  0  0  0  0  0
   58.6820   29.6850   46.9480 C   0  0  0  0  0  0  0  0  0  0  0  0
   59.9870   30.1920   47.0330 C   0  0  0  0  0  0  0  0  0  0  0  0
   60.3810   31.1050   48.1620 C   0  0  0  0  0  0  0  0  0  0  0  0
   60.2640   32.5470   47.7300 C   0  0  0  0  0  0  0  0  0  0  0  0
   59.6450   33.3180   48.4550 O   0  0  0  0  0  0  0  0  0  0  0  0
   60.8170   33.0410   46.4750 N   0  0  2  0  0  0  0  0  0  0  0  0
   61.9960   33.8860   46.7410 C   0  0  0  0  0  0  0  0  0  0  0  0
   59.8320   33.7680   45.6440 C   0  0  0  0  0  0  0  0  0  0  0  0
   58.6600   32.9170   45.2220 C   0  0  0  0  0  0  0  0  0  0  0  0
   58.5070   32.1830   44.0590 C   0  0  0  0  0  0  0  0  0  0  0  0
   57.2720   31.6480   44.0580 N   0  0  0  0  0  0  0  0  0  0  0  0
   56.7090   30.7910   43.0190 C   0  0  0  0  0  0  0  0  0  0  0  0
   56.0590   29.5390   43.6260 C   0  0  0  0  0  0  0  0  0  0  0  0
   55.3450   29.8320   44.8670 N   0  0  0  0  0  0  0  0  0  0  0  0
   56.6070   32.0320   45.1360 N   0  0  0  0  0  0  0  0  0  0  0  0
   57.4360   32.8120   45.8610 C   0  0  0  0  0  0  0  0  0  0  0  0
   57.0360   33.4870   47.1330 C   0  0  0  0  0  0  0  0  0  0  0  0
   60.9360   29.7930   46.0830 C   0  0  0  0  0  0  0  0  0  0  0  0
   60.6000   28.8740   45.0880 C   0  0  0  0  0  0  0  0  0  0  0  0
   57.4493   26.4416   44.9553 H   0  0  0  0  0  0  0  0  0  0  0  0
   57.0588   27.2554   43.4022 H   0  0  0  0  0  0  0  0  0  0  0  0
   57.9928   25.7210   43.4022 H   0  0  0  0  0  0  0  0  0  0  0  0
   57.3112   28.3848   45.8862 H   0  0  0  0  0  0  0  0  0  0  0  0
   57.9225   30.0085   47.6750 H   0  0  0  0  0  0  0  0  0  0  0  0
   59.7174   30.9279   49.0213 H   0  0  0  0  0  0  0  0  0  0  0  0
   61.4237   30.8979   48.4445 H   0  0  0  0  0  0  0  0  0  0  0  0
   61.1620   32.2240   45.9100 H   0  0  0  0  0  0  0  0  0  0  0  0
   62.1371   33.9871   47.8272 H   0  0  0  0  0  0  0  0  0  0  0  0
   62.8884   33.4206   46.2971 H   0  0  0  0  0  0  0  0  0  0  0  0
   61.8420   34.8806   46.2971 H   0  0  0  0  0  0  0  0  0  0  0  0
   59.4518   34.6232   46.2220 H   0  0  0  0  0  0  0  0  0  0  0  0
   60.3509   34.0838   44.7269 H   0  0  0  0  0  0  0  0  0  0  0  0
   59.2643   32.0582   43.2710 H   0  0  0  0  0  0  0  0  0  0  0  0
   55.9479   31.3560   42.4608 H   0  0  0  0  0  0  0  0  0  0  0  0
   57.5224   30.4727   42.3504 H   0  0  0  0  0  0  0  0  0  0  0  0
   55.3474   29.1216   42.8984 H   0  0  0  0  0  0  0  0  0  0  0  0
   56.8606   28.8229   43.8596 H   0  0  0  0  0  0  0  0  0  0  0  0
   56.0370   30.0060   45.6340 H   0  0  0  0  0  0  0  0  0  0  0  0
   54.7890   30.7070   44.7450 H   0  0  0  0  0  0  0  0  0  0  0  0
   57.3879   32.8932   47.9895 H   0  0  0  0  0  0  0  0  0  0  0  0
   57.4855   34.4902   47.1728 H   0  0  0  0  0  0  0  0  0  0  0  0
   55.9402   33.5744   47.1728 H   0  0  0  0  0  0  0  0  0  0  0  0
   61.9542   30.2074   46.1216 H   0  0  0  0  0  0  0  0  0  0  0  0
   61.3579   28.5616   44.3545 H   0  0  0  0  0  0  0  0  0  0  0  0
  1  2  1  0
  2  3  1  0
  3  4  2  0
  4  5  1  0
  5  6  2  0
  6  7  1  0
  7  8  1  0
  8  9  2  0
  8 10  1  0
 10 11  1  0
 10 12  1  0
 12 13  1  0
 13 14  2  0
 14 15  1  0
 15 16  1  0
 16 17  1  0
 17 18  1  0
 15 19  1  0
 19 20  2  0
 20 21  1  0
  6 22  1  0
 22 23  2  0
 23  3  1  0
 20 13  1  0
  1 24  1  0
  1 25  1  0
  1 26  1  0
  4 27  1  0
  5 28  1  0
  7 29  1  0
  7 30  1  0
 10 31  1  6
 11 32  1  0
 11 33  1  0
 11 34  1  0
 12 35  1  0
 12 36  1  0
 14 37  1  0
 16 38  1  0
 16 39  1  0
 17 40  1  0
 17 41  1  0
 18 42  1  0
 18 43  1  0
 21 44  1  0
 21 45  1  0
 21 46  1  0
 22 47  1  0
 23 48  1  0
M  CHG  1  10   1
M  END
>  <UniqueID>  (53) 
46

>  <SMILES>  (53) 
COc1ccc(CC(=O)[N@H+](C)Cc2cn(CCN)nc2C)cc1

>  <Energy>  (53) 
69.31941836482272

>  <Genealogy>  (53) 
COc1ccc(CC(=O)[NH+](C)Cc2cn(CCN)nc2C)cc1 (protonated)
COc1ccc(CC(=O)[N@H+](C)Cc2cn(CCN)nc2C)cc1 (chirality)
COc1ccc(CC(=O)[N@H+](C)Cc2cn(CCN)nc2C)cc1 (3D coordinates assigned)
COc1ccc(CC(=O)[N@H+](C)Cc2cn(CCN)nc2C)cc1 (optimized conformer: 69.31941836482272 kcal/mol)

>  <smiles>  (53) 
COc1ccc(CC(=O)N(C)Cc2cn(CCN)nc2C)cc1

>  <score_type>  (53) 
oracle

>  <origin>  (53) 
adg

>  <m_score__min__energy>  (53) 
-6.6900000000000004

>  <m_primary>  (53) 
energy

$$$$
53:0
     RDKit          3D

 44 46  0  0  0  0  0  0  0  0999 V2000
   58.0490   26.0110   46.3320 C   0  0  0  0  0  0  0  0  0  0  0  0
   58.8610   27.2710   46.3940 C   0  0  0  0  0  0  0  0  0  0  0  0
   59.5790   27.7010   45.2690 C   0  0  0  0  0  0  0  0  0  0  0  0
   60.3060   28.8910   45.3110 C   0  0  0  0  0  0  0  0  0  0  0  0
   60.3150   29.6720   46.4700 C   0  0  0  0  0  0  0  0  0  0  0  0
   61.0260   30.8300   46.4920 N   0  0  0  0  0  0  0  0  0  0  0  0
   61.0600   31.6310   47.5860 C   0  0  0  0  0  0  0  0  0  0  0  0
   62.0140   33.1480   47.5390 S   0  0  0  0  0  0  0  0  0  0  0  0
   60.6780   34.1480   46.7940 C   0  0  0  0  0  0  0  0  0  0  0  0
   59.3860   34.0210   47.5580 C   0  0  0  0  0  0  0  0  0  0  0  0
   59.2770   34.6060   48.6680 O   0  0  0  0  0  0  0  0  0  0  0  0
   58.3000   33.2020   47.1030 N   0  0  0  0  0  0  0  0  0  0  0  0
   58.0920   32.7390   45.7640 C   0  0  0  0  0  0  0  0  0  0  0  0
   58.5940   33.4940   44.6970 C   0  0  0  0  0  0  0  0  0  0  0  0
   58.4170   33.0580   43.3820 C   0  0  0  0  0  0  0  0  0  0  0  0
   57.7530   31.8570   43.1250 C   0  0  0  0  0  0  0  0  0  0  0  0
   57.2690   31.0790   44.1850 C   0  0  0  0  0  0  0  0  0  0  0  0
   56.4660   29.5460   43.8670 S   0  0  0  0  0  0  0  0  0  0  0  0
   55.5290   29.0930   45.2460 N   0  0  0  0  0  0  0  0  0  0  0  0
   55.5670   29.6830   42.6700 O   0  0  0  0  0  0  0  0  0  0  0  0
   57.4900   28.4830   43.5830 O   0  0  0  0  0  0  0  0  0  0  0  0
   57.4550   31.5150   45.5040 C   0  0  0  0  0  0  0  0  0  0  0  0
   60.3600   31.2740   48.7390 C   0  0  0  0  0  0  0  0  0  0  0  0
   59.6090   30.0880   48.7650 C   0  0  0  0  0  0  0  0  0  0  0  0
   58.8560   29.7270   50.0190 C   0  0  0  0  0  0  0  0  0  0  0  0
   59.5810   29.2650   47.6110 C   0  0  0  0  0  0  0  0  0  0  0  0
   58.8500   28.0600   47.5560 C   0  0  0  0  0  0  0  0  0  0  0  0
   57.8273   25.6670   47.3531 H   0  0  0  0  0  0  0  0  0  0  0  0
   57.1072   26.2076   45.7987 H   0  0  0  0  0  0  0  0  0  0  0  0
   58.6171   25.2345   45.7987 H   0  0  0  0  0  0  0  0  0  0  0  0
   59.5690   27.0975   44.3494 H   0  0  0  0  0  0  0  0  0  0  0  0
   60.8750   29.2162   44.4275 H   0  0  0  0  0  0  0  0  0  0  0  0
   60.9854   35.2042   46.7889 H   0  0  0  0  0  0  0  0  0  0  0  0
   60.5065   33.7790   45.7720 H   0  0  0  0  0  0  0  0  0  0  0  0
   59.1298   34.4340   44.8952 H   0  0  0  0  0  0  0  0  0  0  0  0
   58.8015   33.6621   42.5470 H   0  0  0  0  0  0  0  0  0  0  0  0
   57.6095   31.5207   42.0876 H   0  0  0  0  0  0  0  0  0  0  0  0
   54.5370   29.3430   45.0360 H   0  0  0  0  0  0  0  0  0  0  0  0
   57.0999   30.8948   46.3402 H   0  0  0  0  0  0  0  0  0  0  0  0
   60.3965   31.9216   49.6274 H   0  0  0  0  0  0  0  0  0  0  0  0
   59.4511   30.0123   50.8990 H   0  0  0  0  0  0  0  0  0  0  0  0
   57.8953   30.2624   50.0368 H   0  0  0  0  0  0  0  0  0  0  0  0
   58.6718   28.6427   50.0368 H   0  0  0  0  0  0  0  0  0  0  0  0
   58.2665   27.7355   48.4302 H   0  0  0  0  0  0  0  0  0  0  0  0
  1  2  1  0
  2  3  2  0
  3  4  1  0
  4  5  2  0
  5  6  1  0
  6  7  2  0
  7  8  1  0
  8  9  1  0
  9 10  1  0
 10 11  2  0
 10 12  1  0
 12 13  1  0
 13 14  2  0
 14 15  1  0
 15 16  2  0
 16 17  1  0
 17 18  1  0
 18 19  1  0
 18 20  2  0
 18 21  2  0
 17 22  2  0
  7 23  1  0
 23 24  2  0
 24 25  1  0
 24 26  1  0
 26 27  2  0
 27  2  1  0
 26  5  1  0
 22 13  1  0
  1 28  1  0
  1 29  1  0
  1 30  1  0
  3 31  1  0
  4 32  1  0
  9 33  1  0
  9 34  1  0
 14 35  1  0
 15 36  1  0
 16 37  1  0
 19 38  1  0
 22 39  1  0
 23 40  1  0
 25 41  1  0
 25 42  1  0
 25 43  1  0
 27 44  1  0
M  CHG  2  12  -1  19  -1
M  END
>  <UniqueID>  (54) 
47

>  <SMILES>  (54) 
Cc1ccc2nc(SCC(=O)[N-]c3cccc(S([NH-])(=O)=O)c3)cc(C)c2c1

>  <Energy>  (54) 
50.1621522221982

>  <Genealogy>  (54) 
Cc1ccc2nc(SCC(=O)[N-]c3cccc(S([NH-])(=O)=O)c3)cc(C)c2c1 (protonated)
Cc1ccc2nc(SCC(=O)[N-]c3cccc(S([NH-])(=O)=O)c3)cc(C)c2c1 (3D coordinates assigned)
Cc1ccc2nc(SCC(=O)[N-]c3cccc(S([NH-])(=O)=O)c3)cc(C)c2c1 (optimized conformer: 50.1621522221982 kcal/mol)

>  <smiles>  (54) 
Cc1ccc2nc(SCC(=O)Nc3cccc(S(N)(=O)=O)c3)cc(C)c2c1

>  <score_type>  (54) 
oracle

>  <origin>  (54) 
adg

>  <m_score__min__energy>  (54) 
-14.23

>  <m_primary>  (54) 
energy

$$$$
54:0
     RDKit          3D

 62 65  0  0  0  0  0  0  0  0999 V2000
   56.6600   29.3460   43.2110 C   0  0  0  0  0  0  0  0  0  0  0  0
   57.3750   30.3430   44.0720 C   0  0  0  0  0  0  0  0  0  0  0  0
   57.0390   31.7110   44.0010 C   0  0  0  0  0  0  0  0  0  0  0  0
   57.6760   32.6420   44.8320 C   0  0  0  0  0  0  0  0  0  0  0  0
   58.6450   32.1930   45.7370 C   0  0  0  0  0  0  0  0  0  0  0  0
   58.9700   30.8550   45.8150 C   0  0  0  0  0  0  0  0  0  0  0  0
   58.3410   29.9120   45.0010 C   0  0  0  0  0  0  0  0  0  0  0  0
   60.2580   30.4900   46.9940 S   0  0  0  0  0  0  0  0  0  0  0  0
   60.0560   32.1890   47.6050 C   0  0  0  0  0  0  0  0  0  0  0  0
   60.2470   32.5360   48.9090 C   0  0  0  0  0  0  0  0  0  0  0  0
   61.8040   32.8110   49.4800 S   0  0  0  0  0  0  0  0  0  0  0  0
   61.8600   33.2990   51.0780 C   0  0  0  0  0  0  0  0  0  0  0  0
   63.0760   33.4910   51.6330 C   0  0  0  0  0  0  0  0  0  0  0  0
   64.3090   32.7670   51.2590 C   0  0  0  0  0  0  0  0  0  0  0  0
   65.2610   33.4450   50.4850 C   0  0  0  0  0  0  0  0  0  0  0  0
   66.4450   32.8040   50.1300 C   0  0  0  0  0  0  0  0  0  0  0  0
   66.6710   31.4950   50.5420 C   0  0  0  0  0  0  0  0  0  0  0  0
   65.6980   30.8340   51.2920 C   0  0  0  0  0  0  0  0  0  0  0  0
   64.5220   31.4550   51.6200 N   0  0  0  0  0  0  0  0  0  0  0  0
   63.5200   30.7010   52.3880 C   0  0  0  0  0  0  0  0  0  0  0  0
   60.6210   33.4920   51.7260 C   0  0  0  0  0  0  0  0  0  0  0  0
   60.6310   33.9840   52.8900 O   0  0  0  0  0  0  0  0  0  0  0  0
   59.3970   33.1750   51.1470 N   0  0  0  0  0  0  0  0  0  0  0  0
   58.1970   33.3180   52.0160 C   0  0  0  0  0  0  0  0  0  0  0  0
   57.8530   31.9970   52.7290 C   0  0  0  0  0  0  0  0  0  0  0  0
   56.6870   31.2530   52.0610 C   0  0  0  0  0  0  0  0  0  0  0  0
   57.0400   29.8380   51.8210 N   0  0  0  0  0  0  0  0  0  0  0  0
   56.8670   29.0340   53.0450 C   0  0  0  0  0  0  0  0  0  0  0  0
   58.4360   29.7340   51.3640 C   0  0  0  0  0  0  0  0  0  0  0  0
   59.2010   32.7070   49.8500 C   0  0  0  0  0  0  0  0  0  0  0  0
   58.0340   32.3790   49.4980 O   0  0  0  0  0  0  0  0  0  0  0  0
   59.3210   33.0140   46.6820 N   0  0  0  0  0  0  0  0  0  0  0  0
   59.6060   34.4290   46.4240 C   0  0  0  0  0  0  0  0  0  0  0  0
   56.1379   28.6180   43.8493 H   0  0  0  0  0  0  0  0  0  0  0  0
   55.9288   29.8676   42.5759 H   0  0  0  0  0  0  0  0  0  0  0  0
   57.3885   28.8207   42.5759 H   0  0  0  0  0  0  0  0  0  0  0  0
   56.2720   32.0491   43.2887 H   0  0  0  0  0  0  0  0  0  0  0  0
   57.4185   33.7099   44.7741 H   0  0  0  0  0  0  0  0  0  0  0  0
   58.5968   28.8454   45.0842 H   0  0  0  0  0  0  0  0  0  0  0  0
   63.1553   34.2474   52.4277 H   0  0  0  0  0  0  0  0  0  0  0  0
   65.0735   34.4789   50.1595 H   0  0  0  0  0  0  0  0  0  0  0  0
   67.1986   33.3308   49.5261 H   0  0  0  0  0  0  0  0  0  0  0  0
   67.6094   30.9850   50.2786 H   0  0  0  0  0  0  0  0  0  0  0  0
   65.8775   29.8008   51.6242 H   0  0  0  0  0  0  0  0  0  0  0  0
   63.7030   30.8387   53.4639 H   0  0  0  0  0  0  0  0  0  0  0  0
   62.5137   31.0678   52.1373 H   0  0  0  0  0  0  0  0  0  0  0  0
   63.5938   29.6325   52.1373 H   0  0  0  0  0  0  0  0  0  0  0  0
   58.3945   34.0914   52.7729 H   0  0  0  0  0  0  0  0  0  0  0  0
   57.3437   33.5987   51.3810 H   0  0  0  0  0  0  0  0  0  0  0  0
   58.7404   31.3471   52.7145 H   0  0  0  0  0  0  0  0  0  0  0  0
   57.5473   32.2423   53.7568 H   0  0  0  0  0  0  0  0  0  0  0  0
   55.8056   31.2990   52.7176 H   0  0  0  0  0  0  0  0  0  0  0  0
   56.4685   31.7320   51.0952 H   0  0  0  0  0  0  0  0  0  0  0  0
   57.0051   29.6757   53.9277 H   0  0  0  0  0  0  0  0  0  0  0  0
   55.8554   28.6022   53.0602 H   0  0  0  0  0  0  0  0  0  0  0  0
   57.6115   28.2244   53.0602 H   0  0  0  0  0  0  0  0  0  0  0  0
   59.1046   29.6842   52.2361 H   0  0  0  0  0  0  0  0  0  0  0  0
   58.5564   28.8244   50.7573 H   0  0  0  0  0  0  0  0  0  0  0  0
   58.6898   30.6157   50.7573 H   0  0  0  0  0  0  0  0  0  0  0  0
   59.7133   34.9617   47.3804 H   0  0  0  0  0  0  0  0  0  0  0  0
   60.5397   34.5161   45.8490 H   0  0  0  0  0  0  0  0  0  0  0  0
   58.7788   34.8707   45.8490 H   0  0  0  0  0  0  0  0  0  0  0  0
  1  2  1  0
  2  3  2  0
  3  4  1  0
  4  5  2  0
  5  6  1  0
  6  7  2  0
  6  8  1  0
  8  9  1  0
  9 10  2  3
 10 11  1  0
 11 12  1  0
 12 13  2  3
 13 14  1  0
 14 15  2  0
 15 16  1  0
 16 17  2  0
 17 18  1  0
 18 19  2  0
 19 20  1  0
 12 21  1  0
 21 22  2  0
 21 23  1  0
 23 24  1  0
 24 25  1  0
 25 26  1  0
 26 27  1  0
 27 28  1  0
 27 29  1  0
 23 30  1  0
 30 31  2  0
  9 32  1  0
 32 33  1  0
  7  2  1  0
 30 10  1  0
 32  5  1  0
 19 14  1  0
  1 34  1  0
  1 35  1  0
  1 36  1  0
  3 37  1  0
  4 38  1  0
  7 39  1  0
 13 40  1  0
 15 41  1  0
 16 42  1  0
 17 43  1  0
 18 44  1  0
 20 45  1  0
 20 46  1  0
 20 47  1  0
 24 48  1  0
 24 49  1  0
 25 50  1  0
 25 51  1  0
 26 52  1  0
 26 53  1  0
 28 54  1  0
 28 55  1  0
 28 56  1  0
 29 57  1  0
 29 58  1  0
 29 59  1  0
 33 60  1  0
 33 61  1  0
 33 62  1  0
M  CHG  1  19   1
M  END
>  <UniqueID>  (55) 
48

>  <SMILES>  (55) 
Cc1ccc2c(c1)SC(=c1sc(=Cc3cccc[n+]3C)c(=O)n(CCCN(C)C)c1=O)N2C

>  <Energy>  (55) 
122.32995002527245

>  <Genealogy>  (55) 
Cc1ccc2c(c1)SC(=c1sc(=Cc3cccc[n+]3C)c(=O)n(CCCN(C)C)c1=O)N2C (3D coordinates assigned)
Cc1ccc2c(c1)SC(=c1sc(=Cc3cccc[n+]3C)c(=O)n(CCCN(C)C)c1=O)N2C (nonaromatic ring conformer: 122.32995002527245 kcal/mol)

>  <smiles>  (55) 
Cc1ccc2c(c1)SC(=c1sc(=Cc3cccc[n+]3C)c(=O)n(CCCN(C)C)c1=O)N2C

>  <score_type>  (55) 
oracle

>  <origin>  (55) 
adg

>  <m_score__min__energy>  (55) 
-7.7199999999999998

>  <m_primary>  (55) 
energy

$$$$
55:0
     RDKit          3D

 42 43  0  0  0  0  0  0  0  0999 V2000
   59.9710   27.9880   48.1730 C   0  0  0  0  0  0  0  0  0  0  0  0
   59.1550   27.4940   47.1150 O   0  0  0  0  0  0  0  0  0  0  0  0
   58.5700   28.2980   46.1260 C   0  0  0  0  0  0  0  0  0  0  0  0
   59.3260   29.1530   45.3060 C   0  0  0  0  0  0  0  0  0  0  0  0
   58.6980   29.9370   44.3350 C   0  0  0  0  0  0  0  0  0  0  0  0
   57.3060   29.8720   44.1530 C   0  0  0  0  0  0  0  0  0  0  0  0
   56.6410   30.7190   43.0920 C   0  0  0  0  0  0  0  0  0  0  0  0
   57.4370   31.9660   42.8120 C   0  0  0  0  0  0  0  0  0  0  0  0
   57.9170   32.1400   41.6620 O   0  0  0  0  0  0  0  0  0  0  0  0
   57.7240   32.9370   43.8270 N   0  0  0  0  0  0  0  0  0  0  0  0
   57.3050   32.8620   45.2240 C   0  0  0  0  0  0  0  0  0  0  0  0
   57.7660   34.1110   45.9730 C   0  0  0  0  0  0  0  0  0  0  0  0
   59.1020   33.8830   46.6350 C   0  0  0  0  0  0  0  0  0  0  0  0
   59.1760   33.6430   48.0160 C   0  0  0  0  0  0  0  0  0  0  0  0
   60.4140   33.4250   48.6290 C   0  0  0  0  0  0  0  0  0  0  0  0
   61.5880   33.4240   47.8650 C   0  0  0  0  0  0  0  0  0  0  0  0
   63.1600   33.2140   48.6310 S   0  0  0  0  0  0  0  0  0  0  0  0
   63.2770   31.6260   49.3020 N   0  0  0  0  0  0  0  0  0  0  0  0
   64.2400   33.4030   47.6030 O   0  0  0  0  0  0  0  0  0  0  0  0
   63.3470   34.2220   49.7300 O   0  0  0  0  0  0  0  0  0  0  0  0
   61.5140   33.6350   46.4830 C   0  0  0  0  0  0  0  0  0  0  0  0
   60.2790   33.8620   45.8700 C   0  0  0  0  0  0  0  0  0  0  0  0
   56.5480   29.0290   44.9910 C   0  0  0  0  0  0  0  0  0  0  0  0
   55.1630   28.9700   44.8740 O   0  0  0  0  0  0  0  0  0  0  0  0
   57.1810   28.2450   45.9600 C   0  0  0  0  0  0  0  0  0  0  0  0
   59.5221   27.7163   49.1398 H   0  0  0  0  0  0  0  0  0  0  0  0
   60.9756   27.5463   48.0981 H   0  0  0  0  0  0  0  0  0  0  0  0
   60.0454   29.0829   48.0981 H   0  0  0  0  0  0  0  0  0  0  0  0
   60.4178   29.2052   45.4293 H   0  0  0  0  0  0  0  0  0  0  0  0
   59.2987   30.6114   43.7071 H   0  0  0  0  0  0  0  0  0  0  0  0
   56.5561   30.1321   42.1656 H   0  0  0  0  0  0  0  0  0  0  0  0
   55.6463   31.0155   43.4562 H   0  0  0  0  0  0  0  0  0  0  0  0
   56.2083   32.7916   45.2726 H   0  0  0  0  0  0  0  0  0  0  0  0
   57.7557   31.9733   45.6900 H   0  0  0  0  0  0  0  0  0  0  0  0
   57.8551   34.9448   45.2611 H   0  0  0  0  0  0  0  0  0  0  0  0
   57.0251   34.3459   46.7514 H   0  0  0  0  0  0  0  0  0  0  0  0
   58.2561   33.6263   48.6189 H   0  0  0  0  0  0  0  0  0  0  0  0
   60.4659   33.2538   49.7144 H   0  0  0  0  0  0  0  0  0  0  0  0
   64.1220   31.6130   49.9140 H   0  0  0  0  0  0  0  0  0  0  0  0
   62.4320   33.6220   45.8771 H   0  0  0  0  0  0  0  0  0  0  0  0
   60.2288   34.0250   44.7833 H   0  0  0  0  0  0  0  0  0  0  0  0
   56.5815   27.5796   46.5986 H   0  0  0  0  0  0  0  0  0  0  0  0
  1  2  1  0
  2  3  1  0
  3  4  2  0
  4  5  1  0
  5  6  2  0
  6  7  1  0
  7  8  1  0
  8  9  2  0
  8 10  1  0
 10 11  1  0
 11 12  1  0
 12 13  1  0
 13 14  2  0
 14 15  1  0
 15 16  2  0
 16 17  1  0
 17 18  1  0
 17 19  2  0
 17 20  2  0
 16 21  1  0
 21 22  2  0
  6 23  1  0
 23 24  1  0
 23 25  2  0
 25  3  1  0
 22 13  1  0
  1 26  1  0
  1 27  1  0
  1 28  1  0
  4 29  1  0
  5 30  1  0
  7 31  1  0
  7 32  1  0
 11 33  1  0
 11 34  1  0
 12 35  1  0
 12 36  1  0
 14 37  1  0
 15 38  1  0
 18 39  1  0
 21 40  1  0
 22 41  1  0
 25 42  1  0
M  CHG  3  10  -1  18  -1  24  -1
M  END
>  <UniqueID>  (56) 
49

>  <SMILES>  (56) 
COc1ccc(CC(=O)[N-]CCc2ccc(S([NH-])(=O)=O)cc2)c([O-])c1

>  <Energy>  (56) 
32.83161800019292

>  <Genealogy>  (56) 
COc1ccc(CC(=O)[N-]CCc2ccc(S([NH-])(=O)=O)cc2)c([O-])c1 (protonated)
COc1ccc(CC(=O)[N-]CCc2ccc(S([NH-])(=O)=O)cc2)c([O-])c1 (3D coordinates assigned)
COc1ccc(CC(=O)[N-]CCc2ccc(S([NH-])(=O)=O)cc2)c([O-])c1 (optimized conformer: 32.83161800019292 kcal/mol)

>  <smiles>  (56) 
COc1ccc(CC(=O)NCCc2ccc(S(N)(=O)=O)cc2)c(O)c1

>  <score_type>  (56) 
oracle

>  <origin>  (56) 
adg

>  <m_score__min__energy>  (56) 
-13.4

>  <m_primary>  (56) 
energy

$$$$
56:0
     RDKit          3D

 37 38  0  0  0  0  0  0  0  0999 V2000
   57.4609   27.3696   47.1559 H   0  0  0  0  0  0  0  0  0  0  0  0
   57.4360   27.8230   46.1540 C   0  0  0  0  0  0  0  0  0  0  0  0
   57.0380   29.1120   46.0010 N   0  0  0  0  0  0  0  0  0  0  0  0
   56.9900   29.6930   44.7710 C   0  0  0  0  0  0  0  0  0  0  0  0
   56.6350   30.9350   44.6230 N   0  0  0  0  0  0  0  0  0  0  0  0
   57.3420   31.9430   43.8770 C   0  0  0  0  0  0  0  0  0  0  0  0
   58.0750   31.5850   42.6970 N   0  0  0  0  0  0  0  0  0  0  0  0
   58.2290   30.5860   42.4420 H   0  0  0  0  0  0  0  0  0  0  0  0
   58.5480   32.3160   42.1220 H   0  0  0  0  0  0  0  0  0  0  0  0
   57.4320   33.1610   44.3380 N   0  0  0  0  0  0  0  0  0  0  0  0
   56.9190   33.9250   43.8430 H   0  0  0  0  0  0  0  0  0  0  0  0
   58.2520   33.5470   45.4560 C   0  0  0  0  0  0  0  0  0  0  0  0
   59.1590   34.6050   45.3100 C   0  0  0  0  0  0  0  0  0  0  0  0
   59.2542   35.1117   44.3383 H   0  0  0  0  0  0  0  0  0  0  0  0
   59.9440   35.0220   46.3890 C   0  0  0  0  0  0  0  0  0  0  0  0
   60.6645   35.8426   46.2567 H   0  0  0  0  0  0  0  0  0  0  0  0
   59.8170   34.3970   47.6440 C   0  0  0  0  0  0  0  0  0  0  0  0
   60.5810   34.7690   48.7620 O   0  0  0  0  0  0  0  0  0  0  0  0
   61.7920   34.1430   49.1870 C   0  0  0  0  0  0  0  0  0  0  0  0
   61.5472   33.2636   49.8008 H   0  0  0  0  0  0  0  0  0  0  0  0
   62.3770   34.8677   49.7723 H   0  0  0  0  0  0  0  0  0  0  0  0
   62.6220   33.7000   47.9880 C   0  0  0  0  0  0  0  0  0  0  0  0
   63.5415   33.2092   48.3398 H   0  0  0  0  0  0  0  0  0  0  0  0
   62.0389   32.9932   47.3794 H   0  0  0  0  0  0  0  0  0  0  0  0
   62.8847   34.5779   47.3794 H   0  0  0  0  0  0  0  0  0  0  0  0
   58.8930   33.3550   47.7940 C   0  0  0  0  0  0  0  0  0  0  0  0
   58.7837   32.8598   48.7701 H   0  0  0  0  0  0  0  0  0  0  0  0
   58.1090   32.9390   46.7150 C   0  0  0  0  0  0  0  0  0  0  0  0
   57.3754   32.1308   46.8517 H   0  0  0  0  0  0  0  0  0  0  0  0
   57.3640   28.9780   43.6770 N   0  0  0  0  0  0  0  0  0  0  0  0
   57.7660   27.6830   43.7820 C   0  0  0  0  0  0  0  0  0  0  0  0
   58.1800   26.9280   42.5590 C   0  0  0  0  0  0  0  0  0  0  0  0
   58.6892   25.9994   42.8562 H   0  0  0  0  0  0  0  0  0  0  0  0
   57.2901   26.6829   41.9607 H   0  0  0  0  0  0  0  0  0  0  0  0
   58.8651   27.5465   41.9607 H   0  0  0  0  0  0  0  0  0  0  0  0
   57.8130   27.0750   45.0400 C   0  0  0  0  0  0  0  0  0  0  0  0
   58.1400   26.0303   45.1482 H   0  0  0  0  0  0  0  0  0  0  0  0
  1  2  1  0
  2  3  1  0
  3  4  1  0
  4  5  2  0
  5  6  1  0
  6  7  1  0
  7  8  1  0
  7  9  1  0
  6 10  2  0
 10 11  1  0
 10 12  1  0
 12 13  2  0
 13 14  1  0
 13 15  1  0
 15 16  1  0
 15 17  2  0
 17 18  1  0
 18 19  1  0
 19 20  1  0
 19 21  1  0
 19 22  1  0
 22 23  1  0
 22 24  1  0
 22 25  1  0
 17 26  1  0
 26 27  1  0
 26 28  2  0
 28 29  1  0
  4 30  1  0
 30 31  2  0
 31 32  1  0
 32 33  1  0
 32 34  1  0
 32 35  1  0
 31 36  1  0
 36 37  1  0
 36  2  2  0
 28 12  1  0
M  CHG  2   3  -1  10   1
M  END
>  <UniqueID>  (57) 
50

>  <SMILES>  (57) 
CCOc1ccc(/[NH+]=C(N)\N=c2\nc(C)cc[n-]2)cc1

>  <Energy>  (57) 
44.27122312622149

>  <Genealogy>  (57) 
CCOc1ccc([NH+]=C(N)N=c2nc(C)cc[n-]2)cc1 (protonated)
CCOc1ccc(/[NH+]=C(N)\N=c2\nc(C)cc[n-]2)cc1 (cis-trans isomerization)
CCOc1ccc(/[NH+]=C(N)\N=c2\nc(C)cc[n-]2)cc1 (3D coordinates assigned)
CCOc1ccc(/[NH+]=C(N)\N=c2\nc(C)cc[n-]2)cc1 (optimized conformer: 44.27122312622149 kcal/mol)

>  <smiles>  (57) 
CCOc1ccc(N=C(N)N=c2nc(C)cc[nH]2)cc1

>  <score_type>  (57) 
oracle

>  <origin>  (57) 
adg

>  <m_score__min__energy>  (57) 
-6.3600000000000003

>  <m_primary>  (57) 
energy

$$$$
57:0
     RDKit          3D

 62 65  0  0  1  0  0  0  0  0999 V2000
   61.9380   33.8480   46.4310 C   0  0  0  0  0  0  0  0  0  0  0  0
   63.4190   33.6110   46.4780 C   0  0  0  0  0  0  0  0  0  0  0  0
   63.9100   33.9840   47.7270 O   0  0  0  0  0  0  0  0  0  0  0  0
   64.0350   33.0800   48.7550 C   0  0  0  0  0  0  0  0  0  0  0  0
   63.0020   32.4740   49.4170 C   0  0  0  0  0  0  0  0  0  0  0  0
   63.2270   31.5740   50.4410 C   0  0  0  0  0  0  0  0  0  0  0  0
   62.2840   30.9990   51.0690 N   0  0  0  0  0  0  0  0  0  0  0  0
   61.3040   30.2100   50.4030 C   0  0  0  0  0  0  0  0  0  0  0  0
   61.1950   30.0780   49.0360 C   0  0  0  0  0  0  0  0  0  0  0  0
   60.1390   29.2410   48.7400 C   0  0  0  0  0  0  0  0  0  0  0  0
   59.6770   28.8330   47.4160 C   0  0  0  0  0  0  0  0  0  0  0  0
   60.4100   29.0970   46.3040 C   0  0  0  0  0  0  0  0  0  0  0  0
   59.9030   28.6770   45.0740 C   0  0  0  0  0  0  0  0  0  0  0  0
   58.7010   28.0120   44.9620 C   0  0  0  0  0  0  0  0  0  0  0  0
   58.1390   27.5550   43.6640 C   0  0  0  0  0  0  0  0  0  0  0  0
   57.2960   28.6160   43.2230 O   0  0  0  0  0  0  0  0  0  0  0  0
   57.1190   29.7890   43.9440 C   0  0  0  0  0  0  0  0  0  0  0  0
   56.0510   30.0400   44.5530 O   0  0  0  0  0  0  0  0  0  0  0  0
   58.2240   30.6990   43.9530 N   0  0  0  0  0  0  0  0  0  0  0  0
   58.2080   31.9350   44.6350 C   0  0  0  0  0  0  0  0  0  0  0  0
   57.6990   33.0530   44.0010 C   0  0  0  0  0  0  0  0  0  0  0  0
   57.6810   34.2770   44.6700 C   0  0  0  0  0  0  0  0  0  0  0  0
   58.1770   34.3320   45.9560 C   0  0  0  0  0  0  0  0  0  0  0  0
   58.6880   33.2210   46.6000 C   0  0  0  0  0  0  0  0  0  0  0  0
   59.3030   33.4250   48.2730 S   0  0  0  0  0  0  0  0  0  0  0  0
   58.5230   32.1610   49.3430 C   0  0  0  0  0  0  0  0  0  0  0  0
   58.7010   32.0320   45.9360 C   0  0  0  0  0  0  0  0  0  0  0  0
   57.9630   27.7490   46.1070 C   0  0  0  0  0  0  0  0  0  0  0  0
   58.4650   28.1660   47.3160 C   0  0  0  0  0  0  0  0  0  0  0  0
   59.6290   28.8810   49.9290 N   0  0  0  0  0  0  0  0  0  0  0  0
   60.3170   29.4530   50.9160 N   0  0  0  0  0  0  0  0  0  0  0  0
   64.4950   31.2900   50.7920 N   0  0  0  0  0  0  0  0  0  0  0  0
   65.5300   31.8890   50.1390 C   0  0  0  0  0  0  0  0  0  0  0  0
   66.8520   31.6230   50.4730 O   0  0  0  0  0  0  0  0  0  0  0  0
   67.2200   30.4920   51.2390 C   0  0  0  0  0  0  0  0  0  0  0  0
   65.2860   32.7600   49.1470 N   0  0  0  0  0  0  0  0  0  0  0  0
   61.5440   33.9110   47.4561 H   0  0  0  0  0  0  0  0  0  0  0  0
   61.7341   34.7902   45.9012 H   0  0  0  0  0  0  0  0  0  0  0  0
   61.4502   33.0165   45.9012 H   0  0  0  0  0  0  0  0  0  0  0  0
   63.6251   32.5441   46.3068 H   0  0  0  0  0  0  0  0  0  0  0  0
   63.9109   34.2097   45.6972 H   0  0  0  0  0  0  0  0  0  0  0  0
   61.9673   32.7091   49.1269 H   0  0  0  0  0  0  0  0  0  0  0  0
   61.8479   30.5640   48.2961 H   0  0  0  0  0  0  0  0  0  0  0  0
   61.3726   29.6251   46.3708 H   0  0  0  0  0  0  0  0  0  0  0  0
   60.4825   28.8837   44.1622 H   0  0  0  0  0  0  0  0  0  0  0  0
   58.9450   27.3761   42.9371 H   0  0  0  0  0  0  0  0  0  0  0  0
   57.5868   26.6093   43.7672 H   0  0  0  0  0  0  0  0  0  0  0  0
   59.1130   30.4620   43.4290 H   0  0  0  0  0  0  0  0  0  0  0  0
   57.3103   32.9779   42.9747 H   0  0  0  0  0  0  0  0  0  0  0  0
   57.2802   35.1782   44.1829 H   0  0  0  0  0  0  0  0  0  0  0  0
   58.1654   35.2947   46.4881 H   0  0  0  0  0  0  0  0  0  0  0  0
   58.6851   32.4237   50.3988 H   0  0  0  0  0  0  0  0  0  0  0  0
   57.4433   32.1215   49.1366 H   0  0  0  0  0  0  0  0  0  0  0  0
   58.9719   31.1782   49.1366 H   0  0  0  0  0  0  0  0  0  0  0  0
   59.1053   31.1372   46.4319 H   0  0  0  0  0  0  0  0  0  0  0  0
   57.0003   27.2200   46.0483 H   0  0  0  0  0  0  0  0  0  0  0  0
   57.8890   27.9650   48.2313 H   0  0  0  0  0  0  0  0  0  0  0  0
   58.8090   28.2410   50.0090 H   0  0  0  0  0  0  0  0  0  0  0  0
   67.1416   30.7329   52.3094 H   0  0  0  0  0  0  0  0  0  0  0  0
   66.5482   29.6540   51.0016 H   0  0  0  0  0  0  0  0  0  0  0  0
   68.2563   30.2098   51.0016 H   0  0  0  0  0  0  0  0  0  0  0  0
   66.1160   33.2090   48.6600 H   0  0  0  0  0  0  0  0  0  0  0  0
  1  2  1  0
  2  3  1  0
  3  4  1  0
  4  5  2  0
  5  6  1  0
  6  7  2  0
  7  8  1  0
  8  9  1  0
  9 10  2  0
 10 11  1  0
 11 12  2  0
 12 13  1  0
 13 14  2  0
 14 15  1  0
 15 16  1  0
 16 17  1  0
 17 18  2  0
 17 19  1  0
 19 20  1  0
 20 21  2  0
 21 22  1  0
 22 23  2  0
 23 24  1  0
 24 25  1  0
 25 26  1  0
 24 27  2  0
 14 28  1  0
 28 29  2  0
 10 30  1  0
 30 31  1  0
  6 32  1  0
 32 33  2  0
 33 34  1  0
 34 35  1  0
 33 36  1  0
 36  4  1  0
 31  8  2  0
 29 11  1  0
 27 20  1  0
  1 37  1  0
  1 38  1  0
  1 39  1  0
  2 40  1  0
  2 41  1  0
  5 42  1  0
  9 43  1  0
 12 44  1  0
 13 45  1  0
 15 46  1  0
 15 47  1  0
 19 48  1  0
 21 49  1  0
 22 50  1  0
 23 51  1  0
 26 52  1  0
 26 53  1  0
 26 54  1  0
 27 55  1  0
 28 56  1  0
 29 57  1  0
 30 58  1  0
 35 59  1  0
 35 60  1  0
 35 61  1  0
 36 62  1  0
M  END
>  <smiles>  (58) 
CCOc1cc(=Nc2cc(-c3ccc(COC(=O)Nc4cccc(SC)c4)cc3)[nH]n2)nc(OC)[nH]1

>  <score_type>  (58) 
oracle

>  <origin>  (58) 
adg

>  <m_score__min__energy>  (58) 
-8.8599999999999994

>  <m_primary>  (58) 
energy

$$$$
58:0
     RDKit          3D

 19 20  0  0  0  0  0  0  0  0999 V2000
   50.2100   32.7170   52.0570 O   0  0  0  0  0  0  0  0  0  0  0  0
   51.2150   32.3010   51.4210 C   0  0  0  0  0  0  0  0  0  0  0  0
   51.3890   32.6980   50.1000 O   0  0  0  0  0  0  0  0  0  0  0  0
   52.1960   31.4040   52.0720 C   0  0  0  0  0  0  0  0  0  0  0  0
   51.7940   30.5690   53.1260 C   0  0  0  0  0  0  0  0  0  0  0  0
   52.7210   29.7240   53.7400 C   0  0  0  0  0  0  0  0  0  0  0  0
   52.3490   28.9780   54.6870 O   0  0  0  0  0  0  0  0  0  0  0  0
   54.0520   29.7150   53.2950 C   0  0  0  0  0  0  0  0  0  0  0  0
   55.0320   28.8870   53.8700 C   0  0  0  0  0  0  0  0  0  0  0  0
   56.3420   28.9210   53.3870 C   0  0  0  0  0  0  0  0  0  0  0  0
   56.6640   29.7790   52.3340 C   0  0  0  0  0  0  0  0  0  0  0  0
   55.7080   30.5750   51.7840 N   0  0  0  0  0  0  0  0  0  0  0  0
   54.4230   30.5670   52.2320 C   0  0  0  0  0  0  0  0  0  0  0  0
   53.4970   31.3810   51.6520 N   0  0  0  0  0  0  0  0  0  0  0  0
   50.7487   30.5801   53.4685 H   0  0  0  0  0  0  0  0  0  0  0  0
   54.7675   28.2137   54.6987 H   0  0  0  0  0  0  0  0  0  0  0  0
   57.1140   28.2767   53.8329 H   0  0  0  0  0  0  0  0  0  0  0  0
   57.6936   29.8114   51.9480 H   0  0  0  0  0  0  0  0  0  0  0  0
   53.8020   32.0010   50.8680 H   0  0  0  0  0  0  0  0  0  0  0  0
  1  2  2  0
  2  3  1  0
  2  4  1  0
  4  5  2  0
  5  6  1  0
  6  7  2  0
  6  8  1  0
  8  9  2  0
  9 10  1  0
 10 11  2  0
 11 12  1  0
 12 13  2  0
 13 14  1  0
 14  4  1  0
 13  8  1  0
  5 15  1  0
  9 16  1  0
 10 17  1  0
 11 18  1  0
 14 19  1  0
M  CHG  1   3  -1
M  END
>  <UniqueID>  (59) 
51

>  <SMILES>  (59) 
O=C([O-])c1cc(=O)c2cccnc2[nH]1

>  <Energy>  (59) 
25.274262356204698

>  <Genealogy>  (59) 
O=C([O-])c1cc(=O)c2cccnc2[nH]1 (protonated)
O=C([O-])c1cc(=O)c2cccnc2[nH]1 (3D coordinates assigned)
O=C([O-])c1cc(=O)c2cccnc2[nH]1 (optimized conformer: 25.274262356204698 kcal/mol)

>  <smiles>  (59) 
O=C(O)c1cc(=O)c2cccnc2[nH]1

>  <score_type>  (59) 
oracle

>  <origin>  (59) 
adg

>  <m_score__min__energy>  (59) 
-9.2899999999999991

>  <m_primary>  (59) 
energy

$$$$
59:0
     RDKit          3D

 40 41  0  0  0  0  0  0  0  0999 V2000
   57.3980   25.2780   47.2420 C   0  0  0  0  0  0  0  0  0  0  0  0
   57.2810   24.6100   45.8970 C   0  0  0  0  0  0  0  0  0  0  0  0
   57.0810   23.2200   45.8310 C   0  0  0  0  0  0  0  0  0  0  0  0
   56.9590   22.5810   44.5950 C   0  0  0  0  0  0  0  0  0  0  0  0
   57.0260   23.3180   43.4150 C   0  0  0  0  0  0  0  0  0  0  0  0
   57.2150   24.7000   43.4640 C   0  0  0  0  0  0  0  0  0  0  0  0
   57.3520   25.3610   44.7010 C   0  0  0  0  0  0  0  0  0  0  0  0
   57.4860   26.7940   44.7440 N   0  0  0  0  0  0  0  0  0  0  0  0
   58.7140   27.4590   45.0780 C   0  0  0  0  0  0  0  0  0  0  0  0
   59.5220   26.9330   45.8920 O   0  0  0  0  0  0  0  0  0  0  0  0
   59.0340   28.7900   44.4660 C   0  0  0  0  0  0  0  0  0  0  0  0
   58.0990   29.8100   44.9500 N   0  0  0  0  0  0  0  0  0  0  0  0
   58.5490   30.8390   45.8530 C   0  0  0  0  0  0  0  0  0  0  0  0
   59.1820   30.5000   47.0590 C   0  0  0  0  0  0  0  0  0  0  0  0
   59.6720   31.5000   47.9050 C   0  0  0  0  0  0  0  0  0  0  0  0
   59.5460   32.8450   47.5440 C   0  0  0  0  0  0  0  0  0  0  0  0
   60.2280   34.2090   48.6940 Br  0  0  0  0  0  0  0  0  0  0  0  0
   58.9230   33.1910   46.3400 C   0  0  0  0  0  0  0  0  0  0  0  0
   58.4260   32.1930   45.5000 C   0  0  0  0  0  0  0  0  0  0  0  0
   56.4620   29.8260   44.3630 S   0  0  0  0  0  0  0  0  0  0  0  0
   56.4260   29.4180   42.6260 C   0  0  0  0  0  0  0  0  0  0  0  0
   55.8760   31.1990   44.5320 O   0  0  0  0  0  0  0  0  0  0  0  0
   55.6380   28.8330   45.1330 O   0  0  0  0  0  0  0  0  0  0  0  0
   57.2667   24.5285   48.0363 H   0  0  0  0  0  0  0  0  0  0  0  0
   58.3910   25.7417   47.3359 H   0  0  0  0  0  0  0  0  0  0  0  0
   56.6217   26.0516   47.3359 H   0  0  0  0  0  0  0  0  0  0  0  0
   57.0202   22.6319   46.7586 H   0  0  0  0  0  0  0  0  0  0  0  0
   56.8095   21.4920   44.5533 H   0  0  0  0  0  0  0  0  0  0  0  0
   56.9299   22.8105   42.4438 H   0  0  0  0  0  0  0  0  0  0  0  0
   57.2574   25.2781   42.5291 H   0  0  0  0  0  0  0  0  0  0  0  0
   56.6870   27.3860   44.4200 H   0  0  0  0  0  0  0  0  0  0  0  0
   60.0595   29.0784   44.7401 H   0  0  0  0  0  0  0  0  0  0  0  0
   58.9442   28.7121   43.3724 H   0  0  0  0  0  0  0  0  0  0  0  0
   59.2932   29.4424   47.3402 H   0  0  0  0  0  0  0  0  0  0  0  0
   60.1566   31.2285   48.8545 H   0  0  0  0  0  0  0  0  0  0  0  0
   58.8249   34.2490   46.0554 H   0  0  0  0  0  0  0  0  0  0  0  0
   57.9347   32.4688   44.5552 H   0  0  0  0  0  0  0  0  0  0  0  0
   56.3299   28.3287   42.5071 H   0  0  0  0  0  0  0  0  0  0  0  0
   55.5683   29.9159   42.1501 H   0  0  0  0  0  0  0  0  0  0  0  0
   57.3576   29.7580   42.1501 H   0  0  0  0  0  0  0  0  0  0  0  0
  1  2  1  0
  2  3  2  0
  3  4  1  0
  4  5  2  0
  5  6  1  0
  6  7  2  0
  7  8  1  0
  8  9  1  0
  9 10  2  0
  9 11  1  0
 11 12  1  0
 12 13  1  0
 13 14  2  0
 14 15  1  0
 15 16  2  0
 16 17  1  0
 16 18  1  0
 18 19  2  0
 12 20  1  0
 20 21  1  0
 20 22  2  0
 20 23  2  0
  7  2  1  0
 19 13  1  0
  1 24  1  0
  1 25  1  0
  1 26  1  0
  3 27  1  0
  4 28  1  0
  5 29  1  0
  6 30  1  0
  8 31  1  0
 11 32  1  0
 11 33  1  0
 14 34  1  0
 15 35  1  0
 18 36  1  0
 19 37  1  0
 21 38  1  0
 21 39  1  0
 21 40  1  0
M  END
>  <UniqueID>  (60) 
52

>  <SMILES>  (60) 
Cc1ccccc1NC(=O)CN(c1ccc(Br)cc1)S(C)(=O)=O

>  <Energy>  (60) 
41.98709981305632

>  <Genealogy>  (60) 
Cc1ccccc1NC(=O)CN(c1ccc(Br)cc1)S(C)(=O)=O (3D coordinates assigned)
Cc1ccccc1NC(=O)CN(c1ccc(Br)cc1)S(C)(=O)=O (optimized conformer: 41.98709981305632 kcal/mol)

>  <smiles>  (60) 
Cc1ccccc1NC(=O)CN(c1ccc(Br)cc1)S(C)(=O)=O

>  <score_type>  (60) 
oracle

>  <origin>  (60) 
adg

>  <m_score__min__energy>  (60) 
-7.9900000000000002

>  <m_primary>  (60) 
energy

$$$$
60:0
     RDKit          3D

 71 75  0  0  1  0  0  0  0  0999 V2000
   66.6430   27.1070   51.2920 C   0  0  0  0  0  0  0  0  0  0  0  0
   66.1420   28.2720   51.9530 O   0  0  0  0  0  0  0  0  0  0  0  0
   66.5000   29.5330   51.4900 C   0  0  0  0  0  0  0  0  0  0  0  0
   67.7060   29.6960   51.1780 O   0  0  0  0  0  0  0  0  0  0  0  0
   65.5450   30.6020   51.3690 N   0  0  0  0  0  0  0  0  0  0  0  0
   66.0470   31.8490   50.8750 C   0  0  0  0  0  0  0  0  0  0  0  0
   65.0810   32.9770   50.8480 C   0  0  0  0  0  0  0  0  0  0  0  0
   63.6850   32.5610   50.9390 N   0  0  0  0  0  0  0  0  0  0  0  0
   62.6720   33.0450   50.0680 C   0  0  0  0  0  0  0  0  0  0  0  0
   61.4200   33.4010   50.5470 C   0  0  0  0  0  0  0  0  0  0  0  0
   60.4090   33.8630   49.7280 C   0  0  0  0  0  0  0  0  0  0  0  0
   60.6270   33.9860   48.3690 C   0  0  0  0  0  0  0  0  0  0  0  0
   59.5440   34.4740   47.5930 N   0  0  0  0  0  0  0  0  0  0  0  0
   58.9580   33.6180   46.8240 C   0  0  0  0  0  0  0  0  0  0  0  0
   57.6970   33.9210   46.4250 N   0  0  0  0  0  0  0  0  0  0  0  0
   56.9840   33.1060   45.6240 C   0  0  0  0  0  0  0  0  0  0  0  0
   57.5530   31.9170   45.1900 C   0  0  0  0  0  0  0  0  0  0  0  0
   56.6910   30.8100   44.1530 Cl  0  0  0  0  0  0  0  0  0  0  0  0
   58.8470   31.6380   45.6200 C   0  0  0  0  0  0  0  0  0  0  0  0
   59.4080   30.5530   45.2480 N   0  0  0  0  0  0  0  0  0  0  0  0
   59.3790   29.3220   45.9550 C   0  0  0  0  0  0  0  0  0  0  0  0
   58.4960   28.3410   45.4850 C   0  0  0  0  0  0  0  0  0  0  0  0
   58.3890   27.1090   46.1050 C   0  0  0  0  0  0  0  0  0  0  0  0
   59.1640   26.8280   47.2090 C   0  0  0  0  0  0  0  0  0  0  0  0
   60.0320   27.8100   47.6580 C   0  0  0  0  0  0  0  0  0  0  0  0
   60.1520   29.0440   47.0550 C   0  0  0  0  0  0  0  0  0  0  0  0
   61.1000   30.0260   47.5810 C   0  0  0  0  0  0  0  0  0  0  0  0
   61.7810   30.7340   46.7930 O   0  0  0  0  0  0  0  0  0  0  0  0
   61.1930   30.1200   48.9890 N   0  0  0  0  0  0  0  0  0  0  0  0
   60.2810   30.3360   49.8280 C   0  0  0  0  0  0  0  0  0  0  0  0
   59.0780   30.9530   49.6040 C   0  0  0  0  0  0  0  0  0  0  0  0
   58.1510   31.1330   50.6070 C   0  0  0  0  0  0  0  0  0  0  0  0
   58.4250   30.6990   51.8330 N   0  0  0  0  0  0  0  0  0  0  0  0
   59.5820   30.0830   52.1400 C   0  0  0  0  0  0  0  0  0  0  0  0
   60.5090   29.9030   51.1380 C   0  0  0  0  0  0  0  0  0  0  0  0
   59.5350   32.4710   46.4200 N   0  0  0  0  0  0  0  0  0  0  0  0
   61.8560   33.6420   47.8590 C   0  0  0  0  0  0  0  0  0  0  0  0
   62.0610   33.7690   46.5040 O   0  0  0  0  0  0  0  0  0  0  0  0
   63.3780   33.8480   45.9960 C   0  0  0  0  0  0  0  0  0  0  0  0
   62.8650   33.1760   48.7110 C   0  0  0  0  0  0  0  0  0  0  0  0
   63.4080   31.5860   51.9910 C   0  0  0  0  0  0  0  0  0  0  0  0
   64.1970   30.3150   51.7500 C   0  0  0  0  0  0  0  0  0  0  0  0
   66.9608   26.3679   52.0422 H   0  0  0  0  0  0  0  0  0  0  0  0
   65.8517   26.6737   50.6627 H   0  0  0  0  0  0  0  0  0  0  0  0
   67.5019   27.3833   50.6627 H   0  0  0  0  0  0  0  0  0  0  0  0
   66.8935   32.1464   51.5114 H   0  0  0  0  0  0  0  0  0  0  0  0
   66.3155   31.6644   49.8244 H   0  0  0  0  0  0  0  0  0  0  0  0
   65.3006   33.6417   51.6965 H   0  0  0  0  0  0  0  0  0  0  0  0
   65.2025   33.4789   49.8767 H   0  0  0  0  0  0  0  0  0  0  0  0
   61.2241   33.3114   51.6257 H   0  0  0  0  0  0  0  0  0  0  0  0
   59.4323   34.1325   50.1563 H   0  0  0  0  0  0  0  0  0  0  0  0
   57.2530   34.8230   46.7490 H   0  0  0  0  0  0  0  0  0  0  0  0
   55.9635   33.3794   45.3177 H   0  0  0  0  0  0  0  0  0  0  0  0
   57.8740   28.5552   44.6034 H   0  0  0  0  0  0  0  0  0  0  0  0
   57.6871   26.3558   45.7177 H   0  0  0  0  0  0  0  0  0  0  0  0
   59.0957   25.8550   47.7176 H   0  0  0  0  0  0  0  0  0  0  0  0
   60.6556   27.5947   48.5382 H   0  0  0  0  0  0  0  0  0  0  0  0
   58.8454   31.3158   48.5919 H   0  0  0  0  0  0  0  0  0  0  0  0
   57.1933   31.6311   50.3953 H   0  0  0  0  0  0  0  0  0  0  0  0
   57.7410   30.8230   52.6100 H   0  0  0  0  0  0  0  0  0  0  0  0
   59.7814   29.7330   53.1636 H   0  0  0  0  0  0  0  0  0  0  0  0
   61.4593   29.4026   51.3755 H   0  0  0  0  0  0  0  0  0  0  0  0
   60.5220   32.2350   46.7310 H   0  0  0  0  0  0  0  0  0  0  0  0
   64.0915   33.8908   46.8321 H   0  0  0  0  0  0  0  0  0  0  0  0
   63.5874   32.9608   45.3803 H   0  0  0  0  0  0  0  0  0  0  0  0
   63.4798   34.7539   45.3803 H   0  0  0  0  0  0  0  0  0  0  0  0
   63.8418   32.9063   48.2830 H   0  0  0  0  0  0  0  0  0  0  0  0
   63.6934   32.0114   52.9645 H   0  0  0  0  0  0  0  0  0  0  0  0
   62.3342   31.3476   51.9846 H   0  0  0  0  0  0  0  0  0  0  0  0
   64.2056   29.7184   52.6741 H   0  0  0  0  0  0  0  0  0  0  0  0
   63.7166   29.7594   50.9311 H   0  0  0  0  0  0  0  0  0  0  0  0
  1  2  1  0
  2  3  1  0
  3  4  2  0
  3  5  1  0
  5  6  1  0
  6  7  1  0
  7  8  1  0
  8  9  1  0
  9 10  2  0
 10 11  1  0
 11 12  2  0
 12 13  1  0
 13 14  2  0
 14 15  1  0
 15 16  1  0
 16 17  2  0
 17 18  1  0
 17 19  1  0
 19 20  2  0
 20 21  1  0
 21 22  2  0
 22 23  1  0
 23 24  2  0
 24 25  1  0
 25 26  2  0
 26 27  1  0
 27 28  2  0
 27 29  1  0
 29 30  2  3
 30 31  1  0
 31 32  2  0
 32 33  1  0
 33 34  1  0
 34 35  2  0
 19 36  1  0
 12 37  1  0
 37 38  1  0
 38 39  1  0
 37 40  2  0
  8 41  1  0
 41 42  1  0
 42  5  1  0
 40  9  1  0
 36 14  1  0
 26 21  1  0
 35 30  1  0
  1 43  1  0
  1 44  1  0
  1 45  1  0
  6 46  1  0
  6 47  1  0
  7 48  1  0
  7 49  1  0
 10 50  1  0
 11 51  1  0
 15 52  1  0
 16 53  1  0
 22 54  1  0
 23 55  1  0
 24 56  1  0
 25 57  1  0
 31 58  1  0
 32 59  1  0
 33 60  1  0
 34 61  1  0
 35 62  1  0
 36 63  1  0
 39 64  1  0
 39 65  1  0
 39 66  1  0
 40 67  1  0
 41 68  1  0
 41 69  1  0
 42 70  1  0
 42 71  1  0
M  END
>  <smiles>  (61) 
COC(=O)N1CCN(c2ccc(N=c3[nH]cc(Cl)c(=Nc4ccccc4C(=O)N=c4cc[nH]cc4)[nH]3)c(OC)c2)CC1

>  <score_type>  (61) 
oracle

>  <origin>  (61) 
adg

>  <m_score__min__energy>  (61) 
-9.25

>  <m_primary>  (61) 
energy

$$$$
61:0
     RDKit          3D

 55 57  0  0  0  0  0  0  0  0999 V2000
   54.4920   25.0460   45.9960 O   0  0  0  0  0  0  0  0  0  0  0  0
   55.6120   25.6260   45.9870 C   0  0  0  0  0  0  0  0  0  0  0  0
   56.8740   24.8100   46.0970 C   0  0  0  0  0  0  0  0  0  0  0  0
   56.9040   23.7020   45.0770 C   0  0  0  0  0  0  0  0  0  0  0  0
   57.7260   22.5790   45.2760 C   0  0  0  0  0  0  0  0  0  0  0  0
   57.7760   21.5640   44.3160 C   0  0  0  0  0  0  0  0  0  0  0  0
   57.0160   21.6670   43.1480 C   0  0  0  0  0  0  0  0  0  0  0  0
   56.2070   22.7870   42.9350 C   0  0  0  0  0  0  0  0  0  0  0  0
   56.1530   23.8040   43.8940 C   0  0  0  0  0  0  0  0  0  0  0  0
   55.6390   27.0570   45.9550 N   0  0  0  0  0  0  0  0  0  0  0  0
   56.6410   27.8530   45.2600 C   0  0  0  0  0  0  0  0  0  0  0  0
   57.6940   28.2780   46.2320 C   0  0  0  0  0  0  0  0  0  0  0  0
   57.7680   27.7030   47.3520 O   0  0  0  0  0  0  0  0  0  0  0  0
   58.6020   29.3370   45.8920 N   0  0  0  0  0  0  0  0  0  0  0  0
   59.4660   29.9880   46.8380 C   0  0  0  0  0  0  0  0  0  0  0  0
   60.5060   30.8060   46.3740 C   0  0  0  0  0  0  0  0  0  0  0  0
   61.3470   31.4650   47.2760 C   0  0  0  0  0  0  0  0  0  0  0  0
   61.1430   31.3320   48.6540 C   0  0  0  0  0  0  0  0  0  0  0  0
   62.2120   32.1570   49.7890 S   0  0  0  0  0  0  0  0  0  0  0  0
   63.4600   32.6070   49.0810 O   0  0  0  0  0  0  0  0  0  0  0  0
   62.6040   31.2010   50.8800 O   0  0  0  0  0  0  0  0  0  0  0  0
   61.4110   33.5250   50.4950 N   0  0  0  0  0  0  0  0  0  0  0  0
   60.1930   33.8330   49.7460 C   0  0  0  0  0  0  0  0  0  0  0  0
   60.5450   34.5820   48.4600 C   0  0  0  0  0  0  0  0  0  0  0  0
   59.5670   34.2710   47.3580 C   0  0  0  0  0  0  0  0  0  0  0  0
   58.4540   33.4480   47.6060 C   0  0  0  0  0  0  0  0  0  0  0  0
   57.5260   33.1930   46.5900 C   0  0  0  0  0  0  0  0  0  0  0  0
   57.6980   33.7630   45.3250 C   0  0  0  0  0  0  0  0  0  0  0  0
   58.7980   34.5890   45.0740 C   0  0  0  0  0  0  0  0  0  0  0  0
   59.7280   34.8460   46.0860 C   0  0  0  0  0  0  0  0  0  0  0  0
   60.0960   30.5290   49.1240 C   0  0  0  0  0  0  0  0  0  0  0  0
   59.2580   29.8660   48.2230 C   0  0  0  0  0  0  0  0  0  0  0  0
   57.7406   25.4680   45.9359 H   0  0  0  0  0  0  0  0  0  0  0  0
   56.9073   24.3582   47.0994 H   0  0  0  0  0  0  0  0  0  0  0  0
   58.3321   22.4987   46.1905 H   0  0  0  0  0  0  0  0  0  0  0  0
   58.4143   20.6833   44.4803 H   0  0  0  0  0  0  0  0  0  0  0  0
   57.0543   20.8658   42.3952 H   0  0  0  0  0  0  0  0  0  0  0  0
   55.6127   22.8686   42.0130 H   0  0  0  0  0  0  0  0  0  0  0  0
   55.5201   24.6870   43.7212 H   0  0  0  0  0  0  0  0  0  0  0  0
   57.0993   27.2513   44.4613 H   0  0  0  0  0  0  0  0  0  0  0  0
   56.1655   28.7416   44.8192 H   0  0  0  0  0  0  0  0  0  0  0  0
   58.6920   29.5990   44.8840 H   0  0  0  0  0  0  0  0  0  0  0  0
   60.6615   30.9302   45.2922 H   0  0  0  0  0  0  0  0  0  0  0  0
   62.1712   32.0897   46.9013 H   0  0  0  0  0  0  0  0  0  0  0  0
   59.6750   32.8965   49.4919 H   0  0  0  0  0  0  0  0  0  0  0  0
   59.5390   34.4652   50.3645 H   0  0  0  0  0  0  0  0  0  0  0  0
   60.5274   35.6636   48.6595 H   0  0  0  0  0  0  0  0  0  0  0  0
   61.5459   34.2613   48.1354 H   0  0  0  0  0  0  0  0  0  0  0  0
   58.3123   33.0032   48.6020 H   0  0  0  0  0  0  0  0  0  0  0  0
   56.6604   32.5434   46.7869 H   0  0  0  0  0  0  0  0  0  0  0  0
   56.9680   33.5617   44.5272 H   0  0  0  0  0  0  0  0  0  0  0  0
   58.9319   35.0374   44.0785 H   0  0  0  0  0  0  0  0  0  0  0  0
   60.5889   35.5008   45.8856 H   0  0  0  0  0  0  0  0  0  0  0  0
   59.9326   30.4197   50.2063 H   0  0  0  0  0  0  0  0  0  0  0  0
   58.4314   29.2455   48.5996 H   0  0  0  0  0  0  0  0  0  0  0  0
  1  2  2  0
  2  3  1  0
  3  4  1  0
  4  5  2  0
  5  6  1  0
  6  7  2  0
  7  8  1  0
  8  9  2  0
  2 10  1  0
 10 11  1  0
 11 12  1  0
 12 13  2  0
 12 14  1  0
 14 15  1  0
 15 16  2  0
 16 17  1  0
 17 18  2  0
 18 19  1  0
 19 20  2  0
 19 21  2  0
 19 22  1  0
 22 23  1  0
 23 24  1  0
 24 25  1  0
 25 26  2  0
 26 27  1  0
 27 28  2  0
 28 29  1  0
 29 30  2  0
 18 31  1  0
 31 32  2  0
  9  4  1  0
 32 15  1  0
 30 25  1  0
  3 33  1  0
  3 34  1  0
  5 35  1  0
  6 36  1  0
  7 37  1  0
  8 38  1  0
  9 39  1  0
 11 40  1  0
 11 41  1  0
 14 42  1  0
 16 43  1  0
 17 44  1  0
 23 45  1  0
 23 46  1  0
 24 47  1  0
 24 48  1  0
 26 49  1  0
 27 50  1  0
 28 51  1  0
 29 52  1  0
 30 53  1  0
 31 54  1  0
 32 55  1  0
M  CHG  2  10  -1  22  -1
M  END
>  <UniqueID>  (62) 
53

>  <SMILES>  (62) 
O=C(Cc1ccccc1)[N-]CC(=O)Nc1ccc(S(=O)(=O)[N-]CCc2ccccc2)cc1

>  <Energy>  (62) 
52.801944555254494

>  <Genealogy>  (62) 
O=C(Cc1ccccc1)[N-]CC(=O)Nc1ccc(S(=O)(=O)[N-]CCc2ccccc2)cc1 (protonated)
O=C(Cc1ccccc1)[N-]CC(=O)Nc1ccc(S(=O)(=O)[N-]CCc2ccccc2)cc1 (3D coordinates assigned)
O=C(Cc1ccccc1)[N-]CC(=O)Nc1ccc(S(=O)(=O)[N-]CCc2ccccc2)cc1 (optimized conformer: 52.801944555254494 kcal/mol)

>  <smiles>  (62) 
O=C(Cc1ccccc1)NCC(=O)Nc1ccc(S(=O)(=O)NCCc2ccccc2)cc1

>  <score_type>  (62) 
oracle

>  <origin>  (62) 
adg

>  <m_score__min__energy>  (62) 
-12.1

>  <m_primary>  (62) 
energy

$$$$
62:0
     RDKit          3D

 50 51  0  0  0  0  0  0  0  0999 V2000
   56.9390   29.3310   43.7820 C   0  0  0  0  0  0  0  0  0  0  0  0
   57.9890   28.8580   44.8060 C   0  0  0  0  0  0  0  0  0  0  0  0
   57.2740   28.0270   45.8940 C   0  0  0  0  0  0  0  0  0  0  0  0
   59.0300   27.9630   44.1070 C   0  0  0  0  0  0  0  0  0  0  0  0
   58.6920   30.0650   45.4170 C   0  0  0  0  0  0  0  0  0  0  0  0
   59.9460   30.1780   45.3230 O   0  0  0  0  0  0  0  0  0  0  0  0
   57.9280   31.1160   46.0360 N   0  0  0  0  0  0  0  0  0  0  0  0
   58.5170   32.2450   46.7020 C   0  0  0  0  0  0  0  0  0  0  0  0
   58.9190   33.3890   45.9910 C   0  0  0  0  0  0  0  0  0  0  0  0
   59.5210   34.4570   46.6640 C   0  0  0  0  0  0  0  0  0  0  0  0
   59.7250   34.3950   48.0450 C   0  0  0  0  0  0  0  0  0  0  0  0
   59.3230   33.2620   48.7670 C   0  0  0  0  0  0  0  0  0  0  0  0
   59.5570   33.1820   50.2220 C   0  0  0  0  0  0  0  0  0  0  0  0
   60.4520   33.9000   50.7410 O   0  0  0  0  0  0  0  0  0  0  0  0
   58.8010   32.3040   51.0630 N   0  0  0  0  0  0  0  0  0  0  0  0
   57.4190   31.9120   50.8050 C   0  0  0  0  0  0  0  0  0  0  0  0
   57.0450   30.7640   51.6960 C   0  0  0  0  0  0  0  0  0  0  0  0
   57.7370   29.7130   51.6590 O   0  0  0  0  0  0  0  0  0  0  0  0
   55.9840   30.8620   52.6560 N   0  0  0  0  0  0  0  0  0  0  0  0
   54.6340   30.4110   52.4810 C   0  0  0  0  0  0  0  0  0  0  0  0
   54.1220   29.4520   53.3620 C   0  0  0  0  0  0  0  0  0  0  0  0
   52.8180   28.9780   53.2060 C   0  0  0  0  0  0  0  0  0  0  0  0
   52.0210   29.4450   52.1580 C   0  0  0  0  0  0  0  0  0  0  0  0
   52.5250   30.3910   51.2470 C   0  0  0  0  0  0  0  0  0  0  0  0
   51.6810   30.8880   50.1340 C   0  0  0  0  0  0  0  0  0  0  0  0
   51.0210   32.1490   50.2330 N   0  0  0  0  0  0  0  0  0  0  0  0
   51.5430   30.2030   49.0850 O   0  0  0  0  0  0  0  0  0  0  0  0
   53.8440   30.8560   51.4080 C   0  0  0  0  0  0  0  0  0  0  0  0
   58.7480   32.1800   48.0830 C   0  0  0  0  0  0  0  0  0  0  0  0
   56.0608   29.7266   44.3134 H   0  0  0  0  0  0  0  0  0  0  0  0
   57.3722   30.1209   43.1508 H   0  0  0  0  0  0  0  0  0  0  0  0
   56.6344   28.4831   43.1508 H   0  0  0  0  0  0  0  0  0  0  0  0
   57.5807   28.3835   46.8884 H   0  0  0  0  0  0  0  0  0  0  0  0
   56.1852   28.1386   45.7842 H   0  0  0  0  0  0  0  0  0  0  0  0
   57.5468   26.9670   45.7842 H   0  0  0  0  0  0  0  0  0  0  0  0
   59.6346   27.4432   44.8648 H   0  0  0  0  0  0  0  0  0  0  0  0
   58.5138   27.2223   43.4785 H   0  0  0  0  0  0  0  0  0  0  0  0
   59.6849   28.5844   43.4785 H   0  0  0  0  0  0  0  0  0  0  0  0
   56.8950   31.1350   45.8860 H   0  0  0  0  0  0  0  0  0  0  0  0
   58.7599   33.4443   44.9040 H   0  0  0  0  0  0  0  0  0  0  0  0
   59.8353   35.3499   46.1037 H   0  0  0  0  0  0  0  0  0  0  0  0
   60.2023   35.2373   48.5673 H   0  0  0  0  0  0  0  0  0  0  0  0
   56.7533   32.7640   51.0073 H   0  0  0  0  0  0  0  0  0  0  0  0
   57.3171   31.6056   49.7534 H   0  0  0  0  0  0  0  0  0  0  0  0
   54.7494   29.0700   54.1808 H   0  0  0  0  0  0  0  0  0  0  0  0
   52.4169   28.2345   53.9105 H   0  0  0  0  0  0  0  0  0  0  0  0
   50.9929   29.0706   52.0445 H   0  0  0  0  0  0  0  0  0  0  0  0
   50.0860   32.3020   49.7960 H   0  0  0  0  0  0  0  0  0  0  0  0
   54.2600   31.5747   50.6866 H   0  0  0  0  0  0  0  0  0  0  0  0
   58.4753   31.2698   48.6373 H   0  0  0  0  0  0  0  0  0  0  0  0
  1  2  1  0
  2  3  1  0
  2  4  1  0
  2  5  1  0
  5  6  2  0
  5  7  1  0
  7  8  1  0
  8  9  2  0
  9 10  1  0
 10 11  2  0
 11 12  1  0
 12 13  1  0
 13 14  2  0
 13 15  1  0
 15 16  1  0
 16 17  1  0
 17 18  2  0
 17 19  1  0
 19 20  1  0
 20 21  2  0
 21 22  1  0
 22 23  2  0
 23 24  1  0
 24 25  1  0
 25 26  1  0
 25 27  2  0
 24 28  2  0
 12 29  2  0
 29  8  1  0
 28 20  1  0
  1 30  1  0
  1 31  1  0
  1 32  1  0
  3 33  1  0
  3 34  1  0
  3 35  1  0
  4 36  1  0
  4 37  1  0
  4 38  1  0
  7 39  1  0
  9 40  1  0
 10 41  1  0
 11 42  1  0
 16 43  1  0
 16 44  1  0
 21 45  1  0
 22 46  1  0
 23 47  1  0
 26 48  1  0
 28 49  1  0
 29 50  1  0
M  CHG  3  15  -1  19  -1  26  -1
M  END
>  <UniqueID>  (63) 
54

>  <SMILES>  (63) 
CC(C)(C)C(=O)Nc1cccc(C(=O)[N-]CC(=O)[N-]c2cccc(C([NH-])=O)c2)c1

>  <Energy>  (63) 
54.10579957376236

>  <Genealogy>  (63) 
CC(C)(C)C(=O)Nc1cccc(C(=O)[N-]CC(=O)[N-]c2cccc(C([NH-])=O)c2)c1 (protonated)
CC(C)(C)C(=O)Nc1cccc(C(=O)[N-]CC(=O)[N-]c2cccc(C([NH-])=O)c2)c1 (3D coordinates assigned)
CC(C)(C)C(=O)Nc1cccc(C(=O)[N-]CC(=O)[N-]c2cccc(C([NH-])=O)c2)c1 (optimized conformer: 54.10579957376236 kcal/mol)

>  <smiles>  (63) 
CC(C)(C)C(=O)Nc1cccc(C(=O)NCC(=O)Nc2cccc(C(N)=O)c2)c1

>  <score_type>  (63) 
oracle

>  <origin>  (63) 
adg

>  <m_score__min__energy>  (63) 
-14.34

>  <m_primary>  (63) 
energy

$$$$
63:0
     RDKit          3D

 46 49  0  0  0  0  0  0  0  0999 V2000
   58.6554   25.8307   43.0330 H   0  0  0  0  0  0  0  0  0  0  0  0
   57.7830   26.1970   43.5940 C   0  0  0  0  0  0  0  0  0  0  0  0
   57.1930   27.0398   43.2046 H   0  0  0  0  0  0  0  0  0  0  0  0
   57.4410   25.6200   44.7450 C   0  0  0  0  0  0  0  0  0  0  0  0
   58.0461   24.7789   45.1144 H   0  0  0  0  0  0  0  0  0  0  0  0
   56.2860   26.0630   45.5420 C   0  0  0  0  0  0  0  0  0  0  0  0
   55.5700   25.1980   46.1120 O   0  0  0  0  0  0  0  0  0  0  0  0
   55.9500   27.4540   45.6340 N   0  0  0  0  0  0  0  0  0  0  0  0
   56.8120   28.5380   45.2650 C   0  0  0  0  0  0  0  0  0  0  0  0
   56.4650   29.3150   44.1510 C   0  0  0  0  0  0  0  0  0  0  0  0
   55.5494   29.0822   43.5875 H   0  0  0  0  0  0  0  0  0  0  0  0
   57.2710   30.3810   43.7510 C   0  0  0  0  0  0  0  0  0  0  0  0
   56.9863   30.9885   42.8793 H   0  0  0  0  0  0  0  0  0  0  0  0
   58.4380   30.6770   44.4560 C   0  0  0  0  0  0  0  0  0  0  0  0
   59.0612   31.5311   44.1525 H   0  0  0  0  0  0  0  0  0  0  0  0
   58.8160   29.8910   45.5460 C   0  0  0  0  0  0  0  0  0  0  0  0
   59.7343   30.1323   46.1015 H   0  0  0  0  0  0  0  0  0  0  0  0
   58.0290   28.7910   45.9390 C   0  0  0  0  0  0  0  0  0  0  0  0
   58.4290   27.9420   47.0310 N   0  0  0  0  0  0  0  0  0  0  0  0
   59.1450   28.2780   48.0640 C   0  0  0  0  0  0  0  0  0  0  0  0
   59.1970   29.5840   48.4350 N   0  0  0  0  0  0  0  0  0  0  0  0
   59.9060   29.9840   49.5250 C   0  0  0  0  0  0  0  0  0  0  0  0
   59.9750   31.4410   49.8700 C   0  0  0  0  0  0  0  0  0  0  0  0
   59.1510   31.6930   50.5537 H   0  0  0  0  0  0  0  0  0  0  0  0
   60.9395   31.6523   50.3550 H   0  0  0  0  0  0  0  0  0  0  0  0
   59.8580   32.2680   48.6250 C   0  0  0  0  0  0  0  0  0  0  0  0
   58.6370   32.4400   48.0460 N   0  0  0  0  0  0  0  0  0  0  0  0
   58.4800   33.1480   46.8960 C   0  0  0  0  0  0  0  0  0  0  0  0
   57.2060   33.3050   46.3360 C   0  0  0  0  0  0  0  0  0  0  0  0
   56.3300   32.8561   46.8270 H   0  0  0  0  0  0  0  0  0  0  0  0
   57.0480   34.0330   45.1520 C   0  0  0  0  0  0  0  0  0  0  0  0
   56.0468   34.1568   44.7136 H   0  0  0  0  0  0  0  0  0  0  0  0
   58.1600   34.6040   44.5240 C   0  0  0  0  0  0  0  0  0  0  0  0
   58.0299   35.1756   43.5932 H   0  0  0  0  0  0  0  0  0  0  0  0
   59.4370   34.4510   45.0750 C   0  0  0  0  0  0  0  0  0  0  0  0
   60.3089   34.9012   44.5778 H   0  0  0  0  0  0  0  0  0  0  0  0
   59.6040   33.7230   46.2620 C   0  0  0  0  0  0  0  0  0  0  0  0
   60.8680   33.5470   46.8370 C   0  0  0  0  0  0  0  0  0  0  0  0
   61.7565   33.9854   46.3592 H   0  0  0  0  0  0  0  0  0  0  0  0
   60.9990   32.8140   48.0180 C   0  0  0  0  0  0  0  0  0  0  0  0
   61.9908   32.6654   48.4699 H   0  0  0  0  0  0  0  0  0  0  0  0
   60.6100   29.0350   50.2750 C   0  0  0  0  0  0  0  0  0  0  0  0
   61.2070   29.3377   51.1479 H   0  0  0  0  0  0  0  0  0  0  0  0
   60.5370   27.6970   49.8900 C   0  0  0  0  0  0  0  0  0  0  0  0
   61.0706   26.9283   50.4682 H   0  0  0  0  0  0  0  0  0  0  0  0
   59.8070   27.3430   48.8010 N   0  0  0  0  0  0  0  0  0  0  0  0
  1  2  1  0
  2  3  1  0
  2  4  2  0
  4  5  1  0
  4  6  1  0
  6  7  2  0
  6  8  1  0
  8  9  1  0
  9 10  2  0
 10 11  1  0
 10 12  1  0
 12 13  1  0
 12 14  2  0
 14 15  1  0
 14 16  1  0
 16 17  1  0
 16 18  2  0
 18 19  1  0
 19 20  2  0
 20 21  1  0
 21 22  2  0
 22 23  1  0
 23 24  1  0
 23 25  1  0
 23 26  1  0
 26 27  2  0
 27 28  1  0
 28 29  2  0
 29 30  1  0
 29 31  1  0
 31 32  1  0
 31 33  2  0
 33 34  1  0
 33 35  1  0
 35 36  1  0
 35 37  2  0
 37 38  1  0
 38 39  1  0
 38 40  2  0
 40 41  1  0
 22 42  1  0
 42 43  1  0
 42 44  2  0
 44 45  1  0
 44 46  1  0
 18  9  1  0
 46 20  1  0
 40 26  1  0
 37 28  1  0
M  CHG  2   8  -1  46  -1
M  END
>  <UniqueID>  (64) 
55

>  <SMILES>  (64) 
C=CC(=O)[N-]c1ccccc1/N=c1/nc(Cc2ccc3ccccc3n2)cc[n-]1

>  <Energy>  (64) 
62.93498556797701

>  <Genealogy>  (64) 
C=CC(=O)[N-]c1ccccc1N=c1nc(Cc2ccc3ccccc3n2)cc[n-]1 (protonated)
C=CC(=O)[N-]c1ccccc1/N=c1/nc(Cc2ccc3ccccc3n2)cc[n-]1 (cis-trans isomerization)
C=CC(=O)[N-]c1ccccc1/N=c1/nc(Cc2ccc3ccccc3n2)cc[n-]1 (3D coordinates assigned)
C=CC(=O)[N-]c1ccccc1/N=c1/nc(Cc2ccc3ccccc3n2)cc[n-]1 (optimized conformer: 62.93498556797701 kcal/mol)

>  <smiles>  (64) 
C=CC(=O)Nc1ccccc1N=c1nc(Cc2ccc3ccccc3n2)cc[nH]1

>  <score_type>  (64) 
oracle

>  <origin>  (64) 
adg

>  <m_score__min__energy>  (64) 
-14

>  <m_primary>  (64) 
energy

$$$$
64:0
     RDKit          3D

 37 39  0  0  0  0  0  0  0  0999 V2000
   55.9980   31.0840   44.3100 O   0  0  0  0  0  0  0  0  0  0  0  0
   56.9120   29.8970   44.4240 S   0  0  0  0  0  0  0  0  0  0  0  0
   57.3720   29.4990   43.0490 O   0  0  0  0  0  0  0  0  0  0  0  0
   56.0460   28.5730   45.1380 N   0  0  0  0  0  0  0  0  0  0  0  0
   56.6820   27.3990   45.6790 C   0  0  0  0  0  0  0  0  0  0  0  0
   58.0820   27.3180   45.8150 C   0  0  0  0  0  0  0  0  0  0  0  0
   58.6780   26.1710   46.3470 C   0  0  0  0  0  0  0  0  0  0  0  0
   57.8890   25.0900   46.7410 C   0  0  0  0  0  0  0  0  0  0  0  0
   56.5010   25.1520   46.6040 C   0  0  0  0  0  0  0  0  0  0  0  0
   55.8960   26.2970   46.0740 C   0  0  0  0  0  0  0  0  0  0  0  0
   54.5120   26.3350   45.9520 O   0  0  0  0  0  0  0  0  0  0  0  0
   58.2830   30.3370   45.4390 C   0  0  0  0  0  0  0  0  0  0  0  0
   59.5300   29.7410   45.2220 C   0  0  0  0  0  0  0  0  0  0  0  0
   60.6280   30.0960   46.0100 C   0  0  0  0  0  0  0  0  0  0  0  0
   60.4920   31.0530   47.0330 C   0  0  0  0  0  0  0  0  0  0  0  0
   61.6580   31.4350   47.8700 C   0  0  0  0  0  0  0  0  0  0  0  0
   62.6170   32.3460   47.3870 C   0  0  0  0  0  0  0  0  0  0  0  0
   63.7140   32.7050   48.1770 C   0  0  0  0  0  0  0  0  0  0  0  0
   63.8670   32.1590   49.4540 C   0  0  0  0  0  0  0  0  0  0  0  0
   62.9230   31.2530   49.9430 C   0  0  0  0  0  0  0  0  0  0  0  0
   61.8230   30.8920   49.1580 C   0  0  0  0  0  0  0  0  0  0  0  0
   59.2330   31.6410   47.2500 C   0  0  0  0  0  0  0  0  0  0  0  0
   58.1360   31.2850   46.4580 C   0  0  0  0  0  0  0  0  0  0  0  0
   55.0140   28.6970   45.2470 H   0  0  0  0  0  0  0  0  0  0  0  0
   58.7108   28.1638   45.5001 H   0  0  0  0  0  0  0  0  0  0  0  0
   59.7715   26.1206   46.4552 H   0  0  0  0  0  0  0  0  0  0  0  0
   58.3606   24.1887   47.1597 H   0  0  0  0  0  0  0  0  0  0  0  0
   55.8809   24.2979   46.9137 H   0  0  0  0  0  0  0  0  0  0  0  0
   59.6467   28.9894   44.4273 H   0  0  0  0  0  0  0  0  0  0  0  0
   61.6052   29.6243   45.8296 H   0  0  0  0  0  0  0  0  0  0  0  0
   62.5027   32.7781   46.3819 H   0  0  0  0  0  0  0  0  0  0  0  0
   64.4576   33.4185   47.7922 H   0  0  0  0  0  0  0  0  0  0  0  0
   64.7304   32.4425   50.0739 H   0  0  0  0  0  0  0  0  0  0  0  0
   63.0449   30.8224   50.9478 H   0  0  0  0  0  0  0  0  0  0  0  0
   61.0823   30.1793   49.5497 H   0  0  0  0  0  0  0  0  0  0  0  0
   59.1098   32.3869   48.0490 H   0  0  0  0  0  0  0  0  0  0  0  0
   57.1558   31.7512   46.6366 H   0  0  0  0  0  0  0  0  0  0  0  0
  1  2  2  0
  2  3  2  0
  2  4  1  0
  4  5  1  0
  5  6  2  0
  6  7  1  0
  7  8  2  0
  8  9  1  0
  9 10  2  0
 10 11  1  0
  2 12  1  0
 12 13  2  0
 13 14  1  0
 14 15  2  0
 15 16  1  0
 16 17  2  0
 17 18  1  0
 18 19  2  0
 19 20  1  0
 20 21  2  0
 15 22  1  0
 22 23  2  0
 10  5  1  0
 23 12  1  0
 21 16  1  0
  4 24  1  0
  6 25  1  0
  7 26  1  0
  8 27  1  0
  9 28  1  0
 13 29  1  0
 14 30  1  0
 17 31  1  0
 18 32  1  0
 19 33  1  0
 20 34  1  0
 21 35  1  0
 22 36  1  0
 23 37  1  0
M  CHG  1  11  -1
M  END
>  <UniqueID>  (65) 
56

>  <SMILES>  (65) 
O=S(=O)(Nc1ccccc1[O-])c1ccc(-c2ccccc2)cc1

>  <Energy>  (65) 
48.60124776114443

>  <Genealogy>  (65) 
O=S(=O)(Nc1ccccc1[O-])c1ccc(-c2ccccc2)cc1 (protonated)
O=S(=O)(Nc1ccccc1[O-])c1ccc(-c2ccccc2)cc1 (3D coordinates assigned)
O=S(=O)(Nc1ccccc1[O-])c1ccc(-c2ccccc2)cc1 (optimized conformer: 48.60124776114443 kcal/mol)

>  <smiles>  (65) 
O=S(=O)(Nc1ccccc1O)c1ccc(-c2ccccc2)cc1

>  <score_type>  (65) 
oracle

>  <origin>  (65) 
adg

>  <m_score__min__energy>  (65) 
-12.44

>  <m_primary>  (65) 
energy

$$$$
65:0
     RDKit          3D

 29 31  0  0  0  0  0  0  0  0999 V2000
   56.1280   28.0070   44.7940 H   0  0  0  0  0  0  0  0  0  0  0  0
   55.7380   28.9030   44.9750 O   0  0  0  0  0  0  0  0  0  0  0  0
   56.5230   29.8480   44.2960 C   0  0  1  0  0  0  0  0  0  0  0  0
   56.3010   29.7270   42.7890 C   0  0  0  0  0  0  0  0  0  0  0  0
   55.3497   29.2085   42.5990 H   0  0  0  0  0  0  0  0  0  0  0  0
   56.2669   30.7313   42.3416 H   0  0  0  0  0  0  0  0  0  0  0  0
   57.1266   29.1541   42.3416 H   0  0  0  0  0  0  0  0  0  0  0  0
   56.2110   31.1680   44.7290 O   0  0  0  0  0  0  0  0  0  0  0  0
   57.3730   31.7130   45.2350 C   0  0  0  0  0  0  0  0  0  0  0  0
   57.4530   32.8770   45.7060 O   0  0  0  0  0  0  0  0  0  0  0  0
   58.4730   30.8260   45.1560 N   0  0  0  0  0  0  0  0  0  0  0  0
   57.9950   29.7320   44.6580 C   0  0  0  0  0  0  0  0  0  0  0  0
   58.8820   28.6270   44.2540 C   0  0  0  0  0  0  0  0  0  0  0  0
   58.9635   28.4054   43.1796 H   0  0  0  0  0  0  0  0  0  0  0  0
   59.5960   27.8730   45.0990 C   0  0  0  0  0  0  0  0  0  0  0  0
   60.5238   28.3027   45.5047 H   0  0  0  0  0  0  0  0  0  0  0  0
   59.2320   26.5110   45.5260 C   0  0  0  0  0  0  0  0  0  0  0  0
   60.1200   25.5090   45.9100 C   0  0  0  0  0  0  0  0  0  0  0  0
   61.2159   25.5942   45.8671 H   0  0  0  0  0  0  0  0  0  0  0  0
   59.4480   24.4140   46.3440 N   0  0  0  0  0  0  0  0  0  0  0  0
   59.8640   23.5220   46.6960 H   0  0  0  0  0  0  0  0  0  0  0  0
   58.1450   24.7300   46.2620 C   0  0  0  0  0  0  0  0  0  0  0  0
   57.0350   23.9810   46.6280 C   0  0  0  0  0  0  0  0  0  0  0  0
   57.1520   22.8090   47.0750 O   0  0  0  0  0  0  0  0  0  0  0  0
   55.8030   24.5530   46.4930 N   0  0  0  0  0  0  0  0  0  0  0  0
   55.6590   25.8330   46.0220 C   0  0  0  0  0  0  0  0  0  0  0  0
   54.5110   26.3350   45.9150 O   0  0  0  0  0  0  0  0  0  0  0  0
   56.7570   26.5680   45.6710 N   0  0  0  0  0  0  0  0  0  0  0  0
   57.9780   25.9930   45.7830 C   0  0  0  0  0  0  0  0  0  0  0  0
  1  2  1  0
  3  2  1  1
  3  4  1  0
  4  5  1  0
  4  6  1  0
  4  7  1  0
  3  8  1  0
  8  9  1  0
  9 10  2  0
  9 11  1  0
 11 12  2  0
 12 13  1  0
 13 14  1  0
 13 15  2  0
 15 16  1  0
 15 17  1  0
 17 18  2  0
 18 19  1  0
 18 20  1  0
 20 21  1  0
 20 22  1  0
 22 23  1  0
 23 24  2  0
 23 25  1  0
 25 26  1  0
 26 27  2  0
 26 28  1  0
 28 29  1  0
 12  3  1  0
 29 17  1  0
 29 22  2  0
M  CHG  2  25  -1  28  -1
M  END
>  <UniqueID>  (66) 
57

>  <SMILES>  (66) 
C[C@]1(O)OC(=O)N=C1/C=C\c1c[nH]c2c(=O)[n-]c(=O)[n-]c12

>  <Energy>  (66) 
96.86098741500112

>  <Genealogy>  (66) 
CC1(O)OC(=O)N=C1C=Cc1c[nH]c2c(=O)[n-]c(=O)[n-]c12 (protonated)
C[C@]1(O)OC(=O)N=C1C=Cc1c[nH]c2c(=O)[n-]c(=O)[n-]c12 (chirality)
C[C@]1(O)OC(=O)N=C1/C=C\c1c[nH]c2c(=O)[n-]c(=O)[n-]c12 (cis-trans isomerization)
C[C@]1(O)OC(=O)N=C1/C=C\c1c[nH]c2c(=O)[n-]c(=O)[n-]c12 (3D coordinates assigned)
C[C@]1(O)OC(=O)N=C1/C=C\c1c[nH]c2c(=O)[n-]c(=O)[n-]c12 (nonaromatic ring conformer: 96.86098741500112 kcal/mol)

>  <smiles>  (66) 
CC1(O)OC(=O)N=C1C=Cc1c[nH]c2c(=O)[nH]c(=O)[nH]c12

>  <score_type>  (66) 
oracle

>  <origin>  (66) 
adg

>  <m_score__min__energy>  (66) 
-11.17

>  <m_primary>  (66) 
energy

$$$$
66:0
     RDKit          3D

 46 48  0  0  0  0  0  0  0  0999 V2000
   57.8737   27.9747   43.8907 H   0  0  0  0  0  0  0  0  0  0  0  0
   57.7090   28.5230   44.8300 C   0  0  0  0  0  0  0  0  0  0  0  0
   56.9400   29.7780   44.7730 C   0  0  0  0  0  0  0  0  0  0  0  0
   55.6890   29.7340   44.9220 O   0  0  0  0  0  0  0  0  0  0  0  0
   57.5960   31.0070   44.6230 O   0  0  0  0  0  0  0  0  0  0  0  0
   57.0240   32.2610   44.9870 C   0  0  0  0  0  0  0  0  0  0  0  0
   56.7697   32.8231   44.0763 H   0  0  0  0  0  0  0  0  0  0  0  0
   56.1164   32.0837   45.5827 H   0  0  0  0  0  0  0  0  0  0  0  0
   58.0020   33.0560   45.8050 C   0  0  0  0  0  0  0  0  0  0  0  0
   58.7440   34.0920   45.2100 C   0  0  0  0  0  0  0  0  0  0  0  0
   58.6119   34.3169   44.1414 H   0  0  0  0  0  0  0  0  0  0  0  0
   59.6490   34.8370   45.9720 C   0  0  0  0  0  0  0  0  0  0  0  0
   60.2415   35.6331   45.4975 H   0  0  0  0  0  0  0  0  0  0  0  0
   59.8020   34.5720   47.3350 C   0  0  0  0  0  0  0  0  0  0  0  0
   60.5120   35.1613   47.9338 H   0  0  0  0  0  0  0  0  0  0  0  0
   59.0520   33.5570   47.9380 C   0  0  0  0  0  0  0  0  0  0  0  0
   59.1680   33.3531   49.0127 H   0  0  0  0  0  0  0  0  0  0  0  0
   58.1550   32.8010   47.1770 C   0  0  0  0  0  0  0  0  0  0  0  0
   57.5671   32.0036   47.6551 H   0  0  0  0  0  0  0  0  0  0  0  0
   58.2200   28.0090   45.9570 C   0  0  0  0  0  0  0  0  0  0  0  0
   58.0867   26.9354   46.1562 H   0  0  0  0  0  0  0  0  0  0  0  0
   58.9350   28.8050   46.9150 N   0  0  0  0  0  0  0  0  0  0  0  0
   58.6000   28.7030   48.2330 C   0  0  0  0  0  0  0  0  0  0  0  0
   57.8007   28.0125   48.5401 H   0  0  0  0  0  0  0  0  0  0  0  0
   59.2440   29.4460   49.1700 N   0  0  0  0  0  0  0  0  0  0  0  0
   58.9480   29.3560   50.1680 H   0  0  0  0  0  0  0  0  0  0  0  0
   60.2520   30.2920   48.8220 C   0  0  0  0  0  0  0  0  0  0  0  0
   60.9050   31.0580   49.7980 C   0  0  0  0  0  0  0  0  0  0  0  0
   60.5932   30.9803   50.8500 H   0  0  0  0  0  0  0  0  0  0  0  0
   61.9550   31.9250   49.4450 C   0  0  0  0  0  0  0  0  0  0  0  0
   62.6240   32.7110   50.3970 O   0  0  0  0  0  0  0  0  0  0  0  0
   62.6500   34.1350   50.3940 C   0  0  0  0  0  0  0  0  0  0  0  0
   62.6567   34.5038   51.4303 H   0  0  0  0  0  0  0  0  0  0  0  0
   63.5547   34.4841   49.8747 H   0  0  0  0  0  0  0  0  0  0  0  0
   61.7587   34.5169   49.8747 H   0  0  0  0  0  0  0  0  0  0  0  0
   62.3590   32.0190   48.1050 C   0  0  0  0  0  0  0  0  0  0  0  0
   63.4120   32.8910   47.7880 O   0  0  0  0  0  0  0  0  0  0  0  0
   63.3830   33.8420   46.7270 C   0  0  0  0  0  0  0  0  0  0  0  0
   63.3520   34.8584   47.1464 H   0  0  0  0  0  0  0  0  0  0  0  0
   64.2850   33.7282   46.1078 H   0  0  0  0  0  0  0  0  0  0  0  0
   62.4896   33.6734   46.1078 H   0  0  0  0  0  0  0  0  0  0  0  0
   61.7030   31.2520   47.1230 C   0  0  0  0  0  0  0  0  0  0  0  0
   62.0206   31.3243   46.0723 H   0  0  0  0  0  0  0  0  0  0  0  0
   60.6460   30.3950   47.4740 C   0  0  0  0  0  0  0  0  0  0  0  0
   59.9550   29.6290   46.5200 C   0  0  0  0  0  0  0  0  0  0  0  0
   60.2770   29.6970   45.3000 O   0  0  0  0  0  0  0  0  0  0  0  0
  1  2  1  0
  2  3  1  0
  3  4  2  0
  3  5  1  0
  5  6  1  0
  6  7  1  0
  6  8  1  0
  6  9  1  0
  9 10  2  0
 10 11  1  0
 10 12  1  0
 12 13  1  0
 12 14  2  0
 14 15  1  0
 14 16  1  0
 16 17  1  0
 16 18  2  0
 18 19  1  0
  2 20  2  0
 20 21  1  0
 20 22  1  0
 22 23  1  0
 23 24  1  0
 23 25  2  0
 25 26  1  0
 25 27  1  0
 27 28  2  0
 28 29  1  0
 28 30  1  0
 30 31  1  0
 31 32  1  0
 32 33  1  0
 32 34  1  0
 32 35  1  0
 30 36  2  0
 36 37  1  0
 37 38  1  0
 38 39  1  0
 38 40  1  0
 38 41  1  0
 36 42  1  0
 42 43  1  0
 42 44  2  0
 44 45  1  0
 45 46  2  0
 18  9  1  0
 45 22  1  0
 44 27  1  0
M  CHG  1  25   1
M  END
>  <UniqueID>  (67) 
58

>  <SMILES>  (67) 
COc1cc2[nH+]cn(/C=C\C(=O)OCc3ccccc3)c(=O)c2cc1OC

>  <Energy>  (67) 
54.076808717721306

>  <Genealogy>  (67) 
COc1cc2[nH+]cn(C=CC(=O)OCc3ccccc3)c(=O)c2cc1OC (protonated)
COc1cc2[nH+]cn(/C=C\C(=O)OCc3ccccc3)c(=O)c2cc1OC (cis-trans isomerization)
COc1cc2[nH+]cn(/C=C\C(=O)OCc3ccccc3)c(=O)c2cc1OC (3D coordinates assigned)
COc1cc2[nH+]cn(/C=C\C(=O)OCc3ccccc3)c(=O)c2cc1OC (optimized conformer: 54.076808717721306 kcal/mol)

>  <smiles>  (67) 
COc1cc2ncn(C=CC(=O)OCc3ccccc3)c(=O)c2cc1OC

>  <score_type>  (67) 
oracle

>  <origin>  (67) 
adg

>  <m_score__min__energy>  (67) 
-6.2999999999999998

>  <m_primary>  (67) 
energy

$$$$
67:0
     RDKit          3D

 39 41  0  0  0  0  0  0  0  0999 V2000
   54.8600   26.2990   45.9800 O   0  0  0  0  0  0  0  0  0  0  0  0
   55.5730   25.3370   45.5940 C   0  0  0  0  0  0  0  0  0  0  0  0
   54.9810   24.0380   45.4690 N   0  0  0  0  0  0  0  0  0  0  0  0
   55.5340   22.9830   44.9410 C   0  0  0  0  0  0  0  0  0  0  0  0
   55.9920   23.0560   43.6210 C   0  0  0  0  0  0  0  0  0  0  0  0
   56.6080   21.9460   43.0380 C   0  0  0  0  0  0  0  0  0  0  0  0
   56.7510   20.7930   43.7440 N   0  0  0  0  0  0  0  0  0  0  0  0
   56.2990   20.6850   45.0230 C   0  0  0  0  0  0  0  0  0  0  0  0
   55.6790   21.7720   45.6450 C   0  0  0  0  0  0  0  0  0  0  0  0
   56.9370   25.5850   45.2280 N   0  0  0  0  0  0  0  0  0  0  0  0
   58.1830   26.1610   46.2920 S   0  0  0  0  0  0  0  0  0  0  0  0
   57.7810   25.8780   47.7110 O   0  0  0  0  0  0  0  0  0  0  0  0
   59.4600   25.4250   45.9950 O   0  0  0  0  0  0  0  0  0  0  0  0
   58.4200   27.8980   46.1230 C   0  0  0  0  0  0  0  0  0  0  0  0
   57.7740   28.6120   45.1050 C   0  0  0  0  0  0  0  0  0  0  0  0
   57.9290   29.9970   45.0080 C   0  0  0  0  0  0  0  0  0  0  0  0
   58.7380   30.6900   45.9260 C   0  0  0  0  0  0  0  0  0  0  0  0
   58.8890   32.1650   45.8360 C   0  0  0  0  0  0  0  0  0  0  0  0
   59.8730   32.8300   46.5910 C   0  0  0  0  0  0  0  0  0  0  0  0
   60.0100   34.2200   46.5070 C   0  0  0  0  0  0  0  0  0  0  0  0
   59.1710   34.9580   45.6690 C   0  0  0  0  0  0  0  0  0  0  0  0
   58.1900   34.3090   44.9150 C   0  0  0  0  0  0  0  0  0  0  0  0
   58.0480   32.9200   44.9970 C   0  0  0  0  0  0  0  0  0  0  0  0
   59.3970   29.9640   46.9350 C   0  0  0  0  0  0  0  0  0  0  0  0
   59.2420   28.5790   47.0300 C   0  0  0  0  0  0  0  0  0  0  0  0
   55.8674   23.9843   43.0442 H   0  0  0  0  0  0  0  0  0  0  0  0
   56.9787   22.0051   42.0040 H   0  0  0  0  0  0  0  0  0  0  0  0
   57.2130   19.9720   43.2940 H   0  0  0  0  0  0  0  0  0  0  0  0
   56.4222   19.7383   45.5694 H   0  0  0  0  0  0  0  0  0  0  0  0
   55.3072   21.6824   46.6764 H   0  0  0  0  0  0  0  0  0  0  0  0
   57.1420   28.0796   44.3790 H   0  0  0  0  0  0  0  0  0  0  0  0
   57.4146   30.5494   44.2078 H   0  0  0  0  0  0  0  0  0  0  0  0
   60.5382   32.2538   47.2509 H   0  0  0  0  0  0  0  0  0  0  0  0
   60.7801   34.7326   47.1022 H   0  0  0  0  0  0  0  0  0  0  0  0
   59.2826   36.0503   45.6026 H   0  0  0  0  0  0  0  0  0  0  0  0
   57.5287   34.8910   44.2563 H   0  0  0  0  0  0  0  0  0  0  0  0
   57.2737   32.4141   44.4017 H   0  0  0  0  0  0  0  0  0  0  0  0
   60.0397   30.4915   47.6552 H   0  0  0  0  0  0  0  0  0  0  0  0
   59.7671   28.0214   47.8195 H   0  0  0  0  0  0  0  0  0  0  0  0
  1  2  2  0
  2  3  1  0
  3  4  2  3
  4  5  1  0
  5  6  2  0
  6  7  1  0
  7  8  1  0
  8  9  2  0
  2 10  1  0
 10 11  1  0
 11 12  2  0
 11 13  2  0
 11 14  1  0
 14 15  2  0
 15 16  1  0
 16 17  2  0
 17 18  1  0
 18 19  2  0
 19 20  1  0
 20 21  2  0
 21 22  1  0
 22 23  2  0
 17 24  1  0
 24 25  2  0
  9  4  1  0
 25 14  1  0
 23 18  1  0
  5 26  1  0
  6 27  1  0
  7 28  1  0
  8 29  1  0
  9 30  1  0
 15 31  1  0
 16 32  1  0
 19 33  1  0
 20 34  1  0
 21 35  1  0
 22 36  1  0
 23 37  1  0
 24 38  1  0
 25 39  1  0
M  CHG  1  10  -1
M  END
>  <UniqueID>  (68) 
59

>  <SMILES>  (68) 
O=C(N=c1cc[nH]cc1)[N-]S(=O)(=O)c1ccc(-c2ccccc2)cc1

>  <Energy>  (68) 
57.280098597587816

>  <Genealogy>  (68) 
O=C(N=c1cc[nH]cc1)[N-]S(=O)(=O)c1ccc(-c2ccccc2)cc1 (protonated)
O=C(N=c1cc[nH]cc1)[N-]S(=O)(=O)c1ccc(-c2ccccc2)cc1 (3D coordinates assigned)
O=C(N=c1cc[nH]cc1)[N-]S(=O)(=O)c1ccc(-c2ccccc2)cc1 (optimized conformer: 57.280098597587816 kcal/mol)

>  <smiles>  (68) 
O=C(N=c1cc[nH]cc1)NS(=O)(=O)c1ccc(-c2ccccc2)cc1

>  <score_type>  (68) 
oracle

>  <origin>  (68) 
adg

>  <m_score__min__energy>  (68) 
-10.01

>  <m_primary>  (68) 
energy

$$$$
68:0
     RDKit          3D

 60 64  0  0  0  0  0  0  0  0999 V2000
   58.5580   29.4470   49.4330 C   0  0  0  0  0  0  0  0  0  0  0  0
   58.8760   30.4310   50.5280 C   0  0  0  0  0  0  0  0  0  0  0  0
   57.7580   30.9820   51.3850 C   0  0  0  0  0  0  0  0  0  0  0  0
   60.1690   30.7630   50.7420 C   0  0  0  0  0  0  0  0  0  0  0  0
   61.3260   30.2420   49.9170 C   0  0  0  0  0  0  0  0  0  0  0  0
   62.5050   31.2030   49.8960 C   0  0  0  0  0  0  0  0  0  0  0  0
   63.5350   30.9590   50.8380 C   0  0  0  0  0  0  0  0  0  0  0  0
   63.3040   30.1200   51.9250 O   0  0  0  0  0  0  0  0  0  0  0  0
   64.7990   31.5340   50.6830 C   0  0  0  0  0  0  0  0  0  0  0  0
   65.8300   31.2800   51.5890 O   0  0  0  0  0  0  0  0  0  0  0  0
   65.0480   32.3620   49.6000 C   0  0  0  0  0  0  0  0  0  0  0  0
   64.0190   32.7330   48.7380 C   0  0  0  0  0  0  0  0  0  0  0  0
   64.3150   33.5730   47.7560 O   0  0  0  0  0  0  0  0  0  0  0  0
   63.4070   34.0900   46.9480 C   0  0  0  0  0  0  0  0  0  0  0  0
   63.7670   34.8770   46.0310 O   0  0  0  0  0  0  0  0  0  0  0  0
   62.0570   33.8220   47.1500 C   0  0  0  0  0  0  0  0  0  0  0  0
   61.6640   32.8820   48.1350 C   0  0  0  0  0  0  0  0  0  0  0  0
   62.6900   32.2440   48.9190 C   0  0  0  0  0  0  0  0  0  0  0  0
   60.1540   32.7070   48.3310 C   0  0  2  0  0  0  0  0  0  0  0  0
   59.6200   31.7400   47.3620 N   0  0  0  0  0  0  0  0  0  0  0  0
   58.5860   31.9340   46.5240 C   0  0  0  0  0  0  0  0  0  0  0  0
   58.5310   30.8180   45.7180 C   0  0  0  0  0  0  0  0  0  0  0  0
   57.6010   30.5770   44.6110 C   0  0  0  0  0  0  0  0  0  0  0  0
   57.2280   31.5410   43.8880 O   0  0  0  0  0  0  0  0  0  0  0  0
   57.1230   29.2530   44.3550 N   0  0  0  0  0  0  0  0  0  0  0  0
   56.1170   28.5860   45.1760 C   0  0  0  0  0  0  0  0  0  0  0  0
   56.6660   27.2790   45.6860 C   0  0  0  0  0  0  0  0  0  0  0  0
   58.0560   27.1380   45.8490 C   0  0  0  0  0  0  0  0  0  0  0  0
   58.5940   25.9530   46.3580 C   0  0  0  0  0  0  0  0  0  0  0  0
   57.7490   24.8990   46.7170 C   0  0  0  0  0  0  0  0  0  0  0  0
   56.3650   25.0300   46.5670 C   0  0  0  0  0  0  0  0  0  0  0  0
   55.8180   26.2160   46.0600 C   0  0  0  0  0  0  0  0  0  0  0  0
   54.4380   26.3250   45.9300 O   0  0  0  0  0  0  0  0  0  0  0  0
   59.5350   29.9910   46.0660 N   0  0  0  0  0  0  0  0  0  0  0  0
   60.1820   30.5780   47.0610 N   0  0  0  0  0  0  0  0  0  0  0  0
   59.4020   34.0420   48.1670 C   0  0  0  0  0  0  0  0  0  0  0  0
   59.7970   34.6830   46.8730 C   0  0  0  0  0  0  0  0  0  0  0  0
   58.9750   35.3800   46.2230 O   0  0  0  0  0  0  0  0  0  0  0  0
   61.1070   34.5510   46.4200 O   0  0  0  0  0  0  0  0  0  0  0  0
   58.2487   28.4900   49.8785 H   0  0  0  0  0  0  0  0  0  0  0  0
   57.7419   29.8424   48.8104 H   0  0  0  0  0  0  0  0  0  0  0  0
   59.4511   29.2900   48.8104 H   0  0  0  0  0  0  0  0  0  0  0  0
   58.0140   30.8558   52.4473 H   0  0  0  0  0  0  0  0  0  0  0  0
   57.6205   32.0511   51.1655 H   0  0  0  0  0  0  0  0  0  0  0  0
   56.8264   30.4398   51.1655 H   0  0  0  0  0  0  0  0  0  0  0  0
   60.3941   31.4548   51.5670 H   0  0  0  0  0  0  0  0  0  0  0  0
   61.6593   29.2838   50.3422 H   0  0  0  0  0  0  0  0  0  0  0  0
   60.9724   30.1237   48.8821 H   0  0  0  0  0  0  0  0  0  0  0  0
   65.7030   30.6790   52.3930 H   0  0  0  0  0  0  0  0  0  0  0  0
   66.0688   32.7299   49.4194 H   0  0  0  0  0  0  0  0  0  0  0  0
   60.0006   32.3374   49.3556 H   0  0  0  0  0  0  0  0  0  0  0  0
   57.9187   32.8077   46.4892 H   0  0  0  0  0  0  0  0  0  0  0  0
   55.8543   29.2301   46.0281 H   0  0  0  0  0  0  0  0  0  0  0  0
   55.2198   28.3934   44.5694 H   0  0  0  0  0  0  0  0  0  0  0  0
   58.7247   27.9669   45.5737 H   0  0  0  0  0  0  0  0  0  0  0  0
   59.6827   25.8496   46.4762 H   0  0  0  0  0  0  0  0  0  0  0  0
   58.1729   23.9663   47.1176 H   0  0  0  0  0  0  0  0  0  0  0  0
   55.7026   24.1981   46.8484 H   0  0  0  0  0  0  0  0  0  0  0  0
   58.3181   33.8545   48.1672 H   0  0  0  0  0  0  0  0  0  0  0  0
   59.6590   34.7118   49.0009 H   0  0  0  0  0  0  0  0  0  0  0  0
  1  2  1  0
  2  3  1  0
  2  4  2  3
  4  5  1  0
  5  6  1  0
  6  7  2  0
  7  8  1  0
  7  9  1  0
  9 10  1  0
  9 11  2  0
 11 12  1  0
 12 13  1  0
 13 14  1  0
 14 15  2  0
 14 16  1  0
 16 17  2  0
 17 18  1  0
 17 19  1  0
 19 20  1  0
 20 21  1  0
 21 22  2  0
 22 23  1  0
 23 24  2  0
 23 25  1  0
 25 26  1  0
 26 27  1  0
 27 28  2  0
 28 29  1  0
 29 30  2  0
 30 31  1  0
 31 32  2  0
 32 33  1  0
 22 34  1  0
 34 35  2  0
 19 36  1  0
 36 37  1  0
 37 38  2  0
 37 39  1  0
 18  6  1  0
 35 20  1  0
 18 12  2  0
 32 27  1  0
 39 16  1  0
  1 40  1  0
  1 41  1  0
  1 42  1  0
  3 43  1  0
  3 44  1  0
  3 45  1  0
  4 46  1  0
  5 47  1  0
  5 48  1  0
 10 49  1  0
 11 50  1  0
 19 51  1  1
 21 52  1  0
 26 53  1  0
 26 54  1  0
 28 55  1  0
 29 56  1  0
 30 57  1  0
 31 58  1  0
 36 59  1  0
 36 60  1  0
M  CHG  3   8  -1  25  -1  33  -1
M  END
>  <UniqueID>  (69) 
60

>  <SMILES>  (69) 
CC(C)=CCc1c([O-])c(O)cc2oc(=O)c3c(c12)[C@H](n1cc(C(=O)[N-]Cc2ccccc2[O-])nn1)CC(=O)O3

>  <Energy>  (69) 
120.39750087634833

>  <Genealogy>  (69) 
CC(C)=CCc1c([O-])c(O)cc2oc(=O)c3c(c12)C(n1cc(C(=O)[N-]Cc2ccccc2[O-])nn1)CC(=O)O3 (protonated)
CC(C)=CCc1c([O-])c(O)cc2oc(=O)c3c(c12)[C@H](n1cc(C(=O)[N-]Cc2ccccc2[O-])nn1)CC(=O)O3 (chirality)
CC(C)=CCc1c([O-])c(O)cc2oc(=O)c3c(c12)[C@H](n1cc(C(=O)[N-]Cc2ccccc2[O-])nn1)CC(=O)O3 (3D coordinates assigned)
CC(C)=CCc1c([O-])c(O)cc2oc(=O)c3c(c12)[C@H](n1cc(C(=O)[N-]Cc2ccccc2[O-])nn1)CC(=O)O3 (nonaromatic ring conformer: 120.39750087634833 kcal/mol)

>  <smiles>  (69) 
CC(C)=CCc1c(O)c(O)cc2oc(=O)c3c(c12)C(n1cc(C(=O)NCc2ccccc2O)nn1)CC(=O)O3

>  <score_type>  (69) 
oracle

>  <origin>  (69) 
adg

>  <m_score__min__energy>  (69) 
-15.359999999999999

>  <m_primary>  (69) 
energy

$$$$
69:0
     RDKit          3D

 42 43  0  0  0  0  0  0  0  0999 V2000
   56.8240   26.4120   45.9810 C   0  0  0  0  0  0  0  0  0  0  0  0
   57.3960   27.8260   45.9290 C   0  0  0  0  0  0  0  0  0  0  0  0
   57.5800   28.2710   44.5330 N   0  0  0  0  0  0  0  0  0  0  0  0
   59.0050   28.4180   44.1650 C   0  0  0  0  0  0  0  0  0  0  0  0
   59.9660   28.3930   45.3620 C   0  0  0  0  0  0  0  0  0  0  0  0
   56.6510   29.7130   44.1580 S   0  0  0  0  0  0  0  0  0  0  0  0
   56.4070   29.8030   42.6770 O   0  0  0  0  0  0  0  0  0  0  0  0
   55.3260   29.6870   44.8690 O   0  0  0  0  0  0  0  0  0  0  0  0
   57.5330   31.1330   44.7080 C   0  0  0  0  0  0  0  0  0  0  0  0
   57.7270   32.2090   43.8350 C   0  0  0  0  0  0  0  0  0  0  0  0
   58.4170   33.3470   44.2590 C   0  0  0  0  0  0  0  0  0  0  0  0
   58.9320   33.4240   45.5670 C   0  0  0  0  0  0  0  0  0  0  0  0
   59.6620   34.6330   46.0190 C   0  0  0  0  0  0  0  0  0  0  0  0
   59.5980   35.6910   45.3350 O   0  0  0  0  0  0  0  0  0  0  0  0
   60.5080   34.5650   47.1800 N   0  0  0  0  0  0  0  0  0  0  0  0
   61.5350   33.7940   47.4060 C   0  0  0  0  0  0  0  0  0  0  0  0
   62.6200   33.8620   46.5210 C   0  0  0  0  0  0  0  0  0  0  0  0
   63.7400   33.0520   46.7250 C   0  0  0  0  0  0  0  0  0  0  0  0
   63.7760   32.1850   47.7710 N   0  0  0  0  0  0  0  0  0  0  0  0
   62.7310   32.0770   48.6360 C   0  0  0  0  0  0  0  0  0  0  0  0
   61.5930   32.8710   48.4720 C   0  0  0  0  0  0  0  0  0  0  0  0
   58.7390   32.3360   46.4380 C   0  0  0  0  0  0  0  0  0  0  0  0
   58.0460   31.1990   46.0100 C   0  0  0  0  0  0  0  0  0  0  0  0
   56.6998   26.1050   47.0300 H   0  0  0  0  0  0  0  0  0  0  0  0
   55.8474   26.3927   45.4752 H   0  0  0  0  0  0  0  0  0  0  0  0
   57.5126   25.7191   45.4752 H   0  0  0  0  0  0  0  0  0  0  0  0
   56.7036   28.5131   46.4374 H   0  0  0  0  0  0  0  0  0  0  0  0
   58.3757   27.8265   46.4292 H   0  0  0  0  0  0  0  0  0  0  0  0
   59.2741   27.5935   43.4884 H   0  0  0  0  0  0  0  0  0  0  0  0
   59.1110   29.4059   43.6930 H   0  0  0  0  0  0  0  0  0  0  0  0
   59.3872   28.4081   46.2973 H   0  0  0  0  0  0  0  0  0  0  0  0
   60.5763   27.4787   45.3232 H   0  0  0  0  0  0  0  0  0  0  0  0
   60.6230   29.2744   45.3232 H   0  0  0  0  0  0  0  0  0  0  0  0
   57.3339   32.1584   42.8089 H   0  0  0  0  0  0  0  0  0  0  0  0
   58.5591   34.1892   43.5658 H   0  0  0  0  0  0  0  0  0  0  0  0
   62.5896   34.5532   45.6658 H   0  0  0  0  0  0  0  0  0  0  0  0
   64.5956   33.1162   46.0366 H   0  0  0  0  0  0  0  0  0  0  0  0
   64.6210   31.5880   47.9120 H   0  0  0  0  0  0  0  0  0  0  0  0
   62.7825   31.3605   49.4691 H   0  0  0  0  0  0  0  0  0  0  0  0
   60.7476   32.7772   49.1695 H   0  0  0  0  0  0  0  0  0  0  0  0
   59.1360   32.3799   47.4629 H   0  0  0  0  0  0  0  0  0  0  0  0
   57.9032   30.3531   46.6985 H   0  0  0  0  0  0  0  0  0  0  0  0
  1  2  1  0
  2  3  1  0
  3  4  1  0
  4  5  1  0
  3  6  1  0
  6  7  2  0
  6  8  2  0
  6  9  1  0
  9 10  2  0
 10 11  1  0
 11 12  2  0
 12 13  1  0
 13 14  2  0
 13 15  1  0
 15 16  2  3
 16 17  1  0
 17 18  2  0
 18 19  1  0
 19 20  1  0
 20 21  2  0
 12 22  1  0
 22 23  2  0
 23  9  1  0
 21 16  1  0
  1 24  1  0
  1 25  1  0
  1 26  1  0
  2 27  1  0
  2 28  1  0
  4 29  1  0
  4 30  1  0
  5 31  1  0
  5 32  1  0
  5 33  1  0
 10 34  1  0
 11 35  1  0
 17 36  1  0
 18 37  1  0
 19 38  1  0
 20 39  1  0
 21 40  1  0
 22 41  1  0
 23 42  1  0
M  END
>  <UniqueID>  (70) 
61

>  <SMILES>  (70) 
CCN(CC)S(=O)(=O)c1ccc(C(=O)N=c2cc[nH]cc2)cc1

>  <Energy>  (70) 
49.662084269008915

>  <Genealogy>  (70) 
CCN(CC)S(=O)(=O)c1ccc(C(=O)N=c2cc[nH]cc2)cc1 (3D coordinates assigned)
CCN(CC)S(=O)(=O)c1ccc(C(=O)N=c2cc[nH]cc2)cc1 (optimized conformer: 49.662084269008915 kcal/mol)

>  <smiles>  (70) 
CCN(CC)S(=O)(=O)c1ccc(C(=O)N=c2cc[nH]cc2)cc1

>  <score_type>  (70) 
oracle

>  <origin>  (70) 
adg

>  <m_score__min__energy>  (70) 
-8.4399999999999995

>  <m_primary>  (70) 
energy

$$$$
70:0
     RDKit          3D

 40 43  0  0  0  0  0  0  0  0999 V2000
   65.7690   33.0780   49.5190 O   0  0  0  0  0  0  0  0  0  0  0  0
   64.5390   33.3230   49.6250 C   0  0  0  0  0  0  0  0  0  0  0  0
   64.1010   34.2070   50.5550 N   0  0  0  0  0  0  0  0  0  0  0  0
   62.8030   34.4710   50.6930 N   0  0  0  0  0  0  0  0  0  0  0  0
   61.8790   33.8660   49.9030 C   0  0  0  0  0  0  0  0  0  0  0  0
   62.2810   33.0010   48.9220 N   0  0  0  0  0  0  0  0  0  0  0  0
   63.6060   32.7030   48.7890 C   0  0  0  0  0  0  0  0  0  0  0  0
   63.9900   31.8880   47.9050 O   0  0  0  0  0  0  0  0  0  0  0  0
   61.3550   32.4450   48.0140 N   0  0  0  0  0  0  0  0  0  0  0  0
   60.1800   32.9550   47.7720 C   0  0  0  0  0  0  0  0  0  0  0  0
   59.2990   32.2890   46.7830 C   0  0  0  0  0  0  0  0  0  0  0  0
   58.9850   32.9050   45.5580 C   0  0  0  0  0  0  0  0  0  0  0  0
   58.1470   32.2680   44.6380 C   0  0  0  0  0  0  0  0  0  0  0  0
   57.6090   31.0090   44.9290 C   0  0  0  0  0  0  0  0  0  0  0  0
   56.5690   30.1910   43.7660 S   0  0  0  0  0  0  0  0  0  0  0  0
   55.1500   30.2620   44.2560 O   0  0  0  0  0  0  0  0  0  0  0  0
   56.6550   30.8510   42.4180 O   0  0  0  0  0  0  0  0  0  0  0  0
   57.0400   28.5270   43.6140 N   0  0  0  0  0  0  0  0  0  0  0  0
   57.7420   27.7960   44.6380 C   0  0  0  0  0  0  0  0  0  0  0  0
   59.1500   27.7370   44.6710 C   0  0  0  0  0  0  0  0  0  0  0  0
   59.8050   27.0250   45.6790 C   0  0  0  0  0  0  0  0  0  0  0  0
   59.0680   26.3600   46.6610 C   0  0  0  0  0  0  0  0  0  0  0  0
   57.6730   26.4040   46.6350 C   0  0  0  0  0  0  0  0  0  0  0  0
   57.0110   27.1150   45.6290 C   0  0  0  0  0  0  0  0  0  0  0  0
   55.6540   27.1470   45.6290 F   0  0  0  0  0  0  0  0  0  0  0  0
   57.9000   30.3990   46.1540 C   0  0  0  0  0  0  0  0  0  0  0  0
   58.7360   31.0330   47.0770 C   0  0  0  0  0  0  0  0  0  0  0  0
   59.7910   34.2670   48.4060 C   0  0  0  0  0  0  0  0  0  0  0  0
   60.1380   34.1840   50.1840 S   0  0  0  0  0  0  0  0  0  0  0  0
   59.4019   33.8952   45.3222 H   0  0  0  0  0  0  0  0  0  0  0  0
   57.9096   32.7579   43.6821 H   0  0  0  0  0  0  0  0  0  0  0  0
   56.7170   28.0260   42.7580 H   0  0  0  0  0  0  0  0  0  0  0  0
   59.7369   28.2549   43.8981 H   0  0  0  0  0  0  0  0  0  0  0  0
   60.9042   26.9882   45.6991 H   0  0  0  0  0  0  0  0  0  0  0  0
   59.5863   25.8018   47.4546 H   0  0  0  0  0  0  0  0  0  0  0  0
   57.0930   25.8781   47.4077 H   0  0  0  0  0  0  0  0  0  0  0  0
   57.4686   29.4155   46.3918 H   0  0  0  0  0  0  0  0  0  0  0  0
   58.9554   30.5474   48.0393 H   0  0  0  0  0  0  0  0  0  0  0  0
   60.3735   35.0831   47.9535 H   0  0  0  0  0  0  0  0  0  0  0  0
   58.7199   34.4572   48.2432 H   0  0  0  0  0  0  0  0  0  0  0  0
  1  2  2  0
  2  3  1  0
  3  4  1  0
  4  5  2  0
  5  6  1  0
  6  7  1  0
  7  8  2  0
  6  9  1  0
  9 10  2  0
 10 11  1  0
 11 12  2  0
 12 13  1  0
 13 14  2  0
 14 15  1  0
 15 16  2  0
 15 17  2  0
 15 18  1  0
 18 19  1  0
 19 20  2  0
 20 21  1  0
 21 22  2  0
 22 23  1  0
 23 24  2  0
 24 25  1  0
 14 26  1  0
 26 27  2  0
 10 28  1  0
 28 29  1  0
  7  2  1  0
 27 11  1  0
 29  5  1  0
 24 19  1  0
 12 30  1  0
 13 31  1  0
 18 32  1  0
 20 33  1  0
 21 34  1  0
 22 35  1  0
 23 36  1  0
 26 37  1  0
 27 38  1  0
 28 39  1  0
 28 40  1  0
M  CHG  1   3  -1
M  END
>  <UniqueID>  (71) 
62

>  <SMILES>  (71) 
O=c1[n-]nc2n(c1=O)N=C(c1ccc(S(=O)(=O)Nc3ccccc3F)cc1)CS2

>  <Energy>  (71) 
61.04682333728759

>  <Genealogy>  (71) 
O=c1[n-]nc2n(c1=O)N=C(c1ccc(S(=O)(=O)Nc3ccccc3F)cc1)CS2 (protonated)
O=c1[n-]nc2n(c1=O)N=C(c1ccc(S(=O)(=O)Nc3ccccc3F)cc1)CS2 (3D coordinates assigned)
O=c1[n-]nc2n(c1=O)N=C(c1ccc(S(=O)(=O)Nc3ccccc3F)cc1)CS2 (nonaromatic ring conformer: 61.04682333728759 kcal/mol)

>  <smiles>  (71) 
O=c1[nH]nc2n(c1=O)N=C(c1ccc(S(=O)(=O)Nc3ccccc3F)cc1)CS2

>  <score_type>  (71) 
oracle

>  <origin>  (71) 
adg

>  <m_score__min__energy>  (71) 
-10.9

>  <m_primary>  (71) 
energy

$$$$
71:0
     RDKit          3D

 28 30  0  0  0  0  0  0  0  0999 V2000
   60.8040   28.0810   45.2470 C   0  0  0  0  0  0  0  0  0  0  0  0
   59.4590   28.3030   44.7360 N   0  0  0  0  0  0  0  0  0  0  0  0
   58.7310   29.4280   44.8600 C   0  0  0  0  0  0  0  0  0  0  0  0
   57.5650   29.2140   44.1530 C   0  0  0  0  0  0  0  0  0  0  0  0
   56.4630   30.1760   43.9570 C   0  0  0  0  0  0  0  0  0  0  0  0
   55.6370   29.9800   43.0270 O   0  0  0  0  0  0  0  0  0  0  0  0
   56.2700   31.2950   44.8280 N   0  0  0  0  0  0  0  0  0  0  0  0
   57.2660   32.2600   45.1960 C   0  0  0  0  0  0  0  0  0  0  0  0
   57.7950   33.1120   44.1970 C   0  0  0  0  0  0  0  0  0  0  0  0
   58.7870   34.0580   44.5130 C   0  0  0  0  0  0  0  0  0  0  0  0
   59.2360   34.1120   45.8280 C   0  0  0  0  0  0  0  0  0  0  0  0
   58.7500   33.2860   46.7880 C   0  0  0  0  0  0  0  0  0  0  0  0
   57.7690   32.3370   46.5180 C   0  0  0  0  0  0  0  0  0  0  0  0
   59.3800   33.5530   47.9880 O   0  0  0  0  0  0  0  0  0  0  0  0
   60.3180   34.6160   47.7680 C   0  0  0  0  0  0  0  0  0  0  0  0
   60.1950   34.9420   46.3770 O   0  0  0  0  0  0  0  0  0  0  0  0
   57.6430   27.9840   43.6070 N   0  0  0  0  0  0  0  0  0  0  0  0
   58.8010   27.4520   43.9670 N   0  0  0  0  0  0  0  0  0  0  0  0
   60.7836   28.0844   46.3468 H   0  0  0  0  0  0  0  0  0  0  0  0
   61.1761   27.1093   44.8902 H   0  0  0  0  0  0  0  0  0  0  0  0
   61.4686   28.8816   44.8902 H   0  0  0  0  0  0  0  0  0  0  0  0
   59.0095   30.3365   45.4141 H   0  0  0  0  0  0  0  0  0  0  0  0
   57.4268   33.0336   43.1634 H   0  0  0  0  0  0  0  0  0  0  0  0
   59.1940   34.7326   43.7454 H   0  0  0  0  0  0  0  0  0  0  0  0
   57.3956   31.6673   47.3067 H   0  0  0  0  0  0  0  0  0  0  0  0
   60.0681   35.4867   48.3921 H   0  0  0  0  0  0  0  0  0  0  0  0
   61.3441   34.3210   48.0326 H   0  0  0  0  0  0  0  0  0  0  0  0
   56.9510   27.5200   42.9780 H   0  0  0  0  0  0  0  0  0  0  0  0
  1  2  1  0
  2  3  1  0
  3  4  2  0
  4  5  1  0
  5  6  2  0
  5  7  1  0
  7  8  1  0
  8  9  2  0
  9 10  1  0
 10 11  2  0
 11 12  1  0
 12 13  2  0
 12 14  1  0
 14 15  1  0
 15 16  1  0
  4 17  1  0
 17 18  2  0
 18  2  1  0
 13  8  1  0
 16 11  1  0
  1 19  1  0
  1 20  1  0
  1 21  1  0
  3 22  1  0
  9 23  1  0
 10 24  1  0
 13 25  1  0
 15 26  1  0
 15 27  1  0
 17 28  1  0
M  CHG  2   7  -1  17   1
M  END
>  <UniqueID>  (72) 
63

>  <SMILES>  (72) 
Cn1cc(C(=O)[N-]c2ccc3c(c2)OCO3)[nH+]n1

>  <Energy>  (72) 
97.171372454235

>  <Genealogy>  (72) 
Cn1cc(C(=O)[N-]c2ccc3c(c2)OCO3)[nH+]n1 (protonated)
Cn1cc(C(=O)[N-]c2ccc3c(c2)OCO3)[nH+]n1 (3D coordinates assigned)
Cn1cc(C(=O)[N-]c2ccc3c(c2)OCO3)[nH+]n1 (nonaromatic ring conformer: 97.171372454235 kcal/mol)

>  <smiles>  (72) 
Cn1cc(C(=O)Nc2ccc3c(c2)OCO3)nn1

>  <score_type>  (72) 
oracle

>  <origin>  (72) 
adg

>  <m_score__min__energy>  (72) 
-7.0199999999999996

>  <m_primary>  (72) 
energy

$$$$
72:0
     RDKit          3D

 50 54  0  0  0  0  0  0  0  0999 V2000
   59.5224   35.3011   47.0683 H   0  0  0  0  0  0  0  0  0  0  0  0
   59.6770   34.2370   47.3000 C   0  0  0  0  0  0  0  0  0  0  0  0
   58.5920   33.4810   47.5170 C   0  0  0  0  0  0  0  0  0  0  0  0
   58.1297   33.4784   48.5151 H   0  0  0  0  0  0  0  0  0  0  0  0
   58.0040   32.6530   46.4490 C   0  0  0  0  0  0  0  0  0  0  0  0
   56.9270   33.0000   45.7020 N   0  0  0  0  0  0  0  0  0  0  0  0
   56.6550   32.0200   44.8470 N   0  0  0  0  0  0  0  0  0  0  0  0
   57.5600   31.0490   45.0510 C   0  0  0  0  0  0  0  0  0  0  0  0
   57.6560   29.8240   44.3980 C   0  0  0  0  0  0  0  0  0  0  0  0
   56.9482   29.5470   43.6029 H   0  0  0  0  0  0  0  0  0  0  0  0
   58.6900   28.9500   44.7890 C   0  0  0  0  0  0  0  0  0  0  0  0
   58.8400   27.3450   44.0050 S   0  0  0  0  0  0  0  0  0  0  0  0
   57.6850   26.5930   45.1460 C   0  0  0  0  0  0  0  0  0  0  0  0
   57.8380   25.0500   45.7940 S   0  0  0  0  0  0  0  0  0  0  0  0
   56.4180   25.2030   46.7040 C   0  0  0  0  0  0  0  0  0  0  0  0
   55.9190   24.3150   47.5110 N   0  0  0  0  0  0  0  0  0  0  0  0
   56.3110   22.9390   47.6480 C   0  0  0  0  0  0  0  0  0  0  0  0
   57.2340   22.5960   48.4360 O   0  0  0  0  0  0  0  0  0  0  0  0
   55.6500   21.9020   46.7920 C   0  0  0  0  0  0  0  0  0  0  0  0
   55.9812   20.9036   47.1138 H   0  0  0  0  0  0  0  0  0  0  0  0
   54.5595   21.9961   46.9013 H   0  0  0  0  0  0  0  0  0  0  0  0
   56.0100   22.0990   45.3430 C   0  0  0  0  0  0  0  0  0  0  0  0
   55.3180   23.0420   44.5620 C   0  0  0  0  0  0  0  0  0  0  0  0
   54.5283   23.6577   45.0172 H   0  0  0  0  0  0  0  0  0  0  0  0
   55.6320   23.1990   43.2060 C   0  0  0  0  0  0  0  0  0  0  0  0
   55.0919   23.9414   42.6000 H   0  0  0  0  0  0  0  0  0  0  0  0
   56.6320   22.4130   42.6200 C   0  0  0  0  0  0  0  0  0  0  0  0
   56.8804   22.5414   41.5561 H   0  0  0  0  0  0  0  0  0  0  0  0
   57.3150   21.4640   43.3890 C   0  0  0  0  0  0  0  0  0  0  0  0
   58.0965   20.8424   42.9276 H   0  0  0  0  0  0  0  0  0  0  0  0
   57.0050   21.3050   44.7440 C   0  0  0  0  0  0  0  0  0  0  0  0
   57.5419   20.5555   45.3440 H   0  0  0  0  0  0  0  0  0  0  0  0
   55.8330   26.4090   46.5190 N   0  0  0  0  0  0  0  0  0  0  0  0
   56.5330   27.1850   45.6490 C   0  0  0  0  0  0  0  0  0  0  0  0
   56.2133   28.1989   45.3664 H   0  0  0  0  0  0  0  0  0  0  0  0
   59.5950   29.3280   45.8100 C   0  0  0  0  0  0  0  0  0  0  0  0
   60.4061   28.6443   46.1008 H   0  0  0  0  0  0  0  0  0  0  0  0
   59.4650   30.5720   46.4560 C   0  0  0  0  0  0  0  0  0  0  0  0
   60.1574   30.8748   47.2553 H   0  0  0  0  0  0  0  0  0  0  0  0
   58.4260   31.4060   46.0450 C   0  0  0  0  0  0  0  0  0  0  0  0
   61.0700   33.7370   47.3510 C   0  0  0  0  0  0  0  0  0  0  0  0
   61.9500   34.2100   46.4240 N   0  0  0  0  0  0  0  0  0  0  0  0
   63.2540   33.8250   46.3960 C   0  0  0  0  0  0  0  0  0  0  0  0
   63.9300   34.2288   45.6279 H   0  0  0  0  0  0  0  0  0  0  0  0
   63.7350   32.9180   47.3410 C   0  0  0  0  0  0  0  0  0  0  0  0
   64.7878   32.5998   47.3217 H   0  0  0  0  0  0  0  0  0  0  0  0
   62.8650   32.4200   48.3100 C   0  0  0  0  0  0  0  0  0  0  0  0
   63.2305   31.7059   49.0626 H   0  0  0  0  0  0  0  0  0  0  0  0
   61.5290   32.8280   48.3250 C   0  0  0  0  0  0  0  0  0  0  0  0
   60.8405   32.4426   49.0914 H   0  0  0  0  0  0  0  0  0  0  0  0
  1  2  1  0
  2  3  2  0
  3  4  1  0
  3  5  1  0
  5  6  1  0
  6  7  1  0
  7  8  2  0
  8  9  1  0
  9 10  1  0
  9 11  2  0
 11 12  1  0
 12 13  1  0
 13 14  1  0
 14 15  1  0
 15 16  2  3
 16 17  1  0
 17 18  2  0
 17 19  1  0
 19 20  1  0
 19 21  1  0
 19 22  1  0
 22 23  2  0
 23 24  1  0
 23 25  1  0
 25 26  1  0
 25 27  2  0
 27 28  1  0
 27 29  1  0
 29 30  1  0
 29 31  2  0
 31 32  1  0
 15 33  1  0
 33 34  1  0
 34 35  1  0
 11 36  1  0
 36 37  1  0
 36 38  2  0
 38 39  1  0
 38 40  1  0
  2 41  1  0
 41 42  2  0
 42 43  1  0
 43 44  1  0
 43 45  2  0
 45 46  1  0
 45 47  1  0
 47 48  1  0
 47 49  2  0
 49 50  1  0
 40  5  2  0
 49 41  1  0
 40  8  1  0
 34 13  2  0
 31 22  1  0
M  CHG  2   6  -1  33  -1
M  END
>  <UniqueID>  (73) 
64

>  <SMILES>  (73) 
O=C(Cc1ccccc1)N=c1[n-]cc(Sc2ccc3c(/C=C/c4ccccn4)[n-]nc3c2)s1

>  <Energy>  (73) 
125.12071503131844

>  <Genealogy>  (73) 
O=C(Cc1ccccc1)N=c1[n-]cc(Sc2ccc3c(C=Cc4ccccn4)[n-]nc3c2)s1 (protonated)
O=C(Cc1ccccc1)N=c1[n-]cc(Sc2ccc3c(/C=C/c4ccccn4)[n-]nc3c2)s1 (cis-trans isomerization)
O=C(Cc1ccccc1)N=c1[n-]cc(Sc2ccc3c(/C=C/c4ccccn4)[n-]nc3c2)s1 (3D coordinates assigned)
O=C(Cc1ccccc1)N=c1[n-]cc(Sc2ccc3c(/C=C/c4ccccn4)[n-]nc3c2)s1 (optimized conformer: 125.12071503131844 kcal/mol)

>  <smiles>  (73) 
O=C(Cc1ccccc1)N=c1[nH]cc(Sc2ccc3c(C=Cc4ccccn4)[nH]nc3c2)s1

>  <score_type>  (73) 
oracle

>  <origin>  (73) 
adg

>  <m_score__min__energy>  (73) 
-12.93

>  <m_primary>  (73) 
energy

$$$$
73:0
     RDKit          3D

 59 62  0  0  0  0  0  0  0  0999 V2000
   59.2940   35.6120   45.4070 O   0  0  0  0  0  0  0  0  0  0  0  0
   59.1370   34.5900   46.1300 C   0  0  0  0  0  0  0  0  0  0  0  0
   59.8510   34.4540   47.3640 N   0  0  0  0  0  0  0  0  0  0  0  0
   61.0470   33.6870   47.5710 C   0  0  0  0  0  0  0  0  0  0  0  0
   62.1590   33.8270   46.7190 C   0  0  0  0  0  0  0  0  0  0  0  0
   63.3310   33.1070   46.9640 C   0  0  0  0  0  0  0  0  0  0  0  0
   63.4120   32.2560   48.0660 C   0  0  0  0  0  0  0  0  0  0  0  0
   62.3230   32.1250   48.9290 C   0  0  0  0  0  0  0  0  0  0  0  0
   61.1370   32.8370   48.6910 C   0  0  0  0  0  0  0  0  0  0  0  0
   60.0260   32.6710   49.5870 N   0  0  0  0  0  0  0  0  0  0  0  0
   59.2840   31.4050   49.5930 C   0  0  0  0  0  0  0  0  0  0  0  0
   58.3310   31.3560   50.7840 C   0  0  0  0  0  0  0  0  0  0  0  0
   58.9950   31.8560   51.9250 O   0  0  0  0  0  0  0  0  0  0  0  0
   59.1130   33.2670   51.8400 C   0  0  0  0  0  0  0  0  0  0  0  0
   59.6360   33.7760   50.4720 C   0  0  0  0  0  0  0  0  0  0  0  0
   58.2880   33.4470   45.6440 C   0  0  0  0  0  0  0  0  0  0  0  0
   58.5840   33.1070   44.1750 C   0  0  0  0  0  0  0  0  0  0  0  0
   57.6950   31.9460   43.6730 C   0  0  0  0  0  0  0  0  0  0  0  0
   57.0490   31.2060   44.7780 N   0  0  0  0  0  0  0  0  0  0  0  0
   56.3630   29.7170   44.1790 S   0  0  0  0  0  0  0  0  0  0  0  0
   55.5250   29.0670   45.2450 O   0  0  0  0  0  0  0  0  0  0  0  0
   55.4960   30.0190   42.9870 O   0  0  0  0  0  0  0  0  0  0  0  0
   57.6600   28.5910   43.6790 C   0  0  0  0  0  0  0  0  0  0  0  0
   58.3570   28.0270   44.8860 C   0  0  0  0  0  0  0  0  0  0  0  0
   57.6450   27.2680   45.8300 C   0  0  0  0  0  0  0  0  0  0  0  0
   58.2900   26.7800   46.9700 C   0  0  0  0  0  0  0  0  0  0  0  0
   59.6440   27.0520   47.1820 C   0  0  0  0  0  0  0  0  0  0  0  0
   60.3570   27.8160   46.2530 C   0  0  0  0  0  0  0  0  0  0  0  0
   59.7170   28.3030   45.1100 C   0  0  0  0  0  0  0  0  0  0  0  0
   58.0180   30.9090   45.8470 C   0  0  0  0  0  0  0  0  0  0  0  0
   58.4860   32.2050   46.5380 C   0  0  0  0  0  0  0  0  0  0  0  0
   62.1048   34.5068   45.8559 H   0  0  0  0  0  0  0  0  0  0  0  0
   64.1913   33.2115   46.2866 H   0  0  0  0  0  0  0  0  0  0  0  0
   64.3347   31.6878   48.2551 H   0  0  0  0  0  0  0  0  0  0  0  0
   62.3946   31.4592   49.8017 H   0  0  0  0  0  0  0  0  0  0  0  0
   58.7055   31.3189   48.6614 H   0  0  0  0  0  0  0  0  0  0  0  0
   59.9980   30.5719   49.6712 H   0  0  0  0  0  0  0  0  0  0  0  0
   57.4450   31.9729   50.5730 H   0  0  0  0  0  0  0  0  0  0  0  0
   58.0139   30.3181   50.9637 H   0  0  0  0  0  0  0  0  0  0  0  0
   58.1209   33.7081   52.0166 H   0  0  0  0  0  0  0  0  0  0  0  0
   59.8527   33.5701   52.5957 H   0  0  0  0  0  0  0  0  0  0  0  0
   58.8421   34.3595   49.9830 H   0  0  0  0  0  0  0  0  0  0  0  0
   60.5270   34.3939   50.6572 H   0  0  0  0  0  0  0  0  0  0  0  0
   57.2364   33.7635   45.7077 H   0  0  0  0  0  0  0  0  0  0  0  0
   58.3934   33.9965   43.5566 H   0  0  0  0  0  0  0  0  0  0  0  0
   59.6360   32.7951   44.0977 H   0  0  0  0  0  0  0  0  0  0  0  0
   56.9118   32.3588   43.0202 H   0  0  0  0  0  0  0  0  0  0  0  0
   58.3427   31.2398   43.1329 H   0  0  0  0  0  0  0  0  0  0  0  0
   57.2209   27.7679   43.0962 H   0  0  0  0  0  0  0  0  0  0  0  0
   58.3920   29.1383   43.0669 H   0  0  0  0  0  0  0  0  0  0  0  0
   56.5771   27.0572   45.6715 H   0  0  0  0  0  0  0  0  0  0  0  0
   57.7300   26.1800   47.7024 H   0  0  0  0  0  0  0  0  0  0  0  0
   60.1489   26.6652   48.0795 H   0  0  0  0  0  0  0  0  0  0  0  0
   61.4219   28.0338   46.4218 H   0  0  0  0  0  0  0  0  0  0  0  0
   60.2803   28.9053   44.3820 H   0  0  0  0  0  0  0  0  0  0  0  0
   57.5430   30.2543   46.5925 H   0  0  0  0  0  0  0  0  0  0  0  0
   58.8923   30.4116   45.4018 H   0  0  0  0  0  0  0  0  0  0  0  0
   57.9093   32.3403   47.4649 H   0  0  0  0  0  0  0  0  0  0  0  0
   59.5617   32.1070   46.7461 H   0  0  0  0  0  0  0  0  0  0  0  0
  1  2  2  0
  2  3  1  0
  3  4  1  0
  4  5  2  0
  5  6  1  0
  6  7  2  0
  7  8  1  0
  8  9  2  0
  9 10  1  0
 10 11  1  0
 11 12  1  0
 12 13  1  0
 13 14  1  0
 14 15  1  0
  2 16  1  0
 16 17  1  0
 17 18  1  0
 18 19  1  0
 19 20  1  0
 20 21  2  0
 20 22  2  0
 20 23  1  0
 23 24  1  0
 24 25  2  0
 25 26  1  0
 26 27  2  0
 27 28  1  0
 28 29  2  0
 19 30  1  0
 30 31  1  0
  9  4  1  0
 15 10  1  0
 31 16  1  0
 29 24  1  0
  5 32  1  0
  6 33  1  0
  7 34  1  0
  8 35  1  0
 11 36  1  0
 11 37  1  0
 12 38  1  0
 12 39  1  0
 14 40  1  0
 14 41  1  0
 15 42  1  0
 15 43  1  0
 16 44  1  0
 17 45  1  0
 17 46  1  0
 18 47  1  0
 18 48  1  0
 23 49  1  0
 23 50  1  0
 25 51  1  0
 26 52  1  0
 27 53  1  0
 28 54  1  0
 29 55  1  0
 30 56  1  0
 30 57  1  0
 31 58  1  0
 31 59  1  0
M  CHG  1   3  -1
M  END
>  <UniqueID>  (74) 
65

>  <SMILES>  (74) 
O=C([N-]c1ccccc1N1CCOCC1)C1CCN(S(=O)(=O)Cc2ccccc2)CC1

>  <Energy>  (74) 
74.23406940689976

>  <Genealogy>  (74) 
O=C([N-]c1ccccc1N1CCOCC1)C1CCN(S(=O)(=O)Cc2ccccc2)CC1 (protonated)
O=C([N-]c1ccccc1N1CCOCC1)C1CCN(S(=O)(=O)Cc2ccccc2)CC1 (3D coordinates assigned)
O=C([N-]c1ccccc1N1CCOCC1)C1CCN(S(=O)(=O)Cc2ccccc2)CC1 (nonaromatic ring conformer: 74.23406940689976 kcal/mol)

>  <smiles>  (74) 
O=C(Nc1ccccc1N1CCOCC1)C1CCN(S(=O)(=O)Cc2ccccc2)CC1

>  <score_type>  (74) 
oracle

>  <origin>  (74) 
adg

>  <m_score__min__energy>  (74) 
-11.23

>  <m_primary>  (74) 
energy

$$$$
74:0
     RDKit          3D

 53 55  0  0  0  0  0  0  0  0999 V2000
   55.1120   26.3970   45.9970 N   0  0  0  0  0  0  0  0  0  0  0  0
   56.8390   26.3890   46.0750 S   0  0  0  0  0  0  0  0  0  0  0  0
   57.3540   25.3550   45.1130 O   0  0  0  0  0  0  0  0  0  0  0  0
   57.2840   26.0290   47.4650 O   0  0  0  0  0  0  0  0  0  0  0  0
   57.4630   27.9870   45.6440 C   0  0  0  0  0  0  0  0  0  0  0  0
   56.9600   28.6240   44.4980 C   0  0  0  0  0  0  0  0  0  0  0  0
   57.3990   29.9010   44.1450 C   0  0  0  0  0  0  0  0  0  0  0  0
   58.3430   30.5570   44.9320 C   0  0  0  0  0  0  0  0  0  0  0  0
   58.8590   29.9350   46.0700 C   0  0  0  0  0  0  0  0  0  0  0  0
   58.4330   28.6450   46.4400 C   0  0  0  0  0  0  0  0  0  0  0  0
   59.0520   27.9750   47.5560 N   0  0  0  0  0  0  0  0  0  0  0  0
   59.4370   28.6350   48.7700 C   0  0  0  0  0  0  0  0  0  0  0  0
   58.8150   29.6620   49.1520 O   0  0  0  0  0  0  0  0  0  0  0  0
   60.4700   28.0600   49.6550 C   0  0  0  0  0  0  0  0  0  0  0  0
   61.2080   28.7580   50.5310 C   0  0  0  0  0  0  0  0  0  0  0  0
   61.7850   30.0850   50.2650 C   0  0  0  0  0  0  0  0  0  0  0  0
   62.5440   30.6100   51.1230 O   0  0  0  0  0  0  0  0  0  0  0  0
   61.4040   30.7990   49.1220 O   0  0  0  0  0  0  0  0  0  0  0  0
   62.1540   31.8290   48.5360 C   0  0  0  0  0  0  0  0  0  0  0  0
   63.0320   31.5720   47.4660 C   0  0  0  0  0  0  0  0  0  0  0  0
   63.6950   32.6210   46.8280 C   0  0  0  0  0  0  0  0  0  0  0  0
   63.5010   33.9350   47.2540 C   0  0  0  0  0  0  0  0  0  0  0  0
   62.6490   34.2030   48.3270 C   0  0  0  0  0  0  0  0  0  0  0  0
   61.9790   33.1560   48.9840 C   0  0  0  0  0  0  0  0  0  0  0  0
   61.0910   33.4620   50.1650 C   0  0  0  0  0  0  0  0  0  0  0  0
   59.6640   33.5930   49.7380 C   0  0  0  0  0  0  0  0  0  0  0  0
   58.7840   32.8800   50.2910 O   0  0  0  0  0  0  0  0  0  0  0  0
   59.3150   34.5790   48.7590 N   0  0  0  0  0  0  0  0  0  0  0  0
   58.9410   34.3700   47.3880 C   0  0  0  0  0  0  0  0  0  0  0  0
   57.7790   33.6320   47.1240 C   0  0  0  0  0  0  0  0  0  0  0  0
   57.3740   33.3960   45.8070 C   0  0  0  0  0  0  0  0  0  0  0  0
   58.1160   33.9120   44.7430 C   0  0  0  0  0  0  0  0  0  0  0  0
   59.2590   34.6750   44.9950 C   0  0  0  0  0  0  0  0  0  0  0  0
   59.6700   34.9120   46.3110 C   0  0  0  0  0  0  0  0  0  0  0  0
   54.7770   27.0940   46.6980 H   0  0  0  0  0  0  0  0  0  0  0  0
   56.2135   28.1120   43.8731 H   0  0  0  0  0  0  0  0  0  0  0  0
   56.9992   30.3900   43.2444 H   0  0  0  0  0  0  0  0  0  0  0  0
   58.6821   31.5664   44.6562 H   0  0  0  0  0  0  0  0  0  0  0  0
   59.6065   30.4582   46.6844 H   0  0  0  0  0  0  0  0  0  0  0  0
   59.2490   26.9520   47.4820 H   0  0  0  0  0  0  0  0  0  0  0  0
   60.6478   26.9764   49.5909 H   0  0  0  0  0  0  0  0  0  0  0  0
   61.3948   28.3069   51.5167 H   0  0  0  0  0  0  0  0  0  0  0  0
   63.1965   30.5374   47.1307 H   0  0  0  0  0  0  0  0  0  0  0  0
   64.3723   32.4112   45.9870 H   0  0  0  0  0  0  0  0  0  0  0  0
   64.0195   34.7604   46.7443 H   0  0  0  0  0  0  0  0  0  0  0  0
   62.5008   35.2406   48.6608 H   0  0  0  0  0  0  0  0  0  0  0  0
   61.1742   32.6471   50.8992 H   0  0  0  0  0  0  0  0  0  0  0  0
   61.4139   34.4143   50.6109 H   0  0  0  0  0  0  0  0  0  0  0  0
   57.1818   33.2359   47.9586 H   0  0  0  0  0  0  0  0  0  0  0  0
   56.4692   32.8027   45.6087 H   0  0  0  0  0  0  0  0  0  0  0  0
   57.8010   33.7180   43.7071 H   0  0  0  0  0  0  0  0  0  0  0  0
   59.8372   35.0904   44.1565 H   0  0  0  0  0  0  0  0  0  0  0  0
   60.5640   35.5227   46.5053 H   0  0  0  0  0  0  0  0  0  0  0  0
  1  2  1  0
  2  3  2  0
  2  4  2  0
  2  5  1  0
  5  6  2  0
  6  7  1  0
  7  8  2  0
  8  9  1  0
  9 10  2  0
 10 11  1  0
 11 12  1  0
 12 13  2  0
 12 14  1  0
 14 15  2  3
 15 16  1  0
 16 17  2  0
 16 18  1  0
 18 19  1  0
 19 20  2  0
 20 21  1  0
 21 22  2  0
 22 23  1  0
 23 24  2  0
 24 25  1  0
 25 26  1  0
 26 27  2  0
 26 28  1  0
 28 29  1  0
 29 30  2  0
 30 31  1  0
 31 32  2  0
 32 33  1  0
 33 34  2  0
 10  5  1  0
 24 19  1  0
 34 29  1  0
  1 35  1  0
  6 36  1  0
  7 37  1  0
  8 38  1  0
  9 39  1  0
 11 40  1  0
 14 41  1  0
 15 42  1  0
 20 43  1  0
 21 44  1  0
 22 45  1  0
 23 46  1  0
 25 47  1  0
 25 48  1  0
 30 49  1  0
 31 50  1  0
 32 51  1  0
 33 52  1  0
 34 53  1  0
M  CHG  2   1  -1  28  -1
M  END
>  <UniqueID>  (75) 
66

>  <SMILES>  (75) 
[NH-]S(=O)(=O)c1ccccc1NC(=O)C=CC(=O)Oc1ccccc1CC(=O)[N-]c1ccccc1

>  <Energy>  (75) 
65.077715306489

>  <Genealogy>  (75) 
[NH-]S(=O)(=O)c1ccccc1NC(=O)C=CC(=O)Oc1ccccc1CC(=O)[N-]c1ccccc1 (protonated)
[NH-]S(=O)(=O)c1ccccc1NC(=O)C=CC(=O)Oc1ccccc1CC(=O)[N-]c1ccccc1 (3D coordinates assigned)
[NH-]S(=O)(=O)c1ccccc1NC(=O)C=CC(=O)Oc1ccccc1CC(=O)[N-]c1ccccc1 (optimized conformer: 65.077715306489 kcal/mol)

>  <smiles>  (75) 
NS(=O)(=O)c1ccccc1NC(=O)C=CC(=O)Oc1ccccc1CC(=O)Nc1ccccc1

>  <score_type>  (75) 
oracle

>  <origin>  (75) 
adg

>  <m_score__min__energy>  (75) 
-14.6

>  <m_primary>  (75) 
energy

$$$$
75:0
     RDKit          3D

 37 38  0  0  0  0  0  0  0  0999 V2000
   58.3600   27.1390   43.6790 C   0  0  0  0  0  0  0  0  0  0  0  0
   57.4180   27.4620   44.8350 C   0  0  0  0  0  0  0  0  0  0  0  0
   58.1610   27.4450   46.1160 N   0  0  0  0  0  0  0  0  0  0  0  0
   58.4010   28.8160   46.6220 C   0  0  0  0  0  0  0  0  0  0  0  0
   58.9790   29.7140   45.5150 C   0  0  0  0  0  0  0  0  0  0  0  0
   58.9930   31.2090   45.8860 C   0  0  0  0  0  0  0  0  0  0  0  0
   57.9020   32.0050   45.1570 C   0  0  0  0  0  0  0  0  0  0  0  0
   57.0360   31.0950   44.3430 C   0  0  0  0  0  0  0  0  0  0  0  0
   57.1320   30.8820   42.9890 C   0  0  0  0  0  0  0  0  0  0  0  0
   56.1670   30.0260   42.6140 N   0  0  0  0  0  0  0  0  0  0  0  0
   55.5120   29.7460   43.7620 C   0  0  0  0  0  0  0  0  0  0  0  0
   56.0100   30.3840   44.8410 N   0  0  0  0  0  0  0  0  0  0  0  0
   57.4640   26.6190   47.1240 C   0  0  0  0  0  0  0  0  0  0  0  0
   56.4050   25.7930   46.4660 C   0  0  0  0  0  0  0  0  0  0  0  0
   55.1600   26.2550   46.2240 N   0  0  0  0  0  0  0  0  0  0  0  0
   54.5510   25.2270   45.6110 C   0  0  0  0  0  0  0  0  0  0  0  0
   55.4340   24.1820   45.4890 C   0  0  0  0  0  0  0  0  0  0  0  0
   56.6150   24.5340   46.0270 N   0  0  0  0  0  0  0  0  0  0  0  0
   59.3296   26.8065   44.0781 H   0  0  0  0  0  0  0  0  0  0  0  0
   57.9234   26.3392   43.0628 H   0  0  0  0  0  0  0  0  0  0  0  0
   58.5061   28.0384   43.0628 H   0  0  0  0  0  0  0  0  0  0  0  0
   56.9813   28.4598   44.6807 H   0  0  0  0  0  0  0  0  0  0  0  0
   56.6198   26.7060   44.8714 H   0  0  0  0  0  0  0  0  0  0  0  0
   57.4496   29.2427   46.9723 H   0  0  0  0  0  0  0  0  0  0  0  0
   59.1253   28.7649   47.4483 H   0  0  0  0  0  0  0  0  0  0  0  0
   60.0120   29.3955   45.3113 H   0  0  0  0  0  0  0  0  0  0  0  0
   58.3290   29.6037   44.6345 H   0  0  0  0  0  0  0  0  0  0  0  0
   58.8349   31.3050   46.9703 H   0  0  0  0  0  0  0  0  0  0  0  0
   59.9669   31.6201   45.5817 H   0  0  0  0  0  0  0  0  0  0  0  0
   57.2798   32.5272   45.8987 H   0  0  0  0  0  0  0  0  0  0  0  0
   58.3836   32.7296   44.4839 H   0  0  0  0  0  0  0  0  0  0  0  0
   57.8775   31.3381   42.3210 H   0  0  0  0  0  0  0  0  0  0  0  0
   54.6525   29.0614   43.8121 H   0  0  0  0  0  0  0  0  0  0  0  0
   58.1902   25.9553   47.6161 H   0  0  0  0  0  0  0  0  0  0  0  0
   56.9958   27.2785   47.8696 H   0  0  0  0  0  0  0  0  0  0  0  0
   53.5081   25.2225   45.2613 H   0  0  0  0  0  0  0  0  0  0  0  0
   55.2103   23.2103   45.0244 H   0  0  0  0  0  0  0  0  0  0  0  0
  1  2  1  0
  2  3  1  0
  3  4  1  0
  4  5  1  0
  5  6  1  0
  6  7  1  0
  7  8  1  0
  8  9  2  0
  9 10  1  0
 10 11  1  0
 11 12  2  0
  3 13  1  0
 13 14  1  0
 14 15  2  0
 15 16  1  0
 16 17  2  0
 17 18  1  0
 12  8  1  0
 18 14  1  0
  1 19  1  0
  1 20  1  0
  1 21  1  0
  2 22  1  0
  2 23  1  0
  4 24  1  0
  4 25  1  0
  5 26  1  0
  5 27  1  0
  6 28  1  0
  6 29  1  0
  7 30  1  0
  7 31  1  0
  9 32  1  0
 11 33  1  0
 13 34  1  0
 13 35  1  0
 16 36  1  0
 17 37  1  0
M  CHG  2  10  -1  18  -1
M  END
>  <UniqueID>  (76) 
67

>  <SMILES>  (76) 
CCN(CCCCc1c[n-]cn1)Cc1ncc[n-]1

>  <Energy>  (76) 
82.95337816797064

>  <Genealogy>  (76) 
CCN(CCCCc1c[n-]cn1)Cc1ncc[n-]1 (protonated)
CCN(CCCCc1c[n-]cn1)Cc1ncc[n-]1 (3D coordinates assigned)
CCN(CCCCc1c[n-]cn1)Cc1ncc[n-]1 (optimized conformer: 82.95337816797064 kcal/mol)

>  <smiles>  (76) 
CCN(CCCCc1c[nH]cn1)Cc1ncc[nH]1

>  <score_type>  (76) 
oracle

>  <origin>  (76) 
adg

>  <m_score__min__energy>  (76) 
-8.7100000000000009

>  <m_primary>  (76) 
energy

$$$$
76:0
     RDKit          3D

 32 33  0  0  0  0  0  0  0  0999 V2000
   64.5540   32.9270   49.0890 C   0  0  0  0  0  0  0  0  0  0  0  0
   63.2720   33.3030   48.4060 C   0  0  0  0  0  0  0  0  0  0  0  0
   62.0800   33.3940   49.1410 C   0  0  0  0  0  0  0  0  0  0  0  0
   60.8790   33.7070   48.4980 C   0  0  0  0  0  0  0  0  0  0  0  0
   60.8540   33.9160   47.1130 C   0  0  0  0  0  0  0  0  0  0  0  0
   59.3400   34.3000   46.3010 S   0  0  0  0  0  0  0  0  0  0  0  0
   58.5340   35.2690   47.1220 O   0  0  0  0  0  0  0  0  0  0  0  0
   59.6420   34.9230   44.9670 O   0  0  0  0  0  0  0  0  0  0  0  0
   58.4100   32.8580   46.0590 N   0  0  0  0  0  0  0  0  0  0  0  0
   58.1260   32.3210   44.7570 C   0  0  0  0  0  0  0  0  0  0  0  0
   58.2750   32.9970   43.6680 N   0  0  0  0  0  0  0  0  0  0  0  0
   57.7570   32.2510   42.5300 C   0  0  0  0  0  0  0  0  0  0  0  0
   57.2090   30.9470   43.1320 C   0  0  0  0  0  0  0  0  0  0  0  0
   57.5120   31.0550   44.5510 N   0  0  0  0  0  0  0  0  0  0  0  0
   57.4200   29.9620   45.4780 C   0  0  0  0  0  0  0  0  0  0  0  0
   58.5340   29.7640   46.6620 S   0  0  0  0  0  0  0  0  0  0  0  0
   56.2760   28.6070   45.1530 S   0  0  0  0  0  0  0  0  0  0  0  0
   62.0400   33.8120   46.3760 C   0  0  0  0  0  0  0  0  0  0  0  0
   63.2420   33.4990   47.0170 C   0  0  0  0  0  0  0  0  0  0  0  0
   64.4143   32.9680   50.1793 H   0  0  0  0  0  0  0  0  0  0  0  0
   64.8410   31.9068   48.7942 H   0  0  0  0  0  0  0  0  0  0  0  0
   65.3466   33.6305   48.7942 H   0  0  0  0  0  0  0  0  0  0  0  0
   62.0908   33.2184   50.2268 H   0  0  0  0  0  0  0  0  0  0  0  0
   59.9502   33.7895   49.0816 H   0  0  0  0  0  0  0  0  0  0  0  0
   58.0040   32.3990   46.9020 H   0  0  0  0  0  0  0  0  0  0  0  0
   58.6660   33.9600   43.6000 H   0  0  0  0  0  0  0  0  0  0  0  0
   56.9551   32.8141   42.0301 H   0  0  0  0  0  0  0  0  0  0  0  0
   58.5294   32.0647   41.7692 H   0  0  0  0  0  0  0  0  0  0  0  0
   56.1239   30.8679   42.9695 H   0  0  0  0  0  0  0  0  0  0  0  0
   57.6530   30.0514   42.6730 H   0  0  0  0  0  0  0  0  0  0  0  0
   62.0257   33.9772   45.2886 H   0  0  0  0  0  0  0  0  0  0  0  0
   64.1678   33.4060   46.4303 H   0  0  0  0  0  0  0  0  0  0  0  0
  1  2  1  0
  2  3  2  0
  3  4  1  0
  4  5  2  0
  5  6  1  0
  6  7  2  0
  6  8  2  0
  6  9  1  0
  9 10  1  0
 10 11  2  0
 11 12  1  0
 12 13  1  0
 13 14  1  0
 14 15  1  0
 15 16  2  0
 15 17  1  0
  5 18  1  0
 18 19  2  0
 19  2  1  0
 14 10  1  0
  1 20  1  0
  1 21  1  0
  1 22  1  0
  3 23  1  0
  4 24  1  0
  9 25  1  0
 11 26  1  0
 12 27  1  0
 12 28  1  0
 13 29  1  0
 13 30  1  0
 18 31  1  0
 19 32  1  0
M  CHG  2  11   1  17  -1
M  END
>  <UniqueID>  (77) 
68

>  <SMILES>  (77) 
Cc1ccc(S(=O)(=O)NC2=[NH+]CCN2C(=S)[S-])cc1

>  <Energy>  (77) 
47.28306595007542

>  <Genealogy>  (77) 
Cc1ccc(S(=O)(=O)NC2=[NH+]CCN2C(=S)[S-])cc1 (protonated)
Cc1ccc(S(=O)(=O)NC2=[NH+]CCN2C(=S)[S-])cc1 (3D coordinates assigned)
Cc1ccc(S(=O)(=O)NC2=[NH+]CCN2C(=S)[S-])cc1 (nonaromatic ring conformer: 47.28306595007542 kcal/mol)

>  <smiles>  (77) 
Cc1ccc(S(=O)(=O)NC2=NCCN2C(=S)S)cc1

>  <score_type>  (77) 
oracle

>  <origin>  (77) 
adg

>  <m_score__min__energy>  (77) 
-7.4699999999999998

>  <m_primary>  (77) 
energy

$$$$
77:0
     RDKit          3D

 50 52  0  0  0  0  0  0  0  0999 V2000
   55.2510   28.9670   44.7680 N   0  0  0  0  0  0  0  0  0  0  0  0
   56.5100   30.0230   44.2320 S   0  0  0  0  0  0  0  0  0  0  0  0
   56.1710   31.4370   44.6120 O   0  0  0  0  0  0  0  0  0  0  0  0
   56.6330   29.9420   42.7370 O   0  0  0  0  0  0  0  0  0  0  0  0
   58.0320   29.5500   44.9820 C   0  0  0  0  0  0  0  0  0  0  0  0
   58.6660   28.3590   44.6020 C   0  0  0  0  0  0  0  0  0  0  0  0
   59.8740   27.9880   45.1970 C   0  0  0  0  0  0  0  0  0  0  0  0
   60.4630   28.8070   46.1630 C   0  0  0  0  0  0  0  0  0  0  0  0
   59.8520   30.0200   46.5310 C   0  0  0  0  0  0  0  0  0  0  0  0
   60.4260   30.8750   47.5350 N   0  0  0  0  0  0  0  0  0  0  0  0
   60.9290   30.4100   48.7980 C   0  0  0  0  0  0  0  0  0  0  0  0
   61.0700   29.1770   49.0210 O   0  0  0  0  0  0  0  0  0  0  0  0
   61.3560   31.4000   49.8400 C   0  0  0  0  0  0  0  0  0  0  0  0
   62.7220   31.8940   49.5580 N   0  0  0  0  0  0  0  0  0  0  0  0
   62.8710   33.3470   49.7930 C   0  0  0  0  0  0  0  0  0  0  0  0
   62.1350   34.2030   48.7370 C   0  0  0  0  0  0  0  0  0  0  0  0
   61.8020   33.4150   47.5350 N   0  0  0  0  0  0  0  0  0  0  0  0
   61.2400   34.2300   46.4350 C   0  0  0  0  0  0  0  0  0  0  0  0
   59.7470   34.0620   46.2420 C   0  0  0  0  0  0  0  0  0  0  0  0
   59.1510   34.3640   45.0050 C   0  0  0  0  0  0  0  0  0  0  0  0
   57.7730   34.2110   44.8290 C   0  0  0  0  0  0  0  0  0  0  0  0
   56.9770   33.7650   45.8870 C   0  0  0  0  0  0  0  0  0  0  0  0
   57.5570   33.4750   47.1250 C   0  0  0  0  0  0  0  0  0  0  0  0
   58.9360   33.6260   47.3050 C   0  0  0  0  0  0  0  0  0  0  0  0
   62.9240   32.5600   47.1240 C   0  0  0  0  0  0  0  0  0  0  0  0
   63.2100   31.5040   48.2120 C   0  0  0  0  0  0  0  0  0  0  0  0
   58.6270   30.3740   45.9460 C   0  0  0  0  0  0  0  0  0  0  0  0
   54.7320   29.4720   45.5220 H   0  0  0  0  0  0  0  0  0  0  0  0
   58.2116   27.7157   43.8342 H   0  0  0  0  0  0  0  0  0  0  0  0
   60.3632   27.0474   44.9037 H   0  0  0  0  0  0  0  0  0  0  0  0
   61.4076   28.5028   46.6376 H   0  0  0  0  0  0  0  0  0  0  0  0
   60.5730   31.8820   47.2960 H   0  0  0  0  0  0  0  0  0  0  0  0
   60.6570   32.2493   49.8402 H   0  0  0  0  0  0  0  0  0  0  0  0
   61.3528   30.9054   50.8225 H   0  0  0  0  0  0  0  0  0  0  0  0
   62.4626   33.5861   50.7860 H   0  0  0  0  0  0  0  0  0  0  0  0
   63.9426   33.5855   49.7243 H   0  0  0  0  0  0  0  0  0  0  0  0
   61.2052   34.5919   49.1778 H   0  0  0  0  0  0  0  0  0  0  0  0
   62.8009   35.0251   48.4358 H   0  0  0  0  0  0  0  0  0  0  0  0
   61.4435   35.2892   46.6510 H   0  0  0  0  0  0  0  0  0  0  0  0
   61.7207   33.8859   45.5074 H   0  0  0  0  0  0  0  0  0  0  0  0
   59.7725   34.7226   44.1713 H   0  0  0  0  0  0  0  0  0  0  0  0
   57.3145   34.4420   43.8562 H   0  0  0  0  0  0  0  0  0  0  0  0
   55.8931   33.6420   45.7455 H   0  0  0  0  0  0  0  0  0  0  0  0
   56.9287   33.1278   47.9585 H   0  0  0  0  0  0  0  0  0  0  0  0
   59.3882   33.4027   48.2826 H   0  0  0  0  0  0  0  0  0  0  0  0
   62.6690   32.0524   46.1820 H   0  0  0  0  0  0  0  0  0  0  0  0
   63.8192   33.1832   46.9820 H   0  0  0  0  0  0  0  0  0  0  0  0
   62.7183   30.5636   47.9223 H   0  0  0  0  0  0  0  0  0  0  0  0
   64.3028   31.3990   48.2818 H   0  0  0  0  0  0  0  0  0  0  0  0
   58.1290   31.3074   46.2471 H   0  0  0  0  0  0  0  0  0  0  0  0
  1  2  1  0
  2  3  2  0
  2  4  2  0
  2  5  1  0
  5  6  2  0
  6  7  1  0
  7  8  2  0
  8  9  1  0
  9 10  1  0
 10 11  1  0
 11 12  2  0
 11 13  1  0
 13 14  1  0
 14 15  1  0
 15 16  1  0
 16 17  1  0
 17 18  1  0
 18 19  1  0
 19 20  2  0
 20 21  1  0
 21 22  2  0
 22 23  1  0
 23 24  2  0
 17 25  1  0
 25 26  1  0
  9 27  2  0
 27  5  1  0
 26 14  1  0
 24 19  1  0
  1 28  1  0
  6 29  1  0
  7 30  1  0
  8 31  1  0
 10 32  1  0
 13 33  1  0
 13 34  1  0
 15 35  1  0
 15 36  1  0
 16 37  1  0
 16 38  1  0
 18 39  1  0
 18 40  1  0
 20 41  1  0
 21 42  1  0
 22 43  1  0
 23 44  1  0
 24 45  1  0
 25 46  1  0
 25 47  1  0
 26 48  1  0
 26 49  1  0
 27 50  1  0
M  CHG  1   1  -1
M  END
>  <UniqueID>  (78) 
69

>  <SMILES>  (78) 
[NH-]S(=O)(=O)c1cccc(NC(=O)CN2CCN(Cc3ccccc3)CC2)c1

>  <Energy>  (78) 
67.9607505851196

>  <Genealogy>  (78) 
[NH-]S(=O)(=O)c1cccc(NC(=O)CN2CCN(Cc3ccccc3)CC2)c1 (protonated)
[NH-]S(=O)(=O)c1cccc(NC(=O)CN2CCN(Cc3ccccc3)CC2)c1 (3D coordinates assigned)
[NH-]S(=O)(=O)c1cccc(NC(=O)CN2CCN(Cc3ccccc3)CC2)c1 (nonaromatic ring conformer: 67.9607505851196 kcal/mol)

>  <smiles>  (78) 
NS(=O)(=O)c1cccc(NC(=O)CN2CCN(Cc3ccccc3)CC2)c1

>  <score_type>  (78) 
oracle

>  <origin>  (78) 
adg

>  <m_score__min__energy>  (78) 
-12.56

>  <m_primary>  (78) 
energy

$$$$
78:0
     RDKit          3D

 73 76  0  0  0  0  0  0  0  0999 V2000
   58.4640   27.6180   47.1920 C   0  0  0  0  0  0  0  0  0  0  0  0
   58.2960   27.6900   45.7780 O   0  0  0  0  0  0  0  0  0  0  0  0
   57.6040   28.7130   45.1110 C   0  0  0  0  0  0  0  0  0  0  0  0
   58.2660   29.8060   44.5150 C   0  0  0  0  0  0  0  0  0  0  0  0
   57.5360   30.8040   43.8420 C   0  0  0  0  0  0  0  0  0  0  0  0
   58.2290   31.9440   43.2020 C   0  0  0  0  0  0  0  0  0  0  0  0
   58.2250   32.0620   41.9450 O   0  0  0  0  0  0  0  0  0  0  0  0
   58.8660   32.9030   43.9970 O   0  0  0  0  0  0  0  0  0  0  0  0
   58.2330   33.5630   45.0950 C   0  0  2  0  0  0  0  0  0  0  0  0
   58.8020   34.9770   45.2440 C   0  0  0  0  0  0  0  0  0  0  0  0
   58.4660   32.7480   46.3760 C   0  0  0  0  0  0  0  0  0  0  0  0
   58.8150   33.6580   47.5590 C   0  0  0  0  0  0  0  0  0  0  0  0
   60.2870   33.5940   47.8660 C   0  0  0  0  0  0  0  0  0  0  0  0
   61.2200   33.3810   46.8370 C   0  0  0  0  0  0  0  0  0  0  0  0
   62.5890   33.3110   47.1270 C   0  0  0  0  0  0  0  0  0  0  0  0
   63.0310   33.4780   48.4410 C   0  0  0  0  0  0  0  0  0  0  0  0
   62.1100   33.7480   49.4620 C   0  0  0  0  0  0  0  0  0  0  0  0
   60.7420   33.7860   49.1810 C   0  0  0  0  0  0  0  0  0  0  0  0
   62.5790   33.9650   50.7590 O   0  0  0  0  0  0  0  0  0  0  0  0
   63.9560   34.2660   50.9950 C   0  0  1  0  0  0  0  0  0  0  0  0
   64.2680   34.2060   52.4960 C   0  0  0  0  0  0  0  0  0  0  0  0
   63.2090   33.6190   53.1990 O   0  0  0  0  0  0  0  0  0  0  0  0
   64.8750   33.3750   50.1080 C   0  0  1  0  0  0  0  0  0  0  0  0
   65.0370   31.9520   50.6360 C   0  0  0  0  0  0  0  0  0  0  0  0
   63.9070   31.1730   50.9410 C   0  0  0  0  0  0  0  0  0  0  0  0
   64.0380   29.8780   51.4740 C   0  0  0  0  0  0  0  0  0  0  0  0
   62.9210   29.0850   51.7900 O   0  0  0  0  0  0  0  0  0  0  0  0
   62.4790   28.8020   53.1140 C   0  0  0  0  0  0  0  0  0  0  0  0
   65.3130   29.3520   51.7100 C   0  0  0  0  0  0  0  0  0  0  0  0
   65.4080   28.0560   52.2430 O   0  0  0  0  0  0  0  0  0  0  0  0
   66.2210   27.0180   51.7060 C   0  0  0  0  0  0  0  0  0  0  0  0
   66.4490   30.1240   51.4140 C   0  0  0  0  0  0  0  0  0  0  0  0
   66.3230   31.4210   50.8840 C   0  0  0  0  0  0  0  0  0  0  0  0
   67.4520   32.2100   50.6040 O   0  0  0  0  0  0  0  0  0  0  0  0
   68.0080   33.1840   51.4830 C   0  0  0  0  0  0  0  0  0  0  0  0
   64.3910   33.3610   48.7560 O   0  0  0  0  0  0  0  0  0  0  0  0
   56.1370   30.7040   43.7780 C   0  0  0  0  0  0  0  0  0  0  0  0
   55.4780   29.6290   44.3760 C   0  0  0  0  0  0  0  0  0  0  0  0
   56.2070   28.6360   45.0380 C   0  0  0  0  0  0  0  0  0  0  0  0
   55.5350   27.5680   45.6230 O   0  0  0  0  0  0  0  0  0  0  0  0
   57.5618   28.0046   47.6886 H   0  0  0  0  0  0  0  0  0  0  0  0
   58.6261   26.5714   47.4892 H   0  0  0  0  0  0  0  0  0  0  0  0
   59.3337   28.2224   47.4892 H   0  0  0  0  0  0  0  0  0  0  0  0
   59.3618   29.8795   44.5764 H   0  0  0  0  0  0  0  0  0  0  0  0
   57.1510   33.6404   44.9126 H   0  0  0  0  0  0  0  0  0  0  0  0
   58.9006   35.2219   46.3118 H   0  0  0  0  0  0  0  0  0  0  0  0
   59.7903   35.0271   44.7636 H   0  0  0  0  0  0  0  0  0  0  0  0
   58.1238   35.6976   44.7636 H   0  0  0  0  0  0  0  0  0  0  0  0
   57.5512   32.1855   46.6142 H   0  0  0  0  0  0  0  0  0  0  0  0
   59.3097   32.0636   46.2036 H   0  0  0  0  0  0  0  0  0  0  0  0
   58.5433   34.6943   47.3093 H   0  0  0  0  0  0  0  0  0  0  0  0
   58.2553   33.3179   48.4428 H   0  0  0  0  0  0  0  0  0  0  0  0
   60.8739   33.2687   45.7989 H   0  0  0  0  0  0  0  0  0  0  0  0
   63.3142   33.1249   46.3211 H   0  0  0  0  0  0  0  0  0  0  0  0
   60.0199   33.9666   49.9909 H   0  0  0  0  0  0  0  0  0  0  0  0
   64.1700   35.3005   50.6884 H   0  0  0  0  0  0  0  0  0  0  0  0
   65.1792   33.6098   52.6518 H   0  0  0  0  0  0  0  0  0  0  0  0
   64.4140   35.2309   52.8679 H   0  0  0  0  0  0  0  0  0  0  0  0
   62.4920   33.4510   52.5330 H   0  0  0  0  0  0  0  0  0  0  0  0
   65.8775   33.8266   50.1397 H   0  0  0  0  0  0  0  0  0  0  0  0
   62.9027   31.5836   50.7596 H   0  0  0  0  0  0  0  0  0  0  0  0
   63.1771   29.2490   53.8370 H   0  0  0  0  0  0  0  0  0  0  0  0
   61.4749   29.2256   53.2638 H   0  0  0  0  0  0  0  0  0  0  0  0
   62.4435   27.7128   53.2638 H   0  0  0  0  0  0  0  0  0  0  0  0
   66.6716   26.4427   52.5282 H   0  0  0  0  0  0  0  0  0  0  0  0
   65.6027   26.3508   51.0875 H   0  0  0  0  0  0  0  0  0  0  0  0
   67.0169   27.4585   51.0875 H   0  0  0  0  0  0  0  0  0  0  0  0
   67.4506   29.7086   51.5992 H   0  0  0  0  0  0  0  0  0  0  0  0
   67.8339   32.8790   52.5254 H   0  0  0  0  0  0  0  0  0  0  0  0
   69.0897   33.2672   51.3011 H   0  0  0  0  0  0  0  0  0  0  0  0
   67.5296   34.1577   51.3011 H   0  0  0  0  0  0  0  0  0  0  0  0
   55.5570   31.4775   43.2534 H   0  0  0  0  0  0  0  0  0  0  0  0
   54.3811   29.5625   44.3265 H   0  0  0  0  0  0  0  0  0  0  0  0
  1  2  1  0
  2  3  1  0
  3  4  2  0
  4  5  1  0
  5  6  1  0
  6  7  2  0
  6  8  1  0
  8  9  1  0
  9 10  1  0
  9 11  1  0
 11 12  1  0
 12 13  1  0
 13 14  2  0
 14 15  1  0
 15 16  2  0
 16 17  1  0
 17 18  2  0
 17 19  1  0
 19 20  1  0
 20 21  1  0
 21 22  1  0
 20 23  1  0
 23 24  1  0
 24 25  2  0
 25 26  1  0
 26 27  1  0
 27 28  1  0
 26 29  2  0
 29 30  1  0
 30 31  1  0
 29 32  1  0
 32 33  2  0
 33 34  1  0
 34 35  1  0
 23 36  1  0
  5 37  2  0
 37 38  1  0
 38 39  2  0
 39 40  1  0
 39  3  1  0
 18 13  1  0
 33 24  1  0
 36 16  1  0
  1 41  1  0
  1 42  1  0
  1 43  1  0
  4 44  1  0
  9 45  1  6
 10 46  1  0
 10 47  1  0
 10 48  1  0
 11 49  1  0
 11 50  1  0
 12 51  1  0
 12 52  1  0
 14 53  1  0
 15 54  1  0
 18 55  1  0
 20 56  1  6
 21 57  1  0
 21 58  1  0
 22 59  1  0
 23 60  1  6
 25 61  1  0
 28 62  1  0
 28 63  1  0
 28 64  1  0
 31 65  1  0
 31 66  1  0
 31 67  1  0
 32 68  1  0
 35 69  1  0
 35 70  1  0
 35 71  1  0
 37 72  1  0
 38 73  1  0
M  CHG  1  40  -1
M  END
>  <UniqueID>  (79) 
70

>  <SMILES>  (79) 
COc1cc(C(=O)O[C@H](C)CCc2ccc3c(c2)O[C@@H](CO)C(c2cc(OC)c(OC)cc2OC)O3)ccc1[O-]

>  <Energy>  (79) 
70.14724707514817

>  <Genealogy>  (79) 
COc1cc(C(=O)OC(C)CCc2ccc3c(c2)OC(CO)C(c2cc(OC)c(OC)cc2OC)O3)ccc1[O-] (protonated)
COc1cc(C(=O)O[C@H](C)CCc2ccc3c(c2)O[C@@H](CO)C(c2cc(OC)c(OC)cc2OC)O3)ccc1[O-] (chirality)
COc1cc(C(=O)O[C@H](C)CCc2ccc3c(c2)O[C@@H](CO)C(c2cc(OC)c(OC)cc2OC)O3)ccc1[O-] (3D coordinates assigned)
COc1cc(C(=O)O[C@H](C)CCc2ccc3c(c2)O[C@@H](CO)C(c2cc(OC)c(OC)cc2OC)O3)ccc1[O-] (nonaromatic ring conformer: 70.14724707514817 kcal/mol)

>  <smiles>  (79) 
COc1cc(C(=O)OC(C)CCc2ccc3c(c2)OC(CO)C(c2cc(OC)c(OC)cc2OC)O3)ccc1O

>  <score_type>  (79) 
oracle

>  <origin>  (79) 
adg

>  <m_score__min__energy>  (79) 
-10.720000000000001

>  <m_primary>  (79) 
energy

$$$$
79:0
     RDKit          3D

 30 31  0  0  0  0  0  0  0  0999 V2000
   58.7120   34.4180   45.2510 C   0  0  0  0  0  0  0  0  0  0  0  0
   59.0140   33.0340   45.7450 C   0  0  0  0  0  0  0  0  0  0  0  0
   59.8280   32.8480   46.8720 C   0  0  0  0  0  0  0  0  0  0  0  0
   60.0860   31.5590   47.3480 C   0  0  0  0  0  0  0  0  0  0  0  0
   59.5210   30.4510   46.7140 C   0  0  0  0  0  0  0  0  0  0  0  0
   58.6780   30.6250   45.6050 C   0  0  0  0  0  0  0  0  0  0  0  0
   58.0930   29.4290   44.9030 C   0  0  0  0  0  0  0  0  0  0  0  0
   56.6030   29.4590   45.0030 C   0  0  0  0  0  0  0  0  0  0  0  0
   55.9890   30.5510   44.8640 O   0  0  0  0  0  0  0  0  0  0  0  0
   55.8880   28.2410   45.2530 N   0  0  0  0  0  0  0  0  0  0  0  0
   56.3740   27.1010   45.9760 C   0  0  0  0  0  0  0  0  0  0  0  0
   57.6770   27.0390   46.4940 C   0  0  0  0  0  0  0  0  0  0  0  0
   58.0980   25.9230   47.1490 N   0  0  0  0  0  0  0  0  0  0  0  0
   57.2760   24.8500   47.2980 C   0  0  0  0  0  0  0  0  0  0  0  0
   57.6780   23.8250   47.9070 O   0  0  0  0  0  0  0  0  0  0  0  0
   56.0190   24.8800   46.7830 N   0  0  0  0  0  0  0  0  0  0  0  0
   55.5570   25.9740   46.1240 C   0  0  0  0  0  0  0  0  0  0  0  0
   54.3890   25.9660   45.6530 O   0  0  0  0  0  0  0  0  0  0  0  0
   58.4310   31.9200   45.1210 C   0  0  0  0  0  0  0  0  0  0  0  0
   58.5654   35.0899   46.1095 H   0  0  0  0  0  0  0  0  0  0  0  0
   59.5521   34.7809   44.6406 H   0  0  0  0  0  0  0  0  0  0  0  0
   57.7971   34.3980   44.6406 H   0  0  0  0  0  0  0  0  0  0  0  0
   60.2647   33.7188   47.3828 H   0  0  0  0  0  0  0  0  0  0  0  0
   60.7358   31.4175   48.2242 H   0  0  0  0  0  0  0  0  0  0  0  0
   59.7371   29.4381   47.0847 H   0  0  0  0  0  0  0  0  0  0  0  0
   58.3878   29.4478   43.8434 H   0  0  0  0  0  0  0  0  0  0  0  0
   58.4693   28.5108   45.3776 H   0  0  0  0  0  0  0  0  0  0  0  0
   58.3586   27.8935   46.3704 H   0  0  0  0  0  0  0  0  0  0  0  0
   59.0700   25.8930   47.5310 H   0  0  0  0  0  0  0  0  0  0  0  0
   57.7770   32.0621   44.2480 H   0  0  0  0  0  0  0  0  0  0  0  0
  1  2  1  0
  2  3  2  0
  3  4  1  0
  4  5  2  0
  5  6  1  0
  6  7  1  0
  7  8  1  0
  8  9  2  0
  8 10  1  0
 10 11  1  0
 11 12  2  0
 12 13  1  0
 13 14  1  0
 14 15  2  0
 14 16  1  0
 16 17  1  0
 17 18  2  0
  6 19  2  0
 19  2  1  0
 17 11  1  0
  1 20  1  0
  1 21  1  0
  1 22  1  0
  3 23  1  0
  4 24  1  0
  5 25  1  0
  7 26  1  0
  7 27  1  0
 12 28  1  0
 13 29  1  0
 19 30  1  0
M  CHG  2  10  -1  16  -1
M  END
>  <UniqueID>  (80) 
71

>  <SMILES>  (80) 
Cc1cccc(CC(=O)[N-]c2c[nH]c(=O)[n-]c2=O)c1

>  <Energy>  (80) 
32.131239303698536

>  <Genealogy>  (80) 
Cc1cccc(CC(=O)[N-]c2c[nH]c(=O)[n-]c2=O)c1 (protonated)
Cc1cccc(CC(=O)[N-]c2c[nH]c(=O)[n-]c2=O)c1 (3D coordinates assigned)
Cc1cccc(CC(=O)[N-]c2c[nH]c(=O)[n-]c2=O)c1 (optimized conformer: 32.131239303698536 kcal/mol)

>  <smiles>  (80) 
Cc1cccc(CC(=O)Nc2c[nH]c(=O)[nH]c2=O)c1

>  <score_type>  (80) 
oracle

>  <origin>  (80) 
adg

>  <m_score__min__energy>  (80) 
-10.9

>  <m_primary>  (80) 
energy

$$$$
80:0
     RDKit          3D

 37 38  0  0  0  0  0  0  0  0999 V2000
   58.8520   23.8240   45.3110 C   0  0  0  0  0  0  0  0  0  0  0  0
   58.4810   23.9650   46.6760 O   0  0  0  0  0  0  0  0  0  0  0  0
   57.6540   24.9970   47.1310 C   0  0  0  0  0  0  0  0  0  0  0  0
   56.9320   24.8250   48.1520 O   0  0  0  0  0  0  0  0  0  0  0  0
   57.6090   26.2870   46.4080 C   0  0  0  0  0  0  0  0  0  0  0  0
   56.4260   26.8680   45.9430 C   0  0  0  0  0  0  0  0  0  0  0  0
   55.1170   26.2930   45.9800 N   0  0  0  0  0  0  0  0  0  0  0  0
   54.7770   24.9700   45.5430 C   0  0  0  0  0  0  0  0  0  0  0  0
   53.7330   24.4360   46.0000 O   0  0  0  0  0  0  0  0  0  0  0  0
   55.6100   24.1980   44.5460 C   0  0  0  0  0  0  0  0  0  0  0  0
   55.9220   22.8370   45.0200 N   0  0  0  0  0  0  0  0  0  0  0  0
   55.8700   22.5710   46.3650 C   0  0  0  0  0  0  0  0  0  0  0  0
   56.1950   21.3040   46.8550 C   0  0  0  0  0  0  0  0  0  0  0  0
   56.1800   20.9960   48.5810 Cl  0  0  0  0  0  0  0  0  0  0  0  0
   56.5420   20.2930   45.9620 C   0  0  0  0  0  0  0  0  0  0  0  0
   56.5520   20.5550   44.5940 C   0  0  0  0  0  0  0  0  0  0  0  0
   56.2320   21.8350   44.1310 C   0  0  0  0  0  0  0  0  0  0  0  0
   56.2340   22.0540   42.8890 O   0  0  0  0  0  0  0  0  0  0  0  0
   56.7570   28.3480   45.2290 S   0  0  0  0  0  0  0  0  0  0  0  0
   58.4200   28.2760   45.4590 C   0  0  0  0  0  0  0  0  0  0  0  0
   59.3720   29.3370   45.0080 C   0  0  0  0  0  0  0  0  0  0  0  0
   58.7430   27.0910   46.1330 C   0  0  0  0  0  0  0  0  0  0  0  0
   60.1500   26.7140   46.5060 C   0  0  0  0  0  0  0  0  0  0  0  0
   59.8786   23.4338   45.2485 H   0  0  0  0  0  0  0  0  0  0  0  0
   58.1632   23.1250   44.8141 H   0  0  0  0  0  0  0  0  0  0  0  0
   58.8013   24.8041   44.8141 H   0  0  0  0  0  0  0  0  0  0  0  0
   55.0537   24.1253   43.5998 H   0  0  0  0  0  0  0  0  0  0  0  0
   56.5600   24.7355   44.4100 H   0  0  0  0  0  0  0  0  0  0  0  0
   55.5691   23.3642   47.0651 H   0  0  0  0  0  0  0  0  0  0  0  0
   56.8068   19.2927   46.3352 H   0  0  0  0  0  0  0  0  0  0  0  0
   56.8105   19.7583   43.8809 H   0  0  0  0  0  0  0  0  0  0  0  0
   59.8144   29.8300   45.8862 H   0  0  0  0  0  0  0  0  0  0  0  0
   60.1695   28.8810   44.4030 H   0  0  0  0  0  0  0  0  0  0  0  0
   58.8325   30.0806   44.4030 H   0  0  0  0  0  0  0  0  0  0  0  0
   60.2446   26.6887   47.6016 H   0  0  0  0  0  0  0  0  0  0  0  0
   60.3849   25.7212   46.0946 H   0  0  0  0  0  0  0  0  0  0  0  0
   60.8498   27.4563   46.0946 H   0  0  0  0  0  0  0  0  0  0  0  0
  1  2  1  0
  2  3  1  0
  3  4  2  0
  3  5  1  0
  5  6  2  0
  6  7  1  0
  7  8  1  0
  8  9  2  0
  8 10  1  0
 10 11  1  0
 11 12  1  0
 12 13  2  0
 13 14  1  0
 13 15  1  0
 15 16  2  0
 16 17  1  0
 17 18  2  0
  6 19  1  0
 19 20  1  0
 20 21  1  0
 20 22  2  0
 22 23  1  0
 22  5  1  0
 17 11  1  0
  1 24  1  0
  1 25  1  0
  1 26  1  0
 10 27  1  0
 10 28  1  0
 12 29  1  0
 15 30  1  0
 16 31  1  0
 21 32  1  0
 21 33  1  0
 21 34  1  0
 23 35  1  0
 23 36  1  0
 23 37  1  0
M  CHG  1   7  -1
M  END
>  <UniqueID>  (81) 
72

>  <SMILES>  (81) 
COC(=O)c1c([N-]C(=O)Cn2cc(Cl)ccc2=O)sc(C)c1C

>  <Energy>  (81) 
67.70501965237155

>  <Genealogy>  (81) 
COC(=O)c1c([N-]C(=O)Cn2cc(Cl)ccc2=O)sc(C)c1C (protonated)
COC(=O)c1c([N-]C(=O)Cn2cc(Cl)ccc2=O)sc(C)c1C (3D coordinates assigned)
COC(=O)c1c([N-]C(=O)Cn2cc(Cl)ccc2=O)sc(C)c1C (optimized conformer: 67.70501965237155 kcal/mol)

>  <smiles>  (81) 
COC(=O)c1c(NC(=O)Cn2cc(Cl)ccc2=O)sc(C)c1C

>  <score_type>  (81) 
oracle

>  <origin>  (81) 
adg

>  <m_score__min__energy>  (81) 
-9.2300000000000004

>  <m_primary>  (81) 
energy

$$$$
81:0
     RDKit          3D

 46 48  0  0  0  0  0  0  0  0999 V2000
   56.6250   26.3070   45.9860 C   0  0  0  0  0  0  0  0  0  0  0  0
   55.8720   27.4610   45.6270 O   0  0  0  0  0  0  0  0  0  0  0  0
   56.4330   28.6600   45.1600 C   0  0  0  0  0  0  0  0  0  0  0  0
   57.7990   28.8810   45.3710 C   0  0  0  0  0  0  0  0  0  0  0  0
   58.4040   30.0600   44.9260 C   0  0  0  0  0  0  0  0  0  0  0  0
   57.6480   31.0380   44.2620 C   0  0  0  0  0  0  0  0  0  0  0  0
   58.3060   32.3090   43.7930 C   0  0  0  0  0  0  0  0  0  0  0  0
   57.9760   33.4260   44.7030 N   0  0  0  0  0  0  0  0  0  0  0  0
   57.8150   32.9310   46.0920 C   0  0  0  0  0  0  0  0  0  0  0  0
   57.9010   34.0720   47.1130 C   0  0  0  0  0  0  0  0  0  0  0  0
   59.2840   34.7570   47.0700 C   0  0  0  0  0  0  0  0  0  0  0  0
   60.1520   34.2030   48.1140 N   0  0  0  0  0  0  0  0  0  0  0  0
   61.2560   33.3430   47.7970 C   0  0  0  0  0  0  0  0  0  0  0  0
   62.4930   33.9080   47.4610 C   0  0  0  0  0  0  0  0  0  0  0  0
   63.5770   33.0860   47.1510 C   0  0  0  0  0  0  0  0  0  0  0  0
   63.4100   31.7010   47.1640 C   0  0  0  0  0  0  0  0  0  0  0  0
   62.1980   31.1640   47.4640 N   0  0  0  0  0  0  0  0  0  0  0  0
   61.1240   31.9400   47.7760 C   0  0  0  0  0  0  0  0  0  0  0  0
   59.8570   31.2990   48.0200 C   0  0  0  0  0  0  0  0  0  0  0  0
   58.8390   30.7850   48.2160 N   0  0  0  0  0  0  0  0  0  0  0  0
   59.9700   34.6050   45.6950 C   0  0  0  0  0  0  0  0  0  0  0  0
   58.9300   34.5620   44.5670 C   0  0  0  0  0  0  0  0  0  0  0  0
   56.2780   30.8190   44.0490 C   0  0  0  0  0  0  0  0  0  0  0  0
   55.6730   29.6390   44.4940 C   0  0  0  0  0  0  0  0  0  0  0  0
   56.6760   26.2288   47.0820 H   0  0  0  0  0  0  0  0  0  0  0  0
   56.1382   25.4095   45.5766 H   0  0  0  0  0  0  0  0  0  0  0  0
   57.6425   26.3912   45.5766 H   0  0  0  0  0  0  0  0  0  0  0  0
   58.4010   28.1212   45.8909 H   0  0  0  0  0  0  0  0  0  0  0  0
   59.4785   30.2219   45.0973 H   0  0  0  0  0  0  0  0  0  0  0  0
   59.3966   32.1669   43.7741 H   0  0  0  0  0  0  0  0  0  0  0  0
   57.9388   32.5499   42.7845 H   0  0  0  0  0  0  0  0  0  0  0  0
   56.8339   32.4423   46.1850 H   0  0  0  0  0  0  0  0  0  0  0  0
   58.6295   32.2216   46.3003 H   0  0  0  0  0  0  0  0  0  0  0  0
   57.1244   34.8169   46.8848 H   0  0  0  0  0  0  0  0  0  0  0  0
   57.7518   33.6515   48.1185 H   0  0  0  0  0  0  0  0  0  0  0  0
   59.1201   35.8304   47.2458 H   0  0  0  0  0  0  0  0  0  0  0  0
   59.7660   34.1550   49.0850 H   0  0  0  0  0  0  0  0  0  0  0  0
   62.6100   35.0016   47.4415 H   0  0  0  0  0  0  0  0  0  0  0  0
   64.5533   33.5255   46.8989 H   0  0  0  0  0  0  0  0  0  0  0  0
   64.2601   31.0429   46.9312 H   0  0  0  0  0  0  0  0  0  0  0  0
   60.6434   35.4593   45.5319 H   0  0  0  0  0  0  0  0  0  0  0  0
   60.5371   33.6625   45.6869 H   0  0  0  0  0  0  0  0  0  0  0  0
   58.3600   35.5027   44.5787 H   0  0  0  0  0  0  0  0  0  0  0  0
   59.4739   34.4256   43.6207 H   0  0  0  0  0  0  0  0  0  0  0  0
   55.6768   31.5796   43.5292 H   0  0  0  0  0  0  0  0  0  0  0  0
   54.5988   29.4758   44.3226 H   0  0  0  0  0  0  0  0  0  0  0  0
  1  2  1  0
  2  3  1  0
  3  4  2  0
  4  5  1  0
  5  6  2  0
  6  7  1  0
  7  8  1  0
  8  9  1  0
  9 10  1  0
 10 11  1  0
 11 12  1  0
 12 13  1  0
 13 14  2  0
 14 15  1  0
 15 16  2  0
 16 17  1  0
 17 18  2  0
 18 19  1  0
 19 20  3  0
 11 21  1  0
 21 22  1  0
  6 23  1  0
 23 24  2  0
 24  3  1  0
 22  8  1  0
 18 13  1  0
  1 25  1  0
  1 26  1  0
  1 27  1  0
  4 28  1  0
  5 29  1  0
  7 30  1  0
  7 31  1  0
  9 32  1  0
  9 33  1  0
 10 34  1  0
 10 35  1  0
 11 36  1  0
 12 37  1  0
 14 38  1  0
 15 39  1  0
 16 40  1  0
 21 41  1  0
 21 42  1  0
 22 43  1  0
 22 44  1  0
 23 45  1  0
 24 46  1  0
M  END
>  <UniqueID>  (82) 
73

>  <SMILES>  (82) 
COc1ccc(CN2CCC(Nc3cccnc3C#N)CC2)cc1

>  <Energy>  (82) 
58.55916986100101

>  <Genealogy>  (82) 
COc1ccc(CN2CCC(Nc3cccnc3C#N)CC2)cc1 (3D coordinates assigned)
COc1ccc(CN2CCC(Nc3cccnc3C#N)CC2)cc1 (nonaromatic ring conformer: 58.55916986100101 kcal/mol)

>  <smiles>  (82) 
COc1ccc(CN2CCC(Nc3cccnc3C#N)CC2)cc1

>  <score_type>  (82) 
oracle

>  <origin>  (82) 
adg

>  <m_score__min__energy>  (82) 
-7.7300000000000004

>  <m_primary>  (82) 
energy

$$$$
82:0
     RDKit          3D

 47 49  0  0  0  0  0  0  0  0999 V2000
   57.7690   34.2640   45.9950 C   0  0  0  0  0  0  0  0  0  0  0  0
   58.8840   33.6200   46.7180 N   0  0  0  0  0  0  0  0  0  0  0  0
   59.5640   32.6400   45.8450 C   0  0  0  0  0  0  0  0  0  0  0  0
   58.8440   31.3160   45.8700 C   0  0  0  0  0  0  0  0  0  0  0  0
   57.9240   30.9830   44.8640 C   0  0  0  0  0  0  0  0  0  0  0  0
   57.2470   29.7600   44.9040 C   0  0  0  0  0  0  0  0  0  0  0  0
   57.4900   28.8460   45.9460 C   0  0  0  0  0  0  0  0  0  0  0  0
   56.7890   27.5930   46.0220 N   0  0  0  0  0  0  0  0  0  0  0  0
   57.3810   26.3230   45.7020 C   0  0  0  0  0  0  0  0  0  0  0  0
   58.6350   26.1900   45.7380 O   0  0  0  0  0  0  0  0  0  0  0  0
   56.5330   25.1450   45.4030 C   0  0  0  0  0  0  0  0  0  0  0  0
   57.1310   23.9680   44.9160 C   0  0  0  0  0  0  0  0  0  0  0  0
   56.3550   22.8400   44.6340 C   0  0  0  0  0  0  0  0  0  0  0  0
   54.9730   22.8770   44.8250 C   0  0  0  0  0  0  0  0  0  0  0  0
   54.3630   24.0420   45.2920 C   0  0  0  0  0  0  0  0  0  0  0  0
   55.1310   25.1780   45.5740 C   0  0  0  0  0  0  0  0  0  0  0  0
   54.4860   26.3370   45.9940 O   0  0  0  0  0  0  0  0  0  0  0  0
   58.3930   29.1940   46.9620 C   0  0  0  0  0  0  0  0  0  0  0  0
   59.0680   30.4150   46.9220 C   0  0  0  0  0  0  0  0  0  0  0  0
   59.8450   34.6380   47.1940 C   0  0  0  0  0  0  0  0  0  0  0  0
   61.1030   33.9810   47.7160 C   0  0  0  0  0  0  0  0  0  0  0  0
   62.1990   33.8450   46.8460 C   0  0  0  0  0  0  0  0  0  0  0  0
   63.3770   33.2310   47.2770 C   0  0  0  0  0  0  0  0  0  0  0  0
   63.4740   32.7410   48.5810 C   0  0  0  0  0  0  0  0  0  0  0  0
   64.6180   32.1430   48.9970 F   0  0  0  0  0  0  0  0  0  0  0  0
   62.3910   32.8620   49.4540 C   0  0  0  0  0  0  0  0  0  0  0  0
   61.2050   33.4750   49.0330 C   0  0  0  0  0  0  0  0  0  0  0  0
   59.8750   33.5750   50.1840 Cl  0  0  0  0  0  0  0  0  0  0  0  0
   57.0525   34.6779   46.7198 H   0  0  0  0  0  0  0  0  0  0  0  0
   58.1612   35.0747   45.3633 H   0  0  0  0  0  0  0  0  0  0  0  0
   57.2628   33.5192   45.3633 H   0  0  0  0  0  0  0  0  0  0  0  0
   59.5789   33.0237   44.8142 H   0  0  0  0  0  0  0  0  0  0  0  0
   60.5905   32.4918   46.2115 H   0  0  0  0  0  0  0  0  0  0  0  0
   57.7345   31.6871   44.0404 H   0  0  0  0  0  0  0  0  0  0  0  0
   56.5204   29.5111   44.1165 H   0  0  0  0  0  0  0  0  0  0  0  0
   55.8280   27.5920   46.4350 H   0  0  0  0  0  0  0  0  0  0  0  0
   58.2188   23.9353   44.7558 H   0  0  0  0  0  0  0  0  0  0  0  0
   56.8340   21.9226   44.2613 H   0  0  0  0  0  0  0  0  0  0  0  0
   54.3641   21.9872   44.6073 H   0  0  0  0  0  0  0  0  0  0  0  0
   53.2732   24.0678   45.4393 H   0  0  0  0  0  0  0  0  0  0  0  0
   58.5703   28.4993   47.7963 H   0  0  0  0  0  0  0  0  0  0  0  0
   59.7799   30.6725   47.7201 H   0  0  0  0  0  0  0  0  0  0  0  0
   60.1058   35.3065   46.3603 H   0  0  0  0  0  0  0  0  0  0  0  0
   59.3795   35.2103   48.0100 H   0  0  0  0  0  0  0  0  0  0  0  0
   62.1280   34.2257   45.8164 H   0  0  0  0  0  0  0  0  0  0  0  0
   64.2293   33.1333   46.5885 H   0  0  0  0  0  0  0  0  0  0  0  0
   62.4703   32.4729   50.4798 H   0  0  0  0  0  0  0  0  0  0  0  0
  1  2  1  0
  2  3  1  0
  3  4  1  0
  4  5  2  0
  5  6  1  0
  6  7  2  0
  7  8  1  0
  8  9  1  0
  9 10  2  0
  9 11  1  0
 11 12  2  0
 12 13  1  0
 13 14  2  0
 14 15  1  0
 15 16  2  0
 16 17  1  0
  7 18  1  0
 18 19  2  0
  2 20  1  0
 20 21  1  0
 21 22  2  0
 22 23  1  0
 23 24  2  0
 24 25  1  0
 24 26  1  0
 26 27  2  0
 27 28  1  0
 19  4  1  0
 27 21  1  0
 16 11  1  0
  1 29  1  0
  1 30  1  0
  1 31  1  0
  3 32  1  0
  3 33  1  0
  5 34  1  0
  6 35  1  0
  8 36  1  0
 12 37  1  0
 13 38  1  0
 14 39  1  0
 15 40  1  0
 18 41  1  0
 19 42  1  0
 20 43  1  0
 20 44  1  0
 22 45  1  0
 23 46  1  0
 26 47  1  0
M  CHG  1  17  -1
M  END
>  <UniqueID>  (83) 
74

>  <SMILES>  (83) 
CN(Cc1ccc(NC(=O)c2ccccc2[O-])cc1)Cc1ccc(F)cc1Cl

>  <Energy>  (83) 
59.52580501221252

>  <Genealogy>  (83) 
CN(Cc1ccc(NC(=O)c2ccccc2[O-])cc1)Cc1ccc(F)cc1Cl (protonated)
CN(Cc1ccc(NC(=O)c2ccccc2[O-])cc1)Cc1ccc(F)cc1Cl (3D coordinates assigned)
CN(Cc1ccc(NC(=O)c2ccccc2[O-])cc1)Cc1ccc(F)cc1Cl (optimized conformer: 59.52580501221252 kcal/mol)

>  <smiles>  (83) 
CN(Cc1ccc(NC(=O)c2ccccc2O)cc1)Cc1ccc(F)cc1Cl

>  <score_type>  (83) 
oracle

>  <origin>  (83) 
adg

>  <m_score__min__energy>  (83) 
-13.029999999999999

>  <m_primary>  (83) 
energy

$$$$
83:0
     RDKit          3D

 55 57  0  0  0  0  0  0  0  0999 V2000
   57.0950   20.8440   42.9560 C   0  0  0  0  0  0  0  0  0  0  0  0
   55.8950   21.4810   43.3800 O   0  0  0  0  0  0  0  0  0  0  0  0
   55.8470   22.7140   44.0480 C   0  0  0  0  0  0  0  0  0  0  0  0
   54.7220   23.1310   44.7860 C   0  0  0  0  0  0  0  0  0  0  0  0
   54.7250   24.3700   45.4350 C   0  0  0  0  0  0  0  0  0  0  0  0
   55.8510   25.2020   45.3730 C   0  0  0  0  0  0  0  0  0  0  0  0
   55.8100   26.4790   46.0250 N   0  0  0  0  0  0  0  0  0  0  0  0
   56.8280   27.4880   45.9790 C   0  0  0  0  0  0  0  0  0  0  0  0
   57.3820   27.8410   47.0540 O   0  0  0  0  0  0  0  0  0  0  0  0
   57.2630   28.1120   44.6800 C   0  0  0  0  0  0  0  0  0  0  0  0
   57.1880   29.6090   44.7510 C   0  0  0  0  0  0  0  0  0  0  0  0
   56.0460   30.3020   44.5730 N   0  0  0  0  0  0  0  0  0  0  0  0
   56.3500   31.5870   44.6800 N   0  0  0  0  0  0  0  0  0  0  0  0
   57.6740   31.6590   44.9140 C   0  0  0  0  0  0  0  0  0  0  0  0
   58.5450   33.2040   45.1760 S   0  0  0  0  0  0  0  0  0  0  0  0
   58.1820   33.2430   46.9610 C   0  0  0  0  0  0  0  0  0  0  0  0
   59.3430   33.8510   47.6900 C   0  0  0  0  0  0  0  0  0  0  0  0
   59.3020   33.9370   48.9450 O   0  0  0  0  0  0  0  0  0  0  0  0
   60.4720   34.3930   46.9940 N   0  0  0  0  0  0  0  0  0  0  0  0
   61.5490   33.5930   46.4250 C   0  0  0  0  0  0  0  0  0  0  0  0
   62.4260   33.0700   47.5310 C   0  0  0  0  0  0  0  0  0  0  0  0
   63.5120   33.8400   47.9830 C   0  0  0  0  0  0  0  0  0  0  0  0
   64.3330   33.3700   49.0090 C   0  0  0  0  0  0  0  0  0  0  0  0
   64.0760   32.1330   49.5980 C   0  0  0  0  0  0  0  0  0  0  0  0
   62.9900   31.3640   49.1710 C   0  0  0  0  0  0  0  0  0  0  0  0
   62.1510   31.8260   48.1380 C   0  0  0  0  0  0  0  0  0  0  0  0
   61.0410   31.0840   47.6970 O   0  0  0  0  0  0  0  0  0  0  0  0
   59.9980   30.6120   48.5420 C   0  0  0  0  0  0  0  0  0  0  0  0
   58.2360   30.4340   44.9490 N   0  0  0  0  0  0  0  0  0  0  0  0
   59.6290   30.0790   45.2160 C   0  0  0  0  0  0  0  0  0  0  0  0
   56.9610   24.7960   44.6160 C   0  0  0  0  0  0  0  0  0  0  0  0
   56.9600   23.5580   43.9680 C   0  0  0  0  0  0  0  0  0  0  0  0
   57.6771   20.5350   43.8368 H   0  0  0  0  0  0  0  0  0  0  0  0
   56.8466   19.9590   42.3518 H   0  0  0  0  0  0  0  0  0  0  0  0
   57.6888   21.5456   42.3518 H   0  0  0  0  0  0  0  0  0  0  0  0
   53.8379   22.4799   44.8521 H   0  0  0  0  0  0  0  0  0  0  0  0
   53.8372   24.6937   45.9981 H   0  0  0  0  0  0  0  0  0  0  0  0
   58.3001   27.8135   44.4670 H   0  0  0  0  0  0  0  0  0  0  0  0
   56.5904   27.7648   43.8818 H   0  0  0  0  0  0  0  0  0  0  0  0
   57.2796   33.8462   47.1393 H   0  0  0  0  0  0  0  0  0  0  0  0
   58.0139   32.2187   47.3252 H   0  0  0  0  0  0  0  0  0  0  0  0
   61.1214   32.7478   45.8657 H   0  0  0  0  0  0  0  0  0  0  0  0
   62.1490   34.2169   45.7462 H   0  0  0  0  0  0  0  0  0  0  0  0
   63.7159   34.8191   47.5250 H   0  0  0  0  0  0  0  0  0  0  0  0
   65.1838   33.9763   49.3533 H   0  0  0  0  0  0  0  0  0  0  0  0
   64.7296   31.7612   50.4009 H   0  0  0  0  0  0  0  0  0  0  0  0
   62.7891   30.3917   49.6446 H   0  0  0  0  0  0  0  0  0  0  0  0
   60.2903   30.7443   49.5942 H   0  0  0  0  0  0  0  0  0  0  0  0
   59.0784   31.1817   48.3425 H   0  0  0  0  0  0  0  0  0  0  0  0
   59.8190   29.5452   48.3425 H   0  0  0  0  0  0  0  0  0  0  0  0
   59.7948   30.0367   46.3026 H   0  0  0  0  0  0  0  0  0  0  0  0
   59.8483   29.0963   44.7731 H   0  0  0  0  0  0  0  0  0  0  0  0
   60.2919   30.8369   44.7731 H   0  0  0  0  0  0  0  0  0  0  0  0
   57.8368   25.4562   44.5323 H   0  0  0  0  0  0  0  0  0  0  0  0
   57.8418   23.2443   43.3900 H   0  0  0  0  0  0  0  0  0  0  0  0
  1  2  1  0
  2  3  1  0
  3  4  2  0
  4  5  1  0
  5  6  2  0
  6  7  1  0
  7  8  1  0
  8  9  2  0
  8 10  1  0
 10 11  1  0
 11 12  2  0
 12 13  1  0
 13 14  2  0
 14 15  1  0
 15 16  1  0
 16 17  1  0
 17 18  2  0
 17 19  1  0
 19 20  1  0
 20 21  1  0
 21 22  2  0
 22 23  1  0
 23 24  2  0
 24 25  1  0
 25 26  2  0
 26 27  1  0
 27 28  1  0
 14 29  1  0
 29 30  1  0
  6 31  1  0
 31 32  2  0
 32  3  1  0
 29 11  1  0
 26 21  1  0
  1 33  1  0
  1 34  1  0
  1 35  1  0
  4 36  1  0
  5 37  1  0
 10 38  1  0
 10 39  1  0
 16 40  1  0
 16 41  1  0
 20 42  1  0
 20 43  1  0
 22 44  1  0
 23 45  1  0
 24 46  1  0
 25 47  1  0
 28 48  1  0
 28 49  1  0
 28 50  1  0
 30 51  1  0
 30 52  1  0
 30 53  1  0
 31 54  1  0
 32 55  1  0
M  CHG  2   7  -1  19  -1
M  END
>  <UniqueID>  (84) 
75

>  <SMILES>  (84) 
COc1ccc([N-]C(=O)Cc2nnc(SCC(=O)[N-]Cc3ccccc3OC)n2C)cc1

>  <Energy>  (84) 
86.57720981638941

>  <Genealogy>  (84) 
COc1ccc([N-]C(=O)Cc2nnc(SCC(=O)[N-]Cc3ccccc3OC)n2C)cc1 (protonated)
COc1ccc([N-]C(=O)Cc2nnc(SCC(=O)[N-]Cc3ccccc3OC)n2C)cc1 (3D coordinates assigned)
COc1ccc([N-]C(=O)Cc2nnc(SCC(=O)[N-]Cc3ccccc3OC)n2C)cc1 (optimized conformer: 86.57720981638941 kcal/mol)

>  <smiles>  (84) 
COc1ccc(NC(=O)Cc2nnc(SCC(=O)NCc3ccccc3OC)n2C)cc1

>  <score_type>  (84) 
oracle

>  <origin>  (84) 
adg

>  <m_score__min__energy>  (84) 
-12.18

>  <m_primary>  (84) 
energy

$$$$
84:0
     RDKit          3D

 65 68  0  0  1  0  0  0  0  0999 V2000
   65.2700   32.7150   49.7550 C   0  0  0  0  0  0  0  0  0  0  0  0
   63.9660   32.2990   49.1810 C   0  0  0  0  0  0  0  0  0  0  0  0
   63.2450   31.2070   49.6760 C   0  0  0  0  0  0  0  0  0  0  0  0
   62.0410   30.8630   49.1130 C   0  0  0  0  0  0  0  0  0  0  0  0
   61.2190   29.7980   49.5050 N   0  0  0  0  0  0  0  0  0  0  0  0
   60.7070   28.9530   48.7130 C   0  0  0  0  0  0  0  0  0  0  0  0
   60.1840   29.2870   47.5250 N   0  0  0  0  0  0  0  0  0  0  0  0
   59.6560   28.3450   46.7350 C   0  0  0  0  0  0  0  0  0  0  0  0
   59.0850   28.7740   45.4380 C   0  0  0  0  0  0  0  0  0  0  0  0
   58.3940   30.1200   45.4950 C   0  0  0  0  0  0  0  0  0  0  0  0
   57.1850   30.1380   44.5770 C   0  0  0  0  0  0  0  0  0  0  0  0
   57.3930   29.4040   43.3720 N   0  0  0  0  0  0  0  0  0  0  0  0
   57.7940   28.0450   43.5130 C   0  0  0  0  0  0  0  0  0  0  0  0
   58.0650   27.7320   44.9650 C   0  0  0  0  0  0  0  0  0  0  0  0
   59.6270   27.0140   47.1010 C   0  0  0  0  0  0  0  0  0  0  0  0
   60.1680   26.6890   48.3260 C   0  0  0  0  0  0  0  0  0  0  0  0
   60.7030   27.6480   49.1260 N   0  0  0  0  0  0  0  0  0  0  0  0
   61.5950   31.6260   48.0690 N   0  0  0  0  0  0  0  0  0  0  0  0
   62.2680   32.6640   47.5900 C   0  0  0  0  0  0  0  0  0  0  0  0
   61.7780   33.3250   46.6000 N   0  0  0  0  0  0  0  0  0  0  0  0
   60.9730   34.5260   46.7410 C   0  0  0  0  0  0  0  0  0  0  0  0
   59.5840   34.0300   46.4100 C   0  0  0  0  0  0  0  0  0  0  0  0
   59.0980   34.1790   45.1230 C   0  0  0  0  0  0  0  0  0  0  0  0
   57.8460   33.7610   44.7340 C   0  0  0  0  0  0  0  0  0  0  0  0
   57.0380   33.1590   45.6840 C   0  0  0  0  0  0  0  0  0  0  0  0
   57.5180   33.0100   46.9610 C   0  0  0  0  0  0  0  0  0  0  0  0
   58.7900   33.4390   47.3460 C   0  0  0  0  0  0  0  0  0  0  0  0
   59.2540   33.2460   48.7570 C   0  0  0  0  0  0  0  0  0  0  0  0
   59.2220   31.8950   49.1470 N   0  0  0  0  0  0  0  0  0  0  0  0
   58.7460   31.5770   50.7270 S   0  0  0  0  0  0  0  0  0  0  0  0
   58.1390   33.0010   51.5900 C   0  0  0  0  0  0  0  0  0  0  0  0
   59.9620   31.1000   51.5070 O   0  0  0  0  0  0  0  0  0  0  0  0
   57.6710   30.4990   50.7720 O   0  0  0  0  0  0  0  0  0  0  0  0
   63.4800   33.0440   48.1250 C   0  0  0  0  0  0  0  0  0  0  0  0
   65.2100   32.6959   50.8532 H   0  0  0  0  0  0  0  0  0  0  0  0
   66.0562   32.0231   49.4186 H   0  0  0  0  0  0  0  0  0  0  0  0
   65.5102   33.7344   49.4186 H   0  0  0  0  0  0  0  0  0  0  0  0
   63.6437   30.6226   50.5183 H   0  0  0  0  0  0  0  0  0  0  0  0
   59.9318   28.8666   44.7420 H   0  0  0  0  0  0  0  0  0  0  0  0
   58.0675   30.3155   46.5271 H   0  0  0  0  0  0  0  0  0  0  0  0
   59.1008   30.8962   45.1666 H   0  0  0  0  0  0  0  0  0  0  0  0
   56.3307   29.6985   45.1128 H   0  0  0  0  0  0  0  0  0  0  0  0
   56.9977   31.1854   44.2978 H   0  0  0  0  0  0  0  0  0  0  0  0
   57.9660   29.8990   42.6830 H   0  0  0  0  0  0  0  0  0  0  0  0
   56.9925   27.3889   43.1428 H   0  0  0  0  0  0  0  0  0  0  0  0
   58.7126   27.8785   42.9313 H   0  0  0  0  0  0  0  0  0  0  0  0
   57.1382   27.8101   45.5524 H   0  0  0  0  0  0  0  0  0  0  0  0
   58.4461   26.7080   45.0923 H   0  0  0  0  0  0  0  0  0  0  0  0
   59.1913   26.2470   46.4438 H   0  0  0  0  0  0  0  0  0  0  0  0
   60.1667   25.6409   48.6600 H   0  0  0  0  0  0  0  0  0  0  0  0
   61.1160   27.4050   50.0530 H   0  0  0  0  0  0  0  0  0  0  0  0
   60.6750   31.3880   47.6160 H   0  0  0  0  0  0  0  0  0  0  0  0
   61.0208   34.9183   47.7676 H   0  0  0  0  0  0  0  0  0  0  0  0
   61.3067   35.3552   46.0999 H   0  0  0  0  0  0  0  0  0  0  0  0
   59.7456   34.6560   44.3725 H   0  0  0  0  0  0  0  0  0  0  0  0
   57.4976   33.9008   43.7000 H   0  0  0  0  0  0  0  0  0  0  0  0
   56.0300   32.8067   45.4199 H   0  0  0  0  0  0  0  0  0  0  0  0
   56.8733   32.5323   47.7134 H   0  0  0  0  0  0  0  0  0  0  0  0
   60.2865   33.6154   48.8440 H   0  0  0  0  0  0  0  0  0  0  0  0
   58.5722   33.8038   49.4158 H   0  0  0  0  0  0  0  0  0  0  0  0
   59.4680   31.1540   48.5180 H   0  0  0  0  0  0  0  0  0  0  0  0
   58.2114   32.8310   52.6744 H   0  0  0  0  0  0  0  0  0  0  0  0
   58.7406   33.8801   51.3156 H   0  0  0  0  0  0  0  0  0  0  0  0
   57.0882   33.1757   51.3156 H   0  0  0  0  0  0  0  0  0  0  0  0
   64.0370   33.9051   47.7272 H   0  0  0  0  0  0  0  0  0  0  0  0
  1  2  1  0
  2  3  1  0
  3  4  2  0
  4  5  1  0
  5  6  2  0
  6  7  1  0
  7  8  2  0
  8  9  1  0
  9 10  1  0
 10 11  1  0
 11 12  1  0
 12 13  1  0
 13 14  1  0
  8 15  1  0
 15 16  2  0
 16 17  1  0
  4 18  1  0
 18 19  1  0
 19 20  2  0
 20 21  1  0
 21 22  1  0
 22 23  2  0
 23 24  1  0
 24 25  2  0
 25 26  1  0
 26 27  2  0
 27 28  1  0
 28 29  1  0
 29 30  1  0
 30 31  1  0
 30 32  2  0
 30 33  2  0
 19 34  1  0
 34  2  2  0
 17  6  1  0
 27 22  1  0
 14  9  1  0
  1 35  1  0
  1 36  1  0
  1 37  1  0
  3 38  1  0
  9 39  1  0
 10 40  1  0
 10 41  1  0
 11 42  1  0
 11 43  1  0
 12 44  1  0
 13 45  1  0
 13 46  1  0
 14 47  1  0
 14 48  1  0
 15 49  1  0
 16 50  1  0
 17 51  1  0
 18 52  1  0
 21 53  1  0
 21 54  1  0
 23 55  1  0
 24 56  1  0
 25 57  1  0
 26 58  1  0
 28 59  1  0
 28 60  1  0
 29 61  1  0
 31 62  1  0
 31 63  1  0
 31 64  1  0
 34 65  1  0
M  END
>  <smiles>  (85) 
Cc1cc(N=c2nc(C3CCNCC3)cc[nH]2)[nH]c(=NCc2ccccc2CNS(C)(=O)=O)c1

>  <score_type>  (85) 
oracle

>  <origin>  (85) 
adg

>  <m_score__min__energy>  (85) 
-11.02

>  <m_primary>  (85) 
energy

$$$$
85:0
     RDKit          3D

 70 74  0  0  0  0  0  0  0  0999 V2000
   58.8050   30.7770   44.3510 N   0  0  0  0  0  0  0  0  0  0  0  0
   59.2000   30.0540   45.8720 S   0  0  0  0  0  0  0  0  0  0  0  0
   60.6500   30.2890   46.1850 O   0  0  0  0  0  0  0  0  0  0  0  0
   58.3570   30.7040   46.9340 O   0  0  0  0  0  0  0  0  0  0  0  0
   58.8750   28.3120   45.8310 C   0  0  0  0  0  0  0  0  0  0  0  0
   58.4120   27.7390   44.6340 C   0  0  0  0  0  0  0  0  0  0  0  0
   58.1790   26.3650   44.5470 C   0  0  0  0  0  0  0  0  0  0  0  0
   58.4060   25.5460   45.6520 C   0  0  0  0  0  0  0  0  0  0  0  0
   58.8570   26.0990   46.8510 C   0  0  0  0  0  0  0  0  0  0  0  0
   59.0840   27.4810   46.9590 C   0  0  0  0  0  0  0  0  0  0  0  0
   59.5340   28.0190   48.2580 C   0  0  0  0  0  0  0  0  0  0  0  0
   58.7500   28.9630   48.9340 C   0  0  0  0  0  0  0  0  0  0  0  0
   59.1720   29.4770   50.1630 C   0  0  0  0  0  0  0  0  0  0  0  0
   60.3930   29.0730   50.7230 C   0  0  0  0  0  0  0  0  0  0  0  0
   60.7900   29.5970   52.0020 N   0  0  0  0  0  0  0  0  0  0  0  0
   60.7130   30.9870   52.3470 C   0  0  0  0  0  0  0  0  0  0  0  0
   59.7210   31.7770   51.7440 C   0  0  0  0  0  0  0  0  0  0  0  0
   59.5740   33.1190   52.0920 C   0  0  0  0  0  0  0  0  0  0  0  0
   60.4150   33.6870   53.0460 C   0  0  0  0  0  0  0  0  0  0  0  0
   61.4080   32.9180   53.6540 C   0  0  0  0  0  0  0  0  0  0  0  0
   61.5760   31.5580   53.3190 C   0  0  0  0  0  0  0  0  0  0  0  0
   62.6790   30.7860   53.9580 C   0  0  0  0  0  0  0  0  0  0  0  0
   62.6590   30.5330   55.1930 O   0  0  0  0  0  0  0  0  0  0  0  0
   63.7670   30.2990   53.1630 N   0  0  0  0  0  0  0  0  0  0  0  0
   64.6270   31.1600   52.3590 C   0  0  0  0  0  0  0  0  0  0  0  0
   63.8690   31.6920   51.1710 C   0  0  0  0  0  0  0  0  0  0  0  0
   63.1740   30.8220   50.3180 C   0  0  0  0  0  0  0  0  0  0  0  0
   62.4400   31.3250   49.2400 C   0  0  0  0  0  0  0  0  0  0  0  0
   62.3900   32.7080   48.9970 C   0  0  0  0  0  0  0  0  0  0  0  0
   61.5960   33.2540   47.8700 C   0  0  0  0  0  0  0  0  0  0  0  0
   62.0610   34.2070   47.1860 O   0  0  0  0  0  0  0  0  0  0  0  0
   60.3130   32.6990   47.5360 N   0  0  0  0  0  0  0  0  0  0  0  0
   59.4410   33.3170   46.5790 C   0  0  0  0  0  0  0  0  0  0  0  0
   59.9900   33.8190   45.3880 C   0  0  0  0  0  0  0  0  0  0  0  0
   59.1790   34.4590   44.4490 C   0  0  0  0  0  0  0  0  0  0  0  0
   57.8090   34.5910   44.6830 C   0  0  0  0  0  0  0  0  0  0  0  0
   57.2450   34.0720   45.8520 C   0  0  0  0  0  0  0  0  0  0  0  0
   58.0480   33.4250   46.8040 C   0  0  0  0  0  0  0  0  0  0  0  0
   57.4310   32.8470   47.9610 N   0  0  0  0  0  0  0  0  0  0  0  0
   63.0830   33.5770   49.8580 C   0  0  0  0  0  0  0  0  0  0  0  0
   63.8200   33.0720   50.9340 C   0  0  0  0  0  0  0  0  0  0  0  0
   61.1810   28.1290   50.0370 C   0  0  0  0  0  0  0  0  0  0  0  0
   60.7560   27.6120   48.8100 C   0  0  0  0  0  0  0  0  0  0  0  0
   58.9820   30.0570   43.6160 H   0  0  0  0  0  0  0  0  0  0  0  0
   58.2315   28.3789   43.7576 H   0  0  0  0  0  0  0  0  0  0  0  0
   57.8158   25.9282   43.6051 H   0  0  0  0  0  0  0  0  0  0  0  0
   58.2294   24.4628   45.5786 H   0  0  0  0  0  0  0  0  0  0  0  0
   59.0363   25.4473   47.7189 H   0  0  0  0  0  0  0  0  0  0  0  0
   57.7992   29.3007   48.4959 H   0  0  0  0  0  0  0  0  0  0  0  0
   58.5416   30.2043   50.6956 H   0  0  0  0  0  0  0  0  0  0  0  0
   61.1560   28.9390   52.7270 H   0  0  0  0  0  0  0  0  0  0  0  0
   59.0540   31.3331   50.9904 H   0  0  0  0  0  0  0  0  0  0  0  0
   58.7940   33.7292   51.6132 H   0  0  0  0  0  0  0  0  0  0  0  0
   60.2960   34.7454   53.3211 H   0  0  0  0  0  0  0  0  0  0  0  0
   62.0682   33.3781   54.4040 H   0  0  0  0  0  0  0  0  0  0  0  0
   64.9747   32.0026   52.9747 H   0  0  0  0  0  0  0  0  0  0  0  0
   65.4871   30.5744   52.0021 H   0  0  0  0  0  0  0  0  0  0  0  0
   63.2068   29.7374   50.4985 H   0  0  0  0  0  0  0  0  0  0  0  0
   61.8981   30.6338   48.5778 H   0  0  0  0  0  0  0  0  0  0  0  0
   60.1140   31.7090   47.8070 H   0  0  0  0  0  0  0  0  0  0  0  0
   61.0669   33.7072   45.1935 H   0  0  0  0  0  0  0  0  0  0  0  0
   59.6197   34.8595   43.5242 H   0  0  0  0  0  0  0  0  0  0  0  0
   57.1727   35.1039   43.9467 H   0  0  0  0  0  0  0  0  0  0  0  0
   56.1636   34.1714   46.0271 H   0  0  0  0  0  0  0  0  0  0  0  0
   57.9370   32.1260   48.5250 H   0  0  0  0  0  0  0  0  0  0  0  0
   56.5040   33.1730   48.3130 H   0  0  0  0  0  0  0  0  0  0  0  0
   63.0452   34.6625   49.6840 H   0  0  0  0  0  0  0  0  0  0  0  0
   64.3635   33.7612   51.5970 H   0  0  0  0  0  0  0  0  0  0  0  0
   62.1364   27.7966   50.4692 H   0  0  0  0  0  0  0  0  0  0  0  0
   61.3830   26.8830   48.2757 H   0  0  0  0  0  0  0  0  0  0  0  0
  1  2  1  0
  2  3  2  0
  2  4  2  0
  2  5  1  0
  5  6  2  0
  6  7  1  0
  7  8  2  0
  8  9  1  0
  9 10  2  0
 10 11  1  0
 11 12  2  0
 12 13  1  0
 13 14  2  0
 14 15  1  0
 15 16  1  0
 16 17  2  0
 17 18  1  0
 18 19  2  0
 19 20  1  0
 20 21  2  0
 21 22  1  0
 22 23  2  0
 22 24  1  0
 24 25  1  0
 25 26  1  0
 26 27  2  0
 27 28  1  0
 28 29  2  0
 29 30  1  0
 30 31  2  0
 30 32  1  0
 32 33  1  0
 33 34  2  0
 34 35  1  0
 35 36  2  0
 36 37  1  0
 37 38  2  0
 38 39  1  0
 29 40  1  0
 40 41  2  0
 14 42  1  0
 42 43  2  0
 10  5  1  0
 43 11  1  0
 21 16  1  0
 41 26  1  0
 38 33  1  0
  1 44  1  0
  6 45  1  0
  7 46  1  0
  8 47  1  0
  9 48  1  0
 12 49  1  0
 13 50  1  0
 15 51  1  0
 17 52  1  0
 18 53  1  0
 19 54  1  0
 20 55  1  0
 25 56  1  0
 25 57  1  0
 27 58  1  0
 28 59  1  0
 32 60  1  0
 34 61  1  0
 35 62  1  0
 36 63  1  0
 37 64  1  0
 39 65  1  0
 39 66  1  0
 40 67  1  0
 41 68  1  0
 42 69  1  0
 43 70  1  0
M  CHG  2   1  -1  24  -1
M  END
>  <UniqueID>  (86) 
76

>  <SMILES>  (86) 
[NH-]S(=O)(=O)c1ccccc1-c1ccc(Nc2ccccc2C(=O)[N-]Cc2ccc(C(=O)Nc3ccccc3N)cc2)cc1

>  <Energy>  (86) 
98.45920246991052

>  <Genealogy>  (86) 
[NH-]S(=O)(=O)c1ccccc1-c1ccc(Nc2ccccc2C(=O)[N-]Cc2ccc(C(=O)Nc3ccccc3N)cc2)cc1 (protonated)
[NH-]S(=O)(=O)c1ccccc1-c1ccc(Nc2ccccc2C(=O)[N-]Cc2ccc(C(=O)Nc3ccccc3N)cc2)cc1 (3D coordinates assigned)
[NH-]S(=O)(=O)c1ccccc1-c1ccc(Nc2ccccc2C(=O)[N-]Cc2ccc(C(=O)Nc3ccccc3N)cc2)cc1 (optimized conformer: 98.45920246991052 kcal/mol)

>  <smiles>  (86) 
Nc1ccccc1NC(=O)c1ccc(CNC(=O)c2ccccc2Nc2ccc(-c3ccccc3S(N)(=O)=O)cc2)cc1

>  <score_type>  (86) 
oracle

>  <origin>  (86) 
adg

>  <m_score__min__energy>  (86) 
-13.109999999999999

>  <m_primary>  (86) 
energy

$$$$
86:0
     RDKit          3D

 37 39  0  0  1  0  0  0  0  0999 V2000
   59.6980   34.1460   49.5020 C   0  0  0  0  0  0  0  0  0  0  0  0
   60.8240   33.9440   48.5520 C   0  0  0  0  0  0  0  0  0  0  0  0
   62.0750   33.6870   49.0710 C   0  0  0  0  0  0  0  0  0  0  0  0
   63.1380   33.4960   48.2140 C   0  0  0  0  0  0  0  0  0  0  0  0
   62.9270   33.5640   46.8580 C   0  0  0  0  0  0  0  0  0  0  0  0
   61.6580   33.8230   46.3420 C   0  0  0  0  0  0  0  0  0  0  0  0
   60.5810   34.0180   47.1880 C   0  0  0  0  0  0  0  0  0  0  0  0
   59.2820   34.2830   46.6790 N   0  0  0  0  0  0  0  0  0  0  0  0
   58.7090   33.4350   45.8920 C   0  0  0  0  0  0  0  0  0  0  0  0
   58.4690   33.7830   44.6140 N   0  0  0  0  0  0  0  0  0  0  0  0
   57.8750   32.9510   43.7370 C   0  0  0  0  0  0  0  0  0  0  0  0
   57.5100   31.6950   44.2020 C   0  0  0  0  0  0  0  0  0  0  0  0
   56.6650   30.4570   43.0260 Br  0  0  0  0  0  0  0  0  0  0  0  0
   57.7720   31.3740   45.5200 C   0  0  0  0  0  0  0  0  0  0  0  0
   57.4350   30.2130   45.9530 N   0  0  0  0  0  0  0  0  0  0  0  0
   58.2880   29.0730   45.9740 C   0  0  0  0  0  0  0  0  0  0  0  0
   57.7580   27.8520   46.3750 C   0  0  0  0  0  0  0  0  0  0  0  0
   58.5480   26.7140   46.4120 C   0  0  0  0  0  0  0  0  0  0  0  0
   59.8790   26.7470   46.0560 C   0  0  0  0  0  0  0  0  0  0  0  0
   60.3840   27.9790   45.6590 C   0  0  0  0  0  0  0  0  0  0  0  0
   59.6180   29.1180   45.6160 C   0  0  0  0  0  0  0  0  0  0  0  0
   58.3650   32.2170   46.3800 N   0  0  0  0  0  0  0  0  0  0  0  0
   60.0725   34.0788   50.5341 H   0  0  0  0  0  0  0  0  0  0  0  0
   59.2529   35.1383   49.3373 H   0  0  0  0  0  0  0  0  0  0  0  0
   58.9357   33.3703   49.3373 H   0  0  0  0  0  0  0  0  0  0  0  0
   62.2239   33.6348   50.1596 H   0  0  0  0  0  0  0  0  0  0  0  0
   64.1432   33.2916   48.6112 H   0  0  0  0  0  0  0  0  0  0  0  0
   63.7714   33.4119   46.1697 H   0  0  0  0  0  0  0  0  0  0  0  0
   61.5119   33.8727   45.2529 H   0  0  0  0  0  0  0  0  0  0  0  0
   58.7670   34.7500   44.3120 H   0  0  0  0  0  0  0  0  0  0  0  0
   57.6871   33.2540   42.6964 H   0  0  0  0  0  0  0  0  0  0  0  0
   56.6992   27.7884   46.6663 H   0  0  0  0  0  0  0  0  0  0  0  0
   58.1019   25.7612   46.7333 H   0  0  0  0  0  0  0  0  0  0  0  0
   60.5085   25.8453   46.0847 H   0  0  0  0  0  0  0  0  0  0  0  0
   61.4424   28.0448   45.3667 H   0  0  0  0  0  0  0  0  0  0  0  0
   60.0675   30.0692   45.2948 H   0  0  0  0  0  0  0  0  0  0  0  0
   58.5530   31.9530   47.3700 H   0  0  0  0  0  0  0  0  0  0  0  0
  1  2  1  0
  2  3  2  0
  3  4  1  0
  4  5  2  0
  5  6  1  0
  6  7  2  0
  7  8  1  0
  8  9  2  0
  9 10  1  0
 10 11  1  0
 11 12  2  0
 12 13  1  0
 12 14  1  0
 14 15  2  0
 15 16  1  0
 16 17  2  0
 17 18  1  0
 18 19  2  0
 19 20  1  0
 20 21  2  0
 14 22  1  0
  7  2  1  0
 22  9  1  0
 21 16  1  0
  1 23  1  0
  1 24  1  0
  1 25  1  0
  3 26  1  0
  4 27  1  0
  5 28  1  0
  6 29  1  0
 10 30  1  0
 11 31  1  0
 17 32  1  0
 18 33  1  0
 19 34  1  0
 20 35  1  0
 21 36  1  0
 22 37  1  0
M  END
>  <smiles>  (87) 
Cc1ccccc1N=c1[nH]cc(Br)c(=Nc2ccccc2)[nH]1

>  <score_type>  (87) 
oracle

>  <origin>  (87) 
adg

>  <m_score__min__energy>  (87) 
-7.7699999999999996

>  <m_primary>  (87) 
energy

$$$$
87:0
     RDKit          3D

 34 36  0  0  0  0  0  0  0  0999 V2000
   57.4180   25.4450   44.6740 C   0  0  0  0  0  0  0  0  0  0  0  0
   57.5600   26.1380   45.9100 O   0  0  0  0  0  0  0  0  0  0  0  0
   58.1120   27.4210   46.0370 C   0  0  0  0  0  0  0  0  0  0  0  0
   59.3990   27.5420   46.6030 C   0  0  0  0  0  0  0  0  0  0  0  0
   60.0050   28.8000   46.7560 C   0  0  0  0  0  0  0  0  0  0  0  0
   59.3010   29.9330   46.3330 C   0  0  0  0  0  0  0  0  0  0  0  0
   59.6420   31.2820   46.3600 C   0  0  0  0  0  0  0  0  0  0  0  0
   60.8330   31.7830   46.8680 C   0  0  0  0  0  0  0  0  0  0  0  0
   61.2350   33.1180   46.9390 C   0  0  0  0  0  0  0  0  0  0  0  0
   62.5970   33.3830   47.5350 C   0  0  0  0  0  0  0  0  0  0  0  0
   60.5410   34.2290   46.4390 C   0  0  0  0  0  0  0  0  0  0  0  0
   59.2830   34.3350   45.8460 C   0  0  0  0  0  0  0  0  0  0  0  0
   58.3160   33.3590   45.5500 C   0  0  0  0  0  0  0  0  0  0  0  0
   57.0290   33.8680   44.9340 C   0  0  0  0  0  0  0  0  0  0  0  0
   58.4780   31.9760   45.7730 C   0  0  0  0  0  0  0  0  0  0  0  0
   57.5570   31.0230   45.4510 N   0  0  0  0  0  0  0  0  0  0  0  0
   56.3230   31.2080   44.8680 O   0  0  0  0  0  0  0  0  0  0  0  0
   58.0500   29.8210   45.7850 C   0  0  0  0  0  0  0  0  0  0  0  0
   57.4240   28.5840   45.6190 C   0  0  0  0  0  0  0  0  0  0  0  0
   57.2008   24.3848   44.8709 H   0  0  0  0  0  0  0  0  0  0  0  0
   56.5919   25.8878   44.0982 H   0  0  0  0  0  0  0  0  0  0  0  0
   58.3516   25.5272   44.0982 H   0  0  0  0  0  0  0  0  0  0  0  0
   59.9352   26.6385   46.9290 H   0  0  0  0  0  0  0  0  0  0  0  0
   61.0083   28.8922   47.1975 H   0  0  0  0  0  0  0  0  0  0  0  0
   61.5435   31.0407   47.2607 H   0  0  0  0  0  0  0  0  0  0  0  0
   62.5259   33.3692   48.6326 H   0  0  0  0  0  0  0  0  0  0  0  0
   63.3001   32.6048   47.2033 H   0  0  0  0  0  0  0  0  0  0  0  0
   62.9571   34.3680   47.2033 H   0  0  0  0  0  0  0  0  0  0  0  0
   61.0825   35.1821   46.5302 H   0  0  0  0  0  0  0  0  0  0  0  0
   58.9988   35.3587   45.5609 H   0  0  0  0  0  0  0  0  0  0  0  0
   56.3253   34.1463   45.7324 H   0  0  0  0  0  0  0  0  0  0  0  0
   57.2439   34.7489   44.3112 H   0  0  0  0  0  0  0  0  0  0  0  0
   56.5833   33.0785   44.3112 H   0  0  0  0  0  0  0  0  0  0  0  0
   56.4203   28.5156   45.1740 H   0  0  0  0  0  0  0  0  0  0  0  0
  1  2  1  0
  2  3  1  0
  3  4  2  0
  4  5  1  0
  5  6  2  0
  6  7  1  0
  7  8  2  0
  8  9  1  0
  9 10  1  0
  9 11  2  0
 11 12  1  0
 12 13  2  0
 13 14  1  0
 13 15  1  0
 15 16  2  0
 16 17  1  0
 16 18  1  0
 18 19  2  0
 19  3  1  0
 18  6  1  0
 15  7  1  0
  1 20  1  0
  1 21  1  0
  1 22  1  0
  4 23  1  0
  5 24  1  0
  8 25  1  0
 10 26  1  0
 10 27  1  0
 10 28  1  0
 11 29  1  0
 12 30  1  0
 14 31  1  0
 14 32  1  0
 14 33  1  0
 19 34  1  0
M  CHG  2  16   1  17  -1
M  END
>  <UniqueID>  (88) 
77

>  <SMILES>  (88) 
COc1ccc2c3cc(C)ccc(C)c-3[n+]([O-])c2c1

>  <Energy>  (88) 
89.35474558839351

>  <Genealogy>  (88) 
COc1ccc2c3cc(C)ccc(C)c-3[n+]([O-])c2c1 (3D coordinates assigned)
COc1ccc2c3cc(C)ccc(C)c-3[n+]([O-])c2c1 (optimized conformer: 89.35474558839351 kcal/mol)

>  <smiles>  (88) 
COc1ccc2c3cc(C)ccc(C)c-3[n+]([O-])c2c1

>  <score_type>  (88) 
oracle

>  <origin>  (88) 
adg

>  <m_score__min__energy>  (88) 
-6.8799999999999999

>  <m_primary>  (88) 
energy

$$$$
88:0
     RDKit          3D

 39 41  0  0  0  0  0  0  0  0999 V2000
   57.8912   31.5062   46.5198 H   0  0  0  0  0  0  0  0  0  0  0  0
   57.7750   31.2240   45.4630 C   0  0  0  0  0  0  0  0  0  0  0  0
   57.6560   32.0850   44.4350 N   0  0  0  0  0  0  0  0  0  0  0  0
   57.5130   31.3720   43.3290 N   0  0  0  0  0  0  0  0  0  0  0  0
   57.4030   31.9490   41.9970 C   0  0  0  0  0  0  0  0  0  0  0  0
   57.1976   33.0265   42.0800 H   0  0  0  0  0  0  0  0  0  0  0  0
   58.3464   31.7965   41.4523 H   0  0  0  0  0  0  0  0  0  0  0  0
   56.5819   31.4601   41.4523 H   0  0  0  0  0  0  0  0  0  0  0  0
   57.5490   30.0590   43.6170 C   0  0  0  0  0  0  0  0  0  0  0  0
   57.4526   29.2361   42.8934 H   0  0  0  0  0  0  0  0  0  0  0  0
   57.7280   29.9240   44.9790 C   0  0  0  0  0  0  0  0  0  0  0  0
   57.7390   28.6520   45.7340 C   0  0  0  0  0  0  0  0  0  0  0  0
   56.6620   27.8320   45.5990 N   0  0  0  0  0  0  0  0  0  0  0  0
   56.5680   26.6510   46.2610 C   0  0  0  0  0  0  0  0  0  0  0  0
   55.5000   25.9240   46.1110 N   0  0  0  0  0  0  0  0  0  0  0  0
   55.4320   24.4890   46.0470 C   0  0  0  0  0  0  0  0  0  0  0  0
   54.9180   23.7180   47.1070 C   0  0  0  0  0  0  0  0  0  0  0  0
   54.5223   24.2151   48.0049 H   0  0  0  0  0  0  0  0  0  0  0  0
   54.9090   22.3240   47.0220 C   0  0  0  0  0  0  0  0  0  0  0  0
   54.4959   21.7268   47.8483 H   0  0  0  0  0  0  0  0  0  0  0  0
   55.4230   21.6860   45.8910 C   0  0  0  0  0  0  0  0  0  0  0  0
   55.4069   20.5881   45.8254 H   0  0  0  0  0  0  0  0  0  0  0  0
   55.9590   22.4410   44.8400 C   0  0  0  0  0  0  0  0  0  0  0  0
   56.6400   21.6360   43.4310 S   0  0  0  0  0  0  0  0  0  0  0  0
   56.0570   22.2240   42.1760 O   0  0  0  0  0  0  0  0  0  0  0  0
   58.1310   21.8290   43.4060 O   0  0  0  0  0  0  0  0  0  0  0  0
   56.2790   19.9460   43.5040 N   0  0  0  0  0  0  0  0  0  0  0  0
   56.6710   19.5130   42.6380 H   0  0  0  0  0  0  0  0  0  0  0  0
   56.8190   19.5530   44.3080 H   0  0  0  0  0  0  0  0  0  0  0  0
   55.9770   23.8400   44.9300 C   0  0  0  0  0  0  0  0  0  0  0  0
   56.4223   24.4333   44.1177 H   0  0  0  0  0  0  0  0  0  0  0  0
   57.5670   26.2750   47.1030 N   0  0  0  0  0  0  0  0  0  0  0  0
   58.6730   27.0430   47.2670 C   0  0  0  0  0  0  0  0  0  0  0  0
   59.4675   26.7173   47.9545 H   0  0  0  0  0  0  0  0  0  0  0  0
   58.8100   28.2490   46.5660 C   0  0  0  0  0  0  0  0  0  0  0  0
   60.0760   29.0450   46.7270 C   0  0  0  0  0  0  0  0  0  0  0  0
   60.2906   29.1800   47.7974 H   0  0  0  0  0  0  0  0  0  0  0  0
   60.9097   28.5083   46.2507 H   0  0  0  0  0  0  0  0  0  0  0  0
   59.9536   30.0289   46.2507 H   0  0  0  0  0  0  0  0  0  0  0  0
  1  2  1  0
  2  3  2  0
  3  4  1  0
  4  5  1  0
  5  6  1  0
  5  7  1  0
  5  8  1  0
  4  9  1  0
  9 10  1  0
  9 11  2  0
 11 12  1  0
 12 13  2  0
 13 14  1  0
 14 15  2  0
 15 16  1  0
 16 17  2  0
 17 18  1  0
 17 19  1  0
 19 20  1  0
 19 21  2  0
 21 22  1  0
 21 23  1  0
 23 24  1  0
 24 25  2  0
 24 26  2  0
 24 27  1  0
 27 28  1  0
 27 29  1  0
 23 30  2  0
 30 31  1  0
 14 32  1  0
 32 33  1  0
 33 34  1  0
 33 35  2  0
 35 36  1  0
 36 37  1  0
 36 38  1  0
 36 39  1  0
 11  2  1  0
 35 12  1  0
 30 16  1  0
M  CHG  1  32  -1
M  END
>  <UniqueID>  (89) 
78

>  <SMILES>  (89) 
Cc1c[n-]/c(=N\c2cccc(S(N)(=O)=O)c2)nc1-c1cnn(C)c1

>  <Energy>  (89) 
81.03931681390182

>  <Genealogy>  (89) 
Cc1c[n-]c(=Nc2cccc(S(N)(=O)=O)c2)nc1-c1cnn(C)c1 (protonated)
Cc1c[n-]/c(=N\c2cccc(S(N)(=O)=O)c2)nc1-c1cnn(C)c1 (cis-trans isomerization)
Cc1c[n-]/c(=N\c2cccc(S(N)(=O)=O)c2)nc1-c1cnn(C)c1 (3D coordinates assigned)
Cc1c[n-]/c(=N\c2cccc(S(N)(=O)=O)c2)nc1-c1cnn(C)c1 (optimized conformer: 81.03931681390182 kcal/mol)

>  <smiles>  (89) 
Cc1c[nH]c(=Nc2cccc(S(N)(=O)=O)c2)nc1-c1cnn(C)c1

>  <score_type>  (89) 
oracle

>  <origin>  (89) 
adg

>  <m_score__min__energy>  (89) 
-9.9299999999999997

>  <m_primary>  (89) 
energy

$$$$
89:0
     RDKit          3D

 60 64  0  0  0  0  0  0  0  0999 V2000
   55.1430   29.1800   44.8440 N   0  0  0  0  0  0  0  0  0  0  0  0
   56.4290   29.7940   44.9720 C   0  0  0  0  0  0  0  0  0  0  0  0
   56.6830   30.8350   44.3010 O   0  0  0  0  0  0  0  0  0  0  0  0
   57.4730   29.2030   45.8490 C   0  0  0  0  0  0  0  0  0  0  0  0
   58.5030   29.9570   46.4240 C   0  0  0  0  0  0  0  0  0  0  0  0
   58.7160   31.3570   46.2190 N   0  0  0  0  0  0  0  0  0  0  0  0
   59.1040   32.2520   47.2620 C   0  0  0  0  0  0  0  0  0  0  0  0
   58.2310   32.6570   48.0700 O   0  0  0  0  0  0  0  0  0  0  0  0
   60.5290   32.5880   47.4810 C   0  0  0  0  0  0  0  0  0  0  0  0
   61.1300   33.4700   46.5660 C   0  0  0  0  0  0  0  0  0  0  0  0
   62.4670   33.8350   46.7010 C   0  0  0  0  0  0  0  0  0  0  0  0
   63.2350   33.3160   47.7380 C   0  0  0  0  0  0  0  0  0  0  0  0
   62.6590   32.4400   48.6580 C   0  0  0  0  0  0  0  0  0  0  0  0
   61.3050   32.0610   48.5520 C   0  0  0  0  0  0  0  0  0  0  0  0
   60.7280   31.1720   49.6360 C   0  0  0  0  0  0  0  0  0  0  0  0
   59.8270   31.9550   50.5610 C   0  0  0  0  0  0  0  0  0  0  0  0
   60.1020   33.3140   50.7850 C   0  0  0  0  0  0  0  0  0  0  0  0
   59.2690   34.0890   51.5990 C   0  0  0  0  0  0  0  0  0  0  0  0
   58.1340   33.5180   52.1770 C   0  0  0  0  0  0  0  0  0  0  0  0
   57.8420   32.1690   51.9610 C   0  0  0  0  0  0  0  0  0  0  0  0
   58.6820   31.3820   51.1670 C   0  0  0  0  0  0  0  0  0  0  0  0
   58.2630   29.6860   50.9830 Cl  0  0  0  0  0  0  0  0  0  0  0  0
   59.5060   28.9680   47.3480 S   0  0  0  0  0  0  0  0  0  0  0  0
   58.6520   27.5590   47.0270 C   0  0  0  0  0  0  0  0  0  0  0  0
   57.5450   27.8440   46.2380 C   0  0  0  0  0  0  0  0  0  0  0  0
   56.5680   26.7600   45.8690 C   0  0  0  0  0  0  0  0  0  0  0  0
   56.7880   25.4820   46.7050 C   0  0  0  0  0  0  0  0  0  0  0  0
   58.2210   25.1370   46.8790 N   0  0  0  0  0  0  0  0  0  0  0  0
   58.9020   24.7830   45.6120 C   0  0  0  0  0  0  0  0  0  0  0  0
   58.1130   23.7610   44.8380 C   0  0  0  0  0  0  0  0  0  0  0  0
   57.2290   24.1580   43.8200 C   0  0  0  0  0  0  0  0  0  0  0  0
   56.4980   23.2000   43.1090 C   0  0  0  0  0  0  0  0  0  0  0  0
   56.6410   21.8400   43.4130 C   0  0  0  0  0  0  0  0  0  0  0  0
   57.5100   21.4390   44.4310 C   0  0  0  0  0  0  0  0  0  0  0  0
   58.2460   22.3940   45.1400 C   0  0  0  0  0  0  0  0  0  0  0  0
   58.9370   26.2080   47.6080 C   0  0  0  0  0  0  0  0  0  0  0  0
   54.3910   29.3460   45.5490 H   0  0  0  0  0  0  0  0  0  0  0  0
   60.5370   33.8766   45.7335 H   0  0  0  0  0  0  0  0  0  0  0  0
   62.9179   34.5371   45.9842 H   0  0  0  0  0  0  0  0  0  0  0  0
   64.2946   33.5958   47.8324 H   0  0  0  0  0  0  0  0  0  0  0  0
   63.2708   32.0384   49.4793 H   0  0  0  0  0  0  0  0  0  0  0  0
   60.1464   30.3649   49.1666 H   0  0  0  0  0  0  0  0  0  0  0  0
   61.5587   30.7580   50.2263 H   0  0  0  0  0  0  0  0  0  0  0  0
   60.9832   33.7746   50.3146 H   0  0  0  0  0  0  0  0  0  0  0  0
   59.5081   35.1468   51.7833 H   0  0  0  0  0  0  0  0  0  0  0  0
   57.4688   34.1308   52.8032 H   0  0  0  0  0  0  0  0  0  0  0  0
   56.9462   31.7234   52.4181 H   0  0  0  0  0  0  0  0  0  0  0  0
   55.5459   27.1276   46.0427 H   0  0  0  0  0  0  0  0  0  0  0  0
   56.7222   26.5066   44.8097 H   0  0  0  0  0  0  0  0  0  0  0  0
   56.3416   25.6332   47.6989 H   0  0  0  0  0  0  0  0  0  0  0  0
   56.3151   24.6505   46.1619 H   0  0  0  0  0  0  0  0  0  0  0  0
   59.0138   25.6896   44.9991 H   0  0  0  0  0  0  0  0  0  0  0  0
   59.8860   24.3544   45.8530 H   0  0  0  0  0  0  0  0  0  0  0  0
   57.1115   25.2254   43.5815 H   0  0  0  0  0  0  0  0  0  0  0  0
   55.8102   23.5151   42.3104 H   0  0  0  0  0  0  0  0  0  0  0  0
   56.0690   21.0876   42.8501 H   0  0  0  0  0  0  0  0  0  0  0  0
   57.6154   20.3716   44.6750 H   0  0  0  0  0  0  0  0  0  0  0  0
   58.9323   22.0741   45.9379 H   0  0  0  0  0  0  0  0  0  0  0  0
   58.6176   26.1979   48.6606 H   0  0  0  0  0  0  0  0  0  0  0  0
   60.0172   26.0185   47.5223 H   0  0  0  0  0  0  0  0  0  0  0  0
  1  2  1  0
  2  3  2  0
  2  4  1  0
  4  5  2  0
  5  6  1  0
  6  7  1  0
  7  8  2  0
  7  9  1  0
  9 10  2  0
 10 11  1  0
 11 12  2  0
 12 13  1  0
 13 14  2  0
 14 15  1  0
 15 16  1  0
 16 17  2  0
 17 18  1  0
 18 19  2  0
 19 20  1  0
 20 21  2  0
 21 22  1  0
  5 23  1  0
 23 24  1  0
 24 25  2  0
 25 26  1  0
 26 27  1  0
 27 28  1  0
 28 29  1  0
 29 30  1  0
 30 31  2  0
 31 32  1  0
 32 33  2  0
 33 34  1  0
 34 35  2  0
 28 36  1  0
 25  4  1  0
 35 30  1  0
 14  9  1  0
 21 16  1  0
 36 24  1  0
  1 37  1  0
 10 38  1  0
 11 39  1  0
 12 40  1  0
 13 41  1  0
 15 42  1  0
 15 43  1  0
 17 44  1  0
 18 45  1  0
 19 46  1  0
 20 47  1  0
 26 48  1  0
 26 49  1  0
 27 50  1  0
 27 51  1  0
 29 52  1  0
 29 53  1  0
 31 54  1  0
 32 55  1  0
 33 56  1  0
 34 57  1  0
 35 58  1  0
 36 59  1  0
 36 60  1  0
M  CHG  2   1  -1   6  -1
M  END
>  <UniqueID>  (90) 
79

>  <SMILES>  (90) 
[NH-]C(=O)c1c([N-]C(=O)c2ccccc2Cc2ccccc2Cl)sc2c1CCN(Cc1ccccc1)C2

>  <Energy>  (90) 
113.10782941223924

>  <Genealogy>  (90) 
[NH-]C(=O)c1c([N-]C(=O)c2ccccc2Cc2ccccc2Cl)sc2c1CCN(Cc1ccccc1)C2 (protonated)
[NH-]C(=O)c1c([N-]C(=O)c2ccccc2Cc2ccccc2Cl)sc2c1CCN(Cc1ccccc1)C2 (3D coordinates assigned)
[NH-]C(=O)c1c([N-]C(=O)c2ccccc2Cc2ccccc2Cl)sc2c1CCN(Cc1ccccc1)C2 (nonaromatic ring conformer: 113.10782941223924 kcal/mol)

>  <smiles>  (90) 
NC(=O)c1c(NC(=O)c2ccccc2Cc2ccccc2Cl)sc2c1CCN(Cc1ccccc1)C2

>  <score_type>  (90) 
oracle

>  <origin>  (90) 
adg

>  <m_score__min__energy>  (90) 
-14.57

>  <m_primary>  (90) 
energy

$$$$
90:0
     RDKit          3D

 69 73  0  0  0  0  0  0  0  0999 V2000
   56.5780   31.3400   51.9840 C   0  0  0  0  0  0  0  0  0  0  0  0
   57.1710   30.2170   51.3400 O   0  0  0  0  0  0  0  0  0  0  0  0
   58.5450   30.0810   51.0920 C   0  0  0  0  0  0  0  0  0  0  0  0
   59.4320   30.2220   52.1640 C   0  0  0  0  0  0  0  0  0  0  0  0
   60.8080   30.0920   51.9660 C   0  0  0  0  0  0  0  0  0  0  0  0
   61.3120   29.8250   50.6910 C   0  0  0  0  0  0  0  0  0  0  0  0
   60.4410   29.6910   49.5990 C   0  0  0  0  0  0  0  0  0  0  0  0
   60.9850   29.3980   48.2220 C   0  0  0  0  0  0  0  0  0  0  0  0
   59.9390   29.5530   47.2010 N   0  0  0  0  0  0  0  0  0  0  0  0
   59.6880   30.6530   46.4280 C   0  0  0  0  0  0  0  0  0  0  0  0
   60.5350   31.9090   46.4120 C   0  0  0  0  0  0  0  0  0  0  0  0
   59.7700   33.1840   46.2830 N   0  0  1  0  0  0  0  0  0  0  0  0
   59.1770   33.3140   44.9180 C   0  0  0  0  0  0  0  0  0  0  0  0
   58.0320   34.3300   44.8630 C   0  0  0  0  0  0  0  0  0  0  0  0
   56.8760   33.8920   45.7790 C   0  0  0  0  0  0  0  0  0  0  0  0
   57.3580   33.1270   47.0290 C   0  0  0  0  0  0  0  0  0  0  0  0
   58.8080   33.5270   47.3900 C   0  0  1  0  0  0  0  0  0  0  0  0
   59.2560   33.0540   48.8040 C   0  0  0  0  0  0  0  0  0  0  0  0
   60.2580   33.9840   49.5180 C   0  0  0  0  0  0  0  0  0  0  0  0
   61.6900   33.5550   49.3190 C   0  0  0  0  0  0  0  0  0  0  0  0
   62.3450   33.8190   48.1030 C   0  0  0  0  0  0  0  0  0  0  0  0
   63.6820   33.4490   47.9290 C   0  0  0  0  0  0  0  0  0  0  0  0
   64.3760   32.8190   48.9660 C   0  0  0  0  0  0  0  0  0  0  0  0
   63.7330   32.5580   50.1790 C   0  0  0  0  0  0  0  0  0  0  0  0
   62.3950   32.9240   50.3570 C   0  0  0  0  0  0  0  0  0  0  0  0
   58.5560   30.5370   45.6870 N   0  0  0  0  0  0  0  0  0  0  0  0
   58.1060   29.3100   45.9980 C   0  0  0  0  0  0  0  0  0  0  0  0
   58.9210   28.7150   46.9070 C   0  0  0  0  0  0  0  0  0  0  0  0
   58.6000   27.4450   47.3900 C   0  0  0  0  0  0  0  0  0  0  0  0
   59.3180   26.8460   48.2320 O   0  0  0  0  0  0  0  0  0  0  0  0
   57.4650   26.8540   46.9230 N   0  0  0  0  0  0  0  0  0  0  0  0
   56.6550   27.4700   46.0070 C   0  0  0  0  0  0  0  0  0  0  0  0
   55.6080   26.8810   45.6240 O   0  0  0  0  0  0  0  0  0  0  0  0
   56.9800   28.7130   45.5140 N   0  0  0  0  0  0  0  0  0  0  0  0
   56.1090   29.4140   44.5620 C   0  0  0  0  0  0  0  0  0  0  0  0
   59.0560   29.8080   49.8080 C   0  0  0  0  0  0  0  0  0  0  0  0
   56.6443   31.2144   53.0748 H   0  0  0  0  0  0  0  0  0  0  0  0
   57.1100   32.2560   51.6874 H   0  0  0  0  0  0  0  0  0  0  0  0
   55.5216   31.4172   51.6874 H   0  0  0  0  0  0  0  0  0  0  0  0
   59.0429   30.4368   53.1702 H   0  0  0  0  0  0  0  0  0  0  0  0
   61.4971   30.2002   52.8166 H   0  0  0  0  0  0  0  0  0  0  0  0
   62.3968   29.7193   50.5422 H   0  0  0  0  0  0  0  0  0  0  0  0
   61.8074   30.0952   48.0038 H   0  0  0  0  0  0  0  0  0  0  0  0
   61.3461   28.3592   48.2004 H   0  0  0  0  0  0  0  0  0  0  0  0
   61.1063   31.9473   47.3513 H   0  0  0  0  0  0  0  0  0  0  0  0
   61.1705   31.8399   45.5168 H   0  0  0  0  0  0  0  0  0  0  0  0
   60.5070   33.9290   46.3330 H   0  0  0  0  0  0  0  0  0  0  0  0
   59.9655   33.6349   44.2213 H   0  0  0  0  0  0  0  0  0  0  0  0
   58.7631   32.3330   44.6417 H   0  0  0  0  0  0  0  0  0  0  0  0
   58.4032   35.3114   45.1932 H   0  0  0  0  0  0  0  0  0  0  0  0
   57.6617   34.3919   43.8290 H   0  0  0  0  0  0  0  0  0  0  0  0
   56.3279   34.7881   46.1055 H   0  0  0  0  0  0  0  0  0  0  0  0
   56.2364   33.2094   45.2002 H   0  0  0  0  0  0  0  0  0  0  0  0
   56.6966   33.3648   47.8752 H   0  0  0  0  0  0  0  0  0  0  0  0
   57.3317   32.0483   46.8152 H   0  0  0  0  0  0  0  0  0  0  0  0
   58.8231   34.6237   47.4734 H   0  0  0  0  0  0  0  0  0  0  0  0
   58.3591   32.9704   49.4354 H   0  0  0  0  0  0  0  0  0  0  0  0
   59.7781   32.0972   48.6558 H   0  0  0  0  0  0  0  0  0  0  0  0
   60.1371   35.0030   49.1216 H   0  0  0  0  0  0  0  0  0  0  0  0
   60.0436   33.9401   50.5960 H   0  0  0  0  0  0  0  0  0  0  0  0
   61.8036   34.3183   47.2859 H   0  0  0  0  0  0  0  0  0  0  0  0
   64.1887   33.6540   46.9744 H   0  0  0  0  0  0  0  0  0  0  0  0
   65.4279   32.5288   48.8273 H   0  0  0  0  0  0  0  0  0  0  0  0
   64.2803   32.0638   50.9953 H   0  0  0  0  0  0  0  0  0  0  0  0
   61.8929   32.7169   51.3135 H   0  0  0  0  0  0  0  0  0  0  0  0
   55.3677   30.0106   45.1139 H   0  0  0  0  0  0  0  0  0  0  0  0
   56.7165   30.0779   43.9295 H   0  0  0  0  0  0  0  0  0  0  0  0
   55.5903   28.6786   43.9295 H   0  0  0  0  0  0  0  0  0  0  0  0
   58.3648   29.6853   48.9611 H   0  0  0  0  0  0  0  0  0  0  0  0
  1  2  1  0
  2  3  1  0
  3  4  2  0
  4  5  1  0
  5  6  2  0
  6  7  1  0
  7  8  1  0
  8  9  1  0
  9 10  1  0
 10 11  1  0
 11 12  1  0
 12 13  1  0
 13 14  1  0
 14 15  1  0
 15 16  1  0
 16 17  1  0
 17 18  1  0
 18 19  1  0
 19 20  1  0
 20 21  2  0
 21 22  1  0
 22 23  2  0
 23 24  1  0
 24 25  2  0
 10 26  2  0
 26 27  1  0
 27 28  2  0
 28 29  1  0
 29 30  2  0
 29 31  1  0
 31 32  1  0
 32 33  2  0
 32 34  1  0
 34 35  1  0
  7 36  2  0
 36  3  1  0
 28  9  1  0
 17 12  1  0
 25 20  1  0
 34 27  1  0
  1 37  1  0
  1 38  1  0
  1 39  1  0
  4 40  1  0
  5 41  1  0
  6 42  1  0
  8 43  1  0
  8 44  1  0
 11 45  1  0
 11 46  1  0
 12 47  1  6
 13 48  1  0
 13 49  1  0
 14 50  1  0
 14 51  1  0
 15 52  1  0
 15 53  1  0
 16 54  1  0
 16 55  1  0
 17 56  1  1
 18 57  1  0
 18 58  1  0
 19 59  1  0
 19 60  1  0
 21 61  1  0
 22 62  1  0
 23 63  1  0
 24 64  1  0
 25 65  1  0
 35 66  1  0
 35 67  1  0
 35 68  1  0
 36 69  1  0
M  CHG  2  12   1  31  -1
M  END
>  <UniqueID>  (91) 
80

>  <SMILES>  (91) 
COc1cccc(Cn2c(C[N@H+]3CCCC[C@H]3CCc3ccccc3)nc3c2c(=O)[n-]c(=O)n3C)c1

>  <Energy>  (91) 
130.52110544166968

>  <Genealogy>  (91) 
COc1cccc(Cn2c(C[NH+]3CCCCC3CCc3ccccc3)nc3c2c(=O)[n-]c(=O)n3C)c1 (protonated)
COc1cccc(Cn2c(C[N@H+]3CCCC[C@H]3CCc3ccccc3)nc3c2c(=O)[n-]c(=O)n3C)c1 (chirality)
COc1cccc(Cn2c(C[N@H+]3CCCC[C@H]3CCc3ccccc3)nc3c2c(=O)[n-]c(=O)n3C)c1 (3D coordinates assigned)
COc1cccc(Cn2c(C[N@H+]3CCCC[C@H]3CCc3ccccc3)nc3c2c(=O)[n-]c(=O)n3C)c1 (nonaromatic ring conformer: 130.52110544166968 kcal/mol)

>  <smiles>  (91) 
COc1cccc(Cn2c(CN3CCCCC3CCc3ccccc3)nc3c2c(=O)[nH]c(=O)n3C)c1

>  <score_type>  (91) 
oracle

>  <origin>  (91) 
adg

>  <m_score__min__energy>  (91) 
-9.2300000000000004

>  <m_primary>  (91) 
energy

$$$$
91:0
     RDKit          3D

 46 48  0  0  0  0  0  0  0  0999 V2000
   64.7350   32.5430   49.3860 C   0  0  0  0  0  0  0  0  0  0  0  0
   63.4150   32.5400   48.7710 N   0  0  0  0  0  0  0  0  0  0  0  0
   63.0780   32.0430   47.5650 C   0  0  0  0  0  0  0  0  0  0  0  0
   61.7830   32.2720   47.2550 N   0  0  0  0  0  0  0  0  0  0  0  0
   61.3130   32.9510   48.3200 C   0  0  0  0  0  0  0  0  0  0  0  0
   59.6610   33.5140   48.4740 S   0  0  0  0  0  0  0  0  0  0  0  0
   59.6640   34.9390   48.9540 O   0  0  0  0  0  0  0  0  0  0  0  0
   58.9520   32.6610   49.4860 O   0  0  0  0  0  0  0  0  0  0  0  0
   58.8530   33.4020   46.9310 N   0  0  0  0  0  0  0  0  0  0  0  0
   59.3650   34.4430   46.0160 C   0  0  0  0  0  0  0  0  0  0  0  0
   58.3990   34.7120   44.8390 C   0  0  0  0  0  0  0  0  0  0  0  0
   57.4900   33.5750   44.5870 N   0  0  0  0  0  0  0  0  0  0  0  0
   58.2070   32.4020   44.0430 C   0  0  0  0  0  0  0  0  0  0  0  0
   58.2140   31.2870   45.0460 C   0  0  0  0  0  0  0  0  0  0  0  0
   57.2040   30.5380   45.1470 O   0  0  0  0  0  0  0  0  0  0  0  0
   59.3570   31.0820   45.8910 N   0  0  0  0  0  0  0  0  0  0  0  0
   59.4580   29.9770   46.7990 C   0  0  0  0  0  0  0  0  0  0  0  0
   58.9650   30.1210   48.1040 C   0  0  0  0  0  0  0  0  0  0  0  0
   59.0460   29.0610   49.0090 C   0  0  0  0  0  0  0  0  0  0  0  0
   59.6300   27.8530   48.6220 C   0  0  0  0  0  0  0  0  0  0  0  0
   60.1490   27.7060   47.3340 C   0  0  0  0  0  0  0  0  0  0  0  0
   60.0770   28.7630   46.4190 C   0  0  0  0  0  0  0  0  0  0  0  0
   60.8480   28.5710   44.8470 Cl  0  0  0  0  0  0  0  0  0  0  0  0
   56.6750   33.2480   45.7830 C   0  0  0  0  0  0  0  0  0  0  0  0
   57.4020   33.5290   47.1140 C   0  0  0  0  0  0  0  0  0  0  0  0
   62.3100   33.1290   49.2500 C   0  0  0  0  0  0  0  0  0  0  0  0
   64.6294   32.5428   50.4809 H   0  0  0  0  0  0  0  0  0  0  0  0
   65.2884   31.6461   49.0708 H   0  0  0  0  0  0  0  0  0  0  0  0
   65.2843   33.4424   49.0708 H   0  0  0  0  0  0  0  0  0  0  0  0
   63.7792   31.5100   46.9060 H   0  0  0  0  0  0  0  0  0  0  0  0
   59.5021   35.3761   46.5822 H   0  0  0  0  0  0  0  0  0  0  0  0
   60.3171   34.0857   45.5967 H   0  0  0  0  0  0  0  0  0  0  0  0
   57.7959   35.6017   45.0729 H   0  0  0  0  0  0  0  0  0  0  0  0
   59.0059   34.8638   43.9342 H   0  0  0  0  0  0  0  0  0  0  0  0
   57.7039   32.0622   43.1257 H   0  0  0  0  0  0  0  0  0  0  0  0
   59.2450   32.6887   43.8185 H   0  0  0  0  0  0  0  0  0  0  0  0
   60.0540   31.8530   45.9790 H   0  0  0  0  0  0  0  0  0  0  0  0
   58.5123   31.0737   48.4161 H   0  0  0  0  0  0  0  0  0  0  0  0
   58.6492   29.1776   50.0283 H   0  0  0  0  0  0  0  0  0  0  0  0
   59.6813   27.0155   49.3333 H   0  0  0  0  0  0  0  0  0  0  0  0
   60.6164   26.7555   47.0371 H   0  0  0  0  0  0  0  0  0  0  0  0
   55.7553   33.8507   45.7538 H   0  0  0  0  0  0  0  0  0  0  0  0
   56.4655   32.1687   45.7485 H   0  0  0  0  0  0  0  0  0  0  0  0
   57.1653   34.5494   47.4498 H   0  0  0  0  0  0  0  0  0  0  0  0
   57.0684   32.8008   47.8680 H   0  0  0  0  0  0  0  0  0  0  0  0
   62.2179   33.6575   50.2103 H   0  0  0  0  0  0  0  0  0  0  0  0
  1  2  1  0
  2  3  1  0
  3  4  2  0
  4  5  1  0
  5  6  1  0
  6  7  2  0
  6  8  2  0
  6  9  1  0
  9 10  1  0
 10 11  1  0
 11 12  1  0
 12 13  1  0
 13 14  1  0
 14 15  2  0
 14 16  1  0
 16 17  1  0
 17 18  2  0
 18 19  1  0
 19 20  2  0
 20 21  1  0
 21 22  2  0
 22 23  1  0
 12 24  1  0
 24 25  1  0
  5 26  2  0
 26  2  1  0
 25  9  1  0
 22 17  1  0
  1 27  1  0
  1 28  1  0
  1 29  1  0
  3 30  1  0
 10 31  1  0
 10 32  1  0
 11 33  1  0
 11 34  1  0
 13 35  1  0
 13 36  1  0
 16 37  1  0
 18 38  1  0
 19 39  1  0
 20 40  1  0
 21 41  1  0
 24 42  1  0
 24 43  1  0
 25 44  1  0
 25 45  1  0
 26 46  1  0
M  END
>  <UniqueID>  (92) 
81

>  <SMILES>  (92) 
Cn1cnc(S(=O)(=O)N2CCN(CC(=O)Nc3ccccc3Cl)CC2)c1

>  <Energy>  (92) 
89.65445878039816

>  <Genealogy>  (92) 
Cn1cnc(S(=O)(=O)N2CCN(CC(=O)Nc3ccccc3Cl)CC2)c1 (3D coordinates assigned)
Cn1cnc(S(=O)(=O)N2CCN(CC(=O)Nc3ccccc3Cl)CC2)c1 (nonaromatic ring conformer: 89.65445878039816 kcal/mol)

>  <smiles>  (92) 
Cn1cnc(S(=O)(=O)N2CCN(CC(=O)Nc3ccccc3Cl)CC2)c1

>  <score_type>  (92) 
oracle

>  <origin>  (92) 
adg

>  <m_score__min__energy>  (92) 
-8.4600000000000009

>  <m_primary>  (92) 
energy

$$$$
92:0
     RDKit          3D

 44 46  0  0  0  0  0  0  0  0999 V2000
   57.4350   24.7950   47.9710 C   0  0  0  0  0  0  0  0  0  0  0  0
   57.2800   24.1210   46.6340 C   0  0  0  0  0  0  0  0  0  0  0  0
   57.0070   22.7430   46.5930 C   0  0  0  0  0  0  0  0  0  0  0  0
   56.8190   22.0930   45.3720 C   0  0  0  0  0  0  0  0  0  0  0  0
   56.9020   22.8100   44.1760 C   0  0  0  0  0  0  0  0  0  0  0  0
   56.6520   21.9930   42.6430 Cl  0  0  0  0  0  0  0  0  0  0  0  0
   57.1930   24.1760   44.2010 C   0  0  0  0  0  0  0  0  0  0  0  0
   57.4120   24.8360   45.4190 C   0  0  0  0  0  0  0  0  0  0  0  0
   57.7230   26.2350   45.3980 N   0  0  0  0  0  0  0  0  0  0  0  0
   56.7220   27.2470   45.5900 C   0  0  0  0  0  0  0  0  0  0  0  0
   55.5350   26.9200   45.8660 O   0  0  0  0  0  0  0  0  0  0  0  0
   57.0870   28.6790   45.5190 C   0  0  0  0  0  0  0  0  0  0  0  0
   58.2850   29.0990   46.1150 C   0  0  0  0  0  0  0  0  0  0  0  0
   58.6600   30.4450   46.0870 C   0  0  0  0  0  0  0  0  0  0  0  0
   60.1840   30.9640   46.8080 S   0  0  0  0  0  0  0  0  0  0  0  0
   61.2900   30.0680   46.3240 O   0  0  0  0  0  0  0  0  0  0  0  0
   60.0970   30.8250   48.3030 O   0  0  0  0  0  0  0  0  0  0  0  0
   60.5650   32.6270   46.4090 N   0  0  0  0  0  0  0  0  0  0  0  0
   59.5490   33.5470   46.9340 C   0  0  0  0  0  0  0  0  0  0  0  0
   60.0700   34.1590   48.2260 C   0  0  0  0  0  0  0  0  0  0  0  0
   61.5350   33.7790   48.3040 C   0  0  0  0  0  0  0  0  0  0  0  0
   61.8370   33.0360   47.0120 C   0  0  0  0  0  0  0  0  0  0  0  0
   57.8130   31.3690   45.4710 C   0  0  0  0  0  0  0  0  0  0  0  0
   56.6570   30.9540   44.8910 N   0  0  0  0  0  0  0  0  0  0  0  0
   56.2700   29.6500   44.8860 C   0  0  0  0  0  0  0  0  0  0  0  0
   55.1750   29.3360   44.2650 N   0  0  0  0  0  0  0  0  0  0  0  0
   57.2663   24.0615   48.7732 H   0  0  0  0  0  0  0  0  0  0  0  0
   58.4513   25.2067   48.0584 H   0  0  0  0  0  0  0  0  0  0  0  0
   56.7007   25.6093   48.0584 H   0  0  0  0  0  0  0  0  0  0  0  0
   56.9409   22.1719   47.5308 H   0  0  0  0  0  0  0  0  0  0  0  0
   56.6051   21.0142   45.3516 H   0  0  0  0  0  0  0  0  0  0  0  0
   57.2509   24.7387   43.2576 H   0  0  0  0  0  0  0  0  0  0  0  0
   58.7290   26.5120   45.3740 H   0  0  0  0  0  0  0  0  0  0  0  0
   58.9355   28.3622   46.6090 H   0  0  0  0  0  0  0  0  0  0  0  0
   59.3541   34.3422   46.1994 H   0  0  0  0  0  0  0  0  0  0  0  0
   58.6127   33.0028   47.1266 H   0  0  0  0  0  0  0  0  0  0  0  0
   59.9592   35.2532   48.2031 H   0  0  0  0  0  0  0  0  0  0  0  0
   59.5109   33.7940   49.1002 H   0  0  0  0  0  0  0  0  0  0  0  0
   62.1611   34.6799   48.3836 H   0  0  0  0  0  0  0  0  0  0  0  0
   61.7471   33.1593   49.1877 H   0  0  0  0  0  0  0  0  0  0  0  0
   62.3808   33.6970   46.3211 H   0  0  0  0  0  0  0  0  0  0  0  0
   62.4599   32.1533   47.2188 H   0  0  0  0  0  0  0  0  0  0  0  0
   58.0827   32.4353   45.4555 H   0  0  0  0  0  0  0  0  0  0  0  0
   54.7340   28.3900   44.2830 H   0  0  0  0  0  0  0  0  0  0  0  0
  1  2  1  0
  2  3  2  0
  3  4  1  0
  4  5  2  0
  5  6  1  0
  5  7  1  0
  7  8  2  0
  8  9  1  0
  9 10  1  0
 10 11  2  0
 10 12  1  0
 12 13  2  0
 13 14  1  0
 14 15  1  0
 15 16  2  0
 15 17  2  0
 15 18  1  0
 18 19  1  0
 19 20  1  0
 20 21  1  0
 21 22  1  0
 14 23  2  0
 23 24  1  0
 24 25  1  0
 25 26  2  3
  8  2  1  0
 25 12  1  0
 22 18  1  0
  1 27  1  0
  1 28  1  0
  1 29  1  0
  3 30  1  0
  4 31  1  0
  7 32  1  0
  9 33  1  0
 13 34  1  0
 19 35  1  0
 19 36  1  0
 20 37  1  0
 20 38  1  0
 21 39  1  0
 21 40  1  0
 22 41  1  0
 22 42  1  0
 23 43  1  0
 26 44  1  0
M  CHG  1  24  -1
M  END
>  <UniqueID>  (93) 
82

>  <SMILES>  (93) 
Cc1ccc(Cl)cc1NC(=O)c1cc(S(=O)(=O)N2CCCC2)c[n-]c1=N

>  <Energy>  (93) 
58.37143435949128

>  <Genealogy>  (93) 
Cc1ccc(Cl)cc1NC(=O)c1cc(S(=O)(=O)N2CCCC2)c[n-]c1=N (protonated)
Cc1ccc(Cl)cc1NC(=O)c1cc(S(=O)(=O)N2CCCC2)c[n-]c1=N (3D coordinates assigned)
Cc1ccc(Cl)cc1NC(=O)c1cc(S(=O)(=O)N2CCCC2)c[n-]c1=N (nonaromatic ring conformer: 58.37143435949128 kcal/mol)

>  <smiles>  (93) 
Cc1ccc(Cl)cc1NC(=O)c1cc(S(=O)(=O)N2CCCC2)c[nH]c1=N

>  <score_type>  (93) 
oracle

>  <origin>  (93) 
adg

>  <m_score__min__energy>  (93) 
-10.130000000000001

>  <m_primary>  (93) 
energy

$$$$
93:0
     RDKit          3D

 43 45  0  0  0  0  0  0  0  0999 V2000
   58.9790   33.8900   47.8890 C   0  0  0  0  0  0  0  0  0  0  0  0
   60.4260   33.4870   47.9980 C   0  0  0  0  0  0  0  0  0  0  0  0
   61.2730   34.2180   48.8490 C   0  0  0  0  0  0  0  0  0  0  0  0
   62.6240   33.8860   48.9640 C   0  0  0  0  0  0  0  0  0  0  0  0
   63.1450   32.8170   48.2390 C   0  0  0  0  0  0  0  0  0  0  0  0
   62.3170   32.0700   47.3990 C   0  0  0  0  0  0  0  0  0  0  0  0
   60.9530   32.3880   47.2700 C   0  0  0  0  0  0  0  0  0  0  0  0
   60.1000   31.5520   46.3920 C   0  0  0  0  0  0  0  0  0  0  0  0
   60.2030   30.2960   46.4440 O   0  0  0  0  0  0  0  0  0  0  0  0
   59.1940   32.1660   45.4590 N   0  0  0  0  0  0  0  0  0  0  0  0
   58.2070   31.4400   44.7060 C   0  0  0  0  0  0  0  0  0  0  0  0
   57.9510   31.8070   43.3770 C   0  0  0  0  0  0  0  0  0  0  0  0
   56.9980   31.1180   42.6260 C   0  0  0  0  0  0  0  0  0  0  0  0
   56.2710   30.0740   43.2030 C   0  0  0  0  0  0  0  0  0  0  0  0
   56.4720   29.7280   44.5440 C   0  0  0  0  0  0  0  0  0  0  0  0
   55.7020   28.6490   45.0950 N   0  0  0  0  0  0  0  0  0  0  0  0
   56.2090   27.4290   45.6530 C   0  0  0  0  0  0  0  0  0  0  0  0
   57.4440   27.2770   45.8470 O   0  0  0  0  0  0  0  0  0  0  0  0
   55.3200   26.3610   45.9940 N   0  0  0  0  0  0  0  0  0  0  0  0
   55.4550   24.9860   45.6050 C   0  0  0  0  0  0  0  0  0  0  0  0
   54.4520   24.0790   45.9730 C   0  0  0  0  0  0  0  0  0  0  0  0
   54.5380   22.7370   45.5920 C   0  0  0  0  0  0  0  0  0  0  0  0
   55.6200   22.2940   44.8270 C   0  0  0  0  0  0  0  0  0  0  0  0
   56.6110   23.1960   44.4320 C   0  0  0  0  0  0  0  0  0  0  0  0
   56.5290   24.5390   44.8100 C   0  0  0  0  0  0  0  0  0  0  0  0
   57.4530   30.4060   45.2910 C   0  0  0  0  0  0  0  0  0  0  0  0
   58.5544   34.0083   48.8968 H   0  0  0  0  0  0  0  0  0  0  0  0
   58.9038   34.8433   47.3453 H   0  0  0  0  0  0  0  0  0  0  0  0
   58.4219   33.1128   47.3453 H   0  0  0  0  0  0  0  0  0  0  0  0
   60.8674   35.0595   49.4298 H   0  0  0  0  0  0  0  0  0  0  0  0
   63.2782   34.4697   49.6283 H   0  0  0  0  0  0  0  0  0  0  0  0
   64.2110   32.5608   48.3284 H   0  0  0  0  0  0  0  0  0  0  0  0
   62.7353   31.2248   46.8327 H   0  0  0  0  0  0  0  0  0  0  0  0
   59.2810   33.1900   45.2760 H   0  0  0  0  0  0  0  0  0  0  0  0
   58.5046   32.6427   42.9240 H   0  0  0  0  0  0  0  0  0  0  0  0
   56.8188   31.3975   41.5773 H   0  0  0  0  0  0  0  0  0  0  0  0
   55.5362   29.5206   42.5998 H   0  0  0  0  0  0  0  0  0  0  0  0
   53.5921   24.4253   46.5651 H   0  0  0  0  0  0  0  0  0  0  0  0
   53.7528   22.0286   45.8948 H   0  0  0  0  0  0  0  0  0  0  0  0
   55.6915   21.2356   44.5359 H   0  0  0  0  0  0  0  0  0  0  0  0
   57.4578   22.8484   43.8220 H   0  0  0  0  0  0  0  0  0  0  0  0
   57.3046   25.2486   44.4862 H   0  0  0  0  0  0  0  0  0  0  0  0
   57.6317   30.1257   46.3396 H   0  0  0  0  0  0  0  0  0  0  0  0
  1  2  1  0
  2  3  2  0
  3  4  1  0
  4  5  2  0
  5  6  1  0
  6  7  2  0
  7  8  1  0
  8  9  2  0
  8 10  1  0
 10 11  1  0
 11 12  2  0
 12 13  1  0
 13 14  2  0
 14 15  1  0
 15 16  1  0
 16 17  1  0
 17 18  2  0
 17 19  1  0
 19 20  1  0
 20 21  2  0
 21 22  1  0
 22 23  2  0
 23 24  1  0
 24 25  2  0
 15 26  2  0
  7  2  1  0
 26 11  1  0
 25 20  1  0
  1 27  1  0
  1 28  1  0
  1 29  1  0
  3 30  1  0
  4 31  1  0
  5 32  1  0
  6 33  1  0
 10 34  1  0
 12 35  1  0
 13 36  1  0
 14 37  1  0
 21 38  1  0
 22 39  1  0
 23 40  1  0
 24 41  1  0
 25 42  1  0
 26 43  1  0
M  CHG  2  16  -1  19  -1
M  END
>  <UniqueID>  (94) 
83

>  <SMILES>  (94) 
Cc1ccccc1C(=O)Nc1cccc([N-]C(=O)[N-]c2ccccc2)c1

>  <Energy>  (94) 
61.63266768817178

>  <Genealogy>  (94) 
Cc1ccccc1C(=O)Nc1cccc([N-]C(=O)[N-]c2ccccc2)c1 (protonated)
Cc1ccccc1C(=O)Nc1cccc([N-]C(=O)[N-]c2ccccc2)c1 (3D coordinates assigned)
Cc1ccccc1C(=O)Nc1cccc([N-]C(=O)[N-]c2ccccc2)c1 (optimized conformer: 61.63266768817178 kcal/mol)

>  <smiles>  (94) 
Cc1ccccc1C(=O)Nc1cccc(NC(=O)Nc2ccccc2)c1

>  <score_type>  (94) 
oracle

>  <origin>  (94) 
adg

>  <m_score__min__energy>  (94) 
-12.24

>  <m_primary>  (94) 
energy

$$$$
94:0
     RDKit          3D

 33 35  0  0  0  0  0  0  0  0999 V2000
   55.1800   28.6010   45.6230 H   0  0  0  0  0  0  0  0  0  0  0  0
   55.1420   29.3300   44.8770 N   0  0  0  0  0  0  0  0  0  0  0  0
   56.7280   29.4410   44.2010 S   0  0  0  0  0  0  0  0  0  0  0  0
   57.5640   28.2890   44.6840 O   0  0  0  0  0  0  0  0  0  0  0  0
   56.6420   29.3810   42.7010 O   0  0  0  0  0  0  0  0  0  0  0  0
   57.4680   30.9600   44.6950 C   0  0  0  0  0  0  0  0  0  0  0  0
   57.4620   32.0670   43.8210 C   0  0  0  0  0  0  0  0  0  0  0  0
   57.0324   31.9647   42.8135 H   0  0  0  0  0  0  0  0  0  0  0  0
   58.0000   33.2980   44.2270 C   0  0  0  0  0  0  0  0  0  0  0  0
   57.9741   34.1709   43.5581 H   0  0  0  0  0  0  0  0  0  0  0  0
   58.5680   33.3900   45.4970 C   0  0  0  0  0  0  0  0  0  0  0  0
   58.6220   32.2960   46.3440 C   0  0  0  0  0  0  0  0  0  0  0  0
   58.0280   31.0810   45.9810 C   0  0  0  0  0  0  0  0  0  0  0  0
   57.9995   30.2377   46.6867 H   0  0  0  0  0  0  0  0  0  0  0  0
   59.2140   32.7430   47.6110 C   0  0  0  0  0  0  0  0  0  0  0  0
   59.5390   32.0610   48.7200 C   0  0  0  0  0  0  0  0  0  0  0  0
   60.1968   31.1863   48.6095 H   0  0  0  0  0  0  0  0  0  0  0  0
   59.0760   32.4030   50.0720 C   0  0  0  0  0  0  0  0  0  0  0  0
   58.3070   31.5940   50.8800 C   0  0  0  0  0  0  0  0  0  0  0  0
   57.9320   30.2800   50.5870 O   0  0  0  0  0  0  0  0  0  0  0  0
   58.8300   29.3300   50.0270 C   0  0  0  0  0  0  0  0  0  0  0  0
   59.3421   28.7883   50.8359 H   0  0  0  0  0  0  0  0  0  0  0  0
   58.2686   28.6165   49.4060 H   0  0  0  0  0  0  0  0  0  0  0  0
   59.5740   29.8504   49.4060 H   0  0  0  0  0  0  0  0  0  0  0  0
   57.9830   32.3290   52.0070 C   0  0  0  0  0  0  0  0  0  0  0  0
   57.3937   31.9920   52.8725 H   0  0  0  0  0  0  0  0  0  0  0  0
   58.5530   33.5740   51.8200 C   0  0  0  0  0  0  0  0  0  0  0  0
   58.4867   34.4091   52.5329 H   0  0  0  0  0  0  0  0  0  0  0  0
   59.2020   33.6190   50.6390 N   0  0  0  0  0  0  0  0  0  0  0  0
   59.6820   34.4530   50.2340 H   0  0  0  0  0  0  0  0  0  0  0  0
   59.4220   34.1780   47.4070 C   0  0  0  0  0  0  0  0  0  0  0  0
   59.8930   34.9700   48.2660 O   0  0  0  0  0  0  0  0  0  0  0  0
   59.0510   34.5900   46.0940 N   0  0  0  0  0  0  0  0  0  0  0  0
  1  2  1  0
  2  3  1  0
  3  4  2  0
  3  5  2  0
  3  6  1  0
  6  7  2  0
  7  8  1  0
  7  9  1  0
  9 10  1  0
  9 11  2  0
 11 12  1  0
 12 13  2  0
 13 14  1  0
 12 15  1  0
 15 16  2  0
 16 17  1  0
 16 18  1  0
 18 19  2  0
 19 20  1  0
 20 21  1  0
 21 22  1  0
 21 23  1  0
 21 24  1  0
 19 25  1  0
 25 26  1  0
 25 27  2  0
 27 28  1  0
 27 29  1  0
 29 30  1  0
 15 31  1  0
 31 32  2  0
 31 33  1  0
 13  6  1  0
 29 18  1  0
 33 11  1  0
M  CHG  2   2  -1  33  -1
M  END
>  <UniqueID>  (95) 
84

>  <SMILES>  (95) 
COc1cc[nH]c1/C=C1/C(=O)[N-]c2ccc(S([NH-])(=O)=O)cc21

>  <Energy>  (95) 
95.0607482298062

>  <Genealogy>  (95) 
COc1cc[nH]c1C=C1C(=O)[N-]c2ccc(S([NH-])(=O)=O)cc21 (protonated)
COc1cc[nH]c1/C=C1/C(=O)[N-]c2ccc(S([NH-])(=O)=O)cc21 (cis-trans isomerization)
COc1cc[nH]c1/C=C1/C(=O)[N-]c2ccc(S([NH-])(=O)=O)cc21 (3D coordinates assigned)
COc1cc[nH]c1/C=C1/C(=O)[N-]c2ccc(S([NH-])(=O)=O)cc21 (nonaromatic ring conformer: 95.0607482298062 kcal/mol)

>  <smiles>  (95) 
COc1cc[nH]c1C=C1C(=O)Nc2ccc(S(N)(=O)=O)cc21

>  <score_type>  (95) 
oracle

>  <origin>  (95) 
adg

>  <m_score__min__energy>  (95) 
-10.949999999999999

>  <m_primary>  (95) 
energy

$$$$
95:0
     RDKit          3D

 41 43  0  0  0  0  0  0  0  0999 V2000
   55.7388   28.3580   44.2629 H   0  0  0  0  0  0  0  0  0  0  0  0
   56.4080   28.5770   45.1080 C   0  0  0  0  0  0  0  0  0  0  0  0
   56.6440   29.8280   45.3880 N   0  0  0  0  0  0  0  0  0  0  0  0
   57.1410   30.8380   44.4950 C   0  0  0  0  0  0  0  0  0  0  0  0
   56.9970   30.6400   43.1160 C   0  0  0  0  0  0  0  0  0  0  0  0
   56.4849   29.7407   42.7433 H   0  0  0  0  0  0  0  0  0  0  0  0
   57.5000   31.5780   42.2110 C   0  0  0  0  0  0  0  0  0  0  0  0
   57.3915   31.4108   41.1292 H   0  0  0  0  0  0  0  0  0  0  0  0
   58.1400   32.7270   42.6780 C   0  0  0  0  0  0  0  0  0  0  0  0
   58.5521   33.4549   41.9636 H   0  0  0  0  0  0  0  0  0  0  0  0
   58.2580   32.9540   44.0510 C   0  0  0  0  0  0  0  0  0  0  0  0
   58.7673   33.8589   44.4140 H   0  0  0  0  0  0  0  0  0  0  0  0
   57.7310   32.0350   44.9690 C   0  0  0  0  0  0  0  0  0  0  0  0
   57.8280   32.3230   46.3700 N   0  0  0  0  0  0  0  0  0  0  0  0
   57.0070   32.0860   46.9710 H   0  0  0  0  0  0  0  0  0  0  0  0
   59.0400   32.7530   47.0120 C   0  0  0  0  0  0  0  0  0  0  0  0
   58.9420   33.3560   48.5370 S   0  0  0  0  0  0  0  0  0  0  0  0
   60.3000   32.7170   46.3140 N   0  0  0  0  0  0  0  0  0  0  0  0
   60.3010   32.7100   45.2710 H   0  0  0  0  0  0  0  0  0  0  0  0
   61.5850   32.7280   46.9580 C   0  0  0  0  0  0  0  0  0  0  0  0
   61.9080   31.7120   47.8710 C   0  0  0  0  0  0  0  0  0  0  0  0
   61.1880   30.9041   48.0683 H   0  0  0  0  0  0  0  0  0  0  0  0
   63.1410   31.7220   48.5310 C   0  0  0  0  0  0  0  0  0  0  0  0
   63.3941   30.9146   49.2339 H   0  0  0  0  0  0  0  0  0  0  0  0
   64.0520   32.7560   48.2990 C   0  0  0  0  0  0  0  0  0  0  0  0
   65.0241   32.7589   48.8138 H   0  0  0  0  0  0  0  0  0  0  0  0
   63.7270   33.7870   47.4120 C   0  0  0  0  0  0  0  0  0  0  0  0
   64.4403   34.6056   47.2357 H   0  0  0  0  0  0  0  0  0  0  0  0
   62.4960   33.7780   46.7490 C   0  0  0  0  0  0  0  0  0  0  0  0
   62.2392   34.5965   46.0605 H   0  0  0  0  0  0  0  0  0  0  0  0
   56.9810   27.4290   45.8520 C   0  0  0  0  0  0  0  0  0  0  0  0
   58.3630   27.3370   46.1020 C   0  0  0  0  0  0  0  0  0  0  0  0
   59.0365   28.1310   45.7470 H   0  0  0  0  0  0  0  0  0  0  0  0
   58.8850   26.2440   46.7980 C   0  0  0  0  0  0  0  0  0  0  0  0
   59.9640   26.1887   47.0046 H   0  0  0  0  0  0  0  0  0  0  0  0
   58.0380   25.2210   47.2320 C   0  0  0  0  0  0  0  0  0  0  0  0
   58.4485   24.3662   47.7895 H   0  0  0  0  0  0  0  0  0  0  0  0
   56.6710   25.2840   46.9580 C   0  0  0  0  0  0  0  0  0  0  0  0
   56.0076   24.4720   47.2905 H   0  0  0  0  0  0  0  0  0  0  0  0
   56.1410   26.3760   46.2620 C   0  0  0  0  0  0  0  0  0  0  0  0
   54.7770   26.4120   45.9910 O   0  0  0  0  0  0  0  0  0  0  0  0
  1  2  1  0
  2  3  2  0
  3  4  1  0
  4  5  2  0
  5  6  1  0
  5  7  1  0
  7  8  1  0
  7  9  2  0
  9 10  1  0
  9 11  1  0
 11 12  1  0
 11 13  2  0
 13 14  1  0
 14 15  1  0
 14 16  1  0
 16 17  2  0
 16 18  1  0
 18 19  1  0
 18 20  1  0
 20 21  2  0
 21 22  1  0
 21 23  1  0
 23 24  1  0
 23 25  2  0
 25 26  1  0
 25 27  1  0
 27 28  1  0
 27 29  2  0
 29 30  1  0
  2 31  1  0
 31 32  2  0
 32 33  1  0
 32 34  1  0
 34 35  1  0
 34 36  2  0
 36 37  1  0
 36 38  1  0
 38 39  1  0
 38 40  2  0
 40 41  1  0
 13  4  1  0
 29 20  1  0
 40 31  1  0
M  CHG  1  41  -1
M  END
>  <UniqueID>  (96) 
85

>  <SMILES>  (96) 
[O-]c1ccccc1/C=N\c1ccccc1NC(=S)Nc1ccccc1

>  <Energy>  (96) 
66.50370804546992

>  <Genealogy>  (96) 
[O-]c1ccccc1C=Nc1ccccc1NC(=S)Nc1ccccc1 (protonated)
[O-]c1ccccc1/C=N\c1ccccc1NC(=S)Nc1ccccc1 (cis-trans isomerization)
[O-]c1ccccc1/C=N\c1ccccc1NC(=S)Nc1ccccc1 (3D coordinates assigned)
[O-]c1ccccc1/C=N\c1ccccc1NC(=S)Nc1ccccc1 (optimized conformer: 66.50370804546992 kcal/mol)

>  <smiles>  (96) 
Oc1ccccc1C=Nc1ccccc1NC(=S)Nc1ccccc1

>  <score_type>  (96) 
oracle

>  <origin>  (96) 
adg

>  <m_score__min__energy>  (96) 
-12.56

>  <m_primary>  (96) 
energy

$$$$
