0:0
     RDKit          3D

 35 37  0  0  0  0  0  0  0  0999 V2000
   56.3280   29.7380   43.1910 C   0  0  0  0  0  0  0  0  0  0  0  0
   56.2610   30.3330   44.4830 O   0  0  0  0  0  0  0  0  0  0  0  0
   57.2890   31.0930   45.0650 C   0  0  0  0  0  0  0  0  0  0  0  0
   57.4670   32.4570   44.7680 C   0  0  0  0  0  0  0  0  0  0  0  0
   58.5010   33.1850   45.3610 C   0  0  0  0  0  0  0  0  0  0  0  0
   58.6320   34.4760   45.0780 O   0  0  0  0  0  0  0  0  0  0  0  0
   59.5820   35.2360   45.6100 C   0  0  0  0  0  0  0  0  0  0  0  0
   59.6500   36.4540   45.3040 O   0  0  0  0  0  0  0  0  0  0  0  0
   60.5070   34.6890   46.5010 C   0  0  0  0  0  0  0  0  0  0  0  0
   60.4290   33.3290   46.8260 C   0  0  0  0  0  0  0  0  0  0  0  0
   61.4500   32.7600   47.7360 C   0  0  0  0  0  0  0  0  0  0  0  0
   62.8030   32.7530   47.3620 C   0  0  0  0  0  0  0  0  0  0  0  0
   63.7660   32.1990   48.2130 C   0  0  0  0  0  0  0  0  0  0  0  0
   63.3820   31.6400   49.4350 C   0  0  0  0  0  0  0  0  0  0  0  0
   62.0350   31.6310   49.8070 C   0  0  0  0  0  0  0  0  0  0  0  0
   61.0690   32.1830   48.9600 C   0  0  0  0  0  0  0  0  0  0  0  0
   59.3920   32.5520   46.2580 C   0  0  0  0  0  0  0  0  0  0  0  0
   59.1960   31.1930   46.5700 C   0  0  0  0  0  0  0  0  0  0  0  0
   58.1520   30.4610   45.9700 C   0  0  0  0  0  0  0  0  0  0  0  0
   57.9400   29.1020   46.2520 O   0  0  0  0  0  0  0  0  0  0  0  0
   58.6110   28.0250   45.6030 C   0  0  0  0  0  0  0  0  0  0  0  0
   56.4505   28.6497   43.2944 H   0  0  0  0  0  0  0  0  0  0  0  0
   55.4001   29.9518   42.6403 H   0  0  0  0  0  0  0  0  0  0  0  0
   57.1851   30.1528   42.6403 H   0  0  0  0  0  0  0  0  0  0  0  0
   56.7855   32.9545   44.0623 H   0  0  0  0  0  0  0  0  0  0  0  0
   61.2907   35.3210   46.9442 H   0  0  0  0  0  0  0  0  0  0  0  0
   63.1073   33.1843   46.3969 H   0  0  0  0  0  0  0  0  0  0  0  0
   64.8262   32.2035   47.9198 H   0  0  0  0  0  0  0  0  0  0  0  0
   64.1402   31.2070   50.1041 H   0  0  0  0  0  0  0  0  0  0  0  0
   61.7340   31.1887   50.7681 H   0  0  0  0  0  0  0  0  0  0  0  0
   60.0086   32.1657   49.2521 H   0  0  0  0  0  0  0  0  0  0  0  0
   59.8646   30.6977   47.2894 H   0  0  0  0  0  0  0  0  0  0  0  0
   59.0333   27.3471   46.3594 H   0  0  0  0  0  0  0  0  0  0  0  0
   57.8965   27.4734   44.9744 H   0  0  0  0  0  0  0  0  0  0  0  0
   59.4211   28.4233   44.9744 H   0  0  0  0  0  0  0  0  0  0  0  0
  1  2  1  0
  2  3  1  0
  3  4  2  0
  4  5  1  0
  5  6  1  0
  6  7  1  0
  7  8  2  0
  7  9  1  0
  9 10  2  0
 10 11  1  0
 11 12  2  0
 12 13  1  0
 13 14  2  0
 14 15  1  0
 15 16  2  0
 10 17  1  0
 17 18  1  0
 18 19  2  0
 19 20  1  0
 20 21  1  0
 19  3  1  0
 17  5  2  0
 16 11  1  0
  1 22  1  0
  1 23  1  0
  1 24  1  0
  4 25  1  0
  9 26  1  0
 12 27  1  0
 13 28  1  0
 14 29  1  0
 15 30  1  0
 16 31  1  0
 18 32  1  0
 21 33  1  0
 21 34  1  0
 21 35  1  0
M  END
>  <UniqueID>  (1) 
1

>  <SMILES>  (1) 
COc1cc2oc(=O)cc(-c3ccccc3)c2cc1OC

>  <Energy>  (1) 
49.09885931045173

>  <Genealogy>  (1) 
COc1cc2oc(=O)cc(-c3ccccc3)c2cc1OC (3D coordinates assigned)
COc1cc2oc(=O)cc(-c3ccccc3)c2cc1OC (optimized conformer: 49.09885931045173 kcal/mol)

>  <smiles>  (1) 
COc1cc2oc(=O)cc(-c3ccccc3)c2cc1OC

>  <score_type>  (1) 
oracle

>  <origin>  (1) 
adg

>  <m_score__min__energy>  (1) 
-6.54

>  <m_primary>  (1) 
energy

$$$$
1:0
     RDKit          3D

 40 43  0  0  0  0  0  0  0  0999 V2000
   58.3660   28.8480   46.6850 C   0  0  0  0  0  0  0  0  0  0  0  0
   57.8160   30.1150   46.2130 N   0  0  0  0  0  0  0  0  0  0  0  0
   57.4810   30.3810   44.8480 C   0  0  0  0  0  0  0  0  0  0  0  0
   56.8730   29.5050   43.9450 C   0  0  0  0  0  0  0  0  0  0  0  0
   56.6370   29.9550   42.6350 C   0  0  0  0  0  0  0  0  0  0  0  0
   57.0260   31.2530   42.2460 C   0  0  0  0  0  0  0  0  0  0  0  0
   57.6510   32.1130   43.1660 C   0  0  0  0  0  0  0  0  0  0  0  0
   57.8260   31.6620   44.4740 C   0  0  0  0  0  0  0  0  0  0  0  0
   58.6440   32.2400   45.5690 C   0  0  1  0  0  0  0  0  0  0  0  0
   58.5690   33.7200   45.9170 C   0  0  0  0  0  0  0  0  0  0  0  0
   59.3860   34.0000   47.1310 N   0  0  0  0  0  0  0  0  0  0  0  0
   60.7310   34.5570   46.8770 C   0  0  0  0  0  0  0  0  0  0  0  0
   61.8240   33.8240   47.6070 C   0  0  0  0  0  0  0  0  0  0  0  0
   62.2980   34.2120   48.8710 C   0  0  0  0  0  0  0  0  0  0  0  0
   63.3160   33.4030   49.3550 C   0  0  0  0  0  0  0  0  0  0  0  0
   63.6140   32.2050   48.2160 S   0  0  0  0  0  0  0  0  0  0  0  0
   62.4590   32.6940   47.1000 C   0  0  0  0  0  0  0  0  0  0  0  0
   59.2940   33.0380   48.2720 C   0  0  0  0  0  0  0  0  0  0  0  0
   59.1860   31.5430   47.8660 C   0  0  0  0  0  0  0  0  0  0  0  0
   58.1430   31.4360   46.7610 C   0  0  2  0  0  0  0  0  0  0  0  0
   58.3706   28.8374   47.7849 H   0  0  0  0  0  0  0  0  0  0  0  0
   57.7471   28.0183   46.3129 H   0  0  0  0  0  0  0  0  0  0  0  0
   59.3948   28.7335   46.3129 H   0  0  0  0  0  0  0  0  0  0  0  0
   56.5863   28.4884   44.2520 H   0  0  0  0  0  0  0  0  0  0  0  0
   56.1459   29.2906   41.9088 H   0  0  0  0  0  0  0  0  0  0  0  0
   56.8395   31.5947   41.2172 H   0  0  0  0  0  0  0  0  0  0  0  0
   57.9924   33.1137   42.8626 H   0  0  0  0  0  0  0  0  0  0  0  0
   59.6976   32.1780   45.2589 H   0  0  0  0  0  0  0  0  0  0  0  0
   58.9543   34.3124   45.0740 H   0  0  0  0  0  0  0  0  0  0  0  0
   57.5218   33.9915   46.1160 H   0  0  0  0  0  0  0  0  0  0  0  0
   60.9339   34.5020   45.7973 H   0  0  0  0  0  0  0  0  0  0  0  0
   60.7303   35.5936   47.2452 H   0  0  0  0  0  0  0  0  0  0  0  0
   61.9000   35.0752   49.4246 H   0  0  0  0  0  0  0  0  0  0  0  0
   63.8367   33.5248   50.3163 H   0  0  0  0  0  0  0  0  0  0  0  0
   62.2423   32.2071   46.1377 H   0  0  0  0  0  0  0  0  0  0  0  0
   60.1941   33.1584   48.8927 H   0  0  0  0  0  0  0  0  0  0  0  0
   58.3609   33.2797   48.8020 H   0  0  0  0  0  0  0  0  0  0  0  0
   60.1586   31.1835   47.4989 H   0  0  0  0  0  0  0  0  0  0  0  0
   58.8942   30.9295   48.7312 H   0  0  0  0  0  0  0  0  0  0  0  0
   57.2273   31.7859   47.2600 H   0  0  0  0  0  0  0  0  0  0  0  0
  1  2  1  0
  2  3  1  0
  3  4  2  0
  4  5  1  0
  5  6  2  0
  6  7  1  0
  7  8  2  0
  8  9  1  0
  9 10  1  0
 10 11  1  0
 11 12  1  0
 12 13  1  0
 13 14  1  0
 14 15  2  0
 15 16  1  0
 16 17  1  0
 11 18  1  0
 18 19  1  0
 19 20  1  0
 20  2  1  0
  8  3  1  0
 20  9  1  0
 17 13  2  0
  1 21  1  0
  1 22  1  0
  1 23  1  0
  4 24  1  0
  5 25  1  0
  6 26  1  0
  7 27  1  0
  9 28  1  6
 10 29  1  0
 10 30  1  0
 12 31  1  0
 12 32  1  0
 14 33  1  0
 15 34  1  0
 17 35  1  0
 18 36  1  0
 18 37  1  0
 19 38  1  0
 19 39  1  0
 20 40  1  1
M  END
>  <UniqueID>  (2) 
2

>  <SMILES>  (2) 
CN1c2ccccc2[C@H]2CN(Cc3ccsc3)CC[C@@H]21

>  <Energy>  (2) 
107.6196792304057

>  <Genealogy>  (2) 
CN1c2ccccc2[C@H]2CN(Cc3ccsc3)CC[C@@H]21 (chirality)
CN1c2ccccc2[C@H]2CN(Cc3ccsc3)CC[C@@H]21 (3D coordinates assigned)
CN1c2ccccc2[C@H]2CN(Cc3ccsc3)CC[C@@H]21 (nonaromatic ring conformer: 107.6196792304057 kcal/mol)

>  <smiles>  (2) 
CN1c2ccccc2C2CN(Cc3ccsc3)CCC21

>  <score_type>  (2) 
oracle

>  <origin>  (2) 
adg

>  <m_score__min__energy>  (2) 
-7.3300000000000001

>  <m_primary>  (2) 
energy

$$$$
2:0
     RDKit          3D

 58 62  0  0  0  0  0  0  0  0999 V2000
   55.1710   29.3320   44.8790 O   0  0  0  0  0  0  0  0  0  0  0  0
   56.4200   29.5060   44.8630 C   0  0  0  0  0  0  0  0  0  0  0  0
   57.2680   28.7710   43.8660 C   0  0  0  0  0  0  0  0  0  0  0  0
   57.7770   27.4170   44.4030 C   0  0  0  0  0  0  0  0  0  0  0  0
   59.1130   27.5150   45.0480 N   0  0  0  0  0  0  0  0  0  0  0  0
   59.9180   28.5680   44.3750 C   0  0  0  0  0  0  0  0  0  0  0  0
   61.1030   29.0070   45.2440 C   0  0  0  0  0  0  0  0  0  0  0  0
   60.6570   29.5650   46.5440 N   0  0  0  0  0  0  0  0  0  0  0  0
   60.9210   31.0120   46.7160 C   0  0  0  0  0  0  0  0  0  0  0  0
   61.9270   31.3300   47.8060 C   0  0  0  0  0  0  0  0  0  0  0  0
   63.0040   32.2180   47.5430 C   0  0  0  0  0  0  0  0  0  0  0  0
   63.9350   32.5330   48.5490 C   0  0  0  0  0  0  0  0  0  0  0  0
   63.7540   31.9630   49.8030 C   0  0  0  0  0  0  0  0  0  0  0  0
   62.7210   31.1250   50.0690 C   0  0  0  0  0  0  0  0  0  0  0  0
   61.7800   30.7860   49.1030 C   0  0  0  0  0  0  0  0  0  0  0  0
   62.7830   30.7220   51.3890 O   0  0  0  0  0  0  0  0  0  0  0  0
   63.9240   31.3470   51.9880 C   0  0  0  0  0  0  0  0  0  0  0  0
   64.5160   32.1270   50.9400 O   0  0  0  0  0  0  0  0  0  0  0  0
   59.2920   29.1620   46.9480 C   0  0  0  0  0  0  0  0  0  0  0  0
   59.0050   27.7150   46.5250 C   0  0  0  0  0  0  0  0  0  0  0  0
   57.0270   30.4680   45.7330 N   0  0  0  0  0  0  0  0  0  0  0  0
   57.6820   31.6560   45.2700 C   0  0  0  0  0  0  0  0  0  0  0  0
   57.7510   31.8740   43.8890 C   0  0  0  0  0  0  0  0  0  0  0  0
   58.3350   33.0330   43.3800 C   0  0  0  0  0  0  0  0  0  0  0  0
   58.8720   33.9880   44.2440 C   0  0  0  0  0  0  0  0  0  0  0  0
   58.8510   33.7760   45.6300 C   0  0  0  0  0  0  0  0  0  0  0  0
   59.4210   34.7230   46.4940 C   0  0  0  0  0  0  0  0  0  0  0  0
   59.4310   34.4980   47.8720 C   0  0  0  0  0  0  0  0  0  0  0  0
   58.8800   33.3280   48.3970 C   0  0  0  0  0  0  0  0  0  0  0  0
   58.3030   32.3800   47.5490 C   0  0  0  0  0  0  0  0  0  0  0  0
   58.2630   32.5950   46.1580 C   0  0  0  0  0  0  0  0  0  0  0  0
   56.6696   28.5886   42.9612 H   0  0  0  0  0  0  0  0  0  0  0  0
   58.1474   29.3961   43.6519 H   0  0  0  0  0  0  0  0  0  0  0  0
   57.0565   27.0401   45.1439 H   0  0  0  0  0  0  0  0  0  0  0  0
   57.8746   26.7371   43.5438 H   0  0  0  0  0  0  0  0  0  0  0  0
   59.6210   26.6140   44.8920 H   0  0  0  0  0  0  0  0  0  0  0  0
   60.2999   28.1724   43.4223 H   0  0  0  0  0  0  0  0  0  0  0  0
   59.2717   29.4415   44.2038 H   0  0  0  0  0  0  0  0  0  0  0  0
   61.7477   28.1360   45.4330 H   0  0  0  0  0  0  0  0  0  0  0  0
   61.6495   29.7942   44.7039 H   0  0  0  0  0  0  0  0  0  0  0  0
   61.3046   31.4092   45.7646 H   0  0  0  0  0  0  0  0  0  0  0  0
   59.9696   31.4758   47.0156 H   0  0  0  0  0  0  0  0  0  0  0  0
   63.1109   32.6636   46.5430 H   0  0  0  0  0  0  0  0  0  0  0  0
   64.7795   33.2090   48.3493 H   0  0  0  0  0  0  0  0  0  0  0  0
   60.9435   30.1126   49.3414 H   0  0  0  0  0  0  0  0  0  0  0  0
   63.6163   31.9930   52.8235 H   0  0  0  0  0  0  0  0  0  0  0  0
   64.6282   30.6098   52.4012 H   0  0  0  0  0  0  0  0  0  0  0  0
   59.2003   29.2434   48.0412 H   0  0  0  0  0  0  0  0  0  0  0  0
   58.5670   29.8250   46.4533 H   0  0  0  0  0  0  0  0  0  0  0  0
   59.7276   27.0524   47.0238 H   0  0  0  0  0  0  0  0  0  0  0  0
   57.9706   27.4816   46.8177 H   0  0  0  0  0  0  0  0  0  0  0  0
   57.3401   31.1230   43.1982 H   0  0  0  0  0  0  0  0  0  0  0  0
   58.3726   33.1953   42.2927 H   0  0  0  0  0  0  0  0  0  0  0  0
   59.3131   34.9098   43.8368 H   0  0  0  0  0  0  0  0  0  0  0  0
   59.8609   35.6446   46.0851 H   0  0  0  0  0  0  0  0  0  0  0  0
   59.8747   35.2454   48.5462 H   0  0  0  0  0  0  0  0  0  0  0  0
   58.9003   33.1519   49.4826 H   0  0  0  0  0  0  0  0  0  0  0  0
   57.8764   31.4581   47.9711 H   0  0  0  0  0  0  0  0  0  0  0  0
  1  2  2  0
  2  3  1  0
  3  4  1  0
  4  5  1  0
  5  6  1  0
  6  7  1  0
  7  8  1  0
  8  9  1  0
  9 10  1  0
 10 11  2  0
 11 12  1  0
 12 13  2  0
 13 14  1  0
 14 15  2  0
 14 16  1  0
 16 17  1  0
 17 18  1  0
  8 19  1  0
 19 20  1  0
  2 21  1  0
 21 22  1  0
 22 23  2  0
 23 24  1  0
 24 25  2  0
 25 26  1  0
 26 27  2  0
 27 28  1  0
 28 29  2  0
 29 30  1  0
 30 31  2  0
 20  5  1  0
 31 22  1  0
 15 10  1  0
 31 26  1  0
 18 13  1  0
  3 32  1  0
  3 33  1  0
  4 34  1  0
  4 35  1  0
  5 36  1  0
  6 37  1  0
  6 38  1  0
  7 39  1  0
  7 40  1  0
  9 41  1  0
  9 42  1  0
 11 43  1  0
 12 44  1  0
 15 45  1  0
 17 46  1  0
 17 47  1  0
 19 48  1  0
 19 49  1  0
 20 50  1  0
 20 51  1  0
 23 52  1  0
 24 53  1  0
 25 54  1  0
 27 55  1  0
 28 56  1  0
 29 57  1  0
 30 58  1  0
M  CHG  2   5   1  21  -1
M  END
>  <UniqueID>  (3) 
3

>  <SMILES>  (3) 
O=C(CC[NH+]1CCN(Cc2ccc3c(c2)OCO3)CC1)[N-]c1cccc2ccccc12

>  <Energy>  (3) 
116.2837517041673

>  <Genealogy>  (3) 
O=C(CC[NH+]1CCN(Cc2ccc3c(c2)OCO3)CC1)[N-]c1cccc2ccccc12 (protonated)
O=C(CC[NH+]1CCN(Cc2ccc3c(c2)OCO3)CC1)[N-]c1cccc2ccccc12 (3D coordinates assigned)
O=C(CC[NH+]1CCN(Cc2ccc3c(c2)OCO3)CC1)[N-]c1cccc2ccccc12 (nonaromatic ring conformer: 116.2837517041673 kcal/mol)

>  <smiles>  (3) 
O=C(CCN1CCN(Cc2ccc3c(c2)OCO3)CC1)Nc1cccc2ccccc12

>  <score_type>  (3) 
oracle

>  <origin>  (3) 
adg

>  <m_score__min__energy>  (3) 
-9.6300000000000008

>  <m_primary>  (3) 
energy

$$$$
3:0
     RDKit          3D

 34 36  0  0  0  0  0  0  0  0999 V2000
   57.3550   30.8680   42.6080 O   0  0  0  0  0  0  0  0  0  0  0  0
   57.3480   30.8600   44.1110 S   0  0  0  0  0  0  0  0  0  0  0  0
   55.9640   31.2280   44.5670 O   0  0  0  0  0  0  0  0  0  0  0  0
   57.7140   29.2230   44.6600 C   0  0  0  0  0  0  0  0  0  0  0  0
   59.0160   28.7110   44.5400 C   0  0  0  0  0  0  0  0  0  0  0  0
   59.3050   27.4150   44.9800 C   0  0  0  0  0  0  0  0  0  0  0  0
   58.3010   26.6300   45.5520 C   0  0  0  0  0  0  0  0  0  0  0  0
   57.0070   27.1400   45.6890 C   0  0  0  0  0  0  0  0  0  0  0  0
   56.0350   26.3800   46.2540 F   0  0  0  0  0  0  0  0  0  0  0  0
   56.7150   28.4350   45.2500 C   0  0  0  0  0  0  0  0  0  0  0  0
   58.4900   32.1290   44.6930 C   0  0  2  0  0  0  0  0  0  0  0  0
   59.1310   31.7950   46.0690 C   0  0  0  0  0  0  0  0  0  0  0  0
   59.1620   33.0680   46.9450 C   0  0  1  0  0  0  0  0  0  0  0  0
   59.8700   34.2100   46.1670 C   0  0  0  0  0  0  0  0  0  0  0  0
   59.0790   34.5440   44.8730 C   0  0  0  0  0  0  0  0  0  0  0  0
   57.8920   33.5650   44.7210 C   0  0  2  0  0  0  0  0  0  0  0  0
   57.0150   33.7600   45.9860 C   0  0  0  0  0  0  0  0  0  0  0  0
   57.7670   33.4580   47.2300 N   0  0  0  0  0  0  0  0  0  0  0  0
   59.8107   29.3306   44.0989 H   0  0  0  0  0  0  0  0  0  0  0  0
   60.3238   27.0136   44.8755 H   0  0  0  0  0  0  0  0  0  0  0  0
   58.5290   25.6099   45.8948 H   0  0  0  0  0  0  0  0  0  0  0  0
   55.6980   28.8373   45.3678 H   0  0  0  0  0  0  0  0  0  0  0  0
   59.2837   32.1230   43.9314 H   0  0  0  0  0  0  0  0  0  0  0  0
   58.5362   31.0182   46.5718 H   0  0  0  0  0  0  0  0  0  0  0  0
   60.1572   31.4295   45.9166 H   0  0  0  0  0  0  0  0  0  0  0  0
   59.7070   32.8795   47.8817 H   0  0  0  0  0  0  0  0  0  0  0  0
   59.9220   35.1059   46.8032 H   0  0  0  0  0  0  0  0  0  0  0  0
   60.8850   33.8850   45.8949 H   0  0  0  0  0  0  0  0  0  0  0  0
   58.6980   35.5742   44.9329 H   0  0  0  0  0  0  0  0  0  0  0  0
   59.7453   34.4467   44.0032 H   0  0  0  0  0  0  0  0  0  0  0  0
   57.2961   33.7317   43.8116 H   0  0  0  0  0  0  0  0  0  0  0  0
   56.6703   34.8039   46.0228 H   0  0  0  0  0  0  0  0  0  0  0  0
   56.1647   33.0649   45.9231 H   0  0  0  0  0  0  0  0  0  0  0  0
   57.7750   34.3070   47.8420 H   0  0  0  0  0  0  0  0  0  0  0  0
  1  2  2  0
  2  3  2  0
  2  4  1  0
  4  5  2  0
  5  6  1  0
  6  7  2  0
  7  8  1  0
  8  9  1  0
  8 10  2  0
  2 11  1  0
 11 12  1  0
 12 13  1  0
 13 14  1  0
 14 15  1  0
 15 16  1  0
 16 17  1  0
 17 18  1  0
 10  4  1  0
 16 11  1  0
 18 13  1  0
  5 19  1  0
  6 20  1  0
  7 21  1  0
 10 22  1  0
 11 23  1  6
 12 24  1  0
 12 25  1  0
 13 26  1  1
 14 27  1  0
 14 28  1  0
 15 29  1  0
 15 30  1  0
 16 31  1  6
 17 32  1  0
 17 33  1  0
 18 34  1  0
M  END
>  <UniqueID>  (4) 
4

>  <SMILES>  (4) 
O=S(=O)(c1cccc(F)c1)[C@@H]1C[C@H]2CCC1CN2

>  <Energy>  (4) 
47.75479014144225

>  <Genealogy>  (4) 
O=S(=O)(c1cccc(F)c1)[C@@H]1C[C@H]2CCC1CN2 (chirality)
O=S(=O)(c1cccc(F)c1)[C@@H]1C[C@H]2CCC1CN2 (3D coordinates assigned)
O=S(=O)(c1cccc(F)c1)[C@@H]1C[C@H]2CCC1CN2 (nonaromatic ring conformer: 47.75479014144225 kcal/mol)

>  <smiles>  (4) 
O=S(=O)(c1cccc(F)c1)C1CC2CCC1CN2

>  <score_type>  (4) 
oracle

>  <origin>  (4) 
adg

>  <m_score__min__energy>  (4) 
-7.5899999999999999

>  <m_primary>  (4) 
energy

$$$$
4:0
     RDKit          3D

 36 39  0  0  0  0  0  0  0  0999 V2000
   57.3430   28.6480   43.9010 C   0  0  0  0  0  0  0  0  0  0  0  0
   56.4580   29.7440   43.8540 C   0  0  0  0  0  0  0  0  0  0  0  0
   56.7870   30.9510   44.4890 C   0  0  0  0  0  0  0  0  0  0  0  0
   58.0040   31.0270   45.1610 C   0  0  0  0  0  0  0  0  0  0  0  0
   58.6640   32.3270   45.9960 S   0  0  0  0  0  0  0  0  0  0  0  0
   60.0620   31.4550   46.4040 C   0  0  0  0  0  0  0  0  0  0  0  0
   61.1620   31.9860   47.1730 N   0  0  0  0  0  0  0  0  0  0  0  0
   61.9120   31.0970   48.0750 C   0  0  0  0  0  0  0  0  0  0  0  0
   62.1670   31.7380   49.4550 C   0  0  0  0  0  0  0  0  0  0  0  0
   62.7310   33.1080   49.4180 N   0  0  0  0  0  0  0  0  0  0  0  0
   61.6980   34.1640   49.4240 C   0  0  0  0  0  0  0  0  0  0  0  0
   60.9340   34.2630   48.0900 C   0  0  0  0  0  0  0  0  0  0  0  0
   61.5600   33.3940   46.9890 C   0  0  0  0  0  0  0  0  0  0  0  0
   63.0920   33.5570   46.9680 C   0  0  0  0  0  0  0  0  0  0  0  0
   63.7340   33.3280   48.3560 C   0  0  0  0  0  0  0  0  0  0  0  0
   60.0300   30.1930   45.9060 N   0  0  0  0  0  0  0  0  0  0  0  0
   58.8840   29.9560   45.2160 C   0  0  0  0  0  0  0  0  0  0  0  0
   58.5670   28.7500   44.5850 C   0  0  0  0  0  0  0  0  0  0  0  0
   57.0742   27.7067   43.3992 H   0  0  0  0  0  0  0  0  0  0  0  0
   55.5030   29.6524   43.3159 H   0  0  0  0  0  0  0  0  0  0  0  0
   56.1034   31.8122   44.4569 H   0  0  0  0  0  0  0  0  0  0  0  0
   61.3363   30.1705   48.2169 H   0  0  0  0  0  0  0  0  0  0  0  0
   62.8898   30.8973   47.6123 H   0  0  0  0  0  0  0  0  0  0  0  0
   61.2090   31.7785   49.9941 H   0  0  0  0  0  0  0  0  0  0  0  0
   62.9222   31.1094   49.9496 H   0  0  0  0  0  0  0  0  0  0  0  0
   60.9773   33.9454   50.2258 H   0  0  0  0  0  0  0  0  0  0  0  0
   62.2092   35.1248   49.5837 H   0  0  0  0  0  0  0  0  0  0  0  0
   59.8968   33.9344   48.2520 H   0  0  0  0  0  0  0  0  0  0  0  0
   60.9784   35.3101   47.7558 H   0  0  0  0  0  0  0  0  0  0  0  0
   61.1855   33.7288   46.0104 H   0  0  0  0  0  0  0  0  0  0  0  0
   63.5140   32.8284   46.2602 H   0  0  0  0  0  0  0  0  0  0  0  0
   63.3126   34.5914   46.6657 H   0  0  0  0  0  0  0  0  0  0  0  0
   64.3873   32.4447   48.3003 H   0  0  0  0  0  0  0  0  0  0  0  0
   64.2989   34.2356   48.6150 H   0  0  0  0  0  0  0  0  0  0  0  0
   60.7980   29.4930   46.0100 H   0  0  0  0  0  0  0  0  0  0  0  0
   59.2613   27.8976   44.6228 H   0  0  0  0  0  0  0  0  0  0  0  0
  1  2  2  0
  2  3  1  0
  3  4  2  0
  4  5  1  0
  5  6  1  0
  6  7  1  0
  7  8  1  0
  8  9  1  0
  9 10  1  0
 10 11  1  0
 11 12  1  0
 12 13  1  0
 13 14  1  0
 14 15  1  0
  6 16  2  0
 16 17  1  0
 17 18  2  0
 18  1  1  0
 17  4  1  0
 13  7  1  0
 15 10  1  0
  1 19  1  0
  2 20  1  0
  3 21  1  0
  8 22  1  0
  8 23  1  0
  9 24  1  0
  9 25  1  0
 11 26  1  0
 11 27  1  0
 12 28  1  0
 12 29  1  0
 13 30  1  0
 14 31  1  0
 14 32  1  0
 15 33  1  0
 15 34  1  0
 16 35  1  0
 18 36  1  0
M  CHG  1  16   1
M  END
>  <UniqueID>  (5) 
5

>  <SMILES>  (5) 
c1ccc2sc(N3CCN4CCC3CC4)[nH+]c2c1

>  <Energy>  (5) 
90.84221890712898

>  <Genealogy>  (5) 
c1ccc2sc(N3CCN4CCC3CC4)[nH+]c2c1 (protonated)
c1ccc2sc(N3CCN4CCC3CC4)[nH+]c2c1 (3D coordinates assigned)
c1ccc2sc(N3CCN4CCC3CC4)[nH+]c2c1 (nonaromatic ring conformer: 90.84221890712898 kcal/mol)

>  <smiles>  (5) 
c1ccc2sc(N3CCN4CCC3CC4)nc2c1

>  <score_type>  (5) 
oracle

>  <origin>  (5) 
adg

>  <m_score__min__energy>  (5) 
-4.1100000000000003

>  <m_primary>  (5) 
energy

$$$$
5:0
     RDKit          3D

 32 33  0  0  1  0  0  0  0  0999 V2000
   56.4320   29.0200   44.5240 O   0  0  0  0  0  0  0  0  0  0  0  0
   57.4530   29.0840   45.2700 C   0  0  0  0  0  0  0  0  0  0  0  0
   58.3680   30.2470   45.0690 C   0  0  0  0  0  0  0  0  0  0  0  0
   58.4280   30.6760   43.7140 N   0  0  0  0  0  0  0  0  0  0  0  0
   57.8510   31.9830   43.5490 C   0  0  0  0  0  0  0  0  0  0  0  0
   57.2770   32.4720   44.8290 C   0  0  0  0  0  0  0  0  0  0  0  0
   58.1900   33.4060   45.5500 C   0  0  0  0  0  0  0  0  0  0  0  0
   58.7580   34.4980   44.9560 C   0  0  0  0  0  0  0  0  0  0  0  0
   59.6020   35.3290   45.6990 C   0  0  0  0  0  0  0  0  0  0  0  0
   59.8720   35.0660   47.0310 C   0  0  0  0  0  0  0  0  0  0  0  0
   59.2890   33.9610   47.6100 C   0  0  0  0  0  0  0  0  0  0  0  0
   58.4610   33.1470   46.8770 C   0  0  0  0  0  0  0  0  0  0  0  0
   57.8940   32.0640   47.4740 F   0  0  0  0  0  0  0  0  0  0  0  0
   57.6860   28.0780   46.2430 N   0  0  0  0  0  0  0  0  0  0  0  0
   56.9850   27.0410   46.2710 C   0  0  0  0  0  0  0  0  0  0  0  0
   55.7540   26.7510   45.8840 N   0  0  0  0  0  0  0  0  0  0  0  0
   55.3190   25.5610   46.0580 N   0  0  0  0  0  0  0  0  0  0  0  0
   55.9460   24.6030   46.5700 C   0  0  0  0  0  0  0  0  0  0  0  0
   57.5850   25.4880   46.9430 S   0  0  0  0  0  0  0  0  0  0  0  0
   58.0122   31.0845   45.6870 H   0  0  0  0  0  0  0  0  0  0  0  0
   59.3793   29.9255   45.3587 H   0  0  0  0  0  0  0  0  0  0  0  0
   57.9060   29.9950   43.0820 H   0  0  0  0  0  0  0  0  0  0  0  0
   58.6313   32.6819   43.2134 H   0  0  0  0  0  0  0  0  0  0  0  0
   57.0455   31.9210   42.8024 H   0  0  0  0  0  0  0  0  0  0  0  0
   56.3345   32.9970   44.6142 H   0  0  0  0  0  0  0  0  0  0  0  0
   57.1171   31.5976   45.4769 H   0  0  0  0  0  0  0  0  0  0  0  0
   58.5522   34.7220   43.8989 H   0  0  0  0  0  0  0  0  0  0  0  0
   60.0589   36.2060   45.2173 H   0  0  0  0  0  0  0  0  0  0  0  0
   60.5355   35.7232   47.6123 H   0  0  0  0  0  0  0  0  0  0  0  0
   59.4879   33.7289   48.6667 H   0  0  0  0  0  0  0  0  0  0  0  0
   55.1430   27.5170   45.4290 H   0  0  0  0  0  0  0  0  0  0  0  0
   55.6388   23.5621   46.7493 H   0  0  0  0  0  0  0  0  0  0  0  0
  1  2  2  0
  2  3  1  0
  3  4  1  0
  4  5  1  0
  5  6  1  0
  6  7  1  0
  7  8  2  0
  8  9  1  0
  9 10  2  0
 10 11  1  0
 11 12  2  0
 12 13  1  0
  2 14  1  0
 14 15  2  0
 15 16  1  0
 16 17  1  0
 17 18  2  0
 18 19  1  0
 12  7  1  0
 19 15  1  0
  3 20  1  0
  3 21  1  0
  4 22  1  0
  5 23  1  0
  5 24  1  0
  6 25  1  0
  6 26  1  0
  8 27  1  0
  9 28  1  0
 10 29  1  0
 11 30  1  0
 16 31  1  0
 18 32  1  0
M  END
>  <smiles>  (6) 
O=C(CNCCc1ccccc1F)N=c1[nH]ncs1

>  <score_type>  (6) 
oracle

>  <origin>  (6) 
adg

>  <m_score__min__energy>  (6) 
-7.5099999999999998

>  <m_primary>  (6) 
energy

$$$$
6:0
     RDKit          3D

 41 43  0  0  0  0  0  0  0  0999 V2000
   55.1380   29.7160   43.5730 C   0  0  0  0  0  0  0  0  0  0  0  0
   55.6480   29.2230   44.8080 O   0  0  0  0  0  0  0  0  0  0  0  0
   56.9700   29.3980   45.2450 C   0  0  0  0  0  0  0  0  0  0  0  0
   57.6520   30.5550   44.8530 C   0  0  0  0  0  0  0  0  0  0  0  0
   58.9710   30.7740   45.2620 C   0  0  0  0  0  0  0  0  0  0  0  0
   59.6360   29.8230   46.0540 C   0  0  0  0  0  0  0  0  0  0  0  0
   61.0190   30.0450   46.5270 C   0  0  0  0  0  0  0  0  0  0  0  0
   61.3550   30.6410   47.6810 C   0  0  0  0  0  0  0  0  0  0  0  0
   62.1610   31.8760   47.7990 C   0  0  0  0  0  0  0  0  0  0  0  0
   63.5290   31.9800   47.6050 C   0  0  0  0  0  0  0  0  0  0  0  0
   63.8720   33.2830   47.9060 C   0  0  0  0  0  0  0  0  0  0  0  0
   62.7090   33.9220   48.2860 C   0  0  0  0  0  0  0  0  0  0  0  0
   61.6780   33.0600   48.2280 N   0  0  0  0  0  0  0  0  0  0  0  0
   60.0330   33.4310   48.6400 S   0  0  0  0  0  0  0  0  0  0  0  0
   60.0170   34.6430   49.5300 O   0  0  0  0  0  0  0  0  0  0  0  0
   59.4200   32.2750   49.3780 O   0  0  0  0  0  0  0  0  0  0  0  0
   59.1090   33.7350   47.1740 C   0  0  0  0  0  0  0  0  0  0  0  0
   59.7110   34.3630   46.0740 C   0  0  0  0  0  0  0  0  0  0  0  0
   58.9730   34.5970   44.9090 C   0  0  0  0  0  0  0  0  0  0  0  0
   57.6330   34.2070   44.8390 C   0  0  0  0  0  0  0  0  0  0  0  0
   57.0270   33.5860   45.9350 C   0  0  0  0  0  0  0  0  0  0  0  0
   57.7610   33.3510   47.1010 C   0  0  0  0  0  0  0  0  0  0  0  0
   58.9450   28.6780   46.4720 C   0  0  0  0  0  0  0  0  0  0  0  0
   57.6250   28.4590   46.0650 C   0  0  0  0  0  0  0  0  0  0  0  0
   54.3601   30.4680   43.7716 H   0  0  0  0  0  0  0  0  0  0  0  0
   55.9542   30.1762   42.9968 H   0  0  0  0  0  0  0  0  0  0  0  0
   54.7058   28.8846   42.9968 H   0  0  0  0  0  0  0  0  0  0  0  0
   57.1468   31.2979   44.2183 H   0  0  0  0  0  0  0  0  0  0  0  0
   59.4908   31.6959   44.9621 H   0  0  0  0  0  0  0  0  0  0  0  0
   61.8375   29.6936   45.8815 H   0  0  0  0  0  0  0  0  0  0  0  0
   61.0034   30.1746   48.6131 H   0  0  0  0  0  0  0  0  0  0  0  0
   64.2089   31.1805   47.2755 H   0  0  0  0  0  0  0  0  0  0  0  0
   64.8774   33.7261   47.8532 H   0  0  0  0  0  0  0  0  0  0  0  0
   62.6363   34.9766   48.5902 H   0  0  0  0  0  0  0  0  0  0  0  0
   60.7653   34.6721   46.1274 H   0  0  0  0  0  0  0  0  0  0  0  0
   59.4480   35.0885   44.0471 H   0  0  0  0  0  0  0  0  0  0  0  0
   57.0548   34.3887   43.9211 H   0  0  0  0  0  0  0  0  0  0  0  0
   55.9713   33.2819   45.8797 H   0  0  0  0  0  0  0  0  0  0  0  0
   57.2813   32.8642   47.9630 H   0  0  0  0  0  0  0  0  0  0  0  0
   59.4440   27.9465   47.1246 H   0  0  0  0  0  0  0  0  0  0  0  0
   57.0963   27.5496   46.3867 H   0  0  0  0  0  0  0  0  0  0  0  0
  1  2  1  0
  2  3  1  0
  3  4  2  0
  4  5  1  0
  5  6  2  0
  6  7  1  0
  7  8  2  3
  8  9  1  0
  9 10  2  0
 10 11  1  0
 11 12  2  0
 12 13  1  0
 13 14  1  0
 14 15  2  0
 14 16  2  0
 14 17  1  0
 17 18  2  0
 18 19  1  0
 19 20  2  0
 20 21  1  0
 21 22  2  0
  6 23  1  0
 23 24  2  0
 24  3  1  0
 13  9  1  0
 22 17  1  0
  1 25  1  0
  1 26  1  0
  1 27  1  0
  4 28  1  0
  5 29  1  0
  7 30  1  0
  8 31  1  0
 10 32  1  0
 11 33  1  0
 12 34  1  0
 18 35  1  0
 19 36  1  0
 20 37  1  0
 21 38  1  0
 22 39  1  0
 23 40  1  0
 24 41  1  0
M  END
>  <UniqueID>  (7) 
6

>  <SMILES>  (7) 
COc1ccc(C=Cc2cccn2S(=O)(=O)c2ccccc2)cc1

>  <Energy>  (7) 
78.43210692504792

>  <Genealogy>  (7) 
COc1ccc(C=Cc2cccn2S(=O)(=O)c2ccccc2)cc1 (3D coordinates assigned)
COc1ccc(C=Cc2cccn2S(=O)(=O)c2ccccc2)cc1 (optimized conformer: 78.43210692504792 kcal/mol)

>  <smiles>  (7) 
COc1ccc(C=Cc2cccn2S(=O)(=O)c2ccccc2)cc1

>  <score_type>  (7) 
oracle

>  <origin>  (7) 
adg

>  <m_score__min__energy>  (7) 
-8.1300000000000008

>  <m_primary>  (7) 
energy

$$$$
7:0
     RDKit          3D

 34 35  0  0  0  0  0  0  0  0999 V2000
   60.4110   34.2280   48.9500 C   0  0  0  0  0  0  0  0  0  0  0  0
   59.1210   33.8450   48.4840 O   0  0  0  0  0  0  0  0  0  0  0  0
   58.7830   33.6830   47.1320 C   0  0  0  0  0  0  0  0  0  0  0  0
   59.4700   34.4450   46.1800 C   0  0  0  0  0  0  0  0  0  0  0  0
   59.1630   34.3250   44.8230 C   0  0  0  0  0  0  0  0  0  0  0  0
   58.1630   33.4440   44.4060 C   0  0  0  0  0  0  0  0  0  0  0  0
   57.4620   32.6740   45.3410 C   0  0  0  0  0  0  0  0  0  0  0  0
   56.4300   31.7950   44.8700 N   0  0  0  0  0  0  0  0  0  0  0  0
   56.6540   30.1270   44.4500 S   0  0  0  0  0  0  0  0  0  0  0  0
   56.7790   30.0120   42.9560 O   0  0  0  0  0  0  0  0  0  0  0  0
   55.4580   29.3390   44.9050 O   0  0  0  0  0  0  0  0  0  0  0  0
   58.0900   29.4910   45.2470 C   0  0  0  0  0  0  0  0  0  0  0  0
   59.1960   29.0800   44.4920 C   0  0  0  0  0  0  0  0  0  0  0  0
   60.3440   28.6050   45.1320 C   0  0  0  0  0  0  0  0  0  0  0  0
   60.3930   28.5380   46.5270 C   0  0  0  0  0  0  0  0  0  0  0  0
   59.2850   28.9450   47.2950 C   0  0  0  0  0  0  0  0  0  0  0  0
   59.2830   28.8980   48.6980 O   0  0  0  0  0  0  0  0  0  0  0  0
   59.4120   30.0380   49.5400 C   0  0  0  0  0  0  0  0  0  0  0  0
   58.1390   29.4170   46.6450 C   0  0  0  0  0  0  0  0  0  0  0  0
   57.7830   32.7880   46.7060 C   0  0  0  0  0  0  0  0  0  0  0  0
   60.4178   34.2300   50.0500 H   0  0  0  0  0  0  0  0  0  0  0  0
   61.1614   33.5139   48.5800 H   0  0  0  0  0  0  0  0  0  0  0  0
   60.6502   35.2359   48.5800 H   0  0  0  0  0  0  0  0  0  0  0  0
   60.2567   35.1428   46.5027 H   0  0  0  0  0  0  0  0  0  0  0  0
   59.7099   34.9256   44.0812 H   0  0  0  0  0  0  0  0  0  0  0  0
   57.9248   33.3547   43.3358 H   0  0  0  0  0  0  0  0  0  0  0  0
   59.1609   29.1312   43.3938 H   0  0  0  0  0  0  0  0  0  0  0  0
   61.2110   28.2831   44.5363 H   0  0  0  0  0  0  0  0  0  0  0  0
   61.2997   28.1662   47.0266 H   0  0  0  0  0  0  0  0  0  0  0  0
   59.3762   29.7220   50.5930 H   0  0  0  0  0  0  0  0  0  0  0  0
   60.3722   30.5356   49.3389 H   0  0  0  0  0  0  0  0  0  0  0  0
   58.5873   30.7376   49.3389 H   0  0  0  0  0  0  0  0  0  0  0  0
   57.2680   29.7331   47.2378 H   0  0  0  0  0  0  0  0  0  0  0  0
   57.2489   32.1735   47.4457 H   0  0  0  0  0  0  0  0  0  0  0  0
  1  2  1  0
  2  3  1  0
  3  4  2  0
  4  5  1  0
  5  6  2  0
  6  7  1  0
  7  8  1  0
  8  9  1  0
  9 10  2  0
  9 11  2  0
  9 12  1  0
 12 13  2  0
 13 14  1  0
 14 15  2  0
 15 16  1  0
 16 17  1  0
 17 18  1  0
 16 19  2  0
  7 20  2  0
 20  3  1  0
 19 12  1  0
  1 21  1  0
  1 22  1  0
  1 23  1  0
  4 24  1  0
  5 25  1  0
  6 26  1  0
 13 27  1  0
 14 28  1  0
 15 29  1  0
 18 30  1  0
 18 31  1  0
 18 32  1  0
 19 33  1  0
 20 34  1  0
M  CHG  1   8  -1
M  END
>  <UniqueID>  (8) 
7

>  <SMILES>  (8) 
COc1cccc([N-]S(=O)(=O)c2cccc(OC)c2)c1

>  <Energy>  (8) 
35.44577994156246

>  <Genealogy>  (8) 
COc1cccc([N-]S(=O)(=O)c2cccc(OC)c2)c1 (protonated)
COc1cccc([N-]S(=O)(=O)c2cccc(OC)c2)c1 (3D coordinates assigned)
COc1cccc([N-]S(=O)(=O)c2cccc(OC)c2)c1 (optimized conformer: 35.44577994156246 kcal/mol)

>  <smiles>  (8) 
COc1cccc(NS(=O)(=O)c2cccc(OC)c2)c1

>  <score_type>  (8) 
oracle

>  <origin>  (8) 
adg

>  <m_score__min__energy>  (8) 
-8.5199999999999996

>  <m_primary>  (8) 
energy

$$$$
8:0
     RDKit          3D

 51 53  0  0  0  0  0  0  0  0999 V2000
   64.5640   31.9880   50.3620 C   0  0  0  0  0  0  0  0  0  0  0  0
   64.5970   32.9170   49.2830 O   0  0  0  0  0  0  0  0  0  0  0  0
   63.4760   33.2990   48.5340 C   0  0  0  0  0  0  0  0  0  0  0  0
   62.3760   33.8400   49.2110 C   0  0  0  0  0  0  0  0  0  0  0  0
   61.2290   34.2210   48.5110 C   0  0  0  0  0  0  0  0  0  0  0  0
   61.1570   34.0490   47.1210 C   0  0  0  0  0  0  0  0  0  0  0  0
   59.7180   34.5790   46.2430 S   0  0  0  0  0  0  0  0  0  0  0  0
   59.8770   34.2560   44.7860 O   0  0  0  0  0  0  0  0  0  0  0  0
   59.6390   36.0740   46.3640 O   0  0  0  0  0  0  0  0  0  0  0  0
   58.2090   33.9130   46.8290 N   0  0  0  0  0  0  0  0  0  0  0  0
   58.1680   32.4530   47.0390 C   0  0  1  0  0  0  0  0  0  0  0  0
   58.9170   31.6570   45.9370 C   0  0  0  0  0  0  0  0  0  0  0  0
   57.9820   31.0980   44.8870 C   0  0  0  0  0  0  0  0  0  0  0  0
   57.8660   31.7200   43.6300 C   0  0  0  0  0  0  0  0  0  0  0  0
   57.0200   31.1860   42.6530 C   0  0  0  0  0  0  0  0  0  0  0  0
   56.3000   30.0170   42.9110 C   0  0  0  0  0  0  0  0  0  0  0  0
   56.4360   29.3710   44.1420 C   0  0  0  0  0  0  0  0  0  0  0  0
   57.2800   29.9010   45.1210 C   0  0  0  0  0  0  0  0  0  0  0  0
   58.5650   32.0740   48.4480 C   0  0  0  0  0  0  0  0  0  0  0  0
   58.0690   32.7020   49.4220 O   0  0  0  0  0  0  0  0  0  0  0  0
   59.3810   30.9210   48.7080 N   0  0  0  0  0  0  0  0  0  0  0  0
   58.9120   29.5910   48.3090 C   0  0  0  0  0  0  0  0  0  0  0  0
   60.1170   28.6610   48.1310 C   0  0  0  0  0  0  0  0  0  0  0  0
   60.9320   28.6650   49.2890 O   0  0  0  0  0  0  0  0  0  0  0  0
   61.4850   29.9540   49.4860 C   0  0  0  0  0  0  0  0  0  0  0  0
   60.3850   30.9810   49.7700 C   0  0  0  0  0  0  0  0  0  0  0  0
   62.2650   33.5320   46.4360 C   0  0  0  0  0  0  0  0  0  0  0  0
   63.4160   33.1550   47.1350 C   0  0  0  0  0  0  0  0  0  0  0  0
   64.5834   32.5340   51.3167 H   0  0  0  0  0  0  0  0  0  0  0  0
   63.6440   31.3881   50.3013 H   0  0  0  0  0  0  0  0  0  0  0  0
   65.4391   31.3243   50.3013 H   0  0  0  0  0  0  0  0  0  0  0  0
   62.4156   33.9659   50.3030 H   0  0  0  0  0  0  0  0  0  0  0  0
   60.3775   34.6584   49.0529 H   0  0  0  0  0  0  0  0  0  0  0  0
   57.1173   32.1458   46.9310 H   0  0  0  0  0  0  0  0  0  0  0  0
   59.6377   32.3275   45.4461 H   0  0  0  0  0  0  0  0  0  0  0  0
   59.4195   30.8074   46.4225 H   0  0  0  0  0  0  0  0  0  0  0  0
   58.4438   32.6310   43.4149 H   0  0  0  0  0  0  0  0  0  0  0  0
   56.9212   31.6876   41.6790 H   0  0  0  0  0  0  0  0  0  0  0  0
   55.6262   29.6054   42.1451 H   0  0  0  0  0  0  0  0  0  0  0  0
   55.8780   28.4441   44.3407 H   0  0  0  0  0  0  0  0  0  0  0  0
   57.3967   29.3787   46.0820 H   0  0  0  0  0  0  0  0  0  0  0  0
   58.2478   29.1869   49.0872 H   0  0  0  0  0  0  0  0  0  0  0  0
   58.3600   29.6643   47.3604 H   0  0  0  0  0  0  0  0  0  0  0  0
   59.7583   27.6377   47.9462 H   0  0  0  0  0  0  0  0  0  0  0  0
   60.7142   29.0177   47.2789 H   0  0  0  0  0  0  0  0  0  0  0  0
   62.1778   29.9224   50.3398 H   0  0  0  0  0  0  0  0  0  0  0  0
   62.0177   30.2523   48.5710 H   0  0  0  0  0  0  0  0  0  0  0  0
   59.9113   30.7542   50.7365 H   0  0  0  0  0  0  0  0  0  0  0  0
   60.8231   31.9894   49.8061 H   0  0  0  0  0  0  0  0  0  0  0  0
   62.2290   33.4221   45.3421 H   0  0  0  0  0  0  0  0  0  0  0  0
   64.2782   32.7442   46.5893 H   0  0  0  0  0  0  0  0  0  0  0  0
  1  2  1  0
  2  3  1  0
  3  4  2  0
  4  5  1  0
  5  6  2  0
  6  7  1  0
  7  8  2  0
  7  9  2  0
  7 10  1  0
 10 11  1  0
 11 12  1  0
 12 13  1  0
 13 14  2  0
 14 15  1  0
 15 16  2  0
 16 17  1  0
 17 18  2  0
 11 19  1  0
 19 20  2  0
 19 21  1  0
 21 22  1  0
 22 23  1  0
 23 24  1  0
 24 25  1  0
 25 26  1  0
  6 27  1  0
 27 28  2  0
 28  3  1  0
 18 13  1  0
 26 21  1  0
  1 29  1  0
  1 30  1  0
  1 31  1  0
  4 32  1  0
  5 33  1  0
 11 34  1  1
 12 35  1  0
 12 36  1  0
 14 37  1  0
 15 38  1  0
 16 39  1  0
 17 40  1  0
 18 41  1  0
 22 42  1  0
 22 43  1  0
 23 44  1  0
 23 45  1  0
 25 46  1  0
 25 47  1  0
 26 48  1  0
 26 49  1  0
 27 50  1  0
 28 51  1  0
M  CHG  1  10  -1
M  END
>  <UniqueID>  (9) 
8

>  <SMILES>  (9) 
COc1ccc(S(=O)(=O)[N-][C@@H](Cc2ccccc2)C(=O)N2CCOCC2)cc1

>  <Energy>  (9) 
59.3559166683411

>  <Genealogy>  (9) 
COc1ccc(S(=O)(=O)[N-]C(Cc2ccccc2)C(=O)N2CCOCC2)cc1 (protonated)
COc1ccc(S(=O)(=O)[N-][C@@H](Cc2ccccc2)C(=O)N2CCOCC2)cc1 (chirality)
COc1ccc(S(=O)(=O)[N-][C@@H](Cc2ccccc2)C(=O)N2CCOCC2)cc1 (3D coordinates assigned)
COc1ccc(S(=O)(=O)[N-][C@@H](Cc2ccccc2)C(=O)N2CCOCC2)cc1 (nonaromatic ring conformer: 59.3559166683411 kcal/mol)

>  <smiles>  (9) 
COc1ccc(S(=O)(=O)NC(Cc2ccccc2)C(=O)N2CCOCC2)cc1

>  <score_type>  (9) 
oracle

>  <origin>  (9) 
adg

>  <m_score__min__energy>  (9) 
-10.460000000000001

>  <m_primary>  (9) 
energy

$$$$
9:0
     RDKit          3D

 32 34  0  0  0  0  0  0  0  0999 V2000
   56.3090   30.0790   42.6300 C   0  0  0  0  0  0  0  0  0  0  0  0
   56.3090   29.6980   43.9750 C   0  0  0  0  0  0  0  0  0  0  0  0
   57.0180   30.4510   44.9150 C   0  0  0  0  0  0  0  0  0  0  0  0
   57.7260   31.5990   44.5180 C   0  0  0  0  0  0  0  0  0  0  0  0
   58.4740   32.4040   45.5130 C   0  0  0  0  0  0  0  0  0  0  0  0
   58.2890   33.7990   45.5270 C   0  0  0  0  0  0  0  0  0  0  0  0
   59.0200   34.6040   46.4010 C   0  0  0  0  0  0  0  0  0  0  0  0
   59.9450   34.0310   47.2730 C   0  0  0  0  0  0  0  0  0  0  0  0
   60.1340   32.6480   47.2830 C   0  0  0  0  0  0  0  0  0  0  0  0
   59.3990   31.8180   46.4190 C   0  0  0  0  0  0  0  0  0  0  0  0
   59.5850   30.3500   46.5150 C   0  0  0  0  0  0  0  0  0  0  0  0
   60.2240   29.6480   45.4790 C   0  0  0  0  0  0  0  0  0  0  0  0
   60.3960   28.2630   45.5670 C   0  0  0  0  0  0  0  0  0  0  0  0
   59.9390   27.5710   46.6920 C   0  0  0  0  0  0  0  0  0  0  0  0
   59.3130   28.2620   47.7320 C   0  0  0  0  0  0  0  0  0  0  0  0
   59.1390   29.6470   47.6480 C   0  0  0  0  0  0  0  0  0  0  0  0
   57.7280   31.9680   43.1630 C   0  0  0  0  0  0  0  0  0  0  0  0
   57.0190   31.2110   42.2250 C   0  0  0  0  0  0  0  0  0  0  0  0
   55.7496   29.4870   41.8907 H   0  0  0  0  0  0  0  0  0  0  0  0
   55.7508   28.8053   44.2936 H   0  0  0  0  0  0  0  0  0  0  0  0
   57.0221   30.1438   45.9712 H   0  0  0  0  0  0  0  0  0  0  0  0
   57.5612   34.2590   44.8424 H   0  0  0  0  0  0  0  0  0  0  0  0
   58.8663   35.6932   46.4022 H   0  0  0  0  0  0  0  0  0  0  0  0
   60.5266   34.6697   47.9540 H   0  0  0  0  0  0  0  0  0  0  0  0
   60.8654   32.2033   47.9739 H   0  0  0  0  0  0  0  0  0  0  0  0
   60.5905   30.1903   44.5949 H   0  0  0  0  0  0  0  0  0  0  0  0
   60.8914   27.7177   44.7501 H   0  0  0  0  0  0  0  0  0  0  0  0
   60.0724   26.4811   46.7585 H   0  0  0  0  0  0  0  0  0  0  0  0
   58.9565   27.7162   48.6180 H   0  0  0  0  0  0  0  0  0  0  0  0
   58.6512   30.1887   48.4718 H   0  0  0  0  0  0  0  0  0  0  0  0
   58.2896   32.8563   42.8381 H   0  0  0  0  0  0  0  0  0  0  0  0
   57.0207   31.5080   41.1658 H   0  0  0  0  0  0  0  0  0  0  0  0
  1  2  2  0
  2  3  1  0
  3  4  2  0
  4  5  1  0
  5  6  2  0
  6  7  1  0
  7  8  2  0
  8  9  1  0
  9 10  2  0
 10 11  1  0
 11 12  2  0
 12 13  1  0
 13 14  2  0
 14 15  1  0
 15 16  2  0
  4 17  1  0
 17 18  2  0
 18  1  1  0
 10  5  1  0
 16 11  1  0
  1 19  1  0
  2 20  1  0
  3 21  1  0
  6 22  1  0
  7 23  1  0
  8 24  1  0
  9 25  1  0
 12 26  1  0
 13 27  1  0
 14 28  1  0
 15 29  1  0
 16 30  1  0
 17 31  1  0
 18 32  1  0
M  END
>  <UniqueID>  (10) 
9

>  <SMILES>  (10) 
c1ccc(-c2ccccc2-c2ccccc2)cc1

>  <Energy>  (10) 
47.6513714986803

>  <Genealogy>  (10) 
c1ccc(-c2ccccc2-c2ccccc2)cc1 (3D coordinates assigned)
c1ccc(-c2ccccc2-c2ccccc2)cc1 (optimized conformer: 47.6513714986803 kcal/mol)

>  <smiles>  (10) 
c1ccc(-c2ccccc2-c2ccccc2)cc1

>  <score_type>  (10) 
oracle

>  <origin>  (10) 
adg

>  <m_score__min__energy>  (10) 
-7.0700000000000003

>  <m_primary>  (10) 
energy

$$$$
10:0
     RDKit          3D

 38 40  0  0  0  0  0  0  0  0999 V2000
   55.8890   28.2660   45.2540 O   0  0  0  0  0  0  0  0  0  0  0  0
   56.8950   29.0220   45.1940 C   0  0  0  0  0  0  0  0  0  0  0  0
   58.2760   28.4300   45.3160 C   0  0  0  0  0  0  0  0  0  0  0  0
   59.3610   29.5160   45.2980 C   0  0  0  0  0  0  0  0  0  0  0  0
   59.9580   29.6720   46.6430 N   0  0  0  0  0  0  0  0  0  0  0  0
   58.9250   29.6760   47.6970 C   0  0  0  0  0  0  0  0  0  0  0  0
   59.5890   29.7830   49.0870 C   0  0  0  0  0  0  0  0  0  0  0  0
   60.9690   30.0950   49.0050 O   0  0  0  0  0  0  0  0  0  0  0  0
   61.1560   31.2260   48.1780 C   0  0  0  0  0  0  0  0  0  0  0  0
   60.7530   30.9150   46.7220 C   0  0  0  0  0  0  0  0  0  0  0  0
   56.6880   30.4250   44.9930 N   0  0  0  0  0  0  0  0  0  0  0  0
   57.0480   31.1730   43.8250 C   0  0  0  0  0  0  0  0  0  0  0  0
   56.8590   30.7940   42.5110 C   0  0  0  0  0  0  0  0  0  0  0  0
   57.4230   31.6820   41.7230 O   0  0  0  0  0  0  0  0  0  0  0  0
   57.9890   32.6140   42.4590 C   0  0  0  0  0  0  0  0  0  0  0  0
   57.7940   32.3370   43.8000 C   0  0  0  0  0  0  0  0  0  0  0  0
   58.2970   33.1390   44.9330 C   0  0  0  0  0  0  0  0  0  0  0  0
   59.2270   34.1760   44.8830 C   0  0  0  0  0  0  0  0  0  0  0  0
   59.5060   34.7330   46.1370 C   0  0  0  0  0  0  0  0  0  0  0  0
   58.8060   34.1430   47.1810 C   0  0  0  0  0  0  0  0  0  0  0  0
   57.8410   32.9260   46.5390 S   0  0  0  0  0  0  0  0  0  0  0  0
   58.3435   27.8739   46.2627 H   0  0  0  0  0  0  0  0  0  0  0  0
   58.4418   27.7643   44.4561 H   0  0  0  0  0  0  0  0  0  0  0  0
   60.1472   29.2309   44.5835 H   0  0  0  0  0  0  0  0  0  0  0  0
   58.9048   30.4708   44.9975 H   0  0  0  0  0  0  0  0  0  0  0  0
   58.2544   30.5349   47.5466 H   0  0  0  0  0  0  0  0  0  0  0  0
   58.3501   28.7398   47.6426 H   0  0  0  0  0  0  0  0  0  0  0  0
   59.0819   30.5728   49.6606 H   0  0  0  0  0  0  0  0  0  0  0  0
   59.4957   28.8036   49.5790 H   0  0  0  0  0  0  0  0  0  0  0  0
   60.5369   32.0537   48.5542 H   0  0  0  0  0  0  0  0  0  0  0  0
   62.2203   31.5034   48.1968 H   0  0  0  0  0  0  0  0  0  0  0  0
   60.1541   31.7498   46.3290 H   0  0  0  0  0  0  0  0  0  0  0  0
   61.6688   30.7819   46.1273 H   0  0  0  0  0  0  0  0  0  0  0  0
   56.3226   29.8935   42.1772 H   0  0  0  0  0  0  0  0  0  0  0  0
   58.5359   33.4840   42.0664 H   0  0  0  0  0  0  0  0  0  0  0  0
   59.6957   34.5227   43.9502 H   0  0  0  0  0  0  0  0  0  0  0  0
   60.2146   35.5618   46.2818 H   0  0  0  0  0  0  0  0  0  0  0  0
   58.8716   34.4232   48.2427 H   0  0  0  0  0  0  0  0  0  0  0  0
  1  2  2  0
  2  3  1  0
  3  4  1  0
  4  5  1  0
  5  6  1  0
  6  7  1  0
  7  8  1  0
  8  9  1  0
  9 10  1  0
  2 11  1  0
 11 12  1  0
 12 13  2  0
 13 14  1  0
 14 15  1  0
 15 16  2  0
 16 17  1  0
 17 18  2  0
 18 19  1  0
 19 20  2  0
 20 21  1  0
 10  5  1  0
 16 12  1  0
 21 17  1  0
  3 22  1  0
  3 23  1  0
  4 24  1  0
  4 25  1  0
  6 26  1  0
  6 27  1  0
  7 28  1  0
  7 29  1  0
  9 30  1  0
  9 31  1  0
 10 32  1  0
 10 33  1  0
 13 34  1  0
 15 35  1  0
 18 36  1  0
 19 37  1  0
 20 38  1  0
M  CHG  1  11  -1
M  END
>  <UniqueID>  (11) 
10

>  <SMILES>  (11) 
O=C(CCN1CCOCC1)[N-]c1cocc1-c1cccs1

>  <Energy>  (11) 
105.31111389676333

>  <Genealogy>  (11) 
O=C(CCN1CCOCC1)[N-]c1cocc1-c1cccs1 (protonated)
O=C(CCN1CCOCC1)[N-]c1cocc1-c1cccs1 (3D coordinates assigned)
O=C(CCN1CCOCC1)[N-]c1cocc1-c1cccs1 (nonaromatic ring conformer: 105.31111389676333 kcal/mol)

>  <smiles>  (11) 
O=C(CCN1CCOCC1)Nc1cocc1-c1cccs1

>  <score_type>  (11) 
oracle

>  <origin>  (11) 
adg

>  <m_score__min__energy>  (11) 
-8.8900000000000006

>  <m_primary>  (11) 
energy

$$$$
11:0
     RDKit          3D

 39 41  0  0  0  0  0  0  0  0999 V2000
   59.2810   35.1040   45.3070 C   0  0  0  0  0  0  0  0  0  0  0  0
   58.0120   34.3710   45.1790 N   0  0  0  0  0  0  0  0  0  0  0  0
   58.0890   33.4420   44.0390 C   0  0  0  0  0  0  0  0  0  0  0  0
   57.7170   33.6440   46.4300 C   0  0  0  0  0  0  0  0  0  0  0  0
   58.8910   32.7990   46.8470 C   0  0  0  0  0  0  0  0  0  0  0  0
   59.9460   33.2240   47.6280 C   0  0  0  0  0  0  0  0  0  0  0  0
   60.8590   32.2340   47.6880 N   0  0  0  0  0  0  0  0  0  0  0  0
   62.1360   32.2750   48.3530 C   0  0  0  0  0  0  0  0  0  0  0  0
   62.3410   31.5040   49.5110 C   0  0  0  0  0  0  0  0  0  0  0  0
   63.5730   31.5260   50.1710 C   0  0  0  0  0  0  0  0  0  0  0  0
   64.6120   32.3220   49.6860 C   0  0  0  0  0  0  0  0  0  0  0  0
   64.4180   33.1030   48.5450 C   0  0  0  0  0  0  0  0  0  0  0  0
   63.1890   33.0880   47.8790 C   0  0  0  0  0  0  0  0  0  0  0  0
   63.0180   33.9010   46.8070 F   0  0  0  0  0  0  0  0  0  0  0  0
   60.4440   31.2020   46.9700 N   0  0  0  0  0  0  0  0  0  0  0  0
   59.2340   31.5060   46.4590 C   0  0  0  0  0  0  0  0  0  0  0  0
   58.5040   30.5940   45.5570 C   0  0  0  0  0  0  0  0  0  0  0  0
   59.1160   29.4680   44.9820 C   0  0  0  0  0  0  0  0  0  0  0  0
   58.3760   28.6440   44.1300 C   0  0  0  0  0  0  0  0  0  0  0  0
   57.0460   28.9540   43.8450 C   0  0  0  0  0  0  0  0  0  0  0  0
   56.4760   30.0940   44.4120 C   0  0  0  0  0  0  0  0  0  0  0  0
   57.2100   30.8820   45.2430 N   0  0  0  0  0  0  0  0  0  0  0  0
   59.5192   35.2416   46.3721 H   0  0  0  0  0  0  0  0  0  0  0  0
   60.0856   34.5315   44.8223 H   0  0  0  0  0  0  0  0  0  0  0  0
   59.1871   36.0870   44.8223 H   0  0  0  0  0  0  0  0  0  0  0  0
   58.1745   32.4106   44.4116 H   0  0  0  0  0  0  0  0  0  0  0  0
   57.1799   33.5366   43.4269 H   0  0  0  0  0  0  0  0  0  0  0  0
   58.9701   33.6849   43.4269 H   0  0  0  0  0  0  0  0  0  0  0  0
   57.4950   34.3705   47.2255 H   0  0  0  0  0  0  0  0  0  0  0  0
   56.8520   32.9862   46.2598 H   0  0  0  0  0  0  0  0  0  0  0  0
   60.0282   34.2050   48.1188 H   0  0  0  0  0  0  0  0  0  0  0  0
   61.5247   30.8781   49.9009 H   0  0  0  0  0  0  0  0  0  0  0  0
   63.7239   30.9154   51.0735 H   0  0  0  0  0  0  0  0  0  0  0  0
   65.5832   32.3340   50.2025 H   0  0  0  0  0  0  0  0  0  0  0  0
   65.2367   33.7336   48.1681 H   0  0  0  0  0  0  0  0  0  0  0  0
   60.1690   29.2368   45.2006 H   0  0  0  0  0  0  0  0  0  0  0  0
   58.8414   27.7523   43.6847 H   0  0  0  0  0  0  0  0  0  0  0  0
   56.4538   28.3071   43.1810 H   0  0  0  0  0  0  0  0  0  0  0  0
   55.4317   30.3560   44.1868 H   0  0  0  0  0  0  0  0  0  0  0  0
  1  2  1  0
  2  3  1  0
  2  4  1  0
  4  5  1  0
  5  6  2  0
  6  7  1  0
  7  8  1  0
  8  9  2  0
  9 10  1  0
 10 11  2  0
 11 12  1  0
 12 13  2  0
 13 14  1  0
  7 15  1  0
 15 16  2  0
 16 17  1  0
 17 18  2  0
 18 19  1  0
 19 20  2  0
 20 21  1  0
 21 22  2  0
 16  5  1  0
 22 17  1  0
 13  8  1  0
  1 23  1  0
  1 24  1  0
  1 25  1  0
  3 26  1  0
  3 27  1  0
  3 28  1  0
  4 29  1  0
  4 30  1  0
  6 31  1  0
  9 32  1  0
 10 33  1  0
 11 34  1  0
 12 35  1  0
 18 36  1  0
 19 37  1  0
 20 38  1  0
 21 39  1  0
M  END
>  <UniqueID>  (12) 
11

>  <SMILES>  (12) 
CN(C)Cc1cn(-c2ccccc2F)nc1-c1ccccn1

>  <Energy>  (12) 
78.87163405480193

>  <Genealogy>  (12) 
CN(C)Cc1cn(-c2ccccc2F)nc1-c1ccccn1 (3D coordinates assigned)
CN(C)Cc1cn(-c2ccccc2F)nc1-c1ccccn1 (optimized conformer: 78.87163405480193 kcal/mol)

>  <smiles>  (12) 
CN(C)Cc1cn(-c2ccccc2F)nc1-c1ccccn1

>  <score_type>  (12) 
oracle

>  <origin>  (12) 
adg

>  <m_score__min__energy>  (12) 
-6.8200000000000003

>  <m_primary>  (12) 
energy

$$$$
12:0
     RDKit          3D

 34 36  0  0  1  0  0  0  0  0999 V2000
   57.6500   31.9640   42.3910 Br  0  0  0  0  0  0  0  0  0  0  0  0
   58.1660   32.6500   44.0720 C   0  0  0  0  0  0  0  0  0  0  0  0
   58.8370   33.8420   44.1280 C   0  0  0  0  0  0  0  0  0  0  0  0
   59.2290   34.3750   45.3150 N   0  0  0  0  0  0  0  0  0  0  0  0
   58.9450   33.7050   46.4430 C   0  0  0  0  0  0  0  0  0  0  0  0
   59.2710   34.1200   47.6220 N   0  0  0  0  0  0  0  0  0  0  0  0
   60.6330   33.9860   48.0100 C   0  0  0  0  0  0  0  0  0  0  0  0
   61.5680   33.6030   47.0460 C   0  0  0  0  0  0  0  0  0  0  0  0
   62.9170   33.4570   47.3780 C   0  0  0  0  0  0  0  0  0  0  0  0
   63.3420   33.6930   48.6710 C   0  0  0  0  0  0  0  0  0  0  0  0
   62.4050   34.0710   49.6070 C   0  0  0  0  0  0  0  0  0  0  0  0
   61.0610   34.2240   49.3140 C   0  0  0  0  0  0  0  0  0  0  0  0
   58.2790   32.5190   46.4050 N   0  0  0  0  0  0  0  0  0  0  0  0
   57.8910   31.9930   45.2250 C   0  0  0  0  0  0  0  0  0  0  0  0
   57.2800   30.8980   45.2170 N   0  0  0  0  0  0  0  0  0  0  0  0
   57.8010   29.5870   45.1450 C   0  0  0  0  0  0  0  0  0  0  0  0
   58.5890   29.0730   46.1870 C   0  0  0  0  0  0  0  0  0  0  0  0
   59.1350   27.7880   46.0890 C   0  0  0  0  0  0  0  0  0  0  0  0
   58.8740   27.0600   44.9510 C   0  0  0  0  0  0  0  0  0  0  0  0
   58.1080   27.5200   43.9040 C   0  0  0  0  0  0  0  0  0  0  0  0
   57.5660   28.8000   44.0050 C   0  0  0  0  0  0  0  0  0  0  0  0
   59.0631   34.3784   43.1946 H   0  0  0  0  0  0  0  0  0  0  0  0
   59.7310   35.2670   45.3570 H   0  0  0  0  0  0  0  0  0  0  0  0
   61.2385   33.4142   46.0136 H   0  0  0  0  0  0  0  0  0  0  0  0
   63.6421   33.1536   46.6085 H   0  0  0  0  0  0  0  0  0  0  0  0
   64.4013   33.5819   48.9459 H   0  0  0  0  0  0  0  0  0  0  0  0
   62.7410   34.2604   50.6371 H   0  0  0  0  0  0  0  0  0  0  0  0
   60.3466   34.5269   50.0937 H   0  0  0  0  0  0  0  0  0  0  0  0
   58.0590   31.9970   47.2990 H   0  0  0  0  0  0  0  0  0  0  0  0
   58.7779   29.6821   47.0833 H   0  0  0  0  0  0  0  0  0  0  0  0
   59.7543   27.3725   46.8976 H   0  0  0  0  0  0  0  0  0  0  0  0
   59.3031   26.0501   44.8733 H   0  0  0  0  0  0  0  0  0  0  0  0
   57.9292   26.8968   43.0153 H   0  0  0  0  0  0  0  0  0  0  0  0
   56.9492   29.1974   43.1855 H   0  0  0  0  0  0  0  0  0  0  0  0
  1  2  1  0
  2  3  2  0
  3  4  1  0
  4  5  1  0
  5  6  2  0
  6  7  1  0
  7  8  2  0
  8  9  1  0
  9 10  2  0
 10 11  1  0
 11 12  2  0
  5 13  1  0
 13 14  1  0
 14 15  2  0
 15 16  1  0
 16 17  2  0
 17 18  1  0
 18 19  2  0
 19 20  1  0
 20 21  2  0
 14  2  1  0
 21 16  1  0
 12  7  1  0
  3 22  1  0
  4 23  1  0
  8 24  1  0
  9 25  1  0
 10 26  1  0
 11 27  1  0
 12 28  1  0
 13 29  1  0
 17 30  1  0
 18 31  1  0
 19 32  1  0
 20 33  1  0
 21 34  1  0
M  END
>  <smiles>  (13) 
Brc1c[nH]c(=Nc2ccccc2)[nH]c1=Nc1ccccc1

>  <score_type>  (13) 
oracle

>  <origin>  (13) 
adg

>  <m_score__min__energy>  (13) 
-7.5

>  <m_primary>  (13) 
energy

$$$$
13:0
     RDKit          3D

 34 37  0  0  0  0  0  0  0  0999 V2000
   57.4230   27.0540   44.8770 C   0  0  0  0  0  0  0  0  0  0  0  0
   57.8750   28.3900   45.3110 N   0  0  0  0  0  0  0  0  0  0  0  0
   57.0020   29.4500   45.2700 C   0  0  0  0  0  0  0  0  0  0  0  0
   55.8080   29.2750   44.8960 O   0  0  0  0  0  0  0  0  0  0  0  0
   57.3980   30.7030   45.6280 N   0  0  0  0  0  0  0  0  0  0  0  0
   58.6810   30.9730   46.0090 C   0  0  0  0  0  0  0  0  0  0  0  0
   59.1080   32.2470   46.3290 N   0  0  0  0  0  0  0  0  0  0  0  0
   60.3700   32.4340   46.8660 C   0  0  0  0  0  0  0  0  0  0  0  0
   60.7890   33.7130   47.3180 C   0  0  0  0  0  0  0  0  0  0  0  0
   62.0670   33.8870   47.8710 C   0  0  0  0  0  0  0  0  0  0  0  0
   62.9520   32.8160   47.9530 C   0  0  0  0  0  0  0  0  0  0  0  0
   62.5680   31.5550   47.5040 C   0  0  0  0  0  0  0  0  0  0  0  0
   61.2850   31.3500   46.9720 C   0  0  0  0  0  0  0  0  0  0  0  0
   60.9140   30.0730   46.5550 C   0  0  0  0  0  0  0  0  0  0  0  0
   59.6250   29.8430   46.0830 C   0  0  0  0  0  0  0  0  0  0  0  0
   59.1780   28.5740   45.6950 C   0  0  0  0  0  0  0  0  0  0  0  0
   59.9830   27.6000   45.7030 O   0  0  0  0  0  0  0  0  0  0  0  0
   59.8480   34.8790   47.2780 C   0  0  0  0  0  0  0  0  0  0  0  0
   58.9200   34.7410   46.0850 C   0  0  0  0  0  0  0  0  0  0  0  0
   58.1900   33.3980   46.1410 C   0  0  0  0  0  0  0  0  0  0  0  0
   57.2129   26.4331   45.7604 H   0  0  0  0  0  0  0  0  0  0  0  0
   56.5088   27.1543   44.2735 H   0  0  0  0  0  0  0  0  0  0  0  0
   58.2103   26.5787   44.2735 H   0  0  0  0  0  0  0  0  0  0  0  0
   56.6650   31.4450   45.6190 H   0  0  0  0  0  0  0  0  0  0  0  0
   62.3714   34.8767   48.2422 H   0  0  0  0  0  0  0  0  0  0  0  0
   63.9573   32.9660   48.3735 H   0  0  0  0  0  0  0  0  0  0  0  0
   63.2744   30.7141   47.5665 H   0  0  0  0  0  0  0  0  0  0  0  0
   61.6395   29.2473   46.5989 H   0  0  0  0  0  0  0  0  0  0  0  0
   59.2540   34.9025   48.2035 H   0  0  0  0  0  0  0  0  0  0  0  0
   60.4242   35.8116   47.1877 H   0  0  0  0  0  0  0  0  0  0  0  0
   58.1826   35.5571   46.1011 H   0  0  0  0  0  0  0  0  0  0  0  0
   59.5126   34.7909   45.1596 H   0  0  0  0  0  0  0  0  0  0  0  0
   57.4790   33.4201   46.9800 H   0  0  0  0  0  0  0  0  0  0  0  0
   57.6813   33.2592   45.1756 H   0  0  0  0  0  0  0  0  0  0  0  0
  1  2  1  0
  2  3  1  0
  3  4  2  0
  3  5  1  0
  5  6  2  0
  6  7  1  0
  7  8  1  0
  8  9  2  0
  9 10  1  0
 10 11  2  0
 11 12  1  0
 12 13  2  0
 13 14  1  0
 14 15  2  0
 15 16  1  0
 16 17  2  0
  9 18  1  0
 18 19  1  0
 19 20  1  0
 16  2  1  0
 15  6  1  0
 20  7  1  0
 13  8  1  0
  1 21  1  0
  1 22  1  0
  1 23  1  0
  5 24  1  0
 10 25  1  0
 11 26  1  0
 12 27  1  0
 14 28  1  0
 18 29  1  0
 18 30  1  0
 19 31  1  0
 19 32  1  0
 20 33  1  0
 20 34  1  0
M  CHG  1   5   1
M  END
>  <UniqueID>  (14) 
12

>  <SMILES>  (14) 
Cn1c(=O)[nH+]c2n3c4c(cccc4cc-2c1=O)CCC3

>  <Energy>  (14) 
54.51868845496485

>  <Genealogy>  (14) 
Cn1c(=O)[nH+]c2n3c4c(cccc4cc-2c1=O)CCC3 (protonated)
Cn1c(=O)[nH+]c2n3c4c(cccc4cc-2c1=O)CCC3 (3D coordinates assigned)
Cn1c(=O)[nH+]c2n3c4c(cccc4cc-2c1=O)CCC3 (nonaromatic ring conformer: 54.51868845496485 kcal/mol)

>  <smiles>  (14) 
Cn1c(=O)nc2n3c4c(cccc4cc-2c1=O)CCC3

>  <score_type>  (14) 
oracle

>  <origin>  (14) 
adg

>  <m_score__min__energy>  (14) 
-5.7800000000000002

>  <m_primary>  (14) 
energy

$$$$
14:0
     RDKit          3D

 56 58  0  0  0  0  0  0  0  0999 V2000
   59.6470   35.3480   45.6550 C   0  0  0  0  0  0  0  0  0  0  0  0
   58.7140   34.8920   44.6810 O   0  0  0  0  0  0  0  0  0  0  0  0
   58.2530   33.5700   44.5760 C   0  0  0  0  0  0  0  0  0  0  0  0
   57.9870   32.9640   43.3340 C   0  0  0  0  0  0  0  0  0  0  0  0
   57.4900   31.6600   43.2720 C   0  0  0  0  0  0  0  0  0  0  0  0
   57.2500   30.9330   44.4540 C   0  0  0  0  0  0  0  0  0  0  0  0
   56.6670   29.5690   44.3960 C   0  0  0  0  0  0  0  0  0  0  0  0
   55.5240   29.3460   44.8850 O   0  0  0  0  0  0  0  0  0  0  0  0
   57.3930   28.5000   43.7740 N   0  0  0  0  0  0  0  0  0  0  0  0
   58.7920   28.2090   44.0580 C   0  0  0  0  0  0  0  0  0  0  0  0
   58.9880   28.0540   45.5440 C   0  0  0  0  0  0  0  0  0  0  0  0
   59.7210   29.0200   46.2530 C   0  0  0  0  0  0  0  0  0  0  0  0
   59.9500   28.8680   47.6220 C   0  0  0  0  0  0  0  0  0  0  0  0
   60.8430   30.0970   48.5000 Cl  0  0  0  0  0  0  0  0  0  0  0  0
   59.4600   27.7430   48.2880 C   0  0  0  0  0  0  0  0  0  0  0  0
   58.7260   26.7780   47.5960 C   0  0  0  0  0  0  0  0  0  0  0  0
   58.4660   26.9340   46.2240 C   0  0  0  0  0  0  0  0  0  0  0  0
   57.6700   25.9810   45.5050 N   0  0  0  0  0  0  0  0  0  0  0  0
   56.0990   25.4300   45.9920 S   0  0  0  0  0  0  0  0  0  0  0  0
   55.5280   24.1530   44.8880 C   0  0  0  0  0  0  0  0  0  0  0  0
   56.1920   24.8570   47.3770 O   0  0  0  0  0  0  0  0  0  0  0  0
   55.1380   26.5850   46.0020 O   0  0  0  0  0  0  0  0  0  0  0  0
   57.5600   31.5230   45.6900 C   0  0  0  0  0  0  0  0  0  0  0  0
   58.0500   32.8440   45.7630 C   0  0  0  0  0  0  0  0  0  0  0  0
   58.3030   33.4820   46.9880 O   0  0  0  0  0  0  0  0  0  0  0  0
   58.6900   32.8180   48.1920 C   0  0  0  0  0  0  0  0  0  0  0  0
   59.6080   33.7410   48.9930 C   0  0  0  0  0  0  0  0  0  0  0  0
   61.0350   33.6440   48.5210 C   0  0  0  0  0  0  0  0  0  0  0  0
   62.0930   33.9450   49.3970 C   0  0  0  0  0  0  0  0  0  0  0  0
   63.4180   33.8530   48.9630 C   0  0  0  0  0  0  0  0  0  0  0  0
   63.6970   33.4540   47.6530 C   0  0  0  0  0  0  0  0  0  0  0  0
   62.6530   33.1430   46.7790 C   0  0  0  0  0  0  0  0  0  0  0  0
   61.3270   33.2290   47.2110 C   0  0  0  0  0  0  0  0  0  0  0  0
   59.2499   35.1539   46.6623 H   0  0  0  0  0  0  0  0  0  0  0  0
   60.6004   34.8143   45.5276 H   0  0  0  0  0  0  0  0  0  0  0  0
   59.8116   36.4281   45.5276 H   0  0  0  0  0  0  0  0  0  0  0  0
   58.1720   33.5219   42.4042 H   0  0  0  0  0  0  0  0  0  0  0  0
   57.2850   31.1985   42.2947 H   0  0  0  0  0  0  0  0  0  0  0  0
   59.0813   27.2761   43.5519 H   0  0  0  0  0  0  0  0  0  0  0  0
   59.4173   29.0371   43.6929 H   0  0  0  0  0  0  0  0  0  0  0  0
   60.1168   29.9011   45.7268 H   0  0  0  0  0  0  0  0  0  0  0  0
   59.6533   27.6164   49.3635 H   0  0  0  0  0  0  0  0  0  0  0  0
   58.3495   25.8914   48.1272 H   0  0  0  0  0  0  0  0  0  0  0  0
   55.1482   23.3037   45.4749 H   0  0  0  0  0  0  0  0  0  0  0  0
   54.7217   24.5501   44.2538 H   0  0  0  0  0  0  0  0  0  0  0  0
   56.3616   23.8169   44.2538 H   0  0  0  0  0  0  0  0  0  0  0  0
   57.4186   30.9461   46.6159 H   0  0  0  0  0  0  0  0  0  0  0  0
   57.7955   32.5802   48.7865 H   0  0  0  0  0  0  0  0  0  0  0  0
   59.2193   31.8847   47.9495 H   0  0  0  0  0  0  0  0  0  0  0  0
   59.2623   34.7787   48.8758 H   0  0  0  0  0  0  0  0  0  0  0  0
   59.5715   33.4334   50.0485 H   0  0  0  0  0  0  0  0  0  0  0  0
   61.8763   34.2547   50.4300 H   0  0  0  0  0  0  0  0  0  0  0  0
   64.2409   34.0944   49.6519 H   0  0  0  0  0  0  0  0  0  0  0  0
   64.7399   33.3848   47.3100 H   0  0  0  0  0  0  0  0  0  0  0  0
   62.8751   32.8297   45.7482 H   0  0  0  0  0  0  0  0  0  0  0  0
   60.5087   32.9708   46.5228 H   0  0  0  0  0  0  0  0  0  0  0  0
  1  2  1  0
  2  3  1  0
  3  4  2  0
  4  5  1  0
  5  6  2  0
  6  7  1  0
  7  8  2  0
  7  9  1  0
  9 10  1  0
 10 11  1  0
 11 12  2  0
 12 13  1  0
 13 14  1  0
 13 15  2  0
 15 16  1  0
 16 17  2  0
 17 18  1  0
 18 19  1  0
 19 20  1  0
 19 21  2  0
 19 22  2  0
  6 23  1  0
 23 24  2  0
 24 25  1  0
 25 26  1  0
 26 27  1  0
 27 28  1  0
 28 29  2  0
 29 30  1  0
 30 31  2  0
 31 32  1  0
 32 33  2  0
 24  3  1  0
 33 28  1  0
 17 11  1  0
  1 34  1  0
  1 35  1  0
  1 36  1  0
  4 37  1  0
  5 38  1  0
 10 39  1  0
 10 40  1  0
 12 41  1  0
 15 42  1  0
 16 43  1  0
 20 44  1  0
 20 45  1  0
 20 46  1  0
 23 47  1  0
 26 48  1  0
 26 49  1  0
 27 50  1  0
 27 51  1  0
 29 52  1  0
 30 53  1  0
 31 54  1  0
 32 55  1  0
 33 56  1  0
M  CHG  2   9  -1  18  -1
M  END
>  <UniqueID>  (15) 
13

>  <SMILES>  (15) 
COc1ccc(C(=O)[N-]Cc2cc(Cl)ccc2[N-]S(C)(=O)=O)cc1OCCc1ccccc1

>  <Energy>  (15) 
57.94819280096405

>  <Genealogy>  (15) 
COc1ccc(C(=O)[N-]Cc2cc(Cl)ccc2[N-]S(C)(=O)=O)cc1OCCc1ccccc1 (protonated)
COc1ccc(C(=O)[N-]Cc2cc(Cl)ccc2[N-]S(C)(=O)=O)cc1OCCc1ccccc1 (3D coordinates assigned)
COc1ccc(C(=O)[N-]Cc2cc(Cl)ccc2[N-]S(C)(=O)=O)cc1OCCc1ccccc1 (optimized conformer: 57.94819280096405 kcal/mol)

>  <smiles>  (15) 
COc1ccc(C(=O)NCc2cc(Cl)ccc2NS(C)(=O)=O)cc1OCCc1ccccc1

>  <score_type>  (15) 
oracle

>  <origin>  (15) 
adg

>  <m_score__min__energy>  (15) 
-12.23

>  <m_primary>  (15) 
energy

$$$$
15:0
     RDKit          3D

 35 37  0  0  0  0  0  0  0  0999 V2000
   55.0196   24.2769   46.5620 H   0  0  0  0  0  0  0  0  0  0  0  0
   55.7150   25.0660   46.2400 C   0  0  0  0  0  0  0  0  0  0  0  0
   55.3180   26.3440   46.0010 N   0  0  0  0  0  0  0  0  0  0  0  0
   56.3560   27.1230   45.6190 C   0  0  0  0  0  0  0  0  0  0  0  0
   56.2560   28.3850   45.3260 N   0  0  0  0  0  0  0  0  0  0  0  0
   57.1090   29.1210   44.4340 C   0  0  0  0  0  0  0  0  0  0  0  0
   57.4510   28.6290   43.3230 O   0  0  0  0  0  0  0  0  0  0  0  0
   57.5600   30.4840   44.8120 C   0  0  0  0  0  0  0  0  0  0  0  0
   57.0120   31.5860   44.1290 C   0  0  0  0  0  0  0  0  0  0  0  0
   56.2258   31.4230   43.3772 H   0  0  0  0  0  0  0  0  0  0  0  0
   57.4540   32.8830   44.3940 C   0  0  0  0  0  0  0  0  0  0  0  0
   57.0165   33.7341   43.8516 H   0  0  0  0  0  0  0  0  0  0  0  0
   58.4490   33.1010   45.3450 C   0  0  0  0  0  0  0  0  0  0  0  0
   58.8053   34.1228   45.5424 H   0  0  0  0  0  0  0  0  0  0  0  0
   58.9940   32.0260   46.0470 C   0  0  0  0  0  0  0  0  0  0  0  0
   59.7767   32.2071   46.7984 H   0  0  0  0  0  0  0  0  0  0  0  0
   58.5530   30.7130   45.8040 C   0  0  0  0  0  0  0  0  0  0  0  0
   59.1050   29.6240   46.6430 C   0  0  0  0  0  0  0  0  0  0  0  0
   58.8770   29.6110   48.0290 C   0  0  0  0  0  0  0  0  0  0  0  0
   58.2747   30.4060   48.4929 H   0  0  0  0  0  0  0  0  0  0  0  0
   59.4130   28.5910   48.8210 C   0  0  0  0  0  0  0  0  0  0  0  0
   59.2233   28.5854   49.9045 H   0  0  0  0  0  0  0  0  0  0  0  0
   60.1880   27.5780   48.2480 C   0  0  0  0  0  0  0  0  0  0  0  0
   60.7010   26.5770   49.0850 O   0  0  0  0  0  0  0  0  0  0  0  0
   61.0690   26.7760   50.4470 C   0  0  0  0  0  0  0  0  0  0  0  0
   60.2917   26.3556   51.1020 H   0  0  0  0  0  0  0  0  0  0  0  0
   62.0269   26.2730   50.6452 H   0  0  0  0  0  0  0  0  0  0  0  0
   61.1725   27.8530   50.6452 H   0  0  0  0  0  0  0  0  0  0  0  0
   60.4280   27.5970   46.8600 C   0  0  0  0  0  0  0  0  0  0  0  0
   61.0383   26.8068   46.3984 H   0  0  0  0  0  0  0  0  0  0  0  0
   59.8930   28.6170   46.0670 C   0  0  0  0  0  0  0  0  0  0  0  0
   60.0914   28.6296   44.9851 H   0  0  0  0  0  0  0  0  0  0  0  0
   57.8050   26.2720   45.5570 S   0  0  0  0  0  0  0  0  0  0  0  0
   57.0710   24.8390   46.0440 C   0  0  0  0  0  0  0  0  0  0  0  0
   57.7030   23.6530   46.2160 F   0  0  0  0  0  0  0  0  0  0  0  0
  1  2  1  0
  2  3  1  0
  3  4  1  0
  4  5  2  0
  5  6  1  0
  6  7  2  0
  6  8  1  0
  8  9  2  0
  9 10  1  0
  9 11  1  0
 11 12  1  0
 11 13  2  0
 13 14  1  0
 13 15  1  0
 15 16  1  0
 15 17  2  0
 17 18  1  0
 18 19  2  0
 19 20  1  0
 19 21  1  0
 21 22  1  0
 21 23  2  0
 23 24  1  0
 24 25  1  0
 25 26  1  0
 25 27  1  0
 25 28  1  0
 23 29  1  0
 29 30  1  0
 29 31  2  0
 31 32  1  0
  4 33  1  0
 33 34  1  0
 34 35  1  0
 34  2  2  0
 17  8  1  0
 31 18  1  0
M  CHG  1   3  -1
M  END
>  <UniqueID>  (16) 
14

>  <SMILES>  (16) 
COc1ccc(-c2ccccc2C(=O)/N=c2\[n-]cc(F)s2)cc1

>  <Energy>  (16) 
80.8490020754838

>  <Genealogy>  (16) 
COc1ccc(-c2ccccc2C(=O)N=c2[n-]cc(F)s2)cc1 (protonated)
COc1ccc(-c2ccccc2C(=O)/N=c2\[n-]cc(F)s2)cc1 (cis-trans isomerization)
COc1ccc(-c2ccccc2C(=O)/N=c2\[n-]cc(F)s2)cc1 (3D coordinates assigned)
COc1ccc(-c2ccccc2C(=O)/N=c2\[n-]cc(F)s2)cc1 (optimized conformer: 80.8490020754838 kcal/mol)

>  <smiles>  (16) 
COc1ccc(-c2ccccc2C(=O)N=c2[nH]cc(F)s2)cc1

>  <score_type>  (16) 
oracle

>  <origin>  (16) 
adg

>  <m_score__min__energy>  (16) 
-9.3399999999999999

>  <m_primary>  (16) 
energy

$$$$
16:0
     RDKit          3D

 47 50  0  0  0  0  0  0  0  0999 V2000
   57.7500   31.9650   42.5220 C   0  0  0  0  0  0  0  0  0  0  0  0
   56.8580   30.7610   43.5550 S   0  0  0  0  0  0  0  0  0  0  0  0
   57.8810   31.0590   44.9970 C   0  0  0  0  0  0  0  0  0  0  0  0
   57.9850   32.3490   45.5290 C   0  0  0  0  0  0  0  0  0  0  0  0
   58.7830   32.5820   46.6530 C   0  0  0  0  0  0  0  0  0  0  0  0
   59.4910   31.5260   47.2450 C   0  0  0  0  0  0  0  0  0  0  0  0
   60.3170   31.7680   48.4440 C   0  0  0  0  0  0  0  0  0  0  0  0
   59.7960   31.7150   49.7670 C   0  0  0  0  0  0  0  0  0  0  0  0
   60.6580   31.9690   50.8680 C   0  0  0  0  0  0  0  0  0  0  0  0
   61.9830   32.2560   50.6680 N   0  0  0  0  0  0  0  0  0  0  0  0
   62.4600   32.3040   49.4020 C   0  0  0  0  0  0  0  0  0  0  0  0
   63.7360   32.5740   48.9640 C   0  0  0  0  0  0  0  0  0  0  0  0
   63.7430   32.5110   47.6130 N   0  0  0  0  0  0  0  0  0  0  0  0
   62.4890   32.2040   47.2030 C   0  0  0  0  0  0  0  0  0  0  0  0
   61.6750   32.0680   48.3110 C   0  0  0  0  0  0  0  0  0  0  0  0
   60.1080   31.8240   52.2610 C   0  0  0  0  0  0  0  0  0  0  0  0
   58.7070   32.4940   52.4110 C   0  0  0  0  0  0  0  0  0  0  0  0
   58.9050   34.0010   52.6870 C   0  0  0  0  0  0  0  0  0  0  0  0
   57.9980   31.8690   53.6320 C   0  0  0  0  0  0  0  0  0  0  0  0
   57.8030   32.3170   51.1330 C   0  0  0  0  0  0  0  0  0  0  0  0
   58.3620   31.3460   50.0740 C   0  0  2  0  0  0  0  0  0  0  0  0
   58.3170   30.0240   50.5450 O   0  0  0  0  0  0  0  0  0  0  0  0
   59.3820   30.2320   46.7130 C   0  0  0  0  0  0  0  0  0  0  0  0
   58.5840   30.0010   45.5880 C   0  0  0  0  0  0  0  0  0  0  0  0
   58.2801   32.6805   43.1677 H   0  0  0  0  0  0  0  0  0  0  0  0
   58.4762   31.4364   41.8870 H   0  0  0  0  0  0  0  0  0  0  0  0
   57.0328   32.5057   41.8870 H   0  0  0  0  0  0  0  0  0  0  0  0
   57.4379   33.1812   45.0620 H   0  0  0  0  0  0  0  0  0  0  0  0
   58.8557   33.5957   47.0739 H   0  0  0  0  0  0  0  0  0  0  0  0
   62.6240   32.4270   51.4750 H   0  0  0  0  0  0  0  0  0  0  0  0
   64.6019   32.8020   49.6030 H   0  0  0  0  0  0  0  0  0  0  0  0
   64.5690   32.6710   46.9950 H   0  0  0  0  0  0  0  0  0  0  0  0
   62.1704   32.0826   46.1572 H   0  0  0  0  0  0  0  0  0  0  0  0
   60.0163   30.7534   52.4966 H   0  0  0  0  0  0  0  0  0  0  0  0
   60.8000   32.3268   52.9527 H   0  0  0  0  0  0  0  0  0  0  0  0
   58.9279   34.1750   53.7729 H   0  0  0  0  0  0  0  0  0  0  0  0
   59.8546   34.3336   52.2423 H   0  0  0  0  0  0  0  0  0  0  0  0
   58.0736   34.5675   52.2423 H   0  0  0  0  0  0  0  0  0  0  0  0
   58.4448   32.2629   54.5568 H   0  0  0  0  0  0  0  0  0  0  0  0
   56.9281   32.1232   53.6045 H   0  0  0  0  0  0  0  0  0  0  0  0
   58.1160   30.7757   53.6045 H   0  0  0  0  0  0  0  0  0  0  0  0
   56.8216   31.9409   51.4577 H   0  0  0  0  0  0  0  0  0  0  0  0
   57.7522   33.3045   50.6510 H   0  0  0  0  0  0  0  0  0  0  0  0
   57.7476   31.4211   49.1647 H   0  0  0  0  0  0  0  0  0  0  0  0
   57.3940   29.6940   50.3900 H   0  0  0  0  0  0  0  0  0  0  0  0
   59.9251   29.3981   47.1816 H   0  0  0  0  0  0  0  0  0  0  0  0
   58.5082   28.9877   45.1668 H   0  0  0  0  0  0  0  0  0  0  0  0
  1  2  1  0
  2  3  1  0
  3  4  2  0
  4  5  1  0
  5  6  2  0
  6  7  1  0
  7  8  2  0
  8  9  1  0
  9 10  2  0
 10 11  1  0
 11 12  2  0
 12 13  1  0
 13 14  1  0
 14 15  2  0
  9 16  1  0
 16 17  1  0
 17 18  1  0
 17 19  1  0
 17 20  1  0
 20 21  1  0
 21 22  1  0
  6 23  1  0
 23 24  2  0
 24  3  1  0
 15  7  1  0
 21  8  1  0
 15 11  1  0
  1 25  1  0
  1 26  1  0
  1 27  1  0
  4 28  1  0
  5 29  1  0
 10 30  1  0
 12 31  1  0
 13 32  1  0
 14 33  1  0
 16 34  1  0
 16 35  1  0
 18 36  1  0
 18 37  1  0
 18 38  1  0
 19 39  1  0
 19 40  1  0
 19 41  1  0
 20 42  1  0
 20 43  1  0
 21 44  1  6
 22 45  1  0
 23 46  1  0
 24 47  1  0
M  CHG  1  10   1
M  END
>  <UniqueID>  (17) 
15

>  <SMILES>  (17) 
CSc1ccc(-c2c3c([nH+]c4c[nH]cc24)CC(C)(C)C[C@@H]3O)cc1

>  <Energy>  (17) 
93.72399215633222

>  <Genealogy>  (17) 
CSc1ccc(-c2c3c([nH+]c4c[nH]cc24)CC(C)(C)CC3O)cc1 (protonated)
CSc1ccc(-c2c3c([nH+]c4c[nH]cc24)CC(C)(C)C[C@@H]3O)cc1 (chirality)
CSc1ccc(-c2c3c([nH+]c4c[nH]cc24)CC(C)(C)C[C@@H]3O)cc1 (3D coordinates assigned)
CSc1ccc(-c2c3c([nH+]c4c[nH]cc24)CC(C)(C)C[C@@H]3O)cc1 (nonaromatic ring conformer: 93.72399215633222 kcal/mol)

>  <smiles>  (17) 
CSc1ccc(-c2c3c(nc4c[nH]cc24)CC(C)(C)CC3O)cc1

>  <score_type>  (17) 
oracle

>  <origin>  (17) 
adg

>  <m_score__min__energy>  (17) 
-6.3099999999999996

>  <m_primary>  (17) 
energy

$$$$
17:0
     RDKit          3D

 33 35  0  0  0  0  0  0  0  0999 V2000
   57.7060   24.6250   47.5500 O   0  0  0  0  0  0  0  0  0  0  0  0
   57.6090   24.9330   46.3310 C   0  0  0  0  0  0  0  0  0  0  0  0
   57.5330   23.8480   45.3200 C   0  0  0  0  0  0  0  0  0  0  0  0
   56.4960   23.8430   44.3700 C   0  0  0  0  0  0  0  0  0  0  0  0
   56.4240   22.8330   43.4060 C   0  0  0  0  0  0  0  0  0  0  0  0
   57.3900   21.8250   43.3730 C   0  0  0  0  0  0  0  0  0  0  0  0
   58.4330   21.8270   44.3020 C   0  0  0  0  0  0  0  0  0  0  0  0
   58.5100   22.8350   45.2680 C   0  0  0  0  0  0  0  0  0  0  0  0
   57.5850   26.3680   45.9530 C   0  0  0  0  0  0  0  0  0  0  0  0
   56.3770   26.9990   45.6260 C   0  0  0  0  0  0  0  0  0  0  0  0
   56.3690   28.3420   45.2550 C   0  0  0  0  0  0  0  0  0  0  0  0
   55.1560   28.9690   44.9860 O   0  0  0  0  0  0  0  0  0  0  0  0
   57.5900   29.0370   45.1880 C   0  0  0  0  0  0  0  0  0  0  0  0
   57.6660   30.4610   44.7880 C   0  0  0  0  0  0  0  0  0  0  0  0
   57.6520   30.8450   43.4330 C   0  0  0  0  0  0  0  0  0  0  0  0
   57.7490   32.1950   43.0820 C   0  0  0  0  0  0  0  0  0  0  0  0
   57.8740   33.1710   44.0730 C   0  0  0  0  0  0  0  0  0  0  0  0
   57.9110   32.7980   45.4190 C   0  0  0  0  0  0  0  0  0  0  0  0
   57.8150   31.4490   45.7760 C   0  0  0  0  0  0  0  0  0  0  0  0
   58.7190   28.4080   45.5080 O   0  0  0  0  0  0  0  0  0  0  0  0
   58.7660   27.1310   45.8770 C   0  0  0  0  0  0  0  0  0  0  0  0
   59.8800   26.6200   46.1660 O   0  0  0  0  0  0  0  0  0  0  0  0
   55.7367   24.6388   44.3855 H   0  0  0  0  0  0  0  0  0  0  0  0
   55.6047   22.8323   42.6720 H   0  0  0  0  0  0  0  0  0  0  0  0
   57.3295   21.0296   42.6155 H   0  0  0  0  0  0  0  0  0  0  0  0
   59.1951   21.0343   44.2736 H   0  0  0  0  0  0  0  0  0  0  0  0
   59.3385   22.8368   45.9916 H   0  0  0  0  0  0  0  0  0  0  0  0
   55.4343   26.4334   45.6623 H   0  0  0  0  0  0  0  0  0  0  0  0
   57.5644   30.0798   42.6477 H   0  0  0  0  0  0  0  0  0  0  0  0
   57.7268   32.4891   42.0223 H   0  0  0  0  0  0  0  0  0  0  0  0
   57.9433   34.2328   43.7941 H   0  0  0  0  0  0  0  0  0  0  0  0
   58.0158   33.5664   46.1991 H   0  0  0  0  0  0  0  0  0  0  0  0
   57.8564   31.1598   46.8365 H   0  0  0  0  0  0  0  0  0  0  0  0
  1  2  2  0
  2  3  1  0
  3  4  2  0
  4  5  1  0
  5  6  2  0
  6  7  1  0
  7  8  2  0
  2  9  1  0
  9 10  2  0
 10 11  1  0
 11 12  1  0
 11 13  2  0
 13 14  1  0
 14 15  2  0
 15 16  1  0
 16 17  2  0
 17 18  1  0
 18 19  2  0
 13 20  1  0
 20 21  1  0
 21 22  2  0
  8  3  1  0
 21  9  1  0
 19 14  1  0
  4 23  1  0
  5 24  1  0
  6 25  1  0
  7 26  1  0
  8 27  1  0
 10 28  1  0
 15 29  1  0
 16 30  1  0
 17 31  1  0
 18 32  1  0
 19 33  1  0
M  CHG  1  12  -1
M  END
>  <UniqueID>  (18) 
16

>  <SMILES>  (18) 
O=C(c1ccccc1)c1cc([O-])c(-c2ccccc2)oc1=O

>  <Energy>  (18) 
50.791351410718825

>  <Genealogy>  (18) 
O=C(c1ccccc1)c1cc([O-])c(-c2ccccc2)oc1=O (protonated)
O=C(c1ccccc1)c1cc([O-])c(-c2ccccc2)oc1=O (3D coordinates assigned)
O=C(c1ccccc1)c1cc([O-])c(-c2ccccc2)oc1=O (optimized conformer: 50.791351410718825 kcal/mol)

>  <smiles>  (18) 
O=C(c1ccccc1)c1cc(O)c(-c2ccccc2)oc1=O

>  <score_type>  (18) 
oracle

>  <origin>  (18) 
adg

>  <m_score__min__energy>  (18) 
-10.550000000000001

>  <m_primary>  (18) 
energy

$$$$
18:0
     RDKit          3D

 27 28  0  0  0  0  0  0  0  0999 V2000
   55.4437   28.8944   43.4244 H   0  0  0  0  0  0  0  0  0  0  0  0
   56.1470   29.7180   43.6170 C   0  0  0  0  0  0  0  0  0  0  0  0
   56.5420   29.9900   44.8880 N   0  0  0  0  0  0  0  0  0  0  0  0
   57.4060   31.0050   45.1750 C   0  0  0  0  0  0  0  0  0  0  0  0
   57.7910   31.2380   46.3970 N   0  0  0  0  0  0  0  0  0  0  0  0
   58.4130   32.4370   46.8870 C   0  0  0  0  0  0  0  0  0  0  0  0
   57.6790   33.3520   47.3450 O   0  0  0  0  0  0  0  0  0  0  0  0
   59.8860   32.5900   46.9530 C   0  0  0  0  0  0  0  0  0  0  0  0
   60.6620   31.5510   47.4990 C   0  0  0  0  0  0  0  0  0  0  0  0
   60.1710   30.6336   47.8557 H   0  0  0  0  0  0  0  0  0  0  0  0
   62.0490   31.6740   47.5920 C   0  0  0  0  0  0  0  0  0  0  0  0
   62.6455   30.8536   48.0176 H   0  0  0  0  0  0  0  0  0  0  0  0
   62.6810   32.8360   47.1460 C   0  0  0  0  0  0  0  0  0  0  0  0
   63.7744   32.9309   47.2198 H   0  0  0  0  0  0  0  0  0  0  0  0
   61.9240   33.8780   46.6060 C   0  0  0  0  0  0  0  0  0  0  0  0
   62.4254   34.7920   46.2550 H   0  0  0  0  0  0  0  0  0  0  0  0
   60.5310   33.7680   46.5080 C   0  0  0  0  0  0  0  0  0  0  0  0
   59.6410   35.0960   45.7710 Cl  0  0  0  0  0  0  0  0  0  0  0  0
   57.9220   31.7850   44.1340 C   0  0  0  0  0  0  0  0  0  0  0  0
   58.6407   32.5892   44.3503 H   0  0  0  0  0  0  0  0  0  0  0  0
   57.5190   31.5370   42.8140 C   0  0  0  0  0  0  0  0  0  0  0  0
   58.0870   32.3420   41.6840 C   0  0  0  0  0  0  0  0  0  0  0  0
   58.6766   33.1776   42.0892 H   0  0  0  0  0  0  0  0  0  0  0  0
   58.7344   31.7017   41.0669 H   0  0  0  0  0  0  0  0  0  0  0  0
   57.2667   32.7373   41.0669 H   0  0  0  0  0  0  0  0  0  0  0  0
   56.6330   30.4830   42.5550 C   0  0  0  0  0  0  0  0  0  0  0  0
   56.3229   30.2601   41.5234 H   0  0  0  0  0  0  0  0  0  0  0  0
  1  2  1  0
  2  3  1  0
  3  4  1  0
  4  5  2  0
  5  6  1  0
  6  7  2  0
  6  8  1  0
  8  9  2  0
  9 10  1  0
  9 11  1  0
 11 12  1  0
 11 13  2  0
 13 14  1  0
 13 15  1  0
 15 16  1  0
 15 17  2  0
 17 18  1  0
  4 19  1  0
 19 20  1  0
 19 21  2  0
 21 22  1  0
 22 23  1  0
 22 24  1  0
 22 25  1  0
 21 26  1  0
 26 27  1  0
 26  2  2  0
 17  8  1  0
M  CHG  1   3  -1
M  END
>  <UniqueID>  (19) 
17

>  <SMILES>  (19) 
Cc1cc[n-]/c(=N\C(=O)c2ccccc2Cl)c1

>  <Energy>  (19) 
37.59434941961982

>  <Genealogy>  (19) 
Cc1cc[n-]c(=NC(=O)c2ccccc2Cl)c1 (protonated)
Cc1cc[n-]/c(=N\C(=O)c2ccccc2Cl)c1 (cis-trans isomerization)
Cc1cc[n-]/c(=N\C(=O)c2ccccc2Cl)c1 (3D coordinates assigned)
Cc1cc[n-]/c(=N\C(=O)c2ccccc2Cl)c1 (optimized conformer: 37.59434941961982 kcal/mol)

>  <smiles>  (19) 
Cc1cc[nH]c(=NC(=O)c2ccccc2Cl)c1

>  <score_type>  (19) 
oracle

>  <origin>  (19) 
adg

>  <m_score__min__energy>  (19) 
-8.6600000000000001

>  <m_primary>  (19) 
energy

$$$$
19:0
     RDKit          3D

 39 41  0  0  0  0  0  0  0  0999 V2000
   55.4230   26.7430   45.9930 O   0  0  0  0  0  0  0  0  0  0  0  0
   56.4860   26.1110   46.2410 C   0  0  0  0  0  0  0  0  0  0  0  0
   56.4630   24.6800   46.3340 N   0  0  0  0  0  0  0  0  0  0  0  0
   56.6510   23.7410   45.2650 C   0  0  0  0  0  0  0  0  0  0  0  0
   57.6680   22.7680   45.2910 C   0  0  0  0  0  0  0  0  0  0  0  0
   57.8270   21.8870   44.2150 C   0  0  0  0  0  0  0  0  0  0  0  0
   56.9870   21.9820   43.1020 C   0  0  0  0  0  0  0  0  0  0  0  0
   55.9940   22.9650   43.0580 C   0  0  0  0  0  0  0  0  0  0  0  0
   55.8320   23.8440   44.1330 C   0  0  0  0  0  0  0  0  0  0  0  0
   57.7590   26.8610   46.4120 C   0  0  0  0  0  0  0  0  0  0  0  0
   58.5410   26.6130   47.5580 C   0  0  0  0  0  0  0  0  0  0  0  0
   59.7560   27.2710   47.7490 C   0  0  0  0  0  0  0  0  0  0  0  0
   60.2100   28.1870   46.8050 C   0  0  0  0  0  0  0  0  0  0  0  0
   59.4480   28.4570   45.6680 C   0  0  0  0  0  0  0  0  0  0  0  0
   58.2160   27.8070   45.4580 C   0  0  0  0  0  0  0  0  0  0  0  0
   57.4060   28.1190   44.3140 N   0  0  0  0  0  0  0  0  0  0  0  0
   56.4350   29.5420   44.1140 S   0  0  0  0  0  0  0  0  0  0  0  0
   55.1490   29.3750   44.8750 O   0  0  0  0  0  0  0  0  0  0  0  0
   56.1160   29.7220   42.6570 O   0  0  0  0  0  0  0  0  0  0  0  0
   57.3290   30.9510   44.6780 C   0  0  0  0  0  0  0  0  0  0  0  0
   57.6100   31.9950   43.7870 C   0  0  0  0  0  0  0  0  0  0  0  0
   58.3330   33.1120   44.2170 C   0  0  0  0  0  0  0  0  0  0  0  0
   58.7790   33.1900   45.5410 C   0  0  0  0  0  0  0  0  0  0  0  0
   59.6890   34.5890   46.0790 Cl  0  0  0  0  0  0  0  0  0  0  0  0
   58.4960   32.1510   46.4360 C   0  0  0  0  0  0  0  0  0  0  0  0
   57.7730   31.0330   46.0060 C   0  0  0  0  0  0  0  0  0  0  0  0
   58.3397   22.6998   46.1594 H   0  0  0  0  0  0  0  0  0  0  0  0
   58.6139   21.1190   44.2454 H   0  0  0  0  0  0  0  0  0  0  0  0
   57.1072   21.2834   42.2608 H   0  0  0  0  0  0  0  0  0  0  0  0
   55.3400   23.0469   42.1774 H   0  0  0  0  0  0  0  0  0  0  0  0
   55.0558   24.6222   44.0897 H   0  0  0  0  0  0  0  0  0  0  0  0
   58.1891   25.8921   48.3106 H   0  0  0  0  0  0  0  0  0  0  0  0
   60.3564   27.0654   48.6475 H   0  0  0  0  0  0  0  0  0  0  0  0
   61.1717   28.6993   46.9556 H   0  0  0  0  0  0  0  0  0  0  0  0
   59.8128   29.1847   44.9281 H   0  0  0  0  0  0  0  0  0  0  0  0
   57.2607   31.9358   42.7456 H   0  0  0  0  0  0  0  0  0  0  0  0
   58.5512   33.9296   43.5142 H   0  0  0  0  0  0  0  0  0  0  0  0
   58.8424   32.2138   47.4781 H   0  0  0  0  0  0  0  0  0  0  0  0
   57.5525   30.2173   46.7103 H   0  0  0  0  0  0  0  0  0  0  0  0
  1  2  2  0
  2  3  1  0
  3  4  1  0
  4  5  2  0
  5  6  1  0
  6  7  2  0
  7  8  1  0
  8  9  2  0
  2 10  1  0
 10 11  2  0
 11 12  1  0
 12 13  2  0
 13 14  1  0
 14 15  2  0
 15 16  1  0
 16 17  1  0
 17 18  2  0
 17 19  2  0
 17 20  1  0
 20 21  2  0
 21 22  1  0
 22 23  2  0
 23 24  1  0
 23 25  1  0
 25 26  2  0
  9  4  1  0
 15 10  1  0
 26 20  1  0
  5 27  1  0
  6 28  1  0
  7 29  1  0
  8 30  1  0
  9 31  1  0
 11 32  1  0
 12 33  1  0
 13 34  1  0
 14 35  1  0
 21 36  1  0
 22 37  1  0
 25 38  1  0
 26 39  1  0
M  CHG  2   3  -1  16  -1
M  END
>  <UniqueID>  (20) 
18

>  <SMILES>  (20) 
O=C([N-]c1ccccc1)c1ccccc1[N-]S(=O)(=O)c1ccc(Cl)cc1

>  <Energy>  (20) 
52.02476981955234

>  <Genealogy>  (20) 
O=C([N-]c1ccccc1)c1ccccc1[N-]S(=O)(=O)c1ccc(Cl)cc1 (protonated)
O=C([N-]c1ccccc1)c1ccccc1[N-]S(=O)(=O)c1ccc(Cl)cc1 (3D coordinates assigned)
O=C([N-]c1ccccc1)c1ccccc1[N-]S(=O)(=O)c1ccc(Cl)cc1 (optimized conformer: 52.02476981955234 kcal/mol)

>  <smiles>  (20) 
O=C(Nc1ccccc1)c1ccccc1NS(=O)(=O)c1ccc(Cl)cc1

>  <score_type>  (20) 
oracle

>  <origin>  (20) 
adg

>  <m_score__min__energy>  (20) 
-12.93

>  <m_primary>  (20) 
energy

$$$$
20:0
     RDKit          3D

 43 45  0  0  0  0  0  0  0  0999 V2000
   59.6440   35.3310   46.1430 C   0  0  0  0  0  0  0  0  0  0  0  0
   59.2650   34.3280   45.0520 C   0  0  0  0  0  0  0  0  0  0  0  0
   57.7460   34.2280   44.8370 C   0  0  0  0  0  0  0  0  0  0  0  0
   57.0330   33.2890   45.8300 C   0  0  0  0  0  0  0  0  0  0  0  0
   57.7800   32.0200   46.0270 N   0  0  0  0  0  0  0  0  0  0  0  0
   58.6980   31.9400   47.0520 C   0  0  0  0  0  0  0  0  0  0  0  0
   58.8950   32.9430   47.7950 O   0  0  0  0  0  0  0  0  0  0  0  0
   59.4030   30.7870   47.2860 N   0  0  0  0  0  0  0  0  0  0  0  0
   60.4010   30.7460   48.3780 C   0  0  0  0  0  0  0  0  0  0  0  0
   61.4330   31.8310   48.1910 C   0  0  0  0  0  0  0  0  0  0  0  0
   62.3740   31.7460   47.1500 C   0  0  0  0  0  0  0  0  0  0  0  0
   63.3470   32.7400   46.9990 C   0  0  0  0  0  0  0  0  0  0  0  0
   63.3900   33.8200   47.8830 C   0  0  0  0  0  0  0  0  0  0  0  0
   62.4590   33.9100   48.9220 C   0  0  0  0  0  0  0  0  0  0  0  0
   61.4850   32.9190   49.0780 C   0  0  0  0  0  0  0  0  0  0  0  0
   59.2120   29.6900   46.4910 C   0  0  0  0  0  0  0  0  0  0  0  0
   59.8660   28.6290   46.7020 O   0  0  0  0  0  0  0  0  0  0  0  0
   58.2910   29.7340   45.4390 C   0  0  0  0  0  0  0  0  0  0  0  0
   58.0760   28.6180   44.6070 C   0  0  0  0  0  0  0  0  0  0  0  0
   57.1780   28.6800   43.5910 N   0  0  0  0  0  0  0  0  0  0  0  0
   56.4650   29.8070   43.3460 C   0  0  0  0  0  0  0  0  0  0  0  0
   56.6410   30.9400   44.1410 C   0  0  0  0  0  0  0  0  0  0  0  0
   57.5670   30.9250   45.2130 C   0  0  0  0  0  0  0  0  0  0  0  0
   59.4734   34.8795   47.1315 H   0  0  0  0  0  0  0  0  0  0  0  0
   60.7057   35.5999   46.0410 H   0  0  0  0  0  0  0  0  0  0  0  0
   59.0254   36.2349   46.0410 H   0  0  0  0  0  0  0  0  0  0  0  0
   59.7338   34.6419   44.1077 H   0  0  0  0  0  0  0  0  0  0  0  0
   59.6200   33.3380   45.3742 H   0  0  0  0  0  0  0  0  0  0  0  0
   57.3147   35.2345   44.9420 H   0  0  0  0  0  0  0  0  0  0  0  0
   57.5937   33.8047   43.8332 H   0  0  0  0  0  0  0  0  0  0  0  0
   56.9399   33.8009   46.7992 H   0  0  0  0  0  0  0  0  0  0  0  0
   56.0446   33.0417   45.4154 H   0  0  0  0  0  0  0  0  0  0  0  0
   59.8904   30.8940   49.3410 H   0  0  0  0  0  0  0  0  0  0  0  0
   60.9053   29.7685   48.3629 H   0  0  0  0  0  0  0  0  0  0  0  0
   62.3452   30.8959   46.4525 H   0  0  0  0  0  0  0  0  0  0  0  0
   64.0800   32.6705   46.1818 H   0  0  0  0  0  0  0  0  0  0  0  0
   64.1563   34.5998   47.7619 H   0  0  0  0  0  0  0  0  0  0  0  0
   62.4927   34.7614   49.6176 H   0  0  0  0  0  0  0  0  0  0  0  0
   60.7563   32.9917   49.8988 H   0  0  0  0  0  0  0  0  0  0  0  0
   58.6397   27.6897   44.7818 H   0  0  0  0  0  0  0  0  0  0  0  0
   57.0320   27.8420   42.9840 H   0  0  0  0  0  0  0  0  0  0  0  0
   55.7437   29.8282   42.5158 H   0  0  0  0  0  0  0  0  0  0  0  0
   56.0578   31.8495   43.9343 H   0  0  0  0  0  0  0  0  0  0  0  0
  1  2  1  0
  2  3  1  0
  3  4  1  0
  4  5  1  0
  5  6  1  0
  6  7  2  0
  6  8  1  0
  8  9  1  0
  9 10  1  0
 10 11  2  0
 11 12  1  0
 12 13  2  0
 13 14  1  0
 14 15  2  0
  8 16  1  0
 16 17  2  0
 16 18  1  0
 18 19  2  0
 19 20  1  0
 20 21  2  0
 21 22  1  0
 22 23  2  0
 23  5  1  0
 15 10  1  0
 23 18  1  0
  1 24  1  0
  1 25  1  0
  1 26  1  0
  2 27  1  0
  2 28  1  0
  3 29  1  0
  3 30  1  0
  4 31  1  0
  4 32  1  0
  9 33  1  0
  9 34  1  0
 11 35  1  0
 12 36  1  0
 13 37  1  0
 14 38  1  0
 15 39  1  0
 19 40  1  0
 20 41  1  0
 21 42  1  0
 22 43  1  0
M  CHG  1  20   1
M  END
>  <UniqueID>  (21) 
19

>  <SMILES>  (21) 
CCCCn1c(=O)n(Cc2ccccc2)c(=O)c2c[nH+]ccc21

>  <Energy>  (21) 
55.214318234745306

>  <Genealogy>  (21) 
CCCCn1c(=O)n(Cc2ccccc2)c(=O)c2c[nH+]ccc21 (protonated)
CCCCn1c(=O)n(Cc2ccccc2)c(=O)c2c[nH+]ccc21 (3D coordinates assigned)
CCCCn1c(=O)n(Cc2ccccc2)c(=O)c2c[nH+]ccc21 (optimized conformer: 55.214318234745306 kcal/mol)

>  <smiles>  (21) 
CCCCn1c(=O)n(Cc2ccccc2)c(=O)c2cnccc21

>  <score_type>  (21) 
oracle

>  <origin>  (21) 
adg

>  <m_score__min__energy>  (21) 
-6.2199999999999998

>  <m_primary>  (21) 
energy

$$$$
21:0
     RDKit          3D

 35 38  0  0  1  0  0  0  0  0999 V2000
   60.2190   26.7550   48.4590 C   0  0  0  0  0  0  0  0  0  0  0  0
   59.1790   27.0590   47.4940 N   0  0  0  0  0  0  0  0  0  0  0  0
   59.0600   28.2160   46.7770 C   0  0  0  0  0  0  0  0  0  0  0  0
   57.9460   28.1120   45.9750 C   0  0  0  0  0  0  0  0  0  0  0  0
   57.4870   29.1840   45.0410 C   0  0  0  0  0  0  0  0  0  0  0  0
   57.5070   30.4450   45.3800 N   0  0  0  0  0  0  0  0  0  0  0  0
   57.1280   31.3810   44.6220 C   0  0  0  0  0  0  0  0  0  0  0  0
   57.0240   32.6800   44.6530 N   0  0  0  0  0  0  0  0  0  0  0  0
   57.9530   33.4510   45.4430 C   0  0  0  0  0  0  0  0  0  0  0  0
   58.7540   34.4230   44.8790 C   0  0  0  0  0  0  0  0  0  0  0  0
   59.6160   35.1080   45.7360 C   0  0  0  0  0  0  0  0  0  0  0  0
   59.6680   34.8350   47.0600 N   0  0  0  0  0  0  0  0  0  0  0  0
   58.8920   33.8940   47.6060 C   0  0  0  0  0  0  0  0  0  0  0  0
   58.0170   33.1820   46.8020 C   0  0  0  0  0  0  0  0  0  0  0  0
   56.5990   30.4710   43.0500 S   0  0  0  0  0  0  0  0  0  0  0  0
   57.0460   28.8770   43.8360 N   0  0  0  0  0  0  0  0  0  0  0  0
   57.3610   26.8850   46.1880 C   0  0  0  0  0  0  0  0  0  0  0  0
   56.2350   26.2830   45.6490 C   0  0  0  0  0  0  0  0  0  0  0  0
   55.8660   25.0250   46.0460 C   0  0  0  0  0  0  0  0  0  0  0  0
   56.6410   24.3850   46.9880 C   0  0  0  0  0  0  0  0  0  0  0  0
   57.7580   24.9710   47.5300 C   0  0  0  0  0  0  0  0  0  0  0  0
   58.1480   26.2420   47.1420 C   0  0  0  0  0  0  0  0  0  0  0  0
   59.8198   26.8717   49.4773 H   0  0  0  0  0  0  0  0  0  0  0  0
   60.5609   25.7193   48.3156 H   0  0  0  0  0  0  0  0  0  0  0  0
   61.0648   27.4435   48.3156 H   0  0  0  0  0  0  0  0  0  0  0  0
   59.7373   29.0811   46.8312 H   0  0  0  0  0  0  0  0  0  0  0  0
   58.7147   34.6475   43.8029 H   0  0  0  0  0  0  0  0  0  0  0  0
   60.2704   35.8905   45.3243 H   0  0  0  0  0  0  0  0  0  0  0  0
   58.9476   33.6865   48.6848 H   0  0  0  0  0  0  0  0  0  0  0  0
   57.3741   32.4047   47.2407 H   0  0  0  0  0  0  0  0  0  0  0  0
   56.9300   27.9840   43.3320 H   0  0  0  0  0  0  0  0  0  0  0  0
   55.6346   26.8181   44.8986 H   0  0  0  0  0  0  0  0  0  0  0  0
   54.9743   24.5386   45.6237 H   0  0  0  0  0  0  0  0  0  0  0  0
   56.3564   23.3743   47.3157 H   0  0  0  0  0  0  0  0  0  0  0  0
   58.3493   24.4254   48.2801 H   0  0  0  0  0  0  0  0  0  0  0  0
  1  2  1  0
  2  3  1  0
  3  4  2  0
  4  5  1  0
  5  6  2  0
  6  7  1  0
  7  8  2  0
  8  9  1  0
  9 10  2  0
 10 11  1  0
 11 12  2  0
 12 13  1  0
 13 14  2  0
  7 15  1  0
 15 16  1  0
  4 17  1  0
 17 18  2  0
 18 19  1  0
 19 20  2  0
 20 21  1  0
 21 22  2  0
 22  2  1  0
 16  5  1  0
 22 17  1  0
 14  9  1  0
  1 23  1  0
  1 24  1  0
  1 25  1  0
  3 26  1  0
 10 27  1  0
 11 28  1  0
 13 29  1  0
 14 30  1  0
 16 31  1  0
 18 32  1  0
 19 33  1  0
 20 34  1  0
 21 35  1  0
M  END
>  <smiles>  (22) 
Cn1cc(-c2nc(=Nc3ccncc3)s[nH]2)c2ccccc21

>  <score_type>  (22) 
oracle

>  <origin>  (22) 
adg

>  <m_score__min__energy>  (22) 
-7.7800000000000002

>  <m_primary>  (22) 
energy

$$$$
22:0
     RDKit          3D

 40 43  0  0  0  0  0  0  0  0999 V2000
   56.7150   34.1140   45.2150 F   0  0  0  0  0  0  0  0  0  0  0  0
   57.8930   34.0570   45.8860 C   0  0  0  0  0  0  0  0  0  0  0  0
   59.0540   34.5750   45.3060 C   0  0  0  0  0  0  0  0  0  0  0  0
   60.2690   34.5170   45.9970 C   0  0  0  0  0  0  0  0  0  0  0  0
   60.3290   33.9350   47.2740 C   0  0  0  0  0  0  0  0  0  0  0  0
   61.6410   33.8700   48.0130 C   0  0  0  0  0  0  0  0  0  0  0  0
   62.7300   33.8010   47.1100 O   0  0  0  0  0  0  0  0  0  0  0  0
   63.3290   32.5190   47.1290 C   0  0  0  0  0  0  0  0  0  0  0  0
   62.5990   31.6090   48.0740 C   0  0  0  0  0  0  0  0  0  0  0  0
   62.9600   31.4190   49.3650 N   0  0  0  0  0  0  0  0  0  0  0  0
   62.0700   30.5960   49.9150 N   0  0  0  0  0  0  0  0  0  0  0  0
   61.1870   30.3120   48.9430 C   0  0  0  0  0  0  0  0  0  0  0  0
   60.0980   29.5180   49.0690 N   0  0  0  0  0  0  0  0  0  0  0  0
   59.2840   29.3430   47.9860 C   0  0  0  0  0  0  0  0  0  0  0  0
   59.5690   29.9810   46.7510 C   0  0  0  0  0  0  0  0  0  0  0  0
   58.6830   29.8050   45.5720 C   0  0  0  0  0  0  0  0  0  0  0  0
   57.9170   30.8820   45.0850 C   0  0  0  0  0  0  0  0  0  0  0  0
   57.0890   30.7170   43.9710 C   0  0  0  0  0  0  0  0  0  0  0  0
   57.0150   29.4770   43.3300 C   0  0  0  0  0  0  0  0  0  0  0  0
   56.2120   29.3190   42.2490 F   0  0  0  0  0  0  0  0  0  0  0  0
   57.7710   28.4020   43.8030 C   0  0  0  0  0  0  0  0  0  0  0  0
   58.6010   28.5620   44.9170 C   0  0  0  0  0  0  0  0  0  0  0  0
   60.7190   30.7940   46.6770 C   0  0  0  0  0  0  0  0  0  0  0  0
   61.4790   30.9200   47.7930 N   0  0  0  0  0  0  0  0  0  0  0  0
   59.1570   33.4210   47.8530 C   0  0  0  0  0  0  0  0  0  0  0  0
   57.9440   33.4810   47.1590 C   0  0  0  0  0  0  0  0  0  0  0  0
   59.0125   35.0289   44.3049 H   0  0  0  0  0  0  0  0  0  0  0  0
   61.1804   34.9285   45.5388 H   0  0  0  0  0  0  0  0  0  0  0  0
   61.7474   34.7699   48.6366 H   0  0  0  0  0  0  0  0  0  0  0  0
   61.6464   32.9648   48.6380 H   0  0  0  0  0  0  0  0  0  0  0  0
   63.2970   32.0899   46.1166 H   0  0  0  0  0  0  0  0  0  0  0  0
   64.3710   32.6193   47.4668 H   0  0  0  0  0  0  0  0  0  0  0  0
   58.3962   28.6993   48.0724 H   0  0  0  0  0  0  0  0  0  0  0  0
   57.9708   31.8603   45.5851 H   0  0  0  0  0  0  0  0  0  0  0  0
   56.4947   31.5642   43.5982 H   0  0  0  0  0  0  0  0  0  0  0  0
   57.7133   27.4266   43.2977 H   0  0  0  0  0  0  0  0  0  0  0  0
   59.1936   27.7109   45.2837 H   0  0  0  0  0  0  0  0  0  0  0  0
   60.9908   31.3094   45.7440 H   0  0  0  0  0  0  0  0  0  0  0  0
   59.1932   32.9698   48.8555 H   0  0  0  0  0  0  0  0  0  0  0  0
   57.0293   33.0746   47.6152 H   0  0  0  0  0  0  0  0  0  0  0  0
  1  2  1  0
  2  3  2  0
  3  4  1  0
  4  5  2  0
  5  6  1  0
  6  7  1  0
  7  8  1  0
  8  9  1  0
  9 10  2  0
 10 11  1  0
 11 12  2  0
 12 13  1  0
 13 14  2  0
 14 15  1  0
 15 16  1  0
 16 17  2  0
 17 18  1  0
 18 19  2  0
 19 20  1  0
 19 21  1  0
 21 22  2  0
 15 23  2  0
 23 24  1  0
  5 25  1  0
 25 26  2  0
 26  2  1  0
 24  9  1  0
 24 12  1  0
 22 16  1  0
  3 27  1  0
  4 28  1  0
  6 29  1  0
  6 30  1  0
  8 31  1  0
  8 32  1  0
 14 33  1  0
 17 34  1  0
 18 35  1  0
 21 36  1  0
 22 37  1  0
 23 38  1  0
 25 39  1  0
 26 40  1  0
M  END
>  <UniqueID>  (23) 
20

>  <SMILES>  (23) 
Fc1ccc(COCc2nnc3ncc(-c4ccc(F)cc4)cn23)cc1

>  <Energy>  (23) 
93.8485450355423

>  <Genealogy>  (23) 
Fc1ccc(COCc2nnc3ncc(-c4ccc(F)cc4)cn23)cc1 (3D coordinates assigned)
Fc1ccc(COCc2nnc3ncc(-c4ccc(F)cc4)cn23)cc1 (optimized conformer: 93.8485450355423 kcal/mol)

>  <smiles>  (23) 
Fc1ccc(COCc2nnc3ncc(-c4ccc(F)cc4)cn23)cc1

>  <score_type>  (23) 
oracle

>  <origin>  (23) 
adg

>  <m_score__min__energy>  (23) 
-7.8399999999999999

>  <m_primary>  (23) 
energy

$$$$
23:0
     RDKit          3D

 39 41  0  0  0  0  0  0  0  0999 V2000
   60.6330   30.0250   46.5690 C   0  0  0  0  0  0  0  0  0  0  0  0
   60.4270   28.6800   46.0050 N   0  0  0  0  0  0  0  0  0  0  0  0
   60.1460   28.7920   44.5620 C   0  0  0  0  0  0  0  0  0  0  0  0
   59.3240   27.9910   46.7100 C   0  0  0  0  0  0  0  0  0  0  0  0
   58.0550   28.8520   46.6960 C   0  0  0  0  0  0  0  0  0  0  0  0
   57.2380   28.5470   45.5230 N   0  0  0  0  0  0  0  0  0  0  0  0
   56.3930   29.4790   44.8360 C   0  0  0  0  0  0  0  0  0  0  0  0
   55.1450   29.3390   44.9090 O   0  0  0  0  0  0  0  0  0  0  0  0
   56.9450   30.5870   44.0310 C   0  0  0  0  0  0  0  0  0  0  0  0
   56.7570   30.5840   42.6390 C   0  0  0  0  0  0  0  0  0  0  0  0
   57.2830   31.6110   41.8500 C   0  0  0  0  0  0  0  0  0  0  0  0
   57.9890   32.6620   42.4410 C   0  0  0  0  0  0  0  0  0  0  0  0
   58.1620   32.6940   43.8270 C   0  0  0  0  0  0  0  0  0  0  0  0
   58.8300   33.7240   44.4120 N   0  0  0  0  0  0  0  0  0  0  0  0
   58.9930   33.7800   45.7600 C   0  0  0  0  0  0  0  0  0  0  0  0
   59.6820   34.8440   46.3510 C   0  0  0  0  0  0  0  0  0  0  0  0
   59.8380   34.8880   47.7410 C   0  0  0  0  0  0  0  0  0  0  0  0
   59.3040   33.8710   48.5410 C   0  0  0  0  0  0  0  0  0  0  0  0
   58.6110   32.8050   47.9560 C   0  0  0  0  0  0  0  0  0  0  0  0
   58.4540   32.7550   46.5670 C   0  0  0  0  0  0  0  0  0  0  0  0
   57.7870   31.7260   45.9830 N   0  0  0  0  0  0  0  0  0  0  0  0
   57.6340   31.6590   44.6320 C   0  0  0  0  0  0  0  0  0  0  0  0
   60.6242   29.9673   47.6674 H   0  0  0  0  0  0  0  0  0  0  0  0
   61.6021   30.4201   46.2304 H   0  0  0  0  0  0  0  0  0  0  0  0
   59.8265   30.6921   46.2304 H   0  0  0  0  0  0  0  0  0  0  0  0
   59.1332   29.1957   44.4159 H   0  0  0  0  0  0  0  0  0  0  0  0
   60.8801   29.4663   44.0967 H   0  0  0  0  0  0  0  0  0  0  0  0
   60.2150   27.7976   44.0967 H   0  0  0  0  0  0  0  0  0  0  0  0
   59.1171   27.0335   46.2095 H   0  0  0  0  0  0  0  0  0  0  0  0
   59.6236   27.8170   47.7540 H   0  0  0  0  0  0  0  0  0  0  0  0
   57.4708   28.6494   47.6058 H   0  0  0  0  0  0  0  0  0  0  0  0
   58.3466   29.9120   46.6586 H   0  0  0  0  0  0  0  0  0  0  0  0
   56.1916   29.7674   42.1663 H   0  0  0  0  0  0  0  0  0  0  0  0
   57.1406   31.5917   40.7594 H   0  0  0  0  0  0  0  0  0  0  0  0
   58.4083   33.4637   41.8154 H   0  0  0  0  0  0  0  0  0  0  0  0
   60.1007   35.6451   45.7241 H   0  0  0  0  0  0  0  0  0  0  0  0
   60.3815   35.7237   48.2060 H   0  0  0  0  0  0  0  0  0  0  0  0
   59.4295   33.9098   49.6331 H   0  0  0  0  0  0  0  0  0  0  0  0
   58.1907   32.0082   48.5872 H   0  0  0  0  0  0  0  0  0  0  0  0
  1  2  1  0
  2  3  1  0
  2  4  1  0
  4  5  1  0
  5  6  1  0
  6  7  1  0
  7  8  2  0
  7  9  1  0
  9 10  2  0
 10 11  1  0
 11 12  2  0
 12 13  1  0
 13 14  2  0
 14 15  1  0
 15 16  2  0
 16 17  1  0
 17 18  2  0
 18 19  1  0
 19 20  2  0
 20 21  1  0
 21 22  2  0
 22  9  1  0
 22 13  1  0
 20 15  1  0
  1 23  1  0
  1 24  1  0
  1 25  1  0
  3 26  1  0
  3 27  1  0
  3 28  1  0
  4 29  1  0
  4 30  1  0
  5 31  1  0
  5 32  1  0
 10 33  1  0
 11 34  1  0
 12 35  1  0
 16 36  1  0
 17 37  1  0
 18 38  1  0
 19 39  1  0
M  CHG  1   6  -1
M  END
>  <UniqueID>  (24) 
21

>  <SMILES>  (24) 
CN(C)CC[N-]C(=O)c1cccc2nc3ccccc3nc12

>  <Energy>  (24) 
50.63286622600138

>  <Genealogy>  (24) 
CN(C)CC[N-]C(=O)c1cccc2nc3ccccc3nc12 (protonated)
CN(C)CC[N-]C(=O)c1cccc2nc3ccccc3nc12 (3D coordinates assigned)
CN(C)CC[N-]C(=O)c1cccc2nc3ccccc3nc12 (optimized conformer: 50.63286622600138 kcal/mol)

>  <smiles>  (24) 
CN(C)CCNC(=O)c1cccc2nc3ccccc3nc12

>  <score_type>  (24) 
oracle

>  <origin>  (24) 
adg

>  <m_score__min__energy>  (24) 
-9.4800000000000004

>  <m_primary>  (24) 
energy

$$$$
24:0
     RDKit          3D

 30 32  0  0  0  0  0  0  0  0999 V2000
   54.3780   29.7630   44.2040 H   0  0  0  0  0  0  0  0  0  0  0  0
   55.2740   29.2810   44.4450 N   0  0  0  0  0  0  0  0  0  0  0  0
   56.3040   29.9400   44.8670 C   0  0  0  0  0  0  0  0  0  0  0  0
   56.3210   31.2990   44.7980 N   0  0  0  0  0  0  0  0  0  0  0  0
   57.3860   32.0260   45.2320 C   0  0  0  0  0  0  0  0  0  0  0  0
   57.3650   33.4220   45.1500 C   0  0  0  0  0  0  0  0  0  0  0  0
   56.4851   33.9344   44.7338 H   0  0  0  0  0  0  0  0  0  0  0  0
   58.4600   34.1670   45.5960 C   0  0  0  0  0  0  0  0  0  0  0  0
   58.4323   35.2651   45.5384 H   0  0  0  0  0  0  0  0  0  0  0  0
   59.5930   33.5270   46.1160 C   0  0  0  0  0  0  0  0  0  0  0  0
   60.6630   34.3150   46.5640 O   0  0  0  0  0  0  0  0  0  0  0  0
   61.8050   33.8370   47.2270 C   0  0  0  0  0  0  0  0  0  0  0  0
   63.0000   33.5700   46.5310 C   0  0  0  0  0  0  0  0  0  0  0  0
   63.0454   33.7245   45.4429 H   0  0  0  0  0  0  0  0  0  0  0  0
   64.1280   33.1100   47.2150 C   0  0  0  0  0  0  0  0  0  0  0  0
   65.0547   32.8934   46.6634 H   0  0  0  0  0  0  0  0  0  0  0  0
   64.0800   32.9250   48.5980 C   0  0  0  0  0  0  0  0  0  0  0  0
   64.9677   32.5580   49.1340 H   0  0  0  0  0  0  0  0  0  0  0  0
   62.9070   33.2050   49.3020 C   0  0  0  0  0  0  0  0  0  0  0  0
   62.8743   33.0627   50.3923 H   0  0  0  0  0  0  0  0  0  0  0  0
   61.7710   33.6670   48.6230 C   0  0  0  0  0  0  0  0  0  0  0  0
   60.5690   33.9520   49.3650 C   0  0  0  0  0  0  0  0  0  0  0  0
   59.6030   34.1810   49.9600 N   0  0  0  0  0  0  0  0  0  0  0  0
   59.6100   32.1230   46.2190 C   0  0  0  0  0  0  0  0  0  0  0  0
   60.4848   31.6149   46.6510 H   0  0  0  0  0  0  0  0  0  0  0  0
   58.5140   31.3710   45.7720 C   0  0  0  0  0  0  0  0  0  0  0  0
   58.5110   29.9730   45.8520 C   0  0  0  0  0  0  0  0  0  0  0  0
   59.3791   29.4427   46.2705 H   0  0  0  0  0  0  0  0  0  0  0  0
   57.4030   29.2540   45.3990 C   0  0  0  0  0  0  0  0  0  0  0  0
   57.3934   28.1557   45.4596 H   0  0  0  0  0  0  0  0  0  0  0  0
  1  2  1  0
  2  3  2  0
  3  4  1  0
  4  5  1  0
  5  6  2  0
  6  7  1  0
  6  8  1  0
  8  9  1  0
  8 10  2  0
 10 11  1  0
 11 12  1  0
 12 13  2  0
 13 14  1  0
 13 15  1  0
 15 16  1  0
 15 17  2  0
 17 18  1  0
 17 19  1  0
 19 20  1  0
 19 21  2  0
 21 22  1  0
 22 23  3  0
 10 24  1  0
 24 25  1  0
 24 26  2  0
 26 27  1  0
 27 28  1  0
 27 29  2  0
 29 30  1  0
 29  3  1  0
 26  5  1  0
 21 12  1  0
M  CHG  1   4  -1
M  END
>  <UniqueID>  (25) 
22

>  <SMILES>  (25) 
[H]/N=c1/ccc2cc(Oc3ccccc3C#N)ccc2[n-]1

>  <Energy>  (25) 
41.98036382677177

>  <Genealogy>  (25) 
N#Cc1ccccc1Oc1ccc2[n-]c(=N)ccc2c1 (protonated)
[H]/N=c1/ccc2cc(Oc3ccccc3C#N)ccc2[n-]1 (cis-trans isomerization)
[H]/N=c1/ccc2cc(Oc3ccccc3C#N)ccc2[n-]1 (3D coordinates assigned)
[H]/N=c1/ccc2cc(Oc3ccccc3C#N)ccc2[n-]1 (optimized conformer: 41.98036382677177 kcal/mol)

>  <smiles>  (25) 
N#Cc1ccccc1Oc1ccc2[nH]c(=N)ccc2c1

>  <score_type>  (25) 
oracle

>  <origin>  (25) 
adg

>  <m_score__min__energy>  (25) 
-9.4299999999999997

>  <m_primary>  (25) 
energy

$$$$
25:0
     RDKit          3D

 40 41  0  0  0  0  0  0  0  0999 V2000
   58.5590   31.4490   47.3580 C   0  0  0  0  0  0  0  0  0  0  0  0
   58.3150   31.7030   45.8950 C   0  0  0  0  0  0  0  0  0  0  0  0
   58.1850   33.0320   45.4540 C   0  0  0  0  0  0  0  0  0  0  0  0
   57.8980   33.3110   44.1160 C   0  0  0  0  0  0  0  0  0  0  0  0
   57.7310   32.2680   43.2040 C   0  0  0  0  0  0  0  0  0  0  0  0
   57.8760   30.9450   43.6230 C   0  0  0  0  0  0  0  0  0  0  0  0
   58.2070   30.6490   44.9540 C   0  0  0  0  0  0  0  0  0  0  0  0
   58.3800   29.2740   45.3300 N   0  0  0  0  0  0  0  0  0  0  0  0
   57.2890   28.3440   45.3900 C   0  0  0  0  0  0  0  0  0  0  0  0
   56.1140   28.7240   45.1320 O   0  0  0  0  0  0  0  0  0  0  0  0
   57.5480   26.9010   45.7240 C   0  0  0  0  0  0  0  0  0  0  0  0
   56.4470   26.2650   46.6080 C   0  0  1  0  0  0  0  0  0  0  0  0
   55.1410   26.5200   45.9940 N   0  0  0  0  0  0  0  0  0  0  0  0
   56.6370   24.7370   46.7710 C   0  0  0  0  0  0  0  0  0  0  0  0
   56.6350   23.9950   45.4570 C   0  0  0  0  0  0  0  0  0  0  0  0
   57.7340   23.1970   45.0930 C   0  0  0  0  0  0  0  0  0  0  0  0
   57.7330   22.5080   43.8760 C   0  0  0  0  0  0  0  0  0  0  0  0
   56.6330   22.6000   43.0200 C   0  0  0  0  0  0  0  0  0  0  0  0
   55.5300   23.3770   43.3810 C   0  0  0  0  0  0  0  0  0  0  0  0
   55.5290   24.0760   44.5930 C   0  0  0  0  0  0  0  0  0  0  0  0
   57.9199   32.1142   47.9572 H   0  0  0  0  0  0  0  0  0  0  0  0
   58.3200   30.4013   47.5931 H   0  0  0  0  0  0  0  0  0  0  0  0
   59.6154   31.6457   47.5931 H   0  0  0  0  0  0  0  0  0  0  0  0
   58.3104   33.8586   46.1688 H   0  0  0  0  0  0  0  0  0  0  0  0
   57.8034   34.3543   43.7806 H   0  0  0  0  0  0  0  0  0  0  0  0
   57.4851   32.4889   42.1548 H   0  0  0  0  0  0  0  0  0  0  0  0
   57.7294   30.1263   42.9031 H   0  0  0  0  0  0  0  0  0  0  0  0
   59.2890   28.9990   45.7630 H   0  0  0  0  0  0  0  0  0  0  0  0
   57.6123   26.3322   44.7847 H   0  0  0  0  0  0  0  0  0  0  0  0
   58.4855   26.8648   46.2983 H   0  0  0  0  0  0  0  0  0  0  0  0
   56.5120   26.7195   47.6076 H   0  0  0  0  0  0  0  0  0  0  0  0
   55.2730   26.6430   44.9630 H   0  0  0  0  0  0  0  0  0  0  0  0
   54.7840   27.4430   46.3380 H   0  0  0  0  0  0  0  0  0  0  0  0
   57.5986   24.5558   47.2735 H   0  0  0  0  0  0  0  0  0  0  0  0
   55.7866   24.3624   47.3596 H   0  0  0  0  0  0  0  0  0  0  0  0
   58.5983   23.1143   45.7684 H   0  0  0  0  0  0  0  0  0  0  0  0
   58.5997   21.8928   43.5925 H   0  0  0  0  0  0  0  0  0  0  0  0
   56.6355   22.0604   42.0614 H   0  0  0  0  0  0  0  0  0  0  0  0
   54.6600   23.4396   42.7108 H   0  0  0  0  0  0  0  0  0  0  0  0
   54.6602   24.6908   44.8707 H   0  0  0  0  0  0  0  0  0  0  0  0
  1  2  1  0
  2  3  2  0
  3  4  1  0
  4  5  2  0
  5  6  1  0
  6  7  2  0
  7  8  1  0
  8  9  1  0
  9 10  2  0
  9 11  1  0
 11 12  1  0
 12 13  1  0
 12 14  1  0
 14 15  1  0
 15 16  2  0
 16 17  1  0
 17 18  2  0
 18 19  1  0
 19 20  2  0
  7  2  1  0
 20 15  1  0
  1 21  1  0
  1 22  1  0
  1 23  1  0
  3 24  1  0
  4 25  1  0
  5 26  1  0
  6 27  1  0
  8 28  1  0
 11 29  1  0
 11 30  1  0
 12 31  1  1
 13 32  1  0
 13 33  1  0
 14 34  1  0
 14 35  1  0
 16 36  1  0
 17 37  1  0
 18 38  1  0
 19 39  1  0
 20 40  1  0
M  END
>  <UniqueID>  (26) 
23

>  <SMILES>  (26) 
Cc1ccccc1NC(=O)C[C@@H](N)Cc1ccccc1

>  <Energy>  (26) 
40.48896134824591

>  <Genealogy>  (26) 
Cc1ccccc1NC(=O)C[C@@H](N)Cc1ccccc1 (chirality)
Cc1ccccc1NC(=O)C[C@@H](N)Cc1ccccc1 (3D coordinates assigned)
Cc1ccccc1NC(=O)C[C@@H](N)Cc1ccccc1 (optimized conformer: 40.48896134824591 kcal/mol)

>  <smiles>  (26) 
Cc1ccccc1NC(=O)CC(N)Cc1ccccc1

>  <score_type>  (26) 
oracle

>  <origin>  (26) 
adg

>  <m_score__min__energy>  (26) 
-7.9199999999999999

>  <m_primary>  (26) 
energy

$$$$
26:0
     RDKit          3D

 42 44  0  0  0  0  0  0  0  0999 V2000
   64.1270   33.1600   48.2660 C   0  0  0  0  0  0  0  0  0  0  0  0
   62.7480   32.5540   48.5020 C   0  0  0  0  0  0  0  0  0  0  0  0
   61.5610   33.1780   47.3110 S   0  0  0  0  0  0  0  0  0  0  0  0
   62.3080   34.0560   46.3470 O   0  0  0  0  0  0  0  0  0  0  0  0
   60.9890   32.0080   46.5600 O   0  0  0  0  0  0  0  0  0  0  0  0
   60.2850   34.1350   48.0630 N   0  0  0  0  0  0  0  0  0  0  0  0
   59.6480   33.4190   49.1830 C   0  0  0  0  0  0  0  0  0  0  0  0
   58.7050   32.2930   48.6940 C   0  0  0  0  0  0  0  0  0  0  0  0
   58.5130   32.3000   47.2910 O   0  0  0  0  0  0  0  0  0  0  0  0
   58.1310   33.5910   46.8550 C   0  0  2  0  0  0  0  0  0  0  0  0
   57.9110   33.6270   45.3340 C   0  0  2  0  0  0  0  0  0  0  0  0
   58.5840   32.5300   44.7100 O   0  0  0  0  0  0  0  0  0  0  0  0
   58.1630   31.1920   44.7440 C   0  0  0  0  0  0  0  0  0  0  0  0
   57.1930   30.7780   43.8250 C   0  0  0  0  0  0  0  0  0  0  0  0
   56.7520   29.4540   43.8350 C   0  0  0  0  0  0  0  0  0  0  0  0
   57.2820   28.5550   44.7590 C   0  0  0  0  0  0  0  0  0  0  0  0
   58.2500   28.9960   45.6630 C   0  0  0  0  0  0  0  0  0  0  0  0
   58.6710   30.2910   45.6420 N   0  0  0  0  0  0  0  0  0  0  0  0
   58.5150   34.9540   44.8710 C   0  0  0  0  0  0  0  0  0  0  0  0
   59.6770   35.2210   45.8110 C   0  0  0  0  0  0  0  0  0  0  0  0
   59.2210   34.6420   47.1570 C   0  0  2  0  0  0  0  0  0  0  0  0
   64.6056   33.3703   49.2338 H   0  0  0  0  0  0  0  0  0  0  0  0
   64.7465   32.4512   47.6969 H   0  0  0  0  0  0  0  0  0  0  0  0
   64.0238   34.0957   47.6969 H   0  0  0  0  0  0  0  0  0  0  0  0
   62.8141   31.4603   48.4052 H   0  0  0  0  0  0  0  0  0  0  0  0
   62.4109   32.8312   49.5117 H   0  0  0  0  0  0  0  0  0  0  0  0
   60.4333   32.9753   49.8127 H   0  0  0  0  0  0  0  0  0  0  0  0
   59.0445   34.1441   49.7487 H   0  0  0  0  0  0  0  0  0  0  0  0
   59.1373   31.3238   48.9834 H   0  0  0  0  0  0  0  0  0  0  0  0
   57.7232   32.4615   49.1605 H   0  0  0  0  0  0  0  0  0  0  0  0
   57.2022   33.8231   47.3967 H   0  0  0  0  0  0  0  0  0  0  0  0
   56.8464   33.5456   45.0696 H   0  0  0  0  0  0  0  0  0  0  0  0
   56.7798   31.4926   43.0980 H   0  0  0  0  0  0  0  0  0  0  0  0
   55.9888   29.1210   43.1162 H   0  0  0  0  0  0  0  0  0  0  0  0
   56.9412   27.5093   44.7757 H   0  0  0  0  0  0  0  0  0  0  0  0
   58.6748   28.2942   46.3958 H   0  0  0  0  0  0  0  0  0  0  0  0
   59.3950   30.5760   46.3350 H   0  0  0  0  0  0  0  0  0  0  0  0
   58.8708   34.8731   43.8333 H   0  0  0  0  0  0  0  0  0  0  0  0
   57.7762   35.7686   44.8940 H   0  0  0  0  0  0  0  0  0  0  0  0
   60.5874   34.7145   45.4579 H   0  0  0  0  0  0  0  0  0  0  0  0
   59.9249   36.2907   45.8775 H   0  0  0  0  0  0  0  0  0  0  0  0
   58.8243   35.4750   47.7559 H   0  0  0  0  0  0  0  0  0  0  0  0
  1  2  1  0
  2  3  1  0
  3  4  2  0
  3  5  2  0
  3  6  1  0
  6  7  1  0
  7  8  1  0
  8  9  1  0
  9 10  1  0
 10 11  1  0
 11 12  1  0
 12 13  1  0
 13 14  2  0
 14 15  1  0
 15 16  2  0
 16 17  1  0
 17 18  2  0
 11 19  1  0
 19 20  1  0
 20 21  1  0
 21  6  1  0
 21 10  1  0
 18 13  1  0
  1 22  1  0
  1 23  1  0
  1 24  1  0
  2 25  1  0
  2 26  1  0
  7 27  1  0
  7 28  1  0
  8 29  1  0
  8 30  1  0
 10 31  1  1
 11 32  1  1
 14 33  1  0
 15 34  1  0
 16 35  1  0
 17 36  1  0
 18 37  1  0
 19 38  1  0
 19 39  1  0
 20 40  1  0
 20 41  1  0
 21 42  1  1
M  CHG  1  18   1
M  END
>  <UniqueID>  (27) 
24

>  <SMILES>  (27) 
CCS(=O)(=O)N1CCO[C@H]2C1CC[C@H]2Oc1cccc[nH+]1

>  <Energy>  (27) 
55.646634342627216

>  <Genealogy>  (27) 
CCS(=O)(=O)N1CCOC2C(Oc3cccc[nH+]3)CCC21 (protonated)
CCS(=O)(=O)N1CCO[C@H]2C1CC[C@H]2Oc1cccc[nH+]1 (chirality)
CCS(=O)(=O)N1CCO[C@H]2C1CC[C@H]2Oc1cccc[nH+]1 (3D coordinates assigned)
CCS(=O)(=O)N1CCO[C@H]2C1CC[C@H]2Oc1cccc[nH+]1 (nonaromatic ring conformer: 55.646634342627216 kcal/mol)

>  <smiles>  (27) 
CCS(=O)(=O)N1CCOC2C(Oc3ccccn3)CCC21

>  <score_type>  (27) 
oracle

>  <origin>  (27) 
adg

>  <m_score__min__energy>  (27) 
-5.0999999999999996

>  <m_primary>  (27) 
energy

$$$$
27:0
     RDKit          3D

 35 37  0  0  0  0  0  0  0  0999 V2000
   55.2129   29.8457   54.7976 H   0  0  0  0  0  0  0  0  0  0  0  0
   55.8040   30.3160   53.9980 C   0  0  0  0  0  0  0  0  0  0  0  0
   57.0970   30.7720   54.2670 C   0  0  0  0  0  0  0  0  0  0  0  0
   57.5266   30.6394   55.2709 H   0  0  0  0  0  0  0  0  0  0  0  0
   57.8530   31.4010   53.2580 C   0  0  0  0  0  0  0  0  0  0  0  0
   59.1550   31.8740   53.4780 O   0  0  0  0  0  0  0  0  0  0  0  0
   59.5650   33.2220   53.2760 C   0  0  0  0  0  0  0  0  0  0  0  0
   59.7134   33.7101   54.2506 H   0  0  0  0  0  0  0  0  0  0  0  0
   60.5085   33.2375   52.7107 H   0  0  0  0  0  0  0  0  0  0  0  0
   58.7899   33.7602   52.7107 H   0  0  0  0  0  0  0  0  0  0  0  0
   57.2880   31.5690   51.9890 C   0  0  0  0  0  0  0  0  0  0  0  0
   57.8667   32.0652   51.1960 H   0  0  0  0  0  0  0  0  0  0  0  0
   55.9950   31.1120   51.7200 C   0  0  0  0  0  0  0  0  0  0  0  0
   55.5545   31.2681   50.7242 H   0  0  0  0  0  0  0  0  0  0  0  0
   55.2560   30.4540   52.7170 C   0  0  0  0  0  0  0  0  0  0  0  0
   53.9060   30.0270   52.4830 N   0  0  0  0  0  0  0  0  0  0  0  0
   52.8710   30.7670   52.1820 C   0  0  0  0  0  0  0  0  0  0  0  0
   52.5100   31.0350   50.8440 C   0  0  0  0  0  0  0  0  0  0  0  0
   53.1086   30.6189   50.0203 H   0  0  0  0  0  0  0  0  0  0  0  0
   51.3920   31.8290   50.5630 C   0  0  0  0  0  0  0  0  0  0  0  0
   50.9960   32.1030   49.1470 C   0  0  0  0  0  0  0  0  0  0  0  0
   50.0915   32.7288   49.1338 H   0  0  0  0  0  0  0  0  0  0  0  0
   51.8137   32.6294   48.6329 H   0  0  0  0  0  0  0  0  0  0  0  0
   50.7916   31.1523   48.6329 H   0  0  0  0  0  0  0  0  0  0  0  0
   50.6360   32.3200   51.5800 N   0  0  0  0  0  0  0  0  0  0  0  0
   50.9330   32.0750   52.8820 C   0  0  0  0  0  0  0  0  0  0  0  0
   50.1170   32.6030   53.8890 C   0  0  0  0  0  0  0  0  0  0  0  0
   49.2430   33.2152   53.6219 H   0  0  0  0  0  0  0  0  0  0  0  0
   50.4090   32.3550   55.2320 C   0  0  0  0  0  0  0  0  0  0  0  0
   49.7653   32.7729   56.0200 H   0  0  0  0  0  0  0  0  0  0  0  0
   51.5160   31.5780   55.5760 C   0  0  0  0  0  0  0  0  0  0  0  0
   51.7417   31.3851   56.6352 H   0  0  0  0  0  0  0  0  0  0  0  0
   52.3390   31.0440   54.5810 C   0  0  0  0  0  0  0  0  0  0  0  0
   53.2099   30.4332   54.8610 H   0  0  0  0  0  0  0  0  0  0  0  0
   52.0590   31.2840   53.2190 C   0  0  0  0  0  0  0  0  0  0  0  0
  1  2  1  0
  2  3  2  0
  3  4  1  0
  3  5  1  0
  5  6  1  0
  6  7  1  0
  7  8  1  0
  7  9  1  0
  7 10  1  0
  5 11  2  0
 11 12  1  0
 11 13  1  0
 13 14  1  0
 13 15  2  0
 15 16  1  0
 16 17  2  0
 17 18  1  0
 18 19  1  0
 18 20  2  0
 20 21  1  0
 21 22  1  0
 21 23  1  0
 21 24  1  0
 20 25  1  0
 25 26  1  0
 26 27  2  0
 27 28  1  0
 27 29  1  0
 29 30  1  0
 29 31  2  0
 31 32  1  0
 31 33  1  0
 33 34  1  0
 33 35  2  0
 15  2  1  0
 35 17  1  0
 35 26  1  0
M  CHG  1  25  -1
M  END
>  <UniqueID>  (28) 
25

>  <SMILES>  (28) 
COc1ccc(/N=c2\cc(C)[n-]c3ccccc23)cc1

>  <Energy>  (28) 
50.066435325145854

>  <Genealogy>  (28) 
COc1ccc(N=c2cc(C)[n-]c3ccccc23)cc1 (protonated)
COc1ccc(/N=c2\cc(C)[n-]c3ccccc23)cc1 (cis-trans isomerization)
COc1ccc(/N=c2\cc(C)[n-]c3ccccc23)cc1 (3D coordinates assigned)
COc1ccc(/N=c2\cc(C)[n-]c3ccccc23)cc1 (optimized conformer: 50.066435325145854 kcal/mol)

>  <smiles>  (28) 
COc1ccc(N=c2cc(C)[nH]c3ccccc23)cc1

>  <score_type>  (28) 
oracle

>  <origin>  (28) 
adg

>  <m_score__min__energy>  (28) 
-8.3800000000000008

>  <m_primary>  (28) 
energy

$$$$
28:0
     RDKit          3D

 27 28  0  0  0  0  0  0  0  0999 V2000
   55.0380   28.9730   44.4980 F   0  0  0  0  0  0  0  0  0  0  0  0
   56.2950   29.4820   44.5220 C   0  0  0  0  0  0  0  0  0  0  0  0
   57.3630   28.6800   44.9340 C   0  0  0  0  0  0  0  0  0  0  0  0
   58.6570   29.2040   44.9650 C   0  0  0  0  0  0  0  0  0  0  0  0
   58.8870   30.5280   44.5820 C   0  0  0  0  0  0  0  0  0  0  0  0
   57.8230   31.3440   44.1600 C   0  0  0  0  0  0  0  0  0  0  0  0
   58.0940   32.7030   43.7670 N   0  0  0  0  0  0  0  0  0  0  0  0
   57.7420   33.8820   44.5600 C   0  0  0  0  0  0  0  0  0  0  0  0
   58.4350   33.8510   45.8980 C   0  0  0  0  0  0  0  0  0  0  0  0
   59.5820   34.6280   46.1260 C   0  0  0  0  0  0  0  0  0  0  0  0
   60.2160   34.5990   47.3740 C   0  0  0  0  0  0  0  0  0  0  0  0
   59.7050   33.8010   48.4010 C   0  0  0  0  0  0  0  0  0  0  0  0
   58.5570   33.0340   48.1840 C   0  0  0  0  0  0  0  0  0  0  0  0
   57.9210   33.0600   46.9400 C   0  0  0  0  0  0  0  0  0  0  0  0
   56.5200   30.8070   44.1380 C   0  0  0  0  0  0  0  0  0  0  0  0
   57.1843   27.6368   45.2336 H   0  0  0  0  0  0  0  0  0  0  0  0
   59.4969   28.5732   45.2916 H   0  0  0  0  0  0  0  0  0  0  0  0
   59.9086   30.9349   44.6109 H   0  0  0  0  0  0  0  0  0  0  0  0
   58.5380   32.8730   42.8350 H   0  0  0  0  0  0  0  0  0  0  0  0
   58.0481   34.7876   44.0158 H   0  0  0  0  0  0  0  0  0  0  0  0
   56.6545   33.8850   44.7252 H   0  0  0  0  0  0  0  0  0  0  0  0
   59.9838   35.2616   45.3215 H   0  0  0  0  0  0  0  0  0  0  0  0
   61.1176   35.2052   47.5463 H   0  0  0  0  0  0  0  0  0  0  0  0
   60.2061   33.7765   49.3799 H   0  0  0  0  0  0  0  0  0  0  0  0
   58.1533   32.4087   48.9940 H   0  0  0  0  0  0  0  0  0  0  0  0
   57.0145   32.4590   46.7756 H   0  0  0  0  0  0  0  0  0  0  0  0
   55.6754   31.4342   43.8168 H   0  0  0  0  0  0  0  0  0  0  0  0
  1  2  1  0
  2  3  2  0
  3  4  1  0
  4  5  2  0
  5  6  1  0
  6  7  1  0
  7  8  1  0
  8  9  1  0
  9 10  2  0
 10 11  1  0
 11 12  2  0
 12 13  1  0
 13 14  2  0
  6 15  2  0
 15  2  1  0
 14  9  1  0
  3 16  1  0
  4 17  1  0
  5 18  1  0
  7 19  1  0
  8 20  1  0
  8 21  1  0
 10 22  1  0
 11 23  1  0
 12 24  1  0
 13 25  1  0
 14 26  1  0
 15 27  1  0
M  END
>  <UniqueID>  (29) 
26

>  <SMILES>  (29) 
Fc1cccc(NCc2ccccc2)c1

>  <Energy>  (29) 
26.846799965793483

>  <Genealogy>  (29) 
Fc1cccc(NCc2ccccc2)c1 (3D coordinates assigned)
Fc1cccc(NCc2ccccc2)c1 (optimized conformer: 26.846799965793483 kcal/mol)

>  <smiles>  (29) 
Fc1cccc(NCc2ccccc2)c1

>  <score_type>  (29) 
oracle

>  <origin>  (29) 
adg

>  <m_score__min__energy>  (29) 
-5.71

>  <m_primary>  (29) 
energy

$$$$
29:0
     RDKit          3D

 51 54  0  0  0  0  0  0  0  0999 V2000
   63.4010   33.8730   50.4230 C   0  0  0  0  0  0  0  0  0  0  0  0
   63.9480   32.7960   49.5860 N   0  0  0  0  0  0  0  0  0  0  0  0
   65.2610   32.3330   50.0630 C   0  0  0  0  0  0  0  0  0  0  0  0
   63.8830   33.0540   48.1270 C   0  0  0  0  0  0  0  0  0  0  0  0
   62.5280   32.7620   47.4360 C   0  0  0  0  0  0  0  0  0  0  0  0
   61.5220   32.2010   48.3520 N   0  0  0  0  0  0  0  0  0  0  0  0
   60.7980   31.1280   47.7090 C   0  0  0  0  0  0  0  0  0  0  0  0
   61.1290   29.7960   48.0540 C   0  0  0  0  0  0  0  0  0  0  0  0
   60.4290   28.7430   47.5560 N   0  0  0  0  0  0  0  0  0  0  0  0
   59.3910   28.9060   46.6960 C   0  0  0  0  0  0  0  0  0  0  0  0
   58.6770   27.7600   46.2140 N   0  0  0  0  0  0  0  0  0  0  0  0
   58.7430   27.4320   44.7840 C   0  0  0  0  0  0  0  0  0  0  0  0
   57.9850   26.1320   44.4900 C   0  0  0  0  0  0  0  0  0  0  0  0
   56.7260   26.0990   45.2410 N   0  0  0  0  0  0  0  0  0  0  0  0
   56.9440   26.0440   46.6990 C   0  0  0  0  0  0  0  0  0  0  0  0
   58.2410   26.7410   47.1720 C   0  0  0  0  0  0  0  0  0  0  0  0
   59.0390   30.2010   46.3130 C   0  0  0  0  0  0  0  0  0  0  0  0
   57.7540   30.6410   45.3210 S   0  0  0  0  0  0  0  0  0  0  0  0
   58.0860   32.2800   45.4060 C   0  0  0  0  0  0  0  0  0  0  0  0
   57.3870   33.2940   44.7540 C   0  0  0  0  0  0  0  0  0  0  0  0
   57.8370   34.6100   44.8930 C   0  0  0  0  0  0  0  0  0  0  0  0
   58.9780   34.8850   45.6610 C   0  0  0  0  0  0  0  0  0  0  0  0
   59.6720   33.8520   46.3090 C   0  0  0  0  0  0  0  0  0  0  0  0
   59.2070   32.5250   46.2080 C   0  0  0  0  0  0  0  0  0  0  0  0
   59.7410   31.3260   46.7720 C   0  0  0  0  0  0  0  0  0  0  0  0
   63.5320   33.6151   51.4843 H   0  0  0  0  0  0  0  0  0  0  0  0
   63.9316   34.8117   50.2056 H   0  0  0  0  0  0  0  0  0  0  0  0
   62.3300   33.9983   50.2056 H   0  0  0  0  0  0  0  0  0  0  0  0
   65.2711   32.3294   51.1629 H   0  0  0  0  0  0  0  0  0  0  0  0
   65.4480   31.3147   49.6913 H   0  0  0  0  0  0  0  0  0  0  0  0
   66.0453   33.0088   49.6913 H   0  0  0  0  0  0  0  0  0  0  0  0
   64.1199   34.1157   47.9640 H   0  0  0  0  0  0  0  0  0  0  0  0
   64.5993   32.3528   47.6740 H   0  0  0  0  0  0  0  0  0  0  0  0
   62.1372   33.7024   47.0203 H   0  0  0  0  0  0  0  0  0  0  0  0
   62.7138   32.0116   46.6535 H   0  0  0  0  0  0  0  0  0  0  0  0
   62.0200   31.8050   49.1790 H   0  0  0  0  0  0  0  0  0  0  0  0
   60.8660   32.9140   48.7370 H   0  0  0  0  0  0  0  0  0  0  0  0
   61.9694   29.6093   48.7387 H   0  0  0  0  0  0  0  0  0  0  0  0
   58.2927   28.2514   44.2045 H   0  0  0  0  0  0  0  0  0  0  0  0
   59.7974   27.2982   44.5004 H   0  0  0  0  0  0  0  0  0  0  0  0
   57.7675   26.0738   43.4133 H   0  0  0  0  0  0  0  0  0  0  0  0
   58.6069   25.2772   44.7942 H   0  0  0  0  0  0  0  0  0  0  0  0
   56.1770   26.9610   45.0130 H   0  0  0  0  0  0  0  0  0  0  0  0
   56.0906   26.5303   47.1941 H   0  0  0  0  0  0  0  0  0  0  0  0
   57.0411   24.9810   46.9646 H   0  0  0  0  0  0  0  0  0  0  0  0
   58.0563   27.2196   48.1451 H   0  0  0  0  0  0  0  0  0  0  0  0
   59.0326   25.9818   47.2559 H   0  0  0  0  0  0  0  0  0  0  0  0
   56.5012   33.0640   44.1438 H   0  0  0  0  0  0  0  0  0  0  0  0
   57.2958   35.4308   44.3996 H   0  0  0  0  0  0  0  0  0  0  0  0
   59.3326   35.9219   45.7563 H   0  0  0  0  0  0  0  0  0  0  0  0
   60.5760   34.0769   46.8940 H   0  0  0  0  0  0  0  0  0  0  0  0
  1  2  1  0
  2  3  1  0
  2  4  1  0
  4  5  1  0
  5  6  1  0
  6  7  1  0
  7  8  2  0
  8  9  1  0
  9 10  2  0
 10 11  1  0
 11 12  1  0
 12 13  1  0
 13 14  1  0
 14 15  1  0
 15 16  1  0
 10 17  1  0
 17 18  1  0
 18 19  1  0
 19 20  2  0
 20 21  1  0
 21 22  2  0
 22 23  1  0
 23 24  2  0
 24 25  1  0
 25  7  1  0
 16 11  1  0
 25 17  2  0
 24 19  1  0
  1 26  1  0
  1 27  1  0
  1 28  1  0
  3 29  1  0
  3 30  1  0
  3 31  1  0
  4 32  1  0
  4 33  1  0
  5 34  1  0
  5 35  1  0
  6 36  1  0
  6 37  1  0
  8 38  1  0
 12 39  1  0
 12 40  1  0
 13 41  1  0
 13 42  1  0
 14 43  1  0
 15 44  1  0
 15 45  1  0
 16 46  1  0
 16 47  1  0
 20 48  1  0
 21 49  1  0
 22 50  1  0
 23 51  1  0
M  CHG  1   6   1
M  END
>  <UniqueID>  (30) 
27

>  <SMILES>  (30) 
CN(C)CC[NH2+]c1cnc(N2CCNCC2)c2sc3ccccc3c12

>  <Energy>  (30) 
113.39243475311216

>  <Genealogy>  (30) 
CN(C)CC[NH2+]c1cnc(N2CCNCC2)c2sc3ccccc3c12 (protonated)
CN(C)CC[NH2+]c1cnc(N2CCNCC2)c2sc3ccccc3c12 (3D coordinates assigned)
CN(C)CC[NH2+]c1cnc(N2CCNCC2)c2sc3ccccc3c12 (nonaromatic ring conformer: 113.39243475311216 kcal/mol)

>  <smiles>  (30) 
CN(C)CCNc1cnc(N2CCNCC2)c2sc3ccccc3c12

>  <score_type>  (30) 
oracle

>  <origin>  (30) 
adg

>  <m_score__min__energy>  (30) 
-5.6500000000000004

>  <m_primary>  (30) 
energy

$$$$
30:0
     RDKit          3D

 45 48  0  0  0  0  0  0  0  0999 V2000
   56.2840   22.5850   43.1330 C   0  0  0  0  0  0  0  0  0  0  0  0
   55.1740   22.9230   44.5340 S   0  0  0  0  0  0  0  0  0  0  0  0
   56.0190   24.4360   44.9890 C   0  0  0  0  0  0  0  0  0  0  0  0
   57.1780   24.8270   44.3150 C   0  0  0  0  0  0  0  0  0  0  0  0
   57.8190   26.0100   44.6860 C   0  0  0  0  0  0  0  0  0  0  0  0
   57.3130   26.7810   45.7410 C   0  0  0  0  0  0  0  0  0  0  0  0
   57.9760   28.0430   46.1150 C   0  0  0  0  0  0  0  0  0  0  0  0
   57.4960   29.2520   45.7610 N   0  0  0  0  0  0  0  0  0  0  0  0
   58.3280   30.1710   46.2240 N   0  0  0  0  0  0  0  0  0  0  0  0
   58.1250   31.5750   46.0170 C   0  0  0  0  0  0  0  0  0  0  0  0
   58.2700   32.4550   47.0980 C   0  0  0  0  0  0  0  0  0  0  0  0
   58.0980   33.8300   46.9160 C   0  0  0  0  0  0  0  0  0  0  0  0
   57.7680   34.3340   45.6560 C   0  0  0  0  0  0  0  0  0  0  0  0
   57.6000   33.4620   44.5760 C   0  0  0  0  0  0  0  0  0  0  0  0
   57.7700   32.0830   44.7500 C   0  0  0  0  0  0  0  0  0  0  0  0
   57.4710   31.0170   43.3830 Cl  0  0  0  0  0  0  0  0  0  0  0  0
   59.3540   29.5760   46.8760 C   0  0  0  0  0  0  0  0  0  0  0  0
   60.4650   30.2900   47.5450 C   0  0  0  0  0  0  0  0  0  0  0  0
   61.4050   31.0040   46.7830 C   0  0  0  0  0  0  0  0  0  0  0  0
   62.4660   31.6630   47.4110 C   0  0  0  0  0  0  0  0  0  0  0  0
   62.5970   31.6160   48.8020 C   0  0  0  0  0  0  0  0  0  0  0  0
   63.9310   32.4420   49.5870 Cl  0  0  0  0  0  0  0  0  0  0  0  0
   61.6650   30.9070   49.5660 C   0  0  0  0  0  0  0  0  0  0  0  0
   60.6030   30.2470   48.9410 C   0  0  0  0  0  0  0  0  0  0  0  0
   59.1580   28.2020   46.8320 C   0  0  0  0  0  0  0  0  0  0  0  0
   60.1080   27.1400   47.3030 C   0  0  0  0  0  0  0  0  0  0  0  0
   56.1350   26.3610   46.3780 C   0  0  0  0  0  0  0  0  0  0  0  0
   55.5250   25.2080   45.9940 N   0  0  0  0  0  0  0  0  0  0  0  0
   57.2718   22.2842   43.5121 H   0  0  0  0  0  0  0  0  0  0  0  0
   55.8641   21.7740   42.5199 H   0  0  0  0  0  0  0  0  0  0  0  0
   56.3873   23.4924   42.5199 H   0  0  0  0  0  0  0  0  0  0  0  0
   57.5817   24.2087   43.4997 H   0  0  0  0  0  0  0  0  0  0  0  0
   58.7220   26.3373   44.1499 H   0  0  0  0  0  0  0  0  0  0  0  0
   58.5203   32.0617   48.0943 H   0  0  0  0  0  0  0  0  0  0  0  0
   58.2227   34.5163   47.7665 H   0  0  0  0  0  0  0  0  0  0  0  0
   57.6402   35.4172   45.5132 H   0  0  0  0  0  0  0  0  0  0  0  0
   57.3333   33.8607   43.5861 H   0  0  0  0  0  0  0  0  0  0  0  0
   61.3057   31.0446   45.6882 H   0  0  0  0  0  0  0  0  0  0  0  0
   63.1994   32.2198   46.8092 H   0  0  0  0  0  0  0  0  0  0  0  0
   61.7676   30.8685   50.6605 H   0  0  0  0  0  0  0  0  0  0  0  0
   59.8718   29.6912   49.5463 H   0  0  0  0  0  0  0  0  0  0  0  0
   60.1231   27.1231   48.4028 H   0  0  0  0  0  0  0  0  0  0  0  0
   59.7792   26.1604   46.9257 H   0  0  0  0  0  0  0  0  0  0  0  0
   61.1180   27.3580   46.9257 H   0  0  0  0  0  0  0  0  0  0  0  0
   55.7043   26.9658   47.1896 H   0  0  0  0  0  0  0  0  0  0  0  0
  1  2  1  0
  2  3  1  0
  3  4  2  0
  4  5  1  0
  5  6  2  0
  6  7  1  0
  7  8  2  0
  8  9  1  0
  9 10  1  0
 10 11  2  0
 11 12  1  0
 12 13  2  0
 13 14  1  0
 14 15  2  0
 15 16  1  0
  9 17  1  0
 17 18  1  0
 18 19  2  0
 19 20  1  0
 20 21  2  0
 21 22  1  0
 21 23  1  0
 23 24  2  0
 17 25  2  0
 25 26  1  0
  6 27  1  0
 27 28  2  0
 28  3  1  0
 25  7  1  0
 15 10  1  0
 24 18  1  0
  1 29  1  0
  1 30  1  0
  1 31  1  0
  4 32  1  0
  5 33  1  0
 11 34  1  0
 12 35  1  0
 13 36  1  0
 14 37  1  0
 19 38  1  0
 20 39  1  0
 23 40  1  0
 24 41  1  0
 26 42  1  0
 26 43  1  0
 26 44  1  0
 27 45  1  0
M  END
>  <UniqueID>  (31) 
28

>  <SMILES>  (31) 
CSc1ccc(-c2nn(-c3ccccc3Cl)c(-c3ccc(Cl)cc3)c2C)cn1

>  <Energy>  (31) 
92.87350761140809

>  <Genealogy>  (31) 
CSc1ccc(-c2nn(-c3ccccc3Cl)c(-c3ccc(Cl)cc3)c2C)cn1 (3D coordinates assigned)
CSc1ccc(-c2nn(-c3ccccc3Cl)c(-c3ccc(Cl)cc3)c2C)cn1 (optimized conformer: 92.87350761140809 kcal/mol)

>  <smiles>  (31) 
CSc1ccc(-c2nn(-c3ccccc3Cl)c(-c3ccc(Cl)cc3)c2C)cn1

>  <score_type>  (31) 
oracle

>  <origin>  (31) 
adg

>  <m_score__min__energy>  (31) 
-9.3900000000000006

>  <m_primary>  (31) 
energy

$$$$
31:0
     RDKit          3D

 39 40  0  0  0  0  0  0  0  0999 V2000
   59.7300   35.1530   46.4270 C   0  0  0  0  0  0  0  0  0  0  0  0
   58.5120   34.5750   45.9810 O   0  0  0  0  0  0  0  0  0  0  0  0
   58.4750   33.1970   45.7970 C   0  0  0  0  0  0  0  0  0  0  0  0
   59.5700   32.4690   46.2030 C   0  0  0  0  0  0  0  0  0  0  0  0
   59.5530   31.0950   46.0280 C   0  0  0  0  0  0  0  0  0  0  0  0
   58.4480   30.4680   45.4530 C   0  0  0  0  0  0  0  0  0  0  0  0
   58.5490   28.9830   45.3230 C   0  0  0  0  0  0  0  0  0  0  0  0
   57.4180   28.2540   45.9960 C   0  0  0  0  0  0  0  0  0  0  0  0
   57.1840   27.0170   45.2840 N   0  0  0  0  0  0  0  0  0  0  0  0
   57.2990   25.7300   45.8730 C   0  0  0  0  0  0  0  0  0  0  0  0
   57.6150   25.5540   47.0610 O   0  0  0  0  0  0  0  0  0  0  0  0
   57.0240   24.5530   45.0240 C   0  0  0  0  0  0  0  0  0  0  0  0
   56.8900   23.2870   45.5480 C   0  0  0  0  0  0  0  0  0  0  0  0
   56.6300   22.1870   44.7520 C   0  0  0  0  0  0  0  0  0  0  0  0
   56.5070   22.3920   43.3960 C   0  0  0  0  0  0  0  0  0  0  0  0
   56.2690   21.4320   42.6010 O   0  0  0  0  0  0  0  0  0  0  0  0
   56.6420   23.6340   42.9010 N   0  0  0  0  0  0  0  0  0  0  0  0
   56.8900   24.6690   43.6830 N   0  0  0  0  0  0  0  0  0  0  0  0
   57.3470   31.1830   45.0420 C   0  0  0  0  0  0  0  0  0  0  0  0
   56.2620   30.5400   44.4750 O   0  0  0  0  0  0  0  0  0  0  0  0
   56.2640   30.0550   43.1460 C   0  0  0  0  0  0  0  0  0  0  0  0
   57.3890   32.5640   45.2300 C   0  0  0  0  0  0  0  0  0  0  0  0
   59.7502   35.1626   47.5268 H   0  0  0  0  0  0  0  0  0  0  0  0
   60.5767   34.5607   46.0499 H   0  0  0  0  0  0  0  0  0  0  0  0
   59.8066   36.1835   46.0499 H   0  0  0  0  0  0  0  0  0  0  0  0
   60.4396   32.9672   46.6565 H   0  0  0  0  0  0  0  0  0  0  0  0
   60.4179   30.4938   46.3451 H   0  0  0  0  0  0  0  0  0  0  0  0
   58.5456   28.7240   44.2539 H   0  0  0  0  0  0  0  0  0  0  0  0
   59.4807   28.6727   45.8187 H   0  0  0  0  0  0  0  0  0  0  0  0
   57.6856   28.0365   47.0405 H   0  0  0  0  0  0  0  0  0  0  0  0
   56.5094   28.8739   45.9851 H   0  0  0  0  0  0  0  0  0  0  0  0
   56.9100   27.0500   44.2550 H   0  0  0  0  0  0  0  0  0  0  0  0
   56.9930   23.1463   46.6341 H   0  0  0  0  0  0  0  0  0  0  0  0
   56.5250   21.1822   45.1871 H   0  0  0  0  0  0  0  0  0  0  0  0
   56.5550   23.8310   41.8830 H   0  0  0  0  0  0  0  0  0  0  0  0
   56.2685   28.9551   43.1571 H   0  0  0  0  0  0  0  0  0  0  0  0
   55.3644   30.4127   42.6238 H   0  0  0  0  0  0  0  0  0  0  0  0
   57.1606   30.4201   42.6238 H   0  0  0  0  0  0  0  0  0  0  0  0
   56.5262   33.1693   44.9152 H   0  0  0  0  0  0  0  0  0  0  0  0
  1  2  1  0
  2  3  1  0
  3  4  2  0
  4  5  1  0
  5  6  2  0
  6  7  1  0
  7  8  1  0
  8  9  1  0
  9 10  1  0
 10 11  2  0
 10 12  1  0
 12 13  1  0
 13 14  2  0
 14 15  1  0
 15 16  2  0
 15 17  1  0
 17 18  1  0
  6 19  1  0
 19 20  1  0
 20 21  1  0
 19 22  2  0
 22  3  1  0
 18 12  2  0
  1 23  1  0
  1 24  1  0
  1 25  1  0
  4 26  1  0
  5 27  1  0
  7 28  1  0
  7 29  1  0
  8 30  1  0
  8 31  1  0
  9 32  1  0
 13 33  1  0
 14 34  1  0
 17 35  1  0
 21 36  1  0
 21 37  1  0
 21 38  1  0
 22 39  1  0
M  END
>  <smiles>  (32) 
COc1ccc(CCNC(=O)c2ccc(=O)[nH]n2)c(OC)c1

>  <score_type>  (32) 
oracle

>  <origin>  (32) 
adg

>  <m_score__min__energy>  (32) 
-7.1399999999999997

>  <m_primary>  (32) 
energy

$$$$
32:0
     RDKit          3D

 38 39  0  0  0  0  0  0  0  0999 V2000
   57.7560   32.3460   41.7050 C   0  0  0  0  0  0  0  0  0  0  0  0
   57.9610   32.4650   43.1790 C   0  0  0  0  0  0  0  0  0  0  0  0
   58.7160   33.4230   43.7550 N   0  0  0  0  0  0  0  0  0  0  0  0
   58.6150   33.2640   45.0650 N   0  0  0  0  0  0  0  0  0  0  0  0
   59.4180   34.2670   46.2210 S   0  0  0  0  0  0  0  0  0  0  0  0
   59.6590   35.6220   45.6170 O   0  0  0  0  0  0  0  0  0  0  0  0
   58.5540   34.4340   47.4410 O   0  0  0  0  0  0  0  0  0  0  0  0
   60.9500   33.5400   46.6680 C   0  0  0  0  0  0  0  0  0  0  0  0
   60.9850   32.2670   47.2500 C   0  0  0  0  0  0  0  0  0  0  0  0
   62.2160   31.7040   47.5890 C   0  0  0  0  0  0  0  0  0  0  0  0
   63.3950   32.4130   47.3440 C   0  0  0  0  0  0  0  0  0  0  0  0
   63.3210   33.6800   46.7610 C   0  0  0  0  0  0  0  0  0  0  0  0
   62.1110   34.2120   46.4380 N   0  0  0  0  0  0  0  0  0  0  0  0
   57.8060   32.2290   45.3540 C   0  0  0  0  0  0  0  0  0  0  0  0
   57.3690   31.6870   44.1640 C   0  0  0  0  0  0  0  0  0  0  0  0
   56.3700   30.5790   43.9980 C   0  0  0  0  0  0  0  0  0  0  0  0
   57.0590   29.2120   43.8840 C   0  0  0  0  0  0  0  0  0  0  0  0
   57.8290   28.8880   45.1060 N   0  0  0  0  0  0  0  0  0  0  0  0
   57.4530   27.5550   45.6040 C   0  0  0  0  0  0  0  0  0  0  0  0
   59.2790   28.9240   44.8460 C   0  0  0  0  0  0  0  0  0  0  0  0
   56.8201   31.8027   41.5076 H   0  0  0  0  0  0  0  0  0  0  0  0
   57.6975   33.3506   41.2607 H   0  0  0  0  0  0  0  0  0  0  0  0
   58.5993   31.7970   41.2607 H   0  0  0  0  0  0  0  0  0  0  0  0
   60.0516   31.7163   47.4381 H   0  0  0  0  0  0  0  0  0  0  0  0
   62.2582   30.7051   48.0477 H   0  0  0  0  0  0  0  0  0  0  0  0
   64.3704   31.9781   47.6074 H   0  0  0  0  0  0  0  0  0  0  0  0
   64.2417   34.2483   46.5628 H   0  0  0  0  0  0  0  0  0  0  0  0
   57.5401   31.8772   46.3617 H   0  0  0  0  0  0  0  0  0  0  0  0
   55.6989   30.5694   44.8695 H   0  0  0  0  0  0  0  0  0  0  0  0
   55.8058   30.7593   43.0710 H   0  0  0  0  0  0  0  0  0  0  0  0
   56.2932   28.4378   43.7285 H   0  0  0  0  0  0  0  0  0  0  0  0
   57.7581   29.2480   43.0355 H   0  0  0  0  0  0  0  0  0  0  0  0
   57.4546   27.5606   46.7040 H   0  0  0  0  0  0  0  0  0  0  0  0
   56.4473   27.2979   45.2401 H   0  0  0  0  0  0  0  0  0  0  0  0
   58.1761   26.8102   45.2401 H   0  0  0  0  0  0  0  0  0  0  0  0
   59.8227   28.9375   45.8021 H   0  0  0  0  0  0  0  0  0  0  0  0
   59.5706   28.0328   44.2709 H   0  0  0  0  0  0  0  0  0  0  0  0
   59.5260   29.8286   44.2709 H   0  0  0  0  0  0  0  0  0  0  0  0
  1  2  1  0
  2  3  2  0
  3  4  1  0
  4  5  1  0
  5  6  2  0
  5  7  2  0
  5  8  1  0
  8  9  2  0
  9 10  1  0
 10 11  2  0
 11 12  1  0
 12 13  2  0
  4 14  1  0
 14 15  2  0
 15 16  1  0
 16 17  1  0
 17 18  1  0
 18 19  1  0
 18 20  1  0
 15  2  1  0
 13  8  1  0
  1 21  1  0
  1 22  1  0
  1 23  1  0
  9 24  1  0
 10 25  1  0
 11 26  1  0
 12 27  1  0
 14 28  1  0
 16 29  1  0
 16 30  1  0
 17 31  1  0
 17 32  1  0
 19 33  1  0
 19 34  1  0
 19 35  1  0
 20 36  1  0
 20 37  1  0
 20 38  1  0
M  END
>  <UniqueID>  (33) 
29

>  <SMILES>  (33) 
Cc1nn(S(=O)(=O)c2ccccn2)cc1CCN(C)C

>  <Energy>  (33) 
66.15597410215328

>  <Genealogy>  (33) 
Cc1nn(S(=O)(=O)c2ccccn2)cc1CCN(C)C (3D coordinates assigned)
Cc1nn(S(=O)(=O)c2ccccn2)cc1CCN(C)C (optimized conformer: 66.15597410215328 kcal/mol)

>  <smiles>  (33) 
Cc1nn(S(=O)(=O)c2ccccn2)cc1CCN(C)C

>  <score_type>  (33) 
oracle

>  <origin>  (33) 
adg

>  <m_score__min__energy>  (33) 
-7.1500000000000004

>  <m_primary>  (33) 
energy

$$$$
33:0
     RDKit          3D

 57 61  0  0  0  0  0  0  0  0999 V2000
   64.4350   33.0590   49.3580 C   0  0  0  0  0  0  0  0  0  0  0  0
   63.4730   32.0160   49.8590 C   0  0  0  0  0  0  0  0  0  0  0  0
   63.9290   30.9920   50.7110 C   0  0  0  0  0  0  0  0  0  0  0  0
   63.0460   30.0090   51.1700 C   0  0  0  0  0  0  0  0  0  0  0  0
   61.7070   30.0250   50.7700 C   0  0  0  0  0  0  0  0  0  0  0  0
   61.2460   31.0280   49.9130 C   0  0  0  0  0  0  0  0  0  0  0  0
   62.1190   32.0250   49.4520 C   0  0  0  0  0  0  0  0  0  0  0  0
   61.6220   33.0390   48.5690 N   0  0  0  0  0  0  0  0  0  0  0  0
   60.9580   34.2230   49.1140 C   0  0  0  0  0  0  0  0  0  0  0  0
   59.7110   34.5110   48.2820 C   0  0  0  0  0  0  0  0  0  0  0  0
   60.0430   34.7690   46.8570 N   0  0  0  0  0  0  0  0  0  0  0  0
   58.8920   34.5270   46.0010 C   0  0  0  0  0  0  0  0  0  0  0  0
   58.8930   34.9560   44.8540 O   0  0  0  0  0  0  0  0  0  0  0  0
   57.6720   33.7680   46.4790 C   0  0  0  0  0  0  0  0  0  0  0  0
   57.9290   32.3230   46.4650 N   0  0  0  0  0  0  0  0  0  0  0  0
   58.6370   31.7990   47.4800 N   0  0  0  0  0  0  0  0  0  0  0  0
   58.9420   30.4730   47.5530 C   0  0  0  0  0  0  0  0  0  0  0  0
   58.4950   29.6550   46.5290 C   0  0  0  0  0  0  0  0  0  0  0  0
   58.6240   28.3040   46.3080 C   0  0  0  0  0  0  0  0  0  0  0  0
   59.2580   27.3070   47.0460 C   0  0  0  0  0  0  0  0  0  0  0  0
   59.2120   25.9950   46.5420 C   0  0  0  0  0  0  0  0  0  0  0  0
   58.5450   25.7130   45.3310 C   0  0  0  0  0  0  0  0  0  0  0  0
   57.9130   26.7410   44.6040 C   0  0  0  0  0  0  0  0  0  0  0  0
   57.9660   28.0430   45.1190 C   0  0  0  0  0  0  0  0  0  0  0  0
   57.4320   29.1800   44.5990 N   0  0  0  0  0  0  0  0  0  0  0  0
   56.6710   29.3340   43.3580 C   0  0  0  0  0  0  0  0  0  0  0  0
   57.7720   30.1610   45.4770 C   0  0  0  0  0  0  0  0  0  0  0  0
   57.4820   31.5280   45.4310 C   0  0  0  0  0  0  0  0  0  0  0  0
   56.8280   32.0180   44.4690 O   0  0  0  0  0  0  0  0  0  0  0  0
   61.2650   34.0810   46.3480 C   0  0  0  0  0  0  0  0  0  0  0  0
   61.6440   32.8060   47.1220 C   0  0  0  0  0  0  0  0  0  0  0  0
   64.9035   33.5670   50.2138 H   0  0  0  0  0  0  0  0  0  0  0  0
   65.2126   32.5773   48.7470 H   0  0  0  0  0  0  0  0  0  0  0  0
   63.8922   33.7952   48.7470 H   0  0  0  0  0  0  0  0  0  0  0  0
   64.9852   30.9649   51.0173 H   0  0  0  0  0  0  0  0  0  0  0  0
   63.4066   29.2212   51.8477 H   0  0  0  0  0  0  0  0  0  0  0  0
   61.0161   29.2483   51.1297 H   0  0  0  0  0  0  0  0  0  0  0  0
   60.1921   31.0359   49.5979 H   0  0  0  0  0  0  0  0  0  0  0  0
   60.6708   34.0380   50.1596 H   0  0  0  0  0  0  0  0  0  0  0  0
   61.6401   35.0853   49.0780 H   0  0  0  0  0  0  0  0  0  0  0  0
   59.0374   33.6432   48.3387 H   0  0  0  0  0  0  0  0  0  0  0  0
   59.2307   35.4131   48.6888 H   0  0  0  0  0  0  0  0  0  0  0  0
   60.2530   35.7980   46.7970 H   0  0  0  0  0  0  0  0  0  0  0  0
   57.4284   34.0827   47.5045 H   0  0  0  0  0  0  0  0  0  0  0  0
   56.8300   33.9867   45.8058 H   0  0  0  0  0  0  0  0  0  0  0  0
   59.5222   30.0671   48.3948 H   0  0  0  0  0  0  0  0  0  0  0  0
   59.7758   27.5376   47.9887 H   0  0  0  0  0  0  0  0  0  0  0  0
   59.7007   25.1808   47.0971 H   0  0  0  0  0  0  0  0  0  0  0  0
   58.5182   24.6810   44.9511 H   0  0  0  0  0  0  0  0  0  0  0  0
   57.3926   26.5275   43.6587 H   0  0  0  0  0  0  0  0  0  0  0  0
   55.6187   29.5470   43.5972 H   0  0  0  0  0  0  0  0  0  0  0  0
   57.0894   30.1657   42.7721 H   0  0  0  0  0  0  0  0  0  0  0  0
   56.7331   28.4051   42.7721 H   0  0  0  0  0  0  0  0  0  0  0  0
   61.0932   33.8072   45.2966 H   0  0  0  0  0  0  0  0  0  0  0  0
   62.0994   34.7863   46.4759 H   0  0  0  0  0  0  0  0  0  0  0  0
   60.9261   32.0098   46.8757 H   0  0  0  0  0  0  0  0  0  0  0  0
   62.6634   32.5119   46.8317 H   0  0  0  0  0  0  0  0  0  0  0  0
  1  2  1  0
  2  3  2  0
  3  4  1  0
  4  5  2  0
  5  6  1  0
  6  7  2  0
  7  8  1  0
  8  9  1  0
  9 10  1  0
 10 11  1  0
 11 12  1  0
 12 13  2  0
 12 14  1  0
 14 15  1  0
 15 16  1  0
 16 17  2  0
 17 18  1  0
 18 19  1  0
 19 20  2  0
 20 21  1  0
 21 22  2  0
 22 23  1  0
 23 24  2  0
 24 25  1  0
 25 26  1  0
 25 27  1  0
 27 28  1  0
 28 29  2  0
 11 30  1  0
 30 31  1  0
  7  2  1  0
 31  8  1  0
 28 15  1  0
 27 18  2  0
 24 19  1  0
  1 32  1  0
  1 33  1  0
  1 34  1  0
  3 35  1  0
  4 36  1  0
  5 37  1  0
  6 38  1  0
  9 39  1  0
  9 40  1  0
 10 41  1  0
 10 42  1  0
 11 43  1  0
 14 44  1  0
 14 45  1  0
 17 46  1  0
 20 47  1  0
 21 48  1  0
 22 49  1  0
 23 50  1  0
 26 51  1  0
 26 52  1  0
 26 53  1  0
 30 54  1  0
 30 55  1  0
 31 56  1  0
 31 57  1  0
M  CHG  1  11   1
M  END
>  <UniqueID>  (34) 
30

>  <SMILES>  (34) 
Cc1ccccc1N1CC[NH+](C(=O)Cn2ncc3c4ccccc4n(C)c3c2=O)CC1

>  <Energy>  (34) 
122.52529002824406

>  <Genealogy>  (34) 
Cc1ccccc1N1CC[NH+](C(=O)Cn2ncc3c4ccccc4n(C)c3c2=O)CC1 (protonated)
Cc1ccccc1N1CC[NH+](C(=O)Cn2ncc3c4ccccc4n(C)c3c2=O)CC1 (3D coordinates assigned)
Cc1ccccc1N1CC[NH+](C(=O)Cn2ncc3c4ccccc4n(C)c3c2=O)CC1 (nonaromatic ring conformer: 122.52529002824406 kcal/mol)

>  <smiles>  (34) 
Cc1ccccc1N1CCN(C(=O)Cn2ncc3c4ccccc4n(C)c3c2=O)CC1

>  <score_type>  (34) 
oracle

>  <origin>  (34) 
adg

>  <m_score__min__energy>  (34) 
-7.4800000000000004

>  <m_primary>  (34) 
energy

$$$$
34:0
     RDKit          3D

 23 25  0  0  0  0  0  0  0  0999 V2000
   59.5630   33.5530   49.1460 C   0  0  0  0  0  0  0  0  0  0  0  0
   58.9810   32.3290   48.7780 C   0  0  0  0  0  0  0  0  0  0  0  0
   58.5310   32.1420   47.4640 C   0  0  0  0  0  0  0  0  0  0  0  0
   58.6720   33.1660   46.5720 N   0  0  0  0  0  0  0  0  0  0  0  0
   58.3420   33.2840   45.2640 C   0  0  0  0  0  0  0  0  0  0  0  0
   57.6930   32.2530   44.4020 C   0  0  0  0  0  0  0  0  0  0  0  0
   57.7780   32.3170   43.0000 C   0  0  0  0  0  0  0  0  0  0  0  0
   57.1530   31.3290   42.2410 C   0  0  0  0  0  0  0  0  0  0  0  0
   56.4770   30.3250   42.8560 N   0  0  0  0  0  0  0  0  0  0  0  0
   56.4000   30.2710   44.2090 C   0  0  0  0  0  0  0  0  0  0  0  0
   57.0020   31.2260   44.9630 N   0  0  0  0  0  0  0  0  0  0  0  0
   58.7240   34.5620   44.8640 C   0  0  0  0  0  0  0  0  0  0  0  0
   59.2810   35.2290   45.8980 N   0  0  0  0  0  0  0  0  0  0  0  0
   59.2290   34.3450   46.9120 C   0  0  0  0  0  0  0  0  0  0  0  0
   59.6930   34.5820   48.2040 C   0  0  0  0  0  0  0  0  0  0  0  0
   59.9176   33.7042   50.1762 H   0  0  0  0  0  0  0  0  0  0  0  0
   58.8789   31.5211   49.5175 H   0  0  0  0  0  0  0  0  0  0  0  0
   58.0736   31.1897   47.1576 H   0  0  0  0  0  0  0  0  0  0  0  0
   58.3288   33.1335   42.5101 H   0  0  0  0  0  0  0  0  0  0  0  0
   57.2075   31.3628   41.1429 H   0  0  0  0  0  0  0  0  0  0  0  0
   55.8493   29.4527   44.6958 H   0  0  0  0  0  0  0  0  0  0  0  0
   58.5912   34.9699   43.8511 H   0  0  0  0  0  0  0  0  0  0  0  0
   60.1470   35.5463   48.4760 H   0  0  0  0  0  0  0  0  0  0  0  0
  1  2  1  0
  2  3  2  0
  3  4  1  0
  4  5  1  0
  5  6  1  0
  6  7  2  0
  7  8  1  0
  8  9  2  0
  9 10  1  0
 10 11  2  0
  5 12  2  0
 12 13  1  0
 13 14  2  0
 14 15  1  0
 15  1  2  0
 14  4  1  0
 11  6  1  0
  1 16  1  0
  2 17  1  0
  3 18  1  0
  7 19  1  0
  8 20  1  0
 10 21  1  0
 12 22  1  0
 15 23  1  0
M  END
>  <UniqueID>  (35) 
31

>  <SMILES>  (35) 
c1ccn2c(-c3ccncn3)cnc2c1

>  <Energy>  (35) 
66.00461233204133

>  <Genealogy>  (35) 
c1ccn2c(-c3ccncn3)cnc2c1 (3D coordinates assigned)
c1ccn2c(-c3ccncn3)cnc2c1 (optimized conformer: 66.00461233204133 kcal/mol)

>  <smiles>  (35) 
c1ccn2c(-c3ccncn3)cnc2c1

>  <score_type>  (35) 
oracle

>  <origin>  (35) 
adg

>  <m_score__min__energy>  (35) 
-5.9000000000000004

>  <m_primary>  (35) 
energy

$$$$
35:0
     RDKit          3D

 27 29  0  0  0  0  0  0  0  0999 V2000
   61.2560   34.5800   46.9420 F   0  0  0  0  0  0  0  0  0  0  0  0
   59.9110   34.8720   47.0700 C   0  0  0  0  0  0  0  0  0  0  0  0
   59.6530   36.0900   46.4660 F   0  0  0  0  0  0  0  0  0  0  0  0
   59.5990   34.9800   48.4140 F   0  0  0  0  0  0  0  0  0  0  0  0
   59.1020   33.7760   46.4260 C   0  0  0  0  0  0  0  0  0  0  0  0
   57.7880   34.0410   45.9510 C   0  0  0  0  0  0  0  0  0  0  0  0
   57.0050   33.0150   45.3900 C   0  0  0  0  0  0  0  0  0  0  0  0
   57.5540   31.7380   45.3350 C   0  0  0  0  0  0  0  0  0  0  0  0
   56.9890   30.6220   44.8550 N   0  0  0  0  0  0  0  0  0  0  0  0
   57.9530   29.6860   45.0630 C   0  0  0  0  0  0  0  0  0  0  0  0
   57.7850   28.2650   44.6870 C   0  0  0  0  0  0  0  0  0  0  0  0
   57.4440   27.3080   45.6580 C   0  0  0  0  0  0  0  0  0  0  0  0
   57.2910   25.9720   45.2850 C   0  0  0  0  0  0  0  0  0  0  0  0
   57.4760   25.5970   43.9550 C   0  0  0  0  0  0  0  0  0  0  0  0
   57.8140   26.5690   43.0120 C   0  0  0  0  0  0  0  0  0  0  0  0
   57.9610   27.8690   43.3890 N   0  0  0  0  0  0  0  0  0  0  0  0
   59.0830   30.1690   45.6480 N   0  0  0  0  0  0  0  0  0  0  0  0
   58.8000   31.4700   45.8060 C   0  0  0  0  0  0  0  0  0  0  0  0
   59.6070   32.4540   46.3680 C   0  0  0  0  0  0  0  0  0  0  0  0
   57.3790   35.0596   46.0229 H   0  0  0  0  0  0  0  0  0  0  0  0
   55.9932   33.2160   45.0080 H   0  0  0  0  0  0  0  0  0  0  0  0
   57.2986   27.6102   46.7056 H   0  0  0  0  0  0  0  0  0  0  0  0
   57.0250   25.2163   46.0388 H   0  0  0  0  0  0  0  0  0  0  0  0
   57.3569   24.5463   43.6520 H   0  0  0  0  0  0  0  0  0  0  0  0
   57.9622   26.2836   41.9601 H   0  0  0  0  0  0  0  0  0  0  0  0
   58.2160   28.5680   42.6550 H   0  0  0  0  0  0  0  0  0  0  0  0
   60.6076   32.2125   46.7558 H   0  0  0  0  0  0  0  0  0  0  0  0
  1  2  1  0
  2  3  1  0
  2  4  1  0
  2  5  1  0
  5  6  2  0
  6  7  1  0
  7  8  2  0
  8  9  1  0
  9 10  1  0
 10 11  1  0
 11 12  2  0
 12 13  1  0
 13 14  2  0
 14 15  1  0
 15 16  2  0
 10 17  2  0
 17 18  1  0
 18 19  2  0
 19  5  1  0
 18  8  1  0
 16 11  1  0
  6 20  1  0
  7 21  1  0
 12 22  1  0
 13 23  1  0
 14 24  1  0
 15 25  1  0
 16 26  1  0
 19 27  1  0
M  CHG  2   9  -1  16   1
M  END
>  <UniqueID>  (36) 
32

>  <SMILES>  (36) 
FC(F)(F)c1ccc2[n-]c(-c3cccc[nH+]3)nc2c1

>  <Energy>  (36) 
65.46270263318462

>  <Genealogy>  (36) 
FC(F)(F)c1ccc2[n-]c(-c3cccc[nH+]3)nc2c1 (protonated)
FC(F)(F)c1ccc2[n-]c(-c3cccc[nH+]3)nc2c1 (3D coordinates assigned)
FC(F)(F)c1ccc2[n-]c(-c3cccc[nH+]3)nc2c1 (optimized conformer: 65.46270263318462 kcal/mol)

>  <smiles>  (36) 
FC(F)(F)c1ccc2[nH]c(-c3ccccn3)nc2c1

>  <score_type>  (36) 
oracle

>  <origin>  (36) 
adg

>  <m_score__min__energy>  (36) 
-5.9000000000000004

>  <m_primary>  (36) 
energy

$$$$
36:0
     RDKit          3D

 24 24  0  0  0  0  0  0  0  0999 V2000
   56.7823   32.9742   43.5160 H   0  0  0  0  0  0  0  0  0  0  0  0
   57.4310   32.8600   44.3970 C   0  0  0  0  0  0  0  0  0  0  0  0
   58.2640   33.9120   44.7870 C   0  0  0  0  0  0  0  0  0  0  0  0
   58.2597   34.8521   44.2159 H   0  0  0  0  0  0  0  0  0  0  0  0
   59.1070   33.7780   45.9030 C   0  0  0  0  0  0  0  0  0  0  0  0
   59.9700   34.9310   46.3510 C   0  0  0  0  0  0  0  0  0  0  0  0
   61.3070   34.5700   46.3480 F   0  0  0  0  0  0  0  0  0  0  0  0
   59.6320   35.3260   47.6330 F   0  0  0  0  0  0  0  0  0  0  0  0
   59.7890   35.9960   45.4890 F   0  0  0  0  0  0  0  0  0  0  0  0
   59.0600   32.5910   46.6520 C   0  0  0  0  0  0  0  0  0  0  0  0
   59.6848   32.4880   47.5515 H   0  0  0  0  0  0  0  0  0  0  0  0
   58.2250   31.5390   46.2630 C   0  0  0  0  0  0  0  0  0  0  0  0
   58.2022   30.6125   46.8556 H   0  0  0  0  0  0  0  0  0  0  0  0
   57.4170   31.6560   45.1240 C   0  0  0  0  0  0  0  0  0  0  0  0
   56.5580   30.5630   44.7530 N   0  0  0  0  0  0  0  0  0  0  0  0
   55.6350   30.4720   45.2350 H   0  0  0  0  0  0  0  0  0  0  0  0
   56.8050   29.6870   43.6390 C   0  0  0  0  0  0  0  0  0  0  0  0
   55.7780   29.5180   42.6580 N   0  0  0  0  0  0  0  0  0  0  0  0
   55.9070   28.8720   41.8470 H   0  0  0  0  0  0  0  0  0  0  0  0
   54.8830   30.0480   42.7390 H   0  0  0  0  0  0  0  0  0  0  0  0
   57.9100   29.0020   43.5400 N   0  0  0  0  0  0  0  0  0  0  0  0
   58.8140   29.4970   43.3690 H   0  0  0  0  0  0  0  0  0  0  0  0
   57.9440   27.5970   43.5740 C   0  0  0  0  0  0  0  0  0  0  0  0
   57.9720   26.4400   43.6040 N   0  0  0  0  0  0  0  0  0  0  0  0
  1  2  1  0
  2  3  2  0
  3  4  1  0
  3  5  1  0
  5  6  1  0
  6  7  1  0
  6  8  1  0
  6  9  1  0
  5 10  2  0
 10 11  1  0
 10 12  1  0
 12 13  1  0
 12 14  2  0
 14 15  1  0
 15 16  1  0
 15 17  1  0
 17 18  1  0
 18 19  1  0
 18 20  1  0
 17 21  2  0
 21 22  1  0
 21 23  1  0
 23 24  3  0
 14  2  1  0
M  CHG  1  21   1
M  END
>  <UniqueID>  (37) 
33

>  <SMILES>  (37) 
N#C/[NH+]=C(/N)Nc1ccc(C(F)(F)F)cc1

>  <Energy>  (37) 
27.720428057483854

>  <Genealogy>  (37) 
N#C[NH+]=C(N)Nc1ccc(C(F)(F)F)cc1 (protonated)
N#C/[NH+]=C(/N)Nc1ccc(C(F)(F)F)cc1 (cis-trans isomerization)
N#C/[NH+]=C(/N)Nc1ccc(C(F)(F)F)cc1 (3D coordinates assigned)
N#C/[NH+]=C(/N)Nc1ccc(C(F)(F)F)cc1 (optimized conformer: 27.720428057483854 kcal/mol)

>  <smiles>  (37) 
N#CN=C(N)Nc1ccc(C(F)(F)F)cc1

>  <score_type>  (37) 
oracle

>  <origin>  (37) 
adg

>  <m_score__min__energy>  (37) 
-4.0300000000000002

>  <m_primary>  (37) 
energy

$$$$
37:0
     RDKit          3D

 56 58  0  0  0  0  0  0  0  0999 V2000
   59.9060   33.8310   50.0900 C   0  0  0  0  0  0  0  0  0  0  0  0
   59.7570   34.6030   48.9030 O   0  0  0  0  0  0  0  0  0  0  0  0
   59.3520   34.0810   47.6650 C   0  0  0  0  0  0  0  0  0  0  0  0
   59.6750   34.7000   46.4430 C   0  0  0  0  0  0  0  0  0  0  0  0
   59.2460   34.1410   45.2350 C   0  0  0  0  0  0  0  0  0  0  0  0
   58.5010   32.9510   45.2280 C   0  0  0  0  0  0  0  0  0  0  0  0
   58.0180   32.3620   43.9310 C   0  0  0  0  0  0  0  0  0  0  0  0
   57.2260   31.1180   44.1920 C   0  0  0  0  0  0  0  0  0  0  0  0
   56.1370   31.1990   44.8210 O   0  0  0  0  0  0  0  0  0  0  0  0
   57.7200   29.8440   43.7510 N   0  0  0  0  0  0  0  0  0  0  0  0
   57.0460   28.5860   44.0730 C   0  0  0  0  0  0  0  0  0  0  0  0
   58.0520   27.4390   44.1990 C   0  0  0  0  0  0  0  0  0  0  0  0
   58.4830   27.0530   45.9020 S   0  0  0  0  0  0  0  0  0  0  0  0
   59.0100   25.6460   45.9300 O   0  0  0  0  0  0  0  0  0  0  0  0
   57.2480   27.1060   46.7580 O   0  0  0  0  0  0  0  0  0  0  0  0
   59.7100   28.1090   46.5660 N   0  0  0  0  0  0  0  0  0  0  0  0
   59.4320   28.4810   47.9760 C   0  0  0  0  0  0  0  0  0  0  0  0
   59.7740   29.9440   48.3160 C   0  0  0  0  0  0  0  0  0  0  0  0
   60.9880   30.3750   47.6140 N   0  0  0  0  0  0  0  0  0  0  0  0
   61.8580   31.3490   48.2200 C   0  0  0  0  0  0  0  0  0  0  0  0
   62.3510   32.4230   47.4600 C   0  0  0  0  0  0  0  0  0  0  0  0
   63.2060   33.3660   48.0390 C   0  0  0  0  0  0  0  0  0  0  0  0
   63.5740   33.2460   49.3810 C   0  0  0  0  0  0  0  0  0  0  0  0
   63.0850   32.1850   50.1470 C   0  0  0  0  0  0  0  0  0  0  0  0
   62.2310   31.2370   49.5720 C   0  0  0  0  0  0  0  0  0  0  0  0
   61.7400   30.2380   50.3460 F   0  0  0  0  0  0  0  0  0  0  0  0
   61.1600   30.0450   46.1920 C   0  0  0  0  0  0  0  0  0  0  0  0
   59.9640   29.2480   45.6710 C   0  0  0  0  0  0  0  0  0  0  0  0
   58.1730   32.3380   46.4480 C   0  0  0  0  0  0  0  0  0  0  0  0
   58.5980   32.9000   47.6560 C   0  0  0  0  0  0  0  0  0  0  0  0
   59.7805   34.4811   50.9684 H   0  0  0  0  0  0  0  0  0  0  0  0
   59.1444   33.0375   50.1093 H   0  0  0  0  0  0  0  0  0  0  0  0
   60.9082   33.3779   50.1093 H   0  0  0  0  0  0  0  0  0  0  0  0
   60.2671   35.6270   46.4381 H   0  0  0  0  0  0  0  0  0  0  0  0
   59.4937   34.6366   44.2847 H   0  0  0  0  0  0  0  0  0  0  0  0
   57.3826   33.0954   43.4130 H   0  0  0  0  0  0  0  0  0  0  0  0
   58.8869   32.1101   43.3052 H   0  0  0  0  0  0  0  0  0  0  0  0
   58.6690   29.8020   43.3180 H   0  0  0  0  0  0  0  0  0  0  0  0
   56.5093   28.6996   45.0264 H   0  0  0  0  0  0  0  0  0  0  0  0
   56.3439   28.3476   43.2605 H   0  0  0  0  0  0  0  0  0  0  0  0
   57.6166   26.5407   43.7370 H   0  0  0  0  0  0  0  0  0  0  0  0
   58.9754   27.7592   43.6943 H   0  0  0  0  0  0  0  0  0  0  0  0
   58.3613   28.3215   48.1714 H   0  0  0  0  0  0  0  0  0  0  0  0
   60.0756   27.8487   48.6053 H   0  0  0  0  0  0  0  0  0  0  0  0
   58.9356   30.5892   48.0147 H   0  0  0  0  0  0  0  0  0  0  0  0
   59.9485   30.0213   49.3993 H   0  0  0  0  0  0  0  0  0  0  0  0
   62.0627   32.5227   46.4031 H   0  0  0  0  0  0  0  0  0  0  0  0
   63.5891   34.2031   47.4369 H   0  0  0  0  0  0  0  0  0  0  0  0
   64.2488   33.9868   49.8347 H   0  0  0  0  0  0  0  0  0  0  0  0
   63.3720   32.0944   51.2050 H   0  0  0  0  0  0  0  0  0  0  0  0
   61.2519   30.9765   45.6142 H   0  0  0  0  0  0  0  0  0  0  0  0
   62.0673   29.4333   46.0793 H   0  0  0  0  0  0  0  0  0  0  0  0
   59.0759   29.8963   45.6407 H   0  0  0  0  0  0  0  0  0  0  0  0
   60.1813   28.8785   44.6580 H   0  0  0  0  0  0  0  0  0  0  0  0
   57.5793   31.4120   46.4536 H   0  0  0  0  0  0  0  0  0  0  0  0
   58.3383   32.4111   48.6065 H   0  0  0  0  0  0  0  0  0  0  0  0
  1  2  1  0
  2  3  1  0
  3  4  2  0
  4  5  1  0
  5  6  2  0
  6  7  1  0
  7  8  1  0
  8  9  2  0
  8 10  1  0
 10 11  1  0
 11 12  1  0
 12 13  1  0
 13 14  2  0
 13 15  2  0
 13 16  1  0
 16 17  1  0
 17 18  1  0
 18 19  1  0
 19 20  1  0
 20 21  2  0
 21 22  1  0
 22 23  2  0
 23 24  1  0
 24 25  2  0
 25 26  1  0
 19 27  1  0
 27 28  1  0
  6 29  1  0
 29 30  2  0
 30  3  1  0
 28 16  1  0
 25 20  1  0
  1 31  1  0
  1 32  1  0
  1 33  1  0
  4 34  1  0
  5 35  1  0
  7 36  1  0
  7 37  1  0
 10 38  1  0
 11 39  1  0
 11 40  1  0
 12 41  1  0
 12 42  1  0
 17 43  1  0
 17 44  1  0
 18 45  1  0
 18 46  1  0
 21 47  1  0
 22 48  1  0
 23 49  1  0
 24 50  1  0
 27 51  1  0
 27 52  1  0
 28 53  1  0
 28 54  1  0
 29 55  1  0
 30 56  1  0
M  END
>  <UniqueID>  (38) 
34

>  <SMILES>  (38) 
COc1ccc(CC(=O)NCCS(=O)(=O)N2CCN(c3ccccc3F)CC2)cc1

>  <Energy>  (38) 
56.67707819666783

>  <Genealogy>  (38) 
COc1ccc(CC(=O)NCCS(=O)(=O)N2CCN(c3ccccc3F)CC2)cc1 (3D coordinates assigned)
COc1ccc(CC(=O)NCCS(=O)(=O)N2CCN(c3ccccc3F)CC2)cc1 (nonaromatic ring conformer: 56.67707819666783 kcal/mol)

>  <smiles>  (38) 
COc1ccc(CC(=O)NCCS(=O)(=O)N2CCN(c3ccccc3F)CC2)cc1

>  <score_type>  (38) 
oracle

>  <origin>  (38) 
adg

>  <m_score__min__energy>  (38) 
-8.6699999999999999

>  <m_primary>  (38) 
energy

$$$$
38:0
     RDKit          3D

 27 28  0  0  0  0  0  0  0  0999 V2000
   56.3500   29.6290   42.2860 C   0  0  0  0  0  0  0  0  0  0  0  0
   55.3190   29.7170   43.7810 S   0  0  0  0  0  0  0  0  0  0  0  0
   56.7190   29.9690   44.8660 C   0  0  0  0  0  0  0  0  0  0  0  0
   57.1900   31.2190   45.0850 N   0  0  0  0  0  0  0  0  0  0  0  0
   58.2540   31.4220   45.9050 C   0  0  0  0  0  0  0  0  0  0  0  0
   58.7520   32.8030   46.1240 C   0  0  0  0  0  0  0  0  0  0  0  0
   59.1370   33.2460   47.4040 C   0  0  0  0  0  0  0  0  0  0  0  0
   59.5960   34.5540   47.5920 C   0  0  0  0  0  0  0  0  0  0  0  0
   59.6720   35.4330   46.5090 C   0  0  0  0  0  0  0  0  0  0  0  0
   59.2820   35.0090   45.2370 C   0  0  0  0  0  0  0  0  0  0  0  0
   58.8210   33.7030   45.0440 C   0  0  0  0  0  0  0  0  0  0  0  0
   58.8530   30.3490   46.5000 N   0  0  0  0  0  0  0  0  0  0  0  0
   58.3770   29.0890   46.2890 C   0  0  0  0  0  0  0  0  0  0  0  0
   59.0450   27.9030   46.9410 C   0  0  0  0  0  0  0  0  0  0  0  0
   59.6160   28.3530   48.5690 Cl  0  0  0  0  0  0  0  0  0  0  0  0
   60.4400   27.3880   45.9600 Cl  0  0  0  0  0  0  0  0  0  0  0  0
   57.9380   26.5100   47.1080 Cl  0  0  0  0  0  0  0  0  0  0  0  0
   57.3080   28.9080   45.4690 N   0  0  0  0  0  0  0  0  0  0  0  0
   57.4076   29.5387   42.5747 H   0  0  0  0  0  0  0  0  0  0  0  0
   56.0567   28.7526   41.6894 H   0  0  0  0  0  0  0  0  0  0  0  0
   56.2095   30.5424   41.6894 H   0  0  0  0  0  0  0  0  0  0  0  0
   59.0765   32.5594   48.2612 H   0  0  0  0  0  0  0  0  0  0  0  0
   59.8977   34.8910   48.5947 H   0  0  0  0  0  0  0  0  0  0  0  0
   60.0391   36.4592   46.6582 H   0  0  0  0  0  0  0  0  0  0  0  0
   59.3375   35.7033   44.3856 H   0  0  0  0  0  0  0  0  0  0  0  0
   58.5100   33.3766   44.0407 H   0  0  0  0  0  0  0  0  0  0  0  0
   59.6990   30.4800   47.0980 H   0  0  0  0  0  0  0  0  0  0  0  0
  1  2  1  0
  2  3  1  0
  3  4  2  0
  4  5  1  0
  5  6  1  0
  6  7  2  0
  7  8  1  0
  8  9  2  0
  9 10  1  0
 10 11  2  0
  5 12  2  0
 12 13  1  0
 13 14  1  0
 14 15  1  0
 14 16  1  0
 14 17  1  0
 13 18  2  0
 18  3  1  0
 11  6  1  0
  1 19  1  0
  1 20  1  0
  1 21  1  0
  7 22  1  0
  8 23  1  0
  9 24  1  0
 10 25  1  0
 11 26  1  0
 12 27  1  0
M  CHG  1  12   1
M  END
>  <UniqueID>  (39) 
35

>  <SMILES>  (39) 
CSc1nc(-c2ccccc2)[nH+]c(C(Cl)(Cl)Cl)n1

>  <Energy>  (39) 
27.101670171039803

>  <Genealogy>  (39) 
CSc1nc(-c2ccccc2)[nH+]c(C(Cl)(Cl)Cl)n1 (protonated)
CSc1nc(-c2ccccc2)[nH+]c(C(Cl)(Cl)Cl)n1 (3D coordinates assigned)
CSc1nc(-c2ccccc2)[nH+]c(C(Cl)(Cl)Cl)n1 (optimized conformer: 27.101670171039803 kcal/mol)

>  <smiles>  (39) 
CSc1nc(-c2ccccc2)nc(C(Cl)(Cl)Cl)n1

>  <score_type>  (39) 
oracle

>  <origin>  (39) 
adg

>  <m_score__min__energy>  (39) 
-5.3499999999999996

>  <m_primary>  (39) 
energy

$$$$
39:0
     RDKit          3D

 47 49  0  0  0  0  0  0  0  0999 V2000
   57.6760   31.7360   42.6440 C   0  0  0  0  0  0  0  0  0  0  0  0
   56.8220   30.3610   43.3830 S   0  0  0  0  0  0  0  0  0  0  0  0
   55.5180   30.8420   43.9600 O   0  0  0  0  0  0  0  0  0  0  0  0
   56.5440   29.3310   42.3240 O   0  0  0  0  0  0  0  0  0  0  0  0
   57.8440   29.6350   44.6670 C   0  0  2  0  0  0  0  0  0  0  0  0
   57.0850   28.6420   45.5210 C   0  0  0  0  0  0  0  0  0  0  0  0
   55.8950   28.3420   45.2340 O   0  0  0  0  0  0  0  0  0  0  0  0
   57.6670   28.0740   46.7000 N   0  0  0  0  0  0  0  0  0  0  0  0
   58.7260   27.0730   46.6960 C   0  0  0  0  0  0  0  0  0  0  0  0
   58.4320   26.0220   45.6300 C   0  0  0  0  0  0  0  0  0  0  0  0
   57.0210   25.0230   46.0850 S   0  0  0  0  0  0  0  0  0  0  0  0
   55.6010   26.0040   46.2150 N   0  0  0  0  0  0  0  0  0  0  0  0
   56.8010   23.9780   45.0290 O   0  0  0  0  0  0  0  0  0  0  0  0
   57.2820   24.3460   47.4010 O   0  0  0  0  0  0  0  0  0  0  0  0
   58.4460   30.7110   45.5210 C   0  0  0  0  0  0  0  0  0  0  0  0
   59.6140   30.5490   46.1900 N   0  0  0  0  0  0  0  0  0  0  0  0
   59.9460   31.6720   46.8750 C   0  0  0  0  0  0  0  0  0  0  0  0
   61.0890   31.8030   47.6640 C   0  0  0  0  0  0  0  0  0  0  0  0
   61.3260   33.0250   48.3350 C   0  0  0  0  0  0  0  0  0  0  0  0
   62.5340   33.1910   49.1840 C   0  0  0  0  0  0  0  0  0  0  0  0
   63.6190   32.3010   49.0660 C   0  0  0  0  0  0  0  0  0  0  0  0
   64.7550   32.4600   49.8670 C   0  0  0  0  0  0  0  0  0  0  0  0
   65.7970   31.6020   49.7420 F   0  0  0  0  0  0  0  0  0  0  0  0
   64.8200   33.5040   50.7910 C   0  0  0  0  0  0  0  0  0  0  0  0
   63.7500   34.3930   50.9180 C   0  0  0  0  0  0  0  0  0  0  0  0
   63.8130   35.4040   51.8190 F   0  0  0  0  0  0  0  0  0  0  0  0
   62.6120   34.2400   50.1190 C   0  0  0  0  0  0  0  0  0  0  0  0
   60.4000   34.0890   48.1910 C   0  0  0  0  0  0  0  0  0  0  0  0
   59.2550   33.9400   47.3920 C   0  0  0  0  0  0  0  0  0  0  0  0
   59.0570   32.7240   46.7500 C   0  0  0  0  0  0  0  0  0  0  0  0
   57.7930   32.2620   45.7480 S   0  0  0  0  0  0  0  0  0  0  0  0
   58.0792   32.3852   43.4351 H   0  0  0  0  0  0  0  0  0  0  0  0
   58.5013   31.3625   42.0200 H   0  0  0  0  0  0  0  0  0  0  0  0
   56.9754   32.3103   42.0200 H   0  0  0  0  0  0  0  0  0  0  0  0
   58.6475   29.0758   44.1653 H   0  0  0  0  0  0  0  0  0  0  0  0
   59.6881   27.5587   46.4759 H   0  0  0  0  0  0  0  0  0  0  0  0
   58.7753   26.5891   47.6826 H   0  0  0  0  0  0  0  0  0  0  0  0
   58.2221   26.5270   44.6756 H   0  0  0  0  0  0  0  0  0  0  0  0
   59.3094   25.3654   45.5346 H   0  0  0  0  0  0  0  0  0  0  0  0
   55.3590   26.3250   45.2500 H   0  0  0  0  0  0  0  0  0  0  0  0
   55.8580   26.8540   46.7630 H   0  0  0  0  0  0  0  0  0  0  0  0
   61.7967   30.9667   47.7629 H   0  0  0  0  0  0  0  0  0  0  0  0
   63.5731   31.4760   48.3398 H   0  0  0  0  0  0  0  0  0  0  0  0
   65.7143   33.6268   51.4196 H   0  0  0  0  0  0  0  0  0  0  0  0
   61.7730   34.9439   50.2221 H   0  0  0  0  0  0  0  0  0  0  0  0
   60.5805   35.0415   48.7108 H   0  0  0  0  0  0  0  0  0  0  0  0
   58.5346   34.7634   47.2775 H   0  0  0  0  0  0  0  0  0  0  0  0
  1  2  1  0
  2  3  2  0
  2  4  2  0
  2  5  1  0
  5  6  1  0
  6  7  2  0
  6  8  1  0
  8  9  1  0
  9 10  1  0
 10 11  1  0
 11 12  1  0
 11 13  2  0
 11 14  2  0
  5 15  1  0
 15 16  2  0
 16 17  1  0
 17 18  2  0
 18 19  1  0
 19 20  1  0
 20 21  2  0
 21 22  1  0
 22 23  1  0
 22 24  2  0
 24 25  1  0
 25 26  1  0
 25 27  2  0
 19 28  2  0
 28 29  1  0
 29 30  2  0
 30 31  1  0
 31 15  1  0
 30 17  1  0
 27 20  1  0
  1 32  1  0
  1 33  1  0
  1 34  1  0
  5 35  1  6
  9 36  1  0
  9 37  1  0
 10 38  1  0
 10 39  1  0
 12 40  1  0
 12 41  1  0
 18 42  1  0
 21 43  1  0
 24 44  1  0
 27 45  1  0
 28 46  1  0
 29 47  1  0
M  CHG  1   8  -1
M  END
>  <UniqueID>  (40) 
36

>  <SMILES>  (40) 
CS(=O)(=O)[C@H](C(=O)[N-]CCS(N)(=O)=O)c1nc2cc(-c3cc(F)cc(F)c3)ccc2s1

>  <Energy>  (40) 
69.51236722105551

>  <Genealogy>  (40) 
CS(=O)(=O)C(C(=O)[N-]CCS(N)(=O)=O)c1nc2cc(-c3cc(F)cc(F)c3)ccc2s1 (protonated)
CS(=O)(=O)[C@H](C(=O)[N-]CCS(N)(=O)=O)c1nc2cc(-c3cc(F)cc(F)c3)ccc2s1 (chirality)
CS(=O)(=O)[C@H](C(=O)[N-]CCS(N)(=O)=O)c1nc2cc(-c3cc(F)cc(F)c3)ccc2s1 (3D coordinates assigned)
CS(=O)(=O)[C@H](C(=O)[N-]CCS(N)(=O)=O)c1nc2cc(-c3cc(F)cc(F)c3)ccc2s1 (optimized conformer: 69.51236722105551 kcal/mol)

>  <smiles>  (40) 
CS(=O)(=O)C(C(=O)NCCS(N)(=O)=O)c1nc2cc(-c3cc(F)cc(F)c3)ccc2s1

>  <score_type>  (40) 
oracle

>  <origin>  (40) 
adg

>  <m_score__min__energy>  (40) 
-10.529999999999999

>  <m_primary>  (40) 
energy

$$$$
40:0
     RDKit          3D

 23 25  0  0  0  0  0  0  0  0999 V2000
   57.3790   31.9740   41.5020 C   0  0  0  0  0  0  0  0  0  0  0  0
   57.5650   32.0220   42.9890 C   0  0  0  0  0  0  0  0  0  0  0  0
   57.0740   30.9880   43.8010 C   0  0  0  0  0  0  0  0  0  0  0  0
   57.2750   31.0130   45.1450 N   0  0  0  0  0  0  0  0  0  0  0  0
   57.9590   32.0210   45.7490 C   0  0  0  0  0  0  0  0  0  0  0  0
   58.1440   32.0100   47.1450 C   0  0  0  0  0  0  0  0  0  0  0  0
   58.8570   33.0610   47.7130 C   0  0  0  0  0  0  0  0  0  0  0  0
   59.3670   34.0760   46.9670 C   0  0  0  0  0  0  0  0  0  0  0  0
   59.2100   34.1300   45.5840 C   0  0  0  0  0  0  0  0  0  0  0  0
   58.4930   33.0840   44.9630 C   0  0  0  0  0  0  0  0  0  0  0  0
   58.2920   33.0670   43.5790 C   0  0  0  0  0  0  0  0  0  0  0  0
   60.0210   34.9700   47.7920 O   0  0  0  0  0  0  0  0  0  0  0  0
   59.9150   34.4900   49.1400 C   0  0  0  0  0  0  0  0  0  0  0  0
   59.1660   33.2700   49.0440 O   0  0  0  0  0  0  0  0  0  0  0  0
   56.3376   31.7053   41.2712 H   0  0  0  0  0  0  0  0  0  0  0  0
   57.6071   32.9604   41.0719 H   0  0  0  0  0  0  0  0  0  0  0  0
   58.0559   31.2211   41.0719 H   0  0  0  0  0  0  0  0  0  0  0  0
   56.5227   30.1516   43.3466 H   0  0  0  0  0  0  0  0  0  0  0  0
   57.7383   31.1975   47.7657 H   0  0  0  0  0  0  0  0  0  0  0  0
   59.6302   34.9591   44.9958 H   0  0  0  0  0  0  0  0  0  0  0  0
   58.7037   33.8726   42.9533 H   0  0  0  0  0  0  0  0  0  0  0  0
   60.9129   34.2985   49.5614 H   0  0  0  0  0  0  0  0  0  0  0  0
   59.4281   35.2219   49.8012 H   0  0  0  0  0  0  0  0  0  0  0  0
  1  2  1  0
  2  3  2  0
  3  4  1  0
  4  5  2  0
  5  6  1  0
  6  7  2  0
  7  8  1  0
  8  9  2  0
  9 10  1  0
 10 11  2  0
  8 12  1  0
 12 13  1  0
 13 14  1  0
 11  2  1  0
 10  5  1  0
 14  7  1  0
  1 15  1  0
  1 16  1  0
  1 17  1  0
  3 18  1  0
  6 19  1  0
  9 20  1  0
 11 21  1  0
 13 22  1  0
 13 23  1  0
M  END
>  <UniqueID>  (41) 
37

>  <SMILES>  (41) 
Cc1cnc2cc3c(cc2c1)OCO3

>  <Energy>  (41) 
55.09437532261056

>  <Genealogy>  (41) 
Cc1cnc2cc3c(cc2c1)OCO3 (3D coordinates assigned)
Cc1cnc2cc3c(cc2c1)OCO3 (nonaromatic ring conformer: 55.09437532261056 kcal/mol)

>  <smiles>  (41) 
Cc1cnc2cc3c(cc2c1)OCO3

>  <score_type>  (41) 
oracle

>  <origin>  (41) 
adg

>  <m_score__min__energy>  (41) 
-5.4100000000000001

>  <m_primary>  (41) 
energy

$$$$
41:0
     RDKit          3D

 38 40  0  0  0  0  0  0  0  0999 V2000
   58.0800   34.2110   45.7450 C   0  0  0  0  0  0  0  0  0  0  0  0
   57.8670   32.8600   45.1290 C   0  0  0  0  0  0  0  0  0  0  0  0
   57.8480   31.7130   45.9360 C   0  0  0  0  0  0  0  0  0  0  0  0
   57.6860   30.4490   45.3610 C   0  0  0  0  0  0  0  0  0  0  0  0
   57.5370   30.3130   43.9730 C   0  0  0  0  0  0  0  0  0  0  0  0
   57.4010   29.0020   43.4020 N   0  0  0  0  0  0  0  0  0  0  0  0
   58.2110   27.8660   43.7580 C   0  0  0  0  0  0  0  0  0  0  0  0
   59.7300   28.0860   44.3540 S   0  0  0  0  0  0  0  0  0  0  0  0
   57.7630   26.5400   43.4170 N   0  0  0  0  0  0  0  0  0  0  0  0
   57.5250   25.7580   44.6140 C   0  0  0  0  0  0  0  0  0  0  0  0
   57.6480   26.3950   45.8660 C   0  0  0  0  0  0  0  0  0  0  0  0
   57.3940   25.7120   47.0520 C   0  0  0  0  0  0  0  0  0  0  0  0
   57.0100   24.3750   47.0230 C   0  0  0  0  0  0  0  0  0  0  0  0
   56.8850   23.7010   45.8020 C   0  0  0  0  0  0  0  0  0  0  0  0
   56.5060   22.3500   45.7940 C   0  0  0  0  0  0  0  0  0  0  0  0
   56.3850   21.6600   44.5900 C   0  0  0  0  0  0  0  0  0  0  0  0
   56.6430   22.3090   43.3850 C   0  0  0  0  0  0  0  0  0  0  0  0
   57.0230   23.6530   43.3730 C   0  0  0  0  0  0  0  0  0  0  0  0
   57.1450   24.3810   44.5790 C   0  0  0  0  0  0  0  0  0  0  0  0
   57.6000   31.4590   43.1620 C   0  0  0  0  0  0  0  0  0  0  0  0
   57.7630   32.7240   43.7360 C   0  0  0  0  0  0  0  0  0  0  0  0
   58.0657   34.1205   46.8412 H   0  0  0  0  0  0  0  0  0  0  0  0
   59.0524   34.6117   45.4228 H   0  0  0  0  0  0  0  0  0  0  0  0
   57.2780   34.8915   45.4228 H   0  0  0  0  0  0  0  0  0  0  0  0
   57.9610   31.8084   47.0260 H   0  0  0  0  0  0  0  0  0  0  0  0
   57.6753   29.5549   46.0016 H   0  0  0  0  0  0  0  0  0  0  0  0
   56.6760   28.8750   42.6600 H   0  0  0  0  0  0  0  0  0  0  0  0
   58.5040   26.0820   42.8390 H   0  0  0  0  0  0  0  0  0  0  0  0
   56.9230   26.5780   42.7990 H   0  0  0  0  0  0  0  0  0  0  0  0
   57.9504   27.4518   45.9062 H   0  0  0  0  0  0  0  0  0  0  0  0
   57.4973   26.2314   48.0161 H   0  0  0  0  0  0  0  0  0  0  0  0
   56.8035   23.8446   47.9643 H   0  0  0  0  0  0  0  0  0  0  0  0
   56.3034   21.8330   46.7436 H   0  0  0  0  0  0  0  0  0  0  0  0
   56.0854   20.6016   44.5909 H   0  0  0  0  0  0  0  0  0  0  0  0
   56.5469   21.7597   42.4368 H   0  0  0  0  0  0  0  0  0  0  0  0
   57.2298   24.1509   42.4142 H   0  0  0  0  0  0  0  0  0  0  0  0
   57.5206   31.3605   42.0693 H   0  0  0  0  0  0  0  0  0  0  0  0
   57.8099   33.6155   43.0933 H   0  0  0  0  0  0  0  0  0  0  0  0
  1  2  1  0
  2  3  2  0
  3  4  1  0
  4  5  2  0
  5  6  1  0
  6  7  1  0
  7  8  2  0
  7  9  1  0
  9 10  1  0
 10 11  2  0
 11 12  1  0
 12 13  2  0
 13 14  1  0
 14 15  2  0
 15 16  1  0
 16 17  2  0
 17 18  1  0
 18 19  2  0
  5 20  1  0
 20 21  2  0
 21  2  1  0
 19 10  1  0
 19 14  1  0
  1 22  1  0
  1 23  1  0
  1 24  1  0
  3 25  1  0
  4 26  1  0
  6 27  1  0
  9 28  1  0
  9 29  1  0
 11 30  1  0
 12 31  1  0
 13 32  1  0
 15 33  1  0
 16 34  1  0
 17 35  1  0
 18 36  1  0
 20 37  1  0
 21 38  1  0
M  CHG  1   9   1
M  END
>  <UniqueID>  (42) 
38

>  <SMILES>  (42) 
Cc1ccc(NC(=S)[NH2+]c2cccc3ccccc23)cc1

>  <Energy>  (42) 
52.909209029615546

>  <Genealogy>  (42) 
Cc1ccc(NC(=S)[NH2+]c2cccc3ccccc23)cc1 (protonated)
Cc1ccc(NC(=S)[NH2+]c2cccc3ccccc23)cc1 (3D coordinates assigned)
Cc1ccc(NC(=S)[NH2+]c2cccc3ccccc23)cc1 (optimized conformer: 52.909209029615546 kcal/mol)

>  <smiles>  (42) 
Cc1ccc(NC(=S)Nc2cccc3ccccc23)cc1

>  <score_type>  (42) 
oracle

>  <origin>  (42) 
adg

>  <m_score__min__energy>  (42) 
-6.0700000000000003

>  <m_primary>  (42) 
energy

$$$$
42:0
     RDKit          3D

 28 28  0  0  0  0  0  0  0  0999 V2000
   59.6380   34.6660   46.5360 C   0  0  0  0  0  0  0  0  0  0  0  0
   59.5210   33.2440   45.9830 C   0  0  0  0  0  0  0  0  0  0  0  0
   58.4410   33.0600   44.8920 C   0  0  2  0  0  0  0  0  0  0  0  0
   57.4200   34.2110   44.8670 C   0  0  0  0  0  0  0  0  0  0  0  0
   57.7950   31.6840   44.9470 C   0  0  0  0  0  0  0  0  0  0  0  0
   56.6470   31.3680   44.1950 C   0  0  0  0  0  0  0  0  0  0  0  0
   56.0580   30.1060   44.2950 C   0  0  0  0  0  0  0  0  0  0  0  0
   56.5960   29.1380   45.1530 C   0  0  0  0  0  0  0  0  0  0  0  0
   55.9980   27.8820   45.2520 O   0  0  0  0  0  0  0  0  0  0  0  0
   57.7370   29.4380   45.9170 C   0  0  0  0  0  0  0  0  0  0  0  0
   58.3070   28.4160   46.8600 C   0  0  0  0  0  0  0  0  0  0  0  0
   58.3210   30.7130   45.8200 C   0  0  0  0  0  0  0  0  0  0  0  0
   59.6353   34.6332   47.6355 H   0  0  0  0  0  0  0  0  0  0  0  0
   60.5765   35.1199   46.1850 H   0  0  0  0  0  0  0  0  0  0  0  0
   58.7863   35.2671   46.1850 H   0  0  0  0  0  0  0  0  0  0  0  0
   60.4936   32.9630   45.5527 H   0  0  0  0  0  0  0  0  0  0  0  0
   59.2200   32.6068   46.8276 H   0  0  0  0  0  0  0  0  0  0  0  0
   58.9610   33.1102   43.9239 H   0  0  0  0  0  0  0  0  0  0  0  0
   57.1655   34.4979   45.8980 H   0  0  0  0  0  0  0  0  0  0  0  0
   57.8542   35.0750   44.3426 H   0  0  0  0  0  0  0  0  0  0  0  0
   56.5104   33.8830   44.3426 H   0  0  0  0  0  0  0  0  0  0  0  0
   56.2106   32.1218   43.5231 H   0  0  0  0  0  0  0  0  0  0  0  0
   55.1658   29.8703   43.6963 H   0  0  0  0  0  0  0  0  0  0  0  0
   56.2690   27.1160   44.6470 H   0  0  0  0  0  0  0  0  0  0  0  0
   58.1291   28.7350   47.8976 H   0  0  0  0  0  0  0  0  0  0  0  0
   57.8202   27.4450   46.6863 H   0  0  0  0  0  0  0  0  0  0  0  0
   59.3889   28.3200   46.6863 H   0  0  0  0  0  0  0  0  0  0  0  0
   59.2007   30.9552   46.4344 H   0  0  0  0  0  0  0  0  0  0  0  0
  1  2  1  0
  2  3  1  0
  3  4  1  0
  3  5  1  0
  5  6  2  0
  6  7  1  0
  7  8  2  0
  8  9  1  0
  8 10  1  0
 10 11  1  0
 10 12  2  0
 12  5  1  0
  1 13  1  0
  1 14  1  0
  1 15  1  0
  2 16  1  0
  2 17  1  0
  3 18  1  6
  4 19  1  0
  4 20  1  0
  4 21  1  0
  6 22  1  0
  7 23  1  0
  9 24  1  0
 11 25  1  0
 11 26  1  0
 11 27  1  0
 12 28  1  0
M  END
>  <UniqueID>  (43) 
39

>  <SMILES>  (43) 
CC[C@H](C)c1ccc(O)c(C)c1

>  <Energy>  (43) 
22.757278990131468

>  <Genealogy>  (43) 
CC[C@H](C)c1ccc(O)c(C)c1 (chirality)
CC[C@H](C)c1ccc(O)c(C)c1 (3D coordinates assigned)
CC[C@H](C)c1ccc(O)c(C)c1 (optimized conformer: 22.757278990131468 kcal/mol)

>  <smiles>  (43) 
CCC(C)c1ccc(O)c(C)c1

>  <score_type>  (43) 
oracle

>  <origin>  (43) 
adg

>  <m_score__min__energy>  (43) 
-5.7999999999999998

>  <m_primary>  (43) 
energy

$$$$
43:0
     RDKit          3D

 29 30  0  0  0  0  0  0  0  0999 V2000
   59.2250   34.2940   46.9220 C   0  0  0  0  0  0  0  0  0  0  0  0
   58.6360   33.1190   46.2020 C   0  0  0  0  0  0  0  0  0  0  0  0
   58.7310   31.8310   46.7520 C   0  0  0  0  0  0  0  0  0  0  0  0
   58.1500   30.7410   46.0970 C   0  0  0  0  0  0  0  0  0  0  0  0
   57.4620   30.9270   44.8920 C   0  0  0  0  0  0  0  0  0  0  0  0
   56.7410   29.5480   44.0670 S   0  0  0  0  0  0  0  0  0  0  0  0
   55.7050   30.0460   43.1000 O   0  0  0  0  0  0  0  0  0  0  0  0
   57.7870   28.7760   43.3110 O   0  0  0  0  0  0  0  0  0  0  0  0
   55.9820   28.4950   45.2180 N   0  0  0  0  0  0  0  0  0  0  0  0
   56.5990   27.3540   45.8350 C   0  0  0  0  0  0  0  0  0  0  0  0
   57.9830   27.3100   46.0820 C   0  0  0  0  0  0  0  0  0  0  0  0
   58.5380   26.1850   46.6890 C   0  0  0  0  0  0  0  0  0  0  0  0
   57.7220   25.1150   47.0460 C   0  0  0  0  0  0  0  0  0  0  0  0
   56.3510   25.1830   46.7870 C   0  0  0  0  0  0  0  0  0  0  0  0
   55.6080   24.2160   47.1070 O   0  0  0  0  0  0  0  0  0  0  0  0
   55.8170   26.2900   46.1910 N   0  0  0  0  0  0  0  0  0  0  0  0
   54.4620   26.3360   45.9470 O   0  0  0  0  0  0  0  0  0  0  0  0
   57.3440   32.2140   44.3520 C   0  0  0  0  0  0  0  0  0  0  0  0
   57.9240   33.3070   45.0060 C   0  0  0  0  0  0  0  0  0  0  0  0
   59.1458   34.1361   48.0077 H   0  0  0  0  0  0  0  0  0  0  0  0
   60.2837   34.4017   46.6434 H   0  0  0  0  0  0  0  0  0  0  0  0
   58.6778   35.2067   46.6434 H   0  0  0  0  0  0  0  0  0  0  0  0
   59.2645   31.6787   47.7018 H   0  0  0  0  0  0  0  0  0  0  0  0
   58.2338   29.7333   46.5301 H   0  0  0  0  0  0  0  0  0  0  0  0
   58.6232   28.1582   45.7979 H   0  0  0  0  0  0  0  0  0  0  0  0
   59.6194   26.1425   46.8858 H   0  0  0  0  0  0  0  0  0  0  0  0
   58.1527   24.2246   47.5274 H   0  0  0  0  0  0  0  0  0  0  0  0
   56.7941   32.3661   43.4115 H   0  0  0  0  0  0  0  0  0  0  0  0
   57.8219   34.3168   44.5819 H   0  0  0  0  0  0  0  0  0  0  0  0
  1  2  1  0
  2  3  2  0
  3  4  1  0
  4  5  2  0
  5  6  1  0
  6  7  2  0
  6  8  2  0
  6  9  1  0
  9 10  1  0
 10 11  2  0
 11 12  1  0
 12 13  2  0
 13 14  1  0
 14 15  2  0
 14 16  1  0
 16 17  1  0
  5 18  1  0
 18 19  2  0
 19  2  1  0
 16 10  1  0
  1 20  1  0
  1 21  1  0
  1 22  1  0
  3 23  1  0
  4 24  1  0
 11 25  1  0
 12 26  1  0
 13 27  1  0
 18 28  1  0
 19 29  1  0
M  CHG  2   9  -1  17  -1
M  END
>  <UniqueID>  (44) 
40

>  <SMILES>  (44) 
Cc1ccc(S(=O)(=O)[N-]c2cccc(=O)n2[O-])cc1

>  <Energy>  (44) 
33.40526350465957

>  <Genealogy>  (44) 
Cc1ccc(S(=O)(=O)[N-]c2cccc(=O)n2[O-])cc1 (protonated)
Cc1ccc(S(=O)(=O)[N-]c2cccc(=O)n2[O-])cc1 (3D coordinates assigned)
Cc1ccc(S(=O)(=O)[N-]c2cccc(=O)n2[O-])cc1 (optimized conformer: 33.40526350465957 kcal/mol)

>  <smiles>  (44) 
Cc1ccc(S(=O)(=O)Nc2cccc(=O)n2O)cc1

>  <score_type>  (44) 
oracle

>  <origin>  (44) 
adg

>  <m_score__min__energy>  (44) 
-13.869999999999999

>  <m_primary>  (44) 
energy

$$$$
44:0
     RDKit          3D

 35 37  0  0  0  0  0  0  0  0999 V2000
   59.4660   27.9490   46.0970 C   0  0  0  0  0  0  0  0  0  0  0  0
   58.2920   27.6990   46.6770 C   0  0  0  0  0  0  0  0  0  0  0  0
   56.8980   27.2180   45.7180 S   0  0  0  0  0  0  0  0  0  0  0  0
   57.3730   26.4860   44.4960 O   0  0  0  0  0  0  0  0  0  0  0  0
   56.0140   26.3070   46.5210 O   0  0  0  0  0  0  0  0  0  0  0  0
   55.9940   28.6160   45.2320 N   0  0  0  0  0  0  0  0  0  0  0  0
   56.4850   29.6800   44.4010 C   0  0  0  0  0  0  0  0  0  0  0  0
   56.1530   29.7650   43.0370 C   0  0  0  0  0  0  0  0  0  0  0  0
   56.6440   30.8130   42.2540 C   0  0  0  0  0  0  0  0  0  0  0  0
   57.4690   31.7880   42.8170 C   0  0  0  0  0  0  0  0  0  0  0  0
   57.8150   31.7210   44.1780 C   0  0  0  0  0  0  0  0  0  0  0  0
   58.6390   32.6860   44.7830 C   0  0  0  0  0  0  0  0  0  0  0  0
   59.0960   33.6550   44.1180 O   0  0  0  0  0  0  0  0  0  0  0  0
   58.9560   32.5780   46.1410 C   0  0  0  0  0  0  0  0  0  0  0  0
   58.4530   31.5040   46.8930 C   0  0  0  0  0  0  0  0  0  0  0  0
   58.7580   31.3520   48.3390 C   0  0  0  0  0  0  0  0  0  0  0  0
   58.6440   32.4610   49.2000 C   0  0  0  0  0  0  0  0  0  0  0  0
   58.9210   32.3330   50.5640 C   0  0  0  0  0  0  0  0  0  0  0  0
   59.3070   31.0990   51.0890 C   0  0  0  0  0  0  0  0  0  0  0  0
   59.4130   29.9870   50.2500 C   0  0  0  0  0  0  0  0  0  0  0  0
   59.1370   30.1080   48.8840 C   0  0  0  0  0  0  0  0  0  0  0  0
   57.6490   30.5880   46.2860 N   0  0  0  0  0  0  0  0  0  0  0  0
   57.3180   30.6580   44.9690 C   0  0  0  0  0  0  0  0  0  0  0  0
   60.3292   28.2489   46.7093 H   0  0  0  0  0  0  0  0  0  0  0  0
   59.5715   27.8554   45.0061 H   0  0  0  0  0  0  0  0  0  0  0  0
   58.1938   27.7947   47.7684 H   0  0  0  0  0  0  0  0  0  0  0  0
   55.5030   29.0020   42.5839 H   0  0  0  0  0  0  0  0  0  0  0  0
   56.3789   30.8699   41.1880 H   0  0  0  0  0  0  0  0  0  0  0  0
   57.8495   32.6110   42.1942 H   0  0  0  0  0  0  0  0  0  0  0  0
   59.5979   33.3327   46.6189 H   0  0  0  0  0  0  0  0  0  0  0  0
   58.3344   33.4359   48.7955 H   0  0  0  0  0  0  0  0  0  0  0  0
   58.8345   33.2075   51.2256 H   0  0  0  0  0  0  0  0  0  0  0  0
   59.5276   31.0020   52.1623 H   0  0  0  0  0  0  0  0  0  0  0  0
   59.7143   29.0137   50.6647 H   0  0  0  0  0  0  0  0  0  0  0  0
   59.2162   29.2267   48.2305 H   0  0  0  0  0  0  0  0  0  0  0  0
  1  2  2  0
  2  3  1  0
  3  4  2  0
  3  5  2  0
  3  6  1  0
  6  7  1  0
  7  8  2  0
  8  9  1  0
  9 10  2  0
 10 11  1  0
 11 12  1  0
 12 13  2  0
 12 14  1  0
 14 15  2  0
 15 16  1  0
 16 17  2  0
 17 18  1  0
 18 19  2  0
 19 20  1  0
 20 21  2  0
 15 22  1  0
 22 23  1  0
 23  7  1  0
 23 11  2  0
 21 16  1  0
  1 24  1  0
  1 25  1  0
  2 26  1  0
  8 27  1  0
  9 28  1  0
 10 29  1  0
 14 30  1  0
 17 31  1  0
 18 32  1  0
 19 33  1  0
 20 34  1  0
 21 35  1  0
M  CHG  2   6  -1  22  -1
M  END
>  <UniqueID>  (45) 
41

>  <SMILES>  (45) 
C=CS(=O)(=O)[N-]c1cccc2c(=O)cc(-c3ccccc3)[n-]c12

>  <Energy>  (45) 
48.289440405635425

>  <Genealogy>  (45) 
C=CS(=O)(=O)[N-]c1cccc2c(=O)cc(-c3ccccc3)[n-]c12 (protonated)
C=CS(=O)(=O)[N-]c1cccc2c(=O)cc(-c3ccccc3)[n-]c12 (3D coordinates assigned)
C=CS(=O)(=O)[N-]c1cccc2c(=O)cc(-c3ccccc3)[n-]c12 (optimized conformer: 48.289440405635425 kcal/mol)

>  <smiles>  (45) 
C=CS(=O)(=O)Nc1cccc2c(=O)cc(-c3ccccc3)[nH]c12

>  <score_type>  (45) 
oracle

>  <origin>  (45) 
adg

>  <m_score__min__energy>  (45) 
-10.83

>  <m_primary>  (45) 
energy

$$$$
45:0
     RDKit          3D

 32 34  0  0  0  0  0  0  0  0999 V2000
   63.6790   32.3760   47.4030 C   0  0  0  0  0  0  0  0  0  0  0  0
   63.6970   33.6750   47.9170 C   0  0  0  0  0  0  0  0  0  0  0  0
   62.5510   34.2070   48.5150 C   0  0  0  0  0  0  0  0  0  0  0  0
   61.3790   33.4370   48.6120 C   0  0  0  0  0  0  0  0  0  0  0  0
   60.1440   34.0160   49.2520 C   0  0  0  0  0  0  0  0  0  0  0  0
   59.3310   34.7230   48.2600 N   0  0  0  0  0  0  0  0  0  0  0  0
   59.0590   34.2360   46.9320 C   0  0  0  0  0  0  0  0  0  0  0  0
   59.5290   34.9060   45.7830 C   0  0  0  0  0  0  0  0  0  0  0  0
   59.2520   34.4070   44.5060 C   0  0  0  0  0  0  0  0  0  0  0  0
   58.5010   33.2350   44.3560 C   0  0  0  0  0  0  0  0  0  0  0  0
   58.2210   32.7290   43.1210 N   0  0  0  0  0  0  0  0  0  0  0  0
   57.4880   31.5910   42.9820 C   0  0  0  0  0  0  0  0  0  0  0  0
   57.0160   30.9280   44.1170 C   0  0  0  0  0  0  0  0  0  0  0  0
   57.2930   31.4270   45.3500 N   0  0  0  0  0  0  0  0  0  0  0  0
   58.0220   32.5640   45.5010 C   0  0  0  0  0  0  0  0  0  0  0  0
   58.3000   33.0640   46.7760 C   0  0  0  0  0  0  0  0  0  0  0  0
   61.3670   32.1360   48.0820 C   0  0  0  0  0  0  0  0  0  0  0  0
   62.5150   31.6080   47.4850 C   0  0  0  0  0  0  0  0  0  0  0  0
   64.5817   31.9579   46.9336 H   0  0  0  0  0  0  0  0  0  0  0  0
   64.6136   34.2795   47.8511 H   0  0  0  0  0  0  0  0  0  0  0  0
   62.5664   35.2329   48.9115 H   0  0  0  0  0  0  0  0  0  0  0  0
   59.5496   33.2018   49.6922 H   0  0  0  0  0  0  0  0  0  0  0  0
   60.4503   34.7289   50.0317 H   0  0  0  0  0  0  0  0  0  0  0  0
   58.8870   35.6200   48.5620 H   0  0  0  0  0  0  0  0  0  0  0  0
   60.1182   35.8285   45.8922 H   0  0  0  0  0  0  0  0  0  0  0  0
   59.6252   34.9368   43.6172 H   0  0  0  0  0  0  0  0  0  0  0  0
   58.5660   33.2130   42.2610 H   0  0  0  0  0  0  0  0  0  0  0  0
   57.2681   31.1948   41.9797 H   0  0  0  0  0  0  0  0  0  0  0  0
   56.4234   30.0071   44.0133 H   0  0  0  0  0  0  0  0  0  0  0  0
   57.9218   32.5362   47.6639 H   0  0  0  0  0  0  0  0  0  0  0  0
   60.4503   31.5305   48.1371 H   0  0  0  0  0  0  0  0  0  0  0  0
   62.5020   30.5858   47.0789 H   0  0  0  0  0  0  0  0  0  0  0  0
  1  2  2  0
  2  3  1  0
  3  4  2  0
  4  5  1  0
  5  6  1  0
  6  7  1  0
  7  8  2  0
  8  9  1  0
  9 10  2  0
 10 11  1  0
 11 12  2  0
 12 13  1  0
 13 14  2  0
 14 15  1  0
 15 16  2  0
  4 17  1  0
 17 18  2  0
 18  1  1  0
 16  7  1  0
 15 10  1  0
  1 19  1  0
  2 20  1  0
  3 21  1  0
  5 22  1  0
  5 23  1  0
  6 24  1  0
  8 25  1  0
  9 26  1  0
 11 27  1  0
 12 28  1  0
 13 29  1  0
 16 30  1  0
 17 31  1  0
 18 32  1  0
M  CHG  1  11   1
M  END
>  <UniqueID>  (46) 
42

>  <SMILES>  (46) 
c1ccc(CNc2ccc3[nH+]ccnc3c2)cc1

>  <Energy>  (46) 
37.63954692629874

>  <Genealogy>  (46) 
c1ccc(CNc2ccc3[nH+]ccnc3c2)cc1 (protonated)
c1ccc(CNc2ccc3[nH+]ccnc3c2)cc1 (3D coordinates assigned)
c1ccc(CNc2ccc3[nH+]ccnc3c2)cc1 (optimized conformer: 37.63954692629874 kcal/mol)

>  <smiles>  (46) 
c1ccc(CNc2ccc3nccnc3c2)cc1

>  <score_type>  (46) 
oracle

>  <origin>  (46) 
adg

>  <m_score__min__energy>  (46) 
-5.3399999999999999

>  <m_primary>  (46) 
energy

$$$$
46:0
     RDKit          3D

 77 80  0  0  0  0  0  0  0  0999 V2000
   63.2990   33.8190   46.3690 C   0  0  0  0  0  0  0  0  0  0  0  0
   63.1040   33.7490   47.8820 C   0  0  0  0  0  0  0  0  0  0  0  0
   62.1590   32.6340   48.2450 C   0  0  0  0  0  0  0  0  0  0  0  0
   61.6140   32.5630   49.5360 C   0  0  0  0  0  0  0  0  0  0  0  0
   60.7760   31.5040   49.8890 C   0  0  0  0  0  0  0  0  0  0  0  0
   60.4860   30.5000   48.9640 C   0  0  0  0  0  0  0  0  0  0  0  0
   61.0280   30.5520   47.6690 C   0  0  0  0  0  0  0  0  0  0  0  0
   60.7210   29.4570   46.6760 C   0  0  0  0  0  0  0  0  0  0  0  0
   60.0650   28.3020   47.3080 N   0  0  0  0  0  0  0  0  0  0  0  0
   60.3640   27.0220   46.6430 C   0  0  0  0  0  0  0  0  0  0  0  0
   59.1120   26.1220   46.5390 C   0  0  1  0  0  0  0  0  0  0  0  0
   58.1780   26.4200   47.5500 O   0  0  0  0  0  0  0  0  0  0  0  0
   58.4760   26.0720   45.1130 C   0  0  1  0  0  0  0  0  0  0  0  0
   57.0990   25.3710   45.1230 C   0  0  0  0  0  0  0  0  0  0  0  0
   57.2070   23.8980   44.8270 C   0  0  0  0  0  0  0  0  0  0  0  0
   57.8240   23.0360   45.7530 C   0  0  0  0  0  0  0  0  0  0  0  0
   57.9260   21.6680   45.4830 C   0  0  0  0  0  0  0  0  0  0  0  0
   58.5250   20.8450   46.3770 F   0  0  0  0  0  0  0  0  0  0  0  0
   57.4100   21.1490   44.2910 C   0  0  0  0  0  0  0  0  0  0  0  0
   56.7870   21.9980   43.3700 C   0  0  0  0  0  0  0  0  0  0  0  0
   56.2800   21.4930   42.2180 F   0  0  0  0  0  0  0  0  0  0  0  0
   56.6830   23.3680   43.6360 C   0  0  0  0  0  0  0  0  0  0  0  0
   58.3310   27.4020   44.5080 N   0  0  0  0  0  0  0  0  0  0  0  0
   57.7350   28.5030   45.2200 C   0  0  0  0  0  0  0  0  0  0  0  0
   57.1100   28.2790   46.2930 O   0  0  0  0  0  0  0  0  0  0  0  0
   57.8370   29.8970   44.7190 C   0  0  0  0  0  0  0  0  0  0  0  0
   57.4290   30.1990   43.4070 C   0  0  0  0  0  0  0  0  0  0  0  0
   57.5000   31.5120   42.9180 C   0  0  0  0  0  0  0  0  0  0  0  0
   57.0220   31.8310   41.5260 C   0  0  0  0  0  0  0  0  0  0  0  0
   58.0360   32.7020   40.7950 C   0  0  0  0  0  0  0  0  0  0  0  0
   57.9670   32.5360   43.7540 C   0  0  0  0  0  0  0  0  0  0  0  0
   58.3860   32.2560   45.0610 C   0  0  0  0  0  0  0  0  0  0  0  0
   58.8810   33.3070   45.9090 N   0  0  0  0  0  0  0  0  0  0  0  0
   59.6070   34.4780   45.4420 C   0  0  0  0  0  0  0  0  0  0  0  0
   59.7500   35.4070   46.6640 C   0  0  0  0  0  0  0  0  0  0  0  0
   59.3020   34.6080   47.8970 C   0  0  0  0  0  0  0  0  0  0  0  0
   58.7310   33.3770   47.3150 C   0  0  0  0  0  0  0  0  0  0  0  0
   58.2180   32.4570   48.0050 O   0  0  0  0  0  0  0  0  0  0  0  0
   58.2980   30.9410   45.5440 C   0  0  0  0  0  0  0  0  0  0  0  0
   61.8680   31.6210   47.3180 C   0  0  0  0  0  0  0  0  0  0  0  0
   64.3129   34.1830   46.1464 H   0  0  0  0  0  0  0  0  0  0  0  0
   63.1657   32.8169   45.9354 H   0  0  0  0  0  0  0  0  0  0  0  0
   62.5588   34.5076   45.9354 H   0  0  0  0  0  0  0  0  0  0  0  0
   64.0765   33.5695   48.3637 H   0  0  0  0  0  0  0  0  0  0  0  0
   62.6771   34.7018   48.2284 H   0  0  0  0  0  0  0  0  0  0  0  0
   61.8481   33.3452   50.2731 H   0  0  0  0  0  0  0  0  0  0  0  0
   60.3429   31.4606   50.8992 H   0  0  0  0  0  0  0  0  0  0  0  0
   59.8303   29.6644   49.2501 H   0  0  0  0  0  0  0  0  0  0  0  0
   60.0559   29.8603   45.8982 H   0  0  0  0  0  0  0  0  0  0  0  0
   61.6739   29.1120   46.2483 H   0  0  0  0  0  0  0  0  0  0  0  0
   59.0290   28.4500   47.3350 H   0  0  0  0  0  0  0  0  0  0  0  0
   60.7403   27.2267   45.6298 H   0  0  0  0  0  0  0  0  0  0  0  0
   61.1166   26.4919   47.2452 H   0  0  0  0  0  0  0  0  0  0  0  0
   59.4631   25.0939   46.7112 H   0  0  0  0  0  0  0  0  0  0  0  0
   58.1300   27.4030   47.6560 H   0  0  0  0  0  0  0  0  0  0  0  0
   59.1791   25.4879   44.5010 H   0  0  0  0  0  0  0  0  0  0  0  0
   56.6432   25.5001   46.1158 H   0  0  0  0  0  0  0  0  0  0  0  0
   56.4818   25.8288   44.3359 H   0  0  0  0  0  0  0  0  0  0  0  0
   58.2276   23.4403   46.6930 H   0  0  0  0  0  0  0  0  0  0  0  0
   57.4941   20.0732   44.0777 H   0  0  0  0  0  0  0  0  0  0  0  0
   56.1897   24.0317   42.9107 H   0  0  0  0  0  0  0  0  0  0  0  0
   58.7080   27.5740   43.5530 H   0  0  0  0  0  0  0  0  0  0  0  0
   57.0500   29.3965   42.7571 H   0  0  0  0  0  0  0  0  0  0  0  0
   56.8828   30.8932   40.9682 H   0  0  0  0  0  0  0  0  0  0  0  0
   56.0704   32.3784   41.5955 H   0  0  0  0  0  0  0  0  0  0  0  0
   58.6575   33.2358   41.5290 H   0  0  0  0  0  0  0  0  0  0  0  0
   58.6765   32.0682   40.1641 H   0  0  0  0  0  0  0  0  0  0  0  0
   57.5061   33.4308   40.1641 H   0  0  0  0  0  0  0  0  0  0  0  0
   58.0048   33.5697   43.3798 H   0  0  0  0  0  0  0  0  0  0  0  0
   60.5987   34.1873   45.0652 H   0  0  0  0  0  0  0  0  0  0  0  0
   59.0772   34.9771   44.6172 H   0  0  0  0  0  0  0  0  0  0  0  0
   60.7982   35.7205   46.7785 H   0  0  0  0  0  0  0  0  0  0  0  0
   59.1363   36.3115   46.5408 H   0  0  0  0  0  0  0  0  0  0  0  0
   60.1575   34.3759   48.5483 H   0  0  0  0  0  0  0  0  0  0  0  0
   58.5883   35.1564   48.5293 H   0  0  0  0  0  0  0  0  0  0  0  0
   58.5931   30.7230   46.5810 H   0  0  0  0  0  0  0  0  0  0  0  0
   62.3017   31.6650   46.3080 H   0  0  0  0  0  0  0  0  0  0  0  0
  1  2  1  0
  2  3  1  0
  3  4  2  0
  4  5  1  0
  5  6  2  0
  6  7  1  0
  7  8  1  0
  8  9  1  0
  9 10  1  0
 10 11  1  0
 11 12  1  0
 11 13  1  0
 13 14  1  0
 14 15  1  0
 15 16  2  0
 16 17  1  0
 17 18  1  0
 17 19  2  0
 19 20  1  0
 20 21  1  0
 20 22  2  0
 13 23  1  0
 23 24  1  0
 24 25  2  0
 24 26  1  0
 26 27  2  0
 27 28  1  0
 28 29  1  0
 29 30  1  0
 28 31  2  0
 31 32  1  0
 32 33  1  0
 33 34  1  0
 34 35  1  0
 35 36  1  0
 36 37  1  0
 37 38  2  0
 32 39  2  0
  7 40  2  0
 40  3  1  0
 22 15  1  0
 39 26  1  0
 37 33  1  0
  1 41  1  0
  1 42  1  0
  1 43  1  0
  2 44  1  0
  2 45  1  0
  4 46  1  0
  5 47  1  0
  6 48  1  0
  8 49  1  0
  8 50  1  0
  9 51  1  0
 10 52  1  0
 10 53  1  0
 11 54  1  1
 12 55  1  0
 13 56  1  6
 14 57  1  0
 14 58  1  0
 16 59  1  0
 19 60  1  0
 22 61  1  0
 23 62  1  0
 27 63  1  0
 29 64  1  0
 29 65  1  0
 30 66  1  0
 30 67  1  0
 30 68  1  0
 31 69  1  0
 34 70  1  0
 34 71  1  0
 35 72  1  0
 35 73  1  0
 36 74  1  0
 36 75  1  0
 39 76  1  0
 40 77  1  0
M  END
>  <UniqueID>  (47) 
43

>  <SMILES>  (47) 
CCc1cccc(CNC[C@@H](O)[C@@H](Cc2cc(F)cc(F)c2)NC(=O)c2cc(CC)cc(N3CCCC3=O)c2)c1

>  <Energy>  (47) 
86.02639631161084

>  <Genealogy>  (47) 
CCc1cccc(CNC[C@@H](O)[C@@H](Cc2cc(F)cc(F)c2)NC(=O)c2cc(CC)cc(N3CCCC3=O)c2)c1 (chirality)
CCc1cccc(CNC[C@@H](O)[C@@H](Cc2cc(F)cc(F)c2)NC(=O)c2cc(CC)cc(N3CCCC3=O)c2)c1 (3D coordinates assigned)
CCc1cccc(CNC[C@@H](O)[C@@H](Cc2cc(F)cc(F)c2)NC(=O)c2cc(CC)cc(N3CCCC3=O)c2)c1 (nonaromatic ring conformer: 86.02639631161084 kcal/mol)

>  <smiles>  (47) 
CCc1cccc(CNCC(O)C(Cc2cc(F)cc(F)c2)NC(=O)c2cc(CC)cc(N3CCCC3=O)c2)c1

>  <score_type>  (47) 
oracle

>  <origin>  (47) 
adg

>  <m_score__min__energy>  (47) 
-10.539999999999999

>  <m_primary>  (47) 
energy

$$$$
47:0
     RDKit          3D

 32 34  0  0  1  0  0  0  0  0999 V2000
   54.5950   24.8940   45.6210 C   0  0  0  0  0  0  0  0  0  0  0  0
   54.9940   26.2260   45.8760 O   0  0  0  0  0  0  0  0  0  0  0  0
   56.3230   26.6030   45.7490 C   0  0  0  0  0  0  0  0  0  0  0  0
   57.3650   25.6900   45.7260 C   0  0  0  0  0  0  0  0  0  0  0  0
   58.6790   26.0630   45.6000 C   0  0  0  0  0  0  0  0  0  0  0  0
   58.9840   27.3900   45.4940 C   0  0  0  0  0  0  0  0  0  0  0  0
   60.2680   27.7540   45.3720 N   0  0  0  0  0  0  0  0  0  0  0  0
   60.5400   29.0630   45.2700 C   0  0  0  0  0  0  0  0  0  0  0  0
   59.6090   30.0260   45.2820 N   0  0  0  0  0  0  0  0  0  0  0  0
   58.3200   29.6420   45.4050 C   0  0  0  0  0  0  0  0  0  0  0  0
   57.4170   30.5700   45.4170 N   0  0  0  0  0  0  0  0  0  0  0  0
   57.8410   31.9370   45.5940 C   0  0  0  0  0  0  0  0  0  0  0  0
   57.6230   32.8310   44.5620 C   0  0  0  0  0  0  0  0  0  0  0  0
   58.0360   34.1380   44.7460 C   0  0  0  0  0  0  0  0  0  0  0  0
   58.6460   34.5820   45.8970 C   0  0  0  0  0  0  0  0  0  0  0  0
   58.8420   33.6480   46.9040 C   0  0  0  0  0  0  0  0  0  0  0  0
   59.6760   34.2240   48.4960 Br  0  0  0  0  0  0  0  0  0  0  0  0
   58.4560   32.3300   46.7870 C   0  0  0  0  0  0  0  0  0  0  0  0
   57.9620   28.3150   45.5150 C   0  0  0  0  0  0  0  0  0  0  0  0
   56.6430   27.9410   45.6410 C   0  0  0  0  0  0  0  0  0  0  0  0
   54.4378   24.3693   46.5749 H   0  0  0  0  0  0  0  0  0  0  0  0
   53.6580   24.8958   45.0448 H   0  0  0  0  0  0  0  0  0  0  0  0
   55.3787   24.3804   45.0448 H   0  0  0  0  0  0  0  0  0  0  0  0
   57.1282   24.6193   45.8126 H   0  0  0  0  0  0  0  0  0  0  0  0
   59.4754   25.3044   45.5846 H   0  0  0  0  0  0  0  0  0  0  0  0
   61.0480   27.0650   45.3550 H   0  0  0  0  0  0  0  0  0  0  0  0
   61.5931   29.3648   45.1703 H   0  0  0  0  0  0  0  0  0  0  0  0
   57.1379   32.5137   43.6271 H   0  0  0  0  0  0  0  0  0  0  0  0
   57.8686   34.8585   43.9319 H   0  0  0  0  0  0  0  0  0  0  0  0
   58.9634   35.6288   46.0132 H   0  0  0  0  0  0  0  0  0  0  0  0
   58.6257   31.6125   47.6033 H   0  0  0  0  0  0  0  0  0  0  0  0
   55.8500   28.7032   45.6555 H   0  0  0  0  0  0  0  0  0  0  0  0
  1  2  1  0
  2  3  1  0
  3  4  2  0
  4  5  1  0
  5  6  2  0
  6  7  1  0
  7  8  1  0
  8  9  2  0
  9 10  1  0
 10 11  2  0
 11 12  1  0
 12 13  2  0
 13 14  1  0
 14 15  2  0
 15 16  1  0
 16 17  1  0
 16 18  2  0
 10 19  1  0
 19 20  2  0
 20  3  1  0
 19  6  1  0
 18 12  1  0
  1 21  1  0
  1 22  1  0
  1 23  1  0
  4 24  1  0
  5 25  1  0
  7 26  1  0
  8 27  1  0
 13 28  1  0
 14 29  1  0
 15 30  1  0
 18 31  1  0
 20 32  1  0
M  END
>  <smiles>  (48) 
COc1ccc2[nH]cnc(=Nc3cccc(Br)c3)c2c1

>  <score_type>  (48) 
oracle

>  <origin>  (48) 
adg

>  <m_score__min__energy>  (48) 
-7.7300000000000004

>  <m_primary>  (48) 
energy

$$$$
48:0
     RDKit          3D

 21 21  0  0  0  0  0  0  0  0999 V2000
   57.4920   33.8260   45.9400 C   0  0  0  0  0  0  0  0  0  0  0  0
   57.4600   32.7230   44.9350 C   0  0  0  0  0  0  0  0  0  0  0  0
   58.1110   32.7250   43.7190 C   0  0  0  0  0  0  0  0  0  0  0  0
   57.8210   31.5090   43.1380 C   0  0  0  0  0  0  0  0  0  0  0  0
   57.0100   30.8430   44.0420 C   0  0  0  0  0  0  0  0  0  0  0  0
   56.4320   29.4590   43.8810 C   0  0  1  0  0  0  0  0  0  0  0  0
   56.6410   28.9630   42.5140 N   0  0  0  0  0  0  0  0  0  0  0  0
   57.0200   28.4930   44.9250 C   0  0  0  0  0  0  0  0  0  0  0  0
   56.0140   27.7960   45.5710 F   0  0  0  0  0  0  0  0  0  0  0  0
   57.8660   27.5880   44.3060 F   0  0  0  0  0  0  0  0  0  0  0  0
   57.7480   29.2020   45.8650 F   0  0  0  0  0  0  0  0  0  0  0  0
   56.8160   31.5910   45.1040 O   0  0  0  0  0  0  0  0  0  0  0  0
   57.4796   33.3989   46.9536 H   0  0  0  0  0  0  0  0  0  0  0  0
   58.4078   34.4199   45.8035 H   0  0  0  0  0  0  0  0  0  0  0  0
   56.6122   34.4720   45.8035 H   0  0  0  0  0  0  0  0  0  0  0  0
   58.7326   33.5299   43.2998 H   0  0  0  0  0  0  0  0  0  0  0  0
   58.1630   31.1431   42.1586 H   0  0  0  0  0  0  0  0  0  0  0  0
   55.3473   29.5161   44.0548 H   0  0  0  0  0  0  0  0  0  0  0  0
   56.6220   27.9170   42.5120 H   0  0  0  0  0  0  0  0  0  0  0  0
   57.5760   29.2710   42.1630 H   0  0  0  0  0  0  0  0  0  0  0  0
   55.9000   29.3200   41.8680 H   0  0  0  0  0  0  0  0  0  0  0  0
  1  2  1  0
  2  3  2  0
  3  4  1  0
  4  5  2  0
  5  6  1  0
  6  7  1  0
  6  8  1  0
  8  9  1  0
  8 10  1  0
  8 11  1  0
  5 12  1  0
 12  2  1  0
  1 13  1  0
  1 14  1  0
  1 15  1  0
  3 16  1  0
  4 17  1  0
  6 18  1  1
  7 19  1  0
  7 20  1  0
  7 21  1  0
M  CHG  1   7   1
M  END
>  <UniqueID>  (49) 
44

>  <SMILES>  (49) 
Cc1ccc([C@@H]([NH3+])C(F)(F)F)o1

>  <Energy>  (49) 
41.26523855094431

>  <Genealogy>  (49) 
Cc1ccc(C([NH3+])C(F)(F)F)o1 (protonated)
Cc1ccc([C@@H]([NH3+])C(F)(F)F)o1 (chirality)
Cc1ccc([C@@H]([NH3+])C(F)(F)F)o1 (3D coordinates assigned)
Cc1ccc([C@@H]([NH3+])C(F)(F)F)o1 (optimized conformer: 41.26523855094431 kcal/mol)

>  <smiles>  (49) 
Cc1ccc(C(N)C(F)(F)F)o1

>  <score_type>  (49) 
oracle

>  <origin>  (49) 
adg

>  <m_score__min__energy>  (49) 
-3.5499999999999998

>  <m_primary>  (49) 
energy

$$$$
49:0
     RDKit          3D

 20 21  0  0  0  0  0  0  0  0999 V2000
   50.1450   32.7170   52.0550 N   0  0  0  0  0  0  0  0  0  0  0  0
   51.2420   32.1550   51.3340 C   0  0  0  0  0  0  0  0  0  0  0  0
   51.3870   32.4440   50.1160 O   0  0  0  0  0  0  0  0  0  0  0  0
   52.1990   31.2460   52.0080 C   0  0  0  0  0  0  0  0  0  0  0  0
   51.7910   30.4600   53.1020 C   0  0  0  0  0  0  0  0  0  0  0  0
   52.6920   29.6020   53.7400 C   0  0  0  0  0  0  0  0  0  0  0  0
   54.0170   29.5140   53.2910 C   0  0  0  0  0  0  0  0  0  0  0  0
   54.9120   28.6830   53.8980 N   0  0  0  0  0  0  0  0  0  0  0  0
   56.2000   28.6020   53.4600 C   0  0  0  0  0  0  0  0  0  0  0  0
   57.0130   27.8270   54.0340 O   0  0  0  0  0  0  0  0  0  0  0  0
   56.6110   29.3820   52.3710 C   0  0  0  0  0  0  0  0  0  0  0  0
   57.7970   29.3240   51.9480 O   0  0  0  0  0  0  0  0  0  0  0  0
   55.7200   30.2100   51.7660 N   0  0  0  0  0  0  0  0  0  0  0  0
   54.4340   30.2980   52.1970 C   0  0  0  0  0  0  0  0  0  0  0  0
   53.5310   31.1560   51.5610 C   0  0  0  0  0  0  0  0  0  0  0  0
   49.9270   33.7360   51.9910 H   0  0  0  0  0  0  0  0  0  0  0  0
   50.7523   30.5214   53.4588 H   0  0  0  0  0  0  0  0  0  0  0  0
   52.3606   28.9952   54.5955 H   0  0  0  0  0  0  0  0  0  0  0  0
   54.6130   28.0970   54.7120 H   0  0  0  0  0  0  0  0  0  0  0  0
   53.8634   31.7640   50.7067 H   0  0  0  0  0  0  0  0  0  0  0  0
  1  2  1  0
  2  3  2  0
  2  4  1  0
  4  5  2  0
  5  6  1  0
  6  7  2  0
  7  8  1  0
  8  9  1  0
  9 10  2  0
  9 11  1  0
 11 12  2  0
 11 13  1  0
 13 14  1  0
 14 15  2  0
 15  4  1  0
 14  7  1  0
  1 16  1  0
  5 17  1  0
  6 18  1  0
  8 19  1  0
 15 20  1  0
M  CHG  2   1  -1  13  -1
M  END
>  <UniqueID>  (50) 
45

>  <SMILES>  (50) 
[NH-]C(=O)c1ccc2[nH]c(=O)c(=O)[n-]c2c1

>  <Energy>  (50) 
25.852378972531532

>  <Genealogy>  (50) 
[NH-]C(=O)c1ccc2[nH]c(=O)c(=O)[n-]c2c1 (protonated)
[NH-]C(=O)c1ccc2[nH]c(=O)c(=O)[n-]c2c1 (3D coordinates assigned)
[NH-]C(=O)c1ccc2[nH]c(=O)c(=O)[n-]c2c1 (optimized conformer: 25.852378972531532 kcal/mol)

>  <smiles>  (50) 
NC(=O)c1ccc2[nH]c(=O)c(=O)[nH]c2c1

>  <score_type>  (50) 
oracle

>  <origin>  (50) 
adg

>  <m_score__min__energy>  (50) 
-10.5

>  <m_primary>  (50) 
energy

$$$$
50:0
     RDKit          3D

 54 57  0  0  0  0  0  0  0  0999 V2000
   61.1080   30.3110   48.7210 C   0  0  0  0  0  0  0  0  0  0  0  0
   61.2690   31.7550   48.9510 N   0  0  0  0  0  0  0  0  0  0  0  0
   62.6280   32.0690   49.4660 C   0  0  0  0  0  0  0  0  0  0  0  0
   63.1520   33.4680   49.0770 C   0  0  0  0  0  0  0  0  0  0  0  0
   62.1620   34.6120   49.4010 C   0  0  0  0  0  0  0  0  0  0  0  0
   60.9030   34.4810   48.6360 N   0  0  0  0  0  0  0  0  0  0  0  0
   61.0950   33.8980   47.2880 C   0  0  0  0  0  0  0  0  0  0  0  0
   59.8000   33.5190   46.5980 C   0  0  0  0  0  0  0  0  0  0  0  0
   58.9520   34.5150   46.0880 C   0  0  0  0  0  0  0  0  0  0  0  0
   57.7460   34.1690   45.4760 C   0  0  0  0  0  0  0  0  0  0  0  0
   57.3810   32.8270   45.3520 C   0  0  0  0  0  0  0  0  0  0  0  0
   58.2310   31.8150   45.8210 C   0  0  0  0  0  0  0  0  0  0  0  0
   57.8250   30.4410   45.6960 N   0  0  0  0  0  0  0  0  0  0  0  0
   57.6890   29.7570   44.4390 C   0  0  0  0  0  0  0  0  0  0  0  0
   57.6460   30.4160   43.3640 O   0  0  0  0  0  0  0  0  0  0  0  0
   57.5640   28.2840   44.4000 C   0  0  0  0  0  0  0  0  0  0  0  0
   57.8730   27.5590   43.2360 C   0  0  0  0  0  0  0  0  0  0  0  0
   57.7480   26.1680   43.2310 C   0  0  0  0  0  0  0  0  0  0  0  0
   57.3200   25.5030   44.3850 C   0  0  0  0  0  0  0  0  0  0  0  0
   57.1840   24.1070   44.4160 C   0  0  0  0  0  0  0  0  0  0  0  0
   56.7530   23.4730   45.5850 C   0  0  0  0  0  0  0  0  0  0  0  0
   56.4580   24.2260   46.7270 C   0  0  0  0  0  0  0  0  0  0  0  0
   56.5910   25.6180   46.7050 C   0  0  0  0  0  0  0  0  0  0  0  0
   57.0210   26.2610   45.5380 C   0  0  0  0  0  0  0  0  0  0  0  0
   57.1510   27.6140   45.5120 N   0  0  0  0  0  0  0  0  0  0  0  0
   59.4340   32.1690   46.4570 C   0  0  0  0  0  0  0  0  0  0  0  0
   59.8260   33.8110   49.3950 C   0  0  0  0  0  0  0  0  0  0  0  0
   60.1200   32.3260   49.6940 C   0  0  0  0  0  0  0  0  0  0  0  0
   61.0499   29.7899   49.6880 H   0  0  0  0  0  0  0  0  0  0  0  0
   60.1842   30.1312   48.1515 H   0  0  0  0  0  0  0  0  0  0  0  0
   61.9695   29.9321   48.1515 H   0  0  0  0  0  0  0  0  0  0  0  0
   62.6029   32.0044   50.5638 H   0  0  0  0  0  0  0  0  0  0  0  0
   63.3125   31.3398   49.0081 H   0  0  0  0  0  0  0  0  0  0  0  0
   64.0884   33.6531   49.6237 H   0  0  0  0  0  0  0  0  0  0  0  0
   63.2977   33.4664   47.9867 H   0  0  0  0  0  0  0  0  0  0  0  0
   61.9297   34.5883   50.4759 H   0  0  0  0  0  0  0  0  0  0  0  0
   62.6356   35.5643   49.1201 H   0  0  0  0  0  0  0  0  0  0  0  0
   61.6191   34.6354   46.6622 H   0  0  0  0  0  0  0  0  0  0  0  0
   61.6731   32.9713   47.4180 H   0  0  0  0  0  0  0  0  0  0  0  0
   59.2394   35.5735   46.1711 H   0  0  0  0  0  0  0  0  0  0  0  0
   57.0812   34.9560   45.0903 H   0  0  0  0  0  0  0  0  0  0  0  0
   56.4215   32.5621   44.8839 H   0  0  0  0  0  0  0  0  0  0  0  0
   57.5300   29.9410   46.5660 H   0  0  0  0  0  0  0  0  0  0  0  0
   58.2122   28.0857   42.3318 H   0  0  0  0  0  0  0  0  0  0  0  0
   57.9856   25.5965   42.3216 H   0  0  0  0  0  0  0  0  0  0  0  0
   57.4164   23.5115   43.5208 H   0  0  0  0  0  0  0  0  0  0  0  0
   56.6454   22.3785   45.6072 H   0  0  0  0  0  0  0  0  0  0  0  0
   56.1206   23.7217   47.6445 H   0  0  0  0  0  0  0  0  0  0  0  0
   56.3579   26.2074   47.6041 H   0  0  0  0  0  0  0  0  0  0  0  0
   60.0953   31.3818   46.8481 H   0  0  0  0  0  0  0  0  0  0  0  0
   59.6921   34.3393   50.3505 H   0  0  0  0  0  0  0  0  0  0  0  0
   58.9203   33.8438   48.7715 H   0  0  0  0  0  0  0  0  0  0  0  0
   60.3265   32.2285   50.7700 H   0  0  0  0  0  0  0  0  0  0  0  0
   59.2322   31.7642   49.3682 H   0  0  0  0  0  0  0  0  0  0  0  0
  1  2  1  0
  2  3  1  0
  3  4  1  0
  4  5  1  0
  5  6  1  0
  6  7  1  0
  7  8  1  0
  8  9  2  0
  9 10  1  0
 10 11  2  0
 11 12  1  0
 12 13  1  0
 13 14  1  0
 14 15  2  0
 14 16  1  0
 16 17  2  0
 17 18  1  0
 18 19  2  0
 19 20  1  0
 20 21  2  0
 21 22  1  0
 22 23  2  0
 23 24  1  0
 24 25  2  0
 12 26  2  0
  6 27  1  0
 27 28  1  0
 28  2  1  0
 26  8  1  0
 25 16  1  0
 24 19  1  0
  1 29  1  0
  1 30  1  0
  1 31  1  0
  3 32  1  0
  3 33  1  0
  4 34  1  0
  4 35  1  0
  5 36  1  0
  5 37  1  0
  7 38  1  0
  7 39  1  0
  9 40  1  0
 10 41  1  0
 11 42  1  0
 13 43  1  0
 17 44  1  0
 18 45  1  0
 20 46  1  0
 21 47  1  0
 22 48  1  0
 23 49  1  0
 26 50  1  0
 27 51  1  0
 27 52  1  0
 28 53  1  0
 28 54  1  0
M  END
>  <UniqueID>  (51) 
46

>  <SMILES>  (51) 
CN1CCCN(Cc2cccc(NC(=O)c3ccc4ccccc4n3)c2)CC1

>  <Energy>  (51) 
82.36360664811305

>  <Genealogy>  (51) 
CN1CCCN(Cc2cccc(NC(=O)c3ccc4ccccc4n3)c2)CC1 (3D coordinates assigned)
CN1CCCN(Cc2cccc(NC(=O)c3ccc4ccccc4n3)c2)CC1 (nonaromatic ring conformer: 82.36360664811305 kcal/mol)

>  <smiles>  (51) 
CN1CCCN(Cc2cccc(NC(=O)c3ccc4ccccc4n3)c2)CC1

>  <score_type>  (51) 
oracle

>  <origin>  (51) 
adg

>  <m_score__min__energy>  (51) 
-7.2300000000000004

>  <m_primary>  (51) 
energy

$$$$
51:0
     RDKit          3D

 43 46  0  0  0  0  0  0  0  0999 V2000
   56.1890   29.5270   43.4790 C   0  0  0  0  0  0  0  0  0  0  0  0
   56.6420   30.5270   42.6190 C   0  0  0  0  0  0  0  0  0  0  0  0
   57.4120   31.5800   43.1160 C   0  0  0  0  0  0  0  0  0  0  0  0
   57.7330   31.6180   44.4860 C   0  0  0  0  0  0  0  0  0  0  0  0
   58.5360   32.7100   45.0850 C   0  0  0  0  0  0  0  0  0  0  0  0
   59.5880   32.4620   45.9880 C   0  0  0  0  0  0  0  0  0  0  0  0
   60.3120   33.5360   46.5340 C   0  0  0  0  0  0  0  0  0  0  0  0
   61.4270   33.2910   47.4840 C   0  0  0  0  0  0  0  0  0  0  0  0
   62.7000   32.9430   47.0160 C   0  0  0  0  0  0  0  0  0  0  0  0
   63.7160   32.7260   47.8880 N   0  0  0  0  0  0  0  0  0  0  0  0
   63.5450   32.8340   49.2330 C   0  0  0  0  0  0  0  0  0  0  0  0
   62.2870   33.1740   49.7800 C   0  0  0  0  0  0  0  0  0  0  0  0
   62.0900   33.2890   51.2230 N   0  0  0  0  0  0  0  0  0  0  0  0
   60.7180   33.4310   51.7580 C   0  0  0  0  0  0  0  0  0  0  0  0
   60.6560   33.4680   53.2880 C   0  0  0  0  0  0  0  0  0  0  0  0
   61.7410   34.1890   53.8190 O   0  0  0  0  0  0  0  0  0  0  0  0
   62.9170   33.4470   53.5970 C   0  0  0  0  0  0  0  0  0  0  0  0
   63.2690   33.4110   52.1070 C   0  0  0  0  0  0  0  0  0  0  0  0
   61.2320   33.4050   48.8690 C   0  0  0  0  0  0  0  0  0  0  0  0
   59.9590   34.8450   46.1690 C   0  0  0  0  0  0  0  0  0  0  0  0
   58.9020   35.0540   45.2840 C   0  0  0  0  0  0  0  0  0  0  0  0
   58.2230   33.9970   44.7720 N   0  0  0  0  0  0  0  0  0  0  0  0
   57.2630   30.6300   45.3020 N   0  0  0  0  0  0  0  0  0  0  0  0
   56.5100   29.5990   44.8350 C   0  0  0  0  0  0  0  0  0  0  0  0
   55.5861   28.6918   43.0931 H   0  0  0  0  0  0  0  0  0  0  0  0
   56.3924   30.4860   41.5485 H   0  0  0  0  0  0  0  0  0  0  0  0
   57.7653   32.3742   42.4420 H   0  0  0  0  0  0  0  0  0  0  0  0
   59.8429   31.4286   46.2658 H   0  0  0  0  0  0  0  0  0  0  0  0
   62.8771   32.8450   45.9348 H   0  0  0  0  0  0  0  0  0  0  0  0
   64.6590   32.4760   47.5150 H   0  0  0  0  0  0  0  0  0  0  0  0
   64.3976   32.6542   49.9043 H   0  0  0  0  0  0  0  0  0  0  0  0
   60.2888   34.3666   51.3701 H   0  0  0  0  0  0  0  0  0  0  0  0
   60.1527   32.5447   51.4341 H   0  0  0  0  0  0  0  0  0  0  0  0
   59.7173   33.9501   53.5985 H   0  0  0  0  0  0  0  0  0  0  0  0
   60.7024   32.4360   53.6658 H   0  0  0  0  0  0  0  0  0  0  0  0
   63.7457   33.9116   54.1515 H   0  0  0  0  0  0  0  0  0  0  0  0
   62.7521   32.4161   53.9436 H   0  0  0  0  0  0  0  0  0  0  0  0
   63.7998   34.3402   51.8525 H   0  0  0  0  0  0  0  0  0  0  0  0
   63.8887   32.5170   51.9434 H   0  0  0  0  0  0  0  0  0  0  0  0
   60.2384   33.6796   49.2529 H   0  0  0  0  0  0  0  0  0  0  0  0
   60.5137   35.7017   46.5793 H   0  0  0  0  0  0  0  0  0  0  0  0
   58.6181   36.0782   45.0003 H   0  0  0  0  0  0  0  0  0  0  0  0
   56.1536   28.8212   45.5264 H   0  0  0  0  0  0  0  0  0  0  0  0
  1  2  2  0
  2  3  1  0
  3  4  2  0
  4  5  1  0
  5  6  2  0
  6  7  1  0
  7  8  1  0
  8  9  2  0
  9 10  1  0
 10 11  2  0
 11 12  1  0
 12 13  1  0
 13 14  1  0
 14 15  1  0
 15 16  1  0
 16 17  1  0
 17 18  1  0
 12 19  2  0
  7 20  2  0
 20 21  1  0
 21 22  2  0
  4 23  1  0
 23 24  2  0
 24  1  1  0
 22  5  1  0
 19  8  1  0
 18 13  1  0
  1 25  1  0
  2 26  1  0
  3 27  1  0
  6 28  1  0
  9 29  1  0
 10 30  1  0
 11 31  1  0
 14 32  1  0
 14 33  1  0
 15 34  1  0
 15 35  1  0
 17 36  1  0
 17 37  1  0
 18 38  1  0
 18 39  1  0
 19 40  1  0
 20 41  1  0
 21 42  1  0
 24 43  1  0
M  CHG  1  10   1
M  END
>  <UniqueID>  (52) 
47

>  <SMILES>  (52) 
c1ccc(-c2cc(-c3c[nH+]cc(N4CCOCC4)c3)ccn2)nc1

>  <Energy>  (52) 
64.19135201583438

>  <Genealogy>  (52) 
c1ccc(-c2cc(-c3c[nH+]cc(N4CCOCC4)c3)ccn2)nc1 (protonated)
c1ccc(-c2cc(-c3c[nH+]cc(N4CCOCC4)c3)ccn2)nc1 (3D coordinates assigned)
c1ccc(-c2cc(-c3c[nH+]cc(N4CCOCC4)c3)ccn2)nc1 (nonaromatic ring conformer: 64.19135201583438 kcal/mol)

>  <smiles>  (52) 
c1ccc(-c2cc(-c3cncc(N4CCOCC4)c3)ccn2)nc1

>  <score_type>  (52) 
oracle

>  <origin>  (52) 
adg

>  <m_score__min__energy>  (52) 
-6.9800000000000004

>  <m_primary>  (52) 
energy

$$$$
52:0
     RDKit          3D

 32 33  0  0  0  0  0  0  0  0999 V2000
   61.3290   33.5440   49.9330 C   0  0  0  0  0  0  0  0  0  0  0  0
   61.0460   34.4790   48.8990 O   0  0  0  0  0  0  0  0  0  0  0  0
   60.0870   34.2830   47.8930 C   0  0  0  0  0  0  0  0  0  0  0  0
   59.0430   33.3840   48.1360 C   0  0  0  0  0  0  0  0  0  0  0  0
   58.0640   33.1520   47.1650 C   0  0  0  0  0  0  0  0  0  0  0  0
   58.1160   33.8220   45.9340 C   0  0  0  0  0  0  0  0  0  0  0  0
   57.0810   33.5450   44.8770 C   0  0  0  0  0  0  0  0  0  0  0  0
   57.8060   32.6210   43.4770 S   0  0  0  0  0  0  0  0  0  0  0  0
   57.5850   31.0070   44.2240 C   0  0  0  0  0  0  0  0  0  0  0  0
   58.6840   30.1890   44.4900 C   0  0  0  0  0  0  0  0  0  0  0  0
   58.4770   28.9460   45.0840 C   0  0  0  0  0  0  0  0  0  0  0  0
   57.1730   28.5510   45.4040 C   0  0  0  0  0  0  0  0  0  0  0  0
   56.9030   27.2090   46.0130 C   0  0  0  0  0  0  0  0  0  0  0  0
   55.5350   26.9150   45.9430 O   0  0  0  0  0  0  0  0  0  0  0  0
   56.1370   29.3790   45.1020 N   0  0  0  0  0  0  0  0  0  0  0  0
   56.3360   30.5690   44.5340 N   0  0  0  0  0  0  0  0  0  0  0  0
   59.1630   34.7240   45.6860 C   0  0  0  0  0  0  0  0  0  0  0  0
   60.1410   34.9550   46.6570 C   0  0  0  0  0  0  0  0  0  0  0  0
   61.1836   34.0245   50.9117 H   0  0  0  0  0  0  0  0  0  0  0  0
   60.6515   32.6820   49.8434 H   0  0  0  0  0  0  0  0  0  0  0  0
   62.3708   33.2024   49.8434 H   0  0  0  0  0  0  0  0  0  0  0  0
   58.9919   32.8551   49.0992 H   0  0  0  0  0  0  0  0  0  0  0  0
   57.2495   32.4409   47.3675 H   0  0  0  0  0  0  0  0  0  0  0  0
   56.2671   32.9504   45.3175 H   0  0  0  0  0  0  0  0  0  0  0  0
   56.6973   34.5053   44.5020 H   0  0  0  0  0  0  0  0  0  0  0  0
   59.7008   30.5215   44.2339 H   0  0  0  0  0  0  0  0  0  0  0  0
   59.3281   28.2830   45.2989 H   0  0  0  0  0  0  0  0  0  0  0  0
   57.4687   26.4406   45.4657 H   0  0  0  0  0  0  0  0  0  0  0  0
   57.2147   27.2230   47.0678 H   0  0  0  0  0  0  0  0  0  0  0  0
   55.1430   27.5410   45.2820 H   0  0  0  0  0  0  0  0  0  0  0  0
   59.2137   35.2517   44.7222 H   0  0  0  0  0  0  0  0  0  0  0  0
   60.9566   35.6649   46.4548 H   0  0  0  0  0  0  0  0  0  0  0  0
  1  2  1  0
  2  3  1  0
  3  4  2  0
  4  5  1  0
  5  6  2  0
  6  7  1  0
  7  8  1  0
  8  9  1  0
  9 10  2  0
 10 11  1  0
 11 12  2  0
 12 13  1  0
 13 14  1  0
 12 15  1  0
 15 16  2  0
  6 17  1  0
 17 18  2  0
 18  3  1  0
 16  9  1  0
  1 19  1  0
  1 20  1  0
  1 21  1  0
  4 22  1  0
  5 23  1  0
  7 24  1  0
  7 25  1  0
 10 26  1  0
 11 27  1  0
 13 28  1  0
 13 29  1  0
 14 30  1  0
 17 31  1  0
 18 32  1  0
M  END
>  <UniqueID>  (53) 
48

>  <SMILES>  (53) 
COc1ccc(CSc2ccc(CO)nn2)cc1

>  <Energy>  (53) 
26.939864524731153

>  <Genealogy>  (53) 
COc1ccc(CSc2ccc(CO)nn2)cc1 (3D coordinates assigned)
COc1ccc(CSc2ccc(CO)nn2)cc1 (optimized conformer: 26.939864524731153 kcal/mol)

>  <smiles>  (53) 
COc1ccc(CSc2ccc(CO)nn2)cc1

>  <score_type>  (53) 
oracle

>  <origin>  (53) 
adg

>  <m_score__min__energy>  (53) 
-8.3000000000000007

>  <m_primary>  (53) 
energy

$$$$
53:0
     RDKit          3D

 59 61  0  0  0  0  0  0  0  0999 V2000
   56.2380   29.3330   42.4620 O   0  0  0  0  0  0  0  0  0  0  0  0
   56.7290   30.1150   43.6490 S   0  0  0  0  0  0  0  0  0  0  0  0
   55.5470   30.5100   44.4880 O   0  0  0  0  0  0  0  0  0  0  0  0
   57.5250   31.5600   43.0850 N   0  0  0  0  0  0  0  0  0  0  0  0
   58.1980   32.2870   44.1690 C   0  0  0  0  0  0  0  0  0  0  0  0
   57.3970   33.5420   44.5490 C   0  0  0  0  0  0  0  0  0  0  0  0
   58.2450   34.5790   45.3080 C   0  0  0  0  0  0  0  0  0  0  0  0
   59.1330   33.9220   46.2920 N   0  0  0  0  0  0  0  0  0  0  0  0
   59.0840   34.5910   47.6000 C   0  0  0  0  0  0  0  0  0  0  0  0
   59.7370   33.6870   48.6560 C   0  0  0  0  0  0  0  0  0  0  0  0
   60.8720   32.8990   48.1250 N   0  0  0  0  0  0  0  0  0  0  0  0
   60.7010   31.4300   48.1440 C   0  0  0  0  0  0  0  0  0  0  0  0
   59.2640   30.9690   47.8400 C   0  0  0  0  0  0  0  0  0  0  0  0
   58.9040   29.6480   48.5480 C   0  0  0  0  0  0  0  0  0  0  0  0
   59.0260   29.7890   50.0020 N   0  0  0  0  0  0  0  0  0  0  0  0
   58.2790   30.5450   50.7580 C   0  0  0  0  0  0  0  0  0  0  0  0
   58.7090   31.8370   51.0830 C   0  0  0  0  0  0  0  0  0  0  0  0
   57.9130   32.6390   51.9020 C   0  0  0  0  0  0  0  0  0  0  0  0
   56.6980   32.1520   52.3850 C   0  0  0  0  0  0  0  0  0  0  0  0
   56.2990   30.8570   52.0430 C   0  0  0  0  0  0  0  0  0  0  0  0
   57.0890   30.0890   51.2460 N   0  0  0  0  0  0  0  0  0  0  0  0
   61.5270   33.4430   46.9160 C   0  0  0  0  0  0  0  0  0  0  0  0
   60.5330   33.8830   45.8130 C   0  0  0  0  0  0  0  0  0  0  0  0
   57.8110   29.0860   44.5930 C   0  0  0  0  0  0  0  0  0  0  0  0
   57.2860   28.0840   45.4220 C   0  0  0  0  0  0  0  0  0  0  0  0
   58.1430   27.2540   46.1550 C   0  0  0  0  0  0  0  0  0  0  0  0
   59.5270   27.4240   46.0680 C   0  0  0  0  0  0  0  0  0  0  0  0
   60.5980   26.4060   47.0140 Cl  0  0  0  0  0  0  0  0  0  0  0  0
   60.0550   28.4230   45.2440 C   0  0  0  0  0  0  0  0  0  0  0  0
   59.2000   29.2490   44.5040 C   0  0  0  0  0  0  0  0  0  0  0  0
   58.2320   31.2640   42.3730 H   0  0  0  0  0  0  0  0  0  0  0  0
   58.2825   31.6309   45.0478 H   0  0  0  0  0  0  0  0  0  0  0  0
   59.1984   32.5915   43.8276 H   0  0  0  0  0  0  0  0  0  0  0  0
   57.0129   34.0066   43.6289 H   0  0  0  0  0  0  0  0  0  0  0  0
   56.5810   33.2269   45.2159 H   0  0  0  0  0  0  0  0  0  0  0  0
   58.8591   35.1383   44.5868 H   0  0  0  0  0  0  0  0  0  0  0  0
   57.5676   35.2579   45.8467 H   0  0  0  0  0  0  0  0  0  0  0  0
   59.6285   35.5452   47.5455 H   0  0  0  0  0  0  0  0  0  0  0  0
   58.0370   34.7845   47.8765 H   0  0  0  0  0  0  0  0  0  0  0  0
   60.1038   34.3184   49.4787 H   0  0  0  0  0  0  0  0  0  0  0  0
   58.9719   32.9727   48.9942 H   0  0  0  0  0  0  0  0  0  0  0  0
   61.3725   30.9927   47.3904 H   0  0  0  0  0  0  0  0  0  0  0  0
   60.9372   31.0926   49.1640 H   0  0  0  0  0  0  0  0  0  0  0  0
   58.5651   31.7499   48.1743 H   0  0  0  0  0  0  0  0  0  0  0  0
   59.1911   30.7971   46.7560 H   0  0  0  0  0  0  0  0  0  0  0  0
   57.8684   29.3747   48.2974 H   0  0  0  0  0  0  0  0  0  0  0  0
   59.5982   28.8648   48.2093 H   0  0  0  0  0  0  0  0  0  0  0  0
   59.6661   32.2168   50.6961 H   0  0  0  0  0  0  0  0  0  0  0  0
   58.2432   33.6544   52.1666 H   0  0  0  0  0  0  0  0  0  0  0  0
   56.0622   32.7794   53.0269 H   0  0  0  0  0  0  0  0  0  0  0  0
   55.3450   30.4586   52.4189 H   0  0  0  0  0  0  0  0  0  0  0  0
   62.1281   34.3161   47.2100 H   0  0  0  0  0  0  0  0  0  0  0  0
   62.1402   32.6344   46.4916 H   0  0  0  0  0  0  0  0  0  0  0  0
   60.8146   34.8879   45.4652 H   0  0  0  0  0  0  0  0  0  0  0  0
   60.5871   33.1430   45.0009 H   0  0  0  0  0  0  0  0  0  0  0  0
   56.1968   27.9496   45.4967 H   0  0  0  0  0  0  0  0  0  0  0  0
   57.7259   26.4669   46.8003 H   0  0  0  0  0  0  0  0  0  0  0  0
   61.1443   28.5602   45.1770 H   0  0  0  0  0  0  0  0  0  0  0  0
   59.6199   30.0282   43.8509 H   0  0  0  0  0  0  0  0  0  0  0  0
  1  2  2  0
  2  3  2  0
  2  4  1  0
  4  5  1  0
  5  6  1  0
  6  7  1  0
  7  8  1  0
  8  9  1  0
  9 10  1  0
 10 11  1  0
 11 12  1  0
 12 13  1  0
 13 14  1  0
 14 15  1  0
 15 16  2  3
 16 17  1  0
 17 18  2  0
 18 19  1  0
 19 20  2  0
 20 21  1  0
 11 22  1  0
 22 23  1  0
  2 24  1  0
 24 25  2  0
 25 26  1  0
 26 27  2  0
 27 28  1  0
 27 29  1  0
 29 30  2  0
 23  8  1  0
 30 24  1  0
 21 16  1  0
  4 31  1  0
  5 32  1  0
  5 33  1  0
  6 34  1  0
  6 35  1  0
  7 36  1  0
  7 37  1  0
  9 38  1  0
  9 39  1  0
 10 40  1  0
 10 41  1  0
 12 42  1  0
 12 43  1  0
 13 44  1  0
 13 45  1  0
 14 46  1  0
 14 47  1  0
 17 48  1  0
 18 49  1  0
 19 50  1  0
 20 51  1  0
 22 52  1  0
 22 53  1  0
 23 54  1  0
 23 55  1  0
 25 56  1  0
 26 57  1  0
 29 58  1  0
 30 59  1  0
M  CHG  1  21  -1
M  END
>  <UniqueID>  (54) 
49

>  <SMILES>  (54) 
O=S(=O)(NCCCN1CCN(CCCN=c2cccc[n-]2)CC1)c1ccc(Cl)cc1

>  <Energy>  (54) 
70.04891524717961

>  <Genealogy>  (54) 
O=S(=O)(NCCCN1CCN(CCCN=c2cccc[n-]2)CC1)c1ccc(Cl)cc1 (protonated)
O=S(=O)(NCCCN1CCN(CCCN=c2cccc[n-]2)CC1)c1ccc(Cl)cc1 (3D coordinates assigned)
O=S(=O)(NCCCN1CCN(CCCN=c2cccc[n-]2)CC1)c1ccc(Cl)cc1 (nonaromatic ring conformer: 70.04891524717961 kcal/mol)

>  <smiles>  (54) 
O=S(=O)(NCCCN1CCN(CCCN=c2cccc[nH]2)CC1)c1ccc(Cl)cc1

>  <score_type>  (54) 
oracle

>  <origin>  (54) 
adg

>  <m_score__min__energy>  (54) 
-10.970000000000001

>  <m_primary>  (54) 
energy

$$$$
54:0
     RDKit          3D

 41 43  0  0  0  0  0  0  0  0999 V2000
   58.9850   35.3660   44.5680 O   0  0  0  0  0  0  0  0  0  0  0  0
   58.7380   34.4680   45.4180 C   0  0  0  0  0  0  0  0  0  0  0  0
   57.4870   33.6490   45.2340 C   0  0  0  0  0  0  0  0  0  0  0  0
   57.7960   32.3400   44.4950 C   0  0  0  0  0  0  0  0  0  0  0  0
   57.2650   31.1840   45.2550 N   0  0  0  0  0  0  0  0  0  0  0  0
   58.1560   30.7610   46.3590 C   0  0  0  0  0  0  0  0  0  0  0  0
   59.4560   30.0930   45.8610 C   0  0  0  0  0  0  0  0  0  0  0  0
   59.2790   29.3720   44.5160 C   0  0  0  0  0  0  0  0  0  0  0  0
   57.8460   28.8770   44.3430 C   0  0  0  0  0  0  0  0  0  0  0  0
   56.8360   30.0450   44.3980 C   0  0  0  0  0  0  0  0  0  0  0  0
   59.6970   34.2300   46.5350 C   0  0  0  0  0  0  0  0  0  0  0  0
   59.2670   34.3820   47.8670 C   0  0  0  0  0  0  0  0  0  0  0  0
   60.1450   34.1730   48.9340 C   0  0  0  0  0  0  0  0  0  0  0  0
   61.4750   33.8090   48.6930 C   0  0  0  0  0  0  0  0  0  0  0  0
   62.3650   33.6010   49.7580 C   0  0  0  0  0  0  0  0  0  0  0  0
   63.6920   33.2410   49.5040 C   0  0  0  0  0  0  0  0  0  0  0  0
   64.1380   33.0870   48.1890 C   0  0  0  0  0  0  0  0  0  0  0  0
   63.2610   33.2900   47.1190 C   0  0  0  0  0  0  0  0  0  0  0  0
   61.9260   33.6520   47.3610 C   0  0  0  0  0  0  0  0  0  0  0  0
   61.0380   33.8590   46.2950 C   0  0  0  0  0  0  0  0  0  0  0  0
   57.0614   33.4142   46.2208 H   0  0  0  0  0  0  0  0  0  0  0  0
   56.7698   34.2305   44.6360 H   0  0  0  0  0  0  0  0  0  0  0  0
   57.3284   32.3659   43.4997 H   0  0  0  0  0  0  0  0  0  0  0  0
   58.8863   32.2333   44.3958 H   0  0  0  0  0  0  0  0  0  0  0  0
   58.4225   31.6471   46.9538 H   0  0  0  0  0  0  0  0  0  0  0  0
   57.6101   30.0156   46.9560 H   0  0  0  0  0  0  0  0  0  0  0  0
   60.2272   30.8687   45.7448 H   0  0  0  0  0  0  0  0  0  0  0  0
   59.7455   29.3370   46.6058 H   0  0  0  0  0  0  0  0  0  0  0  0
   59.5192   30.0695   43.7000 H   0  0  0  0  0  0  0  0  0  0  0  0
   59.9539   28.5037   44.4933 H   0  0  0  0  0  0  0  0  0  0  0  0
   57.7567   28.3721   43.3698 H   0  0  0  0  0  0  0  0  0  0  0  0
   57.6178   28.1827   45.1651 H   0  0  0  0  0  0  0  0  0  0  0  0
   56.6869   30.4204   43.3748 H   0  0  0  0  0  0  0  0  0  0  0  0
   55.9138   29.6442   44.8440 H   0  0  0  0  0  0  0  0  0  0  0  0
   58.2249   34.6694   48.0708 H   0  0  0  0  0  0  0  0  0  0  0  0
   59.7894   34.2951   49.9677 H   0  0  0  0  0  0  0  0  0  0  0  0
   62.0179   33.7215   50.7948 H   0  0  0  0  0  0  0  0  0  0  0  0
   64.3864   33.0787   50.3415 H   0  0  0  0  0  0  0  0  0  0  0  0
   65.1833   32.8049   47.9946 H   0  0  0  0  0  0  0  0  0  0  0  0
   63.6175   33.1659   46.0858 H   0  0  0  0  0  0  0  0  0  0  0  0
   61.3902   33.7309   45.2608 H   0  0  0  0  0  0  0  0  0  0  0  0
  1  2  2  0
  2  3  1  0
  3  4  1  0
  4  5  1  0
  5  6  1  0
  6  7  1  0
  7  8  1  0
  8  9  1  0
  9 10  1  0
  2 11  1  0
 11 12  2  0
 12 13  1  0
 13 14  2  0
 14 15  1  0
 15 16  2  0
 16 17  1  0
 17 18  2  0
 18 19  1  0
 19 20  2  0
 10  5  1  0
 20 11  1  0
 19 14  1  0
  3 21  1  0
  3 22  1  0
  4 23  1  0
  4 24  1  0
  6 25  1  0
  6 26  1  0
  7 27  1  0
  7 28  1  0
  8 29  1  0
  8 30  1  0
  9 31  1  0
  9 32  1  0
 10 33  1  0
 10 34  1  0
 12 35  1  0
 13 36  1  0
 15 37  1  0
 16 38  1  0
 17 39  1  0
 18 40  1  0
 20 41  1  0
M  END
>  <UniqueID>  (55) 
50

>  <SMILES>  (55) 
O=C(CCN1CCCCC1)c1ccc2ccccc2c1

>  <Energy>  (55) 
53.618100112296574

>  <Genealogy>  (55) 
O=C(CCN1CCCCC1)c1ccc2ccccc2c1 (3D coordinates assigned)
O=C(CCN1CCCCC1)c1ccc2ccccc2c1 (nonaromatic ring conformer: 53.618100112296574 kcal/mol)

>  <smiles>  (55) 
O=C(CCN1CCCCC1)c1ccc2ccccc2c1

>  <score_type>  (55) 
oracle

>  <origin>  (55) 
adg

>  <m_score__min__energy>  (55) 
-8.1999999999999993

>  <m_primary>  (55) 
energy

$$$$
55:0
     RDKit          3D

 38 41  0  0  0  0  0  0  0  0999 V2000
   65.3560   32.3410   50.0420 C   0  0  0  0  0  0  0  0  0  0  0  0
   64.3220   33.4520   49.9100 C   0  0  0  0  0  0  0  0  0  0  0  0
   63.4930   33.2300   48.7310 N   0  0  0  0  0  0  0  0  0  0  0  0
   62.4490   32.3850   48.6480 C   0  0  0  0  0  0  0  0  0  0  0  0
   61.8940   32.5160   47.3910 C   0  0  0  0  0  0  0  0  0  0  0  0
   60.7840   31.7210   46.8190 C   0  0  0  0  0  0  0  0  0  0  0  0
   60.9640   30.3300   46.7200 C   0  0  0  0  0  0  0  0  0  0  0  0
   59.9820   29.5480   46.1230 C   0  0  0  0  0  0  0  0  0  0  0  0
   58.8280   30.0980   45.6260 C   0  0  0  0  0  0  0  0  0  0  0  0
   58.5830   31.4870   45.7240 C   0  0  0  0  0  0  0  0  0  0  0  0
   57.3960   32.0940   45.2460 C   0  0  0  0  0  0  0  0  0  0  0  0
   56.5020   31.4140   44.6720 O   0  0  0  0  0  0  0  0  0  0  0  0
   57.2020   33.4310   45.4030 N   0  0  0  0  0  0  0  0  0  0  0  0
   58.1140   34.2190   46.0260 C   0  0  0  0  0  0  0  0  0  0  0  0
   59.3010   33.6780   46.5110 C   0  0  0  0  0  0  0  0  0  0  0  0
   59.5720   32.3070   46.3450 C   0  0  0  0  0  0  0  0  0  0  0  0
   57.9540   29.0460   45.0350 C   0  0  0  0  0  0  0  0  0  0  0  0
   58.7340   27.7330   45.2230 C   0  0  0  0  0  0  0  0  0  0  0  0
   60.0490   28.0810   45.9340 C   0  0  0  0  0  0  0  0  0  0  0  0
   62.6770   33.4610   46.7490 C   0  0  0  0  0  0  0  0  0  0  0  0
   63.6370   33.8900   47.5920 N   0  0  0  0  0  0  0  0  0  0  0  0
   65.5436   32.1394   51.1070 H   0  0  0  0  0  0  0  0  0  0  0  0
   64.9780   31.4288   49.5572 H   0  0  0  0  0  0  0  0  0  0  0  0
   66.2929   32.6526   49.5572 H   0  0  0  0  0  0  0  0  0  0  0  0
   63.6841   33.4631   50.8060 H   0  0  0  0  0  0  0  0  0  0  0  0
   64.8417   34.4161   49.8074 H   0  0  0  0  0  0  0  0  0  0  0  0
   62.0994   31.7089   49.4421 H   0  0  0  0  0  0  0  0  0  0  0  0
   61.8786   29.8623   47.1135 H   0  0  0  0  0  0  0  0  0  0  0  0
   56.3220   33.8690   45.0490 H   0  0  0  0  0  0  0  0  0  0  0  0
   57.9137   35.2936   46.1487 H   0  0  0  0  0  0  0  0  0  0  0  0
   60.0287   34.3232   47.0250 H   0  0  0  0  0  0  0  0  0  0  0  0
   56.9897   29.0024   45.5625 H   0  0  0  0  0  0  0  0  0  0  0  0
   57.7243   29.2439   43.9776 H   0  0  0  0  0  0  0  0  0  0  0  0
   58.1487   27.0319   45.8361 H   0  0  0  0  0  0  0  0  0  0  0  0
   58.9310   27.2547   44.2522 H   0  0  0  0  0  0  0  0  0  0  0  0
   60.1168   27.5654   46.9033 H   0  0  0  0  0  0  0  0  0  0  0  0
   60.9340   27.7700   45.3594 H   0  0  0  0  0  0  0  0  0  0  0  0
   62.5373   33.8069   45.7142 H   0  0  0  0  0  0  0  0  0  0  0  0
  1  2  1  0
  2  3  1  0
  3  4  1  0
  4  5  2  0
  5  6  1  0
  6  7  2  0
  7  8  1  0
  8  9  2  0
  9 10  1  0
 10 11  1  0
 11 12  2  0
 11 13  1  0
 13 14  1  0
 14 15  2  0
 15 16  1  0
  9 17  1  0
 17 18  1  0
 18 19  1  0
  5 20  1  0
 20 21  2  0
 21  3  1  0
 16  6  1  0
 19  8  1  0
 16 10  2  0
  1 22  1  0
  1 23  1  0
  1 24  1  0
  2 25  1  0
  2 26  1  0
  4 27  1  0
  7 28  1  0
 13 29  1  0
 14 30  1  0
 15 31  1  0
 17 32  1  0
 17 33  1  0
 18 34  1  0
 18 35  1  0
 19 36  1  0
 19 37  1  0
 20 38  1  0
M  END
>  <UniqueID>  (56) 
51

>  <SMILES>  (56) 
CCn1cc(-c2cc3c(c4c(=O)[nH]ccc24)CCC3)cn1

>  <Energy>  (56) 
88.8683161224322

>  <Genealogy>  (56) 
CCn1cc(-c2cc3c(c4c(=O)[nH]ccc24)CCC3)cn1 (3D coordinates assigned)
CCn1cc(-c2cc3c(c4c(=O)[nH]ccc24)CCC3)cn1 (nonaromatic ring conformer: 88.8683161224322 kcal/mol)

>  <smiles>  (56) 
CCn1cc(-c2cc3c(c4c(=O)[nH]ccc24)CCC3)cn1

>  <score_type>  (56) 
oracle

>  <origin>  (56) 
adg

>  <m_score__min__energy>  (56) 
-7.46

>  <m_primary>  (56) 
energy

$$$$
56:0
     RDKit          3D

 42 45  0  0  0  0  0  0  0  0999 V2000
   57.7560   27.4600   45.6780 C   0  0  0  0  0  0  0  0  0  0  0  0
   56.2700   27.6410   45.6090 C   0  0  0  0  0  0  0  0  0  0  0  0
   55.5250   26.7110   46.0160 O   0  0  0  0  0  0  0  0  0  0  0  0
   55.6680   28.8520   45.1320 N   0  0  0  0  0  0  0  0  0  0  0  0
   56.3200   29.9110   44.4160 C   0  0  0  0  0  0  0  0  0  0  0  0
   56.3120   29.8860   43.0170 C   0  0  0  0  0  0  0  0  0  0  0  0
   56.9660   30.8830   42.2900 C   0  0  0  0  0  0  0  0  0  0  0  0
   57.6390   31.9100   42.9560 C   0  0  0  0  0  0  0  0  0  0  0  0
   57.6690   31.9450   44.3590 C   0  0  0  0  0  0  0  0  0  0  0  0
   58.3950   33.0260   45.0600 C   0  0  0  0  0  0  0  0  0  0  0  0
   58.8280   34.2300   44.5020 C   0  0  0  0  0  0  0  0  0  0  0  0
   59.4690   34.9800   45.4270 N   0  0  0  0  0  0  0  0  0  0  0  0
   59.4330   34.2650   46.5620 C   0  0  0  0  0  0  0  0  0  0  0  0
   59.9360   34.6450   47.7630 N   0  0  0  0  0  0  0  0  0  0  0  0
   59.7920   33.8170   48.8410 C   0  0  0  0  0  0  0  0  0  0  0  0
   59.1090   32.5770   48.7200 C   0  0  0  0  0  0  0  0  0  0  0  0
   58.9480   31.6790   49.8930 C   0  0  0  0  0  0  0  0  0  0  0  0
   59.9620   30.7650   50.2390 C   0  0  0  0  0  0  0  0  0  0  0  0
   59.8120   29.9290   51.3500 C   0  0  0  0  0  0  0  0  0  0  0  0
   58.6530   29.9950   52.1260 C   0  0  0  0  0  0  0  0  0  0  0  0
   57.6400   30.8980   51.7940 C   0  0  0  0  0  0  0  0  0  0  0  0
   56.1880   30.9850   52.7750 Cl  0  0  0  0  0  0  0  0  0  0  0  0
   57.7840   31.7360   50.6820 C   0  0  0  0  0  0  0  0  0  0  0  0
   58.5840   32.2100   47.4600 C   0  0  0  0  0  0  0  0  0  0  0  0
   58.7850   33.0760   46.3880 C   0  0  0  0  0  0  0  0  0  0  0  0
   57.0300   30.9230   45.0830 C   0  0  0  0  0  0  0  0  0  0  0  0
   58.0722   27.4215   46.7309 H   0  0  0  0  0  0  0  0  0  0  0  0
   58.0347   26.5213   45.1769 H   0  0  0  0  0  0  0  0  0  0  0  0
   58.2519   28.3044   45.1769 H   0  0  0  0  0  0  0  0  0  0  0  0
   55.7879   29.0769   42.4871 H   0  0  0  0  0  0  0  0  0  0  0  0
   56.9511   30.8595   41.1904 H   0  0  0  0  0  0  0  0  0  0  0  0
   58.1481   32.6954   42.3781 H   0  0  0  0  0  0  0  0  0  0  0  0
   58.6698   34.5276   43.4549 H   0  0  0  0  0  0  0  0  0  0  0  0
   59.8960   35.9230   45.2850 H   0  0  0  0  0  0  0  0  0  0  0  0
   60.4230   35.5640   47.8670 H   0  0  0  0  0  0  0  0  0  0  0  0
   60.2100   34.1143   49.8141 H   0  0  0  0  0  0  0  0  0  0  0  0
   60.8775   30.7083   49.6318 H   0  0  0  0  0  0  0  0  0  0  0  0
   60.6088   29.2178   51.6132 H   0  0  0  0  0  0  0  0  0  0  0  0
   58.5375   29.3358   52.9990 H   0  0  0  0  0  0  0  0  0  0  0  0
   56.9824   32.4434   50.4233 H   0  0  0  0  0  0  0  0  0  0  0  0
   58.0324   31.2672   47.3299 H   0  0  0  0  0  0  0  0  0  0  0  0
   57.0866   30.9159   46.1815 H   0  0  0  0  0  0  0  0  0  0  0  0
  1  2  1  0
  2  3  2  0
  2  4  1  0
  4  5  1  0
  5  6  2  0
  6  7  1  0
  7  8  2  0
  8  9  1  0
  9 10  1  0
 10 11  2  0
 11 12  1  0
 12 13  1  0
 13 14  2  0
 14 15  1  0
 15 16  2  0
 16 17  1  0
 17 18  2  0
 18 19  1  0
 19 20  2  0
 20 21  1  0
 21 22  1  0
 21 23  2  0
 16 24  1  0
 24 25  2  0
  9 26  2  0
 26  5  1  0
 25 10  1  0
 25 13  1  0
 23 17  1  0
  1 27  1  0
  1 28  1  0
  1 29  1  0
  6 30  1  0
  7 31  1  0
  8 32  1  0
 11 33  1  0
 12 34  1  0
 14 35  1  0
 15 36  1  0
 18 37  1  0
 19 38  1  0
 20 39  1  0
 23 40  1  0
 24 41  1  0
 26 42  1  0
M  CHG  2   4  -1  14   1
M  END
>  <UniqueID>  (57) 
52

>  <SMILES>  (57) 
CC(=O)[N-]c1cccc(-c2c[nH]c3[nH+]cc(-c4cccc(Cl)c4)cc23)c1

>  <Energy>  (57) 
91.81177528050566

>  <Genealogy>  (57) 
CC(=O)[N-]c1cccc(-c2c[nH]c3[nH+]cc(-c4cccc(Cl)c4)cc23)c1 (protonated)
CC(=O)[N-]c1cccc(-c2c[nH]c3[nH+]cc(-c4cccc(Cl)c4)cc23)c1 (3D coordinates assigned)
CC(=O)[N-]c1cccc(-c2c[nH]c3[nH+]cc(-c4cccc(Cl)c4)cc23)c1 (optimized conformer: 91.81177528050566 kcal/mol)

>  <smiles>  (57) 
CC(=O)Nc1cccc(-c2c[nH]c3ncc(-c4cccc(Cl)c4)cc23)c1

>  <score_type>  (57) 
oracle

>  <origin>  (57) 
adg

>  <m_score__min__energy>  (57) 
-9.8699999999999992

>  <m_primary>  (57) 
energy

$$$$
57:0
     RDKit          3D

 20 20  0  0  0  0  0  0  0  0999 V2000
   58.5720   29.3410   47.4800 C   0  0  0  0  0  0  0  0  0  0  0  0
   58.1480   29.6560   46.3970 C   0  0  0  0  0  0  0  0  0  0  0  0
   57.6400   30.0330   45.1000 C   0  0  0  0  0  0  0  0  0  0  0  0
   58.2740   31.0620   44.3890 C   0  0  0  0  0  0  0  0  0  0  0  0
   57.8000   31.4420   43.1310 C   0  0  0  0  0  0  0  0  0  0  0  0
   56.7000   30.7890   42.5710 C   0  0  0  0  0  0  0  0  0  0  0  0
   56.0630   29.7630   43.2730 C   0  0  0  0  0  0  0  0  0  0  0  0
   56.5120   29.3910   44.5540 C   0  0  0  0  0  0  0  0  0  0  0  0
   55.8860   28.3170   45.2760 N   0  0  0  0  0  0  0  0  0  0  0  0
   56.4810   27.0610   45.6260 C   0  0  0  0  0  0  0  0  0  0  0  0
   57.8180   26.6400   45.0990 C   0  0  0  0  0  0  0  0  0  0  0  0
   55.8430   26.2720   46.3720 O   0  0  0  0  0  0  0  0  0  0  0  0
   58.9591   29.0534   48.4687 H   0  0  0  0  0  0  0  0  0  0  0  0
   59.1470   31.5714   44.8230 H   0  0  0  0  0  0  0  0  0  0  0  0
   58.2939   32.2566   42.5809 H   0  0  0  0  0  0  0  0  0  0  0  0
   56.3347   31.0829   41.5759 H   0  0  0  0  0  0  0  0  0  0  0  0
   55.2053   29.2426   42.8219 H   0  0  0  0  0  0  0  0  0  0  0  0
   58.4935   26.4273   45.9407 H   0  0  0  0  0  0  0  0  0  0  0  0
   57.7016   25.7350   44.4846 H   0  0  0  0  0  0  0  0  0  0  0  0
   58.2411   27.4484   44.4846 H   0  0  0  0  0  0  0  0  0  0  0  0
  1  2  3  0
  2  3  1  0
  3  4  2  0
  4  5  1  0
  5  6  2  0
  6  7  1  0
  7  8  2  0
  8  9  1  0
  9 10  1  0
 10 11  1  0
 10 12  2  0
  8  3  1  0
  1 13  1  0
  4 14  1  0
  5 15  1  0
  6 16  1  0
  7 17  1  0
 11 18  1  0
 11 19  1  0
 11 20  1  0
M  CHG  1   9  -1
M  END
>  <UniqueID>  (58) 
53

>  <SMILES>  (58) 
C#Cc1ccccc1[N-]C(C)=O

>  <Energy>  (58) 
20.518101017784826

>  <Genealogy>  (58) 
C#Cc1ccccc1[N-]C(C)=O (protonated)
C#Cc1ccccc1[N-]C(C)=O (3D coordinates assigned)
C#Cc1ccccc1[N-]C(C)=O (optimized conformer: 20.518101017784826 kcal/mol)

>  <smiles>  (58) 
C#Cc1ccccc1NC(C)=O

>  <score_type>  (58) 
oracle

>  <origin>  (58) 
adg

>  <m_score__min__energy>  (58) 
-7.3200000000000003

>  <m_primary>  (58) 
energy

$$$$
58:0
     RDKit          3D

 24 25  0  0  0  0  0  0  0  0999 V2000
   60.0350   35.5985   46.6221 H   0  0  0  0  0  0  0  0  0  0  0  0
   59.3400   34.8290   46.2550 C   0  0  0  0  0  0  0  0  0  0  0  0
   58.5230   34.1380   47.1540 C   0  0  0  0  0  0  0  0  0  0  0  0
   58.5812   34.3586   48.2301 H   0  0  0  0  0  0  0  0  0  0  0  0
   57.6320   33.1670   46.6880 C   0  0  0  0  0  0  0  0  0  0  0  0
   57.0051   32.6116   47.4011 H   0  0  0  0  0  0  0  0  0  0  0  0
   57.5340   32.8980   45.3160 C   0  0  0  0  0  0  0  0  0  0  0  0
   56.6370   31.8690   44.8690 N   0  0  0  0  0  0  0  0  0  0  0  0
   56.7220   30.6240   45.1550 N   0  0  0  0  0  0  0  0  0  0  0  0
   57.8980   29.8100   45.0290 C   0  0  0  0  0  0  0  0  0  0  0  0
   59.0230   30.1120   45.8080 C   0  0  0  0  0  0  0  0  0  0  0  0
   59.0049   30.9813   46.4818 H   0  0  0  0  0  0  0  0  0  0  0  0
   60.1680   29.3140   45.7330 C   0  0  0  0  0  0  0  0  0  0  0  0
   61.0533   29.5661   46.3352 H   0  0  0  0  0  0  0  0  0  0  0  0
   60.1900   28.1960   44.8940 C   0  0  0  0  0  0  0  0  0  0  0  0
   61.0952   27.5745   44.8281 H   0  0  0  0  0  0  0  0  0  0  0  0
   59.0600   27.8690   44.1390 C   0  0  0  0  0  0  0  0  0  0  0  0
   59.0738   26.9844   43.4853 H   0  0  0  0  0  0  0  0  0  0  0  0
   57.9120   28.6640   44.2130 C   0  0  0  0  0  0  0  0  0  0  0  0
   57.0181   28.3928   43.6321 H   0  0  0  0  0  0  0  0  0  0  0  0
   58.3830   33.5710   44.4190 C   0  0  0  0  0  0  0  0  0  0  0  0
   58.3463   33.3332   43.3456 H   0  0  0  0  0  0  0  0  0  0  0  0
   59.2730   34.5410   44.8880 C   0  0  0  0  0  0  0  0  0  0  0  0
   59.9218   35.0788   44.1810 H   0  0  0  0  0  0  0  0  0  0  0  0
  1  2  1  0
  2  3  2  0
  3  4  1  0
  3  5  1  0
  5  6  1  0
  5  7  2  0
  7  8  1  0
  8  9  2  0
  9 10  1  0
 10 11  2  0
 11 12  1  0
 11 13  1  0
 13 14  1  0
 13 15  2  0
 15 16  1  0
 15 17  1  0
 17 18  1  0
 17 19  2  0
 19 20  1  0
  7 21  1  0
 21 22  1  0
 21 23  2  0
 23 24  1  0
 23  2  1  0
 19 10  1  0
M  END
>  <UniqueID>  (59) 
54

>  <SMILES>  (59) 
c1ccc(/N=N\c2ccccc2)cc1

>  <Energy>  (59) 
37.86503523986277

>  <Genealogy>  (59) 
c1ccc(/N=N\c2ccccc2)cc1 (cis-trans isomerization)
c1ccc(/N=N\c2ccccc2)cc1 (3D coordinates assigned)
c1ccc(/N=N\c2ccccc2)cc1 (optimized conformer: 37.86503523986277 kcal/mol)

>  <smiles>  (59) 
c1ccc(N=Nc2ccccc2)cc1

>  <score_type>  (59) 
oracle

>  <origin>  (59) 
adg

>  <m_score__min__energy>  (59) 
-6.2999999999999998

>  <m_primary>  (59) 
energy

$$$$
59:0
     RDKit          3D

 42 45  0  0  0  0  0  0  0  0999 V2000
   59.2640   33.8430   51.1620 C   0  0  0  0  0  0  0  0  0  0  0  0
   60.5980   33.7590   50.4860 C   0  0  0  0  0  0  0  0  0  0  0  0
   61.7700   33.8000   51.1420 N   0  0  0  0  0  0  0  0  0  0  0  0
   62.7450   33.7090   50.2530 N   0  0  0  0  0  0  0  0  0  0  0  0
   62.1470   33.6070   49.0480 C   0  0  0  0  0  0  0  0  0  0  0  0
   63.0640   33.4300   47.5120 S   0  0  0  0  0  0  0  0  0  0  0  0
   63.0980   31.5980   47.5380 C   0  0  0  0  0  0  0  0  0  0  0  0
   61.7240   31.0160   47.4430 C   0  0  0  0  0  0  0  0  0  0  0  0
   61.1030   30.2270   48.3850 C   0  0  0  0  0  0  0  0  0  0  0  0
   59.9500   29.8550   47.8850 O   0  0  0  0  0  0  0  0  0  0  0  0
   59.8580   30.3810   46.6820 C   0  0  0  0  0  0  0  0  0  0  0  0
   58.7170   30.1590   45.7730 C   0  0  0  0  0  0  0  0  0  0  0  0
   57.8430   29.0750   45.9760 C   0  0  0  0  0  0  0  0  0  0  0  0
   56.7530   28.8790   45.1240 C   0  0  0  0  0  0  0  0  0  0  0  0
   56.5240   29.7610   44.0650 C   0  0  0  0  0  0  0  0  0  0  0  0
   57.3860   30.8400   43.8570 C   0  0  0  0  0  0  0  0  0  0  0  0
   58.4780   31.0420   44.7070 C   0  0  0  0  0  0  0  0  0  0  0  0
   60.9370   31.1220   46.3560 N   0  0  0  0  0  0  0  0  0  0  0  0
   60.7980   33.6490   49.1540 N   0  0  0  0  0  0  0  0  0  0  0  0
   59.8230   33.7550   48.1000 C   0  0  0  0  0  0  0  0  0  0  0  0
   58.6260   33.0210   48.1680 C   0  0  0  0  0  0  0  0  0  0  0  0
   57.6770   33.1170   47.1450 C   0  0  0  0  0  0  0  0  0  0  0  0
   57.9140   33.9480   46.0480 C   0  0  0  0  0  0  0  0  0  0  0  0
   56.9940   34.0410   45.0550 F   0  0  0  0  0  0  0  0  0  0  0  0
   59.0980   34.6860   45.9730 C   0  0  0  0  0  0  0  0  0  0  0  0
   60.0480   34.5930   46.9950 C   0  0  0  0  0  0  0  0  0  0  0  0
   59.4046   33.8341   52.2529 H   0  0  0  0  0  0  0  0  0  0  0  0
   58.7603   34.7746   50.8647 H   0  0  0  0  0  0  0  0  0  0  0  0
   58.6474   32.9819   50.8647 H   0  0  0  0  0  0  0  0  0  0  0  0
   61.9130   33.8900   52.1730 H   0  0  0  0  0  0  0  0  0  0  0  0
   63.6957   31.2408   46.6864 H   0  0  0  0  0  0  0  0  0  0  0  0
   63.5399   31.2776   48.4930 H   0  0  0  0  0  0  0  0  0  0  0  0
   61.5011   29.9584   49.3746 H   0  0  0  0  0  0  0  0  0  0  0  0
   58.0187   28.3787   46.8093 H   0  0  0  0  0  0  0  0  0  0  0  0
   56.0742   28.0290   45.2873 H   0  0  0  0  0  0  0  0  0  0  0  0
   55.6652   29.6057   43.3954 H   0  0  0  0  0  0  0  0  0  0  0  0
   57.2055   31.5330   43.0221 H   0  0  0  0  0  0  0  0  0  0  0  0
   59.1520   31.8952   44.5403 H   0  0  0  0  0  0  0  0  0  0  0  0
   58.4344   32.3669   49.0314 H   0  0  0  0  0  0  0  0  0  0  0  0
   56.7437   32.5378   47.2046 H   0  0  0  0  0  0  0  0  0  0  0  0
   59.2831   35.3410   45.1089 H   0  0  0  0  0  0  0  0  0  0  0  0
   60.9767   35.1793   46.9334 H   0  0  0  0  0  0  0  0  0  0  0  0
  1  2  1  0
  2  3  2  0
  3  4  1  0
  4  5  2  0
  5  6  1  0
  6  7  1  0
  7  8  1  0
  8  9  2  0
  9 10  1  0
 10 11  1  0
 11 12  1  0
 12 13  2  0
 13 14  1  0
 14 15  2  0
 15 16  1  0
 16 17  2  0
 11 18  2  0
  5 19  1  0
 19 20  1  0
 20 21  2  0
 21 22  1  0
 22 23  2  0
 23 24  1  0
 23 25  1  0
 25 26  2  0
 19  2  1  0
 26 20  1  0
 18  8  1  0
 17 12  1  0
  1 27  1  0
  1 28  1  0
  1 29  1  0
  3 30  1  0
  7 31  1  0
  7 32  1  0
  9 33  1  0
 13 34  1  0
 14 35  1  0
 15 36  1  0
 16 37  1  0
 17 38  1  0
 21 39  1  0
 22 40  1  0
 25 41  1  0
 26 42  1  0
M  CHG  1   3   1
M  END
>  <UniqueID>  (60) 
55

>  <SMILES>  (60) 
Cc1[nH+]nc(SCc2coc(-c3ccccc3)n2)n1-c1ccc(F)cc1

>  <Energy>  (60) 
111.49514750311866

>  <Genealogy>  (60) 
Cc1[nH+]nc(SCc2coc(-c3ccccc3)n2)n1-c1ccc(F)cc1 (protonated)
Cc1[nH+]nc(SCc2coc(-c3ccccc3)n2)n1-c1ccc(F)cc1 (3D coordinates assigned)
Cc1[nH+]nc(SCc2coc(-c3ccccc3)n2)n1-c1ccc(F)cc1 (optimized conformer: 111.49514750311866 kcal/mol)

>  <smiles>  (60) 
Cc1nnc(SCc2coc(-c3ccccc3)n2)n1-c1ccc(F)cc1

>  <score_type>  (60) 
oracle

>  <origin>  (60) 
adg

>  <m_score__min__energy>  (60) 
-6.9100000000000001

>  <m_primary>  (60) 
energy

$$$$
60:0
     RDKit          3D

 26 27  0  0  0  0  0  0  0  0999 V2000
   56.1260   30.2540   44.8710 O   0  0  0  0  0  0  0  0  0  0  0  0
   57.2660   29.7180   44.8070 C   0  0  0  0  0  0  0  0  0  0  0  0
   58.4400   30.5450   44.7550 N   0  0  0  0  0  0  0  0  0  0  0  0
   58.4790   31.9070   45.2170 C   0  0  0  0  0  0  0  0  0  0  0  0
   57.8010   32.9000   44.4930 C   0  0  0  0  0  0  0  0  0  0  0  0
   57.8420   34.2330   44.9120 C   0  0  0  0  0  0  0  0  0  0  0  0
   58.5720   34.5890   46.0480 C   0  0  0  0  0  0  0  0  0  0  0  0
   59.2700   33.6120   46.7660 C   0  0  0  0  0  0  0  0  0  0  0  0
   60.2040   34.0630   48.1800 Cl  0  0  0  0  0  0  0  0  0  0  0  0
   59.2300   32.2760   46.3490 C   0  0  0  0  0  0  0  0  0  0  0  0
   57.3730   28.2400   44.7360 C   0  0  0  0  0  0  0  0  0  0  0  0
   57.7890   27.6170   43.5430 C   0  0  0  0  0  0  0  0  0  0  0  0
   57.8860   26.2250   43.4670 C   0  0  0  0  0  0  0  0  0  0  0  0
   57.5650   25.4370   44.5760 C   0  0  0  0  0  0  0  0  0  0  0  0
   57.6860   23.6890   44.4770 Cl  0  0  0  0  0  0  0  0  0  0  0  0
   57.1410   26.0430   45.7610 C   0  0  0  0  0  0  0  0  0  0  0  0
   57.0430   27.4350   45.8430 C   0  0  0  0  0  0  0  0  0  0  0  0
   59.2780   30.1770   44.2510 H   0  0  0  0  0  0  0  0  0  0  0  0
   57.2340   32.6277   43.5906 H   0  0  0  0  0  0  0  0  0  0  0  0
   57.2980   35.0032   44.3456 H   0  0  0  0  0  0  0  0  0  0  0  0
   58.5982   35.6379   46.3784 H   0  0  0  0  0  0  0  0  0  0  0  0
   59.7881   31.5110   46.9087 H   0  0  0  0  0  0  0  0  0  0  0  0
   58.0393   28.2306   42.6650 H   0  0  0  0  0  0  0  0  0  0  0  0
   58.2158   25.7482   42.5322 H   0  0  0  0  0  0  0  0  0  0  0  0
   56.8834   25.4229   46.6323 H   0  0  0  0  0  0  0  0  0  0  0  0
   56.7058   27.9047   46.7788 H   0  0  0  0  0  0  0  0  0  0  0  0
  1  2  2  0
  2  3  1  0
  3  4  1  0
  4  5  2  0
  5  6  1  0
  6  7  2  0
  7  8  1  0
  8  9  1  0
  8 10  2  0
  2 11  1  0
 11 12  2  0
 12 13  1  0
 13 14  2  0
 14 15  1  0
 14 16  1  0
 16 17  2  0
 10  4  1  0
 17 11  1  0
  3 18  1  0
  5 19  1  0
  6 20  1  0
  7 21  1  0
 10 22  1  0
 12 23  1  0
 13 24  1  0
 16 25  1  0
 17 26  1  0
M  END
>  <UniqueID>  (61) 
56

>  <SMILES>  (61) 
O=C(Nc1cccc(Cl)c1)c1ccc(Cl)cc1

>  <Energy>  (61) 
32.181962093679964

>  <Genealogy>  (61) 
O=C(Nc1cccc(Cl)c1)c1ccc(Cl)cc1 (3D coordinates assigned)
O=C(Nc1cccc(Cl)c1)c1ccc(Cl)cc1 (optimized conformer: 32.181962093679964 kcal/mol)

>  <smiles>  (61) 
O=C(Nc1cccc(Cl)c1)c1ccc(Cl)cc1

>  <score_type>  (61) 
oracle

>  <origin>  (61) 
adg

>  <m_score__min__energy>  (61) 
-6.8899999999999997

>  <m_primary>  (61) 
energy

$$$$
61:0
     RDKit          3D

 36 37  0  0  0  0  0  0  0  0999 V2000
   59.5369   30.8968   44.9576 H   0  0  0  0  0  0  0  0  0  0  0  0
   58.4730   30.6180   44.9390 C   0  0  0  0  0  0  0  0  0  0  0  0
   57.5030   31.5600   44.5870 C   0  0  0  0  0  0  0  0  0  0  0  0
   57.8880   32.9560   44.1940 C   0  0  0  0  0  0  0  0  0  0  0  0
   57.4245   33.1995   43.2266 H   0  0  0  0  0  0  0  0  0  0  0  0
   58.9839   33.0121   44.1172 H   0  0  0  0  0  0  0  0  0  0  0  0
   57.4180   33.9600   45.2410 C   0  0  0  0  0  0  0  0  0  0  0  0
   57.6069   33.5565   46.2467 H   0  0  0  0  0  0  0  0  0  0  0  0
   57.9675   34.9047   45.1158 H   0  0  0  0  0  0  0  0  0  0  0  0
   56.3406   34.1431   45.1158 H   0  0  0  0  0  0  0  0  0  0  0  0
   56.1970   31.1850   44.5550 N   0  0  0  0  0  0  0  0  0  0  0  0
   55.8190   29.9440   44.8660 N   0  0  0  0  0  0  0  0  0  0  0  0
   56.7150   28.9870   45.2260 C   0  0  0  0  0  0  0  0  0  0  0  0
   56.2730   27.7950   45.5140 N   0  0  0  0  0  0  0  0  0  0  0  0
   56.8940   26.8070   46.4010 C   0  0  0  0  0  0  0  0  0  0  0  0
   57.9204   27.1294   46.6301 H   0  0  0  0  0  0  0  0  0  0  0  0
   56.2876   26.7398   47.3163 H   0  0  0  0  0  0  0  0  0  0  0  0
   56.9420   25.4260   45.7620 C   0  0  0  0  0  0  0  0  0  0  0  0
   58.1690   24.7430   45.5520 C   0  0  0  0  0  0  0  0  0  0  0  0
   59.4940   25.3310   45.9670 C   0  0  0  0  0  0  0  0  0  0  0  0
   59.5553   25.3582   47.0650 H   0  0  0  0  0  0  0  0  0  0  0  0
   60.3110   24.7109   45.5694 H   0  0  0  0  0  0  0  0  0  0  0  0
   59.5823   26.3528   45.5694 H   0  0  0  0  0  0  0  0  0  0  0  0
   58.1550   23.4810   44.9430 C   0  0  0  0  0  0  0  0  0  0  0  0
   59.1025   22.9626   44.7343 H   0  0  0  0  0  0  0  0  0  0  0  0
   56.9420   22.8790   44.6000 C   0  0  0  0  0  0  0  0  0  0  0  0
   56.9340   21.5410   43.9210 C   0  0  0  0  0  0  0  0  0  0  0  0
   56.9292   20.7447   44.6799 H   0  0  0  0  0  0  0  0  0  0  0  0
   56.0353   21.4541   43.2927 H   0  0  0  0  0  0  0  0  0  0  0  0
   57.8316   21.4433   43.2927 H   0  0  0  0  0  0  0  0  0  0  0  0
   55.7720   23.5300   44.8440 N   0  0  0  0  0  0  0  0  0  0  0  0
   54.8680   23.0730   44.5840 H   0  0  0  0  0  0  0  0  0  0  0  0
   55.7410   24.7610   45.4250 C   0  0  0  0  0  0  0  0  0  0  0  0
   54.6250   25.2990   45.6600 O   0  0  0  0  0  0  0  0  0  0  0  0
   58.0800   29.3230   45.2660 C   0  0  0  0  0  0  0  0  0  0  0  0
   58.8294   28.5705   45.5527 H   0  0  0  0  0  0  0  0  0  0  0  0
  1  2  1  0
  2  3  1  0
  3  4  1  0
  4  5  1  0
  4  6  1  0
  4  7  1  0
  7  8  1  0
  7  9  1  0
  7 10  1  0
  3 11  2  0
 11 12  1  0
 12 13  1  0
 13 14  2  0
 14 15  1  0
 15 16  1  0
 15 17  1  0
 15 18  1  0
 18 19  2  0
 19 20  1  0
 20 21  1  0
 20 22  1  0
 20 23  1  0
 19 24  1  0
 24 25  1  0
 24 26  2  0
 26 27  1  0
 27 28  1  0
 27 29  1  0
 27 30  1  0
 26 31  1  0
 31 32  1  0
 31 33  1  0
 33 34  2  0
 13 35  1  0
 35 36  1  0
 35  2  2  0
 33 18  1  0
M  CHG  1  12  -1
M  END
>  <UniqueID>  (62) 
57

>  <SMILES>  (62) 
CCc1cc/c(=N\Cc2c(C)cc(C)[nH]c2=O)[n-]n1

>  <Energy>  (62) 
38.02147474508284

>  <Genealogy>  (62) 
CCc1ccc(=NCc2c(C)cc(C)[nH]c2=O)[n-]n1 (protonated)
CCc1cc/c(=N\Cc2c(C)cc(C)[nH]c2=O)[n-]n1 (cis-trans isomerization)
CCc1cc/c(=N\Cc2c(C)cc(C)[nH]c2=O)[n-]n1 (3D coordinates assigned)
CCc1cc/c(=N\Cc2c(C)cc(C)[nH]c2=O)[n-]n1 (optimized conformer: 38.02147474508284 kcal/mol)

>  <smiles>  (62) 
CCc1ccc(=NCc2c(C)cc(C)[nH]c2=O)[nH]n1

>  <score_type>  (62) 
oracle

>  <origin>  (62) 
adg

>  <m_score__min__energy>  (62) 
-9.3499999999999996

>  <m_primary>  (62) 
energy

$$$$
62:0
     RDKit          3D

 40 41  0  0  0  0  0  0  0  0999 V2000
   59.2740   34.9340   47.1660 C   0  0  0  0  0  0  0  0  0  0  0  0
   59.3290   34.4600   45.8250 O   0  0  0  0  0  0  0  0  0  0  0  0
   58.6420   33.3290   45.3570 C   0  0  0  0  0  0  0  0  0  0  0  0
   58.4790   32.2450   46.2220 C   0  0  0  0  0  0  0  0  0  0  0  0
   57.8020   31.0960   45.8040 C   0  0  0  0  0  0  0  0  0  0  0  0
   57.2730   31.0040   44.5020 C   0  0  0  0  0  0  0  0  0  0  0  0
   56.5500   29.7640   44.0910 C   0  0  0  0  0  0  0  0  0  0  0  0
   55.6580   29.2950   44.8500 O   0  0  0  0  0  0  0  0  0  0  0  0
   56.8140   29.0350   42.7960 C   0  0  0  0  0  0  0  0  0  0  0  0
   57.7670   27.8460   42.9930 C   0  0  0  0  0  0  0  0  0  0  0  0
   57.4090   27.0430   44.1730 N   0  0  0  0  0  0  0  0  0  0  0  0
   58.3590   27.2740   45.2390 C   0  0  0  0  0  0  0  0  0  0  0  0
   59.4290   28.1640   45.0210 C   0  0  0  0  0  0  0  0  0  0  0  0
   60.3770   28.3980   46.0160 C   0  0  0  0  0  0  0  0  0  0  0  0
   60.2790   27.7460   47.2440 C   0  0  0  0  0  0  0  0  0  0  0  0
   59.2330   26.8520   47.4790 C   0  0  0  0  0  0  0  0  0  0  0  0
   58.2720   26.5930   46.4850 C   0  0  0  0  0  0  0  0  0  0  0  0
   57.1510   25.6340   46.7890 C   0  0  0  0  0  0  0  0  0  0  0  0
   57.4390   32.1020   43.6340 C   0  0  0  0  0  0  0  0  0  0  0  0
   58.1160   33.2500   44.0560 C   0  0  0  0  0  0  0  0  0  0  0  0
   59.3724   34.0855   47.8591 H   0  0  0  0  0  0  0  0  0  0  0  0
   60.0957   35.6449   47.3376 H   0  0  0  0  0  0  0  0  0  0  0  0
   58.3114   35.4379   47.3376 H   0  0  0  0  0  0  0  0  0  0  0  0
   58.8873   32.2959   47.2421 H   0  0  0  0  0  0  0  0  0  0  0  0
   57.6808   30.2532   46.5004 H   0  0  0  0  0  0  0  0  0  0  0  0
   55.8592   28.6632   42.3959 H   0  0  0  0  0  0  0  0  0  0  0  0
   57.2881   29.7404   42.0977 H   0  0  0  0  0  0  0  0  0  0  0  0
   57.7240   27.2046   42.1004 H   0  0  0  0  0  0  0  0  0  0  0  0
   58.7805   28.2446   43.1477 H   0  0  0  0  0  0  0  0  0  0  0  0
   57.3730   26.0290   43.9210 H   0  0  0  0  0  0  0  0  0  0  0  0
   56.4540   27.3140   44.5040 H   0  0  0  0  0  0  0  0  0  0  0  0
   59.5176   28.6806   44.0539 H   0  0  0  0  0  0  0  0  0  0  0  0
   61.2044   29.0990   45.8315 H   0  0  0  0  0  0  0  0  0  0  0  0
   61.0264   27.9360   48.0284 H   0  0  0  0  0  0  0  0  0  0  0  0
   59.1594   26.3445   48.4522 H   0  0  0  0  0  0  0  0  0  0  0  0
   57.0372   25.5366   47.8788 H   0  0  0  0  0  0  0  0  0  0  0  0
   56.2147   26.0150   46.3551 H   0  0  0  0  0  0  0  0  0  0  0  0
   57.3824   24.6500   46.3551 H   0  0  0  0  0  0  0  0  0  0  0  0
   57.0314   32.0551   42.6134 H   0  0  0  0  0  0  0  0  0  0  0  0
   58.2379   34.0973   43.3651 H   0  0  0  0  0  0  0  0  0  0  0  0
  1  2  1  0
  2  3  1  0
  3  4  2  0
  4  5  1  0
  5  6  2  0
  6  7  1  0
  7  8  2  0
  7  9  1  0
  9 10  1  0
 10 11  1  0
 11 12  1  0
 12 13  2  0
 13 14  1  0
 14 15  2  0
 15 16  1  0
 16 17  2  0
 17 18  1  0
  6 19  1  0
 19 20  2  0
 20  3  1  0
 17 12  1  0
  1 21  1  0
  1 22  1  0
  1 23  1  0
  4 24  1  0
  5 25  1  0
  9 26  1  0
  9 27  1  0
 10 28  1  0
 10 29  1  0
 11 30  1  0
 11 31  1  0
 13 32  1  0
 14 33  1  0
 15 34  1  0
 16 35  1  0
 18 36  1  0
 18 37  1  0
 18 38  1  0
 19 39  1  0
 20 40  1  0
M  CHG  1  11   1
M  END
>  <UniqueID>  (63) 
58

>  <SMILES>  (63) 
COc1ccc(C(=O)CC[NH2+]c2ccccc2C)cc1

>  <Energy>  (63) 
41.39314051603059

>  <Genealogy>  (63) 
COc1ccc(C(=O)CC[NH2+]c2ccccc2C)cc1 (protonated)
COc1ccc(C(=O)CC[NH2+]c2ccccc2C)cc1 (3D coordinates assigned)
COc1ccc(C(=O)CC[NH2+]c2ccccc2C)cc1 (optimized conformer: 41.39314051603059 kcal/mol)

>  <smiles>  (63) 
COc1ccc(C(=O)CCNc2ccccc2C)cc1

>  <score_type>  (63) 
oracle

>  <origin>  (63) 
adg

>  <m_score__min__energy>  (63) 
-5.0499999999999998

>  <m_primary>  (63) 
energy

$$$$
63:0
     RDKit          3D

 46 48  0  0  0  0  0  0  0  0999 V2000
   58.2640   32.3230   48.1510 C   0  0  0  0  0  0  0  0  0  0  0  0
   58.4860   33.4070   47.1300 C   0  0  0  0  0  0  0  0  0  0  0  0
   59.2680   34.5080   47.5320 C   0  0  0  0  0  0  0  0  0  0  0  0
   59.6610   35.4790   46.6150 C   0  0  0  0  0  0  0  0  0  0  0  0
   59.3050   35.3550   45.2770 C   0  0  0  0  0  0  0  0  0  0  0  0
   58.5040   34.2920   44.8650 C   0  0  0  0  0  0  0  0  0  0  0  0
   58.0010   33.3480   45.7880 C   0  0  0  0  0  0  0  0  0  0  0  0
   57.0560   32.2620   45.2560 C   0  0  0  0  0  0  0  0  0  0  0  0
   57.6630   31.1590   44.4420 N   0  0  0  0  0  0  0  0  0  0  0  0
   58.3850   31.5890   43.2350 C   0  0  0  0  0  0  0  0  0  0  0  0
   57.4020   31.4990   42.0680 C   0  0  0  0  0  0  0  0  0  0  0  0
   56.2910   30.5750   42.5530 C   0  0  0  0  0  0  0  0  0  0  0  0
   56.7670   30.1080   43.9240 C   0  0  2  0  0  0  0  0  0  0  0  0
   55.6620   29.6210   44.8820 C   0  0  0  0  0  0  0  0  0  0  0  0
   55.8630   28.2170   45.2320 N   0  0  0  0  0  0  0  0  0  0  0  0
   56.9730   27.7040   45.9800 C   0  0  0  0  0  0  0  0  0  0  0  0
   56.7930   26.7220   46.7450 O   0  0  0  0  0  0  0  0  0  0  0  0
   58.3240   28.2850   45.8640 C   0  0  0  0  0  0  0  0  0  0  0  0
   58.8180   29.0790   46.9100 C   0  0  0  0  0  0  0  0  0  0  0  0
   60.0980   29.6300   46.8330 C   0  0  0  0  0  0  0  0  0  0  0  0
   60.8910   29.4050   45.7050 C   0  0  0  0  0  0  0  0  0  0  0  0
   60.3990   28.6360   44.6470 C   0  0  0  0  0  0  0  0  0  0  0  0
   59.1170   28.0770   44.7160 C   0  0  0  0  0  0  0  0  0  0  0  0
   58.5160   27.1710   43.3310 Cl  0  0  0  0  0  0  0  0  0  0  0  0
   58.3510   32.7480   49.1618 H   0  0  0  0  0  0  0  0  0  0  0  0
   57.2595   31.8947   48.0186 H   0  0  0  0  0  0  0  0  0  0  0  0
   59.0193   31.5343   48.0186 H   0  0  0  0  0  0  0  0  0  0  0  0
   59.5722   34.6016   48.5850 H   0  0  0  0  0  0  0  0  0  0  0  0
   60.2529   36.3439   46.9491 H   0  0  0  0  0  0  0  0  0  0  0  0
   59.6556   36.0960   44.5436 H   0  0  0  0  0  0  0  0  0  0  0  0
   58.2580   34.1855   43.7982 H   0  0  0  0  0  0  0  0  0  0  0  0
   56.5632   31.7992   46.1237 H   0  0  0  0  0  0  0  0  0  0  0  0
   56.3847   32.7882   44.5614 H   0  0  0  0  0  0  0  0  0  0  0  0
   58.7358   32.6248   43.3540 H   0  0  0  0  0  0  0  0  0  0  0  0
   59.2641   30.9523   43.0567 H   0  0  0  0  0  0  0  0  0  0  0  0
   56.9987   32.4933   41.8256 H   0  0  0  0  0  0  0  0  0  0  0  0
   57.8823   31.1205   41.1536 H   0  0  0  0  0  0  0  0  0  0  0  0
   55.3386   31.1192   42.6349 H   0  0  0  0  0  0  0  0  0  0  0  0
   56.1065   29.7385   41.8629 H   0  0  0  0  0  0  0  0  0  0  0  0
   57.3306   29.1685   43.8259 H   0  0  0  0  0  0  0  0  0  0  0  0
   55.6855   30.2285   45.7987 H   0  0  0  0  0  0  0  0  0  0  0  0
   54.6886   29.7242   44.3802 H   0  0  0  0  0  0  0  0  0  0  0  0
   58.1932   29.2682   47.7954 H   0  0  0  0  0  0  0  0  0  0  0  0
   60.4830   30.2424   47.6617 H   0  0  0  0  0  0  0  0  0  0  0  0
   61.9027   29.8332   45.6497 H   0  0  0  0  0  0  0  0  0  0  0  0
   61.0217   28.4690   43.7558 H   0  0  0  0  0  0  0  0  0  0  0  0
  1  2  1  0
  2  3  2  0
  3  4  1  0
  4  5  2  0
  5  6  1  0
  6  7  2  0
  7  8  1  0
  8  9  1  0
  9 10  1  0
 10 11  1  0
 11 12  1  0
 12 13  1  0
 13 14  1  0
 14 15  1  0
 15 16  1  0
 16 17  2  0
 16 18  1  0
 18 19  2  0
 19 20  1  0
 20 21  2  0
 21 22  1  0
 22 23  2  0
 23 24  1  0
  7  2  1  0
 13  9  1  0
 23 18  1  0
  1 25  1  0
  1 26  1  0
  1 27  1  0
  3 28  1  0
  4 29  1  0
  5 30  1  0
  6 31  1  0
  8 32  1  0
  8 33  1  0
 10 34  1  0
 10 35  1  0
 11 36  1  0
 11 37  1  0
 12 38  1  0
 12 39  1  0
 13 40  1  6
 14 41  1  0
 14 42  1  0
 19 43  1  0
 20 44  1  0
 21 45  1  0
 22 46  1  0
M  CHG  1  15  -1
M  END
>  <UniqueID>  (64) 
59

>  <SMILES>  (64) 
Cc1ccccc1CN1CCC[C@@H]1C[N-]C(=O)c1ccccc1Cl

>  <Energy>  (64) 
75.89502293207941

>  <Genealogy>  (64) 
Cc1ccccc1CN1CCCC1C[N-]C(=O)c1ccccc1Cl (protonated)
Cc1ccccc1CN1CCC[C@@H]1C[N-]C(=O)c1ccccc1Cl (chirality)
Cc1ccccc1CN1CCC[C@@H]1C[N-]C(=O)c1ccccc1Cl (3D coordinates assigned)
Cc1ccccc1CN1CCC[C@@H]1C[N-]C(=O)c1ccccc1Cl (nonaromatic ring conformer: 75.89502293207941 kcal/mol)

>  <smiles>  (64) 
Cc1ccccc1CN1CCCC1CNC(=O)c1ccccc1Cl

>  <score_type>  (64) 
oracle

>  <origin>  (64) 
adg

>  <m_score__min__energy>  (64) 
-10.73

>  <m_primary>  (64) 
energy

$$$$
64:0
     RDKit          3D

 29 30  0  0  0  0  0  0  0  0999 V2000
   62.3310   33.4890   46.8980 C   0  0  0  0  0  0  0  0  0  0  0  0
   61.0320   34.2110   47.2390 C   0  0  0  0  0  0  0  0  0  0  0  0
   59.8550   33.5170   46.6090 C   0  0  0  0  0  0  0  0  0  0  0  0
   59.2970   32.3810   47.2120 C   0  0  0  0  0  0  0  0  0  0  0  0
   58.1850   31.7520   46.6430 C   0  0  0  0  0  0  0  0  0  0  0  0
   57.6110   32.2580   45.4630 C   0  0  0  0  0  0  0  0  0  0  0  0
   56.4760   31.6430   44.8400 N   0  0  0  0  0  0  0  0  0  0  0  0
   56.3940   29.9930   44.3140 S   0  0  0  0  0  0  0  0  0  0  0  0
   55.1440   29.3600   44.8570 O   0  0  0  0  0  0  0  0  0  0  0  0
   56.3560   29.9550   42.8140 O   0  0  0  0  0  0  0  0  0  0  0  0
   57.8090   29.1190   44.8720 C   0  0  0  0  0  0  0  0  0  0  0  0
   59.1190   29.3820   44.5030 C   0  0  0  0  0  0  0  0  0  0  0  0
   60.0400   28.5290   45.1230 C   0  0  0  0  0  0  0  0  0  0  0  0
   59.4540   27.6000   45.9750 C   0  0  0  0  0  0  0  0  0  0  0  0
   57.7880   27.8390   45.9590 S   0  0  0  0  0  0  0  0  0  0  0  0
   58.1610   33.4030   44.8720 C   0  0  0  0  0  0  0  0  0  0  0  0
   59.2720   34.0320   45.4410 C   0  0  0  0  0  0  0  0  0  0  0  0
   62.8461   33.2027   47.8268 H   0  0  0  0  0  0  0  0  0  0  0  0
   62.1057   32.5867   46.3106 H   0  0  0  0  0  0  0  0  0  0  0  0
   62.9783   34.1567   46.3106 H   0  0  0  0  0  0  0  0  0  0  0  0
   60.9017   34.2228   48.3312 H   0  0  0  0  0  0  0  0  0  0  0  0
   61.0862   35.2382   46.8493 H   0  0  0  0  0  0  0  0  0  0  0  0
   59.7364   31.9820   48.1381 H   0  0  0  0  0  0  0  0  0  0  0  0
   57.7576   30.8579   47.1203 H   0  0  0  0  0  0  0  0  0  0  0  0
   59.4046   30.1765   43.7979 H   0  0  0  0  0  0  0  0  0  0  0  0
   61.1250   28.5884   44.9520 H   0  0  0  0  0  0  0  0  0  0  0  0
   59.9887   26.8376   46.5606 H   0  0  0  0  0  0  0  0  0  0  0  0
   57.7149   33.8103   43.9527 H   0  0  0  0  0  0  0  0  0  0  0  0
   59.6910   34.9342   44.9714 H   0  0  0  0  0  0  0  0  0  0  0  0
  1  2  1  0
  2  3  1  0
  3  4  2  0
  4  5  1  0
  5  6  2  0
  6  7  1  0
  7  8  1  0
  8  9  2  0
  8 10  2  0
  8 11  1  0
 11 12  2  0
 12 13  1  0
 13 14  2  0
 14 15  1  0
  6 16  1  0
 16 17  2  0
 17  3  1  0
 15 11  1  0
  1 18  1  0
  1 19  1  0
  1 20  1  0
  2 21  1  0
  2 22  1  0
  4 23  1  0
  5 24  1  0
 12 25  1  0
 13 26  1  0
 14 27  1  0
 16 28  1  0
 17 29  1  0
M  CHG  1   7  -1
M  END
>  <UniqueID>  (65) 
60

>  <SMILES>  (65) 
CCc1ccc([N-]S(=O)(=O)c2cccs2)cc1

>  <Energy>  (65) 
54.79753288392577

>  <Genealogy>  (65) 
CCc1ccc([N-]S(=O)(=O)c2cccs2)cc1 (protonated)
CCc1ccc([N-]S(=O)(=O)c2cccs2)cc1 (3D coordinates assigned)
CCc1ccc([N-]S(=O)(=O)c2cccs2)cc1 (optimized conformer: 54.79753288392577 kcal/mol)

>  <smiles>  (65) 
CCc1ccc(NS(=O)(=O)c2cccs2)cc1

>  <score_type>  (65) 
oracle

>  <origin>  (65) 
adg

>  <m_score__min__energy>  (65) 
-8.4199999999999999

>  <m_primary>  (65) 
energy

$$$$
65:0
     RDKit          3D

 39 41  0  0  0  0  0  0  0  0999 V2000
   64.5820   33.4120   49.6340 C   0  0  0  0  0  0  0  0  0  0  0  0
   63.9700   32.3170   48.8610 N   0  0  0  0  0  0  0  0  0  0  0  0
   62.7540   31.7760   49.5160 C   0  0  0  0  0  0  0  0  0  0  0  0
   61.4440   32.3680   48.9590 C   0  0  0  0  0  0  0  0  0  0  0  0
   61.6880   33.7330   48.4670 N   0  0  0  0  0  0  0  0  0  0  0  0
   60.4510   34.5100   48.2420 C   0  0  0  0  0  0  0  0  0  0  0  0
   59.6870   34.0980   47.0110 C   0  0  0  0  0  0  0  0  0  0  0  0
   59.2710   34.9380   45.9870 C   0  0  0  0  0  0  0  0  0  0  0  0
   58.5650   34.2760   44.9750 C   0  0  0  0  0  0  0  0  0  0  0  0
   58.4120   32.9050   45.1990 C   0  0  0  0  0  0  0  0  0  0  0  0
   57.7150   31.9300   44.3200 C   0  0  0  0  0  0  0  0  0  0  0  0
   57.0750   30.7950   44.8570 C   0  0  0  0  0  0  0  0  0  0  0  0
   56.4220   29.8860   44.0180 C   0  0  0  0  0  0  0  0  0  0  0  0
   56.3980   30.0950   42.6390 C   0  0  0  0  0  0  0  0  0  0  0  0
   57.0260   31.2160   42.0940 C   0  0  0  0  0  0  0  0  0  0  0  0
   57.6800   32.1300   42.9260 C   0  0  0  0  0  0  0  0  0  0  0  0
   59.1630   32.5380   46.6660 S   0  0  0  0  0  0  0  0  0  0  0  0
   62.5980   33.7390   47.3030 C   0  0  0  0  0  0  0  0  0  0  0  0
   63.7340   32.7010   47.4540 C   0  0  0  0  0  0  0  0  0  0  0  0
   64.4689   33.2096   50.7093 H   0  0  0  0  0  0  0  0  0  0  0  0
   65.6510   33.4838   49.3849 H   0  0  0  0  0  0  0  0  0  0  0  0
   64.0830   34.3601   49.3849 H   0  0  0  0  0  0  0  0  0  0  0  0
   62.7343   30.6860   49.3690 H   0  0  0  0  0  0  0  0  0  0  0  0
   62.8083   32.0510   50.5797 H   0  0  0  0  0  0  0  0  0  0  0  0
   61.0815   31.7402   48.1317 H   0  0  0  0  0  0  0  0  0  0  0  0
   60.6884   32.3977   49.7578 H   0  0  0  0  0  0  0  0  0  0  0  0
   59.7961   34.3793   49.1160 H   0  0  0  0  0  0  0  0  0  0  0  0
   60.7540   35.5571   48.0942 H   0  0  0  0  0  0  0  0  0  0  0  0
   59.4760   36.0186   45.9720 H   0  0  0  0  0  0  0  0  0  0  0  0
   58.1676   34.7877   44.0860 H   0  0  0  0  0  0  0  0  0  0  0  0
   57.0891   30.6228   45.9433 H   0  0  0  0  0  0  0  0  0  0  0  0
   55.9256   29.0032   44.4472 H   0  0  0  0  0  0  0  0  0  0  0  0
   55.8848   29.3773   41.9820 H   0  0  0  0  0  0  0  0  0  0  0  0
   57.0064   31.3810   41.0066 H   0  0  0  0  0  0  0  0  0  0  0  0
   58.1709   33.0119   42.4886 H   0  0  0  0  0  0  0  0  0  0  0  0
   62.0191   33.5035   46.3978 H   0  0  0  0  0  0  0  0  0  0  0  0
   63.0552   34.7370   47.2328 H   0  0  0  0  0  0  0  0  0  0  0  0
   63.4658   31.7998   46.8832 H   0  0  0  0  0  0  0  0  0  0  0  0
   64.6583   33.1615   47.0750 H   0  0  0  0  0  0  0  0  0  0  0  0
  1  2  1  0
  2  3  1  0
  3  4  1  0
  4  5  1  0
  5  6  1  0
  6  7  1  0
  7  8  2  0
  8  9  1  0
  9 10  2  0
 10 11  1  0
 11 12  2  0
 12 13  1  0
 13 14  2  0
 14 15  1  0
 15 16  2  0
 10 17  1  0
  5 18  1  0
 18 19  1  0
 19  2  1  0
 17  7  1  0
 16 11  1  0
  1 20  1  0
  1 21  1  0
  1 22  1  0
  3 23  1  0
  3 24  1  0
  4 25  1  0
  4 26  1  0
  6 27  1  0
  6 28  1  0
  8 29  1  0
  9 30  1  0
 12 31  1  0
 13 32  1  0
 14 33  1  0
 15 34  1  0
 16 35  1  0
 18 36  1  0
 18 37  1  0
 19 38  1  0
 19 39  1  0
M  END
>  <UniqueID>  (66) 
61

>  <SMILES>  (66) 
CN1CCN(Cc2ccc(-c3ccccc3)s2)CC1

>  <Energy>  (66) 
80.88186938545044

>  <Genealogy>  (66) 
CN1CCN(Cc2ccc(-c3ccccc3)s2)CC1 (3D coordinates assigned)
CN1CCN(Cc2ccc(-c3ccccc3)s2)CC1 (nonaromatic ring conformer: 80.88186938545044 kcal/mol)

>  <smiles>  (66) 
CN1CCN(Cc2ccc(-c3ccccc3)s2)CC1

>  <score_type>  (66) 
oracle

>  <origin>  (66) 
adg

>  <m_score__min__energy>  (66) 
-7.3300000000000001

>  <m_primary>  (66) 
energy

$$$$
66:0
     RDKit          3D

 42 44  0  0  0  0  0  0  0  0999 V2000
   58.3210   22.8030   44.8390 C   0  0  0  0  0  0  0  0  0  0  0  0
   58.0780   24.0230   46.1090 S   0  0  0  0  0  0  0  0  0  0  0  0
   59.3630   24.7640   46.3520 O   0  0  0  0  0  0  0  0  0  0  0  0
   57.6660   23.3390   47.3830 O   0  0  0  0  0  0  0  0  0  0  0  0
   56.8460   25.1350   45.6070 N   0  0  0  0  0  0  0  0  0  0  0  0
   57.2070   26.4170   45.0880 C   0  0  0  0  0  0  0  0  0  0  0  0
   57.9900   26.5100   43.9100 C   0  0  0  0  0  0  0  0  0  0  0  0
   58.3500   27.7660   43.3870 C   0  0  0  0  0  0  0  0  0  0  0  0
   57.9120   28.8990   44.0670 C   0  0  0  0  0  0  0  0  0  0  0  0
   58.1290   30.1870   43.7540 N   0  0  0  0  0  0  0  0  0  0  0  0
   57.4740   30.8320   44.7560 C   0  0  0  0  0  0  0  0  0  0  0  0
   57.3860   32.3210   44.8480 C   0  0  0  0  0  0  0  0  0  0  0  0
   58.3680   32.8290   45.8650 C   0  0  0  0  0  0  0  0  0  0  0  0
   59.1320   31.9270   46.6240 C   0  0  0  0  0  0  0  0  0  0  0  0
   60.0730   32.4000   47.5440 C   0  0  0  0  0  0  0  0  0  0  0  0
   60.2650   33.7770   47.7070 C   0  0  0  0  0  0  0  0  0  0  0  0
   61.2350   34.2650   48.6530 C   0  0  0  0  0  0  0  0  0  0  0  0
   62.0160   34.6560   49.4120 N   0  0  0  0  0  0  0  0  0  0  0  0
   59.5160   34.6810   46.9430 C   0  0  0  0  0  0  0  0  0  0  0  0
   58.5740   34.2100   46.0230 C   0  0  0  0  0  0  0  0  0  0  0  0
   56.8900   30.0170   45.6180 O   0  0  0  0  0  0  0  0  0  0  0  0
   57.1590   28.8110   45.1990 C   0  0  0  0  0  0  0  0  0  0  0  0
   56.7810   27.5900   45.7480 C   0  0  0  0  0  0  0  0  0  0  0  0
   55.1740   24.6880   45.7290 S   0  0  0  0  0  0  0  0  0  0  0  0
   54.7340   23.6760   44.3360 C   0  0  0  0  0  0  0  0  0  0  0  0
   54.3120   25.9190   45.7420 O   0  0  0  0  0  0  0  0  0  0  0  0
   54.9440   23.9230   47.0020 O   0  0  0  0  0  0  0  0  0  0  0  0
   58.5158   21.8248   45.3028 H   0  0  0  0  0  0  0  0  0  0  0  0
   57.4179   22.7392   44.2142 H   0  0  0  0  0  0  0  0  0  0  0  0
   59.1796   23.0901   44.2142 H   0  0  0  0  0  0  0  0  0  0  0  0
   58.3191   25.5925   43.4002 H   0  0  0  0  0  0  0  0  0  0  0  0
   58.9562   27.8495   42.4729 H   0  0  0  0  0  0  0  0  0  0  0  0
   57.6164   32.7614   43.8667 H   0  0  0  0  0  0  0  0  0  0  0  0
   56.3683   32.6056   45.1534 H   0  0  0  0  0  0  0  0  0  0  0  0
   58.9895   30.8440   46.4941 H   0  0  0  0  0  0  0  0  0  0  0  0
   60.6633   31.6889   48.1405 H   0  0  0  0  0  0  0  0  0  0  0  0
   59.6690   35.7632   47.0669 H   0  0  0  0  0  0  0  0  0  0  0  0
   57.9921   34.9232   45.4208 H   0  0  0  0  0  0  0  0  0  0  0  0
   56.1724   27.5403   46.6630 H   0  0  0  0  0  0  0  0  0  0  0  0
   54.3191   22.7217   44.6926 H   0  0  0  0  0  0  0  0  0  0  0  0
   53.9816   24.1981   43.7266 H   0  0  0  0  0  0  0  0  0  0  0  0
   55.6289   23.4818   43.7266 H   0  0  0  0  0  0  0  0  0  0  0  0
  1  2  1  0
  2  3  2  0
  2  4  2  0
  2  5  1  0
  5  6  1  0
  6  7  2  0
  7  8  1  0
  8  9  2  0
  9 10  1  0
 10 11  2  0
 11 12  1  0
 12 13  1  0
 13 14  2  0
 14 15  1  0
 15 16  2  0
 16 17  1  0
 17 18  3  0
 16 19  1  0
 19 20  2  0
 11 21  1  0
 21 22  1  0
 22 23  2  0
  5 24  1  0
 24 25  1  0
 24 26  2  0
 24 27  2  0
 23  6  1  0
 22  9  1  0
 20 13  1  0
  1 28  1  0
  1 29  1  0
  1 30  1  0
  7 31  1  0
  8 32  1  0
 12 33  1  0
 12 34  1  0
 14 35  1  0
 15 36  1  0
 19 37  1  0
 20 38  1  0
 23 39  1  0
 25 40  1  0
 25 41  1  0
 25 42  1  0
M  END
>  <UniqueID>  (67) 
62

>  <SMILES>  (67) 
CS(=O)(=O)N(c1ccc2nc(Cc3ccc(C#N)cc3)oc2c1)S(C)(=O)=O

>  <Energy>  (67) 
78.36256052673683

>  <Genealogy>  (67) 
CS(=O)(=O)N(c1ccc2nc(Cc3ccc(C#N)cc3)oc2c1)S(C)(=O)=O (3D coordinates assigned)
CS(=O)(=O)N(c1ccc2nc(Cc3ccc(C#N)cc3)oc2c1)S(C)(=O)=O (optimized conformer: 78.36256052673683 kcal/mol)

>  <smiles>  (67) 
CS(=O)(=O)N(c1ccc2nc(Cc3ccc(C#N)cc3)oc2c1)S(C)(=O)=O

>  <score_type>  (67) 
oracle

>  <origin>  (67) 
adg

>  <m_score__min__energy>  (67) 
-8.6699999999999999

>  <m_primary>  (67) 
energy

$$$$
67:0
     RDKit          3D

 34 35  0  0  0  0  0  0  0  0999 V2000
   57.0432   30.9964   43.1149 H   0  0  0  0  0  0  0  0  0  0  0  0
   56.7830   30.8860   44.1780 C   0  0  0  0  0  0  0  0  0  0  0  0
   56.5990   31.9700   44.8790 N   0  0  0  0  0  0  0  0  0  0  0  0
   57.6050   32.8700   45.3710 C   0  0  0  0  0  0  0  0  0  0  0  0
   58.1690   33.8020   44.4940 C   0  0  0  0  0  0  0  0  0  0  0  0
   57.8637   33.8142   43.4373 H   0  0  0  0  0  0  0  0  0  0  0  0
   59.1180   34.7170   44.9540 C   0  0  0  0  0  0  0  0  0  0  0  0
   59.5723   35.4347   44.2550 H   0  0  0  0  0  0  0  0  0  0  0  0
   59.4920   34.7230   46.3010 C   0  0  0  0  0  0  0  0  0  0  0  0
   60.2484   35.4393   46.6543 H   0  0  0  0  0  0  0  0  0  0  0  0
   58.9110   33.8240   47.2040 C   0  0  0  0  0  0  0  0  0  0  0  0
   59.3180   33.8830   48.5470 O   0  0  0  0  0  0  0  0  0  0  0  0
   60.6330   34.2030   49.0030 C   0  0  0  0  0  0  0  0  0  0  0  0
   60.6741   34.0854   50.0959 H   0  0  0  0  0  0  0  0  0  0  0  0
   60.8609   35.2414   48.7204 H   0  0  0  0  0  0  0  0  0  0  0  0
   61.6680   33.2840   48.3620 C   0  0  0  0  0  0  0  0  0  0  0  0
   62.2427   32.7737   49.1490 H   0  0  0  0  0  0  0  0  0  0  0  0
   61.1575   32.5362   47.7374 H   0  0  0  0  0  0  0  0  0  0  0  0
   62.3502   33.8794   47.7374 H   0  0  0  0  0  0  0  0  0  0  0  0
   57.9550   32.9020   46.7340 C   0  0  0  0  0  0  0  0  0  0  0  0
   57.4789   32.2025   47.4369 H   0  0  0  0  0  0  0  0  0  0  0  0
   56.6630   29.5150   44.7260 C   0  0  0  0  0  0  0  0  0  0  0  0
   55.5170   29.0060   44.8710 O   0  0  0  0  0  0  0  0  0  0  0  0
   57.8600   28.7520   45.1660 C   0  0  0  0  0  0  0  0  0  0  0  0
   59.1500   29.2270   44.8620 C   0  0  0  0  0  0  0  0  0  0  0  0
   59.2676   30.1600   44.2912 H   0  0  0  0  0  0  0  0  0  0  0  0
   60.2830   28.5220   45.2800 C   0  0  0  0  0  0  0  0  0  0  0  0
   61.2864   28.8996   45.0338 H   0  0  0  0  0  0  0  0  0  0  0  0
   60.1430   27.3400   46.0090 C   0  0  0  0  0  0  0  0  0  0  0  0
   61.0355   26.7851   46.3338 H   0  0  0  0  0  0  0  0  0  0  0  0
   58.8700   26.8620   46.3260 C   0  0  0  0  0  0  0  0  0  0  0  0
   58.7613   25.9323   46.9037 H   0  0  0  0  0  0  0  0  0  0  0  0
   57.7330   27.5620   45.9110 C   0  0  0  0  0  0  0  0  0  0  0  0
   56.7332   27.1818   46.1674 H   0  0  0  0  0  0  0  0  0  0  0  0
  1  2  1  0
  2  3  2  0
  3  4  1  0
  4  5  2  0
  5  6  1  0
  5  7  1  0
  7  8  1  0
  7  9  2  0
  9 10  1  0
  9 11  1  0
 11 12  1  0
 12 13  1  0
 13 14  1  0
 13 15  1  0
 13 16  1  0
 16 17  1  0
 16 18  1  0
 16 19  1  0
 11 20  2  0
 20 21  1  0
  2 22  1  0
 22 23  2  0
 22 24  1  0
 24 25  2  0
 25 26  1  0
 25 27  1  0
 27 28  1  0
 27 29  2  0
 29 30  1  0
 29 31  1  0
 31 32  1  0
 31 33  2  0
 33 34  1  0
 20  4  1  0
 33 24  1  0
M  END
>  <UniqueID>  (68) 
63

>  <SMILES>  (68) 
CCOc1cccc(/N=C\C(=O)c2ccccc2)c1

>  <Energy>  (68) 
43.77169504098467

>  <Genealogy>  (68) 
CCOc1cccc(/N=C\C(=O)c2ccccc2)c1 (cis-trans isomerization)
CCOc1cccc(/N=C\C(=O)c2ccccc2)c1 (3D coordinates assigned)
CCOc1cccc(/N=C\C(=O)c2ccccc2)c1 (optimized conformer: 43.77169504098467 kcal/mol)

>  <smiles>  (68) 
CCOc1cccc(N=CC(=O)c2ccccc2)c1

>  <score_type>  (68) 
oracle

>  <origin>  (68) 
adg

>  <m_score__min__energy>  (68) 
-7.2599999999999998

>  <m_primary>  (68) 
energy

$$$$
68:0
     RDKit          3D

 39 42  0  0  1  0  0  0  0  0999 V2000
   64.5020   33.0950   47.7220 N   0  0  0  0  0  0  0  0  0  0  0  0
   63.2590   33.4650   48.3100 C   0  0  0  0  0  0  0  0  0  0  0  0
   63.1250   33.8430   49.6220 C   0  0  0  0  0  0  0  0  0  0  0  0
   61.8660   34.1870   50.1040 C   0  0  0  0  0  0  0  0  0  0  0  0
   60.7750   34.1430   49.2600 C   0  0  0  0  0  0  0  0  0  0  0  0
   60.8800   33.7640   47.9260 C   0  0  0  0  0  0  0  0  0  0  0  0
   59.7720   33.7160   47.0550 N   0  0  0  0  0  0  0  0  0  0  0  0
   59.4550   34.7490   46.0520 C   0  0  0  0  0  0  0  0  0  0  0  0
   58.1660   34.2110   45.4130 C   0  0  2  0  0  0  0  0  0  0  0  0
   57.5520   33.6070   46.6650 C   0  0  0  0  0  0  0  0  0  0  0  0
   58.7650   32.7080   46.9570 C   0  0  1  0  0  0  0  0  0  0  0  0
   58.8680   32.0390   45.6090 C   0  0  0  0  0  0  0  0  0  0  0  0
   58.5490   33.0810   44.6660 N   0  0  0  0  0  0  0  0  0  0  0  0
   57.7810   32.6830   43.5550 C   0  0  0  0  0  0  0  0  0  0  0  0
   57.0590   31.3940   43.6750 C   0  0  0  0  0  0  0  0  0  0  0  0
   56.9800   30.4970   42.6090 C   0  0  0  0  0  0  0  0  0  0  0  0
   56.2460   29.4120   43.0510 C   0  0  0  0  0  0  0  0  0  0  0  0
   55.9170   29.7030   44.3600 C   0  0  0  0  0  0  0  0  0  0  0  0
   56.4130   30.8830   44.7000 O   0  0  0  0  0  0  0  0  0  0  0  0
   62.1500   33.4320   47.4940 C   0  0  0  0  0  0  0  0  0  0  0  0
   64.5230   32.5190   46.8440 H   0  0  0  0  0  0  0  0  0  0  0  0
   65.4230   33.3810   48.1390 H   0  0  0  0  0  0  0  0  0  0  0  0
   64.0023   33.8737   50.2848 H   0  0  0  0  0  0  0  0  0  0  0  0
   61.7408   34.4927   51.1532 H   0  0  0  0  0  0  0  0  0  0  0  0
   59.7865   34.4177   49.6568 H   0  0  0  0  0  0  0  0  0  0  0  0
   59.2844   35.7258   46.5282 H   0  0  0  0  0  0  0  0  0  0  0  0
   60.2650   34.9184   45.3273 H   0  0  0  0  0  0  0  0  0  0  0  0
   57.5738   34.9227   44.8191 H   0  0  0  0  0  0  0  0  0  0  0  0
   57.3622   34.3483   47.4552 H   0  0  0  0  0  0  0  0  0  0  0  0
   56.5620   33.1346   46.5831 H   0  0  0  0  0  0  0  0  0  0  0  0
   58.7778   32.0033   47.8015 H   0  0  0  0  0  0  0  0  0  0  0  0
   59.8864   31.6594   45.4397 H   0  0  0  0  0  0  0  0  0  0  0  0
   58.1967   31.1723   45.5189 H   0  0  0  0  0  0  0  0  0  0  0  0
   57.0336   33.4680   43.3674 H   0  0  0  0  0  0  0  0  0  0  0  0
   58.5047   32.5354   42.7399 H   0  0  0  0  0  0  0  0  0  0  0  0
   57.4179   30.6281   41.6085 H   0  0  0  0  0  0  0  0  0  0  0  0
   55.9806   28.5093   42.4812 H   0  0  0  0  0  0  0  0  0  0  0  0
   55.3294   29.0508   45.0229 H   0  0  0  0  0  0  0  0  0  0  0  0
   62.2818   33.1260   46.4457 H   0  0  0  0  0  0  0  0  0  0  0  0
  1  2  1  0
  2  3  2  0
  3  4  1  0
  4  5  2  0
  5  6  1  0
  6  7  1  0
  7  8  1  0
  8  9  1  0
  9 10  1  0
 10 11  1  0
 11 12  1  0
 12 13  1  0
 13 14  1  0
 14 15  1  0
 15 16  2  0
 16 17  1  0
 17 18  2  0
 18 19  1  0
  6 20  2  0
 20  2  1  0
 11  7  1  0
 19 15  1  0
 13  9  1  0
  1 21  1  0
  1 22  1  0
  3 23  1  0
  4 24  1  0
  5 25  1  0
  8 26  1  0
  8 27  1  0
  9 28  1  6
 10 29  1  0
 10 30  1  0
 11 31  1  1
 12 32  1  0
 12 33  1  0
 14 34  1  0
 14 35  1  0
 16 36  1  0
 17 37  1  0
 18 38  1  0
 20 39  1  0
M  END
>  <smiles>  (69) 
Nc1cccc(N2CC3CC2CN3Cc2ccco2)c1

>  <score_type>  (69) 
oracle

>  <origin>  (69) 
adg

>  <m_score__min__energy>  (69) 
-7.7199999999999998

>  <m_primary>  (69) 
energy

$$$$
69:0
     RDKit          3D

 36 36  0  0  0  0  0  0  0  0999 V2000
   57.7180   33.5860   44.9150 C   0  0  0  0  0  0  0  0  0  0  0  0
   57.7950   33.1480   46.3770 C   0  0  0  0  0  0  0  0  0  0  0  0
   59.1720   33.4120   47.0100 C   0  0  0  0  0  0  0  0  0  0  0  0
   59.9210   32.1460   47.4540 C   0  0  0  0  0  0  0  0  0  0  0  0
   60.0640   31.2040   46.3340 N   0  0  0  0  0  0  0  0  0  0  0  0
   60.6620   29.9320   46.7660 C   0  0  0  0  0  0  0  0  0  0  0  0
   60.4180   28.8230   45.7350 C   0  0  0  0  0  0  0  0  0  0  0  0
   59.0150   28.2800   45.8290 C   0  0  0  0  0  0  0  0  0  0  0  0
   58.7830   27.0100   46.3760 C   0  0  0  0  0  0  0  0  0  0  0  0
   57.4870   26.4930   46.4300 C   0  0  0  0  0  0  0  0  0  0  0  0
   56.4130   27.2350   45.9310 C   0  0  0  0  0  0  0  0  0  0  0  0
   55.1280   26.7080   45.9930 O   0  0  0  0  0  0  0  0  0  0  0  0
   56.6260   28.5030   45.3720 C   0  0  0  0  0  0  0  0  0  0  0  0
   55.5190   29.2110   44.8780 O   0  0  0  0  0  0  0  0  0  0  0  0
   55.5400   30.0240   43.7090 C   0  0  0  0  0  0  0  0  0  0  0  0
   57.9360   29.0210   45.3190 C   0  0  0  0  0  0  0  0  0  0  0  0
   57.5277   34.6683   44.8660 H   0  0  0  0  0  0  0  0  0  0  0  0
   58.6700   33.3580   44.4133 H   0  0  0  0  0  0  0  0  0  0  0  0
   56.9008   33.0470   44.4133 H   0  0  0  0  0  0  0  0  0  0  0  0
   57.0343   33.6995   46.9490 H   0  0  0  0  0  0  0  0  0  0  0  0
   57.6216   32.0621   46.4055 H   0  0  0  0  0  0  0  0  0  0  0  0
   59.7945   33.9387   46.2717 H   0  0  0  0  0  0  0  0  0  0  0  0
   58.9907   34.0040   47.9192 H   0  0  0  0  0  0  0  0  0  0  0  0
   60.9200   32.4272   47.8185 H   0  0  0  0  0  0  0  0  0  0  0  0
   59.3449   31.6578   48.2539 H   0  0  0  0  0  0  0  0  0  0  0  0
   59.1030   30.9900   45.9770 H   0  0  0  0  0  0  0  0  0  0  0  0
   61.7458   30.0706   46.8935 H   0  0  0  0  0  0  0  0  0  0  0  0
   60.1936   29.6328   47.7152 H   0  0  0  0  0  0  0  0  0  0  0  0
   60.5761   29.2318   44.7261 H   0  0  0  0  0  0  0  0  0  0  0  0
   61.1203   28.0014   45.9392 H   0  0  0  0  0  0  0  0  0  0  0  0
   59.6253   26.4185   46.7642 H   0  0  0  0  0  0  0  0  0  0  0  0
   57.3109   25.4988   46.8666 H   0  0  0  0  0  0  0  0  0  0  0  0
   55.5674   31.0844   44.0003 H   0  0  0  0  0  0  0  0  0  0  0  0
   56.4323   29.7846   43.1119 H   0  0  0  0  0  0  0  0  0  0  0  0
   54.6366   29.8310   43.1119 H   0  0  0  0  0  0  0  0  0  0  0  0
   58.1144   30.0117   44.8755 H   0  0  0  0  0  0  0  0  0  0  0  0
  1  2  1  0
  2  3  1  0
  3  4  1  0
  4  5  1  0
  5  6  1  0
  6  7  1  0
  7  8  1  0
  8  9  2  0
  9 10  1  0
 10 11  2  0
 11 12  1  0
 11 13  1  0
 13 14  1  0
 14 15  1  0
 13 16  2  0
 16  8  1  0
  1 17  1  0
  1 18  1  0
  1 19  1  0
  2 20  1  0
  2 21  1  0
  3 22  1  0
  3 23  1  0
  4 24  1  0
  4 25  1  0
  5 26  1  0
  6 27  1  0
  6 28  1  0
  7 29  1  0
  7 30  1  0
  9 31  1  0
 10 32  1  0
 15 33  1  0
 15 34  1  0
 15 35  1  0
 16 36  1  0
M  CHG  1  12  -1
M  END
>  <UniqueID>  (70) 
64

>  <SMILES>  (70) 
CCCCNCCc1ccc([O-])c(OC)c1

>  <Energy>  (70) 
24.76337704977118

>  <Genealogy>  (70) 
CCCCNCCc1ccc([O-])c(OC)c1 (protonated)
CCCCNCCc1ccc([O-])c(OC)c1 (3D coordinates assigned)
CCCCNCCc1ccc([O-])c(OC)c1 (optimized conformer: 24.76337704977118 kcal/mol)

>  <smiles>  (70) 
CCCCNCCc1ccc(O)c(OC)c1

>  <score_type>  (70) 
oracle

>  <origin>  (70) 
adg

>  <m_score__min__energy>  (70) 
-9.6699999999999999

>  <m_primary>  (70) 
energy

$$$$
70:0
     RDKit          3D

 39 40  0  0  0  0  0  0  0  0999 V2000
   62.7630   32.4410   47.4660 C   0  0  0  0  0  0  0  0  0  0  0  0
   61.5570   31.9910   48.0760 O   0  0  0  0  0  0  0  0  0  0  0  0
   60.6940   31.0380   47.5160 C   0  0  0  0  0  0  0  0  0  0  0  0
   61.1430   30.2970   46.4170 C   0  0  0  0  0  0  0  0  0  0  0  0
   60.3220   29.3340   45.8260 C   0  0  0  0  0  0  0  0  0  0  0  0
   59.0380   29.0850   46.3410 C   0  0  0  0  0  0  0  0  0  0  0  0
   58.1590   28.1230   45.7390 N   0  0  0  0  0  0  0  0  0  0  0  0
   56.8100   28.3600   45.3160 C   0  0  0  0  0  0  0  0  0  0  0  0
   55.9260   27.5140   45.6140 O   0  0  0  0  0  0  0  0  0  0  0  0
   56.4490   29.5250   44.4820 C   0  0  0  0  0  0  0  0  0  0  0  0
   55.3140   30.0590   44.6110 O   0  0  0  0  0  0  0  0  0  0  0  0
   57.3900   30.0650   43.5440 N   0  0  0  0  0  0  0  0  0  0  0  0
   57.0530   31.2190   42.7070 C   0  0  0  0  0  0  0  0  0  0  0  0
   58.1340   32.3050   42.7770 C   0  0  0  0  0  0  0  0  0  0  0  0
   58.2060   32.9300   44.1480 C   0  0  0  0  0  0  0  0  0  0  0  0
   59.2270   33.8460   44.4520 C   0  0  0  0  0  0  0  0  0  0  0  0
   59.3100   34.4100   45.7290 C   0  0  0  0  0  0  0  0  0  0  0  0
   58.3790   34.0630   46.7100 C   0  0  0  0  0  0  0  0  0  0  0  0
   57.3610   33.1510   46.4170 C   0  0  0  0  0  0  0  0  0  0  0  0
   57.2740   32.5840   45.1410 C   0  0  0  0  0  0  0  0  0  0  0  0
   58.5770   29.8400   47.4250 C   0  0  0  0  0  0  0  0  0  0  0  0
   59.3990   30.8050   48.0170 C   0  0  0  0  0  0  0  0  0  0  0  0
   63.4895   32.7121   48.2462 H   0  0  0  0  0  0  0  0  0  0  0  0
   63.1794   31.6377   46.8404 H   0  0  0  0  0  0  0  0  0  0  0  0
   62.5514   33.3207   46.8404 H   0  0  0  0  0  0  0  0  0  0  0  0
   62.1514   30.4746   46.0151 H   0  0  0  0  0  0  0  0  0  0  0  0
   60.6816   28.7681   44.9540 H   0  0  0  0  0  0  0  0  0  0  0  0
   58.3290   29.6150   43.4540 H   0  0  0  0  0  0  0  0  0  0  0  0
   56.9501   30.8851   41.6640 H   0  0  0  0  0  0  0  0  0  0  0  0
   56.1107   31.6484   43.0780 H   0  0  0  0  0  0  0  0  0  0  0  0
   59.1087   31.8542   42.5386 H   0  0  0  0  0  0  0  0  0  0  0  0
   57.8775   33.0926   42.0531 H   0  0  0  0  0  0  0  0  0  0  0  0
   59.9638   34.1206   43.6827 H   0  0  0  0  0  0  0  0  0  0  0  0
   60.1102   35.1283   45.9610 H   0  0  0  0  0  0  0  0  0  0  0  0
   58.4467   34.5075   47.7139 H   0  0  0  0  0  0  0  0  0  0  0  0
   56.6276   32.8789   47.1904 H   0  0  0  0  0  0  0  0  0  0  0  0
   56.4732   31.8648   44.9143 H   0  0  0  0  0  0  0  0  0  0  0  0
   57.5617   29.6738   47.8143 H   0  0  0  0  0  0  0  0  0  0  0  0
   59.0321   31.3840   48.8773 H   0  0  0  0  0  0  0  0  0  0  0  0
  1  2  1  0
  2  3  1  0
  3  4  2  0
  4  5  1  0
  5  6  2  0
  6  7  1  0
  7  8  1  0
  8  9  2  0
  8 10  1  0
 10 11  2  0
 10 12  1  0
 12 13  1  0
 13 14  1  0
 14 15  1  0
 15 16  2  0
 16 17  1  0
 17 18  2  0
 18 19  1  0
 19 20  2  0
  6 21  1  0
 21 22  2  0
 22  3  1  0
 20 15  1  0
  1 23  1  0
  1 24  1  0
  1 25  1  0
  4 26  1  0
  5 27  1  0
 12 28  1  0
 13 29  1  0
 13 30  1  0
 14 31  1  0
 14 32  1  0
 16 33  1  0
 17 34  1  0
 18 35  1  0
 19 36  1  0
 20 37  1  0
 21 38  1  0
 22 39  1  0
M  CHG  1   7  -1
M  END
>  <UniqueID>  (71) 
65

>  <SMILES>  (71) 
COc1ccc([N-]C(=O)C(=O)NCCc2ccccc2)cc1

>  <Energy>  (71) 
39.06666049831741

>  <Genealogy>  (71) 
COc1ccc([N-]C(=O)C(=O)NCCc2ccccc2)cc1 (protonated)
COc1ccc([N-]C(=O)C(=O)NCCc2ccccc2)cc1 (3D coordinates assigned)
COc1ccc([N-]C(=O)C(=O)NCCc2ccccc2)cc1 (optimized conformer: 39.06666049831741 kcal/mol)

>  <smiles>  (71) 
COc1ccc(NC(=O)C(=O)NCCc2ccccc2)cc1

>  <score_type>  (71) 
oracle

>  <origin>  (71) 
adg

>  <m_score__min__energy>  (71) 
-9.4199999999999999

>  <m_primary>  (71) 
energy

$$$$
71:0
     RDKit          3D

 44 45  0  0  0  0  0  0  0  0999 V2000
   56.6060   23.9890   43.0090 C   0  0  0  0  0  0  0  0  0  0  0  0
   57.1060   24.3550   44.4260 C   0  0  0  0  0  0  0  0  0  0  0  0
   58.0470   23.2180   44.8840 C   0  0  0  0  0  0  0  0  0  0  0  0
   55.8750   24.4520   45.3890 C   0  0  0  0  0  0  0  0  0  0  0  0
   55.9060   25.6410   46.3680 C   0  0  2  0  0  0  0  0  0  0  0  0
   55.3170   26.7650   45.7670 O   0  0  0  0  0  0  0  0  0  0  0  0
   57.3370   25.9560   46.8380 C   0  0  0  0  0  0  0  0  0  0  0  0
   58.3040   26.3770   45.6830 C   0  0  2  0  0  0  0  0  0  0  0  0
   59.7490   25.9350   46.0290 C   0  0  0  0  0  0  0  0  0  0  0  0
   58.2900   27.9360   45.4780 C   0  0  0  0  0  0  0  0  0  0  0  0
   57.0120   28.4770   44.9720 N   0  0  0  0  0  0  0  0  0  0  0  0
   57.2430   29.7340   44.3040 C   0  0  0  0  0  0  0  0  0  0  0  0
   58.0260   30.7320   44.9120 C   0  0  0  0  0  0  0  0  0  0  0  0
   58.2830   31.9320   44.2420 C   0  0  0  0  0  0  0  0  0  0  0  0
   57.7690   32.1460   42.9600 C   0  0  0  0  0  0  0  0  0  0  0  0
   57.0000   31.1560   42.3430 C   0  0  0  0  0  0  0  0  0  0  0  0
   56.7390   29.9530   43.0070 C   0  0  0  0  0  0  0  0  0  0  0  0
   57.8670   25.7150   44.3280 C   0  0  0  0  0  0  0  0  0  0  0  0
   55.7207   23.3410   43.0886 H   0  0  0  0  0  0  0  0  0  0  0  0
   56.3403   24.9076   42.4653 H   0  0  0  0  0  0  0  0  0  0  0  0
   57.4013   23.4581   42.4653 H   0  0  0  0  0  0  0  0  0  0  0  0
   58.0743   23.1850   45.9832 H   0  0  0  0  0  0  0  0  0  0  0  0
   57.6764   22.2572   44.4974 H   0  0  0  0  0  0  0  0  0  0  0  0
   59.0602   23.4025   44.4974 H   0  0  0  0  0  0  0  0  0  0  0  0
   54.9670   24.5398   44.7743 H   0  0  0  0  0  0  0  0  0  0  0  0
   55.8971   23.5433   46.0084 H   0  0  0  0  0  0  0  0  0  0  0  0
   55.3276   25.3657   47.2622 H   0  0  0  0  0  0  0  0  0  0  0  0
   54.3450   26.7190   45.9620 H   0  0  0  0  0  0  0  0  0  0  0  0
   57.2892   26.7783   47.5670 H   0  0  0  0  0  0  0  0  0  0  0  0
   57.7419   25.0302   47.2726 H   0  0  0  0  0  0  0  0  0  0  0  0
   59.8694   25.8982   47.1218 H   0  0  0  0  0  0  0  0  0  0  0  0
   59.9388   24.9377   45.6054 H   0  0  0  0  0  0  0  0  0  0  0  0
   60.4642   26.6555   45.6054 H   0  0  0  0  0  0  0  0  0  0  0  0
   58.5048   28.4116   46.4464 H   0  0  0  0  0  0  0  0  0  0  0  0
   59.0479   28.1571   44.7120 H   0  0  0  0  0  0  0  0  0  0  0  0
   56.5520   27.8160   44.3090 H   0  0  0  0  0  0  0  0  0  0  0  0
   56.3520   28.6400   45.7690 H   0  0  0  0  0  0  0  0  0  0  0  0
   58.4378   30.5677   45.9187 H   0  0  0  0  0  0  0  0  0  0  0  0
   58.8918   32.7103   44.7255 H   0  0  0  0  0  0  0  0  0  0  0  0
   57.9697   33.0929   42.4373 H   0  0  0  0  0  0  0  0  0  0  0  0
   56.5988   31.3231   41.3325 H   0  0  0  0  0  0  0  0  0  0  0  0
   56.1377   29.1747   42.5144 H   0  0  0  0  0  0  0  0  0  0  0  0
   57.2114   26.4270   43.8052 H   0  0  0  0  0  0  0  0  0  0  0  0
   58.8055   25.4842   43.8028 H   0  0  0  0  0  0  0  0  0  0  0  0
  1  2  1  0
  2  3  1  0
  2  4  1  0
  4  5  1  0
  5  6  1  0
  5  7  1  0
  7  8  1  0
  8  9  1  1
  8 10  1  0
 10 11  1  0
 11 12  1  0
 12 13  2  0
 13 14  1  0
 14 15  2  0
 15 16  1  0
 16 17  2  0
  8 18  1  0
 18  2  1  0
 17 12  1  0
  1 19  1  0
  1 20  1  0
  1 21  1  0
  3 22  1  0
  3 23  1  0
  3 24  1  0
  4 25  1  0
  4 26  1  0
  5 27  1  1
  6 28  1  0
  7 29  1  0
  7 30  1  0
  9 31  1  0
  9 32  1  0
  9 33  1  0
 10 34  1  0
 10 35  1  0
 11 36  1  0
 11 37  1  0
 13 38  1  0
 14 39  1  0
 15 40  1  0
 16 41  1  0
 17 42  1  0
 18 43  1  0
 18 44  1  0
M  CHG  1  11   1
M  END
>  <UniqueID>  (72) 
66

>  <SMILES>  (72) 
CC1(C)C[C@H](O)C[C@](C)(C[NH2+]c2ccccc2)C1

>  <Energy>  (72) 
54.13787607756283

>  <Genealogy>  (72) 
CC1(C)CC(O)CC(C)(C[NH2+]c2ccccc2)C1 (protonated)
CC1(C)C[C@H](O)C[C@](C)(C[NH2+]c2ccccc2)C1 (chirality)
CC1(C)C[C@H](O)C[C@](C)(C[NH2+]c2ccccc2)C1 (3D coordinates assigned)
CC1(C)C[C@H](O)C[C@](C)(C[NH2+]c2ccccc2)C1 (nonaromatic ring conformer: 54.13787607756283 kcal/mol)

>  <smiles>  (72) 
CC1(C)CC(O)CC(C)(CNc2ccccc2)C1

>  <score_type>  (72) 
oracle

>  <origin>  (72) 
adg

>  <m_score__min__energy>  (72) 
-6

>  <m_primary>  (72) 
energy

$$$$
72:0
     RDKit          3D

 35 37  0  0  0  0  0  0  0  0999 V2000
   54.3860   25.1090   45.6220 C   0  0  0  0  0  0  0  0  0  0  0  0
   55.0320   26.3280   45.9760 O   0  0  0  0  0  0  0  0  0  0  0  0
   56.4220   26.4830   46.1010 C   0  0  0  0  0  0  0  0  0  0  0  0
   57.2380   25.4920   46.6690 C   0  0  0  0  0  0  0  0  0  0  0  0
   58.6100   25.6970   46.7680 C   0  0  0  0  0  0  0  0  0  0  0  0
   59.1640   26.8860   46.2990 C   0  0  0  0  0  0  0  0  0  0  0  0
   58.3740   27.8580   45.7450 N   0  0  0  0  0  0  0  0  0  0  0  0
   59.0070   29.0890   45.2380 C   0  0  0  0  0  0  0  0  0  0  0  0
   58.8120   30.2330   46.2180 C   0  0  0  0  0  0  0  0  0  0  0  0
   59.0590   29.9520   47.5740 C   0  0  0  0  0  0  0  0  0  0  0  0
   58.9400   30.9380   48.5500 C   0  0  0  0  0  0  0  0  0  0  0  0
   58.5710   32.2310   48.1970 C   0  0  0  0  0  0  0  0  0  0  0  0
   58.3110   32.5530   46.8590 C   0  0  0  0  0  0  0  0  0  0  0  0
   57.9360   33.8640   46.5240 C   0  0  0  0  0  0  0  0  0  0  0  0
   57.6680   34.2040   45.2010 C   0  0  0  0  0  0  0  0  0  0  0  0
   57.7680   33.2410   44.1990 C   0  0  0  0  0  0  0  0  0  0  0  0
   58.1400   31.9310   44.5120 C   0  0  0  0  0  0  0  0  0  0  0  0
   58.4250   31.5560   45.8460 C   0  0  0  0  0  0  0  0  0  0  0  0
   57.0170   27.6680   45.6410 C   0  0  0  0  0  0  0  0  0  0  0  0
   56.2840   28.5590   45.1310 O   0  0  0  0  0  0  0  0  0  0  0  0
   54.0990   24.5674   46.5354 H   0  0  0  0  0  0  0  0  0  0  0  0
   53.4864   25.3296   45.0286 H   0  0  0  0  0  0  0  0  0  0  0  0
   55.0736   24.4885   45.0286 H   0  0  0  0  0  0  0  0  0  0  0  0
   56.7931   24.5550   47.0351 H   0  0  0  0  0  0  0  0  0  0  0  0
   59.2540   24.9248   47.2141 H   0  0  0  0  0  0  0  0  0  0  0  0
   60.2496   27.0462   46.3746 H   0  0  0  0  0  0  0  0  0  0  0  0
   60.0837   28.9112   45.0994 H   0  0  0  0  0  0  0  0  0  0  0  0
   58.5396   29.3594   44.2797 H   0  0  0  0  0  0  0  0  0  0  0  0
   59.3518   28.9336   47.8691 H   0  0  0  0  0  0  0  0  0  0  0  0
   59.1386   30.6930   49.6038 H   0  0  0  0  0  0  0  0  0  0  0  0
   58.4827   33.0056   48.9730 H   0  0  0  0  0  0  0  0  0  0  0  0
   57.8535   34.6271   47.3119 H   0  0  0  0  0  0  0  0  0  0  0  0
   57.3770   35.2338   44.9464 H   0  0  0  0  0  0  0  0  0  0  0  0
   57.5528   33.5136   43.1553 H   0  0  0  0  0  0  0  0  0  0  0  0
   58.2122   31.1812   43.7104 H   0  0  0  0  0  0  0  0  0  0  0  0
  1  2  1  0
  2  3  1  0
  3  4  2  0
  4  5  1  0
  5  6  2  0
  6  7  1  0
  7  8  1  0
  8  9  1  0
  9 10  2  0
 10 11  1  0
 11 12  2  0
 12 13  1  0
 13 14  2  0
 14 15  1  0
 15 16  2  0
 16 17  1  0
 17 18  2  0
  7 19  1  0
 19 20  2  0
 19  3  1  0
 18  9  1  0
 18 13  1  0
  1 21  1  0
  1 22  1  0
  1 23  1  0
  4 24  1  0
  5 25  1  0
  6 26  1  0
  8 27  1  0
  8 28  1  0
 10 29  1  0
 11 30  1  0
 12 31  1  0
 14 32  1  0
 15 33  1  0
 16 34  1  0
 17 35  1  0
M  END
>  <UniqueID>  (73) 
67

>  <SMILES>  (73) 
COc1cccn(Cc2cccc3ccccc23)c1=O

>  <Energy>  (73) 
47.078852088086606

>  <Genealogy>  (73) 
COc1cccn(Cc2cccc3ccccc23)c1=O (3D coordinates assigned)
COc1cccn(Cc2cccc3ccccc23)c1=O (optimized conformer: 47.078852088086606 kcal/mol)

>  <smiles>  (73) 
COc1cccn(Cc2cccc3ccccc23)c1=O

>  <score_type>  (73) 
oracle

>  <origin>  (73) 
adg

>  <m_score__min__energy>  (73) 
-7.4400000000000004

>  <m_primary>  (73) 
energy

$$$$
73:0
     RDKit          3D

 46 48  0  0  0  0  0  0  0  0999 V2000
   56.6190   30.2220   42.6320 C   0  0  0  0  0  0  0  0  0  0  0  0
   55.5120   29.7170   43.5430 C   0  0  0  0  0  0  0  0  0  0  0  0
   55.9760   29.6980   44.8890 O   0  0  0  0  0  0  0  0  0  0  0  0
   57.2750   30.0850   45.2260 C   0  0  0  0  0  0  0  0  0  0  0  0
   58.2790   29.1360   45.4780 C   0  0  0  0  0  0  0  0  0  0  0  0
   57.9960   27.7260   45.4910 N   0  0  0  0  0  0  0  0  0  0  0  0
   57.6260   27.0550   46.7440 C   0  0  0  0  0  0  0  0  0  0  0  0
   58.2670   25.6530   46.8450 C   0  0  0  0  0  0  0  0  0  0  0  0
   58.5880   25.0420   45.5400 N   0  0  0  0  0  0  0  0  0  0  0  0
   57.6990   25.5030   44.4710 C   0  0  0  0  0  0  0  0  0  0  0  0
   57.9510   26.9880   44.2210 C   0  0  0  0  0  0  0  0  0  0  0  0
   59.5660   29.5920   45.7670 C   0  0  0  0  0  0  0  0  0  0  0  0
   59.8220   30.9250   45.8170 N   0  0  0  0  0  0  0  0  0  0  0  0
   58.8640   31.8390   45.6120 N   0  0  0  0  0  0  0  0  0  0  0  0
   59.2200   33.2670   45.6600 C   0  0  0  0  0  0  0  0  0  0  0  0
   60.0440   33.5530   46.8850 C   0  0  0  0  0  0  0  0  0  0  0  0
   61.4470   33.4800   46.8340 C   0  0  0  0  0  0  0  0  0  0  0  0
   62.2070   33.7130   47.9840 C   0  0  0  0  0  0  0  0  0  0  0  0
   61.5740   34.0140   49.1940 C   0  0  0  0  0  0  0  0  0  0  0  0
   60.1800   34.0810   49.2540 C   0  0  0  0  0  0  0  0  0  0  0  0
   59.4160   33.8480   48.1070 C   0  0  0  0  0  0  0  0  0  0  0  0
   57.5850   31.4450   45.3110 C   0  0  0  0  0  0  0  0  0  0  0  0
   56.6810   32.3000   45.0970 O   0  0  0  0  0  0  0  0  0  0  0  0
   57.4515   30.6018   43.2424 H   0  0  0  0  0  0  0  0  0  0  0  0
   56.9761   29.3977   41.9971 H   0  0  0  0  0  0  0  0  0  0  0  0
   56.2305   31.0320   41.9971 H   0  0  0  0  0  0  0  0  0  0  0  0
   54.6405   30.3836   43.4651 H   0  0  0  0  0  0  0  0  0  0  0  0
   55.2239   28.6995   43.2403 H   0  0  0  0  0  0  0  0  0  0  0  0
   57.9683   27.6666   47.5918 H   0  0  0  0  0  0  0  0  0  0  0  0
   56.5325   26.9372   46.7630 H   0  0  0  0  0  0  0  0  0  0  0  0
   59.1981   25.7397   47.4243 H   0  0  0  0  0  0  0  0  0  0  0  0
   57.5258   24.9992   47.3278 H   0  0  0  0  0  0  0  0  0  0  0  0
   58.4860   24.0040   45.6260 H   0  0  0  0  0  0  0  0  0  0  0  0
   57.9022   24.9345   43.5515 H   0  0  0  0  0  0  0  0  0  0  0  0
   56.6508   25.3485   44.7667 H   0  0  0  0  0  0  0  0  0  0  0  0
   58.9114   27.1087   43.6985 H   0  0  0  0  0  0  0  0  0  0  0  0
   57.1308   27.3884   43.6070 H   0  0  0  0  0  0  0  0  0  0  0  0
   60.3747   28.8704   45.9547 H   0  0  0  0  0  0  0  0  0  0  0  0
   60.7990   31.2260   46.0360 H   0  0  0  0  0  0  0  0  0  0  0  0
   59.7999   33.5278   44.7624 H   0  0  0  0  0  0  0  0  0  0  0  0
   58.2987   33.8668   45.6976 H   0  0  0  0  0  0  0  0  0  0  0  0
   61.9488   33.2386   45.8854 H   0  0  0  0  0  0  0  0  0  0  0  0
   63.3047   33.6595   47.9370 H   0  0  0  0  0  0  0  0  0  0  0  0
   62.1733   34.1979   50.0979 H   0  0  0  0  0  0  0  0  0  0  0  0
   59.6824   34.3177   50.2061 H   0  0  0  0  0  0  0  0  0  0  0  0
   58.3184   33.8958   48.1611 H   0  0  0  0  0  0  0  0  0  0  0  0
  1  2  1  0
  2  3  1  0
  3  4  1  0
  4  5  2  0
  5  6  1  0
  6  7  1  0
  7  8  1  0
  8  9  1  0
  9 10  1  0
 10 11  1  0
  5 12  1  0
 12 13  2  0
 13 14  1  0
 14 15  1  0
 15 16  1  0
 16 17  2  0
 17 18  1  0
 18 19  2  0
 19 20  1  0
 20 21  2  0
 14 22  1  0
 22 23  2  0
 22  4  1  0
 11  6  1  0
 21 16  1  0
  1 24  1  0
  1 25  1  0
  1 26  1  0
  2 27  1  0
  2 28  1  0
  7 29  1  0
  7 30  1  0
  8 31  1  0
  8 32  1  0
  9 33  1  0
 10 34  1  0
 10 35  1  0
 11 36  1  0
 11 37  1  0
 12 38  1  0
 13 39  1  0
 15 40  1  0
 15 41  1  0
 17 42  1  0
 18 43  1  0
 19 44  1  0
 20 45  1  0
 21 46  1  0
M  CHG  1  13   1
M  END
>  <UniqueID>  (74) 
68

>  <SMILES>  (74) 
CCOc1c(N2CCNCC2)c[nH+]n(Cc2ccccc2)c1=O

>  <Energy>  (74) 
58.2968003140475

>  <Genealogy>  (74) 
CCOc1c(N2CCNCC2)c[nH+]n(Cc2ccccc2)c1=O (protonated)
CCOc1c(N2CCNCC2)c[nH+]n(Cc2ccccc2)c1=O (3D coordinates assigned)
CCOc1c(N2CCNCC2)c[nH+]n(Cc2ccccc2)c1=O (nonaromatic ring conformer: 58.2968003140475 kcal/mol)

>  <smiles>  (74) 
CCOc1c(N2CCNCC2)cnn(Cc2ccccc2)c1=O

>  <score_type>  (74) 
oracle

>  <origin>  (74) 
adg

>  <m_score__min__energy>  (74) 
-5.7699999999999996

>  <m_primary>  (74) 
energy

$$$$
74:0
     RDKit          3D

 30 31  0  0  0  0  0  0  0  0999 V2000
   54.1470   25.1810   45.6160 C   0  0  0  0  0  0  0  0  0  0  0  0
   54.9580   26.3170   45.9010 O   0  0  0  0  0  0  0  0  0  0  0  0
   56.3610   26.3260   45.8500 C   0  0  0  0  0  0  0  0  0  0  0  0
   57.1270   25.1780   46.1370 C   0  0  0  0  0  0  0  0  0  0  0  0
   58.5220   25.2280   46.0780 C   0  0  0  0  0  0  0  0  0  0  0  0
   59.2510   24.1190   46.3560 F   0  0  0  0  0  0  0  0  0  0  0  0
   59.1640   26.4160   45.7320 C   0  0  0  0  0  0  0  0  0  0  0  0
   58.4170   27.5600   45.4440 C   0  0  0  0  0  0  0  0  0  0  0  0
   57.0090   27.5240   45.5050 C   0  0  0  0  0  0  0  0  0  0  0  0
   56.2170   28.6520   45.2280 O   0  0  0  0  0  0  0  0  0  0  0  0
   56.3950   29.5370   44.1220 C   0  0  0  0  0  0  0  0  0  0  0  0
   57.1890   30.7490   44.5290 C   0  0  0  0  0  0  0  0  0  0  0  0
   57.7690   30.8220   45.8020 C   0  0  0  0  0  0  0  0  0  0  0  0
   58.4940   31.9530   46.1760 C   0  0  0  0  0  0  0  0  0  0  0  0
   58.6260   33.0120   45.2730 C   0  0  0  0  0  0  0  0  0  0  0  0
   59.5350   34.4420   45.7310 Cl  0  0  0  0  0  0  0  0  0  0  0  0
   58.0460   32.9350   44.0440 N   0  0  0  0  0  0  0  0  0  0  0  0
   57.3340   31.8410   43.6590 C   0  0  0  0  0  0  0  0  0  0  0  0
   53.8177   24.7198   46.5588 H   0  0  0  0  0  0  0  0  0  0  0  0
   53.2676   25.4949   45.0346 H   0  0  0  0  0  0  0  0  0  0  0  0
   54.7295   24.4512   45.0346 H   0  0  0  0  0  0  0  0  0  0  0  0
   56.6240   24.2382   46.4087 H   0  0  0  0  0  0  0  0  0  0  0  0
   60.2624   26.4523   45.6857 H   0  0  0  0  0  0  0  0  0  0  0  0
   58.9294   28.4935   45.1683 H   0  0  0  0  0  0  0  0  0  0  0  0
   56.9302   29.0081   43.3196 H   0  0  0  0  0  0  0  0  0  0  0  0
   55.4057   29.8655   43.7709 H   0  0  0  0  0  0  0  0  0  0  0  0
   57.6524   29.9861   46.5075 H   0  0  0  0  0  0  0  0  0  0  0  0
   58.9575   32.0113   47.1719 H   0  0  0  0  0  0  0  0  0  0  0  0
   58.1460   33.7330   43.3770 H   0  0  0  0  0  0  0  0  0  0  0  0
   56.8702   31.8123   42.6620 H   0  0  0  0  0  0  0  0  0  0  0  0
  1  2  1  0
  2  3  1  0
  3  4  2  0
  4  5  1  0
  5  6  1  0
  5  7  2  0
  7  8  1  0
  8  9  2  0
  9 10  1  0
 10 11  1  0
 11 12  1  0
 12 13  2  0
 13 14  1  0
 14 15  2  0
 15 16  1  0
 15 17  1  0
 17 18  2  0
  9  3  1  0
 18 12  1  0
  1 19  1  0
  1 20  1  0
  1 21  1  0
  4 22  1  0
  7 23  1  0
  8 24  1  0
 11 25  1  0
 11 26  1  0
 13 27  1  0
 14 28  1  0
 17 29  1  0
 18 30  1  0
M  CHG  1  17   1
M  END
>  <UniqueID>  (75) 
69

>  <SMILES>  (75) 
COc1cc(F)ccc1OCc1ccc(Cl)[nH+]c1

>  <Energy>  (75) 
29.80768932938507

>  <Genealogy>  (75) 
COc1cc(F)ccc1OCc1ccc(Cl)[nH+]c1 (protonated)
COc1cc(F)ccc1OCc1ccc(Cl)[nH+]c1 (3D coordinates assigned)
COc1cc(F)ccc1OCc1ccc(Cl)[nH+]c1 (optimized conformer: 29.80768932938507 kcal/mol)

>  <smiles>  (75) 
COc1cc(F)ccc1OCc1ccc(Cl)nc1

>  <score_type>  (75) 
oracle

>  <origin>  (75) 
adg

>  <m_score__min__energy>  (75) 
-4.9199999999999999

>  <m_primary>  (75) 
energy

$$$$
75:0
     RDKit          3D

 40 42  0  0  0  0  0  0  0  0999 V2000
   58.8864   34.6708   47.3322 H   0  0  0  0  0  0  0  0  0  0  0  0
   58.6730   33.9850   46.4990 C   0  0  0  0  0  0  0  0  0  0  0  0
   58.2370   32.6820   46.7610 C   0  0  0  0  0  0  0  0  0  0  0  0
   58.1277   32.3400   47.8008 H   0  0  0  0  0  0  0  0  0  0  0  0
   57.9390   31.8110   45.7060 C   0  0  0  0  0  0  0  0  0  0  0  0
   57.5540   30.4600   46.0010 N   0  0  0  0  0  0  0  0  0  0  0  0
   58.2690   29.5370   46.5890 C   0  0  0  0  0  0  0  0  0  0  0  0
   57.8670   28.1770   46.4950 C   0  0  0  0  0  0  0  0  0  0  0  0
   56.6330   27.7470   45.7770 C   0  0  0  0  0  0  0  0  0  0  0  0
   56.1200   28.4810   44.8890 O   0  0  0  0  0  0  0  0  0  0  0  0
   55.9880   26.5180   46.1390 N   0  0  0  0  0  0  0  0  0  0  0  0
   55.9560   25.3090   45.3670 C   0  0  0  0  0  0  0  0  0  0  0  0
   57.0500   25.0040   44.5500 C   0  0  0  0  0  0  0  0  0  0  0  0
   57.9165   25.6810   44.5236 H   0  0  0  0  0  0  0  0  0  0  0  0
   57.0510   23.8460   43.7670 C   0  0  0  0  0  0  0  0  0  0  0  0
   57.9228   23.6100   43.1391 H   0  0  0  0  0  0  0  0  0  0  0  0
   55.9410   22.9810   43.7790 C   0  0  0  0  0  0  0  0  0  0  0  0
   55.8930   21.8060   43.0140 O   0  0  0  0  0  0  0  0  0  0  0  0
   56.9550   20.8620   42.9220 C   0  0  0  0  0  0  0  0  0  0  0  0
   57.2786   20.5744   43.9332 H   0  0  0  0  0  0  0  0  0  0  0  0
   56.6067   19.9699   42.3808 H   0  0  0  0  0  0  0  0  0  0  0  0
   57.8001   21.3124   42.3808 H   0  0  0  0  0  0  0  0  0  0  0  0
   54.8370   23.3000   44.5780 C   0  0  0  0  0  0  0  0  0  0  0  0
   53.9613   22.6343   44.5885 H   0  0  0  0  0  0  0  0  0  0  0  0
   54.8370   24.4570   45.3630 C   0  0  0  0  0  0  0  0  0  0  0  0
   53.9593   24.7016   45.9792 H   0  0  0  0  0  0  0  0  0  0  0  0
   58.6690   27.2040   47.1180 C   0  0  0  0  0  0  0  0  0  0  0  0
   58.3798   26.1441   47.0642 H   0  0  0  0  0  0  0  0  0  0  0  0
   59.8250   27.5690   47.8020 C   0  0  0  0  0  0  0  0  0  0  0  0
   60.4424   26.8043   48.2961 H   0  0  0  0  0  0  0  0  0  0  0  0
   60.1920   28.9080   47.8550 C   0  0  0  0  0  0  0  0  0  0  0  0
   61.1078   29.2033   48.3881 H   0  0  0  0  0  0  0  0  0  0  0  0
   59.4260   29.8550   47.2520 N   0  0  0  0  0  0  0  0  0  0  0  0
   59.7830   30.8340   47.2830 H   0  0  0  0  0  0  0  0  0  0  0  0
   58.1390   32.2380   44.3810 C   0  0  0  0  0  0  0  0  0  0  0  0
   57.9520   31.5453   43.5472 H   0  0  0  0  0  0  0  0  0  0  0  0
   58.5750   33.5410   44.1210 C   0  0  0  0  0  0  0  0  0  0  0  0
   58.7113   33.8775   43.0826 H   0  0  0  0  0  0  0  0  0  0  0  0
   58.8380   34.4170   45.1790 C   0  0  0  0  0  0  0  0  0  0  0  0
   59.2640   35.6790   44.9250 F   0  0  0  0  0  0  0  0  0  0  0  0
  1  2  1  0
  2  3  2  0
  3  4  1  0
  3  5  1  0
  5  6  1  0
  6  7  2  0
  7  8  1  0
  8  9  1  0
  9 10  2  0
  9 11  1  0
 11 12  1  0
 12 13  2  0
 13 14  1  0
 13 15  1  0
 15 16  1  0
 15 17  2  0
 17 18  1  0
 18 19  1  0
 19 20  1  0
 19 21  1  0
 19 22  1  0
 17 23  1  0
 23 24  1  0
 23 25  2  0
 25 26  1  0
  8 27  2  0
 27 28  1  0
 27 29  1  0
 29 30  1  0
 29 31  2  0
 31 32  1  0
 31 33  1  0
 33 34  1  0
  5 35  2  0
 35 36  1  0
 35 37  1  0
 37 38  1  0
 37 39  2  0
 39 40  1  0
 39  2  1  0
 33  7  1  0
 25 12  1  0
M  CHG  1  11  -1
M  END
>  <UniqueID>  (76) 
70

>  <SMILES>  (76) 
COc1ccc([N-]C(=O)c2ccc[nH]/c2=N\c2ccc(F)cc2)cc1

>  <Energy>  (76) 
58.65819052273253

>  <Genealogy>  (76) 
COc1ccc([N-]C(=O)c2ccc[nH]c2=Nc2ccc(F)cc2)cc1 (protonated)
COc1ccc([N-]C(=O)c2ccc[nH]/c2=N\c2ccc(F)cc2)cc1 (cis-trans isomerization)
COc1ccc([N-]C(=O)c2ccc[nH]/c2=N\c2ccc(F)cc2)cc1 (3D coordinates assigned)
COc1ccc([N-]C(=O)c2ccc[nH]/c2=N\c2ccc(F)cc2)cc1 (optimized conformer: 58.65819052273253 kcal/mol)

>  <smiles>  (76) 
COc1ccc(NC(=O)c2ccc[nH]c2=Nc2ccc(F)cc2)cc1

>  <score_type>  (76) 
oracle

>  <origin>  (76) 
adg

>  <m_score__min__energy>  (76) 
-9.7899999999999991

>  <m_primary>  (76) 
energy

$$$$
76:0
     RDKit          3D

 41 44  0  0  0  0  0  0  0  0999 V2000
   62.0770   33.2980   50.4480 C   0  0  0  0  0  0  0  0  0  0  0  0
   62.0880   31.8920   50.2210 O   0  0  0  0  0  0  0  0  0  0  0  0
   61.4440   31.2550   49.1480 C   0  0  0  0  0  0  0  0  0  0  0  0
   60.3480   30.3940   49.3410 C   0  0  0  0  0  0  0  0  0  0  0  0
   59.7310   29.7810   48.2490 C   0  0  0  0  0  0  0  0  0  0  0  0
   60.1850   30.0300   46.9470 C   0  0  0  0  0  0  0  0  0  0  0  0
   59.5440   29.3730   45.7910 C   0  0  0  0  0  0  0  0  0  0  0  0
   60.0390   28.2700   45.0990 C   0  0  0  0  0  0  0  0  0  0  0  0
   59.1980   27.9150   44.1450 O   0  0  0  0  0  0  0  0  0  0  0  0
   58.1860   28.7460   44.1860 C   0  0  0  0  0  0  0  0  0  0  0  0
   57.1090   28.7400   43.3640 N   0  0  0  0  0  0  0  0  0  0  0  0
   56.1600   29.7090   43.5280 C   0  0  0  0  0  0  0  0  0  0  0  0
   56.3100   30.6700   44.4920 N   0  0  0  0  0  0  0  0  0  0  0  0
   57.3910   30.6860   45.3300 C   0  0  0  0  0  0  0  0  0  0  0  0
   57.5830   31.7310   46.2970 N   0  0  0  0  0  0  0  0  0  0  0  0
   58.3160   32.7990   46.1750 C   0  0  0  0  0  0  0  0  0  0  0  0
   58.9390   33.3000   47.2750 N   0  0  0  0  0  0  0  0  0  0  0  0
   59.7120   34.4140   47.2000 C   0  0  0  0  0  0  0  0  0  0  0  0
   59.8750   35.0650   45.9780 C   0  0  0  0  0  0  0  0  0  0  0  0
   59.2310   34.5430   44.8580 C   0  0  0  0  0  0  0  0  0  0  0  0
   58.4670   33.4270   44.9750 N   0  0  0  0  0  0  0  0  0  0  0  0
   58.3410   29.6740   45.1750 C   0  0  0  0  0  0  0  0  0  0  0  0
   61.2920   30.8680   46.7520 C   0  0  0  0  0  0  0  0  0  0  0  0
   61.9220   31.4900   47.8490 C   0  0  0  0  0  0  0  0  0  0  0  0
   63.0220   32.3460   47.6880 O   0  0  0  0  0  0  0  0  0  0  0  0
   63.0810   33.4180   46.7530 C   0  0  0  0  0  0  0  0  0  0  0  0
   62.0755   33.4947   51.5303 H   0  0  0  0  0  0  0  0  0  0  0  0
   62.9716   33.7496   49.9945 H   0  0  0  0  0  0  0  0  0  0  0  0
   61.1754   33.7356   49.9945 H   0  0  0  0  0  0  0  0  0  0  0  0
   59.9752   30.2028   50.3581 H   0  0  0  0  0  0  0  0  0  0  0  0
   58.8837   29.0987   48.4116 H   0  0  0  0  0  0  0  0  0  0  0  0
   60.9930   27.7672   45.3160 H   0  0  0  0  0  0  0  0  0  0  0  0
   57.0090   28.0160   42.6180 H   0  0  0  0  0  0  0  0  0  0  0  0
   55.2699   29.7173   42.8817 H   0  0  0  0  0  0  0  0  0  0  0  0
   60.2086   34.8019   48.1016 H   0  0  0  0  0  0  0  0  0  0  0  0
   60.4970   35.9689   45.8999 H   0  0  0  0  0  0  0  0  0  0  0  0
   59.3415   35.0346   43.8802 H   0  0  0  0  0  0  0  0  0  0  0  0
   61.6721   31.0416   45.7345 H   0  0  0  0  0  0  0  0  0  0  0  0
   63.1336   34.3742   47.2943 H   0  0  0  0  0  0  0  0  0  0  0  0
   63.9743   33.3047   46.1211 H   0  0  0  0  0  0  0  0  0  0  0  0
   62.1807   33.4034   46.1211 H   0  0  0  0  0  0  0  0  0  0  0  0
  1  2  1  0
  2  3  1  0
  3  4  2  0
  4  5  1  0
  5  6  2  0
  6  7  1  0
  7  8  2  0
  8  9  1  0
  9 10  1  0
 10 11  2  0
 11 12  1  0
 12 13  2  0
 13 14  1  0
 14 15  1  0
 15 16  2  3
 16 17  1  0
 17 18  2  0
 18 19  1  0
 19 20  2  0
 20 21  1  0
 14 22  2  0
  6 23  1  0
 23 24  2  0
 24 25  1  0
 25 26  1  0
 24  3  1  0
 22  7  1  0
 22 10  1  0
 21 16  1  0
  1 27  1  0
  1 28  1  0
  1 29  1  0
  4 30  1  0
  5 31  1  0
  8 32  1  0
 11 33  1  0
 12 34  1  0
 18 35  1  0
 19 36  1  0
 20 37  1  0
 23 38  1  0
 26 39  1  0
 26 40  1  0
 26 41  1  0
M  CHG  2  11   1  21  -1
M  END
>  <UniqueID>  (77) 
71

>  <SMILES>  (77) 
COc1ccc(-c2coc3[nH+]cnc(N=c4nccc[n-]4)c23)cc1OC

>  <Energy>  (77) 
90.50181412632134

>  <Genealogy>  (77) 
COc1ccc(-c2coc3[nH+]cnc(N=c4nccc[n-]4)c23)cc1OC (protonated)
COc1ccc(-c2coc3[nH+]cnc(N=c4nccc[n-]4)c23)cc1OC (3D coordinates assigned)
COc1ccc(-c2coc3[nH+]cnc(N=c4nccc[n-]4)c23)cc1OC (optimized conformer: 90.50181412632134 kcal/mol)

>  <smiles>  (77) 
COc1ccc(-c2coc3ncnc(N=c4nccc[nH]4)c23)cc1OC

>  <score_type>  (77) 
oracle

>  <origin>  (77) 
adg

>  <m_score__min__energy>  (77) 
-6.4800000000000004

>  <m_primary>  (77) 
energy

$$$$
77:0
     RDKit          3D

 46 49  0  0  0  0  0  0  0  0999 V2000
   59.0180   34.5870   44.4910 C   0  0  0  0  0  0  0  0  0  0  0  0
   57.5450   34.4920   44.8740 C   0  0  0  0  0  0  0  0  0  0  0  0
   57.3590   33.7170   46.1850 C   0  0  0  0  0  0  0  0  0  0  0  0
   58.2240   32.5120   46.2080 N   0  0  0  0  0  0  0  0  0  0  0  0
   57.7930   31.3980   45.5280 C   0  0  0  0  0  0  0  0  0  0  0  0
   56.7180   31.4430   44.8630 O   0  0  0  0  0  0  0  0  0  0  0  0
   58.5240   30.1980   45.5590 C   0  0  0  0  0  0  0  0  0  0  0  0
   58.0450   29.0570   44.8800 C   0  0  0  0  0  0  0  0  0  0  0  0
   58.7420   27.8420   44.9220 C   0  0  0  0  0  0  0  0  0  0  0  0
   58.2250   26.6400   44.2180 C   0  0  0  0  0  0  0  0  0  0  0  0
   57.8010   26.7470   43.0370 O   0  0  0  0  0  0  0  0  0  0  0  0
   58.1190   25.3670   44.8720 N   0  0  0  0  0  0  0  0  0  0  0  0
   57.6390   24.2640   44.3660 C   0  0  0  0  0  0  0  0  0  0  0  0
   58.0930   23.0410   44.8760 C   0  0  0  0  0  0  0  0  0  0  0  0
   57.6010   21.8460   44.3470 C   0  0  0  0  0  0  0  0  0  0  0  0
   56.6570   21.8790   43.3240 C   0  0  0  0  0  0  0  0  0  0  0  0
   56.2080   23.1120   42.8480 C   0  0  0  0  0  0  0  0  0  0  0  0
   56.6930   24.2710   43.3730 N   0  0  0  0  0  0  0  0  0  0  0  0
   59.9430   27.7780   45.6330 C   0  0  0  0  0  0  0  0  0  0  0  0
   60.4350   28.8980   46.3020 C   0  0  0  0  0  0  0  0  0  0  0  0
   59.7400   30.1330   46.2790 C   0  0  0  0  0  0  0  0  0  0  0  0
   60.2170   31.3040   46.9310 C   0  0  0  0  0  0  0  0  0  0  0  0
   61.4480   31.3280   47.6380 C   0  0  0  0  0  0  0  0  0  0  0  0
   61.9090   32.4920   48.2440 C   0  0  0  0  0  0  0  0  0  0  0  0
   61.1730   33.6620   48.1570 C   0  0  0  0  0  0  0  0  0  0  0  0
   59.9600   33.6760   47.4760 C   0  0  0  0  0  0  0  0  0  0  0  0
   59.4410   32.5040   46.8650 C   0  0  0  0  0  0  0  0  0  0  0  0
   59.6321   34.6266   45.4028 H   0  0  0  0  0  0  0  0  0  0  0  0
   59.3000   33.7052   43.8970 H   0  0  0  0  0  0  0  0  0  0  0  0
   59.1844   35.4977   43.8970 H   0  0  0  0  0  0  0  0  0  0  0  0
   57.1406   35.5075   44.9975 H   0  0  0  0  0  0  0  0  0  0  0  0
   57.0123   33.9557   44.0749 H   0  0  0  0  0  0  0  0  0  0  0  0
   57.6245   34.3685   47.0306 H   0  0  0  0  0  0  0  0  0  0  0  0
   56.3085   33.4003   46.2631 H   0  0  0  0  0  0  0  0  0  0  0  0
   57.1079   29.1227   44.3077 H   0  0  0  0  0  0  0  0  0  0  0  0
   58.8335   23.0220   45.6892 H   0  0  0  0  0  0  0  0  0  0  0  0
   57.9581   20.8815   44.7373 H   0  0  0  0  0  0  0  0  0  0  0  0
   56.2691   20.9431   42.8954 H   0  0  0  0  0  0  0  0  0  0  0  0
   55.4580   23.1476   42.0441 H   0  0  0  0  0  0  0  0  0  0  0  0
   56.2960   25.1630   43.0070 H   0  0  0  0  0  0  0  0  0  0  0  0
   60.5065   26.8338   45.6653 H   0  0  0  0  0  0  0  0  0  0  0  0
   61.3808   28.8216   46.8584 H   0  0  0  0  0  0  0  0  0  0  0  0
   62.0483   30.4089   47.7078 H   0  0  0  0  0  0  0  0  0  0  0  0
   62.8614   32.4833   48.7943 H   0  0  0  0  0  0  0  0  0  0  0  0
   61.5486   34.5826   48.6276 H   0  0  0  0  0  0  0  0  0  0  0  0
   59.3908   34.6149   47.4094 H   0  0  0  0  0  0  0  0  0  0  0  0
  1  2  1  0
  2  3  1  0
  3  4  1  0
  4  5  1  0
  5  6  2  0
  5  7  1  0
  7  8  2  0
  8  9  1  0
  9 10  1  0
 10 11  2  0
 10 12  1  0
 12 13  2  3
 13 14  1  0
 14 15  2  0
 15 16  1  0
 16 17  2  0
 17 18  1  0
  9 19  2  0
 19 20  1  0
 20 21  2  0
 21 22  1  0
 22 23  2  0
 23 24  1  0
 24 25  2  0
 25 26  1  0
 26 27  2  0
 27  4  1  0
 21  7  1  0
 27 22  1  0
 18 13  1  0
  1 28  1  0
  1 29  1  0
  1 30  1  0
  2 31  1  0
  2 32  1  0
  3 33  1  0
  3 34  1  0
  8 35  1  0
 14 36  1  0
 15 37  1  0
 16 38  1  0
 17 39  1  0
 18 40  1  0
 19 41  1  0
 20 42  1  0
 23 43  1  0
 24 44  1  0
 25 45  1  0
 26 46  1  0
M  END
>  <UniqueID>  (78) 
72

>  <SMILES>  (78) 
CCCn1c(=O)c2cc(C(=O)N=c3cccc[nH]3)ccc2c2ccccc21

>  <Energy>  (78) 
77.37460778383767

>  <Genealogy>  (78) 
CCCn1c(=O)c2cc(C(=O)N=c3cccc[nH]3)ccc2c2ccccc21 (3D coordinates assigned)
CCCn1c(=O)c2cc(C(=O)N=c3cccc[nH]3)ccc2c2ccccc21 (optimized conformer: 77.37460778383767 kcal/mol)

>  <smiles>  (78) 
CCCn1c(=O)c2cc(C(=O)N=c3cccc[nH]3)ccc2c2ccccc21

>  <score_type>  (78) 
oracle

>  <origin>  (78) 
adg

>  <m_score__min__energy>  (78) 
-9.0500000000000007

>  <m_primary>  (78) 
energy

$$$$
78:0
     RDKit          3D

 24 25  0  0  0  0  0  0  0  0999 V2000
   59.4130   33.9210   48.4700 C   0  0  0  0  0  0  0  0  0  0  0  0
   58.9390   33.8160   47.0550 C   0  0  0  0  0  0  0  0  0  0  0  0
   58.1800   32.7160   46.6410 C   0  0  0  0  0  0  0  0  0  0  0  0
   57.7600   32.6530   45.3120 C   0  0  0  0  0  0  0  0  0  0  0  0
   57.0170   31.5460   44.8810 O   0  0  0  0  0  0  0  0  0  0  0  0
   57.5510   30.2970   44.5360 C   0  0  0  0  0  0  0  0  0  0  0  0
   58.8290   29.9610   44.9940 C   0  0  0  0  0  0  0  0  0  0  0  0
   59.3850   28.7210   44.6770 C   0  0  0  0  0  0  0  0  0  0  0  0
   58.6460   27.8170   43.9120 C   0  0  0  0  0  0  0  0  0  0  0  0
   57.3940   28.1420   43.4890 N   0  0  0  0  0  0  0  0  0  0  0  0
   56.8340   29.3480   43.7850 C   0  0  0  0  0  0  0  0  0  0  0  0
   58.1130   33.6450   44.4490 N   0  0  0  0  0  0  0  0  0  0  0  0
   58.8540   34.7050   44.8640 C   0  0  0  0  0  0  0  0  0  0  0  0
   59.2610   34.7860   46.1570 N   0  0  0  0  0  0  0  0  0  0  0  0
   58.5714   33.7346   49.1534 H   0  0  0  0  0  0  0  0  0  0  0  0
   60.2023   33.1759   48.6485 H   0  0  0  0  0  0  0  0  0  0  0  0
   59.8138   34.9297   48.6485 H   0  0  0  0  0  0  0  0  0  0  0  0
   57.9194   31.9161   47.3497 H   0  0  0  0  0  0  0  0  0  0  0  0
   59.3977   30.6765   45.6061 H   0  0  0  0  0  0  0  0  0  0  0  0
   60.3946   28.4588   45.0261 H   0  0  0  0  0  0  0  0  0  0  0  0
   59.0768   26.8393   43.6504 H   0  0  0  0  0  0  0  0  0  0  0  0
   56.8470   27.4500   42.9300 H   0  0  0  0  0  0  0  0  0  0  0  0
   55.8173   29.5806   43.4354 H   0  0  0  0  0  0  0  0  0  0  0  0
   59.1247   35.4986   44.1520 H   0  0  0  0  0  0  0  0  0  0  0  0
  1  2  1  0
  2  3  2  0
  3  4  1  0
  4  5  1  0
  5  6  1  0
  6  7  2  0
  7  8  1  0
  8  9  2  0
  9 10  1  0
 10 11  2  0
  4 12  2  0
 12 13  1  0
 13 14  2  0
 14  2  1  0
 11  6  1  0
  1 15  1  0
  1 16  1  0
  1 17  1  0
  3 18  1  0
  7 19  1  0
  8 20  1  0
  9 21  1  0
 10 22  1  0
 11 23  1  0
 13 24  1  0
M  CHG  1  10   1
M  END
>  <UniqueID>  (79) 
73

>  <SMILES>  (79) 
Cc1cc(Oc2ccc[nH+]c2)ncn1

>  <Energy>  (79) 
29.24866751472512

>  <Genealogy>  (79) 
Cc1cc(Oc2ccc[nH+]c2)ncn1 (protonated)
Cc1cc(Oc2ccc[nH+]c2)ncn1 (3D coordinates assigned)
Cc1cc(Oc2ccc[nH+]c2)ncn1 (optimized conformer: 29.24866751472512 kcal/mol)

>  <smiles>  (79) 
Cc1cc(Oc2cccnc2)ncn1

>  <score_type>  (79) 
oracle

>  <origin>  (79) 
adg

>  <m_score__min__energy>  (79) 
-4.3099999999999996

>  <m_primary>  (79) 
energy

$$$$
79:0
     RDKit          3D

 35 37  0  0  0  0  0  0  0  0999 V2000
   55.5050   28.7170   52.4110 O   0  0  0  0  0  0  0  0  0  0  0  0
   54.8400   29.7810   52.2970 C   0  0  0  0  0  0  0  0  0  0  0  0
   53.4380   29.8130   52.6130 N   0  0  0  0  0  0  0  0  0  0  0  0
   52.5480   30.7290   52.3400 C   0  0  0  0  0  0  0  0  0  0  0  0
   51.7460   31.3510   53.3220 C   0  0  0  0  0  0  0  0  0  0  0  0
   50.8120   32.3180   52.9380 C   0  0  0  0  0  0  0  0  0  0  0  0
   50.6680   32.6470   51.6280 N   0  0  0  0  0  0  0  0  0  0  0  0
   51.4120   32.0540   50.6590 C   0  0  0  0  0  0  0  0  0  0  0  0
   52.3570   31.0820   50.9980 C   0  0  0  0  0  0  0  0  0  0  0  0
   55.4840   30.9980   51.8920 N   0  0  0  0  0  0  0  0  0  0  0  0
   56.9060   31.1510   51.7440 C   0  0  0  0  0  0  0  0  0  0  0  0
   57.7990   30.1590   52.1860 C   0  0  0  0  0  0  0  0  0  0  0  0
   59.1780   30.3510   52.0690 C   0  0  0  0  0  0  0  0  0  0  0  0
   59.6780   31.5320   51.5150 C   0  0  0  0  0  0  0  0  0  0  0  0
   58.8050   32.5300   51.0700 C   0  0  0  0  0  0  0  0  0  0  0  0
   59.3510   33.7080   50.5380 O   0  0  0  0  0  0  0  0  0  0  0  0
   59.9400   33.8260   49.2720 C   0  0  0  0  0  0  0  0  0  0  0  0
   61.2260   33.4210   49.1010 N   0  0  0  0  0  0  0  0  0  0  0  0
   61.8290   33.4990   47.8850 C   0  0  0  0  0  0  0  0  0  0  0  0
   61.1230   33.9930   46.7900 C   0  0  0  0  0  0  0  0  0  0  0  0
   59.8020   34.3950   46.9770 C   0  0  0  0  0  0  0  0  0  0  0  0
   59.2350   34.3010   48.2080 N   0  0  0  0  0  0  0  0  0  0  0  0
   57.4170   32.3450   51.2100 C   0  0  0  0  0  0  0  0  0  0  0  0
   51.8554   31.0766   54.3816 H   0  0  0  0  0  0  0  0  0  0  0  0
   50.1918   32.8139   53.6992 H   0  0  0  0  0  0  0  0  0  0  0  0
   51.2706   32.3391   49.6060 H   0  0  0  0  0  0  0  0  0  0  0  0
   52.9508   30.5941   50.2110 H   0  0  0  0  0  0  0  0  0  0  0  0
   54.8690   31.7880   51.5930 H   0  0  0  0  0  0  0  0  0  0  0  0
   57.4106   29.2284   52.6255 H   0  0  0  0  0  0  0  0  0  0  0  0
   59.8718   29.5702   52.4140 H   0  0  0  0  0  0  0  0  0  0  0  0
   60.7648   31.6779   51.4283 H   0  0  0  0  0  0  0  0  0  0  0  0
   62.8727   33.1726   47.7658 H   0  0  0  0  0  0  0  0  0  0  0  0
   61.5978   34.0640   45.8003 H   0  0  0  0  0  0  0  0  0  0  0  0
   59.2198   34.7874   46.1302 H   0  0  0  0  0  0  0  0  0  0  0  0
   56.7264   33.1425   50.8985 H   0  0  0  0  0  0  0  0  0  0  0  0
  1  2  2  0
  2  3  1  0
  3  4  2  3
  4  5  1  0
  5  6  2  0
  6  7  1  0
  7  8  1  0
  8  9  2  0
  2 10  1  0
 10 11  1  0
 11 12  2  0
 12 13  1  0
 13 14  2  0
 14 15  1  0
 15 16  1  0
 16 17  1  0
 17 18  2  0
 18 19  1  0
 19 20  2  0
 20 21  1  0
 21 22  2  0
 15 23  2  0
  9  4  1  0
 23 11  1  0
 22 17  1  0
  5 24  1  0
  6 25  1  0
  8 26  1  0
  9 27  1  0
 10 28  1  0
 12 29  1  0
 13 30  1  0
 14 31  1  0
 19 32  1  0
 20 33  1  0
 21 34  1  0
 23 35  1  0
M  CHG  1   7  -1
M  END
>  <UniqueID>  (80) 
74

>  <SMILES>  (80) 
O=C(N=c1cc[n-]cc1)Nc1cccc(Oc2ncccn2)c1

>  <Energy>  (80) 
55.84280471861568

>  <Genealogy>  (80) 
O=C(N=c1cc[n-]cc1)Nc1cccc(Oc2ncccn2)c1 (protonated)
O=C(N=c1cc[n-]cc1)Nc1cccc(Oc2ncccn2)c1 (3D coordinates assigned)
O=C(N=c1cc[n-]cc1)Nc1cccc(Oc2ncccn2)c1 (optimized conformer: 55.84280471861568 kcal/mol)

>  <smiles>  (80) 
O=C(N=c1cc[nH]cc1)Nc1cccc(Oc2ncccn2)c1

>  <score_type>  (80) 
oracle

>  <origin>  (80) 
adg

>  <m_score__min__energy>  (80) 
-10.08

>  <m_primary>  (80) 
energy

$$$$
80:0
     RDKit          3D

 38 39  0  0  0  0  0  0  0  0999 V2000
   57.6820   27.1570   46.7630 C   0  0  0  0  0  0  0  0  0  0  0  0
   57.2400   27.5670   45.3620 C   0  0  0  0  0  0  0  0  0  0  0  0
   57.9280   28.7960   44.9400 N   0  0  0  0  0  0  0  0  0  0  0  0
   59.3260   28.7190   44.4810 C   0  0  0  0  0  0  0  0  0  0  0  0
   60.2960   28.9730   45.6330 C   0  0  0  0  0  0  0  0  0  0  0  0
   57.1920   30.0370   44.8810 C   0  0  0  0  0  0  0  0  0  0  0  0
   55.9470   30.0150   44.6840 O   0  0  0  0  0  0  0  0  0  0  0  0
   57.8620   31.3400   45.0800 C   0  0  0  0  0  0  0  0  0  0  0  0
   58.3650   31.6660   46.3490 C   0  0  0  0  0  0  0  0  0  0  0  0
   58.9980   32.8990   46.5800 C   0  0  0  0  0  0  0  0  0  0  0  0
   59.5300   33.2280   47.9270 C   0  0  0  0  0  0  0  0  0  0  0  0
   60.7530   33.9080   48.0620 C   0  0  0  0  0  0  0  0  0  0  0  0
   61.2420   34.2000   49.3370 C   0  0  0  0  0  0  0  0  0  0  0  0
   60.5170   33.8180   50.4630 C   0  0  0  0  0  0  0  0  0  0  0  0
   59.3050   33.1450   50.2990 C   0  0  0  0  0  0  0  0  0  0  0  0
   58.8390   32.8650   49.0510 N   0  0  0  0  0  0  0  0  0  0  0  0
   59.1150   33.8130   45.5210 C   0  0  0  0  0  0  0  0  0  0  0  0
   58.6070   33.5020   44.2590 C   0  0  0  0  0  0  0  0  0  0  0  0
   57.9790   32.2740   44.0300 C   0  0  0  0  0  0  0  0  0  0  0  0
   57.4020   31.9220   42.4030 Cl  0  0  0  0  0  0  0  0  0  0  0  0
   57.0898   27.7063   47.5097 H   0  0  0  0  0  0  0  0  0  0  0  0
   57.5267   26.0760   46.8948 H   0  0  0  0  0  0  0  0  0  0  0  0
   58.7483   27.3930   46.8948 H   0  0  0  0  0  0  0  0  0  0  0  0
   57.4800   26.7581   44.6562 H   0  0  0  0  0  0  0  0  0  0  0  0
   56.1561   27.7540   45.3732 H   0  0  0  0  0  0  0  0  0  0  0  0
   59.5139   27.7173   44.0670 H   0  0  0  0  0  0  0  0  0  0  0  0
   59.4852   29.4901   43.7128 H   0  0  0  0  0  0  0  0  0  0  0  0
   59.7721   28.8358   46.5905 H   0  0  0  0  0  0  0  0  0  0  0  0
   61.1348   28.2642   45.5691 H   0  0  0  0  0  0  0  0  0  0  0  0
   60.6797   30.0019   45.5691 H   0  0  0  0  0  0  0  0  0  0  0  0
   58.2623   30.9461   47.1744 H   0  0  0  0  0  0  0  0  0  0  0  0
   61.3210   34.2081   47.1691 H   0  0  0  0  0  0  0  0  0  0  0  0
   62.1985   34.7310   49.4518 H   0  0  0  0  0  0  0  0  0  0  0  0
   60.8953   34.0442   51.4708 H   0  0  0  0  0  0  0  0  0  0  0  0
   58.7242   32.8397   51.1818 H   0  0  0  0  0  0  0  0  0  0  0  0
   57.9180   32.3790   48.9680 H   0  0  0  0  0  0  0  0  0  0  0  0
   59.6105   34.7809   45.6871 H   0  0  0  0  0  0  0  0  0  0  0  0
   58.7013   34.2284   43.4383 H   0  0  0  0  0  0  0  0  0  0  0  0
  1  2  1  0
  2  3  1  0
  3  4  1  0
  4  5  1  0
  3  6  1  0
  6  7  2  0
  6  8  1  0
  8  9  2  0
  9 10  1  0
 10 11  1  0
 11 12  2  0
 12 13  1  0
 13 14  2  0
 14 15  1  0
 15 16  2  0
 10 17  2  0
 17 18  1  0
 18 19  2  0
 19 20  1  0
 19  8  1  0
 16 11  1  0
  1 21  1  0
  1 22  1  0
  1 23  1  0
  2 24  1  0
  2 25  1  0
  4 26  1  0
  4 27  1  0
  5 28  1  0
  5 29  1  0
  5 30  1  0
  9 31  1  0
 12 32  1  0
 13 33  1  0
 14 34  1  0
 15 35  1  0
 16 36  1  0
 17 37  1  0
 18 38  1  0
M  CHG  1  16   1
M  END
>  <UniqueID>  (81) 
75

>  <SMILES>  (81) 
CCN(CC)C(=O)c1cc(-c2cccc[nH+]2)ccc1Cl

>  <Energy>  (81) 
43.110724756085915

>  <Genealogy>  (81) 
CCN(CC)C(=O)c1cc(-c2cccc[nH+]2)ccc1Cl (protonated)
CCN(CC)C(=O)c1cc(-c2cccc[nH+]2)ccc1Cl (3D coordinates assigned)
CCN(CC)C(=O)c1cc(-c2cccc[nH+]2)ccc1Cl (optimized conformer: 43.110724756085915 kcal/mol)

>  <smiles>  (81) 
CCN(CC)C(=O)c1cc(-c2ccccn2)ccc1Cl

>  <score_type>  (81) 
oracle

>  <origin>  (81) 
adg

>  <m_score__min__energy>  (81) 
-5.6500000000000004

>  <m_primary>  (81) 
energy

$$$$
81:0
     RDKit          3D

 33 34  0  0  0  0  0  0  0  0999 V2000
   57.7590   21.3140   44.2520 N   0  0  0  0  0  0  0  0  0  0  0  0
   58.7760   22.2230   44.6910 C   0  0  0  0  0  0  0  0  0  0  0  0
   60.0180   21.8360   44.7040 N   0  0  0  0  0  0  0  0  0  0  0  0
   58.4040   23.5900   45.1350 C   0  0  0  0  0  0  0  0  0  0  0  0
   59.2550   24.3350   45.9670 C   0  0  0  0  0  0  0  0  0  0  0  0
   58.9020   25.6240   46.3770 C   0  0  0  0  0  0  0  0  0  0  0  0
   57.6880   26.1970   45.9560 C   0  0  0  0  0  0  0  0  0  0  0  0
   57.2940   27.5250   46.3540 N   0  0  0  0  0  0  0  0  0  0  0  0
   58.2200   28.6450   46.5330 C   0  0  0  0  0  0  0  0  0  0  0  0
   57.9210   29.7520   45.5540 C   0  0  0  0  0  0  0  0  0  0  0  0
   58.0830   31.0930   45.9460 C   0  0  0  0  0  0  0  0  0  0  0  0
   57.8190   32.1310   45.0460 C   0  0  0  0  0  0  0  0  0  0  0  0
   58.0270   33.9480   45.5970 Br  0  0  0  0  0  0  0  0  0  0  0  0
   57.4040   31.8380   43.7440 C   0  0  0  0  0  0  0  0  0  0  0  0
   57.2590   30.5100   43.3390 C   0  0  0  0  0  0  0  0  0  0  0  0
   57.5200   29.4670   44.2340 C   0  0  0  0  0  0  0  0  0  0  0  0
   57.3830   28.1860   43.8090 F   0  0  0  0  0  0  0  0  0  0  0  0
   56.8380   25.4510   45.1270 C   0  0  0  0  0  0  0  0  0  0  0  0
   57.1910   24.1630   44.7180 C   0  0  0  0  0  0  0  0  0  0  0  0
   58.0000   20.3350   43.9800 H   0  0  0  0  0  0  0  0  0  0  0  0
   56.7690   21.6240   44.1470 H   0  0  0  0  0  0  0  0  0  0  0  0
   60.2830   20.8460   44.9040 H   0  0  0  0  0  0  0  0  0  0  0  0
   60.7880   22.5070   44.4870 H   0  0  0  0  0  0  0  0  0  0  0  0
   60.2090   23.9000   46.2995 H   0  0  0  0  0  0  0  0  0  0  0  0
   59.5773   26.1935   47.0325 H   0  0  0  0  0  0  0  0  0  0  0  0
   56.2770   27.7240   46.4890 H   0  0  0  0  0  0  0  0  0  0  0  0
   58.1214   29.0337   47.5573 H   0  0  0  0  0  0  0  0  0  0  0  0
   59.2444   28.2859   46.3553 H   0  0  0  0  0  0  0  0  0  0  0  0
   58.4194   31.3271   46.9668 H   0  0  0  0  0  0  0  0  0  0  0  0
   57.1915   32.6543   43.0380 H   0  0  0  0  0  0  0  0  0  0  0  0
   56.9381   30.2827   42.3117 H   0  0  0  0  0  0  0  0  0  0  0  0
   55.8831   25.8848   44.7953 H   0  0  0  0  0  0  0  0  0  0  0  0
   56.5142   23.5930   44.0645 H   0  0  0  0  0  0  0  0  0  0  0  0
  1  2  1  0
  2  3  2  0
  2  4  1  0
  4  5  2  0
  5  6  1  0
  6  7  2  0
  7  8  1  0
  8  9  1  0
  9 10  1  0
 10 11  2  0
 11 12  1  0
 12 13  1  0
 12 14  2  0
 14 15  1  0
 15 16  2  0
 16 17  1  0
  7 18  1  0
 18 19  2  0
 19  4  1  0
 16 10  1  0
  1 20  1  0
  1 21  1  0
  3 22  1  0
  3 23  1  0
  5 24  1  0
  6 25  1  0
  8 26  1  0
  9 27  1  0
  9 28  1  0
 11 29  1  0
 14 30  1  0
 15 31  1  0
 18 32  1  0
 19 33  1  0
M  CHG  1   3   1
M  END
>  <UniqueID>  (82) 
76

>  <SMILES>  (82) 
NC(=[NH2+])c1ccc(NCc2cc(Br)ccc2F)cc1

>  <Energy>  (82) 
35.27432725316096

>  <Genealogy>  (82) 
NC(=[NH2+])c1ccc(NCc2cc(Br)ccc2F)cc1 (protonated)
NC(=[NH2+])c1ccc(NCc2cc(Br)ccc2F)cc1 (3D coordinates assigned)
NC(=[NH2+])c1ccc(NCc2cc(Br)ccc2F)cc1 (optimized conformer: 35.27432725316096 kcal/mol)

>  <smiles>  (82) 
N=C(N)c1ccc(NCc2cc(Br)ccc2F)cc1

>  <score_type>  (82) 
oracle

>  <origin>  (82) 
adg

>  <m_score__min__energy>  (82) 
-6.0599999999999996

>  <m_primary>  (82) 
energy

$$$$
82:0
     RDKit          3D

 41 43  0  0  0  0  0  0  0  0999 V2000
   59.6130   35.7240   46.7480 C   0  0  0  0  0  0  0  0  0  0  0  0
   59.9130   34.2800   46.3210 C   0  0  0  0  0  0  0  0  0  0  0  0
   61.4290   34.0410   46.3260 C   0  0  0  0  0  0  0  0  0  0  0  0
   59.2680   33.3330   47.3200 C   0  0  0  0  0  0  0  0  0  0  0  0
   58.5250   32.2840   46.9560 C   0  0  0  0  0  0  0  0  0  0  0  0
   58.2230   32.0150   45.5440 C   0  0  0  0  0  0  0  0  0  0  0  0
   57.4830   30.8820   45.1740 C   0  0  0  0  0  0  0  0  0  0  0  0
   57.1910   30.6380   43.8220 C   0  0  0  0  0  0  0  0  0  0  0  0
   56.3640   29.4410   43.4290 C   0  0  0  0  0  0  0  0  0  0  0  0
   57.2270   28.2760   43.1920 N   0  0  0  0  0  0  0  0  0  0  0  0
   57.9410   27.9350   44.3990 C   0  0  0  0  0  0  0  0  0  0  0  0
   59.3440   28.0220   44.4390 C   0  0  0  0  0  0  0  0  0  0  0  0
   60.0380   27.7200   45.6140 C   0  0  0  0  0  0  0  0  0  0  0  0
   59.3400   27.3380   46.7620 C   0  0  0  0  0  0  0  0  0  0  0  0
   60.0150   27.0470   47.9010 F   0  0  0  0  0  0  0  0  0  0  0  0
   57.9450   27.2620   46.7380 C   0  0  0  0  0  0  0  0  0  0  0  0
   57.2440   27.5630   45.5660 C   0  0  0  0  0  0  0  0  0  0  0  0
   55.8880   27.4970   45.5680 F   0  0  0  0  0  0  0  0  0  0  0  0
   57.6190   31.5530   42.8480 C   0  0  0  0  0  0  0  0  0  0  0  0
   58.3540   32.6830   43.2180 C   0  0  0  0  0  0  0  0  0  0  0  0
   58.6620   32.9150   44.5650 C   0  0  0  0  0  0  0  0  0  0  0  0
   59.4070   34.0760   44.9530 N   0  0  0  0  0  0  0  0  0  0  0  0
   59.6000   35.7864   47.8462 H   0  0  0  0  0  0  0  0  0  0  0  0
   60.3914   36.3927   46.3519 H   0  0  0  0  0  0  0  0  0  0  0  0
   58.6327   36.0273   46.3519 H   0  0  0  0  0  0  0  0  0  0  0  0
   61.7879   33.9844   47.3643 H   0  0  0  0  0  0  0  0  0  0  0  0
   61.6530   33.0964   45.8087 H   0  0  0  0  0  0  0  0  0  0  0  0
   61.9327   34.8708   45.8087 H   0  0  0  0  0  0  0  0  0  0  0  0
   59.4202   33.5203   48.3932 H   0  0  0  0  0  0  0  0  0  0  0  0
   58.1315   31.6081   47.7295 H   0  0  0  0  0  0  0  0  0  0  0  0
   57.1301   30.1820   45.9457 H   0  0  0  0  0  0  0  0  0  0  0  0
   55.6559   29.2086   44.2381 H   0  0  0  0  0  0  0  0  0  0  0  0
   55.8178   29.6739   42.5030 H   0  0  0  0  0  0  0  0  0  0  0  0
   56.6470   27.4620   42.8800 H   0  0  0  0  0  0  0  0  0  0  0  0
   57.9090   28.4940   42.4280 H   0  0  0  0  0  0  0  0  0  0  0  0
   59.8986   28.3296   43.5402 H   0  0  0  0  0  0  0  0  0  0  0  0
   61.1360   27.7833   45.6347 H   0  0  0  0  0  0  0  0  0  0  0  0
   57.3965   26.9645   47.6439 H   0  0  0  0  0  0  0  0  0  0  0  0
   57.3752   31.3804   41.7893 H   0  0  0  0  0  0  0  0  0  0  0  0
   58.6919   33.3928   42.4486 H   0  0  0  0  0  0  0  0  0  0  0  0
   59.7070   34.7490   44.2090 H   0  0  0  0  0  0  0  0  0  0  0  0
  1  2  1  0
  2  3  1  0
  2  4  1  0
  4  5  2  0
  5  6  1  0
  6  7  2  0
  7  8  1  0
  8  9  1  0
  9 10  1  0
 10 11  1  0
 11 12  2  0
 12 13  1  0
 13 14  2  0
 14 15  1  0
 14 16  1  0
 16 17  2  0
 17 18  1  0
  8 19  2  0
 19 20  1  0
 20 21  2  0
 21 22  1  0
 22  2  1  0
 21  6  1  0
 17 11  1  0
  1 23  1  0
  1 24  1  0
  1 25  1  0
  3 26  1  0
  3 27  1  0
  3 28  1  0
  4 29  1  0
  5 30  1  0
  7 31  1  0
  9 32  1  0
  9 33  1  0
 10 34  1  0
 10 35  1  0
 12 36  1  0
 13 37  1  0
 16 38  1  0
 19 39  1  0
 20 40  1  0
 22 41  1  0
M  CHG  1  10   1
M  END
>  <UniqueID>  (83) 
77

>  <SMILES>  (83) 
CC1(C)C=Cc2cc(C[NH2+]c3ccc(F)cc3F)ccc2N1

>  <Energy>  (83) 
40.71471699092263

>  <Genealogy>  (83) 
CC1(C)C=Cc2cc(C[NH2+]c3ccc(F)cc3F)ccc2N1 (protonated)
CC1(C)C=Cc2cc(C[NH2+]c3ccc(F)cc3F)ccc2N1 (3D coordinates assigned)
CC1(C)C=Cc2cc(C[NH2+]c3ccc(F)cc3F)ccc2N1 (nonaromatic ring conformer: 40.71471699092263 kcal/mol)

>  <smiles>  (83) 
CC1(C)C=Cc2cc(CNc3ccc(F)cc3F)ccc2N1

>  <score_type>  (83) 
oracle

>  <origin>  (83) 
adg

>  <m_score__min__energy>  (83) 
-6.6699999999999999

>  <m_primary>  (83) 
energy

$$$$
83:0
     RDKit          3D

 53 55  0  0  0  0  0  0  0  0999 V2000
   60.5240   30.4620   52.1570 C   0  0  0  0  0  0  0  0  0  0  0  0
   60.2680   30.3940   50.7050 N   0  0  2  0  0  0  0  0  0  0  0  0
   59.9390   29.0060   50.2840 C   0  0  0  0  0  0  0  0  0  0  0  0
   60.8840   28.4050   49.2230 C   0  0  0  0  0  0  0  0  0  0  0  0
   60.3380   27.0640   48.7010 C   0  0  0  0  0  0  0  0  0  0  0  0
   60.2780   27.0620   47.2740 O   0  0  0  0  0  0  0  0  0  0  0  0
   59.2350   27.6160   46.5120 C   0  0  0  0  0  0  0  0  0  0  0  0
   57.9810   26.9870   46.3720 C   0  0  0  0  0  0  0  0  0  0  0  0
   56.9680   27.5840   45.6180 C   0  0  0  0  0  0  0  0  0  0  0  0
   57.1900   28.8160   44.9870 C   0  0  0  0  0  0  0  0  0  0  0  0
   56.1770   29.4280   44.2330 C   0  0  0  0  0  0  0  0  0  0  0  0
   56.4110   30.6560   43.6090 C   0  0  0  0  0  0  0  0  0  0  0  0
   57.6560   31.2800   43.7310 C   0  0  0  0  0  0  0  0  0  0  0  0
   58.6730   30.6810   44.4790 C   0  0  0  0  0  0  0  0  0  0  0  0
   58.4500   29.4480   45.1130 C   0  0  0  0  0  0  0  0  0  0  0  0
   59.4600   28.8410   45.8740 C   0  0  0  0  0  0  0  0  0  0  0  0
   61.3900   31.0290   49.9650 C   0  0  0  0  0  0  0  0  0  0  0  0
   60.9620   31.9000   48.7660 C   0  0  0  0  0  0  0  0  0  0  0  0
   59.1850   32.0860   48.6070 S   0  0  0  0  0  0  0  0  0  0  0  0
   58.6500   32.7850   49.8240 O   0  0  0  0  0  0  0  0  0  0  0  0
   58.5290   30.7370   48.5020 O   0  0  0  0  0  0  0  0  0  0  0  0
   58.8130   33.0620   47.1900 C   0  0  0  0  0  0  0  0  0  0  0  0
   57.5000   33.1590   46.7070 C   0  0  0  0  0  0  0  0  0  0  0  0
   57.2300   33.9040   45.5540 C   0  0  0  0  0  0  0  0  0  0  0  0
   58.2670   34.5550   44.8820 C   0  0  0  0  0  0  0  0  0  0  0  0
   59.5760   34.4610   45.3590 C   0  0  0  0  0  0  0  0  0  0  0  0
   59.8500   33.7170   46.5120 C   0  0  0  0  0  0  0  0  0  0  0  0
   59.6015   30.2170   52.7038 H   0  0  0  0  0  0  0  0  0  0  0  0
   61.3112   29.7418   52.4247 H   0  0  0  0  0  0  0  0  0  0  0  0
   60.8500   31.4779   52.4247 H   0  0  0  0  0  0  0  0  0  0  0  0
   59.4100   30.9730   50.5420 H   0  0  0  0  0  0  0  0  0  0  0  0
   59.9730   28.3620   51.1752 H   0  0  0  0  0  0  0  0  0  0  0  0
   58.9440   29.0540   49.8174 H   0  0  0  0  0  0  0  0  0  0  0  0
   60.9762   29.1085   48.3824 H   0  0  0  0  0  0  0  0  0  0  0  0
   61.8666   28.2295   49.6852 H   0  0  0  0  0  0  0  0  0  0  0  0
   60.9990   26.2508   49.0353 H   0  0  0  0  0  0  0  0  0  0  0  0
   59.3220   26.9188   49.0969 H   0  0  0  0  0  0  0  0  0  0  0  0
   57.7989   26.0184   46.8605 H   0  0  0  0  0  0  0  0  0  0  0  0
   55.9924   27.0856   45.5190 H   0  0  0  0  0  0  0  0  0  0  0  0
   55.1964   28.9398   44.1330 H   0  0  0  0  0  0  0  0  0  0  0  0
   55.6136   31.1330   43.0203 H   0  0  0  0  0  0  0  0  0  0  0  0
   57.8357   32.2460   43.2364 H   0  0  0  0  0  0  0  0  0  0  0  0
   59.6507   31.1765   44.5714 H   0  0  0  0  0  0  0  0  0  0  0  0
   60.4391   29.3331   45.9703 H   0  0  0  0  0  0  0  0  0  0  0  0
   61.9476   31.6649   50.6684 H   0  0  0  0  0  0  0  0  0  0  0  0
   61.9933   30.2073   49.5517 H   0  0  0  0  0  0  0  0  0  0  0  0
   61.4062   32.8991   48.8865 H   0  0  0  0  0  0  0  0  0  0  0  0
   61.3143   31.3906   47.8569 H   0  0  0  0  0  0  0  0  0  0  0  0
   56.6813   32.6486   47.2354 H   0  0  0  0  0  0  0  0  0  0  0  0
   56.1995   33.9771   45.1762 H   0  0  0  0  0  0  0  0  0  0  0  0
   58.0525   35.1419   43.9767 H   0  0  0  0  0  0  0  0  0  0  0  0
   60.3925   34.9722   44.8279 H   0  0  0  0  0  0  0  0  0  0  0  0
   60.8816   33.6461   46.8871 H   0  0  0  0  0  0  0  0  0  0  0  0
  1  2  1  0
  2  3  1  0
  3  4  1  0
  4  5  1  0
  5  6  1  0
  6  7  1  0
  7  8  2  0
  8  9  1  0
  9 10  2  0
 10 11  1  0
 11 12  2  0
 12 13  1  0
 13 14  2  0
 14 15  1  0
 15 16  2  0
  2 17  1  0
 17 18  1  0
 18 19  1  0
 19 20  2  0
 19 21  2  0
 19 22  1  0
 22 23  2  0
 23 24  1  0
 24 25  2  0
 25 26  1  0
 26 27  2  0
 16  7  1  0
 27 22  1  0
 15 10  1  0
  1 28  1  0
  1 29  1  0
  1 30  1  0
  2 31  1  1
  3 32  1  0
  3 33  1  0
  4 34  1  0
  4 35  1  0
  5 36  1  0
  5 37  1  0
  8 38  1  0
  9 39  1  0
 11 40  1  0
 12 41  1  0
 13 42  1  0
 14 43  1  0
 16 44  1  0
 17 45  1  0
 17 46  1  0
 18 47  1  0
 18 48  1  0
 23 49  1  0
 24 50  1  0
 25 51  1  0
 26 52  1  0
 27 53  1  0
M  CHG  1   2   1
M  END
>  <UniqueID>  (84) 
78

>  <SMILES>  (84) 
C[N@H+](CCCOc1ccc2ccccc2c1)CCS(=O)(=O)c1ccccc1

>  <Energy>  (84) 
56.14924369250176

>  <Genealogy>  (84) 
C[NH+](CCCOc1ccc2ccccc2c1)CCS(=O)(=O)c1ccccc1 (protonated)
C[N@H+](CCCOc1ccc2ccccc2c1)CCS(=O)(=O)c1ccccc1 (chirality)
C[N@H+](CCCOc1ccc2ccccc2c1)CCS(=O)(=O)c1ccccc1 (3D coordinates assigned)
C[N@H+](CCCOc1ccc2ccccc2c1)CCS(=O)(=O)c1ccccc1 (optimized conformer: 56.14924369250176 kcal/mol)

>  <smiles>  (84) 
CN(CCCOc1ccc2ccccc2c1)CCS(=O)(=O)c1ccccc1

>  <score_type>  (84) 
oracle

>  <origin>  (84) 
adg

>  <m_score__min__energy>  (84) 
-7.6900000000000004

>  <m_primary>  (84) 
energy

$$$$
84:0
     RDKit          3D

 50 52  0  0  0  0  0  0  0  0999 V2000
   57.4010   32.2660   41.4860 C   0  0  0  0  0  0  0  0  0  0  0  0
   57.9400   31.8680   42.7920 N   0  0  0  0  0  0  0  0  0  0  0  0
   57.8100   32.9760   43.7470 C   0  0  0  0  0  0  0  0  0  0  0  0
   57.1170   30.4370   43.3900 S   0  0  0  0  0  0  0  0  0  0  0  0
   56.3130   29.7880   42.2950 O   0  0  0  0  0  0  0  0  0  0  0  0
   56.1790   30.7870   44.5130 O   0  0  0  0  0  0  0  0  0  0  0  0
   58.2990   29.2900   43.9750 N   0  0  2  0  0  0  0  0  0  0  0  0
   57.7770   27.9020   43.9070 C   0  0  0  0  0  0  0  0  0  0  0  0
   57.3700   27.3720   45.2920 C   0  0  0  0  0  0  0  0  0  0  0  0
   58.4530   27.3520   46.2100 O   0  0  0  0  0  0  0  0  0  0  0  0
   59.3410   28.4600   46.0810 C   0  0  2  0  0  0  0  0  0  0  0  0
   59.8040   28.8850   47.4540 C   0  0  0  0  0  0  0  0  0  0  0  0
   60.2880   27.9350   48.3670 C   0  0  0  0  0  0  0  0  0  0  0  0
   60.7310   28.3330   49.6300 C   0  0  0  0  0  0  0  0  0  0  0  0
   60.7070   29.6820   49.9930 C   0  0  0  0  0  0  0  0  0  0  0  0
   61.1340   30.0410   51.2310 F   0  0  0  0  0  0  0  0  0  0  0  0
   60.2500   30.6500   49.0820 C   0  0  0  0  0  0  0  0  0  0  0  0
   60.1880   32.1060   49.4660 C   0  0  0  0  0  0  0  0  0  0  0  0
   59.9910   32.9600   48.2420 C   0  0  0  0  0  0  0  0  0  0  0  0
   61.0960   33.3820   47.4860 C   0  0  0  0  0  0  0  0  0  0  0  0
   60.9120   34.2050   46.3690 C   0  0  0  0  0  0  0  0  0  0  0  0
   59.6270   34.6160   46.0060 C   0  0  0  0  0  0  0  0  0  0  0  0
   58.5230   34.2090   46.7600 C   0  0  0  0  0  0  0  0  0  0  0  0
   58.7030   33.3870   47.8770 C   0  0  0  0  0  0  0  0  0  0  0  0
   59.7950   30.2420   47.8170 C   0  0  0  0  0  0  0  0  0  0  0  0
   58.7370   29.6730   45.3350 C   0  0  0  0  0  0  0  0  0  0  0  0
   56.5241   32.9135   41.6332 H   0  0  0  0  0  0  0  0  0  0  0  0
   58.1710   32.8139   40.9231 H   0  0  0  0  0  0  0  0  0  0  0  0
   57.1040   31.3688   40.9231 H   0  0  0  0  0  0  0  0  0  0  0  0
   57.8561   32.5828   44.7733 H   0  0  0  0  0  0  0  0  0  0  0  0
   58.6303   33.6922   43.5915 H   0  0  0  0  0  0  0  0  0  0  0  0
   56.8462   33.4829   43.5915 H   0  0  0  0  0  0  0  0  0  0  0  0
   59.1260   29.3590   43.3350 H   0  0  0  0  0  0  0  0  0  0  0  0
   56.8968   27.8854   43.2475 H   0  0  0  0  0  0  0  0  0  0  0  0
   58.5778   27.2562   43.5175 H   0  0  0  0  0  0  0  0  0  0  0  0
   56.5770   28.0178   45.6970 H   0  0  0  0  0  0  0  0  0  0  0  0
   57.0239   26.3358   45.1632 H   0  0  0  0  0  0  0  0  0  0  0  0
   60.1839   28.1158   45.4637 H   0  0  0  0  0  0  0  0  0  0  0  0
   60.3185   26.8719   48.0862 H   0  0  0  0  0  0  0  0  0  0  0  0
   61.1006   27.5809   50.3425 H   0  0  0  0  0  0  0  0  0  0  0  0
   59.3474   32.2636   50.1578 H   0  0  0  0  0  0  0  0  0  0  0  0
   61.1334   32.3890   49.9520 H   0  0  0  0  0  0  0  0  0  0  0  0
   62.1096   33.0649   47.7724 H   0  0  0  0  0  0  0  0  0  0  0  0
   61.7802   34.5286   45.7762 H   0  0  0  0  0  0  0  0  0  0  0  0
   59.4841   35.2604   45.1261 H   0  0  0  0  0  0  0  0  0  0  0  0
   57.5120   34.5353   46.4748 H   0  0  0  0  0  0  0  0  0  0  0  0
   57.8328   33.0734   48.4723 H   0  0  0  0  0  0  0  0  0  0  0  0
   59.4276   30.9936   47.1028 H   0  0  0  0  0  0  0  0  0  0  0  0
   57.8712   30.0489   45.8999 H   0  0  0  0  0  0  0  0  0  0  0  0
   59.5076   30.4533   45.2499 H   0  0  0  0  0  0  0  0  0  0  0  0
  1  2  1  0
  2  3  1  0
  2  4  1  0
  4  5  2  0
  4  6  2  0
  4  7  1  0
  7  8  1  0
  8  9  1  0
  9 10  1  0
 10 11  1  0
 11 12  1  0
 12 13  2  0
 13 14  1  0
 14 15  2  0
 15 16  1  0
 15 17  1  0
 17 18  1  0
 18 19  1  0
 19 20  2  0
 20 21  1  0
 21 22  2  0
 22 23  1  0
 23 24  2  0
 17 25  2  0
 11 26  1  0
 26  7  1  0
 25 12  1  0
 24 19  1  0
  1 27  1  0
  1 28  1  0
  1 29  1  0
  3 30  1  0
  3 31  1  0
  3 32  1  0
  7 33  1  6
  8 34  1  0
  8 35  1  0
  9 36  1  0
  9 37  1  0
 11 38  1  6
 13 39  1  0
 14 40  1  0
 18 41  1  0
 18 42  1  0
 20 43  1  0
 21 44  1  0
 22 45  1  0
 23 46  1  0
 24 47  1  0
 25 48  1  0
 26 49  1  0
 26 50  1  0
M  CHG  1   7   1
M  END
>  <UniqueID>  (85) 
79

>  <SMILES>  (85) 
CN(C)S(=O)(=O)[N@@H+]1CCO[C@H](c2ccc(F)c(Cc3ccccc3)c2)C1

>  <Energy>  (85) 
60.02566077262872

>  <Genealogy>  (85) 
CN(C)S(=O)(=O)[NH+]1CCOC(c2ccc(F)c(Cc3ccccc3)c2)C1 (protonated)
CN(C)S(=O)(=O)[N@@H+]1CCO[C@H](c2ccc(F)c(Cc3ccccc3)c2)C1 (chirality)
CN(C)S(=O)(=O)[N@@H+]1CCO[C@H](c2ccc(F)c(Cc3ccccc3)c2)C1 (3D coordinates assigned)
CN(C)S(=O)(=O)[N@@H+]1CCO[C@H](c2ccc(F)c(Cc3ccccc3)c2)C1 (nonaromatic ring conformer: 60.02566077262872 kcal/mol)

>  <smiles>  (85) 
CN(C)S(=O)(=O)N1CCOC(c2ccc(F)c(Cc3ccccc3)c2)C1

>  <score_type>  (85) 
oracle

>  <origin>  (85) 
adg

>  <m_score__min__energy>  (85) 
-7.3499999999999996

>  <m_primary>  (85) 
energy

$$$$
85:0
     RDKit          3D

 26 27  0  0  0  0  0  0  0  0999 V2000
   64.0420   33.4450   47.8740 C   0  0  0  0  0  0  0  0  0  0  0  0
   62.5650   33.5180   48.0910 C   0  0  0  0  0  0  0  0  0  0  0  0
   62.0460   34.1620   49.2220 C   0  0  0  0  0  0  0  0  0  0  0  0
   60.6620   34.2170   49.4040 C   0  0  0  0  0  0  0  0  0  0  0  0
   59.8140   33.6320   48.4630 C   0  0  0  0  0  0  0  0  0  0  0  0
   60.3660   32.9960   47.3450 C   0  0  0  0  0  0  0  0  0  0  0  0
   59.5160   32.3860   46.3620 C   0  0  0  0  0  0  0  0  0  0  0  0
   58.8010   31.8740   45.5360 C   0  0  0  0  0  0  0  0  0  0  0  0
   57.9480   31.2610   44.5520 C   0  0  0  0  0  0  0  0  0  0  0  0
   57.2200   30.1080   44.8740 C   0  0  0  0  0  0  0  0  0  0  0  0
   56.3920   29.5130   43.9150 C   0  0  0  0  0  0  0  0  0  0  0  0
   56.2900   30.0680   42.6360 C   0  0  0  0  0  0  0  0  0  0  0  0
   57.0160   31.2190   42.3130 C   0  0  0  0  0  0  0  0  0  0  0  0
   57.8450   31.8150   43.2690 C   0  0  0  0  0  0  0  0  0  0  0  0
   61.7160   32.9540   47.1870 N   0  0  0  0  0  0  0  0  0  0  0  0
   64.5547   33.4197   48.8469 H   0  0  0  0  0  0  0  0  0  0  0  0
   64.2848   32.5338   47.3077 H   0  0  0  0  0  0  0  0  0  0  0  0
   64.3735   34.3279   47.3077 H   0  0  0  0  0  0  0  0  0  0  0  0
   62.7217   34.6198   49.9594 H   0  0  0  0  0  0  0  0  0  0  0  0
   60.2417   34.7204   50.2872 H   0  0  0  0  0  0  0  0  0  0  0  0
   58.7230   33.6702   48.5984 H   0  0  0  0  0  0  0  0  0  0  0  0
   57.2991   29.6705   45.8801 H   0  0  0  0  0  0  0  0  0  0  0  0
   55.8209   28.6076   44.1681 H   0  0  0  0  0  0  0  0  0  0  0  0
   55.6387   29.5994   41.8835 H   0  0  0  0  0  0  0  0  0  0  0  0
   56.9350   31.6557   41.3067 H   0  0  0  0  0  0  0  0  0  0  0  0
   58.4166   32.7194   43.0135 H   0  0  0  0  0  0  0  0  0  0  0  0
  1  2  1  0
  2  3  2  0
  3  4  1  0
  4  5  2  0
  5  6  1  0
  6  7  1  0
  7  8  3  0
  8  9  1  0
  9 10  2  0
 10 11  1  0
 11 12  2  0
 12 13  1  0
 13 14  2  0
  6 15  2  0
 15  2  1  0
 14  9  1  0
  1 16  1  0
  1 17  1  0
  1 18  1  0
  3 19  1  0
  4 20  1  0
  5 21  1  0
 10 22  1  0
 11 23  1  0
 12 24  1  0
 13 25  1  0
 14 26  1  0
M  END
>  <UniqueID>  (86) 
80

>  <SMILES>  (86) 
Cc1cccc(C#Cc2ccccc2)n1

>  <Energy>  (86) 
21.917311456937732

>  <Genealogy>  (86) 
Cc1cccc(C#Cc2ccccc2)n1 (3D coordinates assigned)
Cc1cccc(C#Cc2ccccc2)n1 (optimized conformer: 21.917311456937732 kcal/mol)

>  <smiles>  (86) 
Cc1cccc(C#Cc2ccccc2)n1

>  <score_type>  (86) 
oracle

>  <origin>  (86) 
adg

>  <m_score__min__energy>  (86) 
-5.4000000000000004

>  <m_primary>  (86) 
energy

$$$$
86:0
     RDKit          3D

 63 67  0  0  0  0  0  0  0  0999 V2000
   63.0820   33.0750   46.7570 C   0  0  0  0  0  0  0  0  0  0  0  0
   61.7400   33.8200   46.8390 C   0  0  0  0  0  0  0  0  0  0  0  0
   60.8190   33.5100   48.0940 C   0  0  1  0  0  0  0  0  0  0  0  0
   59.6310   34.5490   47.9980 C   0  0  0  0  0  0  0  0  0  0  0  0
   59.5430   35.3950   46.7000 C   0  0  0  0  0  0  0  0  0  0  0  0
   58.5750   34.8090   45.7440 N   0  0  0  0  0  0  0  0  0  0  0  0
   59.2600   34.2460   44.5500 C   0  0  0  0  0  0  0  0  0  0  0  0
   58.4630   33.1220   43.8790 C   0  0  0  0  0  0  0  0  0  0  0  0
   58.2040   32.0490   44.8490 N   0  0  0  0  0  0  0  0  0  0  0  0
   58.0570   30.6790   44.4130 C   0  0  0  0  0  0  0  0  0  0  0  0
   58.9100   29.6730   44.9070 C   0  0  0  0  0  0  0  0  0  0  0  0
   58.7650   28.3480   44.4830 C   0  0  0  0  0  0  0  0  0  0  0  0
   57.7680   28.0110   43.5640 C   0  0  0  0  0  0  0  0  0  0  0  0
   56.9140   28.9980   43.0680 C   0  0  0  0  0  0  0  0  0  0  0  0
   57.0550   30.3250   43.4870 C   0  0  0  0  0  0  0  0  0  0  0  0
   58.0720   32.3990   46.2690 C   0  0  0  0  0  0  0  0  0  0  0  0
   57.6460   33.8640   46.4170 C   0  0  0  0  0  0  0  0  0  0  0  0
   60.3970   31.9970   48.1470 C   0  0  0  0  0  0  0  0  0  0  0  0
   61.1350   31.0270   47.4050 C   0  0  0  0  0  0  0  0  0  0  0  0
   60.8980   29.6610   47.5230 C   0  0  0  0  0  0  0  0  0  0  0  0
   59.9460   29.1920   48.4090 C   0  0  0  0  0  0  0  0  0  0  0  0
   59.2270   30.0890   49.1840 C   0  0  0  0  0  0  0  0  0  0  0  0
   59.4370   31.4810   49.0860 C   0  0  0  0  0  0  0  0  0  0  0  0
   58.5330   32.3390   49.9400 C   0  0  0  0  0  0  0  0  0  0  0  0
   59.3290   33.4690   51.1290 S   0  0  0  0  0  0  0  0  0  0  0  0
   61.0750   33.3620   50.6930 C   0  0  0  0  0  0  0  0  0  0  0  0
   61.9220   33.1400   51.7880 C   0  0  0  0  0  0  0  0  0  0  0  0
   63.2850   33.3890   51.7000 C   0  0  0  0  0  0  0  0  0  0  0  0
   63.8160   33.8940   50.5220 C   0  0  0  0  0  0  0  0  0  0  0  0
   63.0040   34.0680   49.4020 C   0  0  0  0  0  0  0  0  0  0  0  0
   61.6200   33.7320   49.4200 C   0  0  0  0  0  0  0  0  0  0  0  0
   63.4505   32.8704   47.7731 H   0  0  0  0  0  0  0  0  0  0  0  0
   62.9420   32.1255   46.2196 H   0  0  0  0  0  0  0  0  0  0  0  0
   63.8139   33.6960   46.2196 H   0  0  0  0  0  0  0  0  0  0  0  0
   61.9588   34.8980   46.8462 H   0  0  0  0  0  0  0  0  0  0  0  0
   61.1651   33.4693   45.9693 H   0  0  0  0  0  0  0  0  0  0  0  0
   58.6898   33.9877   48.0936 H   0  0  0  0  0  0  0  0  0  0  0  0
   59.8190   35.2755   48.8023 H   0  0  0  0  0  0  0  0  0  0  0  0
   59.2207   36.4148   46.9574 H   0  0  0  0  0  0  0  0  0  0  0  0
   60.5355   35.4103   46.2259 H   0  0  0  0  0  0  0  0  0  0  0  0
   59.4111   35.0538   43.8188 H   0  0  0  0  0  0  0  0  0  0  0  0
   60.2142   33.8166   44.8892 H   0  0  0  0  0  0  0  0  0  0  0  0
   57.5061   33.5215   43.5120 H   0  0  0  0  0  0  0  0  0  0  0  0
   59.0432   32.7180   43.0363 H   0  0  0  0  0  0  0  0  0  0  0  0
   59.6962   29.9313   45.6317 H   0  0  0  0  0  0  0  0  0  0  0  0
   59.4371   27.5699   44.8738 H   0  0  0  0  0  0  0  0  0  0  0  0
   57.6559   26.9685   43.2314 H   0  0  0  0  0  0  0  0  0  0  0  0
   56.1283   28.7313   42.3459 H   0  0  0  0  0  0  0  0  0  0  0  0
   56.3794   31.0976   43.0912 H   0  0  0  0  0  0  0  0  0  0  0  0
   57.3137   31.7516   46.7336 H   0  0  0  0  0  0  0  0  0  0  0  0
   59.0434   32.2563   46.7651 H   0  0  0  0  0  0  0  0  0  0  0  0
   56.6447   33.9841   45.9778 H   0  0  0  0  0  0  0  0  0  0  0  0
   57.6543   34.1025   47.4908 H   0  0  0  0  0  0  0  0  0  0  0  0
   61.9194   31.3715   46.7150 H   0  0  0  0  0  0  0  0  0  0  0  0
   61.4708   28.9509   46.9084 H   0  0  0  0  0  0  0  0  0  0  0  0
   59.7597   28.1116   48.4987 H   0  0  0  0  0  0  0  0  0  0  0  0
   58.4760   29.7070   49.8912 H   0  0  0  0  0  0  0  0  0  0  0  0
   57.9212   32.9514   49.2613 H   0  0  0  0  0  0  0  0  0  0  0  0
   57.9719   31.6256   50.5614 H   0  0  0  0  0  0  0  0  0  0  0  0
   61.5002   32.7628   52.7313 H   0  0  0  0  0  0  0  0  0  0  0  0
   63.9405   33.1869   52.5599 H   0  0  0  0  0  0  0  0  0  0  0  0
   64.8826   34.1584   50.4713 H   0  0  0  0  0  0  0  0  0  0  0  0
   63.4440   34.4756   48.4799 H   0  0  0  0  0  0  0  0  0  0  0  0
  1  2  1  0
  3  2  1  6
  3  4  1  0
  4  5  1  0
  5  6  1  0
  6  7  1  0
  7  8  1  0
  8  9  1  0
  9 10  1  0
 10 11  2  0
 11 12  1  0
 12 13  2  0
 13 14  1  0
 14 15  2  0
  9 16  1  0
 16 17  1  0
  3 18  1  0
 18 19  2  0
 19 20  1  0
 20 21  2  0
 21 22  1  0
 22 23  2  0
 23 24  1  0
 24 25  1  0
 25 26  1  0
 26 27  2  0
 27 28  1  0
 28 29  2  0
 29 30  1  0
 30 31  2  0
 31  3  1  0
 17  6  1  0
 23 18  1  0
 31 26  1  0
 15 10  1  0
  1 32  1  0
  1 33  1  0
  1 34  1  0
  2 35  1  0
  2 36  1  0
  4 37  1  0
  4 38  1  0
  5 39  1  0
  5 40  1  0
  7 41  1  0
  7 42  1  0
  8 43  1  0
  8 44  1  0
 11 45  1  0
 12 46  1  0
 13 47  1  0
 14 48  1  0
 15 49  1  0
 16 50  1  0
 16 51  1  0
 17 52  1  0
 17 53  1  0
 19 54  1  0
 20 55  1  0
 21 56  1  0
 22 57  1  0
 24 58  1  0
 24 59  1  0
 27 60  1  0
 28 61  1  0
 29 62  1  0
 30 63  1  0
M  END
>  <UniqueID>  (87) 
81

>  <SMILES>  (87) 
CC[C@@]1(CCN2CCN(c3ccccc3)CC2)c2ccccc2CSc2ccccc21

>  <Energy>  (87) 
131.00742242076436

>  <Genealogy>  (87) 
CC[C@@]1(CCN2CCN(c3ccccc3)CC2)c2ccccc2CSc2ccccc21 (chirality)
CC[C@@]1(CCN2CCN(c3ccccc3)CC2)c2ccccc2CSc2ccccc21 (3D coordinates assigned)
CC[C@@]1(CCN2CCN(c3ccccc3)CC2)c2ccccc2CSc2ccccc21 (nonaromatic ring conformer: 131.00742242076436 kcal/mol)

>  <smiles>  (87) 
CCC1(CCN2CCN(c3ccccc3)CC2)c2ccccc2CSc2ccccc21

>  <score_type>  (87) 
oracle

>  <origin>  (87) 
adg

>  <m_score__min__energy>  (87) 
-9.5500000000000007

>  <m_primary>  (87) 
energy

$$$$
87:0
     RDKit          3D

 29 30  0  0  0  0  0  0  0  0999 V2000
   56.3125   32.5119   45.1012 H   0  0  0  0  0  0  0  0  0  0  0  0
   57.3650   32.7620   44.9020 C   0  0  0  0  0  0  0  0  0  0  0  0
   57.8800   32.4820   43.7430 N   0  0  0  0  0  0  0  0  0  0  0  0
   57.5270   31.2840   42.9880 C   0  0  0  0  0  0  0  0  0  0  0  0
   58.3261   31.0629   42.2652 H   0  0  0  0  0  0  0  0  0  0  0  0
   56.5781   31.4619   42.4608 H   0  0  0  0  0  0  0  0  0  0  0  0
   57.3570   30.1070   43.9160 C   0  0  0  0  0  0  0  0  0  0  0  0
   58.4500   29.2910   44.2370 C   0  0  0  0  0  0  0  0  0  0  0  0
   59.4458   29.5221   43.8308 H   0  0  0  0  0  0  0  0  0  0  0  0
   58.2820   28.2150   45.0490 N   0  0  0  0  0  0  0  0  0  0  0  0
   57.0630   27.9110   45.5650 C   0  0  0  0  0  0  0  0  0  0  0  0
   56.8970   26.7020   46.4250 C   0  0  0  0  0  0  0  0  0  0  0  0
   56.9375   26.9969   47.4839 H   0  0  0  0  0  0  0  0  0  0  0  0
   55.9258   26.2313   46.2124 H   0  0  0  0  0  0  0  0  0  0  0  0
   57.7054   25.9870   46.2124 H   0  0  0  0  0  0  0  0  0  0  0  0
   55.9830   28.6720   45.2460 N   0  0  0  0  0  0  0  0  0  0  0  0
   56.1010   29.7580   44.4380 C   0  0  0  0  0  0  0  0  0  0  0  0
   55.0770   30.4380   44.1630 O   0  0  0  0  0  0  0  0  0  0  0  0
   58.1700   33.4110   45.9570 C   0  0  0  0  0  0  0  0  0  0  0  0
   58.8870   34.5970   45.7080 C   0  0  0  0  0  0  0  0  0  0  0  0
   58.8538   35.0584   44.7100 H   0  0  0  0  0  0  0  0  0  0  0  0
   59.6410   35.1900   46.7250 C   0  0  0  0  0  0  0  0  0  0  0  0
   60.1979   36.1173   46.5254 H   0  0  0  0  0  0  0  0  0  0  0  0
   59.6890   34.6080   47.9940 C   0  0  0  0  0  0  0  0  0  0  0  0
   60.2844   35.0758   48.7919 H   0  0  0  0  0  0  0  0  0  0  0  0
   58.9800   33.4310   48.2490 C   0  0  0  0  0  0  0  0  0  0  0  0
   59.0166   32.9734   49.2487 H   0  0  0  0  0  0  0  0  0  0  0  0
   58.2240   32.8340   47.2350 C   0  0  0  0  0  0  0  0  0  0  0  0
   57.6686   31.9070   47.4405 H   0  0  0  0  0  0  0  0  0  0  0  0
  1  2  1  0
  2  3  2  0
  3  4  1  0
  4  5  1  0
  4  6  1  0
  4  7  1  0
  7  8  2  0
  8  9  1  0
  8 10  1  0
 10 11  1  0
 11 12  1  0
 12 13  1  0
 12 14  1  0
 12 15  1  0
 11 16  2  0
 16 17  1  0
 17 18  2  0
  2 19  1  0
 19 20  2  0
 20 21  1  0
 20 22  1  0
 22 23  1  0
 22 24  2  0
 24 25  1  0
 24 26  1  0
 26 27  1  0
 26 28  2  0
 28 29  1  0
 17  7  1  0
 28 19  1  0
M  CHG  1  10  -1
M  END
>  <UniqueID>  (88) 
82

>  <SMILES>  (88) 
Cc1nc(=O)c(C/N=C/c2ccccc2)c[n-]1

>  <Energy>  (88) 
27.624303304487285

>  <Genealogy>  (88) 
Cc1nc(=O)c(CN=Cc2ccccc2)c[n-]1 (protonated)
Cc1nc(=O)c(C/N=C/c2ccccc2)c[n-]1 (cis-trans isomerization)
Cc1nc(=O)c(C/N=C/c2ccccc2)c[n-]1 (3D coordinates assigned)
Cc1nc(=O)c(C/N=C/c2ccccc2)c[n-]1 (optimized conformer: 27.624303304487285 kcal/mol)

>  <smiles>  (88) 
Cc1nc(=O)c(CN=Cc2ccccc2)c[nH]1

>  <score_type>  (88) 
oracle

>  <origin>  (88) 
adg

>  <m_score__min__energy>  (88) 
-8.4299999999999997

>  <m_primary>  (88) 
energy

$$$$
88:0
     RDKit          3D

 33 34  0  0  0  0  0  0  0  0999 V2000
   54.3280   26.2740   46.3780 H   0  0  0  0  0  0  0  0  0  0  0  0
   55.1410   26.6930   45.9940 O   0  0  0  0  0  0  0  0  0  0  0  0
   56.0740   25.6630   45.8100 C   0  0  0  0  0  0  0  0  0  0  0  0
   56.3991   25.6544   44.7592 H   0  0  0  0  0  0  0  0  0  0  0  0
   55.5988   24.7061   46.0718 H   0  0  0  0  0  0  0  0  0  0  0  0
   57.2930   25.8670   46.7100 C   0  0  0  0  0  0  0  0  0  0  0  0
   57.9282   24.9699   46.6676 H   0  0  0  0  0  0  0  0  0  0  0  0
   56.9489   26.0403   47.7403 H   0  0  0  0  0  0  0  0  0  0  0  0
   58.0670   27.0250   46.2700 N   0  0  0  0  0  0  0  0  0  0  0  0
   59.4050   27.0680   46.1030 C   0  0  0  0  0  0  0  0  0  0  0  0
   60.1055   26.2498   46.3263 H   0  0  0  0  0  0  0  0  0  0  0  0
   59.7500   28.3100   45.6050 C   0  0  0  0  0  0  0  0  0  0  0  0
   60.7548   28.6823   45.3566 H   0  0  0  0  0  0  0  0  0  0  0  0
   58.5460   28.9780   45.4900 C   0  0  0  0  0  0  0  0  0  0  0  0
   58.4310   30.1900   45.0270 N   0  0  0  0  0  0  0  0  0  0  0  0
   57.2310   30.9110   44.7080 C   0  0  0  0  0  0  0  0  0  0  0  0
   56.0980   30.3590   44.7520 O   0  0  0  0  0  0  0  0  0  0  0  0
   57.3180   32.3740   44.4100 C   0  0  0  0  0  0  0  0  0  0  0  0
   57.8116   32.5184   43.4376 H   0  0  0  0  0  0  0  0  0  0  0  0
   56.3027   32.7963   44.3810 H   0  0  0  0  0  0  0  0  0  0  0  0
   58.1120   33.0740   45.4800 C   0  0  0  0  0  0  0  0  0  0  0  0
   57.8420   32.8150   46.8350 C   0  0  0  0  0  0  0  0  0  0  0  0
   57.0342   32.1208   47.1099 H   0  0  0  0  0  0  0  0  0  0  0  0
   58.5970   33.4370   47.8350 C   0  0  0  0  0  0  0  0  0  0  0  0
   58.3773   33.2356   48.8939 H   0  0  0  0  0  0  0  0  0  0  0  0
   59.6290   34.3130   47.4920 C   0  0  0  0  0  0  0  0  0  0  0  0
   60.2187   34.8033   48.2806 H   0  0  0  0  0  0  0  0  0  0  0  0
   59.9130   34.5670   46.1480 C   0  0  0  0  0  0  0  0  0  0  0  0
   60.7282   35.2553   45.8800 H   0  0  0  0  0  0  0  0  0  0  0  0
   59.1630   33.9480   45.1420 C   0  0  0  0  0  0  0  0  0  0  0  0
   59.4630   34.1990   43.8420 F   0  0  0  0  0  0  0  0  0  0  0  0
   57.5370   28.1770   45.8910 N   0  0  0  0  0  0  0  0  0  0  0  0
   56.5120   28.3670   45.8860 H   0  0  0  0  0  0  0  0  0  0  0  0
  1  2  1  0
  2  3  1  0
  3  4  1  0
  3  5  1  0
  3  6  1  0
  6  7  1  0
  6  8  1  0
  6  9  1  0
  9 10  1  0
 10 11  1  0
 10 12  2  0
 12 13  1  0
 12 14  1  0
 14 15  2  0
 15 16  1  0
 16 17  2  0
 16 18  1  0
 18 19  1  0
 18 20  1  0
 18 21  1  0
 21 22  2  0
 22 23  1  0
 22 24  1  0
 24 25  1  0
 24 26  2  0
 26 27  1  0
 26 28  1  0
 28 29  1  0
 28 30  2  0
 30 31  1  0
 14 32  1  0
 32 33  1  0
 32  9  1  0
 30 21  1  0
M  END
>  <UniqueID>  (89) 
83

>  <SMILES>  (89) 
O=C(Cc1ccccc1F)/N=c1/ccn(CCO)[nH]1

>  <Energy>  (89) 
63.586570580748436

>  <Genealogy>  (89) 
O=C(Cc1ccccc1F)/N=c1/ccn(CCO)[nH]1 (cis-trans isomerization)
O=C(Cc1ccccc1F)/N=c1/ccn(CCO)[nH]1 (3D coordinates assigned)
O=C(Cc1ccccc1F)/N=c1/ccn(CCO)[nH]1 (optimized conformer: 63.586570580748436 kcal/mol)

>  <smiles>  (89) 
O=C(Cc1ccccc1F)N=c1ccn(CCO)[nH]1

>  <score_type>  (89) 
oracle

>  <origin>  (89) 
adg

>  <m_score__min__energy>  (89) 
-7.6100000000000003

>  <m_primary>  (89) 
energy

$$$$
89:0
     RDKit          3D

 28 29  0  0  0  0  0  0  0  0999 V2000
   57.1370   33.5440   45.9150 C   0  0  0  0  0  0  0  0  0  0  0  0
   57.7740   33.1270   47.0860 C   0  0  0  0  0  0  0  0  0  0  0  0
   59.1480   33.3320   47.2480 C   0  0  0  0  0  0  0  0  0  0  0  0
   59.8950   33.9510   46.2310 C   0  0  0  0  0  0  0  0  0  0  0  0
   61.3670   34.2150   46.4240 C   0  0  0  0  0  0  0  0  0  0  0  0
   62.1270   32.9390   46.8080 C   0  0  0  0  0  0  0  0  0  0  0  0
   62.8860   33.1120   48.0990 C   0  0  0  0  0  0  0  0  0  0  0  0
   62.3280   33.8530   49.1520 C   0  0  0  0  0  0  0  0  0  0  0  0
   63.0640   34.0430   50.3230 C   0  0  0  0  0  0  0  0  0  0  0  0
   64.3450   33.5000   50.4330 C   0  0  0  0  0  0  0  0  0  0  0  0
   64.8740   32.7750   49.3630 C   0  0  0  0  0  0  0  0  0  0  0  0
   64.1450   32.5980   48.2260 N   0  0  0  0  0  0  0  0  0  0  0  0
   59.2440   34.3750   45.0600 C   0  0  0  0  0  0  0  0  0  0  0  0
   57.8700   34.1680   44.9030 C   0  0  0  0  0  0  0  0  0  0  0  0
   56.0564   33.3807   45.7896 H   0  0  0  0  0  0  0  0  0  0  0  0
   57.1942   32.6367   47.8819 H   0  0  0  0  0  0  0  0  0  0  0  0
   59.6454   33.0079   48.1740 H   0  0  0  0  0  0  0  0  0  0  0  0
   61.7843   34.6098   45.4859 H   0  0  0  0  0  0  0  0  0  0  0  0
   61.4806   34.9411   47.2425 H   0  0  0  0  0  0  0  0  0  0  0  0
   61.4066   32.1160   46.9251 H   0  0  0  0  0  0  0  0  0  0  0  0
   62.8512   32.7169   46.0104 H   0  0  0  0  0  0  0  0  0  0  0  0
   61.3191   34.2806   49.0556 H   0  0  0  0  0  0  0  0  0  0  0  0
   62.6356   34.6190   51.1565 H   0  0  0  0  0  0  0  0  0  0  0  0
   64.9317   33.6416   51.3527 H   0  0  0  0  0  0  0  0  0  0  0  0
   65.8837   32.3451   49.4387 H   0  0  0  0  0  0  0  0  0  0  0  0
   64.5700   32.0610   47.4380 H   0  0  0  0  0  0  0  0  0  0  0  0
   59.8176   34.8718   44.2636 H   0  0  0  0  0  0  0  0  0  0  0  0
   57.3662   34.4968   43.9821 H   0  0  0  0  0  0  0  0  0  0  0  0
  1  2  2  0
  2  3  1  0
  3  4  2  0
  4  5  1  0
  5  6  1  0
  6  7  1  0
  7  8  2  0
  8  9  1  0
  9 10  2  0
 10 11  1  0
 11 12  2  0
  4 13  1  0
 13 14  2  0
 14  1  1  0
 12  7  1  0
  1 15  1  0
  2 16  1  0
  3 17  1  0
  5 18  1  0
  5 19  1  0
  6 20  1  0
  6 21  1  0
  8 22  1  0
  9 23  1  0
 10 24  1  0
 11 25  1  0
 12 26  1  0
 13 27  1  0
 14 28  1  0
M  CHG  1  12   1
M  END
>  <UniqueID>  (90) 
84

>  <SMILES>  (90) 
c1ccc(CCc2cccc[nH+]2)cc1

>  <Energy>  (90) 
24.46611889304744

>  <Genealogy>  (90) 
c1ccc(CCc2cccc[nH+]2)cc1 (protonated)
c1ccc(CCc2cccc[nH+]2)cc1 (3D coordinates assigned)
c1ccc(CCc2cccc[nH+]2)cc1 (optimized conformer: 24.46611889304744 kcal/mol)

>  <smiles>  (90) 
c1ccc(CCc2ccccn2)cc1

>  <score_type>  (90) 
oracle

>  <origin>  (90) 
adg

>  <m_score__min__energy>  (90) 
-4.5599999999999996

>  <m_primary>  (90) 
energy

$$$$
90:0
     RDKit          3D

 45 48  0  0  0  0  0  0  0  0999 V2000
   56.2980   29.4220   42.5790 C   0  0  0  0  0  0  0  0  0  0  0  0
   56.6140   30.6940   43.2470 N   0  0  0  0  0  0  0  0  0  0  0  0
   57.3770   31.5730   42.3470 C   0  0  0  0  0  0  0  0  0  0  0  0
   57.3470   30.4620   44.5060 C   0  0  0  0  0  0  0  0  0  0  0  0
   57.1190   31.5250   45.4340 O   0  0  0  0  0  0  0  0  0  0  0  0
   57.9380   32.6560   45.5640 C   0  0  0  0  0  0  0  0  0  0  0  0
   57.7740   33.8020   44.7650 C   0  0  0  0  0  0  0  0  0  0  0  0
   58.6170   34.9040   44.9350 C   0  0  0  0  0  0  0  0  0  0  0  0
   59.6280   34.8740   45.8980 C   0  0  0  0  0  0  0  0  0  0  0  0
   59.8050   33.7370   46.7040 C   0  0  0  0  0  0  0  0  0  0  0  0
   60.8760   33.7090   47.7210 C   0  0  0  0  0  0  0  0  0  0  0  0
   62.1930   33.5400   47.4220 N   0  0  0  0  0  0  0  0  0  0  0  0
   62.7660   33.5830   48.6360 C   0  0  0  0  0  0  0  0  0  0  0  0
   64.1170   33.4640   48.9480 C   0  0  0  0  0  0  0  0  0  0  0  0
   64.4980   33.5430   50.3120 C   0  0  0  0  0  0  0  0  0  0  0  0
   65.9280   33.4200   50.6870 C   0  0  0  0  0  0  0  0  0  0  0  0
   66.3460   33.6120   51.8910 N   0  0  0  0  0  0  0  0  0  0  0  0
   67.7880   33.4190   51.9560 C   0  0  0  0  0  0  0  0  0  0  0  0
   68.2070   33.0420   50.5280 C   0  0  0  0  0  0  0  0  0  0  0  0
   66.9640   33.0760   49.7820 N   0  0  0  0  0  0  0  0  0  0  0  0
   63.4930   33.7330   51.3030 C   0  0  0  0  0  0  0  0  0  0  0  0
   62.1370   33.8490   50.9420 C   0  0  0  0  0  0  0  0  0  0  0  0
   61.8210   33.7680   49.5930 C   0  0  0  0  0  0  0  0  0  0  0  0
   60.6500   33.8450   49.0200 O   0  0  0  0  0  0  0  0  0  0  0  0
   58.9540   32.6320   46.5290 C   0  0  0  0  0  0  0  0  0  0  0  0
   56.1057   28.6479   43.3365 H   0  0  0  0  0  0  0  0  0  0  0  0
   55.4044   29.5500   41.9505 H   0  0  0  0  0  0  0  0  0  0  0  0
   57.1477   29.1169   41.9505 H   0  0  0  0  0  0  0  0  0  0  0  0
   57.9830   32.2711   42.9432 H   0  0  0  0  0  0  0  0  0  0  0  0
   58.0375   30.9638   41.7125 H   0  0  0  0  0  0  0  0  0  0  0  0
   56.6810   32.1413   41.7125 H   0  0  0  0  0  0  0  0  0  0  0  0
   57.0062   29.5159   44.9517 H   0  0  0  0  0  0  0  0  0  0  0  0
   58.4230   30.4165   44.2822 H   0  0  0  0  0  0  0  0  0  0  0  0
   56.9801   33.8311   44.0042 H   0  0  0  0  0  0  0  0  0  0  0  0
   58.4836   35.7980   44.3081 H   0  0  0  0  0  0  0  0  0  0  0  0
   60.2885   35.7443   46.0260 H   0  0  0  0  0  0  0  0  0  0  0  0
   64.8683   33.3129   48.1589 H   0  0  0  0  0  0  0  0  0  0  0  0
   68.2877   34.3464   52.2727 H   0  0  0  0  0  0  0  0  0  0  0  0
   68.0672   32.6441   52.6851 H   0  0  0  0  0  0  0  0  0  0  0  0
   68.9257   33.7709   50.1252 H   0  0  0  0  0  0  0  0  0  0  0  0
   68.7075   32.0639   50.4760 H   0  0  0  0  0  0  0  0  0  0  0  0
   66.8670   32.8170   48.7770 H   0  0  0  0  0  0  0  0  0  0  0  0
   63.7796   33.7898   52.3635 H   0  0  0  0  0  0  0  0  0  0  0  0
   61.3560   33.9985   51.7020 H   0  0  0  0  0  0  0  0  0  0  0  0
   59.0870   31.7384   47.1565 H   0  0  0  0  0  0  0  0  0  0  0  0
  1  2  1  0
  2  3  1  0
  2  4  1  0
  4  5  1  0
  5  6  1  0
  6  7  2  0
  7  8  1  0
  8  9  2  0
  9 10  1  0
 10 11  1  0
 11 12  2  0
 12 13  1  0
 13 14  2  0
 14 15  1  0
 15 16  1  0
 16 17  2  0
 17 18  1  0
 18 19  1  0
 19 20  1  0
 15 21  2  0
 21 22  1  0
 22 23  2  0
 23 24  1  0
 10 25  2  0
 25  6  1  0
 24 11  1  0
 23 13  1  0
 20 16  1  0
  1 26  1  0
  1 27  1  0
  1 28  1  0
  3 29  1  0
  3 30  1  0
  3 31  1  0
  4 32  1  0
  4 33  1  0
  7 34  1  0
  8 35  1  0
  9 36  1  0
 14 37  1  0
 18 38  1  0
 18 39  1  0
 19 40  1  0
 19 41  1  0
 20 42  1  0
 21 43  1  0
 22 44  1  0
 25 45  1  0
M  END
>  <UniqueID>  (91) 
85

>  <SMILES>  (91) 
CN(C)COc1cccc(-c2nc3cc(C4=NCCN4)ccc3o2)c1

>  <Energy>  (91) 
98.91059294862062

>  <Genealogy>  (91) 
CN(C)COc1cccc(-c2nc3cc(C4=NCCN4)ccc3o2)c1 (3D coordinates assigned)
CN(C)COc1cccc(-c2nc3cc(C4=NCCN4)ccc3o2)c1 (nonaromatic ring conformer: 98.91059294862062 kcal/mol)

>  <smiles>  (91) 
CN(C)COc1cccc(-c2nc3cc(C4=NCCN4)ccc3o2)c1

>  <score_type>  (91) 
oracle

>  <origin>  (91) 
adg

>  <m_score__min__energy>  (91) 
-7.7400000000000002

>  <m_primary>  (91) 
energy

$$$$
91:0
     RDKit          3D

 33 35  0  0  0  0  0  0  0  0999 V2000
   65.4640   33.1590   50.5300 C   0  0  0  0  0  0  0  0  0  0  0  0
   64.3060   33.9850   50.4420 O   0  0  0  0  0  0  0  0  0  0  0  0
   63.3060   33.8460   49.4680 C   0  0  0  0  0  0  0  0  0  0  0  0
   61.9930   34.1860   49.8100 C   0  0  0  0  0  0  0  0  0  0  0  0
   60.9610   34.0640   48.8770 C   0  0  0  0  0  0  0  0  0  0  0  0
   61.2240   33.5980   47.5770 C   0  0  0  0  0  0  0  0  0  0  0  0
   60.1180   33.4750   46.5970 C   0  0  0  0  0  0  0  0  0  0  0  0
   59.6520   32.3240   45.9840 C   0  0  0  0  0  0  0  0  0  0  0  0
   58.6370   32.6990   45.1810 N   0  0  0  0  0  0  0  0  0  0  0  0
   57.8350   31.8480   44.3380 C   0  0  0  0  0  0  0  0  0  0  0  0
   57.8170   32.0320   42.9430 C   0  0  0  0  0  0  0  0  0  0  0  0
   57.0370   31.2060   42.1290 C   0  0  0  0  0  0  0  0  0  0  0  0
   56.2680   30.1880   42.6960 C   0  0  0  0  0  0  0  0  0  0  0  0
   56.2780   29.9930   44.0790 C   0  0  0  0  0  0  0  0  0  0  0  0
   55.5370   28.9990   44.6270 F   0  0  0  0  0  0  0  0  0  0  0  0
   57.0550   30.8180   44.8980 C   0  0  0  0  0  0  0  0  0  0  0  0
   58.4970   34.0110   45.3020 N   0  0  0  0  0  0  0  0  0  0  0  0
   59.3800   34.5140   46.1500 N   0  0  0  0  0  0  0  0  0  0  0  0
   62.5450   33.2570   47.2330 C   0  0  0  0  0  0  0  0  0  0  0  0
   63.5770   33.3800   48.1680 C   0  0  0  0  0  0  0  0  0  0  0  0
   65.7098   32.9837   51.5878 H   0  0  0  0  0  0  0  0  0  0  0  0
   65.2664   32.1967   50.0351 H   0  0  0  0  0  0  0  0  0  0  0  0
   66.3096   33.6591   50.0351 H   0  0  0  0  0  0  0  0  0  0  0  0
   61.7713   34.5528   50.8231 H   0  0  0  0  0  0  0  0  0  0  0  0
   59.9336   34.3348   49.1618 H   0  0  0  0  0  0  0  0  0  0  0  0
   60.0356   31.3028   46.1251 H   0  0  0  0  0  0  0  0  0  0  0  0
   58.4212   32.8318   42.4899 H   0  0  0  0  0  0  0  0  0  0  0  0
   57.0290   31.3582   41.0396 H   0  0  0  0  0  0  0  0  0  0  0  0
   55.6542   29.5395   42.0535 H   0  0  0  0  0  0  0  0  0  0  0  0
   57.0570   30.6614   45.9868 H   0  0  0  0  0  0  0  0  0  0  0  0
   57.8050   34.5930   44.7820 H   0  0  0  0  0  0  0  0  0  0  0  0
   62.7676   32.8906   46.2200 H   0  0  0  0  0  0  0  0  0  0  0  0
   64.6058   33.1113   47.8862 H   0  0  0  0  0  0  0  0  0  0  0  0
  1  2  1  0
  2  3  1  0
  3  4  2  0
  4  5  1  0
  5  6  2  0
  6  7  1  0
  7  8  2  0
  8  9  1  0
  9 10  1  0
 10 11  2  0
 11 12  1  0
 12 13  2  0
 13 14  1  0
 14 15  1  0
 14 16  2  0
  9 17  1  0
 17 18  2  0
  6 19  1  0
 19 20  2  0
 20  3  1  0
 18  7  1  0
 16 10  1  0
  1 21  1  0
  1 22  1  0
  1 23  1  0
  4 24  1  0
  5 25  1  0
  8 26  1  0
 11 27  1  0
 12 28  1  0
 13 29  1  0
 16 30  1  0
 17 31  1  0
 19 32  1  0
 20 33  1  0
M  CHG  1  17   1
M  END
>  <UniqueID>  (92) 
86

>  <SMILES>  (92) 
COc1ccc(-c2cn(-c3cccc(F)c3)[nH+]n2)cc1

>  <Energy>  (92) 
74.83269868803984

>  <Genealogy>  (92) 
COc1ccc(-c2cn(-c3cccc(F)c3)[nH+]n2)cc1 (protonated)
COc1ccc(-c2cn(-c3cccc(F)c3)[nH+]n2)cc1 (3D coordinates assigned)
COc1ccc(-c2cn(-c3cccc(F)c3)[nH+]n2)cc1 (optimized conformer: 74.83269868803984 kcal/mol)

>  <smiles>  (92) 
COc1ccc(-c2cn(-c3cccc(F)c3)nn2)cc1

>  <score_type>  (92) 
oracle

>  <origin>  (92) 
adg

>  <m_score__min__energy>  (92) 
-5.6500000000000004

>  <m_primary>  (92) 
energy

$$$$
92:0
     RDKit          3D

 36 38  0  0  0  0  0  0  0  0999 V2000
   55.1620   29.4660   45.1730 O   0  0  0  0  0  0  0  0  0  0  0  0
   56.3770   29.4710   44.8340 C   0  0  0  0  0  0  0  0  0  0  0  0
   56.9810   30.7220   44.3250 C   0  0  0  0  0  0  0  0  0  0  0  0
   57.1280   30.9360   42.9440 C   0  0  0  0  0  0  0  0  0  0  0  0
   57.7120   32.1130   42.4680 C   0  0  0  0  0  0  0  0  0  0  0  0
   58.1650   33.0830   43.3670 C   0  0  0  0  0  0  0  0  0  0  0  0
   58.0400   32.8730   44.7440 C   0  0  0  0  0  0  0  0  0  0  0  0
   58.6680   34.1960   45.9700 Br  0  0  0  0  0  0  0  0  0  0  0  0
   57.4560   31.6950   45.2220 C   0  0  0  0  0  0  0  0  0  0  0  0
   57.1460   28.2600   44.9430 N   0  0  0  0  0  0  0  0  0  0  0  0
   56.9990   27.4040   46.1260 C   0  0  0  0  0  0  0  0  0  0  0  0
   56.6270   25.9830   45.6950 C   0  0  0  0  0  0  0  0  0  0  0  0
   57.4950   25.5010   44.6060 N   0  0  0  0  0  0  0  0  0  0  0  0
   57.4050   24.1200   44.1980 C   0  0  0  0  0  0  0  0  0  0  0  0
   58.2450   23.1850   44.7260 N   0  0  0  0  0  0  0  0  0  0  0  0
   58.1700   21.8810   44.3540 C   0  0  0  0  0  0  0  0  0  0  0  0
   57.2210   21.4790   43.4170 C   0  0  0  0  0  0  0  0  0  0  0  0
   56.3660   22.4410   42.8850 C   0  0  0  0  0  0  0  0  0  0  0  0
   56.4720   23.7350   43.2820 N   0  0  0  0  0  0  0  0  0  0  0  0
   58.5140   26.3930   44.0290 C   0  0  0  0  0  0  0  0  0  0  0  0
   57.9290   27.7910   43.7890 C   0  0  0  0  0  0  0  0  0  0  0  0
   56.7810   30.1719   42.2328 H   0  0  0  0  0  0  0  0  0  0  0  0
   57.8153   32.2763   41.3851 H   0  0  0  0  0  0  0  0  0  0  0  0
   58.6198   34.0115   42.9913 H   0  0  0  0  0  0  0  0  0  0  0  0
   57.3679   31.5290   46.3058 H   0  0  0  0  0  0  0  0  0  0  0  0
   57.9489   27.3806   46.6801 H   0  0  0  0  0  0  0  0  0  0  0  0
   56.2040   27.8080   46.7700 H   0  0  0  0  0  0  0  0  0  0  0  0
   56.7306   25.3095   46.5585 H   0  0  0  0  0  0  0  0  0  0  0  0
   55.5900   25.9954   45.3282 H   0  0  0  0  0  0  0  0  0  0  0  0
   58.8580   21.1430   44.7922 H   0  0  0  0  0  0  0  0  0  0  0  0
   57.1486   20.4268   43.1047 H   0  0  0  0  0  0  0  0  0  0  0  0
   55.6058   22.1528   42.1441 H   0  0  0  0  0  0  0  0  0  0  0  0
   59.3632   26.4701   44.7239 H   0  0  0  0  0  0  0  0  0  0  0  0
   58.8483   25.9768   43.0672 H   0  0  0  0  0  0  0  0  0  0  0  0
   58.7537   28.4960   43.6078 H   0  0  0  0  0  0  0  0  0  0  0  0
   57.2578   27.7366   42.9192 H   0  0  0  0  0  0  0  0  0  0  0  0
  1  2  2  0
  2  3  1  0
  3  4  2  0
  4  5  1  0
  5  6  2  0
  6  7  1  0
  7  8  1  0
  7  9  2  0
  2 10  1  0
 10 11  1  0
 11 12  1  0
 12 13  1  0
 13 14  1  0
 14 15  2  0
 15 16  1  0
 16 17  2  0
 17 18  1  0
 18 19  2  0
 13 20  1  0
 20 21  1  0
  9  3  1  0
 21 10  1  0
 19 14  1  0
  4 22  1  0
  5 23  1  0
  6 24  1  0
  9 25  1  0
 11 26  1  0
 11 27  1  0
 12 28  1  0
 12 29  1  0
 16 30  1  0
 17 31  1  0
 18 32  1  0
 20 33  1  0
 20 34  1  0
 21 35  1  0
 21 36  1  0
M  END
>  <UniqueID>  (93) 
87

>  <SMILES>  (93) 
O=C(c1cccc(Br)c1)N1CCN(c2ncccn2)CC1

>  <Energy>  (93) 
44.86538825183685

>  <Genealogy>  (93) 
O=C(c1cccc(Br)c1)N1CCN(c2ncccn2)CC1 (3D coordinates assigned)
O=C(c1cccc(Br)c1)N1CCN(c2ncccn2)CC1 (nonaromatic ring conformer: 44.86538825183685 kcal/mol)

>  <smiles>  (93) 
O=C(c1cccc(Br)c1)N1CCN(c2ncccn2)CC1

>  <score_type>  (93) 
oracle

>  <origin>  (93) 
adg

>  <m_score__min__energy>  (93) 
-7.75

>  <m_primary>  (93) 
energy

$$$$
93:0
     RDKit          3D

 40 42  0  0  0  0  0  0  0  0999 V2000
   56.9130   25.1350   45.2260 C   0  0  0  0  0  0  0  0  0  0  0  0
   56.5300   26.4950   45.7300 C   0  0  0  0  0  0  0  0  0  0  0  0
   55.3180   26.7130   46.0020 O   0  0  0  0  0  0  0  0  0  0  0  0
   57.5340   27.5770   45.9160 C   0  0  0  0  0  0  0  0  0  0  0  0
   57.3630   28.8440   45.3250 C   0  0  0  0  0  0  0  0  0  0  0  0
   58.3170   29.8490   45.5090 C   0  0  0  0  0  0  0  0  0  0  0  0
   59.4670   29.6090   46.2710 C   0  0  0  0  0  0  0  0  0  0  0  0
   60.4230   30.6660   46.4590 N   0  0  0  0  0  0  0  0  0  0  0  0
   61.1850   30.8550   47.6590 C   0  0  0  0  0  0  0  0  0  0  0  0
   61.1640   29.9930   48.5780 O   0  0  0  0  0  0  0  0  0  0  0  0
   62.0280   31.9990   47.7940 N   0  0  0  0  0  0  0  0  0  0  0  0
   63.3470   32.2760   48.4100 C   0  0  0  0  0  0  0  0  0  0  0  0
   64.1710   31.6130   49.0910 O   0  0  0  0  0  0  0  0  0  0  0  0
   63.2980   33.6710   47.8720 C   0  0  0  0  0  0  0  0  0  0  0  0
   62.0030   33.3680   47.3230 C   0  0  2  0  0  0  0  0  0  0  0  0
   60.6180   34.3550   48.0430 S   0  0  0  0  0  0  0  0  0  0  0  0
   59.3610   34.0380   46.7900 C   0  0  0  0  0  0  0  0  0  0  0  0
   59.5900   34.4090   45.4580 C   0  0  0  0  0  0  0  0  0  0  0  0
   58.6200   34.1640   44.4830 C   0  0  0  0  0  0  0  0  0  0  0  0
   57.4060   33.5690   44.8380 C   0  0  0  0  0  0  0  0  0  0  0  0
   57.1570   33.2320   46.1720 C   0  0  0  0  0  0  0  0  0  0  0  0
   58.1280   33.4740   47.1490 C   0  0  0  0  0  0  0  0  0  0  0  0
   59.6330   28.3550   46.8810 C   0  0  0  0  0  0  0  0  0  0  0  0
   58.6800   27.3480   46.6990 C   0  0  0  0  0  0  0  0  0  0  0  0
   57.1011   24.4672   46.0796 H   0  0  0  0  0  0  0  0  0  0  0  0
   56.0949   24.7268   44.6144 H   0  0  0  0  0  0  0  0  0  0  0  0
   57.8239   25.2137   44.6144 H   0  0  0  0  0  0  0  0  0  0  0  0
   56.4710   29.0444   44.7133 H   0  0  0  0  0  0  0  0  0  0  0  0
   58.1629   30.8372   45.0511 H   0  0  0  0  0  0  0  0  0  0  0  0
   60.6730   31.2530   45.6320 H   0  0  0  0  0  0  0  0  0  0  0  0
   63.2941   34.4565   48.6420 H   0  0  0  0  0  0  0  0  0  0  0  0
   64.1070   34.0695   47.2421 H   0  0  0  0  0  0  0  0  0  0  0  0
   61.8397   33.5636   46.2529 H   0  0  0  0  0  0  0  0  0  0  0  0
   60.5368   34.8948   45.1793 H   0  0  0  0  0  0  0  0  0  0  0  0
   58.8117   34.4394   43.4354 H   0  0  0  0  0  0  0  0  0  0  0  0
   56.6469   33.3660   44.0683 H   0  0  0  0  0  0  0  0  0  0  0  0
   56.1963   32.7760   46.4533 H   0  0  0  0  0  0  0  0  0  0  0  0
   57.9245   33.2217   48.2002 H   0  0  0  0  0  0  0  0  0  0  0  0
   60.5180   28.1638   47.5057 H   0  0  0  0  0  0  0  0  0  0  0  0
   58.8280   26.3665   47.1731 H   0  0  0  0  0  0  0  0  0  0  0  0
  1  2  1  0
  2  3  2  0
  2  4  1  0
  4  5  2  0
  5  6  1  0
  6  7  2  0
  7  8  1  0
  8  9  1  0
  9 10  2  0
  9 11  1  0
 11 12  1  0
 12 13  2  0
 12 14  1  0
 14 15  1  0
 15 16  1  0
 16 17  1  0
 17 18  2  0
 18 19  1  0
 19 20  2  0
 20 21  1  0
 21 22  2  0
  7 23  1  0
 23 24  2  0
 24  4  1  0
 15 11  1  0
 22 17  1  0
  1 25  1  0
  1 26  1  0
  1 27  1  0
  5 28  1  0
  6 29  1  0
  8 30  1  0
 14 31  1  0
 14 32  1  0
 15 33  1  6
 18 34  1  0
 19 35  1  0
 20 36  1  0
 21 37  1  0
 22 38  1  0
 23 39  1  0
 24 40  1  0
M  END
>  <UniqueID>  (94) 
88

>  <SMILES>  (94) 
CC(=O)c1ccc(NC(=O)N2C(=O)C[C@@H]2Sc2ccccc2)cc1

>  <Energy>  (94) 
74.25542863671777

>  <Genealogy>  (94) 
CC(=O)c1ccc(NC(=O)N2C(=O)C[C@@H]2Sc2ccccc2)cc1 (chirality)
CC(=O)c1ccc(NC(=O)N2C(=O)C[C@@H]2Sc2ccccc2)cc1 (3D coordinates assigned)
CC(=O)c1ccc(NC(=O)N2C(=O)C[C@@H]2Sc2ccccc2)cc1 (nonaromatic ring conformer: 74.25542863671777 kcal/mol)

>  <smiles>  (94) 
CC(=O)c1ccc(NC(=O)N2C(=O)CC2Sc2ccccc2)cc1

>  <score_type>  (94) 
oracle

>  <origin>  (94) 
adg

>  <m_score__min__energy>  (94) 
-8.1899999999999995

>  <m_primary>  (94) 
energy

$$$$
94:0
     RDKit          3D

 26 27  0  0  0  0  0  0  0  0999 V2000
   59.1791   35.4269   44.8385 H   0  0  0  0  0  0  0  0  0  0  0  0
   58.8250   34.4660   45.2400 C   0  0  0  0  0  0  0  0  0  0  0  0
   58.9860   34.1740   46.5920 C   0  0  0  0  0  0  0  0  0  0  0  0
   59.4670   34.9010   47.2629 H   0  0  0  0  0  0  0  0  0  0  0  0
   58.5300   32.9460   47.0910 C   0  0  0  0  0  0  0  0  0  0  0  0
   58.6490   32.6410   48.5540 C   0  0  0  0  0  0  0  0  0  0  0  0
   58.3102   33.5092   49.1383 H   0  0  0  0  0  0  0  0  0  0  0  0
   58.0253   31.7685   48.7986 H   0  0  0  0  0  0  0  0  0  0  0  0
   59.6987   32.4214   48.7986 H   0  0  0  0  0  0  0  0  0  0  0  0
   57.9150   32.0600   46.2530 N   0  0  0  0  0  0  0  0  0  0  0  0
   57.5290   31.1840   46.6690 H   0  0  0  0  0  0  0  0  0  0  0  0
   57.7710   32.3180   44.9130 C   0  0  0  0  0  0  0  0  0  0  0  0
   57.2040   31.4680   44.1020 N   0  0  0  0  0  0  0  0  0  0  0  0
   56.3540   30.3710   44.4610 C   0  0  0  0  0  0  0  0  0  0  0  0
   55.1180   30.4580   44.2380 O   0  0  0  0  0  0  0  0  0  0  0  0
   56.9060   29.1120   45.0020 C   0  0  0  0  0  0  0  0  0  0  0  0
   58.2320   28.8990   45.3380 C   0  0  0  0  0  0  0  0  0  0  0  0
   59.0601   29.6179   45.2520 H   0  0  0  0  0  0  0  0  0  0  0  0
   58.3040   27.6010   45.8030 C   0  0  0  0  0  0  0  0  0  0  0  0
   59.8790   26.7130   46.4150 Br  0  0  0  0  0  0  0  0  0  0  0  0
   57.0260   27.0830   45.7390 C   0  0  0  0  0  0  0  0  0  0  0  0
   56.4970   25.3230   46.2540 Br  0  0  0  0  0  0  0  0  0  0  0  0
   56.1760   28.0060   45.2540 N   0  0  0  0  0  0  0  0  0  0  0  0
   55.1490   27.8830   45.1160 H   0  0  0  0  0  0  0  0  0  0  0  0
   58.2150   33.5400   44.3960 C   0  0  0  0  0  0  0  0  0  0  0  0
   58.0831   33.7687   43.3282 H   0  0  0  0  0  0  0  0  0  0  0  0
  1  2  1  0
  2  3  1  0
  3  4  1  0
  3  5  2  0
  5  6  1  0
  6  7  1  0
  6  8  1  0
  6  9  1  0
  5 10  1  0
 10 11  1  0
 10 12  1  0
 12 13  2  0
 13 14  1  0
 14 15  2  0
 14 16  1  0
 16 17  2  0
 17 18  1  0
 17 19  1  0
 19 20  1  0
 19 21  2  0
 21 22  1  0
 21 23  1  0
 23 24  1  0
 12 25  1  0
 25 26  1  0
 25  2  2  0
 23 16  1  0
M  END
>  <UniqueID>  (95) 
89

>  <SMILES>  (95) 
Cc1ccc/c(=N/C(=O)c2cc(Br)c(Br)[nH]2)[nH]1

>  <Energy>  (95) 
59.33829813007906

>  <Genealogy>  (95) 
Cc1ccc/c(=N/C(=O)c2cc(Br)c(Br)[nH]2)[nH]1 (cis-trans isomerization)
Cc1ccc/c(=N/C(=O)c2cc(Br)c(Br)[nH]2)[nH]1 (3D coordinates assigned)
Cc1ccc/c(=N/C(=O)c2cc(Br)c(Br)[nH]2)[nH]1 (optimized conformer: 59.33829813007906 kcal/mol)

>  <smiles>  (95) 
Cc1cccc(=NC(=O)c2cc(Br)c(Br)[nH]2)[nH]1

>  <score_type>  (95) 
oracle

>  <origin>  (95) 
adg

>  <m_score__min__energy>  (95) 
-7.3700000000000001

>  <m_primary>  (95) 
energy

$$$$
95:0
     RDKit          3D

 35 37  0  0  0  0  0  0  0  0999 V2000
   59.6600   35.4170   46.1200 C   0  0  0  0  0  0  0  0  0  0  0  0
   59.2490   33.9740   46.1230 C   0  0  0  0  0  0  0  0  0  0  0  0
   58.1240   33.5570   45.3970 C   0  0  0  0  0  0  0  0  0  0  0  0
   57.7610   32.2070   45.3710 C   0  0  0  0  0  0  0  0  0  0  0  0
   58.5280   31.2480   46.0580 C   0  0  0  0  0  0  0  0  0  0  0  0
   58.1450   29.8140   46.0300 C   0  0  0  0  0  0  0  0  0  0  0  0
   57.0450   29.3820   45.2660 C   0  0  0  0  0  0  0  0  0  0  0  0
   56.6870   28.0310   45.2380 C   0  0  0  0  0  0  0  0  0  0  0  0
   57.4240   27.0910   45.9690 C   0  0  0  0  0  0  0  0  0  0  0  0
   56.9930   25.3850   45.9290 S   0  0  0  0  0  0  0  0  0  0  0  0
   57.6370   24.6900   47.0950 O   0  0  0  0  0  0  0  0  0  0  0  0
   55.5030   25.2110   46.0140 O   0  0  0  0  0  0  0  0  0  0  0  0
   57.5590   24.6740   44.4550 N   0  0  0  0  0  0  0  0  0  0  0  0
   57.2710   23.3200   44.1110 C   0  0  0  0  0  0  0  0  0  0  0  0
   56.1530   22.8780   43.4480 C   0  0  0  0  0  0  0  0  0  0  0  0
   56.2700   21.5410   43.3360 N   0  0  0  0  0  0  0  0  0  0  0  0
   57.4180   21.2140   43.9130 N   0  0  0  0  0  0  0  0  0  0  0  0
   58.0570   22.2690   44.3980 N   0  0  0  0  0  0  0  0  0  0  0  0
   58.5180   27.5130   46.7340 C   0  0  0  0  0  0  0  0  0  0  0  0
   58.8760   28.8640   46.7660 C   0  0  0  0  0  0  0  0  0  0  0  0
   59.6660   31.6700   46.7680 C   0  0  0  0  0  0  0  0  0  0  0  0
   60.0260   33.0210   46.7960 C   0  0  0  0  0  0  0  0  0  0  0  0
   59.7610   35.7716   47.1564 H   0  0  0  0  0  0  0  0  0  0  0  0
   60.6239   35.5226   45.6007 H   0  0  0  0  0  0  0  0  0  0  0  0
   58.8964   36.0147   45.6007 H   0  0  0  0  0  0  0  0  0  0  0  0
   57.5241   34.2957   44.8452 H   0  0  0  0  0  0  0  0  0  0  0  0
   56.8691   31.8923   44.8093 H   0  0  0  0  0  0  0  0  0  0  0  0
   56.4623   30.1131   44.6863 H   0  0  0  0  0  0  0  0  0  0  0  0
   55.8234   27.7051   44.6397 H   0  0  0  0  0  0  0  0  0  0  0  0
   55.3217   23.4968   43.0792 H   0  0  0  0  0  0  0  0  0  0  0  0
   57.7770   20.2360   43.9810 H   0  0  0  0  0  0  0  0  0  0  0  0
   59.0981   26.7787   47.3121 H   0  0  0  0  0  0  0  0  0  0  0  0
   59.7359   29.1866   47.3714 H   0  0  0  0  0  0  0  0  0  0  0  0
   60.2782   30.9312   47.3059 H   0  0  0  0  0  0  0  0  0  0  0  0
   60.9230   33.3373   47.3487 H   0  0  0  0  0  0  0  0  0  0  0  0
  1  2  1  0
  2  3  2  0
  3  4  1  0
  4  5  2  0
  5  6  1  0
  6  7  2  0
  7  8  1  0
  8  9  2  0
  9 10  1  0
 10 11  2  0
 10 12  2  0
 10 13  1  0
 13 14  1  0
 14 15  2  0
 15 16  1  0
 16 17  1  0
 17 18  2  0
  9 19  1  0
 19 20  2  0
  5 21  1  0
 21 22  2  0
 22  2  1  0
 20  6  1  0
 18 14  1  0
  1 23  1  0
  1 24  1  0
  1 25  1  0
  3 26  1  0
  4 27  1  0
  7 28  1  0
  8 29  1  0
 15 30  1  0
 17 31  1  0
 19 32  1  0
 20 33  1  0
 21 34  1  0
 22 35  1  0
M  CHG  3  13  -1  16  -1  17   1
M  END
>  <UniqueID>  (96) 
90

>  <SMILES>  (96) 
Cc1ccc(-c2ccc(S(=O)(=O)[N-]c3c[n-][nH+]n3)cc2)cc1

>  <Energy>  (96) 
78.23365627226215

>  <Genealogy>  (96) 
Cc1ccc(-c2ccc(S(=O)(=O)[N-]c3c[n-][nH+]n3)cc2)cc1 (protonated)
Cc1ccc(-c2ccc(S(=O)(=O)[N-]c3c[n-][nH+]n3)cc2)cc1 (3D coordinates assigned)
Cc1ccc(-c2ccc(S(=O)(=O)[N-]c3c[n-][nH+]n3)cc2)cc1 (optimized conformer: 78.23365627226215 kcal/mol)

>  <smiles>  (96) 
Cc1ccc(-c2ccc(S(=O)(=O)Nc3c[nH]nn3)cc2)cc1

>  <score_type>  (96) 
oracle

>  <origin>  (96) 
adg

>  <m_score__min__energy>  (96) 
-9.5899999999999999

>  <m_primary>  (96) 
energy

$$$$
