0:0
     RDKit          3D

 56 59  0  0  0  0  0  0  0  0999 V2000
   59.3240   34.7156   45.8341 H   0  0  0  0  0  0  0  0  0  0  0  0
   58.9810   33.6960   46.0640 C   0  0  0  0  0  0  0  0  0  0  0  0
   58.1460   33.0520   45.2060 N   0  0  0  0  0  0  0  0  0  0  0  0
   57.6980   31.7860   45.4440 C   0  0  0  0  0  0  0  0  0  0  0  0
   56.8840   31.1990   44.6180 N   0  0  0  0  0  0  0  0  0  0  0  0
   57.2600   30.1340   43.6880 C   0  0  0  0  0  0  0  0  0  0  0  0
   57.8867   30.5570   42.8890 H   0  0  0  0  0  0  0  0  0  0  0  0
   56.3446   29.6957   43.2637 H   0  0  0  0  0  0  0  0  0  0  0  0
   58.0300   29.0520   44.4000 C   0  0  0  0  0  0  0  0  0  0  0  0
   59.4280   29.1280   44.5150 C   0  0  0  0  0  0  0  0  0  0  0  0
   59.9668   29.9855   44.0855 H   0  0  0  0  0  0  0  0  0  0  0  0
   60.1370   28.1200   45.1720 C   0  0  0  0  0  0  0  0  0  0  0  0
   61.2313   28.1871   45.2611 H   0  0  0  0  0  0  0  0  0  0  0  0
   59.4590   27.0270   45.7160 C   0  0  0  0  0  0  0  0  0  0  0  0
   60.0204   26.2381   46.2380 H   0  0  0  0  0  0  0  0  0  0  0  0
   58.0660   26.9320   45.5990 C   0  0  0  0  0  0  0  0  0  0  0  0
   57.2100   25.5550   46.2840 S   0  0  0  0  0  0  0  0  0  0  0  0
   57.4720   25.4760   47.7630 O   0  0  0  0  0  0  0  0  0  0  0  0
   57.6940   24.2870   45.6390 O   0  0  0  0  0  0  0  0  0  0  0  0
   55.5140   25.7340   46.0040 N   0  0  0  0  0  0  0  0  0  0  0  0
   55.1440   26.3500   46.7610 H   0  0  0  0  0  0  0  0  0  0  0  0
   55.4070   26.2600   45.1070 H   0  0  0  0  0  0  0  0  0  0  0  0
   57.3540   27.9500   44.9480 C   0  0  0  0  0  0  0  0  0  0  0  0
   56.2590   27.8847   44.8662 H   0  0  0  0  0  0  0  0  0  0  0  0
   58.1210   31.1120   46.5940 C   0  0  0  0  0  0  0  0  0  0  0  0
   57.7781   30.0857   46.7918 H   0  0  0  0  0  0  0  0  0  0  0  0
   58.9810   31.7500   47.4890 C   0  0  0  0  0  0  0  0  0  0  0  0
   59.3262   31.2220   48.3901 H   0  0  0  0  0  0  0  0  0  0  0  0
   59.4060   33.0640   47.2410 C   0  0  0  0  0  0  0  0  0  0  0  0
   60.3090   33.7510   48.1890 C   0  0  0  0  0  0  0  0  0  0  0  0
   60.5730   34.9720   48.0090 O   0  0  0  0  0  0  0  0  0  0  0  0
   60.9060   33.0490   49.2950 N   0  0  0  0  0  0  0  0  0  0  0  0
   61.1550   33.7470   50.5650 C   0  0  0  0  0  0  0  0  0  0  0  0
   60.8180   34.7906   50.4795 H   0  0  0  0  0  0  0  0  0  0  0  0
   60.6014   33.2415   51.3699 H   0  0  0  0  0  0  0  0  0  0  0  0
   62.6530   33.7220   50.8910 C   0  0  0  0  0  0  0  0  0  0  0  0
   63.1659   34.4754   50.2752 H   0  0  0  0  0  0  0  0  0  0  0  0
   62.7781   33.9420   51.9615 H   0  0  0  0  0  0  0  0  0  0  0  0
   63.2400   32.4000   50.6180 N   0  0  0  0  0  0  0  0  0  0  0  0
   64.6730   32.2440   50.6290 C   0  0  0  0  0  0  0  0  0  0  0  0
   65.5050   33.2590   50.1210 C   0  0  0  0  0  0  0  0  0  0  0  0
   65.0593   34.1711   49.6974 H   0  0  0  0  0  0  0  0  0  0  0  0
   66.8950   33.1140   50.1520 C   0  0  0  0  0  0  0  0  0  0  0  0
   67.5390   33.9099   49.7497 H   0  0  0  0  0  0  0  0  0  0  0  0
   67.4680   31.9600   50.6930 C   0  0  0  0  0  0  0  0  0  0  0  0
   68.5620   31.8476   50.7166 H   0  0  0  0  0  0  0  0  0  0  0  0
   66.6500   30.9490   51.2040 C   0  0  0  0  0  0  0  0  0  0  0  0
   67.1013   30.0408   51.6301 H   0  0  0  0  0  0  0  0  0  0  0  0
   65.2590   31.0890   51.1750 C   0  0  0  0  0  0  0  0  0  0  0  0
   64.6201   30.2912   51.5816 H   0  0  0  0  0  0  0  0  0  0  0  0
   62.3660   31.2790   50.2480 C   0  0  0  0  0  0  0  0  0  0  0  0
   62.9818   30.4213   49.9397 H   0  0  0  0  0  0  0  0  0  0  0  0
   61.7480   30.9974   51.1133 H   0  0  0  0  0  0  0  0  0  0  0  0
   61.4560   31.6960   49.0880 C   0  0  0  0  0  0  0  0  0  0  0  0
   62.0381   31.6852   48.1547 H   0  0  0  0  0  0  0  0  0  0  0  0
   60.6175   30.9861   49.0333 H   0  0  0  0  0  0  0  0  0  0  0  0
  1  2  1  0
  2  3  1  0
  3  4  1  0
  4  5  2  0
  5  6  1  0
  6  7  1  0
  6  8  1  0
  6  9  1  0
  9 10  2  0
 10 11  1  0
 10 12  1  0
 12 13  1  0
 12 14  2  0
 14 15  1  0
 14 16  1  0
 16 17  1  0
 17 18  2  0
 17 19  2  0
 17 20  1  0
 20 21  1  0
 20 22  1  0
 16 23  2  0
 23 24  1  0
  4 25  1  0
 25 26  1  0
 25 27  2  0
 27 28  1  0
 27 29  1  0
 29 30  1  0
 30 31  2  0
 30 32  1  0
 32 33  1  0
 33 34  1  0
 33 35  1  0
 33 36  1  0
 36 37  1  0
 36 38  1  0
 36 39  1  0
 39 40  1  0
 40 41  2  0
 41 42  1  0
 41 43  1  0
 43 44  1  0
 43 45  2  0
 45 46  1  0
 45 47  1  0
 47 48  1  0
 47 49  2  0
 49 50  1  0
 39 51  1  0
 51 52  1  0
 51 53  1  0
 51 54  1  0
 54 55  1  0
 54 56  1  0
 29  2  2  0
 54 32  1  0
 23  9  1  0
 49 40  1  0
M  CHG  1   3  -1
M  END
>  <UniqueID>  (1) 
1

>  <SMILES>  (1) 
NS(=O)(=O)c1cccc(C/N=c2/ccc(C(=O)N3CCN(c4ccccc4)CC3)c[n-]2)c1

>  <Energy>  (1) 
68.31749837758618

>  <Genealogy>  (1) 
NS(=O)(=O)c1cccc(CN=c2ccc(C(=O)N3CCN(c4ccccc4)CC3)c[n-]2)c1 (protonated)
NS(=O)(=O)c1cccc(C/N=c2/ccc(C(=O)N3CCN(c4ccccc4)CC3)c[n-]2)c1 (cis-trans isomerization)
NS(=O)(=O)c1cccc(C/N=c2/ccc(C(=O)N3CCN(c4ccccc4)CC3)c[n-]2)c1 (3D coordinates assigned)
NS(=O)(=O)c1cccc(C/N=c2/ccc(C(=O)N3CCN(c4ccccc4)CC3)c[n-]2)c1 (nonaromatic ring conformer: 68.31749837758618 kcal/mol)

>  <smiles>  (1) 
NS(=O)(=O)c1cccc(CN=c2ccc(C(=O)N3CCN(c4ccccc4)CC3)c[nH]2)c1

>  <score_type>  (1) 
oracle

>  <origin>  (1) 
adg

>  <m_score__min__energy>  (1) 
-10.75

>  <m_primary>  (1) 
energy

$$$$
1:0
     RDKit          3D

 79 83  0  0  0  0  0  0  0  0999 V2000
   56.2750   29.6460   42.6870 N   0  0  0  0  0  0  0  0  0  0  0  0
   57.0440   30.8510   42.6440 C   0  0  0  0  0  0  0  0  0  0  0  0
   56.9060   31.6350   41.6670 O   0  0  0  0  0  0  0  0  0  0  0  0
   57.9250   31.2370   43.8020 C   0  0  1  0  0  0  0  0  0  0  0  0
   57.1560   32.0830   44.8500 C   0  0  0  0  0  0  0  0  0  0  0  0
   57.8280   33.4350   45.1440 C   0  0  0  0  0  0  0  0  0  0  0  0
   58.4190   33.4920   46.5290 C   0  0  0  0  0  0  0  0  0  0  0  0
   58.0550   32.5340   47.4890 C   0  0  0  0  0  0  0  0  0  0  0  0
   58.5890   32.5910   48.7790 C   0  0  0  0  0  0  0  0  0  0  0  0
   59.4880   33.6060   49.1200 C   0  0  0  0  0  0  0  0  0  0  0  0
   59.8500   34.5690   48.1750 C   0  0  0  0  0  0  0  0  0  0  0  0
   59.3200   34.5160   46.8810 C   0  0  0  0  0  0  0  0  0  0  0  0
   58.4420   30.0140   44.4110 N   0  0  0  0  0  0  0  0  0  0  0  0
   57.7040   29.0920   45.2320 C   0  0  0  0  0  0  0  0  0  0  0  0
   56.5320   29.4000   45.5780 O   0  0  0  0  0  0  0  0  0  0  0  0
   58.2440   27.7340   45.6190 C   0  0  2  0  0  0  0  0  0  0  0  0
   57.3570   26.6100   45.0560 C   0  0  0  0  0  0  0  0  0  0  0  0
   57.1060   25.5370   46.0740 C   0  0  0  0  0  0  0  0  0  0  0  0
   58.0150   24.6010   46.5070 C   0  0  0  0  0  0  0  0  0  0  0  0
   57.4290   23.8270   47.4360 N   0  0  0  0  0  0  0  0  0  0  0  0
   56.1780   24.3260   47.5420 C   0  0  0  0  0  0  0  0  0  0  0  0
   55.9420   25.3740   46.7250 N   0  0  0  0  0  0  0  0  0  0  0  0
   58.2880   27.6470   47.0760 N   0  0  0  0  0  0  0  0  0  0  0  0
   59.4950   27.4750   47.8230 C   0  0  0  0  0  0  0  0  0  0  0  0
   59.9940   26.3260   47.9750 O   0  0  0  0  0  0  0  0  0  0  0  0
   60.1880   28.6710   48.4070 C   0  0  1  0  0  0  0  0  0  0  0  0
   60.1190   29.8790   47.4570 C   0  0  0  0  0  0  0  0  0  0  0  0
   61.1890   30.8990   47.7560 C   0  0  0  0  0  0  0  0  0  0  0  0
   61.5230   31.8790   46.8070 C   0  0  0  0  0  0  0  0  0  0  0  0
   62.5110   32.8280   47.0930 C   0  0  0  0  0  0  0  0  0  0  0  0
   63.1640   32.8080   48.3320 C   0  0  0  0  0  0  0  0  0  0  0  0
   62.8260   31.8470   49.2880 C   0  0  0  0  0  0  0  0  0  0  0  0
   61.8370   30.8990   49.0040 C   0  0  0  0  0  0  0  0  0  0  0  0
   59.5470   29.0030   49.6750 N   0  0  0  0  0  0  0  0  0  0  0  0
   60.0460   28.5930   50.9520 C   0  0  0  0  0  0  0  0  0  0  0  0
   61.0870   27.8820   51.0310 O   0  0  0  0  0  0  0  0  0  0  0  0
   59.2590   28.9350   52.1790 C   0  0  0  0  0  0  0  0  0  0  0  0
   58.5400   30.2450   52.0460 C   0  0  0  0  0  0  0  0  0  0  0  0
   57.2250   30.4200   51.6230 C   0  0  0  0  0  0  0  0  0  0  0  0
   56.8940   31.7320   51.6430 N   0  0  0  0  0  0  0  0  0  0  0  0
   57.9890   32.3840   52.0800 C   0  0  0  0  0  0  0  0  0  0  0  0
   58.1340   33.7590   52.2620 C   0  0  0  0  0  0  0  0  0  0  0  0
   59.3740   34.2340   52.7260 C   0  0  0  0  0  0  0  0  0  0  0  0
   60.4280   33.3350   53.0030 C   0  0  0  0  0  0  0  0  0  0  0  0
   60.2520   31.9490   52.8150 C   0  0  0  0  0  0  0  0  0  0  0  0
   59.0130   31.5080   52.3440 C   0  0  0  0  0  0  0  0  0  0  0  0
   56.3610   28.9780   43.4840 H   0  0  0  0  0  0  0  0  0  0  0  0
   55.5990   29.4290   41.9220 H   0  0  0  0  0  0  0  0  0  0  0  0
   58.7527   31.8610   43.4339 H   0  0  0  0  0  0  0  0  0  0  0  0
   56.1408   32.2717   44.4709 H   0  0  0  0  0  0  0  0  0  0  0  0
   57.1449   31.5108   45.7894 H   0  0  0  0  0  0  0  0  0  0  0  0
   58.6310   33.5977   44.4100 H   0  0  0  0  0  0  0  0  0  0  0  0
   57.0562   34.2158   45.0756 H   0  0  0  0  0  0  0  0  0  0  0  0
   57.3465   31.7353   47.2244 H   0  0  0  0  0  0  0  0  0  0  0  0
   58.3019   31.8369   49.5266 H   0  0  0  0  0  0  0  0  0  0  0  0
   59.9111   33.6464   50.1346 H   0  0  0  0  0  0  0  0  0  0  0  0
   60.5526   35.3700   48.4484 H   0  0  0  0  0  0  0  0  0  0  0  0
   59.6072   35.2746   46.1380 H   0  0  0  0  0  0  0  0  0  0  0  0
   59.2535   27.6132   45.1991 H   0  0  0  0  0  0  0  0  0  0  0  0
   56.3929   27.0388   44.7453 H   0  0  0  0  0  0  0  0  0  0  0  0
   57.8807   26.1559   44.2019 H   0  0  0  0  0  0  0  0  0  0  0  0
   59.0513   24.5020   46.1515 H   0  0  0  0  0  0  0  0  0  0  0  0
   55.4230   23.9167   48.2294 H   0  0  0  0  0  0  0  0  0  0  0  0
   61.2498   28.4288   48.5616 H   0  0  0  0  0  0  0  0  0  0  0  0
   60.2458   29.5248   46.4233 H   0  0  0  0  0  0  0  0  0  0  0  0
   59.1413   30.3635   47.5963 H   0  0  0  0  0  0  0  0  0  0  0  0
   61.0065   31.9007   45.8361 H   0  0  0  0  0  0  0  0  0  0  0  0
   62.7748   33.5898   46.3446 H   0  0  0  0  0  0  0  0  0  0  0  0
   63.9448   33.5507   48.5528 H   0  0  0  0  0  0  0  0  0  0  0  0
   63.3365   31.8357   50.2623 H   0  0  0  0  0  0  0  0  0  0  0  0
   61.5647   30.1492   49.7614 H   0  0  0  0  0  0  0  0  0  0  0  0
   58.5185   28.1413   52.3572 H   0  0  0  0  0  0  0  0  0  0  0  0
   59.9644   29.0214   53.0186 H   0  0  0  0  0  0  0  0  0  0  0  0
   56.5507   29.6069   51.3160 H   0  0  0  0  0  0  0  0  0  0  0  0
   55.9770   32.1480   51.3710 H   0  0  0  0  0  0  0  0  0  0  0  0
   57.3050   34.4501   52.0495 H   0  0  0  0  0  0  0  0  0  0  0  0
   59.5242   35.3136   52.8743 H   0  0  0  0  0  0  0  0  0  0  0  0
   61.3921   33.7189   53.3677 H   0  0  0  0  0  0  0  0  0  0  0  0
   61.0632   31.2385   53.0319 H   0  0  0  0  0  0  0  0  0  0  0  0
  1  2  1  0
  2  3  2  0
  2  4  1  0
  4  5  1  0
  5  6  1  0
  6  7  1  0
  7  8  2  0
  8  9  1  0
  9 10  2  0
 10 11  1  0
 11 12  2  0
  4 13  1  0
 13 14  1  0
 14 15  2  0
 14 16  1  0
 16 17  1  0
 17 18  1  0
 18 19  2  0
 19 20  1  0
 20 21  1  0
 21 22  2  0
 16 23  1  0
 23 24  1  0
 24 25  2  0
 24 26  1  0
 26 27  1  0
 27 28  1  0
 28 29  2  0
 29 30  1  0
 30 31  2  0
 31 32  1  0
 32 33  2  0
 26 34  1  0
 34 35  1  0
 35 36  2  0
 35 37  1  0
 37 38  1  0
 38 39  2  0
 39 40  1  0
 40 41  1  0
 41 42  2  0
 42 43  1  0
 43 44  2  0
 44 45  1  0
 45 46  2  0
 12  7  1  0
 22 18  1  0
 33 28  1  0
 46 38  1  0
 46 41  1  0
  1 47  1  0
  1 48  1  0
  4 49  1  6
  5 50  1  0
  5 51  1  0
  6 52  1  0
  6 53  1  0
  8 54  1  0
  9 55  1  0
 10 56  1  0
 11 57  1  0
 12 58  1  0
 16 59  1  6
 17 60  1  0
 17 61  1  0
 19 62  1  0
 21 63  1  0
 26 64  1  1
 27 65  1  0
 27 66  1  0
 29 67  1  0
 30 68  1  0
 31 69  1  0
 32 70  1  0
 33 71  1  0
 37 72  1  0
 37 73  1  0
 39 74  1  0
 40 75  1  0
 42 76  1  0
 43 77  1  0
 44 78  1  0
 45 79  1  0
M  CHG  4  13  -1  20  -1  23  -1  34  -1
M  END
>  <UniqueID>  (2) 
2

>  <SMILES>  (2) 
NC(=O)[C@@H](CCc1ccccc1)[N-]C(=O)[C@H](Cc1c[n-]cn1)[N-]C(=O)C(Cc1ccccc1)[N-]C(=O)Cc1c[nH]c2ccccc12

>  <Energy>  (2) 
125.4700227179351

>  <Genealogy>  (2) 
NC(=O)C(CCc1ccccc1)[N-]C(=O)C(Cc1c[n-]cn1)[N-]C(=O)C(Cc1ccccc1)[N-]C(=O)Cc1c[nH]c2ccccc12 (protonated)
NC(=O)[C@@H](CCc1ccccc1)[N-]C(=O)[C@H](Cc1c[n-]cn1)[N-]C(=O)C(Cc1ccccc1)[N-]C(=O)Cc1c[nH]c2ccccc12 (chirality)
NC(=O)[C@@H](CCc1ccccc1)[N-]C(=O)[C@H](Cc1c[n-]cn1)[N-]C(=O)C(Cc1ccccc1)[N-]C(=O)Cc1c[nH]c2ccccc12 (3D coordinates assigned)
NC(=O)[C@@H](CCc1ccccc1)[N-]C(=O)[C@H](Cc1c[n-]cn1)[N-]C(=O)C(Cc1ccccc1)[N-]C(=O)Cc1c[nH]c2ccccc12 (optimized conformer: 125.4700227179351 kcal/mol)

>  <smiles>  (2) 
NC(=O)C(CCc1ccccc1)NC(=O)C(Cc1c[nH]cn1)NC(=O)C(Cc1ccccc1)NC(=O)Cc1c[nH]c2ccccc12

>  <score_type>  (2) 
oracle

>  <origin>  (2) 
adg

>  <m_score__min__energy>  (2) 
-15.32

>  <m_primary>  (2) 
energy

$$$$
2:0
     RDKit          3D

 59 63  0  0  0  0  0  0  0  0999 V2000
   64.3400   32.7630   49.9400 C   0  0  0  0  0  0  0  0  0  0  0  0
   63.2400   31.9960   49.3350 N   0  0  0  0  0  0  0  0  0  0  0  0
   61.9210   32.4430   49.8520 C   0  0  0  0  0  0  0  0  0  0  0  0
   61.2540   33.4980   48.9580 C   0  0  0  0  0  0  0  0  0  0  0  0
   61.1800   33.0260   47.5700 N   0  0  0  0  0  0  0  0  0  0  0  0
   60.1890   33.5620   46.6780 C   0  0  0  0  0  0  0  0  0  0  0  0
   60.2630   34.9100   46.2920 C   0  0  0  0  0  0  0  0  0  0  0  0
   59.3290   35.4430   45.4020 C   0  0  0  0  0  0  0  0  0  0  0  0
   58.3050   34.6400   44.8980 C   0  0  0  0  0  0  0  0  0  0  0  0
   58.2120   33.2990   45.2840 C   0  0  0  0  0  0  0  0  0  0  0  0
   59.1550   32.7450   46.1690 C   0  0  0  0  0  0  0  0  0  0  0  0
   59.0140   31.3870   46.6200 N   0  0  0  0  0  0  0  0  0  0  0  0
   58.8400   30.2760   45.7220 C   0  0  0  0  0  0  0  0  0  0  0  0
   58.9320   30.4550   44.4770 O   0  0  0  0  0  0  0  0  0  0  0  0
   58.5940   28.9110   46.2250 C   0  0  0  0  0  0  0  0  0  0  0  0
   59.0580   28.4230   47.4490 C   0  0  0  0  0  0  0  0  0  0  0  0
   58.5490   26.8280   47.5990 S   0  0  0  0  0  0  0  0  0  0  0  0
   57.7490   26.8240   46.1180 C   0  0  0  0  0  0  0  0  0  0  0  0
   57.0720   25.6940   45.5310 N   0  0  0  0  0  0  0  0  0  0  0  0
   57.7820   24.8710   44.5420 C   0  0  0  0  0  0  0  0  0  0  0  0
   57.3010   23.4430   44.5610 C   0  0  0  0  0  0  0  0  0  0  0  0
   58.1640   22.4140   44.1500 C   0  0  0  0  0  0  0  0  0  0  0  0
   57.7190   21.0920   44.1170 C   0  0  0  0  0  0  0  0  0  0  0  0
   56.4070   20.7860   44.4860 C   0  0  0  0  0  0  0  0  0  0  0  0
   55.5350   21.8030   44.8800 C   0  0  0  0  0  0  0  0  0  0  0  0
   55.9650   23.1460   44.9070 C   0  0  0  0  0  0  0  0  0  0  0  0
   55.0810   24.2150   45.3130 N   0  0  0  0  0  0  0  0  0  0  0  0
   53.6270   24.0190   45.3870 C   0  0  0  0  0  0  0  0  0  0  0  0
   55.6640   25.4600   45.7380 C   0  0  0  0  0  0  0  0  0  0  0  0
   54.9410   26.3460   46.2770 O   0  0  0  0  0  0  0  0  0  0  0  0
   57.8730   28.0170   45.4950 N   0  0  0  0  0  0  0  0  0  0  0  0
   62.0090   31.8950   47.1470 C   0  0  0  0  0  0  0  0  0  0  0  0
   63.3650   31.9790   47.8540 C   0  0  0  0  0  0  0  0  0  0  0  0
   64.2643   32.7102   51.0361 H   0  0  0  0  0  0  0  0  0  0  0  0
   65.3028   32.3394   49.6181 H   0  0  0  0  0  0  0  0  0  0  0  0
   64.2754   33.8129   49.6181 H   0  0  0  0  0  0  0  0  0  0  0  0
   61.2562   31.5692   49.9193 H   0  0  0  0  0  0  0  0  0  0  0  0
   62.0918   32.9048   50.8356 H   0  0  0  0  0  0  0  0  0  0  0  0
   60.2369   33.6946   49.3278 H   0  0  0  0  0  0  0  0  0  0  0  0
   61.8542   34.4194   48.9880 H   0  0  0  0  0  0  0  0  0  0  0  0
   61.0623   35.5502   46.6936 H   0  0  0  0  0  0  0  0  0  0  0  0
   59.4003   36.4976   45.0975 H   0  0  0  0  0  0  0  0  0  0  0  0
   57.5703   35.0621   44.1965 H   0  0  0  0  0  0  0  0  0  0  0  0
   57.3961   32.6733   44.8931 H   0  0  0  0  0  0  0  0  0  0  0  0
   59.1660   31.1980   47.6350 H   0  0  0  0  0  0  0  0  0  0  0  0
   59.6521   28.9840   48.1854 H   0  0  0  0  0  0  0  0  0  0  0  0
   57.6124   25.2915   43.5398 H   0  0  0  0  0  0  0  0  0  0  0  0
   58.8526   24.8769   44.7944 H   0  0  0  0  0  0  0  0  0  0  0  0
   59.1961   22.6515   43.8526 H   0  0  0  0  0  0  0  0  0  0  0  0
   58.4020   20.2900   43.8001 H   0  0  0  0  0  0  0  0  0  0  0  0
   56.0602   19.7423   44.4662 H   0  0  0  0  0  0  0  0  0  0  0  0
   54.5039   21.5546   45.1718 H   0  0  0  0  0  0  0  0  0  0  0  0
   53.3159   23.9771   46.4412 H   0  0  0  0  0  0  0  0  0  0  0  0
   53.1182   24.8567   44.8876 H   0  0  0  0  0  0  0  0  0  0  0  0
   53.3582   23.0765   44.8876 H   0  0  0  0  0  0  0  0  0  0  0  0
   61.5108   30.9518   47.4156 H   0  0  0  0  0  0  0  0  0  0  0  0
   62.1553   31.9284   46.0573 H   0  0  0  0  0  0  0  0  0  0  0  0
   63.9687   31.1071   47.5618 H   0  0  0  0  0  0  0  0  0  0  0  0
   63.8401   32.9234   47.5499 H   0  0  0  0  0  0  0  0  0  0  0  0
  1  2  1  0
  2  3  1  0
  3  4  1  0
  4  5  1  0
  5  6  1  0
  6  7  2  0
  7  8  1  0
  8  9  2  0
  9 10  1  0
 10 11  2  0
 11 12  1  0
 12 13  1  0
 13 14  2  0
 13 15  1  0
 15 16  2  0
 16 17  1  0
 17 18  1  0
 18 19  1  0
 19 20  1  0
 20 21  1  0
 21 22  2  0
 22 23  1  0
 23 24  2  0
 24 25  1  0
 25 26  2  0
 26 27  1  0
 27 28  1  0
 27 29  1  0
 29 30  2  0
 18 31  2  0
  5 32  1  0
 32 33  1  0
 33  2  1  0
 11  6  1  0
 31 15  1  0
 29 19  1  0
 26 21  1  0
  1 34  1  0
  1 35  1  0
  1 36  1  0
  3 37  1  0
  3 38  1  0
  4 39  1  0
  4 40  1  0
  7 41  1  0
  8 42  1  0
  9 43  1  0
 10 44  1  0
 12 45  1  0
 16 46  1  0
 20 47  1  0
 20 48  1  0
 22 49  1  0
 23 50  1  0
 24 51  1  0
 25 52  1  0
 28 53  1  0
 28 54  1  0
 28 55  1  0
 32 56  1  0
 32 57  1  0
 33 58  1  0
 33 59  1  0
M  END
>  <UniqueID>  (3) 
3

>  <SMILES>  (3) 
CN1CCN(c2ccccc2NC(=O)c2csc(N3Cc4ccccc4N(C)C3=O)n2)CC1

>  <Energy>  (3) 
115.76469610093156

>  <Genealogy>  (3) 
CN1CCN(c2ccccc2NC(=O)c2csc(N3Cc4ccccc4N(C)C3=O)n2)CC1 (3D coordinates assigned)
CN1CCN(c2ccccc2NC(=O)c2csc(N3Cc4ccccc4N(C)C3=O)n2)CC1 (nonaromatic ring conformer: 115.76469610093156 kcal/mol)

>  <smiles>  (3) 
CN1CCN(c2ccccc2NC(=O)c2csc(N3Cc4ccccc4N(C)C3=O)n2)CC1

>  <score_type>  (3) 
oracle

>  <origin>  (3) 
adg

>  <m_score__min__energy>  (3) 
-9.5199999999999996

>  <m_primary>  (3) 
energy

$$$$
3:0
     RDKit          3D

 54 57  0  0  0  0  0  0  0  0999 V2000
   54.9100   23.7540   45.3080 C   0  0  0  0  0  0  0  0  0  0  0  0
   56.3210   23.2800   45.0890 C   0  0  0  0  0  0  0  0  0  0  0  0
   56.5730   22.0100   44.5060 C   0  0  0  0  0  0  0  0  0  0  0  0
   55.5230   21.1790   44.1300 O   0  0  0  0  0  0  0  0  0  0  0  0
   57.8940   21.5620   44.3010 C   0  0  0  0  0  0  0  0  0  0  0  0
   58.9840   22.3650   44.6640 C   0  0  0  0  0  0  0  0  0  0  0  0
   58.7230   23.6090   45.2240 C   0  0  0  0  0  0  0  0  0  0  0  0
   59.6120   24.4840   45.6210 O   0  0  0  0  0  0  0  0  0  0  0  0
   58.9680   25.5290   46.0970 C   0  0  0  0  0  0  0  0  0  0  0  0
   59.6810   26.6940   46.6600 C   0  0  0  0  0  0  0  0  0  0  0  0
   59.9120   26.7040   47.9020 O   0  0  0  0  0  0  0  0  0  0  0  0
   59.9270   27.8850   45.8690 N   0  0  0  0  0  0  0  0  0  0  0  0
   59.2170   27.7740   44.5620 C   0  0  0  0  0  0  0  0  0  0  0  0
   57.8720   28.5180   44.5440 C   0  0  0  0  0  0  0  0  0  0  0  0
   58.0860   29.9260   44.8830 N   0  0  0  0  0  0  0  0  0  0  0  0
   57.1700   30.9250   44.4100 C   0  0  0  0  0  0  0  0  0  0  0  0
   55.9300   30.7010   44.4720 O   0  0  0  0  0  0  0  0  0  0  0  0
   57.6920   32.1620   43.7890 C   0  0  0  0  0  0  0  0  0  0  0  0
   57.6850   33.3850   44.3440 C   0  0  0  0  0  0  0  0  0  0  0  0
   58.3150   33.7360   45.6310 C   0  0  0  0  0  0  0  0  0  0  0  0
   59.3720   34.6570   45.6600 C   0  0  0  0  0  0  0  0  0  0  0  0
   60.0250   34.9510   46.8610 C   0  0  0  0  0  0  0  0  0  0  0  0
   59.6350   34.3080   48.0410 C   0  0  0  0  0  0  0  0  0  0  0  0
   60.2620   34.5930   49.2080 F   0  0  0  0  0  0  0  0  0  0  0  0
   58.6000   33.3670   48.0150 C   0  0  0  0  0  0  0  0  0  0  0  0
   57.9450   33.0740   46.8140 C   0  0  0  0  0  0  0  0  0  0  0  0
   59.2160   30.2970   45.7390 C   0  0  0  0  0  0  0  0  0  0  0  0
   59.5910   29.1140   46.6440 C   0  0  0  0  0  0  0  0  0  0  0  0
   57.5870   25.3370   45.9820 C   0  0  0  0  0  0  0  0  0  0  0  0
   56.5100   26.3300   46.3010 C   0  0  0  0  0  0  0  0  0  0  0  0
   57.4420   24.0670   45.4290 C   0  0  0  0  0  0  0  0  0  0  0  0
   54.7092   23.8214   46.3874 H   0  0  0  0  0  0  0  0  0  0  0  0
   54.7806   24.7449   44.8483 H   0  0  0  0  0  0  0  0  0  0  0  0
   54.2086   23.0422   44.8483 H   0  0  0  0  0  0  0  0  0  0  0  0
   58.0708   20.5734   43.8522 H   0  0  0  0  0  0  0  0  0  0  0  0
   60.0170   22.0197   44.5097 H   0  0  0  0  0  0  0  0  0  0  0  0
   60.9490   27.9310   45.6510 H   0  0  0  0  0  0  0  0  0  0  0  0
   59.8612   28.1954   43.7762 H   0  0  0  0  0  0  0  0  0  0  0  0
   59.0056   26.7080   44.3919 H   0  0  0  0  0  0  0  0  0  0  0  0
   57.4273   28.4464   43.5405 H   0  0  0  0  0  0  0  0  0  0  0  0
   57.1929   28.0637   45.2805 H   0  0  0  0  0  0  0  0  0  0  0  0
   58.1250   32.0720   42.7818 H   0  0  0  0  0  0  0  0  0  0  0  0
   57.1693   34.1875   43.7962 H   0  0  0  0  0  0  0  0  0  0  0  0
   59.6900   35.1521   44.7306 H   0  0  0  0  0  0  0  0  0  0  0  0
   60.8433   35.6859   46.8781 H   0  0  0  0  0  0  0  0  0  0  0  0
   58.3003   32.8559   48.9418 H   0  0  0  0  0  0  0  0  0  0  0  0
   57.1397   32.3248   46.7957 H   0  0  0  0  0  0  0  0  0  0  0  0
   60.0784   30.5642   45.1105 H   0  0  0  0  0  0  0  0  0  0  0  0
   58.9327   31.1573   46.3632 H   0  0  0  0  0  0  0  0  0  0  0  0
   60.4633   29.3973   47.2513 H   0  0  0  0  0  0  0  0  0  0  0  0
   58.7177   28.8842   47.2721 H   0  0  0  0  0  0  0  0  0  0  0  0
   56.4088   26.4233   47.3924 H   0  0  0  0  0  0  0  0  0  0  0  0
   56.7743   27.3080   45.8723 H   0  0  0  0  0  0  0  0  0  0  0  0
   55.5567   25.9873   45.8723 H   0  0  0  0  0  0  0  0  0  0  0  0
  1  2  1  0
  2  3  2  0
  3  4  1  0
  3  5  1  0
  5  6  2  0
  6  7  1  0
  7  8  1  0
  8  9  1  0
  9 10  1  0
 10 11  2  0
 10 12  1  0
 12 13  1  0
 13 14  1  0
 14 15  1  0
 15 16  1  0
 16 17  2  0
 16 18  1  0
 18 19  2  3
 19 20  1  0
 20 21  2  0
 21 22  1  0
 22 23  2  0
 23 24  1  0
 23 25  1  0
 25 26  2  0
 15 27  1  0
 27 28  1  0
  9 29  2  0
 29 30  1  0
 29 31  1  0
 31  2  1  0
 31  7  2  0
 28 12  1  0
 26 20  1  0
  1 32  1  0
  1 33  1  0
  1 34  1  0
  5 35  1  0
  6 36  1  0
 12 37  1  0
 13 38  1  0
 13 39  1  0
 14 40  1  0
 14 41  1  0
 18 42  1  0
 19 43  1  0
 21 44  1  0
 22 45  1  0
 25 46  1  0
 26 47  1  0
 27 48  1  0
 27 49  1  0
 28 50  1  0
 28 51  1  0
 30 52  1  0
 30 53  1  0
 30 54  1  0
M  CHG  2   4  -1  12   1
M  END
>  <UniqueID>  (4) 
4

>  <SMILES>  (4) 
Cc1c([O-])ccc2oc(C(=O)[NH+]3CCN(C(=O)C=Cc4ccc(F)cc4)CC3)c(C)c12

>  <Energy>  (4) 
117.53397692677433

>  <Genealogy>  (4) 
Cc1c([O-])ccc2oc(C(=O)[NH+]3CCN(C(=O)C=Cc4ccc(F)cc4)CC3)c(C)c12 (protonated)
Cc1c([O-])ccc2oc(C(=O)[NH+]3CCN(C(=O)C=Cc4ccc(F)cc4)CC3)c(C)c12 (3D coordinates assigned)
Cc1c([O-])ccc2oc(C(=O)[NH+]3CCN(C(=O)C=Cc4ccc(F)cc4)CC3)c(C)c12 (nonaromatic ring conformer: 117.53397692677433 kcal/mol)

>  <smiles>  (4) 
Cc1c(O)ccc2oc(C(=O)N3CCN(C(=O)C=Cc4ccc(F)cc4)CC3)c(C)c12

>  <score_type>  (4) 
oracle

>  <origin>  (4) 
adg

>  <m_score__min__energy>  (4) 
-10.02

>  <m_primary>  (4) 
energy

$$$$
4:0
     RDKit          3D

 34 36  0  0  0  0  0  0  0  0999 V2000
   55.9530   23.8880   46.4590 O   0  0  0  0  0  0  0  0  0  0  0  0
   56.4300   25.0510   46.3720 C   0  0  0  0  0  0  0  0  0  0  0  0
   57.7440   25.2630   46.6440 N   0  0  0  0  0  0  0  0  0  0  0  0
   58.2900   26.5060   46.5610 C   0  0  0  0  0  0  0  0  0  0  0  0
   59.6400   26.7060   46.8450 C   0  0  0  0  0  0  0  0  0  0  0  0
   60.1890   27.9840   46.7440 C   0  0  0  0  0  0  0  0  0  0  0  0
   59.3960   29.0770   46.3620 C   0  0  0  0  0  0  0  0  0  0  0  0
   59.9920   30.3270   46.2180 O   0  0  0  0  0  0  0  0  0  0  0  0
   58.0150   28.8910   46.1020 C   0  0  0  0  0  0  0  0  0  0  0  0
   57.1440   29.9320   45.7390 O   0  0  0  0  0  0  0  0  0  0  0  0
   57.2930   30.9450   44.3660 S   0  0  0  0  0  0  0  0  0  0  0  0
   56.2770   30.5130   43.3470 O   0  0  0  0  0  0  0  0  0  0  0  0
   58.6640   30.8050   43.7640 O   0  0  0  0  0  0  0  0  0  0  0  0
   56.9680   32.6450   44.8120 C   0  0  0  0  0  0  0  0  0  0  0  0
   58.0530   33.1670   45.7100 C   0  0  0  0  0  0  0  0  0  0  0  0
   58.9830   34.1020   45.2260 C   0  0  0  0  0  0  0  0  0  0  0  0
   59.9740   34.6130   46.0700 C   0  0  0  0  0  0  0  0  0  0  0  0
   60.0380   34.2000   47.4040 C   0  0  0  0  0  0  0  0  0  0  0  0
   59.1100   33.2790   47.8960 C   0  0  0  0  0  0  0  0  0  0  0  0
   58.1170   32.7660   47.0540 C   0  0  0  0  0  0  0  0  0  0  0  0
   57.4780   27.5960   46.1840 C   0  0  0  0  0  0  0  0  0  0  0  0
   56.1620   27.3760   45.9190 N   0  0  0  0  0  0  0  0  0  0  0  0
   55.6190   26.1320   46.0020 C   0  0  0  0  0  0  0  0  0  0  0  0
   54.3970   25.9630   45.7460 O   0  0  0  0  0  0  0  0  0  0  0  0
   60.2710   25.8575   47.1482 H   0  0  0  0  0  0  0  0  0  0  0  0
   61.2554   28.1370   46.9662 H   0  0  0  0  0  0  0  0  0  0  0  0
   59.5430   31.0770   45.7060 H   0  0  0  0  0  0  0  0  0  0  0  0
   56.9267   33.2577   43.8994 H   0  0  0  0  0  0  0  0  0  0  0  0
   56.0074   32.6967   45.3455 H   0  0  0  0  0  0  0  0  0  0  0  0
   58.9315   34.4337   44.1785 H   0  0  0  0  0  0  0  0  0  0  0  0
   60.7035   35.3402   45.6840 H   0  0  0  0  0  0  0  0  0  0  0  0
   60.8194   34.6004   48.0666 H   0  0  0  0  0  0  0  0  0  0  0  0
   59.1599   32.9567   48.9465 H   0  0  0  0  0  0  0  0  0  0  0  0
   57.3839   32.0459   47.4465 H   0  0  0  0  0  0  0  0  0  0  0  0
  1  2  2  0
  2  3  1  0
  3  4  1  0
  4  5  2  0
  5  6  1  0
  6  7  2  0
  7  8  1  0
  7  9  1  0
  9 10  1  0
 10 11  1  0
 11 12  2  0
 11 13  2  0
 11 14  1  0
 14 15  1  0
 15 16  2  0
 16 17  1  0
 17 18  2  0
 18 19  1  0
 19 20  2  0
  9 21  2  0
 21 22  1  0
 22 23  1  0
 23 24  2  0
 23  2  1  0
 21  4  1  0
 20 15  1  0
  5 25  1  0
  6 26  1  0
  8 27  1  0
 14 28  1  0
 14 29  1  0
 16 30  1  0
 17 31  1  0
 18 32  1  0
 19 33  1  0
 20 34  1  0
M  CHG  2   3  -1  22  -1
M  END
>  <UniqueID>  (5) 
5

>  <SMILES>  (5) 
O=c1[n-]c2ccc(O)c(OS(=O)(=O)Cc3ccccc3)c2[n-]c1=O

>  <Energy>  (5) 
41.040364116212274

>  <Genealogy>  (5) 
O=c1[n-]c2ccc(O)c(OS(=O)(=O)Cc3ccccc3)c2[n-]c1=O (protonated)
O=c1[n-]c2ccc(O)c(OS(=O)(=O)Cc3ccccc3)c2[n-]c1=O (3D coordinates assigned)
O=c1[n-]c2ccc(O)c(OS(=O)(=O)Cc3ccccc3)c2[n-]c1=O (optimized conformer: 41.040364116212274 kcal/mol)

>  <smiles>  (5) 
O=c1[nH]c2ccc(O)c(OS(=O)(=O)Cc3ccccc3)c2[nH]c1=O

>  <score_type>  (5) 
oracle

>  <origin>  (5) 
adg

>  <m_score__min__energy>  (5) 
-11.5

>  <m_primary>  (5) 
energy

$$$$
5:0
     RDKit          3D

 42 43  0  0  0  0  0  0  0  0999 V2000
   62.9090   33.6040   47.5660 C   0  0  0  0  0  0  0  0  0  0  0  0
   61.4940   33.8750   46.4560 S   0  0  0  0  0  0  0  0  0  0  0  0
   60.3510   32.9850   47.5160 C   0  0  0  0  0  0  0  0  0  0  0  0
   59.3220   33.5960   48.1390 N   0  0  0  0  0  0  0  0  0  0  0  0
   58.7140   32.6090   48.8270 C   0  0  0  0  0  0  0  0  0  0  0  0
   59.3800   31.4220   48.6100 C   0  0  0  0  0  0  0  0  0  0  0  0
   59.0100   30.1230   49.2070 C   0  0  0  0  0  0  0  0  0  0  0  0
   58.3640   30.0800   50.2880 O   0  0  0  0  0  0  0  0  0  0  0  0
   59.4380   28.9430   48.5840 O   0  0  0  0  0  0  0  0  0  0  0  0
   59.0840   28.5340   47.2900 C   0  0  0  0  0  0  0  0  0  0  0  0
   59.6510   27.4020   46.6770 C   0  0  0  0  0  0  0  0  0  0  0  0
   59.2610   27.0310   45.3870 C   0  0  0  0  0  0  0  0  0  0  0  0
   58.2990   27.7760   44.7020 C   0  0  0  0  0  0  0  0  0  0  0  0
   57.7150   28.8960   45.3100 C   0  0  0  0  0  0  0  0  0  0  0  0
   56.5050   29.8540   44.4600 S   0  0  0  0  0  0  0  0  0  0  0  0
   55.1510   29.3390   44.8590 O   0  0  0  0  0  0  0  0  0  0  0  0
   56.6450   29.6780   42.9740 O   0  0  0  0  0  0  0  0  0  0  0  0
   56.5890   31.5490   44.8730 N   0  0  0  0  0  0  0  0  0  0  0  0
   57.8230   32.2550   44.4810 C   0  0  0  0  0  0  0  0  0  0  0  0
   58.0100   32.2950   42.9600 C   0  0  0  0  0  0  0  0  0  0  0  0
   57.9700   33.6430   45.1180 C   0  0  0  0  0  0  0  0  0  0  0  0
   58.1020   29.2630   46.6060 C   0  0  0  0  0  0  0  0  0  0  0  0
   60.4160   31.6600   47.7780 N   0  0  0  0  0  0  0  0  0  0  0  0
   61.4020   30.7000   47.2780 C   0  0  0  0  0  0  0  0  0  0  0  0
   62.5726   33.6684   48.6113 H   0  0  0  0  0  0  0  0  0  0  0  0
   63.3362   32.6077   47.3790 H   0  0  0  0  0  0  0  0  0  0  0  0
   63.6740   34.3719   47.3790 H   0  0  0  0  0  0  0  0  0  0  0  0
   57.8247   32.7318   49.4627 H   0  0  0  0  0  0  0  0  0  0  0  0
   60.4038   26.8068   47.2146 H   0  0  0  0  0  0  0  0  0  0  0  0
   59.7135   26.1492   44.9099 H   0  0  0  0  0  0  0  0  0  0  0  0
   57.9992   27.4839   43.6847 H   0  0  0  0  0  0  0  0  0  0  0  0
   58.6461   31.6539   44.8948 H   0  0  0  0  0  0  0  0  0  0  0  0
   59.0610   32.5198   42.7256 H   0  0  0  0  0  0  0  0  0  0  0  0
   57.7395   31.3187   42.5315 H   0  0  0  0  0  0  0  0  0  0  0  0
   57.3638   33.0752   42.5315 H   0  0  0  0  0  0  0  0  0  0  0  0
   57.9598   33.5465   46.2137 H   0  0  0  0  0  0  0  0  0  0  0  0
   58.9210   34.0942   44.7985 H   0  0  0  0  0  0  0  0  0  0  0  0
   57.1347   34.2834   44.7985 H   0  0  0  0  0  0  0  0  0  0  0  0
   57.6308   30.1309   47.0905 H   0  0  0  0  0  0  0  0  0  0  0  0
   61.9027   30.2125   48.1275 H   0  0  0  0  0  0  0  0  0  0  0  0
   60.8955   29.9396   46.6654 H   0  0  0  0  0  0  0  0  0  0  0  0
   62.1486   31.2266   46.6654 H   0  0  0  0  0  0  0  0  0  0  0  0
  1  2  1  0
  2  3  1  0
  3  4  2  0
  4  5  1  0
  5  6  2  0
  6  7  1  0
  7  8  2  0
  7  9  1  0
  9 10  1  0
 10 11  2  0
 11 12  1  0
 12 13  2  0
 13 14  1  0
 14 15  1  0
 15 16  2  0
 15 17  2  0
 15 18  1  0
 18 19  1  0
 19 20  1  0
 19 21  1  0
 14 22  2  0
  6 23  1  0
 23 24  1  0
 23  3  1  0
 22 10  1  0
  1 25  1  0
  1 26  1  0
  1 27  1  0
  5 28  1  0
 11 29  1  0
 12 30  1  0
 13 31  1  0
 19 32  1  0
 20 33  1  0
 20 34  1  0
 20 35  1  0
 21 36  1  0
 21 37  1  0
 21 38  1  0
 22 39  1  0
 24 40  1  0
 24 41  1  0
 24 42  1  0
M  CHG  1  18  -1
M  END
>  <UniqueID>  (6) 
6

>  <SMILES>  (6) 
CSc1ncc(C(=O)Oc2cccc(S(=O)(=O)[N-]C(C)C)c2)n1C

>  <Energy>  (6) 
72.93299987319799

>  <Genealogy>  (6) 
CSc1ncc(C(=O)Oc2cccc(S(=O)(=O)[N-]C(C)C)c2)n1C (protonated)
CSc1ncc(C(=O)Oc2cccc(S(=O)(=O)[N-]C(C)C)c2)n1C (3D coordinates assigned)
CSc1ncc(C(=O)Oc2cccc(S(=O)(=O)[N-]C(C)C)c2)n1C (optimized conformer: 72.93299987319799 kcal/mol)

>  <smiles>  (6) 
CSc1ncc(C(=O)Oc2cccc(S(=O)(=O)NC(C)C)c2)n1C

>  <score_type>  (6) 
oracle

>  <origin>  (6) 
adg

>  <m_score__min__energy>  (6) 
-9.4100000000000001

>  <m_primary>  (6) 
energy

$$$$
6:0
     RDKit          3D

 56 59  0  0  0  0  0  0  0  0999 V2000
   59.3840   34.8550   49.1260 H   0  0  0  0  0  0  0  0  0  0  0  0
   59.3550   34.1040   49.8020 O   0  0  0  0  0  0  0  0  0  0  0  0
   59.2150   32.7590   49.4490 C   0  0  0  0  0  0  0  0  0  0  0  0
   58.7180   31.8740   50.4080 C   0  0  0  0  0  0  0  0  0  0  0  0
   58.4483   32.2500   51.4059 H   0  0  0  0  0  0  0  0  0  0  0  0
   58.5590   30.5170   50.1160 C   0  0  0  0  0  0  0  0  0  0  0  0
   58.0650   29.6680   51.1000 O   0  0  0  0  0  0  0  0  0  0  0  0
   58.8890   30.0230   48.8420 C   0  0  0  0  0  0  0  0  0  0  0  0
   58.7470   28.5730   48.5580 C   0  0  0  0  0  0  0  0  0  0  0  0
   58.1044   27.9707   49.2170 H   0  0  0  0  0  0  0  0  0  0  0  0
   59.3650   27.9620   47.5360 C   0  0  0  0  0  0  0  0  0  0  0  0
   60.3537   28.3267   47.2205 H   0  0  0  0  0  0  0  0  0  0  0  0
   58.7670   26.8180   46.8190 C   0  0  0  0  0  0  0  0  0  0  0  0
   59.3960   26.3050   45.8560 O   0  0  0  0  0  0  0  0  0  0  0  0
   57.4630   26.3160   47.1430 N   0  0  0  0  0  0  0  0  0  0  0  0
   56.8060   25.3500   46.5590 C   0  0  0  0  0  0  0  0  0  0  0  0
   57.3880   24.1190   46.5240 N   0  0  0  0  0  0  0  0  0  0  0  0
   56.8000   23.0480   45.9310 C   0  0  0  0  0  0  0  0  0  0  0  0
   57.3112   22.0740   45.9255 H   0  0  0  0  0  0  0  0  0  0  0  0
   55.5510   23.1810   45.3300 C   0  0  0  0  0  0  0  0  0  0  0  0
   55.0762   22.3195   44.8378 H   0  0  0  0  0  0  0  0  0  0  0  0
   54.9090   24.4180   45.3590 C   0  0  0  0  0  0  0  0  0  0  0  0
   53.9208   24.5342   44.8899 H   0  0  0  0  0  0  0  0  0  0  0  0
   55.5180   25.5120   45.9830 C   0  0  0  0  0  0  0  0  0  0  0  0
   54.8190   26.7120   46.0420 O   0  0  0  0  0  0  0  0  0  0  0  0
   59.4010   30.9120   47.8780 C   0  0  0  0  0  0  0  0  0  0  0  0
   59.6777   30.5320   46.8835 H   0  0  0  0  0  0  0  0  0  0  0  0
   59.5640   32.2780   48.1670 C   0  0  0  0  0  0  0  0  0  0  0  0
   60.1460   33.1890   47.1100 C   0  0  0  0  0  0  0  0  0  0  0  0
   61.0620   33.6536   47.5038 H   0  0  0  0  0  0  0  0  0  0  0  0
   60.3653   32.5850   46.2172 H   0  0  0  0  0  0  0  0  0  0  0  0
   59.1920   34.2560   46.7260 N   0  0  0  0  0  0  0  0  0  0  0  0
   59.3210   34.6810   45.3120 C   0  0  0  0  0  0  0  0  0  0  0  0
   58.6656   35.5475   45.1399 H   0  0  0  0  0  0  0  0  0  0  0  0
   60.3746   34.9379   45.1281 H   0  0  0  0  0  0  0  0  0  0  0  0
   58.9270   33.5580   44.3370 C   0  0  0  0  0  0  0  0  0  0  0  0
   58.5993   34.0032   43.3860 H   0  0  0  0  0  0  0  0  0  0  0  0
   59.7995   32.9087   44.1722 H   0  0  0  0  0  0  0  0  0  0  0  0
   57.8360   32.7520   44.8930 N   0  0  0  0  0  0  0  0  0  0  0  0
   57.7070   31.3610   44.5440 C   0  0  0  0  0  0  0  0  0  0  0  0
   56.5110   30.8820   43.9820 C   0  0  0  0  0  0  0  0  0  0  0  0
   55.6796   31.5769   43.7928 H   0  0  0  0  0  0  0  0  0  0  0  0
   56.3710   29.5290   43.6620 C   0  0  0  0  0  0  0  0  0  0  0  0
   55.4319   29.1633   43.2212 H   0  0  0  0  0  0  0  0  0  0  0  0
   57.4220   28.6400   43.9010 C   0  0  0  0  0  0  0  0  0  0  0  0
   57.3108   27.5755   43.6471 H   0  0  0  0  0  0  0  0  0  0  0  0
   58.6150   29.1040   44.4630 C   0  0  0  0  0  0  0  0  0  0  0  0
   59.4413   28.4029   44.6519 H   0  0  0  0  0  0  0  0  0  0  0  0
   58.7610   30.4580   44.7860 C   0  0  0  0  0  0  0  0  0  0  0  0
   59.9360   30.8880   45.3080 F   0  0  0  0  0  0  0  0  0  0  0  0
   56.9620   33.3640   45.8980 C   0  0  0  0  0  0  0  0  0  0  0  0
   56.4077   34.1951   45.4375 H   0  0  0  0  0  0  0  0  0  0  0  0
   56.2624   32.6019   46.2718 H   0  0  0  0  0  0  0  0  0  0  0  0
   57.7920   33.9020   47.0820 C   0  0  0  0  0  0  0  0  0  0  0  0
   57.2955   34.8029   47.4718 H   0  0  0  0  0  0  0  0  0  0  0  0
   57.8468   33.0940   47.8264 H   0  0  0  0  0  0  0  0  0  0  0  0
  1  2  1  0
  2  3  1  0
  3  4  2  0
  4  5  1  0
  4  6  1  0
  6  7  1  0
  6  8  2  0
  8  9  1  0
  9 10  1  0
  9 11  2  0
 11 12  1  0
 11 13  1  0
 13 14  2  0
 13 15  1  0
 15 16  2  0
 16 17  1  0
 17 18  1  0
 18 19  1  0
 18 20  2  0
 20 21  1  0
 20 22  1  0
 22 23  1  0
 22 24  2  0
 24 25  1  0
  8 26  1  0
 26 27  1  0
 26 28  2  0
 28 29  1  0
 29 30  1  0
 29 31  1  0
 29 32  1  0
 32 33  1  0
 33 34  1  0
 33 35  1  0
 33 36  1  0
 36 37  1  0
 36 38  1  0
 36 39  1  0
 39 40  1  0
 40 41  2  0
 41 42  1  0
 41 43  1  0
 43 44  1  0
 43 45  2  0
 45 46  1  0
 45 47  1  0
 47 48  1  0
 47 49  2  0
 49 50  1  0
 39 51  1  0
 51 52  1  0
 51 53  1  0
 51 54  1  0
 54 55  1  0
 54 56  1  0
 28  3  1  0
 54 32  1  0
 24 16  1  0
 49 40  1  0
M  CHG  3   7  -1  17  -1  25  -1
M  END
>  <UniqueID>  (7) 
7

>  <SMILES>  (7) 
O=C(/C=C/c1cc(CN2CCN(c3ccccc3F)CC2)c(O)cc1[O-])/N=c1/[n-]cccc1[O-]

>  <Energy>  (7) 
89.95073860559599

>  <Genealogy>  (7) 
O=C(C=Cc1cc(CN2CCN(c3ccccc3F)CC2)c(O)cc1[O-])N=c1[n-]cccc1[O-] (protonated)
O=C(/C=C/c1cc(CN2CCN(c3ccccc3F)CC2)c(O)cc1[O-])/N=c1/[n-]cccc1[O-] (cis-trans isomerization)
O=C(/C=C/c1cc(CN2CCN(c3ccccc3F)CC2)c(O)cc1[O-])/N=c1/[n-]cccc1[O-] (3D coordinates assigned)
O=C(/C=C/c1cc(CN2CCN(c3ccccc3F)CC2)c(O)cc1[O-])/N=c1/[n-]cccc1[O-] (nonaromatic ring conformer: 89.95073860559599 kcal/mol)

>  <smiles>  (7) 
O=C(C=Cc1cc(CN2CCN(c3ccccc3F)CC2)c(O)cc1O)N=c1[nH]cccc1O

>  <score_type>  (7) 
oracle

>  <origin>  (7) 
adg

>  <m_score__min__energy>  (7) 
-15.25

>  <m_primary>  (7) 
energy

$$$$
7:0
     RDKit          3D

 53 56  0  0  0  0  0  0  0  0999 V2000
   64.8360   33.1980   48.9290 N   0  0  0  0  0  0  0  0  0  0  0  0
   63.4250   32.9300   47.9690 S   0  0  0  0  0  0  0  0  0  0  0  0
   63.7630   31.9780   46.8600 O   0  0  0  0  0  0  0  0  0  0  0  0
   62.9630   34.2330   47.3790 O   0  0  0  0  0  0  0  0  0  0  0  0
   62.1430   32.2650   48.9750 C   0  0  0  0  0  0  0  0  0  0  0  0
   61.1620   33.1190   49.4960 C   0  0  0  0  0  0  0  0  0  0  0  0
   60.1160   32.5990   50.2600 C   0  0  0  0  0  0  0  0  0  0  0  0
   60.0440   31.2270   50.5070 C   0  0  0  0  0  0  0  0  0  0  0  0
   61.0290   30.3670   50.0090 C   0  0  0  0  0  0  0  0  0  0  0  0
   60.8890   28.9610   50.2390 N   0  0  0  0  0  0  0  0  0  0  0  0
   60.5090   27.9870   49.2590 C   0  0  0  0  0  0  0  0  0  0  0  0
   60.1260   26.8360   49.6120 O   0  0  0  0  0  0  0  0  0  0  0  0
   60.5610   28.3430   47.8110 C   0  0  0  0  0  0  0  0  0  0  0  0
   59.4420   29.7550   47.5120 S   0  0  0  0  0  0  0  0  0  0  0  0
   58.2710   28.8230   46.5220 C   0  0  0  0  0  0  0  0  0  0  0  0
   58.0990   27.4980   46.6350 N   0  0  0  0  0  0  0  0  0  0  0  0
   57.1800   27.2040   45.6880 C   0  0  0  0  0  0  0  0  0  0  0  0
   56.7180   25.8250   45.3840 C   0  0  0  0  0  0  0  0  0  0  0  0
   57.6490   24.8650   44.9450 C   0  0  0  0  0  0  0  0  0  0  0  0
   57.2510   23.5470   44.6980 C   0  0  0  0  0  0  0  0  0  0  0  0
   55.9200   23.1640   44.8950 C   0  0  0  0  0  0  0  0  0  0  0  0
   55.5190   21.8480   44.6800 O   0  0  0  0  0  0  0  0  0  0  0  0
   54.9850   24.1100   45.3190 C   0  0  0  0  0  0  0  0  0  0  0  0
   55.3730   25.4340   45.5620 C   0  0  0  0  0  0  0  0  0  0  0  0
   54.4070   26.3410   45.9840 O   0  0  0  0  0  0  0  0  0  0  0  0
   56.7740   28.2840   44.9840 N   0  0  0  0  0  0  0  0  0  0  0  0
   57.4680   29.3070   45.5080 C   0  0  0  0  0  0  0  0  0  0  0  0
   57.3480   30.7040   45.0420 C   0  0  0  0  0  0  0  0  0  0  0  0
   56.2160   31.1670   44.7400 O   0  0  0  0  0  0  0  0  0  0  0  0
   58.5020   31.5350   44.8480 N   0  0  0  0  0  0  0  0  0  0  0  0
   58.7840   32.7720   45.5180 C   0  0  0  0  0  0  0  0  0  0  0  0
   58.6280   32.9100   46.9090 C   0  0  0  0  0  0  0  0  0  0  0  0
   58.9030   34.1320   47.5280 C   0  0  0  0  0  0  0  0  0  0  0  0
   59.3140   35.2290   46.7630 C   0  0  0  0  0  0  0  0  0  0  0  0
   59.4380   35.1080   45.3780 C   0  0  0  0  0  0  0  0  0  0  0  0
   59.1680   33.8840   44.7580 C   0  0  0  0  0  0  0  0  0  0  0  0
   62.0740   30.8880   49.2300 C   0  0  0  0  0  0  0  0  0  0  0  0
   65.6600   33.1870   48.2910 H   0  0  0  0  0  0  0  0  0  0  0  0
   61.2162   34.2005   49.3027 H   0  0  0  0  0  0  0  0  0  0  0  0
   59.3471   33.2715   50.6681 H   0  0  0  0  0  0  0  0  0  0  0  0
   59.2089   30.8200   51.0960 H   0  0  0  0  0  0  0  0  0  0  0  0
   61.5890   28.6210   47.5353 H   0  0  0  0  0  0  0  0  0  0  0  0
   60.2472   27.4819   47.2027 H   0  0  0  0  0  0  0  0  0  0  0  0
   58.6997   25.1540   44.7947 H   0  0  0  0  0  0  0  0  0  0  0  0
   57.9874   22.8088   44.3475 H   0  0  0  0  0  0  0  0  0  0  0  0
   56.1830   21.1190   44.4560 H   0  0  0  0  0  0  0  0  0  0  0  0
   53.9356   23.8135   45.4634 H   0  0  0  0  0  0  0  0  0  0  0  0
   58.2888   32.0540   47.5108 H   0  0  0  0  0  0  0  0  0  0  0  0
   58.7962   34.2318   48.6183 H   0  0  0  0  0  0  0  0  0  0  0  0
   59.5396   36.1875   47.2534 H   0  0  0  0  0  0  0  0  0  0  0  0
   59.7477   35.9743   44.7750 H   0  0  0  0  0  0  0  0  0  0  0  0
   59.2579   33.7939   43.6654 H   0  0  0  0  0  0  0  0  0  0  0  0
   62.8404   30.2146   48.8187 H   0  0  0  0  0  0  0  0  0  0  0  0
  1  2  1  0
  2  3  2  0
  2  4  2  0
  2  5  1  0
  5  6  2  0
  6  7  1  0
  7  8  2  0
  8  9  1  0
  9 10  1  0
 10 11  1  0
 11 12  2  0
 11 13  1  0
 13 14  1  0
 14 15  1  0
 15 16  1  0
 16 17  2  0
 17 18  1  0
 18 19  2  0
 19 20  1  0
 20 21  2  0
 21 22  1  0
 21 23  1  0
 23 24  2  0
 24 25  1  0
 17 26  1  0
 26 27  1  0
 27 28  1  0
 28 29  2  0
 28 30  1  0
 30 31  1  0
 31 32  2  0
 32 33  1  0
 33 34  2  0
 34 35  1  0
 35 36  2  0
  9 37  2  0
 37  5  1  0
 27 15  2  0
 36 31  1  0
 24 18  1  0
  1 38  1  0
  6 39  1  0
  7 40  1  0
  8 41  1  0
 13 42  1  0
 13 43  1  0
 19 44  1  0
 20 45  1  0
 22 46  1  0
 23 47  1  0
 32 48  1  0
 33 49  1  0
 34 50  1  0
 35 51  1  0
 36 52  1  0
 37 53  1  0
M  CHG  5   1  -1  10  -1  25  -1  26  -1  30  -1
M  END
>  <UniqueID>  (8) 
8

>  <SMILES>  (8) 
[NH-]S(=O)(=O)c1cccc([N-]C(=O)CSc2nc(-c3ccc(O)cc3[O-])[n-]c2C(=O)[N-]c2ccccc2)c1

>  <Energy>  (8) 
92.02795218080412

>  <Genealogy>  (8) 
[NH-]S(=O)(=O)c1cccc([N-]C(=O)CSc2nc(-c3ccc(O)cc3[O-])[n-]c2C(=O)[N-]c2ccccc2)c1 (protonated)
[NH-]S(=O)(=O)c1cccc([N-]C(=O)CSc2nc(-c3ccc(O)cc3[O-])[n-]c2C(=O)[N-]c2ccccc2)c1 (3D coordinates assigned)
[NH-]S(=O)(=O)c1cccc([N-]C(=O)CSc2nc(-c3ccc(O)cc3[O-])[n-]c2C(=O)[N-]c2ccccc2)c1 (optimized conformer: 92.02795218080412 kcal/mol)

>  <smiles>  (8) 
NS(=O)(=O)c1cccc(NC(=O)CSc2nc(-c3ccc(O)cc3O)[nH]c2C(=O)Nc2ccccc2)c1

>  <score_type>  (8) 
oracle

>  <origin>  (8) 
adg

>  <m_score__min__energy>  (8) 
-18.59

>  <m_primary>  (8) 
energy

$$$$
8:0
     RDKit          3D

 27 28  0  0  0  0  0  0  0  0999 V2000
   54.2165   23.5281   45.3949 H   0  0  0  0  0  0  0  0  0  0  0  0
   55.1350   24.1160   45.2510 C   0  0  0  0  0  0  0  0  0  0  0  0
   55.3420   25.2390   45.9890 N   0  0  0  0  0  0  0  0  0  0  0  0
   56.4640   26.0000   45.8490 C   0  0  0  0  0  0  0  0  0  0  0  0
   56.6410   27.0680   46.5690 N   0  0  0  0  0  0  0  0  0  0  0  0
   57.7760   27.9830   46.4450 C   0  0  0  0  0  0  0  0  0  0  0  0
   57.9707   28.4522   47.4207 H   0  0  0  0  0  0  0  0  0  0  0  0
   58.6572   27.4133   46.1149 H   0  0  0  0  0  0  0  0  0  0  0  0
   57.4820   29.0550   45.4300 C   0  0  0  0  0  0  0  0  0  0  0  0
   56.2220   29.1100   44.8110 C   0  0  0  0  0  0  0  0  0  0  0  0
   55.4464   28.3782   45.0813 H   0  0  0  0  0  0  0  0  0  0  0  0
   55.9500   30.0910   43.8530 C   0  0  0  0  0  0  0  0  0  0  0  0
   54.9610   30.1306   43.3732 H   0  0  0  0  0  0  0  0  0  0  0  0
   56.9320   31.0210   43.5040 C   0  0  0  0  0  0  0  0  0  0  0  0
   56.7156   31.7928   42.7507 H   0  0  0  0  0  0  0  0  0  0  0  0
   58.1900   30.9710   44.1120 C   0  0  0  0  0  0  0  0  0  0  0  0
   58.9633   31.7030   43.8359 H   0  0  0  0  0  0  0  0  0  0  0  0
   58.4660   29.9910   45.0710 C   0  0  0  0  0  0  0  0  0  0  0  0
   59.4575   29.9531   45.5459 H   0  0  0  0  0  0  0  0  0  0  0  0
   57.4380   25.6260   44.9190 C   0  0  0  0  0  0  0  0  0  0  0  0
   58.3473   26.2326   44.7952 H   0  0  0  0  0  0  0  0  0  0  0  0
   57.2490   24.4770   44.1480 C   0  0  0  0  0  0  0  0  0  0  0  0
   58.0121   24.1773   43.4146 H   0  0  0  0  0  0  0  0  0  0  0  0
   56.0880   23.7030   44.3060 C   0  0  0  0  0  0  0  0  0  0  0  0
   55.8850   22.5180   43.5170 N   0  0  0  0  0  0  0  0  0  0  0  0
   55.4880   22.5990   42.3360 O   0  0  0  0  0  0  0  0  0  0  0  0
   56.1230   21.2710   44.0520 O   0  0  0  0  0  0  0  0  0  0  0  0
  1  2  1  0
  2  3  1  0
  3  4  1  0
  4  5  2  0
  5  6  1  0
  6  7  1  0
  6  8  1  0
  6  9  1  0
  9 10  2  0
 10 11  1  0
 10 12  1  0
 12 13  1  0
 12 14  2  0
 14 15  1  0
 14 16  1  0
 16 17  1  0
 16 18  2  0
 18 19  1  0
  4 20  1  0
 20 21  1  0
 20 22  2  0
 22 23  1  0
 22 24  1  0
 24 25  1  0
 25 26  2  0
 25 27  1  0
 24  2  2  0
 18  9  1  0
M  CHG  3   3  -1  25   1  27  -1
M  END
>  <UniqueID>  (9) 
9

>  <SMILES>  (9) 
O=[N+]([O-])c1cc/c(=N/Cc2ccccc2)[n-]c1

>  <Energy>  (9) 
28.705910635074787

>  <Genealogy>  (9) 
O=[N+]([O-])c1ccc(=NCc2ccccc2)[n-]c1 (protonated)
O=[N+]([O-])c1cc/c(=N/Cc2ccccc2)[n-]c1 (cis-trans isomerization)
O=[N+]([O-])c1cc/c(=N/Cc2ccccc2)[n-]c1 (3D coordinates assigned)
O=[N+]([O-])c1cc/c(=N/Cc2ccccc2)[n-]c1 (optimized conformer: 28.705910635074787 kcal/mol)

>  <smiles>  (9) 
O=[N+]([O-])c1ccc(=NCc2ccccc2)[nH]c1

>  <score_type>  (9) 
oracle

>  <origin>  (9) 
adg

>  <m_score__min__energy>  (9) 
-8.1300000000000008

>  <m_primary>  (9) 
energy

$$$$
9:0
     RDKit          3D

 49 51  0  0  0  0  0  0  0  0999 V2000
   55.0090   24.2420   44.8640 C   0  0  0  0  0  0  0  0  0  0  0  0
   55.9550   25.3820   45.8510 S   0  0  0  0  0  0  0  0  0  0  0  0
   55.1430   26.6350   46.0230 O   0  0  0  0  0  0  0  0  0  0  0  0
   56.2390   24.7980   47.2060 O   0  0  0  0  0  0  0  0  0  0  0  0
   57.4370   25.7900   45.0460 N   0  0  0  0  0  0  0  0  0  0  0  0
   58.2680   26.9250   45.3280 C   0  0  0  0  0  0  0  0  0  0  0  0
   58.9580   27.5080   44.2590 C   0  0  0  0  0  0  0  0  0  0  0  0
   59.7920   28.6040   44.4640 C   0  0  0  0  0  0  0  0  0  0  0  0
   59.9330   29.1480   45.7400 C   0  0  0  0  0  0  0  0  0  0  0  0
   59.2200   28.6140   46.8250 C   0  0  0  0  0  0  0  0  0  0  0  0
   59.3840   29.2410   48.1840 C   0  0  0  0  0  0  0  0  0  0  0  0
   58.5130   30.4030   48.2900 N   0  0  0  0  0  0  0  0  0  0  0  0
   58.9670   31.6830   48.7420 C   0  0  0  0  0  0  0  0  0  0  0  0
   58.6190   32.1060   49.8780 O   0  0  0  0  0  0  0  0  0  0  0  0
   59.7740   32.5550   47.8580 C   0  0  0  0  0  0  0  0  0  0  0  0
   61.1550   32.3170   47.8310 C   0  0  0  0  0  0  0  0  0  0  0  0
   61.9700   33.1380   47.0650 C   0  0  0  0  0  0  0  0  0  0  0  0
   63.2140   32.9490   47.0360 O   0  0  0  0  0  0  0  0  0  0  0  0
   61.4240   34.1490   46.3550 N   0  0  0  0  0  0  0  0  0  0  0  0
   60.0870   34.3770   46.3570 C   0  0  0  0  0  0  0  0  0  0  0  0
   59.6370   35.3330   45.6680 O   0  0  0  0  0  0  0  0  0  0  0  0
   59.2380   33.5770   47.0930 N   0  0  0  0  0  0  0  0  0  0  0  0
   57.7780   33.8070   46.9700 C   0  0  0  0  0  0  0  0  0  0  0  0
   57.1840   33.0720   45.7540 C   0  0  1  0  0  0  0  0  0  0  0  0
   57.7840   33.5380   44.4260 C   0  0  0  0  0  0  0  0  0  0  0  0
   58.0970   32.2590   43.6930 C   0  0  0  0  0  0  0  0  0  0  0  0
   57.5200   31.1800   44.5830 C   0  0  0  0  0  0  0  0  0  0  0  0
   57.4200   31.6910   45.8870 O   0  0  0  0  0  0  0  0  0  0  0  0
   58.3750   27.4910   46.6190 C   0  0  0  0  0  0  0  0  0  0  0  0
   57.6230   26.9520   47.6660 O   0  0  0  0  0  0  0  0  0  0  0  0
   54.4469   23.5647   45.5238 H   0  0  0  0  0  0  0  0  0  0  0  0
   54.3066   24.8020   44.2292 H   0  0  0  0  0  0  0  0  0  0  0  0
   55.6889   23.6549   44.2292 H   0  0  0  0  0  0  0  0  0  0  0  0
   58.8402   27.0959   43.2459 H   0  0  0  0  0  0  0  0  0  0  0  0
   60.3409   29.0417   43.6172 H   0  0  0  0  0  0  0  0  0  0  0  0
   60.6080   30.0021   45.8977 H   0  0  0  0  0  0  0  0  0  0  0  0
   59.1156   28.5094   48.9603 H   0  0  0  0  0  0  0  0  0  0  0  0
   60.4300   29.5528   48.3205 H   0  0  0  0  0  0  0  0  0  0  0  0
   61.5879   31.4884   48.4107 H   0  0  0  0  0  0  0  0  0  0  0  0
   57.2822   33.4442   47.8825 H   0  0  0  0  0  0  0  0  0  0  0  0
   57.6121   34.8857   46.8323 H   0  0  0  0  0  0  0  0  0  0  0  0
   56.1078   33.2990   45.7357 H   0  0  0  0  0  0  0  0  0  0  0  0
   57.0596   34.1438   43.8618 H   0  0  0  0  0  0  0  0  0  0  0  0
   58.6718   34.1726   44.5643 H   0  0  0  0  0  0  0  0  0  0  0  0
   57.6176   32.2477   42.7030 H   0  0  0  0  0  0  0  0  0  0  0  0
   59.1736   32.1273   43.5096 H   0  0  0  0  0  0  0  0  0  0  0  0
   56.5229   30.8915   44.2191 H   0  0  0  0  0  0  0  0  0  0  0  0
   58.1697   30.2924   44.5725 H   0  0  0  0  0  0  0  0  0  0  0  0
   56.7340   26.4910   47.5390 H   0  0  0  0  0  0  0  0  0  0  0  0
  1  2  1  0
  2  3  2  0
  2  4  2  0
  2  5  1  0
  5  6  1  0
  6  7  2  0
  7  8  1  0
  8  9  2  0
  9 10  1  0
 10 11  1  0
 11 12  1  0
 12 13  1  0
 13 14  2  0
 13 15  1  0
 15 16  2  0
 16 17  1  0
 17 18  2  0
 17 19  1  0
 19 20  1  0
 20 21  2  0
 20 22  1  0
 22 23  1  0
 23 24  1  0
 24 25  1  0
 25 26  1  0
 26 27  1  0
 27 28  1  0
 10 29  2  0
 29 30  1  0
 29  6  1  0
 22 15  1  0
 28 24  1  0
  1 31  1  0
  1 32  1  0
  1 33  1  0
  7 34  1  0
  8 35  1  0
  9 36  1  0
 11 37  1  0
 11 38  1  0
 16 39  1  0
 23 40  1  0
 23 41  1  0
 24 42  1  6
 25 43  1  0
 25 44  1  0
 26 45  1  0
 26 46  1  0
 27 47  1  0
 27 48  1  0
 30 49  1  0
M  CHG  3   5  -1  12  -1  19  -1
M  END
>  <UniqueID>  (10) 
10

>  <SMILES>  (10) 
CS(=O)(=O)[N-]c1cccc(C[N-]C(=O)c2cc(=O)[n-]c(=O)n2C[C@H]2CCCO2)c1O

>  <Energy>  (10) 
60.17131491373449

>  <Genealogy>  (10) 
CS(=O)(=O)[N-]c1cccc(C[N-]C(=O)c2cc(=O)[n-]c(=O)n2CC2CCCO2)c1O (protonated)
CS(=O)(=O)[N-]c1cccc(C[N-]C(=O)c2cc(=O)[n-]c(=O)n2C[C@H]2CCCO2)c1O (chirality)
CS(=O)(=O)[N-]c1cccc(C[N-]C(=O)c2cc(=O)[n-]c(=O)n2C[C@H]2CCCO2)c1O (3D coordinates assigned)
CS(=O)(=O)[N-]c1cccc(C[N-]C(=O)c2cc(=O)[n-]c(=O)n2C[C@H]2CCCO2)c1O (nonaromatic ring conformer: 60.17131491373449 kcal/mol)

>  <smiles>  (10) 
CS(=O)(=O)Nc1cccc(CNC(=O)c2cc(=O)[nH]c(=O)n2CC2CCCO2)c1O

>  <score_type>  (10) 
oracle

>  <origin>  (10) 
adg

>  <m_score__min__energy>  (10) 
-13.59

>  <m_primary>  (10) 
energy

$$$$
10:0
     RDKit          3D

 51 53  0  0  0  0  0  0  0  0999 V2000
   55.3720   26.3550   46.0650 O   0  0  0  0  0  0  0  0  0  0  0  0
   56.5250   26.8550   46.1470 C   0  0  0  0  0  0  0  0  0  0  0  0
   56.8930   27.9100   45.3180 C   0  0  0  0  0  0  0  0  0  0  0  0
   58.1800   28.4310   45.4340 C   0  0  0  0  0  0  0  0  0  0  0  0
   59.0660   27.9110   46.3400 N   0  0  0  0  0  0  0  0  0  0  0  0
   60.4240   28.4830   46.4100 C   0  0  0  0  0  0  0  0  0  0  0  0
   60.4290   29.9790   46.0470 C   0  0  0  0  0  0  0  0  0  0  0  0
   61.0070   30.8950   47.1470 C   0  0  0  0  0  0  0  0  0  0  0  0
   61.4570   30.1390   48.4260 C   0  0  0  0  0  0  0  0  0  0  0  0
   61.1450   30.8730   49.6820 N   0  0  1  0  0  0  0  0  0  0  0  0
   61.5260   32.3140   49.5780 C   0  0  0  0  0  0  0  0  0  0  0  0
   60.8400   33.2500   50.5990 C   0  0  0  0  0  0  0  0  0  0  0  0
   59.3480   33.4420   50.2920 C   0  0  0  0  0  0  0  0  0  0  0  0
   58.9550   32.7190   49.0770 N   0  0  0  0  0  0  0  0  0  0  0  0
   59.0270   33.3670   47.7920 C   0  0  0  0  0  0  0  0  0  0  0  0
   59.6590   34.6160   47.6550 C   0  0  0  0  0  0  0  0  0  0  0  0
   59.7290   35.2380   46.4050 C   0  0  0  0  0  0  0  0  0  0  0  0
   59.1690   34.6230   45.2840 C   0  0  0  0  0  0  0  0  0  0  0  0
   58.5350   33.3820   45.4090 C   0  0  0  0  0  0  0  0  0  0  0  0
   57.8270   32.6130   44.0010 Cl  0  0  0  0  0  0  0  0  0  0  0  0
   58.4640   32.7560   46.6590 C   0  0  0  0  0  0  0  0  0  0  0  0
   58.7000   31.2750   49.1510 C   0  0  0  0  0  0  0  0  0  0  0  0
   59.7340   30.6140   50.0760 C   0  0  0  0  0  0  0  0  0  0  0  0
   58.6670   26.8800   47.1540 C   0  0  0  0  0  0  0  0  0  0  0  0
   59.4490   26.3960   48.0150 O   0  0  0  0  0  0  0  0  0  0  0  0
   57.4140   26.3660   47.0450 N   0  0  0  0  0  0  0  0  0  0  0  0
   56.1831   28.3239   44.5867 H   0  0  0  0  0  0  0  0  0  0  0  0
   58.4878   29.2688   44.7912 H   0  0  0  0  0  0  0  0  0  0  0  0
   60.8095   28.3628   47.4332 H   0  0  0  0  0  0  0  0  0  0  0  0
   61.0586   27.9514   45.6857 H   0  0  0  0  0  0  0  0  0  0  0  0
   61.0316   30.1110   45.1363 H   0  0  0  0  0  0  0  0  0  0  0  0
   59.3784   30.2744   45.9093 H   0  0  0  0  0  0  0  0  0  0  0  0
   61.8780   31.4246   46.7337 H   0  0  0  0  0  0  0  0  0  0  0  0
   60.1997   31.5785   47.4487 H   0  0  0  0  0  0  0  0  0  0  0  0
   60.9462   29.1652   48.4543 H   0  0  0  0  0  0  0  0  0  0  0  0
   62.5505   30.0312   48.3739 H   0  0  0  0  0  0  0  0  0  0  0  0
   61.7290   30.4640   50.4440 H   0  0  0  0  0  0  0  0  0  0  0  0
   62.6137   32.3900   49.7235 H   0  0  0  0  0  0  0  0  0  0  0  0
   61.1920   32.6478   48.5845 H   0  0  0  0  0  0  0  0  0  0  0  0
   60.9426   32.8150   51.6041 H   0  0  0  0  0  0  0  0  0  0  0  0
   61.3283   34.2339   50.5392 H   0  0  0  0  0  0  0  0  0  0  0  0
   58.7567   33.0656   51.1397 H   0  0  0  0  0  0  0  0  0  0  0  0
   59.1621   34.5144   50.1326 H   0  0  0  0  0  0  0  0  0  0  0  0
   60.1003   35.1057   48.5356 H   0  0  0  0  0  0  0  0  0  0  0  0
   60.2264   36.2140   46.3046 H   0  0  0  0  0  0  0  0  0  0  0  0
   59.2262   35.1144   44.3015 H   0  0  0  0  0  0  0  0  0  0  0  0
   57.9648   31.7805   46.7547 H   0  0  0  0  0  0  0  0  0  0  0  0
   57.6894   31.1020   49.5493 H   0  0  0  0  0  0  0  0  0  0  0  0
   58.7796   30.8386   48.1444 H   0  0  0  0  0  0  0  0  0  0  0  0
   59.5827   30.9980   51.0956 H   0  0  0  0  0  0  0  0  0  0  0  0
   59.5767   29.5275   50.0074 H   0  0  0  0  0  0  0  0  0  0  0  0
  1  2  2  0
  2  3  1  0
  3  4  2  0
  4  5  1  0
  5  6  1  0
  6  7  1  0
  7  8  1  0
  8  9  1  0
  9 10  1  0
 10 11  1  0
 11 12  1  0
 12 13  1  0
 13 14  1  0
 14 15  1  0
 15 16  2  0
 16 17  1  0
 17 18  2  0
 18 19  1  0
 19 20  1  0
 19 21  2  0
 14 22  1  0
 22 23  1  0
  5 24  1  0
 24 25  2  0
 24 26  1  0
 26  2  1  0
 23 10  1  0
 21 15  1  0
  3 27  1  0
  4 28  1  0
  6 29  1  0
  6 30  1  0
  7 31  1  0
  7 32  1  0
  8 33  1  0
  8 34  1  0
  9 35  1  0
  9 36  1  0
 10 37  1  1
 11 38  1  0
 11 39  1  0
 12 40  1  0
 12 41  1  0
 13 42  1  0
 13 43  1  0
 16 44  1  0
 17 45  1  0
 18 46  1  0
 21 47  1  0
 22 48  1  0
 22 49  1  0
 23 50  1  0
 23 51  1  0
M  CHG  2  10   1  26  -1
M  END
>  <UniqueID>  (11) 
11

>  <SMILES>  (11) 
O=c1ccn(CCCC[N@H+]2CCCN(c3cccc(Cl)c3)CC2)c(=O)[n-]1

>  <Energy>  (11) 
70.06058242949942

>  <Genealogy>  (11) 
O=c1ccn(CCCC[NH+]2CCCN(c3cccc(Cl)c3)CC2)c(=O)[n-]1 (protonated)
O=c1ccn(CCCC[N@H+]2CCCN(c3cccc(Cl)c3)CC2)c(=O)[n-]1 (chirality)
O=c1ccn(CCCC[N@H+]2CCCN(c3cccc(Cl)c3)CC2)c(=O)[n-]1 (3D coordinates assigned)
O=c1ccn(CCCC[N@H+]2CCCN(c3cccc(Cl)c3)CC2)c(=O)[n-]1 (nonaromatic ring conformer: 70.06058242949942 kcal/mol)

>  <smiles>  (11) 
O=c1ccn(CCCCN2CCCN(c3cccc(Cl)c3)CC2)c(=O)[nH]1

>  <score_type>  (11) 
oracle

>  <origin>  (11) 
adg

>  <m_score__min__energy>  (11) 
-6.8600000000000003

>  <m_primary>  (11) 
energy

$$$$
11:0
     RDKit          3D

 40 42  0  0  0  0  0  0  0  0999 V2000
   55.8850   29.8390   44.8690 O   0  0  0  0  0  0  0  0  0  0  0  0
   56.9110   30.1120   44.1920 C   0  0  0  0  0  0  0  0  0  0  0  0
   57.1620   31.5380   43.7750 C   0  0  0  0  0  0  0  0  0  0  0  0
   57.7390   32.3320   44.9160 C   0  0  0  0  0  0  0  0  0  0  0  0
   57.8750   33.7270   44.8160 C   0  0  0  0  0  0  0  0  0  0  0  0
   58.4350   34.4560   45.8700 C   0  0  0  0  0  0  0  0  0  0  0  0
   58.8720   33.8000   47.0240 C   0  0  0  0  0  0  0  0  0  0  0  0
   59.4290   34.5270   48.0690 O   0  0  0  0  0  0  0  0  0  0  0  0
   58.7510   32.4100   47.1260 C   0  0  0  0  0  0  0  0  0  0  0  0
   58.1900   31.6770   46.0750 C   0  0  0  0  0  0  0  0  0  0  0  0
   57.7860   29.0430   43.8060 N   0  0  0  0  0  0  0  0  0  0  0  0
   58.1610   27.9210   44.6160 C   0  0  0  0  0  0  0  0  0  0  0  0
   59.0190   28.1230   45.7030 C   0  0  0  0  0  0  0  0  0  0  0  0
   59.4010   27.0470   46.5090 C   0  0  0  0  0  0  0  0  0  0  0  0
   58.9400   25.7600   46.2260 C   0  0  0  0  0  0  0  0  0  0  0  0
   58.1090   25.5340   45.1170 C   0  0  0  0  0  0  0  0  0  0  0  0
   57.5770   24.1550   44.8260 C   0  0  0  0  0  0  0  0  0  0  0  0
   56.0660   24.1480   44.9000 C   0  0  0  0  0  0  0  0  0  0  0  0
   55.3050   23.3730   44.0070 C   0  0  0  0  0  0  0  0  0  0  0  0
   55.9280   22.6280   43.0080 O   0  0  0  0  0  0  0  0  0  0  0  0
   53.9510   23.3460   44.1150 N   0  0  0  0  0  0  0  0  0  0  0  0
   53.3100   24.0530   45.0790 C   0  0  0  0  0  0  0  0  0  0  0  0
   52.0540   24.0120   45.1590 O   0  0  0  0  0  0  0  0  0  0  0  0
   54.0200   24.8030   45.9580 N   0  0  0  0  0  0  0  0  0  0  0  0
   55.3750   24.8650   45.8960 C   0  0  0  0  0  0  0  0  0  0  0  0
   55.9960   25.5710   46.7330 O   0  0  0  0  0  0  0  0  0  0  0  0
   57.7350   26.6180   44.3070 C   0  0  0  0  0  0  0  0  0  0  0  0
   57.8699   31.5488   42.9331 H   0  0  0  0  0  0  0  0  0  0  0  0
   56.2061   31.9925   43.4755 H   0  0  0  0  0  0  0  0  0  0  0  0
   57.5401   34.2470   43.9064 H   0  0  0  0  0  0  0  0  0  0  0  0
   58.5318   35.5488   45.7904 H   0  0  0  0  0  0  0  0  0  0  0  0
   59.0972   31.8932   48.0332 H   0  0  0  0  0  0  0  0  0  0  0  0
   58.1014   30.5836   46.1558 H   0  0  0  0  0  0  0  0  0  0  0  0
   59.3944   29.1331   45.9240 H   0  0  0  0  0  0  0  0  0  0  0  0
   60.0666   27.2146   47.3686 H   0  0  0  0  0  0  0  0  0  0  0  0
   59.2289   24.9197   46.8744 H   0  0  0  0  0  0  0  0  0  0  0  0
   57.8922   23.8500   43.8172 H   0  0  0  0  0  0  0  0  0  0  0  0
   57.9748   23.4532   45.5738 H   0  0  0  0  0  0  0  0  0  0  0  0
   56.2280   23.0640   42.1440 H   0  0  0  0  0  0  0  0  0  0  0  0
   57.1032   26.4459   43.4231 H   0  0  0  0  0  0  0  0  0  0  0  0
  1  2  2  0
  2  3  1  0
  3  4  1  0
  4  5  2  0
  5  6  1  0
  6  7  2  0
  7  8  1  0
  7  9  1  0
  9 10  2  0
  2 11  1  0
 11 12  1  0
 12 13  2  0
 13 14  1  0
 14 15  2  0
 15 16  1  0
 16 17  1  0
 17 18  1  0
 18 19  2  0
 19 20  1  0
 19 21  1  0
 21 22  1  0
 22 23  2  0
 22 24  1  0
 24 25  1  0
 25 26  2  0
 16 27  2  0
 10  4  1  0
 27 12  1  0
 25 18  1  0
  3 28  1  0
  3 29  1  0
  5 30  1  0
  6 31  1  0
  9 32  1  0
 10 33  1  0
 13 34  1  0
 14 35  1  0
 15 36  1  0
 17 37  1  0
 17 38  1  0
 20 39  1  0
 27 40  1  0
M  CHG  4   8  -1  11  -1  21  -1  24  -1
M  END
>  <UniqueID>  (12) 
12

>  <SMILES>  (12) 
O=C(Cc1ccc([O-])cc1)[N-]c1cccc(Cc2c(O)[n-]c(=O)[n-]c2=O)c1

>  <Energy>  (12) 
46.771166516945755

>  <Genealogy>  (12) 
O=C(Cc1ccc([O-])cc1)[N-]c1cccc(Cc2c(O)[n-]c(=O)[n-]c2=O)c1 (protonated)
O=C(Cc1ccc([O-])cc1)[N-]c1cccc(Cc2c(O)[n-]c(=O)[n-]c2=O)c1 (3D coordinates assigned)
O=C(Cc1ccc([O-])cc1)[N-]c1cccc(Cc2c(O)[n-]c(=O)[n-]c2=O)c1 (optimized conformer: 46.771166516945755 kcal/mol)

>  <smiles>  (12) 
O=C(Cc1ccc(O)cc1)Nc1cccc(Cc2c(O)[nH]c(=O)[nH]c2=O)c1

>  <score_type>  (12) 
oracle

>  <origin>  (12) 
adg

>  <m_score__min__energy>  (12) 
-16.440000000000001

>  <m_primary>  (12) 
energy

$$$$
12:0
     RDKit          3D

 51 54  0  0  0  0  0  0  0  0999 V2000
   57.6630   32.0620   42.0250 C   0  0  0  0  0  0  0  0  0  0  0  0
   57.1060   31.6660   43.2740 O   0  0  0  0  0  0  0  0  0  0  0  0
   57.5340   30.5580   44.0260 C   0  0  0  0  0  0  0  0  0  0  0  0
   58.8750   30.4100   44.4170 C   0  0  0  0  0  0  0  0  0  0  0  0
   59.2750   29.3270   45.1960 C   0  0  0  0  0  0  0  0  0  0  0  0
   58.3420   28.3740   45.6370 C   0  0  0  0  0  0  0  0  0  0  0  0
   58.6970   27.2970   46.4930 C   0  0  0  0  0  0  0  0  0  0  0  0
   60.0880   27.1410   47.0880 C   0  0  0  0  0  0  0  0  0  0  0  0
   60.3160   28.0750   48.2090 N   0  0  0  0  0  0  0  0  0  0  0  0
   60.1500   29.4190   47.9940 C   0  0  0  0  0  0  0  0  0  0  0  0
   60.2830   30.3320   49.0400 C   0  0  0  0  0  0  0  0  0  0  0  0
   60.5960   29.8810   50.3200 C   0  0  0  0  0  0  0  0  0  0  0  0
   60.6300   30.8140   51.3690 O   0  0  0  0  0  0  0  0  0  0  0  0
   61.7220   31.6930   51.6420 C   0  0  0  0  0  0  0  0  0  0  0  0
   62.1970   32.3530   50.3720 C   0  0  0  0  0  0  0  0  0  0  0  0
   63.2960   31.8370   49.6640 C   0  0  0  0  0  0  0  0  0  0  0  0
   63.7490   32.4780   48.5060 C   0  0  0  0  0  0  0  0  0  0  0  0
   63.1080   33.6300   48.0450 C   0  0  0  0  0  0  0  0  0  0  0  0
   62.0070   34.1420   48.7370 C   0  0  0  0  0  0  0  0  0  0  0  0
   61.5500   33.5050   49.8960 C   0  0  0  0  0  0  0  0  0  0  0  0
   60.8530   28.5170   50.5130 C   0  0  0  0  0  0  0  0  0  0  0  0
   60.7250   27.6270   49.4420 C   0  0  0  0  0  0  0  0  0  0  0  0
   60.9890   26.4080   49.6310 O   0  0  0  0  0  0  0  0  0  0  0  0
   57.7130   26.3620   46.8510 C   0  0  0  0  0  0  0  0  0  0  0  0
   56.4060   26.5120   46.3930 C   0  0  0  0  0  0  0  0  0  0  0  0
   55.5220   25.6760   46.7160 O   0  0  0  0  0  0  0  0  0  0  0  0
   56.0790   27.5640   45.6020 N   0  0  0  0  0  0  0  0  0  0  0  0
   56.9930   28.4940   45.2130 C   0  0  0  0  0  0  0  0  0  0  0  0
   56.5930   29.5750   44.3930 C   0  0  0  0  0  0  0  0  0  0  0  0
   55.1480   29.7290   43.9850 C   0  0  0  0  0  0  0  0  0  0  0  0
   58.5479   32.6912   42.2012 H   0  0  0  0  0  0  0  0  0  0  0  0
   57.9561   31.1684   41.4544 H   0  0  0  0  0  0  0  0  0  0  0  0
   56.9153   32.6324   41.4544 H   0  0  0  0  0  0  0  0  0  0  0  0
   59.6181   31.1584   44.1042 H   0  0  0  0  0  0  0  0  0  0  0  0
   60.3348   29.2165   45.4693 H   0  0  0  0  0  0  0  0  0  0  0  0
   60.2043   26.1104   47.4546 H   0  0  0  0  0  0  0  0  0  0  0  0
   60.8225   27.3675   46.3011 H   0  0  0  0  0  0  0  0  0  0  0  0
   59.9089   29.7817   46.9839 H   0  0  0  0  0  0  0  0  0  0  0  0
   60.1409   31.4068   48.8542 H   0  0  0  0  0  0  0  0  0  0  0  0
   61.3953   32.4669   52.3522 H   0  0  0  0  0  0  0  0  0  0  0  0
   62.5499   31.1101   52.0719 H   0  0  0  0  0  0  0  0  0  0  0  0
   63.8009   30.9273   50.0211 H   0  0  0  0  0  0  0  0  0  0  0  0
   64.6123   32.0736   47.9571 H   0  0  0  0  0  0  0  0  0  0  0  0
   63.4698   34.1345   47.1370 H   0  0  0  0  0  0  0  0  0  0  0  0
   61.4994   35.0463   48.3703 H   0  0  0  0  0  0  0  0  0  0  0  0
   60.6807   33.9081   50.4363 H   0  0  0  0  0  0  0  0  0  0  0  0
   61.1546   28.1474   51.5042 H   0  0  0  0  0  0  0  0  0  0  0  0
   57.9746   25.5091   47.4945 H   0  0  0  0  0  0  0  0  0  0  0  0
   54.5182   29.7961   44.8844 H   0  0  0  0  0  0  0  0  0  0  0  0
   55.0315   30.6446   43.3866 H   0  0  0  0  0  0  0  0  0  0  0  0
   54.8412   28.8585   43.3866 H   0  0  0  0  0  0  0  0  0  0  0  0
  1  2  1  0
  2  3  1  0
  3  4  2  0
  4  5  1  0
  5  6  2  0
  6  7  1  0
  7  8  1  0
  8  9  1  0
  9 10  1  0
 10 11  2  0
 11 12  1  0
 12 13  1  0
 13 14  1  0
 14 15  1  0
 15 16  2  0
 16 17  1  0
 17 18  2  0
 18 19  1  0
 19 20  2  0
 12 21  2  0
 21 22  1  0
 22 23  2  0
  7 24  2  0
 24 25  1  0
 25 26  2  0
 25 27  1  0
 27 28  1  0
 28 29  2  0
 29 30  1  0
 29  3  1  0
 28  6  1  0
 22  9  1  0
 20 15  1  0
  1 31  1  0
  1 32  1  0
  1 33  1  0
  4 34  1  0
  5 35  1  0
  8 36  1  0
  8 37  1  0
 10 38  1  0
 11 39  1  0
 14 40  1  0
 14 41  1  0
 16 42  1  0
 17 43  1  0
 18 44  1  0
 19 45  1  0
 20 46  1  0
 21 47  1  0
 24 48  1  0
 30 49  1  0
 30 50  1  0
 30 51  1  0
M  CHG  1  27  -1
M  END
>  <UniqueID>  (13) 
13

>  <SMILES>  (13) 
COc1ccc2c(Cn3ccc(OCc4ccccc4)cc3=O)cc(=O)[n-]c2c1C

>  <Energy>  (13) 
65.1656410138353

>  <Genealogy>  (13) 
COc1ccc2c(Cn3ccc(OCc4ccccc4)cc3=O)cc(=O)[n-]c2c1C (protonated)
COc1ccc2c(Cn3ccc(OCc4ccccc4)cc3=O)cc(=O)[n-]c2c1C (3D coordinates assigned)
COc1ccc2c(Cn3ccc(OCc4ccccc4)cc3=O)cc(=O)[n-]c2c1C (optimized conformer: 65.1656410138353 kcal/mol)

>  <smiles>  (13) 
COc1ccc2c(Cn3ccc(OCc4ccccc4)cc3=O)cc(=O)[nH]c2c1C

>  <score_type>  (13) 
oracle

>  <origin>  (13) 
adg

>  <m_score__min__energy>  (13) 
-10.6

>  <m_primary>  (13) 
energy

$$$$
13:0
     RDKit          3D

 60 64  0  0  0  0  0  0  0  0999 V2000
   57.4410   31.8130   42.8580 O   0  0  0  0  0  0  0  0  0  0  0  0
   57.5460   31.6630   44.1070 C   0  0  0  0  0  0  0  0  0  0  0  0
   57.6770   30.2970   44.6660 C   0  0  0  0  0  0  0  0  0  0  0  0
   58.9380   29.7990   45.0320 C   0  0  0  0  0  0  0  0  0  0  0  0
   59.0640   28.5160   45.5690 C   0  0  0  0  0  0  0  0  0  0  0  0
   57.9320   27.7090   45.7660 C   0  0  0  0  0  0  0  0  0  0  0  0
   58.0930   26.3130   46.3180 C   0  0  0  0  0  0  0  0  0  0  0  0
   57.4030   25.3320   45.4580 N   0  0  0  0  0  0  0  0  0  0  0  0
   57.6600   25.3580   44.1170 C   0  0  0  0  0  0  0  0  0  0  0  0
   57.0320   24.4680   43.2530 C   0  0  0  0  0  0  0  0  0  0  0  0
   56.1290   23.5320   43.7490 C   0  0  0  0  0  0  0  0  0  0  0  0
   55.5310   22.6590   42.8390 O   0  0  0  0  0  0  0  0  0  0  0  0
   55.8540   23.4960   45.1340 C   0  0  0  0  0  0  0  0  0  0  0  0
   54.9030   22.4680   45.7210 C   0  0  0  0  0  0  0  0  0  0  0  0
   53.4660   22.9070   45.5850 C   0  0  0  0  0  0  0  0  0  0  0  0
   53.1290   24.0120   44.7860 C   0  0  0  0  0  0  0  0  0  0  0  0
   51.7960   24.4220   44.6690 C   0  0  0  0  0  0  0  0  0  0  0  0
   50.7910   23.7380   45.3580 C   0  0  0  0  0  0  0  0  0  0  0  0
   51.1170   22.6490   46.1690 C   0  0  0  0  0  0  0  0  0  0  0  0
   52.4470   22.2370   46.2880 C   0  0  0  0  0  0  0  0  0  0  0  0
   56.5180   24.4180   45.9790 C   0  0  0  0  0  0  0  0  0  0  0  0
   56.2980   24.3910   47.2220 O   0  0  0  0  0  0  0  0  0  0  0  0
   56.6650   28.2080   45.4080 C   0  0  0  0  0  0  0  0  0  0  0  0
   55.5220   27.4400   45.5930 O   0  0  0  0  0  0  0  0  0  0  0  0
   56.5420   29.4930   44.8680 C   0  0  0  0  0  0  0  0  0  0  0  0
   57.5490   32.8220   44.9590 N   0  0  0  0  0  0  0  0  0  0  0  0
   58.0440   34.1080   44.4670 C   0  0  0  0  0  0  0  0  0  0  0  0
   59.4510   34.3450   45.0190 C   0  0  0  0  0  0  0  0  0  0  0  0
   59.5410   34.0440   46.4970 C   0  0  0  0  0  0  0  0  0  0  0  0
   60.6350   34.5360   47.2270 C   0  0  0  0  0  0  0  0  0  0  0  0
   60.7800   34.2280   48.5810 C   0  0  0  0  0  0  0  0  0  0  0  0
   59.8370   33.4190   49.2200 C   0  0  0  0  0  0  0  0  0  0  0  0
   58.7510   32.9110   48.5050 C   0  0  0  0  0  0  0  0  0  0  0  0
   58.6000   33.2000   47.1410 C   0  0  0  0  0  0  0  0  0  0  0  0
   57.3860   32.6820   46.4090 C   0  0  0  0  0  0  0  0  0  0  0  0
   59.8328   30.4239   44.8948 H   0  0  0  0  0  0  0  0  0  0  0  0
   60.0593   28.1341   45.8402 H   0  0  0  0  0  0  0  0  0  0  0  0
   59.1634   26.0636   46.3642 H   0  0  0  0  0  0  0  0  0  0  0  0
   57.6502   26.2761   47.3242 H   0  0  0  0  0  0  0  0  0  0  0  0
   58.3732   26.0927   43.7152 H   0  0  0  0  0  0  0  0  0  0  0  0
   57.2492   24.5036   42.1752 H   0  0  0  0  0  0  0  0  0  0  0  0
   55.7720   22.6180   41.8590 H   0  0  0  0  0  0  0  0  0  0  0  0
   55.0371   21.5130   45.1918 H   0  0  0  0  0  0  0  0  0  0  0  0
   55.1312   22.3565   46.7913 H   0  0  0  0  0  0  0  0  0  0  0  0
   53.9180   24.5587   44.2487 H   0  0  0  0  0  0  0  0  0  0  0  0
   51.5393   25.2830   44.0344 H   0  0  0  0  0  0  0  0  0  0  0  0
   49.7428   24.0575   45.2615 H   0  0  0  0  0  0  0  0  0  0  0  0
   50.3256   22.1146   46.7150 H   0  0  0  0  0  0  0  0  0  0  0  0
   52.6992   21.3839   46.9350 H   0  0  0  0  0  0  0  0  0  0  0  0
   55.5472   29.8777   44.5989 H   0  0  0  0  0  0  0  0  0  0  0  0
   58.0768   34.0943   43.3676 H   0  0  0  0  0  0  0  0  0  0  0  0
   57.3742   34.9152   44.7984 H   0  0  0  0  0  0  0  0  0  0  0  0
   60.1569   33.6950   44.4812 H   0  0  0  0  0  0  0  0  0  0  0  0
   59.6965   35.4075   44.8746 H   0  0  0  0  0  0  0  0  0  0  0  0
   61.3836   35.1690   46.7282 H   0  0  0  0  0  0  0  0  0  0  0  0
   61.6377   34.6227   49.1454 H   0  0  0  0  0  0  0  0  0  0  0  0
   59.9505   33.1820   50.2882 H   0  0  0  0  0  0  0  0  0  0  0  0
   58.0085   32.2796   49.0150 H   0  0  0  0  0  0  0  0  0  0  0  0
   57.2441   31.6191   46.6543 H   0  0  0  0  0  0  0  0  0  0  0  0
   56.5102   33.2694   46.7221 H   0  0  0  0  0  0  0  0  0  0  0  0
  1  2  2  0
  2  3  1  0
  3  4  2  0
  4  5  1  0
  5  6  2  0
  6  7  1  0
  7  8  1  0
  8  9  1  0
  9 10  2  0
 10 11  1  0
 11 12  1  0
 11 13  2  0
 13 14  1  0
 14 15  1  0
 15 16  2  0
 16 17  1  0
 17 18  2  0
 18 19  1  0
 19 20  2  0
 13 21  1  0
 21 22  2  0
  6 23  1  0
 23 24  1  0
 23 25  2  0
  2 26  1  0
 26 27  1  0
 27 28  1  0
 28 29  1  0
 29 30  2  0
 30 31  1  0
 31 32  2  0
 32 33  1  0
 33 34  2  0
 34 35  1  0
 25  3  1  0
 35 26  1  0
 21  8  1  0
 34 29  1  0
 20 15  1  0
  4 36  1  0
  5 37  1  0
  7 38  1  0
  7 39  1  0
  9 40  1  0
 10 41  1  0
 12 42  1  0
 14 43  1  0
 14 44  1  0
 16 45  1  0
 17 46  1  0
 18 47  1  0
 19 48  1  0
 20 49  1  0
 25 50  1  0
 27 51  1  0
 27 52  1  0
 28 53  1  0
 28 54  1  0
 30 55  1  0
 31 56  1  0
 32 57  1  0
 33 58  1  0
 35 59  1  0
 35 60  1  0
M  CHG  1  24  -1
M  END
>  <UniqueID>  (14) 
14

>  <SMILES>  (14) 
O=C(c1ccc(Cn2ccc(O)c(Cc3ccccc3)c2=O)c([O-])c1)N1CCc2ccccc2C1

>  <Energy>  (14) 
79.02832645470902

>  <Genealogy>  (14) 
O=C(c1ccc(Cn2ccc(O)c(Cc3ccccc3)c2=O)c([O-])c1)N1CCc2ccccc2C1 (protonated)
O=C(c1ccc(Cn2ccc(O)c(Cc3ccccc3)c2=O)c([O-])c1)N1CCc2ccccc2C1 (3D coordinates assigned)
O=C(c1ccc(Cn2ccc(O)c(Cc3ccccc3)c2=O)c([O-])c1)N1CCc2ccccc2C1 (nonaromatic ring conformer: 79.02832645470902 kcal/mol)

>  <smiles>  (14) 
O=C(c1ccc(Cn2ccc(O)c(Cc3ccccc3)c2=O)c(O)c1)N1CCc2ccccc2C1

>  <score_type>  (14) 
oracle

>  <origin>  (14) 
adg

>  <m_score__min__energy>  (14) 
-13.699999999999999

>  <m_primary>  (14) 
energy

$$$$
14:0
     RDKit          3D

 52 55  0  0  0  0  0  0  0  0999 V2000
   59.2940   28.0620   47.3780 C   0  0  0  0  0  0  0  0  0  0  0  0
   58.6730   28.9430   46.5760 C   0  0  0  0  0  0  0  0  0  0  0  0
   57.8640   28.6590   45.4620 C   0  0  0  0  0  0  0  0  0  0  0  0
   57.3650   27.4940   45.0030 C   0  0  0  0  0  0  0  0  0  0  0  0
   57.1590   26.2720   45.8040 C   0  0  0  0  0  0  0  0  0  0  0  0
   55.8820   25.9100   46.2670 C   0  0  0  0  0  0  0  0  0  0  0  0
   54.7790   26.7150   46.0100 O   0  0  0  0  0  0  0  0  0  0  0  0
   55.7170   24.7580   46.9670 N   0  0  0  0  0  0  0  0  0  0  0  0
   56.7670   23.9340   47.2190 C   0  0  0  0  0  0  0  0  0  0  0  0
   56.5380   22.5590   48.0650 S   0  0  0  0  0  0  0  0  0  0  0  0
   58.0040   24.2490   46.7570 N   0  0  0  0  0  0  0  0  0  0  0  0
   58.2220   25.3890   46.0520 C   0  0  0  0  0  0  0  0  0  0  0  0
   59.3810   25.6460   45.6320 O   0  0  0  0  0  0  0  0  0  0  0  0
   57.6170   29.8730   44.8430 C   0  0  0  0  0  0  0  0  0  0  0  0
   58.2170   30.8470   45.6130 C   0  0  0  0  0  0  0  0  0  0  0  0
   58.1840   32.3130   45.3080 C   0  0  0  0  0  0  0  0  0  0  0  0
   58.8590   30.2860   46.6640 N   0  0  0  0  0  0  0  0  0  0  0  0
   59.6090   30.9980   47.6640 C   0  0  0  0  0  0  0  0  0  0  0  0
   58.9520   31.5810   48.7560 C   0  0  0  0  0  0  0  0  0  0  0  0
   59.6780   32.2780   49.7260 C   0  0  0  0  0  0  0  0  0  0  0  0
   61.0730   32.4110   49.6150 C   0  0  0  0  0  0  0  0  0  0  0  0
   61.8340   33.1450   50.6550 C   0  0  0  0  0  0  0  0  0  0  0  0
   61.5990   32.9130   51.8720 O   0  0  0  0  0  0  0  0  0  0  0  0
   62.8210   34.1260   50.2970 N   0  0  0  0  0  0  0  0  0  0  0  0
   63.7530   34.6860   51.2740 C   0  0  0  0  0  0  0  0  0  0  0  0
   65.1030   34.0390   51.1300 C   0  0  0  0  0  0  0  0  0  0  0  0
   66.1910   34.4700   51.9080 C   0  0  0  0  0  0  0  0  0  0  0  0
   67.4350   33.8450   51.7850 C   0  0  0  0  0  0  0  0  0  0  0  0
   67.6020   32.7840   50.8910 C   0  0  0  0  0  0  0  0  0  0  0  0
   66.5220   32.3450   50.1180 C   0  0  0  0  0  0  0  0  0  0  0  0
   65.2760   32.9670   50.2380 C   0  0  0  0  0  0  0  0  0  0  0  0
   61.7290   31.8150   48.5220 C   0  0  0  0  0  0  0  0  0  0  0  0
   61.0010   31.1170   47.5540 C   0  0  0  0  0  0  0  0  0  0  0  0
   59.9018   28.4200   48.2220 H   0  0  0  0  0  0  0  0  0  0  0  0
   59.1946   26.9826   47.1906 H   0  0  0  0  0  0  0  0  0  0  0  0
   57.0874   27.4505   43.9395 H   0  0  0  0  0  0  0  0  0  0  0  0
   57.0499   30.0304   43.9137 H   0  0  0  0  0  0  0  0  0  0  0  0
   58.1712   32.8830   46.2487 H   0  0  0  0  0  0  0  0  0  0  0  0
   59.0762   32.5865   44.7257 H   0  0  0  0  0  0  0  0  0  0  0  0
   57.2804   32.5461   44.7257 H   0  0  0  0  0  0  0  0  0  0  0  0
   57.8599   31.4897   48.8502 H   0  0  0  0  0  0  0  0  0  0  0  0
   59.1536   32.7260   50.5829 H   0  0  0  0  0  0  0  0  0  0  0  0
   62.8570   34.4950   49.3210 H   0  0  0  0  0  0  0  0  0  0  0  0
   63.8488   35.7689   51.1063 H   0  0  0  0  0  0  0  0  0  0  0  0
   63.3692   34.4968   52.2874 H   0  0  0  0  0  0  0  0  0  0  0  0
   66.0631   35.3020   52.6161 H   0  0  0  0  0  0  0  0  0  0  0  0
   68.2845   34.1890   52.3932 H   0  0  0  0  0  0  0  0  0  0  0  0
   68.5823   32.2943   50.7952 H   0  0  0  0  0  0  0  0  0  0  0  0
   66.6534   31.5093   49.4149 H   0  0  0  0  0  0  0  0  0  0  0  0
   64.4277   32.6161   49.6320 H   0  0  0  0  0  0  0  0  0  0  0  0
   62.8218   31.8989   48.4287 H   0  0  0  0  0  0  0  0  0  0  0  0
   61.5236   30.6587   46.7014 H   0  0  0  0  0  0  0  0  0  0  0  0
  1  2  2  0
  2  3  1  0
  3  4  2  3
  4  5  1  0
  5  6  2  0
  6  7  1  0
  6  8  1  0
  8  9  1  0
  9 10  2  0
  9 11  1  0
 11 12  1  0
 12 13  2  0
  3 14  1  0
 14 15  2  0
 15 16  1  0
 15 17  1  0
 17 18  1  0
 18 19  2  0
 19 20  1  0
 20 21  2  0
 21 22  1  0
 22 23  2  0
 22 24  1  0
 24 25  1  0
 25 26  1  0
 26 27  2  0
 27 28  1  0
 28 29  2  0
 29 30  1  0
 30 31  2  0
 21 32  1  0
 32 33  2  0
 17  2  1  0
 33 18  1  0
 12  5  1  0
 31 26  1  0
  1 34  1  0
  1 35  1  0
  4 36  1  0
 14 37  1  0
 16 38  1  0
 16 39  1  0
 16 40  1  0
 19 41  1  0
 20 42  1  0
 24 43  1  0
 25 44  1  0
 25 45  1  0
 27 46  1  0
 28 47  1  0
 29 48  1  0
 30 49  1  0
 31 50  1  0
 32 51  1  0
 33 52  1  0
M  CHG  3   7  -1   8  -1  11  -1
M  END
>  <UniqueID>  (15) 
15

>  <SMILES>  (15) 
C=c1c(=Cc2c([O-])[n-]c(=S)[n-]c2=O)cc(C)n1-c1ccc(C(=O)NCc2ccccc2)cc1

>  <Energy>  (15) 
105.20256292005897

>  <Genealogy>  (15) 
C=c1c(=Cc2c([O-])[n-]c(=S)[n-]c2=O)cc(C)n1-c1ccc(C(=O)NCc2ccccc2)cc1 (protonated)
C=c1c(=Cc2c([O-])[n-]c(=S)[n-]c2=O)cc(C)n1-c1ccc(C(=O)NCc2ccccc2)cc1 (3D coordinates assigned)
C=c1c(=Cc2c([O-])[n-]c(=S)[n-]c2=O)cc(C)n1-c1ccc(C(=O)NCc2ccccc2)cc1 (optimized conformer: 105.20256292005897 kcal/mol)

>  <smiles>  (15) 
C=c1c(=Cc2c(O)[nH]c(=S)[nH]c2=O)cc(C)n1-c1ccc(C(=O)NCc2ccccc2)cc1

>  <score_type>  (15) 
oracle

>  <origin>  (15) 
adg

>  <m_score__min__energy>  (15) 
-15.74

>  <m_primary>  (15) 
energy

$$$$
15:0
     RDKit          3D

 45 47  0  0  0  0  0  0  0  0999 V2000
   55.1450   29.7070   44.7800 O   0  0  0  0  0  0  0  0  0  0  0  0
   56.3460   29.3360   44.8660 C   0  0  0  0  0  0  0  0  0  0  0  0
   57.3950   30.0220   44.0790 C   0  0  0  0  0  0  0  0  0  0  0  0
   57.7360   31.3120   44.2060 C   0  0  0  0  0  0  0  0  0  0  0  0
   58.4540   31.8890   45.3660 C   0  0  0  0  0  0  0  0  0  0  0  0
   59.4360   31.1370   46.0360 C   0  0  0  0  0  0  0  0  0  0  0  0
   60.1470   31.6910   47.1040 C   0  0  0  0  0  0  0  0  0  0  0  0
   59.8990   33.0070   47.5020 C   0  0  0  0  0  0  0  0  0  0  0  0
   60.7940   33.7010   48.8410 Cl  0  0  0  0  0  0  0  0  0  0  0  0
   58.9440   33.7710   46.8270 C   0  0  0  0  0  0  0  0  0  0  0  0
   58.2270   33.2250   45.7560 C   0  0  0  0  0  0  0  0  0  0  0  0
   57.0300   34.2290   44.9430 Cl  0  0  0  0  0  0  0  0  0  0  0  0
   56.6500   28.1690   45.6410 N   0  0  0  0  0  0  0  0  0  0  0  0
   57.9350   27.8150   46.1690 C   0  0  0  0  0  0  0  0  0  0  0  0
   58.8220   26.9870   45.4600 C   0  0  0  0  0  0  0  0  0  0  0  0
   60.0800   26.6860   45.9900 C   0  0  0  0  0  0  0  0  0  0  0  0
   60.4680   27.2220   47.2210 C   0  0  0  0  0  0  0  0  0  0  0  0
   59.6030   28.0710   47.9230 C   0  0  0  0  0  0  0  0  0  0  0  0
   60.1210   28.7600   49.4590 S   0  0  0  0  0  0  0  0  0  0  0  0
   60.7700   27.7020   50.3090 O   0  0  0  0  0  0  0  0  0  0  0  0
   61.1220   29.8470   49.1830 O   0  0  0  0  0  0  0  0  0  0  0  0
   58.7400   29.4260   50.2940 N   0  0  0  0  0  0  0  0  0  0  0  0
   58.9040   29.2640   51.7470 C   0  0  0  0  0  0  0  0  0  0  0  0
   57.6940   29.8730   52.4880 C   0  0  0  0  0  0  0  0  0  0  0  0
   56.8220   30.5660   51.6130 O   0  0  0  0  0  0  0  0  0  0  0  0
   57.5500   31.5270   50.8740 C   0  0  0  0  0  0  0  0  0  0  0  0
   58.5880   30.8500   49.9540 C   0  0  0  0  0  0  0  0  0  0  0  0
   58.3410   28.3720   47.3890 C   0  0  0  0  0  0  0  0  0  0  0  0
   57.9378   29.4260   43.3306 H   0  0  0  0  0  0  0  0  0  0  0  0
   57.4620   31.9935   43.3872 H   0  0  0  0  0  0  0  0  0  0  0  0
   59.6458   30.1054   45.7170 H   0  0  0  0  0  0  0  0  0  0  0  0
   60.9025   31.0904   47.6317 H   0  0  0  0  0  0  0  0  0  0  0  0
   58.7542   34.8086   47.1392 H   0  0  0  0  0  0  0  0  0  0  0  0
   58.5253   26.5743   44.4845 H   0  0  0  0  0  0  0  0  0  0  0  0
   60.7654   26.0265   45.4375 H   0  0  0  0  0  0  0  0  0  0  0  0
   61.4552   26.9765   47.6396 H   0  0  0  0  0  0  0  0  0  0  0  0
   58.9770   28.1932   51.9879 H   0  0  0  0  0  0  0  0  0  0  0  0
   59.8202   29.7824   52.0662 H   0  0  0  0  0  0  0  0  0  0  0  0
   57.1339   29.0624   52.9770 H   0  0  0  0  0  0  0  0  0  0  0  0
   58.0780   30.5957   53.2230 H   0  0  0  0  0  0  0  0  0  0  0  0
   56.8509   32.1116   50.2579 H   0  0  0  0  0  0  0  0  0  0  0  0
   58.0826   32.1810   51.5801 H   0  0  0  0  0  0  0  0  0  0  0  0
   58.2549   30.9375   48.9093 H   0  0  0  0  0  0  0  0  0  0  0  0
   59.5583   31.3499   50.0905 H   0  0  0  0  0  0  0  0  0  0  0  0
   57.6657   29.0498   47.9317 H   0  0  0  0  0  0  0  0  0  0  0  0
  1  2  2  0
  2  3  1  0
  3  4  2  3
  4  5  1  0
  5  6  2  0
  6  7  1  0
  7  8  2  0
  8  9  1  0
  8 10  1  0
 10 11  2  0
 11 12  1  0
  2 13  1  0
 13 14  1  0
 14 15  2  0
 15 16  1  0
 16 17  2  0
 17 18  1  0
 18 19  1  0
 19 20  2  0
 19 21  2  0
 19 22  1  0
 22 23  1  0
 23 24  1  0
 24 25  1  0
 25 26  1  0
 26 27  1  0
 18 28  2  0
 11  5  1  0
 28 14  1  0
 27 22  1  0
  3 29  1  0
  4 30  1  0
  6 31  1  0
  7 32  1  0
 10 33  1  0
 15 34  1  0
 16 35  1  0
 17 36  1  0
 23 37  1  0
 23 38  1  0
 24 39  1  0
 24 40  1  0
 26 41  1  0
 26 42  1  0
 27 43  1  0
 27 44  1  0
 28 45  1  0
M  CHG  1  13  -1
M  END
>  <UniqueID>  (16) 
16

>  <SMILES>  (16) 
O=C(C=Cc1ccc(Cl)cc1Cl)[N-]c1cccc(S(=O)(=O)N2CCOCC2)c1

>  <Energy>  (16) 
66.33545896668909

>  <Genealogy>  (16) 
O=C(C=Cc1ccc(Cl)cc1Cl)[N-]c1cccc(S(=O)(=O)N2CCOCC2)c1 (protonated)
O=C(C=Cc1ccc(Cl)cc1Cl)[N-]c1cccc(S(=O)(=O)N2CCOCC2)c1 (3D coordinates assigned)
O=C(C=Cc1ccc(Cl)cc1Cl)[N-]c1cccc(S(=O)(=O)N2CCOCC2)c1 (nonaromatic ring conformer: 66.33545896668909 kcal/mol)

>  <smiles>  (16) 
O=C(C=Cc1ccc(Cl)cc1Cl)Nc1cccc(S(=O)(=O)N2CCOCC2)c1

>  <score_type>  (16) 
oracle

>  <origin>  (16) 
adg

>  <m_score__min__energy>  (16) 
-11.9

>  <m_primary>  (16) 
energy

$$$$
16:0
     RDKit          3D

 40 41  0  0  0  0  0  0  0  0999 V2000
   68.6100   34.1650   50.4850 C   0  0  0  0  0  0  0  0  0  0  0  0
   67.7490   32.9760   50.8800 C   0  0  0  0  0  0  0  0  0  0  0  0
   66.8170   32.6950   49.8400 O   0  0  0  0  0  0  0  0  0  0  0  0
   65.4400   32.6040   50.0650 C   0  0  0  0  0  0  0  0  0  0  0  0
   64.9910   32.5780   51.2440 O   0  0  0  0  0  0  0  0  0  0  0  0
   64.5560   32.6400   48.9370 N   0  0  0  0  0  0  0  0  0  0  0  0
   63.3520   33.1380   48.8550 C   0  0  0  0  0  0  0  0  0  0  0  0
   62.7810   33.2850   47.5840 C   0  0  0  0  0  0  0  0  0  0  0  0
   61.5020   33.8270   47.4470 C   0  0  0  0  0  0  0  0  0  0  0  0
   60.9590   33.9640   46.1610 O   0  0  0  0  0  0  0  0  0  0  0  0
   59.6540   33.6060   45.7870 C   0  0  0  0  0  0  0  0  0  0  0  0
   58.7950   34.6020   45.3110 C   0  0  0  0  0  0  0  0  0  0  0  0
   57.4870   34.2880   44.9390 C   0  0  0  0  0  0  0  0  0  0  0  0
   57.0240   32.9740   45.0480 C   0  0  0  0  0  0  0  0  0  0  0  0
   57.8620   31.9660   45.5390 C   0  0  0  0  0  0  0  0  0  0  0  0
   57.3450   30.6320   45.6410 N   0  0  0  0  0  0  0  0  0  0  0  0
   56.5110   29.7870   44.3780 S   0  0  0  0  0  0  0  0  0  0  0  0
   57.4640   28.3600   43.9130 C   0  0  0  0  0  0  0  0  0  0  0  0
   56.3530   30.6830   43.1820 O   0  0  0  0  0  0  0  0  0  0  0  0
   55.1630   29.3380   44.8650 O   0  0  0  0  0  0  0  0  0  0  0  0
   59.1780   32.2890   45.9190 C   0  0  0  0  0  0  0  0  0  0  0  0
   60.7810   34.1740   48.5980 C   0  0  0  0  0  0  0  0  0  0  0  0
   61.3640   33.9940   49.8520 C   0  0  0  0  0  0  0  0  0  0  0  0
   62.6210   33.4840   49.9630 N   0  0  0  0  0  0  0  0  0  0  0  0
   68.9757   34.6700   51.3912 H   0  0  0  0  0  0  0  0  0  0  0  0
   69.4661   33.8159   49.8890 H   0  0  0  0  0  0  0  0  0  0  0  0
   68.0112   34.8694   49.8890 H   0  0  0  0  0  0  0  0  0  0  0  0
   68.3906   32.0977   51.0439 H   0  0  0  0  0  0  0  0  0  0  0  0
   67.2036   33.2112   51.8059 H   0  0  0  0  0  0  0  0  0  0  0  0
   63.3424   32.9723   46.6912 H   0  0  0  0  0  0  0  0  0  0  0  0
   59.1525   35.6391   45.2294 H   0  0  0  0  0  0  0  0  0  0  0  0
   56.8197   35.0758   44.5595 H   0  0  0  0  0  0  0  0  0  0  0  0
   55.9947   32.7303   44.7461 H   0  0  0  0  0  0  0  0  0  0  0  0
   57.8112   27.8401   44.8181 H   0  0  0  0  0  0  0  0  0  0  0  0
   56.8383   27.6797   43.3166 H   0  0  0  0  0  0  0  0  0  0  0  0
   58.3321   28.6773   43.3166 H   0  0  0  0  0  0  0  0  0  0  0  0
   59.8383   31.5068   46.3217 H   0  0  0  0  0  0  0  0  0  0  0  0
   59.7641   34.5847   48.5128 H   0  0  0  0  0  0  0  0  0  0  0  0
   60.8036   34.2663   50.7585 H   0  0  0  0  0  0  0  0  0  0  0  0
   62.9780   33.3260   50.9290 H   0  0  0  0  0  0  0  0  0  0  0  0
  1  2  1  0
  2  3  1  0
  3  4  1  0
  4  5  2  0
  4  6  1  0
  6  7  2  3
  7  8  1  0
  8  9  2  0
  9 10  1  0
 10 11  1  0
 11 12  2  0
 12 13  1  0
 13 14  2  0
 14 15  1  0
 15 16  1  0
 16 17  1  0
 17 18  1  0
 17 19  2  0
 17 20  2  0
 15 21  2  0
  9 22  1  0
 22 23  2  0
 23 24  1  0
 24  7  1  0
 21 11  1  0
  1 25  1  0
  1 26  1  0
  1 27  1  0
  2 28  1  0
  2 29  1  0
  8 30  1  0
 12 31  1  0
 13 32  1  0
 14 33  1  0
 18 34  1  0
 18 35  1  0
 18 36  1  0
 21 37  1  0
 22 38  1  0
 23 39  1  0
 24 40  1  0
M  CHG  1  16  -1
M  END
>  <UniqueID>  (17) 
17

>  <SMILES>  (17) 
CCOC(=O)N=c1cc(Oc2cccc([N-]S(C)(=O)=O)c2)cc[nH]1

>  <Energy>  (17) 
47.43156537516961

>  <Genealogy>  (17) 
CCOC(=O)N=c1cc(Oc2cccc([N-]S(C)(=O)=O)c2)cc[nH]1 (protonated)
CCOC(=O)N=c1cc(Oc2cccc([N-]S(C)(=O)=O)c2)cc[nH]1 (3D coordinates assigned)
CCOC(=O)N=c1cc(Oc2cccc([N-]S(C)(=O)=O)c2)cc[nH]1 (optimized conformer: 47.43156537516961 kcal/mol)

>  <smiles>  (17) 
CCOC(=O)N=c1cc(Oc2cccc(NS(C)(=O)=O)c2)cc[nH]1

>  <score_type>  (17) 
oracle

>  <origin>  (17) 
adg

>  <m_score__min__energy>  (17) 
-9.1600000000000001

>  <m_primary>  (17) 
energy

$$$$
17:0
     RDKit          3D

 38 39  0  0  0  0  0  0  0  0999 V2000
   63.7560   33.2030   46.7490 C   0  0  0  0  0  0  0  0  0  0  0  0
   63.6150   33.2540   48.2700 C   0  0  0  0  0  0  0  0  0  0  0  0
   62.5270   34.2330   48.7230 C   0  0  0  0  0  0  0  0  0  0  0  0
   61.1610   33.8270   48.2430 C   0  0  0  0  0  0  0  0  0  0  0  0
   60.2550   33.1920   49.1020 C   0  0  0  0  0  0  0  0  0  0  0  0
   58.9790   32.8920   48.6210 C   0  0  0  0  0  0  0  0  0  0  0  0
   58.1330   32.3390   49.3720 O   0  0  0  0  0  0  0  0  0  0  0  0
   58.6480   33.1960   47.3400 N   0  0  0  0  0  0  0  0  0  0  0  0
   59.5510   33.7760   46.5060 C   0  0  0  0  0  0  0  0  0  0  0  0
   59.1030   34.1680   44.8190 S   0  0  0  0  0  0  0  0  0  0  0  0
   57.4620   33.3580   44.8560 C   0  0  0  0  0  0  0  0  0  0  0  0
   57.4790   31.9290   44.2970 C   0  0  0  0  0  0  0  0  0  0  0  0
   56.4190   31.1340   44.8270 O   0  0  0  0  0  0  0  0  0  0  0  0
   56.4890   29.7420   44.9670 C   0  0  0  0  0  0  0  0  0  0  0  0
   55.5250   29.0090   44.6150 O   0  0  0  0  0  0  0  0  0  0  0  0
   57.6660   29.1270   45.5890 C   0  0  0  0  0  0  0  0  0  0  0  0
   58.7060   29.8490   46.0450 N   0  0  0  0  0  0  0  0  0  0  0  0
   59.5850   28.9210   46.4750 C   0  0  0  0  0  0  0  0  0  0  0  0
   59.1510   27.6530   46.3270 N   0  0  0  0  0  0  0  0  0  0  0  0
   57.9330   27.7820   45.7690 C   0  0  0  0  0  0  0  0  0  0  0  0
   57.0420   26.6310   45.5320 C   0  0  0  0  0  0  0  0  0  0  0  0
   55.7200   26.6030   46.0600 N   0  0  0  0  0  0  0  0  0  0  0  0
   57.4680   25.6420   44.8800 O   0  0  0  0  0  0  0  0  0  0  0  0
   60.7920   34.0910   46.9610 N   0  0  0  0  0  0  0  0  0  0  0  0
   64.7604   32.8397   46.4858 H   0  0  0  0  0  0  0  0  0  0  0  0
   62.9990   32.5217   46.3332 H   0  0  0  0  0  0  0  0  0  0  0  0
   63.6101   34.2109   46.3332 H   0  0  0  0  0  0  0  0  0  0  0  0
   63.3595   32.2483   48.6350 H   0  0  0  0  0  0  0  0  0  0  0  0
   64.5728   33.6018   48.6842 H   0  0  0  0  0  0  0  0  0  0  0  0
   62.5195   34.2702   49.8223 H   0  0  0  0  0  0  0  0  0  0  0  0
   62.7578   35.2177   48.2904 H   0  0  0  0  0  0  0  0  0  0  0  0
   60.5423   32.9354   50.1324 H   0  0  0  0  0  0  0  0  0  0  0  0
   57.1141   33.3211   45.8989 H   0  0  0  0  0  0  0  0  0  0  0  0
   56.7911   33.9505   44.2166 H   0  0  0  0  0  0  0  0  0  0  0  0
   57.3756   31.9746   43.2028 H   0  0  0  0  0  0  0  0  0  0  0  0
   58.4315   31.4621   44.5880 H   0  0  0  0  0  0  0  0  0  0  0  0
   60.5646   29.1748   46.9062 H   0  0  0  0  0  0  0  0  0  0  0  0
   55.1300   27.4650   46.0770 H   0  0  0  0  0  0  0  0  0  0  0  0
  1  2  1  0
  2  3  1  0
  3  4  1  0
  4  5  2  0
  5  6  1  0
  6  7  2  0
  6  8  1  0
  8  9  1  0
  9 10  1  0
 10 11  1  0
 11 12  1  0
 12 13  1  0
 13 14  1  0
 14 15  2  0
 14 16  1  0
 16 17  1  0
 17 18  1  0
 18 19  2  0
 19 20  1  0
 20 21  1  0
 21 22  1  0
 21 23  2  0
  9 24  2  0
 24  4  1  0
 20 16  2  0
  1 25  1  0
  1 26  1  0
  1 27  1  0
  2 28  1  0
  2 29  1  0
  3 30  1  0
  3 31  1  0
  5 32  1  0
 11 33  1  0
 11 34  1  0
 12 35  1  0
 12 36  1  0
 18 37  1  0
 22 38  1  0
M  CHG  3   8  -1  17  -1  22  -1
M  END
>  <UniqueID>  (18) 
18

>  <SMILES>  (18) 
CCCc1cc(=O)[n-]c(SCCOC(=O)c2[n-]cnc2C([NH-])=O)n1

>  <Energy>  (18) 
55.59703552322557

>  <Genealogy>  (18) 
CCCc1cc(=O)[n-]c(SCCOC(=O)c2[n-]cnc2C([NH-])=O)n1 (protonated)
CCCc1cc(=O)[n-]c(SCCOC(=O)c2[n-]cnc2C([NH-])=O)n1 (3D coordinates assigned)
CCCc1cc(=O)[n-]c(SCCOC(=O)c2[n-]cnc2C([NH-])=O)n1 (optimized conformer: 55.59703552322557 kcal/mol)

>  <smiles>  (18) 
CCCc1cc(=O)[nH]c(SCCOC(=O)c2[nH]cnc2C(N)=O)n1

>  <score_type>  (18) 
oracle

>  <origin>  (18) 
adg

>  <m_score__min__energy>  (18) 
-12.619999999999999

>  <m_primary>  (18) 
energy

$$$$
18:0
     RDKit          3D

 47 50  0  0  0  0  0  0  0  0999 V2000
   54.7920   26.8960   45.1590 H   0  0  0  0  0  0  0  0  0  0  0  0
   55.0760   26.3300   45.9880 N   0  0  0  0  0  0  0  0  0  0  0  0
   56.4120   26.3780   46.4860 C   0  0  0  0  0  0  0  0  0  0  0  0
   56.8440   25.4240   47.1850 O   0  0  0  0  0  0  0  0  0  0  0  0
   57.2800   27.4900   46.2130 N   0  0  0  0  0  0  0  0  0  0  0  0
   56.9660   28.6170   45.6400 C   0  0  0  0  0  0  0  0  0  0  0  0
   55.8860   28.7180   44.8160 N   0  0  0  0  0  0  0  0  0  0  0  0
   55.5510   29.8860   44.2100 C   0  0  0  0  0  0  0  0  0  0  0  0
   54.6719   29.9292   43.5502 H   0  0  0  0  0  0  0  0  0  0  0  0
   56.3190   31.0320   44.4220 C   0  0  0  0  0  0  0  0  0  0  0  0
   56.0473   31.9781   43.9311 H   0  0  0  0  0  0  0  0  0  0  0  0
   57.4400   30.9710   45.2650 C   0  0  0  0  0  0  0  0  0  0  0  0
   58.2720   32.1780   45.5070 C   0  0  0  0  0  0  0  0  0  0  0  0
   57.8460   33.4390   45.0580 C   0  0  0  0  0  0  0  0  0  0  0  0
   56.8895   33.5340   44.5231 H   0  0  0  0  0  0  0  0  0  0  0  0
   58.6280   34.5720   45.2860 C   0  0  0  0  0  0  0  0  0  0  0  0
   58.2856   35.5548   44.9297 H   0  0  0  0  0  0  0  0  0  0  0  0
   59.8440   34.4630   45.9650 C   0  0  0  0  0  0  0  0  0  0  0  0
   60.4545   35.3610   46.1406 H   0  0  0  0  0  0  0  0  0  0  0  0
   60.2920   33.2130   46.4250 C   0  0  0  0  0  0  0  0  0  0  0  0
   61.5830   33.0950   47.1480 C   0  0  0  0  0  0  0  0  0  0  0  0
   62.7030   33.8340   46.7290 C   0  0  0  0  0  0  0  0  0  0  0  0
   62.6252   34.4957   45.8538 H   0  0  0  0  0  0  0  0  0  0  0  0
   63.9130   33.7330   47.4170 C   0  0  0  0  0  0  0  0  0  0  0  0
   64.7822   34.3198   47.0851 H   0  0  0  0  0  0  0  0  0  0  0  0
   64.0250   32.8910   48.5240 C   0  0  0  0  0  0  0  0  0  0  0  0
   64.9815   32.8219   49.0628 H   0  0  0  0  0  0  0  0  0  0  0  0
   62.9240   32.1300   48.9560 C   0  0  0  0  0  0  0  0  0  0  0  0
   63.0470   31.2350   50.1330 C   0  0  0  0  0  0  0  0  0  0  0  0
   64.1600   31.2160   50.8120 N   0  0  0  0  0  0  0  0  0  0  0  0
   64.3710   30.3870   52.0010 C   0  0  0  0  0  0  0  0  0  0  0  0
   65.4332   30.1071   52.0593 H   0  0  0  0  0  0  0  0  0  0  0  0
   64.0733   30.9669   52.8870 H   0  0  0  0  0  0  0  0  0  0  0  0
   63.5220   29.1150   51.9470 C   0  0  0  0  0  0  0  0  0  0  0  0
   63.8875   28.4626   51.1403 H   0  0  0  0  0  0  0  0  0  0  0  0
   63.5939   28.5814   52.9062 H   0  0  0  0  0  0  0  0  0  0  0  0
   62.0670   29.4940   51.6780 C   0  0  0  0  0  0  0  0  0  0  0  0
   61.4737   28.5800   51.5277 H   0  0  0  0  0  0  0  0  0  0  0  0
   61.6736   30.0550   52.5385 H   0  0  0  0  0  0  0  0  0  0  0  0
   61.9840   30.3280   50.4810 N   0  0  0  0  0  0  0  0  0  0  0  0
   61.2010   30.1560   49.8120 H   0  0  0  0  0  0  0  0  0  0  0  0
   61.7030   32.2460   48.2650 C   0  0  0  0  0  0  0  0  0  0  0  0
   60.8313   31.6659   48.6020 H   0  0  0  0  0  0  0  0  0  0  0  0
   59.4970   32.0750   46.1910 C   0  0  0  0  0  0  0  0  0  0  0  0
   59.8382   31.0920   46.5478 H   0  0  0  0  0  0  0  0  0  0  0  0
   57.7600   29.7460   45.8770 C   0  0  0  0  0  0  0  0  0  0  0  0
   58.6336   29.6746   46.5416 H   0  0  0  0  0  0  0  0  0  0  0  0
  1  2  1  0
  2  3  1  0
  3  4  2  0
  3  5  1  0
  5  6  2  0
  6  7  1  0
  7  8  1  0
  8  9  1  0
  8 10  2  0
 10 11  1  0
 10 12  1  0
 12 13  1  0
 13 14  2  0
 14 15  1  0
 14 16  1  0
 16 17  1  0
 16 18  2  0
 18 19  1  0
 18 20  1  0
 20 21  1  0
 21 22  2  0
 22 23  1  0
 22 24  1  0
 24 25  1  0
 24 26  2  0
 26 27  1  0
 26 28  1  0
 28 29  1  0
 29 30  2  0
 30 31  1  0
 31 32  1  0
 31 33  1  0
 31 34  1  0
 34 35  1  0
 34 36  1  0
 34 37  1  0
 37 38  1  0
 37 39  1  0
 37 40  1  0
 40 41  1  0
 28 42  2  0
 42 43  1  0
 20 44  2  0
 44 45  1  0
 12 46  2  0
 46 47  1  0
 46  6  1  0
 44 13  1  0
 42 21  1  0
 40 29  1  0
M  CHG  2   2  -1   7  -1
M  END
>  <UniqueID>  (19) 
19

>  <SMILES>  (19) 
[NH-]C(=O)/N=c1/cc(-c2cccc(-c3cccc(C4=NCCCN4)c3)c2)cc[n-]1

>  <Energy>  (19) 
65.07937329875854

>  <Genealogy>  (19) 
[NH-]C(=O)N=c1cc(-c2cccc(-c3cccc(C4=NCCCN4)c3)c2)cc[n-]1 (protonated)
[NH-]C(=O)/N=c1/cc(-c2cccc(-c3cccc(C4=NCCCN4)c3)c2)cc[n-]1 (cis-trans isomerization)
[NH-]C(=O)/N=c1/cc(-c2cccc(-c3cccc(C4=NCCCN4)c3)c2)cc[n-]1 (3D coordinates assigned)
[NH-]C(=O)/N=c1/cc(-c2cccc(-c3cccc(C4=NCCCN4)c3)c2)cc[n-]1 (nonaromatic ring conformer: 65.07937329875854 kcal/mol)

>  <smiles>  (19) 
NC(=O)N=c1cc(-c2cccc(-c3cccc(C4=NCCCN4)c3)c2)cc[nH]1

>  <score_type>  (19) 
oracle

>  <origin>  (19) 
adg

>  <m_score__min__energy>  (19) 
-12.69

>  <m_primary>  (19) 
energy

$$$$
19:0
     RDKit          3D

 44 46  0  0  0  0  0  0  0  0999 V2000
   51.8420   23.9940   44.8660 C   0  0  0  0  0  0  0  0  0  0  0  0
   53.1250   23.5050   44.4870 O   0  0  0  0  0  0  0  0  0  0  0  0
   54.2580   23.5080   45.3170 C   0  0  0  0  0  0  0  0  0  0  0  0
   55.0810   24.6420   45.4540 C   0  0  0  0  0  0  0  0  0  0  0  0
   56.2050   24.6140   46.2980 C   0  0  0  0  0  0  0  0  0  0  0  0
   57.0950   25.7940   46.4420 C   0  0  0  0  0  0  0  0  0  0  0  0
   58.3440   25.6990   47.0730 C   0  0  0  0  0  0  0  0  0  0  0  0
   59.1360   26.8390   47.1900 C   0  0  0  0  0  0  0  0  0  0  0  0
   60.2590   26.7580   47.7560 O   0  0  0  0  0  0  0  0  0  0  0  0
   58.6700   28.0590   46.6730 C   0  0  0  0  0  0  0  0  0  0  0  0
   59.4240   29.2360   46.7760 C   0  0  0  0  0  0  0  0  0  0  0  0
   58.9320   30.4330   46.2600 C   0  0  0  0  0  0  0  0  0  0  0  0
   57.6790   30.4760   45.6240 C   0  0  0  0  0  0  0  0  0  0  0  0
   57.1580   31.6670   45.0940 O   0  0  0  0  0  0  0  0  0  0  0  0
   57.6740   32.9670   45.3640 C   0  0  0  0  0  0  0  0  0  0  0  0
   56.9120   29.3040   45.5030 C   0  0  0  0  0  0  0  0  0  0  0  0
   55.6700   29.4240   44.8500 O   0  0  0  0  0  0  0  0  0  0  0  0
   55.4650   29.7200   43.4730 C   0  0  0  0  0  0  0  0  0  0  0  0
   57.4080   28.0860   46.0350 C   0  0  0  0  0  0  0  0  0  0  0  0
   56.6940   26.9660   45.9510 O   0  0  0  0  0  0  0  0  0  0  0  0
   56.5070   23.4320   46.9910 C   0  0  0  0  0  0  0  0  0  0  0  0
   55.6960   22.2900   46.8610 C   0  0  0  0  0  0  0  0  0  0  0  0
   55.9810   21.0970   47.5450 O   0  0  0  0  0  0  0  0  0  0  0  0
   55.2370   20.6040   48.6540 C   0  0  0  0  0  0  0  0  0  0  0  0
   54.5680   22.3380   46.0230 C   0  0  0  0  0  0  0  0  0  0  0  0
   53.7410   21.2240   45.8770 O   0  0  0  0  0  0  0  0  0  0  0  0
   51.7696   24.0216   45.9633 H   0  0  0  0  0  0  0  0  0  0  0  0
   51.7027   25.0083   44.4637 H   0  0  0  0  0  0  0  0  0  0  0  0
   51.0629   23.3298   44.4637 H   0  0  0  0  0  0  0  0  0  0  0  0
   54.8422   25.5589   44.8952 H   0  0  0  0  0  0  0  0  0  0  0  0
   58.6942   24.7352   47.4710 H   0  0  0  0  0  0  0  0  0  0  0  0
   60.4084   29.2146   47.2663 H   0  0  0  0  0  0  0  0  0  0  0  0
   59.5291   31.3523   46.3510 H   0  0  0  0  0  0  0  0  0  0  0  0
   57.7343   33.1189   46.4518 H   0  0  0  0  0  0  0  0  0  0  0  0
   58.6779   33.0616   44.9244 H   0  0  0  0  0  0  0  0  0  0  0  0
   57.0083   33.7243   44.9244 H   0  0  0  0  0  0  0  0  0  0  0  0
   54.8409   30.6211   43.3806 H   0  0  0  0  0  0  0  0  0  0  0  0
   56.4362   29.8952   42.9871 H   0  0  0  0  0  0  0  0  0  0  0  0
   54.9595   28.8725   42.9871 H   0  0  0  0  0  0  0  0  0  0  0  0
   57.3906   23.3978   47.6453 H   0  0  0  0  0  0  0  0  0  0  0  0
   55.7189   20.9233   49.5899 H   0  0  0  0  0  0  0  0  0  0  0  0
   54.2125   21.0026   48.6145 H   0  0  0  0  0  0  0  0  0  0  0  0
   55.2047   19.5052   48.6145 H   0  0  0  0  0  0  0  0  0  0  0  0
   52.9300   21.2260   45.2700 H   0  0  0  0  0  0  0  0  0  0  0  0
  1  2  1  0
  2  3  1  0
  3  4  2  0
  4  5  1  0
  5  6  1  0
  6  7  2  0
  7  8  1  0
  8  9  2  0
  8 10  1  0
 10 11  2  0
 11 12  1  0
 12 13  2  0
 13 14  1  0
 14 15  1  0
 13 16  1  0
 16 17  1  0
 17 18  1  0
 16 19  2  0
 19 20  1  0
  5 21  2  0
 21 22  1  0
 22 23  1  0
 23 24  1  0
 22 25  2  0
 25 26  1  0
 25  3  1  0
 20  6  1  0
 19 10  1  0
  1 27  1  0
  1 28  1  0
  1 29  1  0
  4 30  1  0
  7 31  1  0
 11 32  1  0
 12 33  1  0
 15 34  1  0
 15 35  1  0
 15 36  1  0
 18 37  1  0
 18 38  1  0
 18 39  1  0
 21 40  1  0
 24 41  1  0
 24 42  1  0
 24 43  1  0
 26 44  1  0
M  END
>  <UniqueID>  (20) 
20

>  <SMILES>  (20) 
COc1cc(-c2cc(=O)c3ccc(OC)c(OC)c3o2)cc(OC)c1O

>  <Energy>  (20) 
55.152386429860044

>  <Genealogy>  (20) 
COc1cc(-c2cc(=O)c3ccc(OC)c(OC)c3o2)cc(OC)c1O (3D coordinates assigned)
COc1cc(-c2cc(=O)c3ccc(OC)c(OC)c3o2)cc(OC)c1O (optimized conformer: 55.152386429860044 kcal/mol)

>  <smiles>  (20) 
COc1cc(-c2cc(=O)c3ccc(OC)c(OC)c3o2)cc(OC)c1O

>  <score_type>  (20) 
oracle

>  <origin>  (20) 
adg

>  <m_score__min__energy>  (20) 
-6.3300000000000001

>  <m_primary>  (20) 
energy

$$$$
20:0
     RDKit          3D

 60 64  0  0  0  0  0  0  0  0999 V2000
   60.5940   29.7720   45.9720 O   0  0  0  0  0  0  0  0  0  0  0  0
   59.3850   29.7040   46.3240 C   0  0  0  0  0  0  0  0  0  0  0  0
   59.0390   29.4160   47.6910 N   0  0  0  0  0  0  0  0  0  0  0  0
   59.7920   28.8560   48.5930 C   0  0  0  0  0  0  0  0  0  0  0  0
   60.5330   29.6670   49.4610 C   0  0  0  0  0  0  0  0  0  0  0  0
   61.3850   29.0760   50.4080 C   0  0  0  0  0  0  0  0  0  0  0  0
   62.1590   29.8390   51.2940 O   0  0  0  0  0  0  0  0  0  0  0  0
   62.3860   31.2210   51.2040 C   0  0  0  0  0  0  0  0  0  0  0  0
   62.1860   32.0800   52.2980 C   0  0  0  0  0  0  0  0  0  0  0  0
   62.4210   33.4490   52.1650 C   0  0  0  0  0  0  0  0  0  0  0  0
   62.8330   33.9780   50.9390 C   0  0  0  0  0  0  0  0  0  0  0  0
   63.0350   35.3160   50.8340 F   0  0  0  0  0  0  0  0  0  0  0  0
   63.0050   33.1390   49.8240 C   0  0  0  0  0  0  0  0  0  0  0  0
   63.4150   33.7080   48.5660 N   0  0  0  0  0  0  0  0  0  0  0  0
   62.8290   33.1710   47.0220 S   0  0  0  0  0  0  0  0  0  0  0  0
   63.4400   34.0210   45.9420 O   0  0  0  0  0  0  0  0  0  0  0  0
   63.2430   31.7430   46.8030 O   0  0  0  0  0  0  0  0  0  0  0  0
   61.0710   33.2700   46.9800 C   0  0  0  0  0  0  0  0  0  0  0  0
   60.3130   32.6190   47.9630 C   0  0  0  0  0  0  0  0  0  0  0  0
   58.9150   32.6950   47.9400 C   0  0  0  0  0  0  0  0  0  0  0  0
   58.2680   33.4200   46.9350 C   0  0  0  0  0  0  0  0  0  0  0  0
   56.9130   33.4910   46.9120 F   0  0  0  0  0  0  0  0  0  0  0  0
   59.0220   34.0700   45.9510 C   0  0  0  0  0  0  0  0  0  0  0  0
   60.4200   33.9940   45.9700 C   0  0  0  0  0  0  0  0  0  0  0  0
   62.7760   31.7570   49.9720 C   0  0  0  0  0  0  0  0  0  0  0  0
   61.4340   27.6830   50.5030 C   0  0  0  0  0  0  0  0  0  0  0  0
   60.6710   26.9050   49.6310 C   0  0  0  0  0  0  0  0  0  0  0  0
   59.8820   27.5010   48.7020 N   0  0  0  0  0  0  0  0  0  0  0  0
   58.3040   29.9150   45.3260 C   0  0  0  0  0  0  0  0  0  0  0  0
   58.4440   30.9450   44.3770 C   0  0  0  0  0  0  0  0  0  0  0  0
   57.4570   31.1690   43.4160 C   0  0  0  0  0  0  0  0  0  0  0  0
   56.3240   30.3590   43.3770 C   0  0  0  0  0  0  0  0  0  0  0  0
   56.1680   29.3300   44.3050 C   0  0  0  0  0  0  0  0  0  0  0  0
   57.1370   29.1110   45.3020 C   0  0  0  0  0  0  0  0  0  0  0  0
   57.0010   28.0060   46.2100 N   0  0  0  0  0  0  0  0  0  0  0  0
   56.3990   26.7350   45.9330 C   0  0  0  0  0  0  0  0  0  0  0  0
   55.1440   26.6350   46.0080 O   0  0  0  0  0  0  0  0  0  0  0  0
   57.2330   25.5590   45.4840 C   0  0  0  0  0  0  0  0  0  0  0  0
   57.9650   24.7720   46.5650 C   0  0  0  0  0  0  0  0  0  0  0  0
   58.7300   25.7450   45.6850 C   0  0  0  0  0  0  0  0  0  0  0  0
   60.4482   30.7621   49.4014 H   0  0  0  0  0  0  0  0  0  0  0  0
   61.8437   31.6726   53.2607 H   0  0  0  0  0  0  0  0  0  0  0  0
   62.2813   34.1149   53.0293 H   0  0  0  0  0  0  0  0  0  0  0  0
   64.0660   34.5250   48.5600 H   0  0  0  0  0  0  0  0  0  0  0  0
   60.8180   32.0466   48.7550 H   0  0  0  0  0  0  0  0  0  0  0  0
   58.3247   32.1832   48.7143 H   0  0  0  0  0  0  0  0  0  0  0  0
   58.5147   34.6423   45.1603 H   0  0  0  0  0  0  0  0  0  0  0  0
   61.0085   34.5025   45.1921 H   0  0  0  0  0  0  0  0  0  0  0  0
   62.9056   31.0900   49.1069 H   0  0  0  0  0  0  0  0  0  0  0  0
   62.0702   27.2022   51.2607 H   0  0  0  0  0  0  0  0  0  0  0  0
   60.7094   25.8077   49.6970 H   0  0  0  0  0  0  0  0  0  0  0  0
   59.3416   31.5807   44.3929 H   0  0  0  0  0  0  0  0  0  0  0  0
   57.5737   31.9859   42.6886 H   0  0  0  0  0  0  0  0  0  0  0  0
   55.5515   30.5315   42.6131 H   0  0  0  0  0  0  0  0  0  0  0  0
   55.2794   28.6834   44.2574 H   0  0  0  0  0  0  0  0  0  0  0  0
   56.5683   25.2784   44.6537 H   0  0  0  0  0  0  0  0  0  0  0  0
   57.7955   25.0067   47.6262 H   0  0  0  0  0  0  0  0  0  0  0  0
   58.0666   23.7061   46.8169 H   0  0  0  0  0  0  0  0  0  0  0  0
   59.1150   26.6839   46.1095 H   0  0  0  0  0  0  0  0  0  0  0  0
   59.6155   25.6744   45.0363 H   0  0  0  0  0  0  0  0  0  0  0  0
  1  2  2  0
  2  3  1  0
  3  4  2  3
  4  5  1  0
  5  6  2  0
  6  7  1  0
  7  8  1  0
  8  9  2  0
  9 10  1  0
 10 11  2  0
 11 12  1  0
 11 13  1  0
 13 14  1  0
 14 15  1  0
 15 16  2  0
 15 17  2  0
 15 18  1  0
 18 19  2  0
 19 20  1  0
 20 21  2  0
 21 22  1  0
 21 23  1  0
 23 24  2  0
 13 25  2  0
  6 26  1  0
 26 27  2  0
 27 28  1  0
  2 29  1  0
 29 30  2  0
 30 31  1  0
 31 32  2  0
 32 33  1  0
 33 34  2  0
 34 35  1  0
 35 36  1  0
 36 37  2  0
 36 38  1  0
 38 39  1  0
 39 40  1  0
 28  4  1  0
 34 29  1  0
 40 38  1  0
 25  8  1  0
 24 18  1  0
  5 41  1  0
  9 42  1  0
 10 43  1  0
 14 44  1  0
 19 45  1  0
 20 46  1  0
 23 47  1  0
 24 48  1  0
 25 49  1  0
 26 50  1  0
 27 51  1  0
 30 52  1  0
 31 53  1  0
 32 54  1  0
 33 55  1  0
 38 56  1  0
 39 57  1  0
 39 58  1  0
 40 59  1  0
 40 60  1  0
M  CHG  2  28  -1  35  -1
M  END
>  <UniqueID>  (21) 
21

>  <SMILES>  (21) 
O=C(N=c1cc(Oc2ccc(F)c(NS(=O)(=O)c3ccc(F)cc3)c2)cc[n-]1)c1ccccc1[N-]C(=O)C1CC1

>  <Energy>  (21) 
351.2887422265817

>  <Genealogy>  (21) 
O=C(N=c1cc(Oc2ccc(F)c(NS(=O)(=O)c3ccc(F)cc3)c2)cc[n-]1)c1ccccc1[N-]C(=O)C1CC1 (protonated)
O=C(N=c1cc(Oc2ccc(F)c(NS(=O)(=O)c3ccc(F)cc3)c2)cc[n-]1)c1ccccc1[N-]C(=O)C1CC1 (3D coordinates assigned)
O=C(N=c1cc(Oc2ccc(F)c(NS(=O)(=O)c3ccc(F)cc3)c2)cc[n-]1)c1ccccc1[N-]C(=O)C1CC1 (nonaromatic ring conformer: 351.2887422265817 kcal/mol)

>  <smiles>  (21) 
O=C(N=c1cc(Oc2ccc(F)c(NS(=O)(=O)c3ccc(F)cc3)c2)cc[nH]1)c1ccccc1NC(=O)C1CC1

>  <score_type>  (21) 
oracle

>  <origin>  (21) 
adg

>  <m_score__min__energy>  (21) 
-13.359999999999999

>  <m_primary>  (21) 
energy

$$$$
21:0
     RDKit          3D

 55 58  0  0  0  0  0  0  0  0999 V2000
   61.4975   34.0066   51.3927 H   0  0  0  0  0  0  0  0  0  0  0  0
   61.0780   33.8150   50.3940 C   0  0  0  0  0  0  0  0  0  0  0  0
   59.7450   33.7580   50.2660 C   0  0  0  0  0  0  0  0  0  0  0  0
   59.2193   34.6598   49.9191 H   0  0  0  0  0  0  0  0  0  0  0  0
   58.7840   32.3220   50.6210 S   0  0  0  0  0  0  0  0  0  0  0  0
   57.5410   32.3450   49.7790 O   0  0  0  0  0  0  0  0  0  0  0  0
   58.3850   32.3300   52.0680 O   0  0  0  0  0  0  0  0  0  0  0  0
   59.6790   30.8750   50.2740 N   0  0  0  0  0  0  0  0  0  0  0  0
   59.8650   30.3080   48.9690 C   0  0  0  0  0  0  0  0  0  0  0  0
   60.8270   30.8720   48.1270 C   0  0  0  0  0  0  0  0  0  0  0  0
   61.4124   31.7381   48.4693 H   0  0  0  0  0  0  0  0  0  0  0  0
   61.0500   30.3440   46.8550 C   0  0  0  0  0  0  0  0  0  0  0  0
   61.8337   30.7742   46.2141 H   0  0  0  0  0  0  0  0  0  0  0  0
   60.2830   29.2710   46.3900 C   0  0  0  0  0  0  0  0  0  0  0  0
   60.6710   28.5760   44.8210 Cl  0  0  0  0  0  0  0  0  0  0  0  0
   59.2710   28.7270   47.2070 C   0  0  0  0  0  0  0  0  0  0  0  0
   58.4410   27.6460   46.7480 N   0  0  0  0  0  0  0  0  0  0  0  0
   58.3330   26.4490   47.3580 C   0  0  0  0  0  0  0  0  0  0  0  0
   58.8323   26.1721   48.2982 H   0  0  0  0  0  0  0  0  0  0  0  0
   57.5030   25.6220   46.6280 C   0  0  0  0  0  0  0  0  0  0  0  0
   57.2277   24.5857   46.8736 H   0  0  0  0  0  0  0  0  0  0  0  0
   57.0850   26.3480   45.5290 C   0  0  0  0  0  0  0  0  0  0  0  0
   56.4212   25.9997   44.7240 H   0  0  0  0  0  0  0  0  0  0  0  0
   57.6650   27.5980   45.6400 C   0  0  0  0  0  0  0  0  0  0  0  0
   57.4480   28.7040   44.6880 C   0  0  0  0  0  0  0  0  0  0  0  0
   57.6520   28.5040   43.4600 O   0  0  0  0  0  0  0  0  0  0  0  0
   56.9930   29.9920   45.1430 N   0  0  0  0  0  0  0  0  0  0  0  0
   56.6150   30.0850   46.1110 H   0  0  0  0  0  0  0  0  0  0  0  0
   56.9710   31.1700   44.2790 C   0  0  0  0  0  0  0  0  0  0  0  0
   57.5354   30.9573   43.3591 H   0  0  0  0  0  0  0  0  0  0  0  0
   55.9280   31.4146   44.0294 H   0  0  0  0  0  0  0  0  0  0  0  0
   57.5950   32.3390   44.9860 C   0  0  0  0  0  0  0  0  0  0  0  0
   57.8080   32.2940   46.3740 C   0  0  0  0  0  0  0  0  0  0  0  0
   57.4969   31.4077   46.9464 H   0  0  0  0  0  0  0  0  0  0  0  0
   58.4130   33.3690   47.0320 C   0  0  0  0  0  0  0  0  0  0  0  0
   58.5579   33.3351   48.1219 H   0  0  0  0  0  0  0  0  0  0  0  0
   58.8340   34.4870   46.3060 C   0  0  0  0  0  0  0  0  0  0  0  0
   59.4260   35.5240   46.9430 F   0  0  0  0  0  0  0  0  0  0  0  0
   58.6450   34.5340   44.9220 C   0  0  0  0  0  0  0  0  0  0  0  0
   58.9827   35.4113   44.3507 H   0  0  0  0  0  0  0  0  0  0  0  0
   58.0260   33.4650   44.2620 C   0  0  0  0  0  0  0  0  0  0  0  0
   57.8764   33.5063   43.1730 H   0  0  0  0  0  0  0  0  0  0  0  0
   59.0840   29.2340   48.5020 C   0  0  0  0  0  0  0  0  0  0  0  0
   58.3211   28.7886   49.1574 H   0  0  0  0  0  0  0  0  0  0  0  0
   62.0100   33.6350   49.2700 C   0  0  0  0  0  0  0  0  0  0  0  0
   61.6190   33.9930   47.9720 C   0  0  0  0  0  0  0  0  0  0  0  0
   60.6456   34.4777   47.8057 H   0  0  0  0  0  0  0  0  0  0  0  0
   62.4640   33.7350   46.8890 C   0  0  0  0  0  0  0  0  0  0  0  0
   62.1516   34.0085   45.8704 H   0  0  0  0  0  0  0  0  0  0  0  0
   63.7050   33.1300   47.1000 C   0  0  0  0  0  0  0  0  0  0  0  0
   64.3641   32.9167   46.2456 H   0  0  0  0  0  0  0  0  0  0  0  0
   64.1110   32.7950   48.3950 C   0  0  0  0  0  0  0  0  0  0  0  0
   65.1003   32.3436   48.5610 H   0  0  0  0  0  0  0  0  0  0  0  0
   63.2610   33.0330   49.4800 C   0  0  0  0  0  0  0  0  0  0  0  0
   63.6550   32.6780   50.7280 F   0  0  0  0  0  0  0  0  0  0  0  0
  1  2  1  0
  2  3  2  0
  3  4  1  0
  3  5  1  0
  5  6  2  0
  5  7  2  0
  5  8  1  0
  8  9  1  0
  9 10  2  0
 10 11  1  0
 10 12  1  0
 12 13  1  0
 12 14  2  0
 14 15  1  0
 14 16  1  0
 16 17  1  0
 17 18  1  0
 18 19  1  0
 18 20  2  0
 20 21  1  0
 20 22  1  0
 22 23  1  0
 22 24  2  0
 24 25  1  0
 25 26  2  0
 25 27  1  0
 27 28  1  0
 27 29  1  0
 29 30  1  0
 29 31  1  0
 29 32  1  0
 32 33  2  0
 33 34  1  0
 33 35  1  0
 35 36  1  0
 35 37  2  0
 37 38  1  0
 37 39  1  0
 39 40  1  0
 39 41  2  0
 41 42  1  0
 16 43  2  0
 43 44  1  0
  2 45  1  0
 45 46  2  0
 46 47  1  0
 46 48  1  0
 48 49  1  0
 48 50  2  0
 50 51  1  0
 50 52  1  0
 52 53  1  0
 52 54  2  0
 54 55  1  0
 43  9  1  0
 54 45  1  0
 24 17  1  0
 41 32  1  0
M  CHG  1   8  -1
M  END
>  <UniqueID>  (22) 
22

>  <SMILES>  (22) 
O=C(NCc1ccc(F)cc1)c1cccn1-c1cc([N-]S(=O)(=O)/C=C\c2ccccc2F)ccc1Cl

>  <Energy>  (22) 
96.92909199874944

>  <Genealogy>  (22) 
O=C(NCc1ccc(F)cc1)c1cccn1-c1cc([N-]S(=O)(=O)C=Cc2ccccc2F)ccc1Cl (protonated)
O=C(NCc1ccc(F)cc1)c1cccn1-c1cc([N-]S(=O)(=O)/C=C\c2ccccc2F)ccc1Cl (cis-trans isomerization)
O=C(NCc1ccc(F)cc1)c1cccn1-c1cc([N-]S(=O)(=O)/C=C\c2ccccc2F)ccc1Cl (3D coordinates assigned)
O=C(NCc1ccc(F)cc1)c1cccn1-c1cc([N-]S(=O)(=O)/C=C\c2ccccc2F)ccc1Cl (optimized conformer: 96.92909199874944 kcal/mol)

>  <smiles>  (22) 
O=C(NCc1ccc(F)cc1)c1cccn1-c1cc(NS(=O)(=O)C=Cc2ccccc2F)ccc1Cl

>  <score_type>  (22) 
oracle

>  <origin>  (22) 
adg

>  <m_score__min__energy>  (22) 
-10.640000000000001

>  <m_primary>  (22) 
energy

$$$$
22:0
     RDKit          3D

 49 51  0  0  0  0  0  0  0  0999 V2000
   62.2510   32.5040   47.1120 C   0  0  0  0  0  0  0  0  0  0  0  0
   61.7260   33.8690   46.6820 C   0  0  0  0  0  0  0  0  0  0  0  0
   60.2300   33.8310   46.4920 C   0  0  0  0  0  0  0  0  0  0  0  0
   59.6810   34.2420   45.2650 C   0  0  0  0  0  0  0  0  0  0  0  0
   58.2970   34.2420   45.0730 C   0  0  0  0  0  0  0  0  0  0  0  0
   57.4490   33.8370   46.1040 C   0  0  0  0  0  0  0  0  0  0  0  0
   57.9820   33.4380   47.3330 C   0  0  0  0  0  0  0  0  0  0  0  0
   59.3750   33.4400   47.5430 C   0  0  0  0  0  0  0  0  0  0  0  0
   59.9300   33.1020   48.7880 O   0  0  0  0  0  0  0  0  0  0  0  0
   59.1940   32.5780   49.8580 C   0  0  0  0  0  0  0  0  0  0  0  0
   58.8980   33.3640   50.9330 N   0  0  0  0  0  0  0  0  0  0  0  0
   58.2340   32.8710   52.0120 C   0  0  0  0  0  0  0  0  0  0  0  0
   57.8330   31.5340   52.0400 C   0  0  0  0  0  0  0  0  0  0  0  0
   58.1180   30.7110   50.9510 C   0  0  0  0  0  0  0  0  0  0  0  0
   58.7890   31.2320   49.8360 C   0  0  0  0  0  0  0  0  0  0  0  0
   59.1700   30.3540   48.7180 C   0  0  0  0  0  0  0  0  0  0  0  0
   59.9890   29.4140   48.9030 O   0  0  0  0  0  0  0  0  0  0  0  0
   58.5310   30.5120   47.4470 N   0  0  0  0  0  0  0  0  0  0  0  0
   58.2480   29.3900   46.5590 C   0  0  0  0  0  0  0  0  0  0  0  0
   57.7070   29.8910   45.2390 C   0  0  0  0  0  0  0  0  0  0  0  0
   58.3320   30.9730   44.5960 C   0  0  0  0  0  0  0  0  0  0  0  0
   57.8800   31.4140   43.3520 C   0  0  0  0  0  0  0  0  0  0  0  0
   56.8030   30.7790   42.7330 C   0  0  0  0  0  0  0  0  0  0  0  0
   56.1650   29.7090   43.3620 C   0  0  0  0  0  0  0  0  0  0  0  0
   56.6050   29.2560   44.6220 C   0  0  0  0  0  0  0  0  0  0  0  0
   55.9860   28.1810   45.2790 O   0  0  0  0  0  0  0  0  0  0  0  0
   56.6380   26.9660   45.6360 C   0  0  0  0  0  0  0  0  0  0  0  0
   62.2723   32.4487   48.2104 H   0  0  0  0  0  0  0  0  0  0  0  0
   61.5915   31.7167   46.7179 H   0  0  0  0  0  0  0  0  0  0  0  0
   63.2681   32.3616   46.7179 H   0  0  0  0  0  0  0  0  0  0  0  0
   61.9727   34.6106   47.4560 H   0  0  0  0  0  0  0  0  0  0  0  0
   62.1964   34.1430   45.7261 H   0  0  0  0  0  0  0  0  0  0  0  0
   60.3455   34.5658   44.4504 H   0  0  0  0  0  0  0  0  0  0  0  0
   57.8759   34.5615   44.1084 H   0  0  0  0  0  0  0  0  0  0  0  0
   56.3599   33.8317   45.9496 H   0  0  0  0  0  0  0  0  0  0  0  0
   57.3085   33.1200   48.1425 H   0  0  0  0  0  0  0  0  0  0  0  0
   59.1980   34.3640   50.9350 H   0  0  0  0  0  0  0  0  0  0  0  0
   58.0119   33.5278   52.8660 H   0  0  0  0  0  0  0  0  0  0  0  0
   57.2971   31.1335   52.9132 H   0  0  0  0  0  0  0  0  0  0  0  0
   57.8164   29.6533   50.9669 H   0  0  0  0  0  0  0  0  0  0  0  0
   59.1749   28.8252   46.3807 H   0  0  0  0  0  0  0  0  0  0  0  0
   57.4965   28.7400   47.0309 H   0  0  0  0  0  0  0  0  0  0  0  0
   59.1839   31.4759   45.0771 H   0  0  0  0  0  0  0  0  0  0  0  0
   58.3737   32.2640   42.8583 H   0  0  0  0  0  0  0  0  0  0  0  0
   56.4560   31.1224   41.7473 H   0  0  0  0  0  0  0  0  0  0  0  0
   55.3130   29.2159   42.8711 H   0  0  0  0  0  0  0  0  0  0  0  0
   56.6829   26.8823   46.7319 H   0  0  0  0  0  0  0  0  0  0  0  0
   56.0759   26.1140   45.2259 H   0  0  0  0  0  0  0  0  0  0  0  0
   57.6587   26.9634   45.2259 H   0  0  0  0  0  0  0  0  0  0  0  0
  1  2  1  0
  2  3  1  0
  3  4  2  0
  4  5  1  0
  5  6  2  0
  6  7  1  0
  7  8  2  0
  8  9  1  0
  9 10  1  0
 10 11  2  0
 11 12  1  0
 12 13  2  0
 13 14  1  0
 14 15  2  0
 15 16  1  0
 16 17  2  0
 16 18  1  0
 18 19  1  0
 19 20  1  0
 20 21  2  0
 21 22  1  0
 22 23  2  0
 23 24  1  0
 24 25  2  0
 25 26  1  0
 26 27  1  0
  8  3  1  0
 15 10  1  0
 25 20  1  0
  1 28  1  0
  1 29  1  0
  1 30  1  0
  2 31  1  0
  2 32  1  0
  4 33  1  0
  5 34  1  0
  6 35  1  0
  7 36  1  0
 11 37  1  0
 12 38  1  0
 13 39  1  0
 14 40  1  0
 19 41  1  0
 19 42  1  0
 21 43  1  0
 22 44  1  0
 23 45  1  0
 24 46  1  0
 27 47  1  0
 27 48  1  0
 27 49  1  0
M  CHG  2  11   1  18  -1
M  END
>  <UniqueID>  (23) 
23

>  <SMILES>  (23) 
CCc1ccccc1Oc1[nH+]cccc1C(=O)[N-]Cc1ccccc1OC

>  <Energy>  (23) 
52.94258825996077

>  <Genealogy>  (23) 
CCc1ccccc1Oc1[nH+]cccc1C(=O)[N-]Cc1ccccc1OC (protonated)
CCc1ccccc1Oc1[nH+]cccc1C(=O)[N-]Cc1ccccc1OC (3D coordinates assigned)
CCc1ccccc1Oc1[nH+]cccc1C(=O)[N-]Cc1ccccc1OC (optimized conformer: 52.94258825996077 kcal/mol)

>  <smiles>  (23) 
CCc1ccccc1Oc1ncccc1C(=O)NCc1ccccc1OC

>  <score_type>  (23) 
oracle

>  <origin>  (23) 
adg

>  <m_score__min__energy>  (23) 
-8.9100000000000001

>  <m_primary>  (23) 
energy

$$$$
23:0
     RDKit          3D

 39 41  0  0  0  0  0  0  0  0999 V2000
   51.9130   30.2210   49.8430 C   0  0  0  0  0  0  0  0  0  0  0  0
   51.5630   31.1070   50.9950 C   0  0  0  0  0  0  0  0  0  0  0  0
   51.0220   32.3300   50.8520 N   0  0  0  0  0  0  0  0  0  0  0  0
   50.8020   32.7230   52.1240 C   0  0  0  0  0  0  0  0  0  0  0  0
   50.2980   33.8390   52.4120 O   0  0  0  0  0  0  0  0  0  0  0  0
   51.1580   31.8210   53.0620 N   0  0  0  0  0  0  0  0  0  0  0  0
   51.6450   30.7960   52.3390 C   0  0  0  0  0  0  0  0  0  0  0  0
   52.1080   29.5050   52.9450 C   0  0  0  0  0  0  0  0  0  0  0  0
   53.6040   29.5050   53.1010 C   0  0  0  0  0  0  0  0  0  0  0  0
   54.1970   28.8710   54.2010 C   0  0  0  0  0  0  0  0  0  0  0  0
   55.5870   28.8310   54.3280 C   0  0  0  0  0  0  0  0  0  0  0  0
   56.4060   29.4280   53.3590 C   0  0  0  0  0  0  0  0  0  0  0  0
   58.1620   29.3660   53.5260 S   0  0  0  0  0  0  0  0  0  0  0  0
   58.9110   29.0370   52.0020 N   0  0  0  0  0  0  0  0  0  0  0  0
   58.5390   28.2780   54.4920 O   0  0  0  0  0  0  0  0  0  0  0  0
   58.6590   30.6870   54.0400 O   0  0  0  0  0  0  0  0  0  0  0  0
   55.8220   30.0700   52.2520 C   0  0  0  0  0  0  0  0  0  0  0  0
   56.6500   30.6320   51.2660 O   0  0  0  0  0  0  0  0  0  0  0  0
   57.5040   31.7280   51.4500 C   0  0  0  0  0  0  0  0  0  0  0  0
   58.6350   31.9360   50.6360 C   0  0  0  0  0  0  0  0  0  0  0  0
   59.4530   33.0510   50.8420 C   0  0  0  0  0  0  0  0  0  0  0  0
   59.1440   33.9700   51.8480 C   0  0  0  0  0  0  0  0  0  0  0  0
   58.0120   33.7800   52.6460 C   0  0  0  0  0  0  0  0  0  0  0  0
   57.1920   32.6660   52.4420 C   0  0  0  0  0  0  0  0  0  0  0  0
   54.4210   30.0930   52.1230 C   0  0  0  0  0  0  0  0  0  0  0  0
   52.2925   29.2604   50.2213 H   0  0  0  0  0  0  0  0  0  0  0  0
   51.0167   30.0454   49.2300 H   0  0  0  0  0  0  0  0  0  0  0  0
   52.6874   30.7053   49.2300 H   0  0  0  0  0  0  0  0  0  0  0  0
   51.6407   29.3803   53.9330 H   0  0  0  0  0  0  0  0  0  0  0  0
   51.8186   28.6761   52.2823 H   0  0  0  0  0  0  0  0  0  0  0  0
   53.5640   28.4022   54.9688 H   0  0  0  0  0  0  0  0  0  0  0  0
   56.0424   28.3279   55.1938 H   0  0  0  0  0  0  0  0  0  0  0  0
   58.1620   29.0930   51.2750 H   0  0  0  0  0  0  0  0  0  0  0  0
   58.8750   31.2195   49.8366 H   0  0  0  0  0  0  0  0  0  0  0  0
   60.3410   33.2049   50.2113 H   0  0  0  0  0  0  0  0  0  0  0  0
   59.7919   34.8436   52.0122 H   0  0  0  0  0  0  0  0  0  0  0  0
   57.7664   34.5068   53.4343 H   0  0  0  0  0  0  0  0  0  0  0  0
   56.2961   32.5255   53.0646 H   0  0  0  0  0  0  0  0  0  0  0  0
   53.9620   30.5761   51.2478 H   0  0  0  0  0  0  0  0  0  0  0  0
  1  2  1  0
  2  3  1  0
  3  4  1  0
  4  5  2  0
  4  6  1  0
  6  7  1  0
  7  8  1  0
  8  9  1  0
  9 10  2  0
 10 11  1  0
 11 12  2  0
 12 13  1  0
 13 14  1  0
 13 15  2  0
 13 16  2  0
 12 17  1  0
 17 18  1  0
 18 19  1  0
 19 20  2  0
 20 21  1  0
 21 22  2  0
 22 23  1  0
 23 24  2  0
 17 25  2  0
  7  2  2  0
 25  9  1  0
 24 19  1  0
  1 26  1  0
  1 27  1  0
  1 28  1  0
  8 29  1  0
  8 30  1  0
 10 31  1  0
 11 32  1  0
 14 33  1  0
 20 34  1  0
 21 35  1  0
 22 36  1  0
 23 37  1  0
 24 38  1  0
 25 39  1  0
M  CHG  3   3  -1   6  -1  14  -1
M  END
>  <UniqueID>  (24) 
24

>  <SMILES>  (24) 
Cc1[n-]c(=O)[n-]c1Cc1ccc(S([NH-])(=O)=O)c(Oc2ccccc2)c1

>  <Energy>  (24) 
72.81504028182289

>  <Genealogy>  (24) 
Cc1[n-]c(=O)[n-]c1Cc1ccc(S([NH-])(=O)=O)c(Oc2ccccc2)c1 (protonated)
Cc1[n-]c(=O)[n-]c1Cc1ccc(S([NH-])(=O)=O)c(Oc2ccccc2)c1 (3D coordinates assigned)
Cc1[n-]c(=O)[n-]c1Cc1ccc(S([NH-])(=O)=O)c(Oc2ccccc2)c1 (optimized conformer: 72.81504028182289 kcal/mol)

>  <smiles>  (24) 
Cc1[nH]c(=O)[nH]c1Cc1ccc(S(N)(=O)=O)c(Oc2ccccc2)c1

>  <score_type>  (24) 
oracle

>  <origin>  (24) 
adg

>  <m_score__min__energy>  (24) 
-12.32

>  <m_primary>  (24) 
energy

$$$$
24:0
     RDKit          3D

 43 45  0  0  0  0  0  0  0  0999 V2000
   53.6970   26.3280   45.9680 H   0  0  0  0  0  0  0  0  0  0  0  0
   54.7240   26.1460   45.9410 N   0  0  0  0  0  0  0  0  0  0  0  0
   54.9330   24.4830   45.5220 S   0  0  0  0  0  0  0  0  0  0  0  0
   53.6130   23.8930   45.1120 O   0  0  0  0  0  0  0  0  0  0  0  0
   55.8920   24.3840   44.3680 O   0  0  0  0  0  0  0  0  0  0  0  0
   55.5600   23.6020   46.9210 C   0  0  0  0  0  0  0  0  0  0  0  0
   54.6740   23.0330   47.8470 C   0  0  0  0  0  0  0  0  0  0  0  0
   53.5885   23.1403   47.7051 H   0  0  0  0  0  0  0  0  0  0  0  0
   55.1660   22.3310   48.9480 C   0  0  0  0  0  0  0  0  0  0  0  0
   54.4738   21.8819   49.6755 H   0  0  0  0  0  0  0  0  0  0  0  0
   56.5430   22.2050   49.1160 C   0  0  0  0  0  0  0  0  0  0  0  0
   56.9434   21.6553   49.9806 H   0  0  0  0  0  0  0  0  0  0  0  0
   57.3920   22.7610   48.2120 N   0  0  0  0  0  0  0  0  0  0  0  0
   56.9460   23.4510   47.1250 C   0  0  0  0  0  0  0  0  0  0  0  0
   57.7880   23.9770   46.2790 N   0  0  0  0  0  0  0  0  0  0  0  0
   58.2370   25.3740   46.2200 C   0  0  0  0  0  0  0  0  0  0  0  0
   59.2707   25.4176   46.5936 H   0  0  0  0  0  0  0  0  0  0  0  0
   58.3100   25.9010   44.7600 C   0  0  0  0  0  0  0  0  0  0  0  0
   57.9749   25.1016   44.0827 H   0  0  0  0  0  0  0  0  0  0  0  0
   59.3532   26.1935   44.5701 H   0  0  0  0  0  0  0  0  0  0  0  0
   57.4380   27.1410   44.5200 C   0  0  0  0  0  0  0  0  0  0  0  0
   56.3784   26.8463   44.5385 H   0  0  0  0  0  0  0  0  0  0  0  0
   57.6974   27.5717   43.5416 H   0  0  0  0  0  0  0  0  0  0  0  0
   57.6760   28.1540   45.5610 N   0  0  0  0  0  0  0  0  0  0  0  0
   57.6520   29.5580   45.2140 C   0  0  0  0  0  0  0  0  0  0  0  0
   57.8160   30.4980   46.1860 N   0  0  0  0  0  0  0  0  0  0  0  0
   57.7950   31.8310   45.9060 C   0  0  0  0  0  0  0  0  0  0  0  0
   57.9510   32.7130   46.8470 N   0  0  0  0  0  0  0  0  0  0  0  0
   58.3280   34.1010   46.6060 C   0  0  0  0  0  0  0  0  0  0  0  0
   58.4677   34.6154   47.5682 H   0  0  0  0  0  0  0  0  0  0  0  0
   59.2671   34.1319   46.0340 H   0  0  0  0  0  0  0  0  0  0  0  0
   57.5336   34.6027   46.0340 H   0  0  0  0  0  0  0  0  0  0  0  0
   57.6070   32.2460   44.6280 N   0  0  0  0  0  0  0  0  0  0  0  0
   57.4380   31.3510   43.6200 C   0  0  0  0  0  0  0  0  0  0  0  0
   57.2860   31.7057   42.5899 H   0  0  0  0  0  0  0  0  0  0  0  0
   57.4570   29.9840   43.8900 C   0  0  0  0  0  0  0  0  0  0  0  0
   57.3217   29.2516   43.0805 H   0  0  0  0  0  0  0  0  0  0  0  0
   57.7700   27.7400   46.9740 C   0  0  0  0  0  0  0  0  0  0  0  0
   57.0825   28.3561   47.5720 H   0  0  0  0  0  0  0  0  0  0  0  0
   58.8109   27.8773   47.3020 H   0  0  0  0  0  0  0  0  0  0  0  0
   57.4030   26.2650   47.1600 C   0  0  0  0  0  0  0  0  0  0  0  0
   56.3351   26.1274   46.9348 H   0  0  0  0  0  0  0  0  0  0  0  0
   57.6138   25.9764   48.2003 H   0  0  0  0  0  0  0  0  0  0  0  0
  1  2  1  0
  2  3  1  0
  3  4  2  0
  3  5  2  0
  3  6  1  0
  6  7  2  0
  7  8  1  0
  7  9  1  0
  9 10  1  0
  9 11  2  0
 11 12  1  0
 11 13  1  0
 13 14  1  0
 14 15  2  0
 15 16  1  0
 16 17  1  0
 16 18  1  0
 18 19  1  0
 18 20  1  0
 18 21  1  0
 21 22  1  0
 21 23  1  0
 21 24  1  0
 24 25  1  0
 25 26  2  0
 26 27  1  0
 27 28  2  3
 28 29  1  0
 29 30  1  0
 29 31  1  0
 29 32  1  0
 27 33  1  0
 33 34  1  0
 34 35  1  0
 34 36  2  0
 36 37  1  0
 24 38  1  0
 38 39  1  0
 38 40  1  0
 38 41  1  0
 41 42  1  0
 41 43  1  0
 14  6  1  0
 41 16  1  0
 36 25  1  0
M  CHG  3   2  -1  13  -1  33  -1
M  END
>  <UniqueID>  (25) 
25

>  <SMILES>  (25) 
CN=c1nc(N2CCC(/N=c3\[n-]cccc3S([NH-])(=O)=O)CC2)cc[n-]1

>  <Energy>  (25) 
50.719433711422184

>  <Genealogy>  (25) 
CN=c1nc(N2CCC(N=c3[n-]cccc3S([NH-])(=O)=O)CC2)cc[n-]1 (protonated)
CN=c1nc(N2CCC(/N=c3\[n-]cccc3S([NH-])(=O)=O)CC2)cc[n-]1 (cis-trans isomerization)
CN=c1nc(N2CCC(/N=c3\[n-]cccc3S([NH-])(=O)=O)CC2)cc[n-]1 (3D coordinates assigned)
CN=c1nc(N2CCC(/N=c3\[n-]cccc3S([NH-])(=O)=O)CC2)cc[n-]1 (nonaromatic ring conformer: 50.719433711422184 kcal/mol)

>  <smiles>  (25) 
CN=c1nc(N2CCC(N=c3[nH]cccc3S(N)(=O)=O)CC2)cc[nH]1

>  <score_type>  (25) 
oracle

>  <origin>  (25) 
adg

>  <m_score__min__energy>  (25) 
-12.56

>  <m_primary>  (25) 
energy

$$$$
25:0
     RDKit          3D

 51 54  0  0  0  0  0  0  0  0999 V2000
   57.6940   29.7460   50.9180 O   0  0  0  0  0  0  0  0  0  0  0  0
   58.5360   30.3560   50.2080 C   0  0  0  0  0  0  0  0  0  0  0  0
   59.5800   29.5670   49.4690 C   0  0  0  0  0  0  0  0  0  0  0  0
   60.7590   30.3940   49.2280 N   0  0  0  0  0  0  0  0  0  0  0  0
   61.5710   30.9120   50.1750 C   0  0  0  0  0  0  0  0  0  0  0  0
   62.5060   31.6940   49.5350 C   0  0  0  0  0  0  0  0  0  0  0  0
   62.1740   31.6400   48.2040 C   0  0  0  0  0  0  0  0  0  0  0  0
   61.1150   30.8300   48.0280 N   0  0  0  0  0  0  0  0  0  0  0  0
   62.9310   32.3440   47.1230 C   0  0  0  0  0  0  0  0  0  0  0  0
   63.7740   33.4900   47.7210 C   0  0  0  0  0  0  0  0  0  0  0  0
   64.5260   33.0480   48.9950 C   0  0  0  0  0  0  0  0  0  0  0  0
   63.5570   32.5930   50.1070 C   0  0  0  0  0  0  0  0  0  0  0  0
   58.5230   31.7890   50.1950 N   0  0  0  0  0  0  0  0  0  0  0  0
   58.8290   32.6130   49.0650 C   0  0  0  0  0  0  0  0  0  0  0  0
   59.6280   33.7480   49.2430 C   0  0  0  0  0  0  0  0  0  0  0  0
   59.9090   34.5880   48.1620 C   0  0  0  0  0  0  0  0  0  0  0  0
   59.3640   34.3170   46.9050 C   0  0  0  0  0  0  0  0  0  0  0  0
   58.5460   33.1940   46.7150 C   0  0  0  0  0  0  0  0  0  0  0  0
   57.7820   32.9080   45.1500 S   0  0  0  0  0  0  0  0  0  0  0  0
   58.0400   34.0890   44.2560 O   0  0  0  0  0  0  0  0  0  0  0  0
   56.2950   32.8050   45.3510 O   0  0  0  0  0  0  0  0  0  0  0  0
   58.3470   31.4470   44.3650 N   0  0  0  0  0  0  0  0  0  0  0  0
   57.3970   30.9390   43.3510 C   0  0  0  0  0  0  0  0  0  0  0  0
   56.6270   29.7000   43.8270 C   0  0  0  0  0  0  0  0  0  0  0  0
   56.4120   29.7710   45.2170 O   0  0  0  0  0  0  0  0  0  0  0  0
   57.6340   29.5780   45.9010 C   0  0  0  0  0  0  0  0  0  0  0  0
   58.7970   30.4210   45.3260 C   0  0  0  0  0  0  0  0  0  0  0  0
   58.2810   32.3440   47.8000 C   0  0  0  0  0  0  0  0  0  0  0  0
   59.8668   28.6914   50.0698 H   0  0  0  0  0  0  0  0  0  0  0  0
   59.1668   29.2403   48.5033 H   0  0  0  0  0  0  0  0  0  0  0  0
   61.4985   30.7404   51.2591 H   0  0  0  0  0  0  0  0  0  0  0  0
   63.5970   31.6274   46.6202 H   0  0  0  0  0  0  0  0  0  0  0  0
   62.2163   32.7642   46.4000 H   0  0  0  0  0  0  0  0  0  0  0  0
   64.5082   33.8200   46.9712 H   0  0  0  0  0  0  0  0  0  0  0  0
   63.0914   34.3080   47.9948 H   0  0  0  0  0  0  0  0  0  0  0  0
   65.1941   32.2117   48.7414 H   0  0  0  0  0  0  0  0  0  0  0  0
   65.0955   33.9107   49.3712 H   0  0  0  0  0  0  0  0  0  0  0  0
   64.1196   32.0494   50.8803 H   0  0  0  0  0  0  0  0  0  0  0  0
   63.0740   33.4771   50.5486 H   0  0  0  0  0  0  0  0  0  0  0  0
   60.0365   33.9799   50.2377 H   0  0  0  0  0  0  0  0  0  0  0  0
   60.5601   35.4636   48.3013 H   0  0  0  0  0  0  0  0  0  0  0  0
   59.5775   34.9878   46.0598 H   0  0  0  0  0  0  0  0  0  0  0  0
   56.6738   31.7341   43.1172 H   0  0  0  0  0  0  0  0  0  0  0  0
   57.9814   30.6466   42.4662 H   0  0  0  0  0  0  0  0  0  0  0  0
   55.6570   29.6532   43.3103 H   0  0  0  0  0  0  0  0  0  0  0  0
   57.2155   28.7992   43.5982 H   0  0  0  0  0  0  0  0  0  0  0  0
   57.4909   29.8542   46.9561 H   0  0  0  0  0  0  0  0  0  0  0  0
   57.9096   28.5196   45.7833 H   0  0  0  0  0  0  0  0  0  0  0  0
   59.3112   30.9228   46.1590 H   0  0  0  0  0  0  0  0  0  0  0  0
   59.4643   29.7341   44.7848 H   0  0  0  0  0  0  0  0  0  0  0  0
   57.6399   31.4614   47.6587 H   0  0  0  0  0  0  0  0  0  0  0  0
  1  2  2  0
  2  3  1  0
  3  4  1  0
  4  5  1  0
  5  6  2  0
  6  7  1  0
  7  8  2  0
  7  9  1  0
  9 10  1  0
 10 11  1  0
 11 12  1  0
  2 13  1  0
 13 14  1  0
 14 15  2  0
 15 16  1  0
 16 17  2  0
 17 18  1  0
 18 19  1  0
 19 20  2  0
 19 21  2  0
 19 22  1  0
 22 23  1  0
 23 24  1  0
 24 25  1  0
 25 26  1  0
 26 27  1  0
 18 28  2  0
  8  4  1  0
 28 14  1  0
 12  6  1  0
 27 22  1  0
  3 29  1  0
  3 30  1  0
  5 31  1  0
  9 32  1  0
  9 33  1  0
 10 34  1  0
 10 35  1  0
 11 36  1  0
 11 37  1  0
 12 38  1  0
 12 39  1  0
 15 40  1  0
 16 41  1  0
 17 42  1  0
 23 43  1  0
 23 44  1  0
 24 45  1  0
 24 46  1  0
 26 47  1  0
 26 48  1  0
 27 49  1  0
 27 50  1  0
 28 51  1  0
M  CHG  1  13  -1
M  END
>  <UniqueID>  (26) 
26

>  <SMILES>  (26) 
O=C(Cn1cc2c(n1)CCCC2)[N-]c1cccc(S(=O)(=O)N2CCOCC2)c1

>  <Energy>  (26) 
93.659767176314

>  <Genealogy>  (26) 
O=C(Cn1cc2c(n1)CCCC2)[N-]c1cccc(S(=O)(=O)N2CCOCC2)c1 (protonated)
O=C(Cn1cc2c(n1)CCCC2)[N-]c1cccc(S(=O)(=O)N2CCOCC2)c1 (3D coordinates assigned)
O=C(Cn1cc2c(n1)CCCC2)[N-]c1cccc(S(=O)(=O)N2CCOCC2)c1 (nonaromatic ring conformer: 93.659767176314 kcal/mol)

>  <smiles>  (26) 
O=C(Cn1cc2c(n1)CCCC2)Nc1cccc(S(=O)(=O)N2CCOCC2)c1

>  <score_type>  (26) 
oracle

>  <origin>  (26) 
adg

>  <m_score__min__energy>  (26) 
-12.039999999999999

>  <m_primary>  (26) 
energy

$$$$
26:0
     RDKit          3D

 29 30  0  0  0  0  0  0  0  0999 V2000
   57.8030   32.3450   43.4180 C   0  0  0  0  0  0  0  0  0  0  0  0
   57.8360   32.9210   45.1030 S   0  0  0  0  0  0  0  0  0  0  0  0
   56.6450   33.8100   45.3250 O   0  0  0  0  0  0  0  0  0  0  0  0
   59.0950   33.7030   45.3460 O   0  0  0  0  0  0  0  0  0  0  0  0
   57.7520   31.5840   46.2020 N   0  0  0  0  0  0  0  0  0  0  0  0
   58.4580   30.3610   45.9830 C   0  0  0  0  0  0  0  0  0  0  0  0
   57.7670   29.2700   45.4420 C   0  0  0  0  0  0  0  0  0  0  0  0
   58.4270   28.0580   45.1940 C   0  0  0  0  0  0  0  0  0  0  0  0
   57.6950   26.9140   44.5470 C   0  0  0  0  0  0  0  0  0  0  0  0
   57.2980   25.9080   45.5820 C   0  0  0  0  0  0  0  0  0  0  0  0
   58.2540   24.6180   46.0960 S   0  0  0  0  0  0  0  0  0  0  0  0
   57.0460   24.0180   47.1000 C   0  0  0  0  0  0  0  0  0  0  0  0
   57.1660   22.9900   47.8150 O   0  0  0  0  0  0  0  0  0  0  0  0
   55.9180   24.7570   47.0570 N   0  0  0  0  0  0  0  0  0  0  0  0
   56.0550   25.8070   46.2040 C   0  0  0  0  0  0  0  0  0  0  0  0
   55.0210   26.7090   45.9750 O   0  0  0  0  0  0  0  0  0  0  0  0
   59.7920   27.9440   45.4920 C   0  0  0  0  0  0  0  0  0  0  0  0
   60.4810   29.0200   46.0570 C   0  0  0  0  0  0  0  0  0  0  0  0
   59.8210   30.2270   46.3110 C   0  0  0  0  0  0  0  0  0  0  0  0
   60.7150   31.5270   47.0850 Cl  0  0  0  0  0  0  0  0  0  0  0  0
   57.7401   31.2469   43.4071 H   0  0  0  0  0  0  0  0  0  0  0  0
   56.9276   32.7676   42.9031 H   0  0  0  0  0  0  0  0  0  0  0  0
   58.7209   32.6648   42.9031 H   0  0  0  0  0  0  0  0  0  0  0  0
   56.6961   29.3646   45.2093 H   0  0  0  0  0  0  0  0  0  0  0  0
   56.7934   27.2957   44.0456 H   0  0  0  0  0  0  0  0  0  0  0  0
   58.3562   26.4328   43.8113 H   0  0  0  0  0  0  0  0  0  0  0  0
   55.1480   27.4930   45.3470 H   0  0  0  0  0  0  0  0  0  0  0  0
   60.3225   27.0040   45.2802 H   0  0  0  0  0  0  0  0  0  0  0  0
   61.5481   28.9176   46.3034 H   0  0  0  0  0  0  0  0  0  0  0  0
  1  2  1  0
  2  3  2  0
  2  4  2  0
  2  5  1  0
  5  6  1  0
  6  7  2  0
  7  8  1  0
  8  9  1  0
  9 10  1  0
 10 11  1  0
 11 12  1  0
 12 13  2  0
 12 14  1  0
 14 15  1  0
 15 16  1  0
  8 17  2  0
 17 18  1  0
 18 19  2  0
 19 20  1  0
 19  6  1  0
 15 10  2  0
  1 21  1  0
  1 22  1  0
  1 23  1  0
  7 24  1  0
  9 25  1  0
  9 26  1  0
 16 27  1  0
 17 28  1  0
 18 29  1  0
M  CHG  2   5  -1  14  -1
M  END
>  <UniqueID>  (27) 
27

>  <SMILES>  (27) 
CS(=O)(=O)[N-]c1cc(Cc2sc(=O)[n-]c2O)ccc1Cl

>  <Energy>  (27) 
62.46160137006005

>  <Genealogy>  (27) 
CS(=O)(=O)[N-]c1cc(Cc2sc(=O)[n-]c2O)ccc1Cl (protonated)
CS(=O)(=O)[N-]c1cc(Cc2sc(=O)[n-]c2O)ccc1Cl (3D coordinates assigned)
CS(=O)(=O)[N-]c1cc(Cc2sc(=O)[n-]c2O)ccc1Cl (optimized conformer: 62.46160137006005 kcal/mol)

>  <smiles>  (27) 
CS(=O)(=O)Nc1cc(Cc2sc(=O)[nH]c2O)ccc1Cl

>  <score_type>  (27) 
oracle

>  <origin>  (27) 
adg

>  <m_score__min__energy>  (27) 
-12.25

>  <m_primary>  (27) 
energy

$$$$
27:0
     RDKit          3D

 40 42  0  0  0  0  0  0  0  0999 V2000
   58.1270   27.0350   43.1980 C   0  0  0  0  0  0  0  0  0  0  0  0
   57.7480   27.5080   44.5980 C   0  0  0  0  0  0  0  0  0  0  0  0
   57.7150   28.9820   44.6540 N   0  0  0  0  0  0  0  0  0  0  0  0
   58.8780   29.7090   44.6190 C   0  0  0  0  0  0  0  0  0  0  0  0
   59.9960   29.1340   44.5200 O   0  0  0  0  0  0  0  0  0  0  0  0
   58.8400   31.0610   44.6930 N   0  0  0  0  0  0  0  0  0  0  0  0
   57.6560   31.7130   44.8130 C   0  0  0  0  0  0  0  0  0  0  0  0
   57.6050   33.1090   44.8830 O   0  0  0  0  0  0  0  0  0  0  0  0
   57.4930   33.8380   46.1040 C   0  0  0  0  0  0  0  0  0  0  0  0
   58.8020   33.7990   46.9340 C   0  0  0  0  0  0  0  0  0  0  0  0
   59.9200   33.0210   46.3390 N   0  0  0  0  0  0  0  0  0  0  0  0
   61.1420   33.8340   46.1090 C   0  0  0  0  0  0  0  0  0  0  0  0
   62.1130   33.3640   47.1230 C   0  0  0  0  0  0  0  0  0  0  0  0
   63.3530   33.9120   47.4550 C   0  0  0  0  0  0  0  0  0  0  0  0
   64.1230   33.2730   48.4410 C   0  0  0  0  0  0  0  0  0  0  0  0
   63.6470   32.1030   49.0630 C   0  0  0  0  0  0  0  0  0  0  0  0
   62.3990   31.5690   48.7030 C   0  0  0  0  0  0  0  0  0  0  0  0
   61.6510   32.2300   47.7270 C   0  0  0  0  0  0  0  0  0  0  0  0
   60.3300   31.8580   47.1700 C   0  0  0  0  0  0  0  0  0  0  0  0
   56.5060   31.0020   44.8690 N   0  0  0  0  0  0  0  0  0  0  0  0
   56.5250   29.6490   44.7970 C   0  0  0  0  0  0  0  0  0  0  0  0
   55.4360   29.0190   44.8650 O   0  0  0  0  0  0  0  0  0  0  0  0
   58.8132   26.1786   43.2736 H   0  0  0  0  0  0  0  0  0  0  0  0
   57.2196   26.7311   42.6555 H   0  0  0  0  0  0  0  0  0  0  0  0
   58.6214   27.8543   42.6555 H   0  0  0  0  0  0  0  0  0  0  0  0
   56.7543   27.1136   44.8567 H   0  0  0  0  0  0  0  0  0  0  0  0
   58.4993   27.1415   45.3130 H   0  0  0  0  0  0  0  0  0  0  0  0
   57.2535   34.8858   45.8699 H   0  0  0  0  0  0  0  0  0  0  0  0
   56.6994   33.3694   46.7045 H   0  0  0  0  0  0  0  0  0  0  0  0
   59.1463   34.8347   47.0708 H   0  0  0  0  0  0  0  0  0  0  0  0
   58.5463   33.2860   47.8729 H   0  0  0  0  0  0  0  0  0  0  0  0
   59.5850   32.6630   45.4130 H   0  0  0  0  0  0  0  0  0  0  0  0
   61.5319   33.6669   45.0941 H   0  0  0  0  0  0  0  0  0  0  0  0
   60.9429   34.9122   46.1970 H   0  0  0  0  0  0  0  0  0  0  0  0
   63.7184   34.8221   46.9567 H   0  0  0  0  0  0  0  0  0  0  0  0
   65.1005   33.6879   48.7279 H   0  0  0  0  0  0  0  0  0  0  0  0
   64.2546   31.6056   49.8334 H   0  0  0  0  0  0  0  0  0  0  0  0
   62.0201   30.6523   49.1784 H   0  0  0  0  0  0  0  0  0  0  0  0
   60.4125   30.9516   46.5522 H   0  0  0  0  0  0  0  0  0  0  0  0
   59.5969   31.6360   47.9595 H   0  0  0  0  0  0  0  0  0  0  0  0
  1  2  1  0
  2  3  1  0
  3  4  1  0
  4  5  2  0
  4  6  1  0
  6  7  2  0
  7  8  1  0
  8  9  1  0
  9 10  1  0
 10 11  1  0
 11 12  1  0
 12 13  1  0
 13 14  2  0
 14 15  1  0
 15 16  2  0
 16 17  1  0
 17 18  2  0
 18 19  1  0
  7 20  1  0
 20 21  1  0
 21 22  2  0
 21  3  1  0
 19 11  1  0
 18 13  1  0
  1 23  1  0
  1 24  1  0
  1 25  1  0
  2 26  1  0
  2 27  1  0
  9 28  1  0
  9 29  1  0
 10 30  1  0
 10 31  1  0
 11 32  1  0
 12 33  1  0
 12 34  1  0
 14 35  1  0
 15 36  1  0
 16 37  1  0
 17 38  1  0
 19 39  1  0
 19 40  1  0
M  CHG  2  11   1  20  -1
M  END
>  <UniqueID>  (28) 
28

>  <SMILES>  (28) 
CCn1c(=O)nc(OCC[NH+]2Cc3ccccc3C2)[n-]c1=O

>  <Energy>  (28) 
57.87667382834888

>  <Genealogy>  (28) 
CCn1c(=O)nc(OCC[NH+]2Cc3ccccc3C2)[n-]c1=O (protonated)
CCn1c(=O)nc(OCC[NH+]2Cc3ccccc3C2)[n-]c1=O (3D coordinates assigned)
CCn1c(=O)nc(OCC[NH+]2Cc3ccccc3C2)[n-]c1=O (nonaromatic ring conformer: 57.87667382834888 kcal/mol)

>  <smiles>  (28) 
CCn1c(=O)nc(OCCN2Cc3ccccc3C2)[nH]c1=O

>  <score_type>  (28) 
oracle

>  <origin>  (28) 
adg

>  <m_score__min__energy>  (28) 
-6.8799999999999999

>  <m_primary>  (28) 
energy

$$$$
28:0
     RDKit          3D

 36 37  0  0  0  0  0  0  0  0999 V2000
   58.0950   33.8390   46.7440 C   0  0  0  0  0  0  0  0  0  0  0  0
   58.5270   34.4680   45.4240 C   0  0  0  0  0  0  0  0  0  0  0  0
   59.1910   33.4600   44.5790 N   0  0  0  0  0  0  0  0  0  0  0  0
   58.2590   32.7920   43.6570 C   0  0  0  0  0  0  0  0  0  0  0  0
   57.8130   31.4740   44.2180 C   0  0  0  0  0  0  0  0  0  0  0  0
   56.5110   31.0070   44.0050 C   0  0  0  0  0  0  0  0  0  0  0  0
   56.1400   29.7650   44.5210 C   0  0  0  0  0  0  0  0  0  0  0  0
   54.9680   29.3500   44.3220 O   0  0  0  0  0  0  0  0  0  0  0  0
   57.0810   29.0030   45.2490 C   0  0  0  0  0  0  0  0  0  0  0  0
   56.7870   27.7340   45.8030 C   0  0  0  0  0  0  0  0  0  0  0  0
   55.5170   27.1910   45.6400 O   0  0  0  0  0  0  0  0  0  0  0  0
   57.7840   27.0250   46.5220 C   0  0  0  0  0  0  0  0  0  0  0  0
   57.5750   25.7600   47.1050 O   0  0  0  0  0  0  0  0  0  0  0  0
   56.8790   24.6630   46.5250 C   0  0  0  0  0  0  0  0  0  0  0  0
   59.0610   27.5880   46.6780 C   0  0  0  0  0  0  0  0  0  0  0  0
   60.0240   26.8580   47.3940 O   0  0  0  0  0  0  0  0  0  0  0  0
   60.4070   27.1270   48.7390 C   0  0  0  0  0  0  0  0  0  0  0  0
   59.3470   28.8460   46.1250 C   0  0  0  0  0  0  0  0  0  0  0  0
   58.3730   29.5490   45.4180 C   0  0  0  0  0  0  0  0  0  0  0  0
   58.6790   30.7380   44.9070 O   0  0  0  0  0  0  0  0  0  0  0  0
   58.4994   34.4279   47.5805 H   0  0  0  0  0  0  0  0  0  0  0  0
   56.9966   33.8262   46.8019 H   0  0  0  0  0  0  0  0  0  0  0  0
   58.4773   32.8092   46.8019 H   0  0  0  0  0  0  0  0  0  0  0  0
   57.6422   34.8575   44.8993 H   0  0  0  0  0  0  0  0  0  0  0  0
   59.2308   35.2883   45.6281 H   0  0  0  0  0  0  0  0  0  0  0  0
   59.5850   32.7190   45.2070 H   0  0  0  0  0  0  0  0  0  0  0  0
   57.3800   33.4351   43.5031 H   0  0  0  0  0  0  0  0  0  0  0  0
   58.7733   32.6141   42.7010 H   0  0  0  0  0  0  0  0  0  0  0  0
   55.7887   31.6121   43.4374 H   0  0  0  0  0  0  0  0  0  0  0  0
   56.4731   24.0233   47.3225 H   0  0  0  0  0  0  0  0  0  0  0  0
   56.0545   25.0399   45.9020 H   0  0  0  0  0  0  0  0  0  0  0  0
   57.5713   24.0776   45.9020 H   0  0  0  0  0  0  0  0  0  0  0  0
   59.7041   26.6333   49.4261 H   0  0  0  0  0  0  0  0  0  0  0  0
   61.4226   26.7428   48.9149 H   0  0  0  0  0  0  0  0  0  0  0  0
   60.3902   28.2127   48.9149 H   0  0  0  0  0  0  0  0  0  0  0  0
   60.3494   29.2812   46.2508 H   0  0  0  0  0  0  0  0  0  0  0  0
  1  2  1  0
  2  3  1  0
  3  4  1  0
  4  5  1  0
  5  6  2  0
  6  7  1  0
  7  8  2  0
  7  9  1  0
  9 10  2  0
 10 11  1  0
 10 12  1  0
 12 13  1  0
 13 14  1  0
 12 15  2  0
 15 16  1  0
 16 17  1  0
 15 18  1  0
 18 19  2  0
 19 20  1  0
 20  5  1  0
 19  9  1  0
  1 21  1  0
  1 22  1  0
  1 23  1  0
  2 24  1  0
  2 25  1  0
  3 26  1  0
  4 27  1  0
  4 28  1  0
  6 29  1  0
 14 30  1  0
 14 31  1  0
 14 32  1  0
 17 33  1  0
 17 34  1  0
 17 35  1  0
 18 36  1  0
M  CHG  1  11  -1
M  END
>  <UniqueID>  (29) 
29

>  <SMILES>  (29) 
CCNCc1cc(=O)c2c([O-])c(OC)c(OC)cc2o1

>  <Energy>  (29) 
42.14324608794088

>  <Genealogy>  (29) 
CCNCc1cc(=O)c2c([O-])c(OC)c(OC)cc2o1 (protonated)
CCNCc1cc(=O)c2c([O-])c(OC)c(OC)cc2o1 (3D coordinates assigned)
CCNCc1cc(=O)c2c([O-])c(OC)c(OC)cc2o1 (optimized conformer: 42.14324608794088 kcal/mol)

>  <smiles>  (29) 
CCNCc1cc(=O)c2c(O)c(OC)c(OC)cc2o1

>  <score_type>  (29) 
oracle

>  <origin>  (29) 
adg

>  <m_score__min__energy>  (29) 
-8.8499999999999996

>  <m_primary>  (29) 
energy

$$$$
29:0
     RDKit          3D

 50 53  0  0  0  0  0  0  0  0999 V2000
   63.5150   33.3810   47.0410 C   0  0  0  0  0  0  0  0  0  0  0  0
   62.0680   33.5640   47.4200 C   0  0  0  0  0  0  0  0  0  0  0  0
   61.1510   33.8970   46.4090 C   0  0  0  0  0  0  0  0  0  0  0  0
   59.8040   34.0810   46.7060 C   0  0  0  0  0  0  0  0  0  0  0  0
   59.3500   33.9520   48.0140 C   0  0  0  0  0  0  0  0  0  0  0  0
   60.2350   33.6190   49.0570 C   0  0  0  0  0  0  0  0  0  0  0  0
   59.6850   33.5350   50.4350 C   0  0  0  0  0  0  0  0  0  0  0  0
   59.2510   34.5710   51.0120 O   0  0  0  0  0  0  0  0  0  0  0  0
   59.5700   32.2510   51.0700 N   0  0  0  0  0  0  0  0  0  0  0  0
   59.6210   31.0990   50.4720 C   0  0  0  0  0  0  0  0  0  0  0  0
   60.3730   30.0520   50.9020 N   0  0  0  0  0  0  0  0  0  0  0  0
   60.2690   29.0080   50.0440 C   0  0  0  0  0  0  0  0  0  0  0  0
   60.9420   27.7960   50.1920 C   0  0  0  0  0  0  0  0  0  0  0  0
   60.7740   26.8030   49.2110 C   0  0  0  0  0  0  0  0  0  0  0  0
   59.9240   27.0190   48.0970 C   0  0  0  0  0  0  0  0  0  0  0  0
   59.7380   25.9630   47.0740 C   0  0  0  0  0  0  0  0  0  0  0  0
   60.7020   25.6330   46.3320 O   0  0  0  0  0  0  0  0  0  0  0  0
   58.4740   25.3020   46.9390 N   0  0  0  0  0  0  0  0  0  0  0  0
   57.6160   25.4230   45.7660 C   0  0  0  0  0  0  0  0  0  0  0  0
   57.5480   26.8630   45.3190 C   0  0  0  0  0  0  0  0  0  0  0  0
   58.6850   27.4530   44.7380 C   0  0  0  0  0  0  0  0  0  0  0  0
   58.6470   28.7780   44.2990 C   0  0  0  0  0  0  0  0  0  0  0  0
   57.4730   29.5260   44.4250 C   0  0  0  0  0  0  0  0  0  0  0  0
   56.3280   28.9500   44.9860 C   0  0  0  0  0  0  0  0  0  0  0  0
   55.1710   29.7200   45.0920 O   0  0  0  0  0  0  0  0  0  0  0  0
   56.3600   27.6170   45.4350 C   0  0  0  0  0  0  0  0  0  0  0  0
   55.2200   27.0520   45.9980 O   0  0  0  0  0  0  0  0  0  0  0  0
   59.2480   28.2530   47.9720 C   0  0  0  0  0  0  0  0  0  0  0  0
   59.4480   29.2250   48.9510 C   0  0  0  0  0  0  0  0  0  0  0  0
   58.8140   30.7780   49.0250 S   0  0  0  0  0  0  0  0  0  0  0  0
   61.6080   33.3750   48.7560 C   0  0  0  0  0  0  0  0  0  0  0  0
   62.5680   32.9290   49.8450 C   0  0  0  0  0  0  0  0  0  0  0  0
   64.1258   33.3037   47.9525 H   0  0  0  0  0  0  0  0  0  0  0  0
   63.6250   32.4618   46.4469 H   0  0  0  0  0  0  0  0  0  0  0  0
   63.8504   34.2439   46.4469 H   0  0  0  0  0  0  0  0  0  0  0  0
   61.5012   34.0134   45.3727 H   0  0  0  0  0  0  0  0  0  0  0  0
   59.0952   34.3296   45.9024 H   0  0  0  0  0  0  0  0  0  0  0  0
   58.2848   34.1123   48.2368 H   0  0  0  0  0  0  0  0  0  0  0  0
   61.5930   27.6198   51.0610 H   0  0  0  0  0  0  0  0  0  0  0  0
   61.3086   25.8467   49.3090 H   0  0  0  0  0  0  0  0  0  0  0  0
   58.0253   24.8081   44.9509 H   0  0  0  0  0  0  0  0  0  0  0  0
   56.6037   25.0779   46.0234 H   0  0  0  0  0  0  0  0  0  0  0  0
   59.6096   26.8671   44.6288 H   0  0  0  0  0  0  0  0  0  0  0  0
   59.5431   29.2342   43.8530 H   0  0  0  0  0  0  0  0  0  0  0  0
   57.4492   30.5709   44.0820 H   0  0  0  0  0  0  0  0  0  0  0  0
   54.8320   30.0660   45.9820 H   0  0  0  0  0  0  0  0  0  0  0  0
   58.5781   28.4429   47.1204 H   0  0  0  0  0  0  0  0  0  0  0  0
   62.1253   33.1347   50.8308 H   0  0  0  0  0  0  0  0  0  0  0  0
   62.7586   31.8501   49.7465 H   0  0  0  0  0  0  0  0  0  0  0  0
   63.5154   33.4792   49.7465 H   0  0  0  0  0  0  0  0  0  0  0  0
  1  2  1  0
  2  3  2  0
  3  4  1  0
  4  5  2  0
  5  6  1  0
  6  7  1  0
  7  8  2  0
  7  9  1  0
  9 10  2  3
 10 11  1  0
 11 12  1  0
 12 13  2  0
 13 14  1  0
 14 15  2  0
 15 16  1  0
 16 17  2  0
 16 18  1  0
 18 19  1  0
 19 20  1  0
 20 21  2  0
 21 22  1  0
 22 23  2  0
 23 24  1  0
 24 25  1  0
 24 26  2  0
 26 27  1  0
 15 28  1  0
 28 29  2  0
 29 30  1  0
  6 31  2  0
 31 32  1  0
 31  2  1  0
 30 10  1  0
 29 12  1  0
 26 20  1  0
  1 33  1  0
  1 34  1  0
  1 35  1  0
  3 36  1  0
  4 37  1  0
  5 38  1  0
 13 39  1  0
 14 40  1  0
 19 41  1  0
 19 42  1  0
 21 43  1  0
 22 44  1  0
 23 45  1  0
 25 46  1  0
 28 47  1  0
 32 48  1  0
 32 49  1  0
 32 50  1  0
M  CHG  3  11  -1  18  -1  27  -1
M  END
>  <UniqueID>  (30) 
30

>  <SMILES>  (30) 
Cc1cccc(C(=O)N=c2[n-]c3ccc(C(=O)[N-]Cc4cccc(O)c4[O-])cc3s2)c1C

>  <Energy>  (30) 
99.5302967733511

>  <Genealogy>  (30) 
Cc1cccc(C(=O)N=c2[n-]c3ccc(C(=O)[N-]Cc4cccc(O)c4[O-])cc3s2)c1C (protonated)
Cc1cccc(C(=O)N=c2[n-]c3ccc(C(=O)[N-]Cc4cccc(O)c4[O-])cc3s2)c1C (3D coordinates assigned)
Cc1cccc(C(=O)N=c2[n-]c3ccc(C(=O)[N-]Cc4cccc(O)c4[O-])cc3s2)c1C (optimized conformer: 99.5302967733511 kcal/mol)

>  <smiles>  (30) 
Cc1cccc(C(=O)N=c2[nH]c3ccc(C(=O)NCc4cccc(O)c4O)cc3s2)c1C

>  <score_type>  (30) 
oracle

>  <origin>  (30) 
adg

>  <m_score__min__energy>  (30) 
-15.82

>  <m_primary>  (30) 
energy

$$$$
30:0
     RDKit          3D

 53 57  0  0  0  0  0  0  0  0999 V2000
   53.4010   23.9766   46.0258 H   0  0  0  0  0  0  0  0  0  0  0  0
   54.4090   24.1610   45.6260 C   0  0  0  0  0  0  0  0  0  0  0  0
   55.0840   25.2900   45.9750 N   0  0  0  0  0  0  0  0  0  0  0  0
   56.3340   25.5620   45.5060 C   0  0  0  0  0  0  0  0  0  0  0  0
   57.0200   26.8030   45.9260 C   0  0  0  0  0  0  0  0  0  0  0  0
   57.5510   26.8680   47.0680 O   0  0  0  0  0  0  0  0  0  0  0  0
   57.1190   27.9180   45.0230 N   0  0  0  0  0  0  0  0  0  0  0  0
   56.9880   27.7400   44.0010 H   0  0  0  0  0  0  0  0  0  0  0  0
   57.5070   29.2440   45.4240 C   0  0  0  0  0  0  0  0  0  0  0  0
   56.8710   30.3550   44.8560 C   0  0  0  0  0  0  0  0  0  0  0  0
   56.0928   30.2087   44.0925 H   0  0  0  0  0  0  0  0  0  0  0  0
   57.2100   31.6130   45.2430 N   0  0  0  0  0  0  0  0  0  0  0  0
   58.1570   31.8460   46.1960 C   0  0  0  0  0  0  0  0  0  0  0  0
   58.4750   33.0570   46.5540 N   0  0  0  0  0  0  0  0  0  0  0  0
   59.4800   33.4430   47.5090 C   0  0  0  0  0  0  0  0  0  0  0  0
   60.5990   33.8770   47.1270 O   0  0  0  0  0  0  0  0  0  0  0  0
   54.9010   29.6130   52.9180 N   0  0  0  0  0  0  0  0  0  0  0  0
   56.1040   29.8410   52.4790 C   0  0  0  0  0  0  0  0  0  0  0  0
   57.8320   32.1690   50.2390 N   0  0  0  0  0  0  0  0  0  0  0  0
   57.6040   31.1390   51.0970 C   0  0  0  0  0  0  0  0  0  0  0  0
   56.3180   30.9040   51.5920 C   0  0  0  0  0  0  0  0  0  0  0  0
   55.4805   31.5488   51.2874 H   0  0  0  0  0  0  0  0  0  0  0  0
   59.0630   32.4310   49.7220 C   0  0  0  0  0  0  0  0  0  0  0  0
   59.1860   33.4480   48.9130 N   0  0  0  0  0  0  0  0  0  0  0  0
   53.7170   30.3800   52.6340 C   0  0  0  0  0  0  0  0  0  0  0  0
   53.4500   30.7390   51.3070 C   0  0  0  0  0  0  0  0  0  0  0  0
   54.1286   30.4113   50.5057 H   0  0  0  0  0  0  0  0  0  0  0  0
   52.3270   31.5110   50.9930 C   0  0  0  0  0  0  0  0  0  0  0  0
   52.1154   31.7737   49.9460 H   0  0  0  0  0  0  0  0  0  0  0  0
   51.4730   31.9490   52.0100 C   0  0  0  0  0  0  0  0  0  0  0  0
   50.3560   32.7150   51.6980 O   0  0  0  0  0  0  0  0  0  0  0  0
   51.7470   31.6220   53.3400 C   0  0  0  0  0  0  0  0  0  0  0  0
   51.0791   31.9731   54.1404 H   0  0  0  0  0  0  0  0  0  0  0  0
   52.8690   30.8490   53.6560 C   0  0  0  0  0  0  0  0  0  0  0  0
   53.0898   30.6066   54.7060 H   0  0  0  0  0  0  0  0  0  0  0  0
   57.1500   29.0400   52.8320 N   0  0  0  0  0  0  0  0  0  0  0  0
   58.4110   29.2440   52.3670 C   0  0  0  0  0  0  0  0  0  0  0  0
   59.2292   28.5795   52.6815 H   0  0  0  0  0  0  0  0  0  0  0  0
   58.6650   30.3020   51.4870 C   0  0  0  0  0  0  0  0  0  0  0  0
   59.9470   30.5560   50.9890 C   0  0  0  0  0  0  0  0  0  0  0  0
   60.7904   29.9156   51.2867 H   0  0  0  0  0  0  0  0  0  0  0  0
   60.1550   31.6240   50.1130 C   0  0  0  0  0  0  0  0  0  0  0  0
   61.1640   31.8358   49.7294 H   0  0  0  0  0  0  0  0  0  0  0  0
   58.8000   30.7640   46.8040 C   0  0  0  0  0  0  0  0  0  0  0  0
   59.5618   30.9374   47.5784 H   0  0  0  0  0  0  0  0  0  0  0  0
   58.4700   29.4620   46.4230 C   0  0  0  0  0  0  0  0  0  0  0  0
   58.9646   28.6062   46.9056 H   0  0  0  0  0  0  0  0  0  0  0  0
   56.9530   24.6490   44.6340 C   0  0  0  0  0  0  0  0  0  0  0  0
   57.9625   24.8505   44.2462 H   0  0  0  0  0  0  0  0  0  0  0  0
   56.2770   23.4850   44.2640 C   0  0  0  0  0  0  0  0  0  0  0  0
   56.7529   22.7646   43.5825 H   0  0  0  0  0  0  0  0  0  0  0  0
   54.9970   23.2370   44.7600 C   0  0  0  0  0  0  0  0  0  0  0  0
   54.4566   22.3232   44.4719 H   0  0  0  0  0  0  0  0  0  0  0  0
  1  2  1  0
  2  3  2  0
  3  4  1  0
  4  5  1  0
  5  6  2  0
  5  7  1  0
  7  8  1  0
  7  9  1  0
  9 10  2  0
 10 11  1  0
 10 12  1  0
 12 13  1  0
 13 14  2  3
 14 15  1  0
 15 16  2  0
 15 17  1  0
 17 18  2  0
 18 19  1  0
 19 20  1  0
 20 21  2  0
 21 22  1  0
 21 23  1  0
 23 24  2  0
 24 25  1  0
 25 26  2  0
 26 27  1  0
 26 28  1  0
 28 29  1  0
 28 30  2  0
 30 31  1  0
 30 32  1  0
 32 33  1  0
 32 34  2  0
 34 35  1  0
 23 36  1  0
 36 37  1  0
 37 38  1  0
 37 39  2  0
 39 40  1  0
 40 41  1  0
 40 42  2  0
 42 43  1  0
 13 44  1  0
 44 45  1  0
 44 46  2  0
 46 47  1  0
  4 48  2  0
 48 49  1  0
 48 50  1  0
 50 51  1  0
 50 52  2  0
 52 53  1  0
 52  2  1  0
 46  9  1  0
 42 18  1  0
 39 20  1  0
 34 25  1  0
M  CHG  4  12  -1  19  -1  31  -1  36  -1
M  END
>  <UniqueID>  (31) 
31

>  <SMILES>  (31) 
O=C(N=c1ccc(NC(=O)c2ccccn2)c[n-]1)/N=c1\ccc2c[n-]/c(=N\c3ccc([O-])cc3)cc2[n-]1

>  <Energy>  (31) 
86.2735643086188

>  <Genealogy>  (31) 
O=C(N=c1ccc(NC(=O)c2ccccn2)c[n-]1)N=c1ccc2c[n-]c(=Nc3ccc([O-])cc3)cc2[n-]1 (protonated)
O=C(N=c1ccc(NC(=O)c2ccccn2)c[n-]1)/N=c1\ccc2c[n-]/c(=N\c3ccc([O-])cc3)cc2[n-]1 (cis-trans isomerization)
O=C(N=c1ccc(NC(=O)c2ccccn2)c[n-]1)/N=c1\ccc2c[n-]/c(=N\c3ccc([O-])cc3)cc2[n-]1 (3D coordinates assigned)
O=C(N=c1ccc(NC(=O)c2ccccn2)c[n-]1)/N=c1\ccc2c[n-]/c(=N\c3ccc([O-])cc3)cc2[n-]1 (optimized conformer: 86.2735643086188 kcal/mol)

>  <smiles>  (31) 
O=C(N=c1ccc(NC(=O)c2ccccn2)c[nH]1)N=c1ccc2c[nH]c(=Nc3ccc(O)cc3)cc2[nH]1

>  <score_type>  (31) 
oracle

>  <origin>  (31) 
adg

>  <m_score__min__energy>  (31) 
-17.02

>  <m_primary>  (31) 
energy

$$$$
31:0
     RDKit          3D

 52 55  0  0  0  0  0  0  0  0999 V2000
   56.0210   27.1430   45.6280 N   0  0  0  0  0  0  0  0  0  0  0  0
   56.7990   28.5840   45.0620 S   0  0  0  0  0  0  0  0  0  0  0  0
   57.3420   28.3370   43.6780 O   0  0  0  0  0  0  0  0  0  0  0  0
   55.7990   29.7090   45.0050 O   0  0  0  0  0  0  0  0  0  0  0  0
   58.0990   29.0190   46.1640 C   0  0  0  0  0  0  0  0  0  0  0  0
   58.3150   30.3640   46.4840 C   0  0  0  0  0  0  0  0  0  0  0  0
   59.3410   30.7240   47.3630 C   0  0  0  0  0  0  0  0  0  0  0  0
   60.1520   29.7380   47.9510 C   0  0  0  0  0  0  0  0  0  0  0  0
   61.2060   30.1020   48.8650 N   0  0  0  0  0  0  0  0  0  0  0  0
   62.0100   31.1600   48.5430 C   0  0  0  0  0  0  0  0  0  0  0  0
   63.0170   31.5910   49.4140 C   0  0  0  0  0  0  0  0  0  0  0  0
   63.8620   32.7520   49.0480 C   0  0  0  0  0  0  0  0  0  0  0  0
   65.0820   32.7490   49.3660 O   0  0  0  0  0  0  0  0  0  0  0  0
   63.3300   33.9010   48.3730 N   0  0  0  0  0  0  0  0  0  0  0  0
   61.9730   34.0740   47.9420 C   0  0  0  0  0  0  0  0  0  0  0  0
   60.9910   34.3670   48.8970 C   0  0  0  0  0  0  0  0  0  0  0  0
   59.6630   34.5670   48.5080 C   0  0  0  0  0  0  0  0  0  0  0  0
   59.3090   34.4830   47.1580 C   0  0  0  0  0  0  0  0  0  0  0  0
   60.2850   34.2110   46.1970 C   0  0  0  0  0  0  0  0  0  0  0  0
   61.6150   34.0160   46.5820 C   0  0  0  0  0  0  0  0  0  0  0  0
   63.1930   30.8820   50.6120 C   0  0  0  0  0  0  0  0  0  0  0  0
   64.1070   31.1930   51.4210 O   0  0  0  0  0  0  0  0  0  0  0  0
   62.3870   29.8320   50.8960 N   0  0  0  0  0  0  0  0  0  0  0  0
   61.4070   29.4310   50.0470 C   0  0  0  0  0  0  0  0  0  0  0  0
   60.4300   27.9880   50.5130 S   0  0  0  0  0  0  0  0  0  0  0  0
   59.6910   28.7590   51.9950 C   0  0  0  0  0  0  0  0  0  0  0  0
   59.2950   30.1850   51.7280 C   0  0  0  0  0  0  0  0  0  0  0  0
   58.3930   30.4920   50.6970 C   0  0  0  0  0  0  0  0  0  0  0  0
   58.0040   31.8170   50.4740 C   0  0  0  0  0  0  0  0  0  0  0  0
   58.5250   32.8430   51.2670 C   0  0  0  0  0  0  0  0  0  0  0  0
   59.4340   32.5470   52.2870 C   0  0  0  0  0  0  0  0  0  0  0  0
   60.1110   33.8360   53.2620 Cl  0  0  0  0  0  0  0  0  0  0  0  0
   59.8180   31.2210   52.5170 C   0  0  0  0  0  0  0  0  0  0  0  0
   59.9550   28.3930   47.5960 C   0  0  0  0  0  0  0  0  0  0  0  0
   58.9320   28.0350   46.7150 C   0  0  0  0  0  0  0  0  0  0  0  0
   55.1330   27.4370   46.0990 H   0  0  0  0  0  0  0  0  0  0  0  0
   57.6747   31.1416   46.0420 H   0  0  0  0  0  0  0  0  0  0  0  0
   59.5145   31.7850   47.5957 H   0  0  0  0  0  0  0  0  0  0  0  0
   61.8631   31.6802   47.5850 H   0  0  0  0  0  0  0  0  0  0  0  0
   61.2663   34.4402   49.9595 H   0  0  0  0  0  0  0  0  0  0  0  0
   58.8963   34.7906   49.2645 H   0  0  0  0  0  0  0  0  0  0  0  0
   58.2625   34.6311   46.8531 H   0  0  0  0  0  0  0  0  0  0  0  0
   60.0068   34.1500   45.1345 H   0  0  0  0  0  0  0  0  0  0  0  0
   62.3832   33.8168   45.8203 H   0  0  0  0  0  0  0  0  0  0  0  0
   58.7979   28.1879   52.2887 H   0  0  0  0  0  0  0  0  0  0  0  0
   60.4397   28.7512   52.8008 H   0  0  0  0  0  0  0  0  0  0  0  0
   57.9910   29.6883   50.0627 H   0  0  0  0  0  0  0  0  0  0  0  0
   57.2871   32.0517   49.6734 H   0  0  0  0  0  0  0  0  0  0  0  0
   58.2195   33.8845   51.0884 H   0  0  0  0  0  0  0  0  0  0  0  0
   60.5332   30.9897   53.3201 H   0  0  0  0  0  0  0  0  0  0  0  0
   60.6113   27.6161   48.0150 H   0  0  0  0  0  0  0  0  0  0  0  0
   58.7794   26.9777   46.4526 H   0  0  0  0  0  0  0  0  0  0  0  0
  1  2  1  0
  2  3  2  0
  2  4  2  0
  2  5  1  0
  5  6  2  0
  6  7  1  0
  7  8  2  0
  8  9  1  0
  9 10  1  0
 10 11  2  0
 11 12  1  0
 12 13  2  0
 12 14  1  0
 14 15  1  0
 15 16  2  0
 16 17  1  0
 17 18  2  0
 18 19  1  0
 19 20  2  0
 11 21  1  0
 21 22  2  0
 21 23  1  0
 23 24  2  0
 24 25  1  0
 25 26  1  0
 26 27  1  0
 27 28  2  0
 28 29  1  0
 29 30  2  0
 30 31  1  0
 31 32  1  0
 31 33  2  0
  8 34  1  0
 34 35  2  0
 35  5  1  0
 24  9  1  0
 33 27  1  0
 20 15  1  0
  1 36  1  0
  6 37  1  0
  7 38  1  0
 10 39  1  0
 16 40  1  0
 17 41  1  0
 18 42  1  0
 19 43  1  0
 20 44  1  0
 26 45  1  0
 26 46  1  0
 28 47  1  0
 29 48  1  0
 30 49  1  0
 33 50  1  0
 34 51  1  0
 35 52  1  0
M  CHG  2   1  -1  14  -1
M  END
>  <UniqueID>  (32) 
32

>  <SMILES>  (32) 
[NH-]S(=O)(=O)c1ccc(-n2cc(C(=O)[N-]c3ccccc3)c(=O)nc2SCc2cccc(Cl)c2)cc1

>  <Energy>  (32) 
65.27440506347308

>  <Genealogy>  (32) 
[NH-]S(=O)(=O)c1ccc(-n2cc(C(=O)[N-]c3ccccc3)c(=O)nc2SCc2cccc(Cl)c2)cc1 (protonated)
[NH-]S(=O)(=O)c1ccc(-n2cc(C(=O)[N-]c3ccccc3)c(=O)nc2SCc2cccc(Cl)c2)cc1 (3D coordinates assigned)
[NH-]S(=O)(=O)c1ccc(-n2cc(C(=O)[N-]c3ccccc3)c(=O)nc2SCc2cccc(Cl)c2)cc1 (optimized conformer: 65.27440506347308 kcal/mol)

>  <smiles>  (32) 
NS(=O)(=O)c1ccc(-n2cc(C(=O)Nc3ccccc3)c(=O)nc2SCc2cccc(Cl)c2)cc1

>  <score_type>  (32) 
oracle

>  <origin>  (32) 
adg

>  <m_score__min__energy>  (32) 
-12.85

>  <m_primary>  (32) 
energy

$$$$
32:0
     RDKit          3D

 49 51  0  0  0  0  0  0  0  0999 V2000
   59.2540   30.5970   47.9850 C   0  0  0  0  0  0  0  0  0  0  0  0
   58.2770   31.3740   47.3020 O   0  0  0  0  0  0  0  0  0  0  0  0
   58.5450   32.5730   46.6230 C   0  0  0  0  0  0  0  0  0  0  0  0
   59.6120   33.4180   46.9920 C   0  0  0  0  0  0  0  0  0  0  0  0
   59.8540   34.5960   46.2840 C   0  0  0  0  0  0  0  0  0  0  0  0
   59.0520   34.9360   45.1960 C   0  0  0  0  0  0  0  0  0  0  0  0
   57.9910   34.1080   44.8220 C   0  0  0  0  0  0  0  0  0  0  0  0
   57.7170   32.9370   45.5480 C   0  0  0  0  0  0  0  0  0  0  0  0
   56.6510   32.0580   45.1620 N   0  0  0  0  0  0  0  0  0  0  0  0
   56.6520   31.1470   44.0560 C   0  0  0  0  0  0  0  0  0  0  0  0
   57.4380   31.3660   43.0980 O   0  0  0  0  0  0  0  0  0  0  0  0
   55.7780   29.9180   44.0410 C   0  0  0  0  0  0  0  0  0  0  0  0
   55.9290   29.1590   45.2420 O   0  0  0  0  0  0  0  0  0  0  0  0
   56.8930   28.1690   45.5260 C   0  0  0  0  0  0  0  0  0  0  0  0
   56.4230   26.9120   45.9020 C   0  0  0  0  0  0  0  0  0  0  0  0
   55.0460   26.7130   45.9770 O   0  0  0  0  0  0  0  0  0  0  0  0
   57.2880   25.8960   46.2000 N   0  0  0  0  0  0  0  0  0  0  0  0
   56.7560   24.5680   46.5670 C   0  0  0  0  0  0  0  0  0  0  0  0
   56.7860   23.6410   45.3790 C   0  0  0  0  0  0  0  0  0  0  0  0
   57.7020   22.5750   45.3330 C   0  0  0  0  0  0  0  0  0  0  0  0
   57.7520   21.7360   44.2160 C   0  0  0  0  0  0  0  0  0  0  0  0
   56.8940   21.9550   43.1350 C   0  0  0  0  0  0  0  0  0  0  0  0
   55.9820   23.0130   43.1720 C   0  0  0  0  0  0  0  0  0  0  0  0
   55.9270   23.8550   44.2870 C   0  0  0  0  0  0  0  0  0  0  0  0
   58.6410   26.1070   46.1190 C   0  0  0  0  0  0  0  0  0  0  0  0
   59.4390   25.1730   46.4160 O   0  0  0  0  0  0  0  0  0  0  0  0
   59.1380   27.3220   45.7230 N   0  0  0  0  0  0  0  0  0  0  0  0
   60.5960   27.5330   45.6630 C   0  0  0  0  0  0  0  0  0  0  0  0
   58.2860   28.3610   45.4540 C   0  0  0  0  0  0  0  0  0  0  0  0
   58.7570   29.4880   45.1470 O   0  0  0  0  0  0  0  0  0  0  0  0
   59.1161   30.7066   49.0708 H   0  0  0  0  0  0  0  0  0  0  0  0
   59.1415   29.5389   47.7061 H   0  0  0  0  0  0  0  0  0  0  0  0
   60.2596   30.9448   47.7061 H   0  0  0  0  0  0  0  0  0  0  0  0
   60.2563   33.1474   47.8415 H   0  0  0  0  0  0  0  0  0  0  0  0
   60.6795   35.2576   46.5853 H   0  0  0  0  0  0  0  0  0  0  0  0
   59.2549   35.8577   44.6310 H   0  0  0  0  0  0  0  0  0  0  0  0
   57.3676   34.3739   43.9556 H   0  0  0  0  0  0  0  0  0  0  0  0
   54.7269   30.2270   43.9421 H   0  0  0  0  0  0  0  0  0  0  0  0
   56.0799   29.2876   43.1916 H   0  0  0  0  0  0  0  0  0  0  0  0
   57.3704   24.1423   47.3740 H   0  0  0  0  0  0  0  0  0  0  0  0
   55.7149   24.6822   46.9031 H   0  0  0  0  0  0  0  0  0  0  0  0
   58.3822   22.4006   46.1797 H   0  0  0  0  0  0  0  0  0  0  0  0
   58.4683   20.9016   44.1879 H   0  0  0  0  0  0  0  0  0  0  0  0
   56.9365   21.2952   42.2559 H   0  0  0  0  0  0  0  0  0  0  0  0
   55.3055   23.1840   42.3217 H   0  0  0  0  0  0  0  0  0  0  0  0
   55.2089   24.6879   44.3097 H   0  0  0  0  0  0  0  0  0  0  0  0
   61.0004   27.5915   46.6843 H   0  0  0  0  0  0  0  0  0  0  0  0
   61.0663   26.6936   45.1300 H   0  0  0  0  0  0  0  0  0  0  0  0
   60.8091   28.4713   45.1300 H   0  0  0  0  0  0  0  0  0  0  0  0
  1  2  1  0
  2  3  1  0
  3  4  2  0
  4  5  1  0
  5  6  2  0
  6  7  1  0
  7  8  2  0
  8  9  1  0
  9 10  1  0
 10 11  2  0
 10 12  1  0
 12 13  1  0
 13 14  1  0
 14 15  2  0
 15 16  1  0
 15 17  1  0
 17 18  1  0
 18 19  1  0
 19 20  2  0
 20 21  1  0
 21 22  2  0
 22 23  1  0
 23 24  2  0
 17 25  1  0
 25 26  2  0
 25 27  1  0
 27 28  1  0
 27 29  1  0
 29 30  2  0
  8  3  1  0
 29 14  1  0
 24 19  1  0
  1 31  1  0
  1 32  1  0
  1 33  1  0
  4 34  1  0
  5 35  1  0
  6 36  1  0
  7 37  1  0
 12 38  1  0
 12 39  1  0
 18 40  1  0
 18 41  1  0
 20 42  1  0
 21 43  1  0
 22 44  1  0
 23 45  1  0
 24 46  1  0
 28 47  1  0
 28 48  1  0
 28 49  1  0
M  CHG  2   9  -1  16  -1
M  END
>  <UniqueID>  (33) 
33

>  <SMILES>  (33) 
COc1ccccc1[N-]C(=O)COc1c([O-])n(Cc2ccccc2)c(=O)n(C)c1=O

>  <Energy>  (33) 
67.36395355025721

>  <Genealogy>  (33) 
COc1ccccc1[N-]C(=O)COc1c([O-])n(Cc2ccccc2)c(=O)n(C)c1=O (protonated)
COc1ccccc1[N-]C(=O)COc1c([O-])n(Cc2ccccc2)c(=O)n(C)c1=O (3D coordinates assigned)
COc1ccccc1[N-]C(=O)COc1c([O-])n(Cc2ccccc2)c(=O)n(C)c1=O (optimized conformer: 67.36395355025721 kcal/mol)

>  <smiles>  (33) 
COc1ccccc1NC(=O)COc1c(O)n(Cc2ccccc2)c(=O)n(C)c1=O

>  <score_type>  (33) 
oracle

>  <origin>  (33) 
adg

>  <m_score__min__energy>  (33) 
-13.470000000000001

>  <m_primary>  (33) 
energy

$$$$
33:0
     RDKit          3D

 44 46  0  0  0  0  0  0  0  0999 V2000
   57.7930   26.9940   43.1590 C   0  0  0  0  0  0  0  0  0  0  0  0
   57.7070   26.5450   44.5920 C   0  0  0  0  0  0  0  0  0  0  0  0
   57.8180   25.1750   44.8830 C   0  0  0  0  0  0  0  0  0  0  0  0
   57.6940   24.7080   46.2020 C   0  0  0  0  0  0  0  0  0  0  0  0
   57.7690   23.3130   46.5340 N   0  0  0  0  0  0  0  0  0  0  0  0
   58.5260   22.0850   45.5690 S   0  0  0  0  0  0  0  0  0  0  0  0
   57.6790   21.9300   44.0100 C   0  0  0  0  0  0  0  0  0  0  0  0
   58.5060   20.7790   46.3070 O   0  0  0  0  0  0  0  0  0  0  0  0
   59.9510   22.4790   45.3130 O   0  0  0  0  0  0  0  0  0  0  0  0
   57.4750   25.6260   47.2330 C   0  0  0  0  0  0  0  0  0  0  0  0
   57.3960   26.9940   46.9610 C   0  0  0  0  0  0  0  0  0  0  0  0
   57.5290   27.4660   45.6490 C   0  0  0  0  0  0  0  0  0  0  0  0
   57.4340   28.8780   45.4050 N   0  0  0  0  0  0  0  0  0  0  0  0
   56.3580   29.5600   44.9600 C   0  0  0  0  0  0  0  0  0  0  0  0
   55.1460   28.9710   44.6240 O   0  0  0  0  0  0  0  0  0  0  0  0
   56.6290   30.9100   44.8590 C   0  0  0  0  0  0  0  0  0  0  0  0
   57.9510   31.0510   45.2470 C   0  0  0  0  0  0  0  0  0  0  0  0
   58.6840   32.2880   45.2610 N   0  0  0  0  0  0  0  0  0  0  0  0
   59.8030   32.4680   46.1860 C   0  0  0  0  0  0  0  0  0  0  0  0
   59.8630   33.9280   46.6570 C   0  0  0  0  0  0  0  0  0  0  0  0
   59.8130   34.8240   45.5590 O   0  0  0  0  0  0  0  0  0  0  0  0
   58.5770   34.6930   44.8850 C   0  0  0  0  0  0  0  0  0  0  0  0
   58.4650   33.3110   44.2400 C   0  0  0  0  0  0  0  0  0  0  0  0
   58.4130   29.7850   45.5810 C   0  0  0  0  0  0  0  0  0  0  0  0
   59.6730   29.4600   46.0790 O   0  0  0  0  0  0  0  0  0  0  0  0
   57.9998   28.0738   43.1249 H   0  0  0  0  0  0  0  0  0  0  0  0
   58.6031   26.4493   42.6521 H   0  0  0  0  0  0  0  0  0  0  0  0
   56.8389   26.7872   42.6521 H   0  0  0  0  0  0  0  0  0  0  0  0
   58.0042   24.4597   44.0684 H   0  0  0  0  0  0  0  0  0  0  0  0
   56.6116   21.7347   44.1904 H   0  0  0  0  0  0  0  0  0  0  0  0
   57.7894   22.8633   43.4383 H   0  0  0  0  0  0  0  0  0  0  0  0
   58.1128   21.0963   43.4383 H   0  0  0  0  0  0  0  0  0  0  0  0
   57.3639   25.2683   48.2673 H   0  0  0  0  0  0  0  0  0  0  0  0
   57.2282   27.7055   47.7830 H   0  0  0  0  0  0  0  0  0  0  0  0
   55.9404   31.7055   44.5381 H   0  0  0  0  0  0  0  0  0  0  0  0
   59.6661   31.8095   47.0564 H   0  0  0  0  0  0  0  0  0  0  0  0
   60.7419   32.2149   45.6717 H   0  0  0  0  0  0  0  0  0  0  0  0
   59.0086   34.1261   47.3209 H   0  0  0  0  0  0  0  0  0  0  0  0
   60.8127   34.0831   47.1899 H   0  0  0  0  0  0  0  0  0  0  0  0
   57.7559   34.8245   45.6050 H   0  0  0  0  0  0  0  0  0  0  0  0
   58.5166   35.4596   44.0985 H   0  0  0  0  0  0  0  0  0  0  0  0
   57.4625   33.1879   43.8042 H   0  0  0  0  0  0  0  0  0  0  0  0
   59.2197   33.2101   43.4461 H   0  0  0  0  0  0  0  0  0  0  0  0
   59.9040   28.5320   46.3990 H   0  0  0  0  0  0  0  0  0  0  0  0
  1  2  1  0
  2  3  2  0
  3  4  1  0
  4  5  1  0
  5  6  1  0
  6  7  1  0
  6  8  2  0
  6  9  2  0
  4 10  2  0
 10 11  1  0
 11 12  2  0
 12 13  1  0
 13 14  1  0
 14 15  1  0
 14 16  2  0
 16 17  1  0
 17 18  1  0
 18 19  1  0
 19 20  1  0
 20 21  1  0
 21 22  1  0
 22 23  1  0
 17 24  2  0
 24 25  1  0
 12  2  1  0
 24 13  1  0
 23 18  1  0
  1 26  1  0
  1 27  1  0
  1 28  1  0
  3 29  1  0
  7 30  1  0
  7 31  1  0
  7 32  1  0
 10 33  1  0
 11 34  1  0
 16 35  1  0
 19 36  1  0
 19 37  1  0
 20 38  1  0
 20 39  1  0
 22 40  1  0
 22 41  1  0
 23 42  1  0
 23 43  1  0
 25 44  1  0
M  CHG  2   5  -1  15  -1
M  END
>  <UniqueID>  (34) 
34

>  <SMILES>  (34) 
Cc1cc([N-]S(C)(=O)=O)ccc1-n1c([O-])cc(N2CCOCC2)c1O

>  <Energy>  (34) 
85.50594606697014

>  <Genealogy>  (34) 
Cc1cc([N-]S(C)(=O)=O)ccc1-n1c([O-])cc(N2CCOCC2)c1O (protonated)
Cc1cc([N-]S(C)(=O)=O)ccc1-n1c([O-])cc(N2CCOCC2)c1O (3D coordinates assigned)
Cc1cc([N-]S(C)(=O)=O)ccc1-n1c([O-])cc(N2CCOCC2)c1O (nonaromatic ring conformer: 85.50594606697014 kcal/mol)

>  <smiles>  (34) 
Cc1cc(NS(C)(=O)=O)ccc1-n1c(O)cc(N2CCOCC2)c1O

>  <score_type>  (34) 
oracle

>  <origin>  (34) 
adg

>  <m_score__min__energy>  (34) 
-11.1

>  <m_primary>  (34) 
energy

$$$$
34:0
     RDKit          3D

 58 61  0  0  0  0  0  0  0  0999 V2000
   56.2440   23.1240   43.0940 C   0  0  0  0  0  0  0  0  0  0  0  0
   56.6740   24.1510   44.1420 C   0  0  0  0  0  0  0  0  0  0  0  0
   57.4390   23.4840   45.2930 C   0  0  0  0  0  0  0  0  0  0  0  0
   56.7260   23.8930   46.8840 S   0  0  0  0  0  0  0  0  0  0  0  0
   57.0170   22.7640   47.8310 O   0  0  0  0  0  0  0  0  0  0  0  0
   55.2330   24.0530   46.7630 O   0  0  0  0  0  0  0  0  0  0  0  0
   57.4110   25.3820   47.4610 N   0  0  0  0  0  0  0  0  0  0  0  0
   57.8950   26.4250   46.6030 C   0  0  0  0  0  0  0  0  0  0  0  0
   59.2720   26.5370   46.3790 C   0  0  0  0  0  0  0  0  0  0  0  0
   59.7740   27.5590   45.5690 C   0  0  0  0  0  0  0  0  0  0  0  0
   58.9070   28.4870   44.9860 C   0  0  0  0  0  0  0  0  0  0  0  0
   59.4250   29.4780   44.2140 F   0  0  0  0  0  0  0  0  0  0  0  0
   57.5180   28.3800   45.1840 C   0  0  0  0  0  0  0  0  0  0  0  0
   56.6000   29.3640   44.5700 C   0  0  0  0  0  0  0  0  0  0  0  0
   55.3720   29.0920   44.4840 O   0  0  0  0  0  0  0  0  0  0  0  0
   57.1050   30.6440   44.0280 C   0  0  0  0  0  0  0  0  0  0  0  0
   56.9820   31.0940   42.7120 C   0  0  0  0  0  0  0  0  0  0  0  0
   57.5570   32.3100   42.5660 N   0  0  0  0  0  0  0  0  0  0  0  0
   58.0300   32.6300   43.7780 C   0  0  0  0  0  0  0  0  0  0  0  0
   58.6990   33.7680   44.0920 N   0  0  0  0  0  0  0  0  0  0  0  0
   59.1270   33.9580   45.3730 C   0  0  0  0  0  0  0  0  0  0  0  0
   58.8880   32.9780   46.3750 C   0  0  0  0  0  0  0  0  0  0  0  0
   59.3580   33.1900   47.7660 C   0  0  0  0  0  0  0  0  0  0  0  0
   60.0410   34.3690   48.1000 C   0  0  0  0  0  0  0  0  0  0  0  0
   60.4810   34.5830   49.4060 C   0  0  0  0  0  0  0  0  0  0  0  0
   60.2450   33.6270   50.3980 C   0  0  0  0  0  0  0  0  0  0  0  0
   59.5610   32.4350   50.0900 C   0  0  0  0  0  0  0  0  0  0  0  0
   59.2960   31.4290   51.0890 N   0  0  0  0  0  0  0  0  0  0  0  0
   57.8640   31.3530   52.0680 S   0  0  0  0  0  0  0  0  0  0  0  0
   58.3030   31.0940   53.7730 C   0  0  0  0  0  0  0  0  0  0  0  0
   57.0620   32.6170   51.9160 O   0  0  0  0  0  0  0  0  0  0  0  0
   57.0240   30.1970   51.6060 O   0  0  0  0  0  0  0  0  0  0  0  0
   59.1270   32.2220   48.7660 C   0  0  0  0  0  0  0  0  0  0  0  0
   58.5140   31.0520   48.4430 F   0  0  0  0  0  0  0  0  0  0  0  0
   58.2070   31.7910   46.0190 C   0  0  0  0  0  0  0  0  0  0  0  0
   57.7790   31.6530   44.6990 C   0  0  0  0  0  0  0  0  0  0  0  0
   57.0140   27.3200   45.9640 C   0  0  0  0  0  0  0  0  0  0  0  0
   55.6740   27.0960   46.0040 F   0  0  0  0  0  0  0  0  0  0  0  0
   55.8664   22.2221   43.5979 H   0  0  0  0  0  0  0  0  0  0  0  0
   55.4497   23.5524   42.4651 H   0  0  0  0  0  0  0  0  0  0  0  0
   57.1066   22.8587   42.4651 H   0  0  0  0  0  0  0  0  0  0  0  0
   57.3243   24.8991   43.6652 H   0  0  0  0  0  0  0  0  0  0  0  0
   55.7716   24.6267   44.5536 H   0  0  0  0  0  0  0  0  0  0  0  0
   57.4071   22.3928   45.1576 H   0  0  0  0  0  0  0  0  0  0  0  0
   58.4754   23.8523   45.2759 H   0  0  0  0  0  0  0  0  0  0  0  0
   59.9624   25.8171   46.8428 H   0  0  0  0  0  0  0  0  0  0  0  0
   60.8567   27.6334   45.3894 H   0  0  0  0  0  0  0  0  0  0  0  0
   56.4855   30.5362   41.9043 H   0  0  0  0  0  0  0  0  0  0  0  0
   57.6140   32.8780   41.6940 H   0  0  0  0  0  0  0  0  0  0  0  0
   59.6642   34.8816   45.6344 H   0  0  0  0  0  0  0  0  0  0  0  0
   60.2305   35.1289   47.3275 H   0  0  0  0  0  0  0  0  0  0  0  0
   61.0172   35.5101   49.6570 H   0  0  0  0  0  0  0  0  0  0  0  0
   60.5955   33.8067   51.4251 H   0  0  0  0  0  0  0  0  0  0  0  0
   59.9990   30.6730   51.2530 H   0  0  0  0  0  0  0  0  0  0  0  0
   57.5377   31.5455   54.4213 H   0  0  0  0  0  0  0  0  0  0  0  0
   58.3650   30.0146   53.9758 H   0  0  0  0  0  0  0  0  0  0  0  0
   59.2777   31.5617   53.9758 H   0  0  0  0  0  0  0  0  0  0  0  0
   58.0205   31.0004   46.7608 H   0  0  0  0  0  0  0  0  0  0  0  0
  1  2  1  0
  2  3  1  0
  3  4  1  0
  4  5  2  0
  4  6  2  0
  4  7  1  0
  7  8  1  0
  8  9  2  0
  9 10  1  0
 10 11  2  0
 11 12  1  0
 11 13  1  0
 13 14  1  0
 14 15  2  0
 14 16  1  0
 16 17  2  0
 17 18  1  0
 18 19  1  0
 19 20  2  0
 20 21  1  0
 21 22  2  0
 22 23  1  0
 23 24  2  0
 24 25  1  0
 25 26  2  0
 26 27  1  0
 27 28  1  0
 28 29  1  0
 29 30  1  0
 29 31  2  0
 29 32  2  0
 27 33  2  0
 33 34  1  0
 22 35  1  0
 35 36  2  0
 13 37  2  0
 37 38  1  0
 37  8  1  0
 36 16  1  0
 36 19  1  0
 33 23  1  0
  1 39  1  0
  1 40  1  0
  1 41  1  0
  2 42  1  0
  2 43  1  0
  3 44  1  0
  3 45  1  0
  9 46  1  0
 10 47  1  0
 17 48  1  0
 18 49  1  0
 21 50  1  0
 24 51  1  0
 25 52  1  0
 26 53  1  0
 28 54  1  0
 30 55  1  0
 30 56  1  0
 30 57  1  0
 35 58  1  0
M  CHG  1   7  -1
M  END
>  <UniqueID>  (35) 
35

>  <SMILES>  (35) 
CCCS(=O)(=O)[N-]c1ccc(F)c(C(=O)c2c[nH]c3ncc(-c4cccc(NS(C)(=O)=O)c4F)cc23)c1F

>  <Energy>  (35) 
110.06287021659074

>  <Genealogy>  (35) 
CCCS(=O)(=O)[N-]c1ccc(F)c(C(=O)c2c[nH]c3ncc(-c4cccc(NS(C)(=O)=O)c4F)cc23)c1F (protonated)
CCCS(=O)(=O)[N-]c1ccc(F)c(C(=O)c2c[nH]c3ncc(-c4cccc(NS(C)(=O)=O)c4F)cc23)c1F (3D coordinates assigned)
CCCS(=O)(=O)[N-]c1ccc(F)c(C(=O)c2c[nH]c3ncc(-c4cccc(NS(C)(=O)=O)c4F)cc23)c1F (optimized conformer: 110.06287021659074 kcal/mol)

>  <smiles>  (35) 
CCCS(=O)(=O)Nc1ccc(F)c(C(=O)c2c[nH]c3ncc(-c4cccc(NS(C)(=O)=O)c4F)cc23)c1F

>  <score_type>  (35) 
oracle

>  <origin>  (35) 
adg

>  <m_score__min__energy>  (35) 
-12.68

>  <m_primary>  (35) 
energy

$$$$
35:0
     RDKit          3D

 36 37  0  0  0  0  0  0  0  0999 V2000
   55.4100   26.4180   46.0190 N   0  0  0  0  0  0  0  0  0  0  0  0
   56.7130   26.9760   46.1630 C   0  0  0  0  0  0  0  0  0  0  0  0
   57.2810   26.9670   47.2880 O   0  0  0  0  0  0  0  0  0  0  0  0
   57.3930   27.6010   44.9880 C   0  0  0  0  0  0  0  0  0  0  0  0
   57.2690   29.1070   45.0390 C   0  0  0  0  0  0  0  0  0  0  0  0
   56.0420   29.7300   44.7810 C   0  0  0  0  0  0  0  0  0  0  0  0
   54.9190   28.9830   44.4440 O   0  0  0  0  0  0  0  0  0  0  0  0
   55.9380   31.0760   44.8680 N   0  0  0  0  0  0  0  0  0  0  0  0
   57.0020   31.8550   45.1860 C   0  0  0  0  0  0  0  0  0  0  0  0
   56.8320   33.0990   45.2890 O   0  0  0  0  0  0  0  0  0  0  0  0
   58.2370   31.2930   45.3960 N   0  0  0  0  0  0  0  0  0  0  0  0
   59.3890   32.1530   45.7470 C   0  0  0  0  0  0  0  0  0  0  0  0
   59.3390   33.5320   45.0620 C   0  0  0  0  0  0  0  0  0  0  0  0
   59.9540   34.6720   45.8930 C   0  0  0  0  0  0  0  0  0  0  0  0
   60.8890   34.1860   46.9760 C   0  0  0  0  0  0  0  0  0  0  0  0
   62.2060   33.7980   46.6660 C   0  0  0  0  0  0  0  0  0  0  0  0
   63.0690   33.3580   47.6740 C   0  0  0  0  0  0  0  0  0  0  0  0
   62.6360   33.3260   49.0020 C   0  0  0  0  0  0  0  0  0  0  0  0
   61.3450   33.7450   49.3250 C   0  0  0  0  0  0  0  0  0  0  0  0
   60.4740   34.1770   48.3190 C   0  0  0  0  0  0  0  0  0  0  0  0
   58.3780   29.9250   45.3250 C   0  0  0  0  0  0  0  0  0  0  0  0
   59.5060   29.3910   45.5130 O   0  0  0  0  0  0  0  0  0  0  0  0
   54.7810   26.7210   45.2430 H   0  0  0  0  0  0  0  0  0  0  0  0
   58.4579   27.3256   44.9983 H   0  0  0  0  0  0  0  0  0  0  0  0
   56.9142   27.2372   44.0669 H   0  0  0  0  0  0  0  0  0  0  0  0
   59.3960   32.3026   46.8368 H   0  0  0  0  0  0  0  0  0  0  0  0
   60.2993   31.6439   45.3975 H   0  0  0  0  0  0  0  0  0  0  0  0
   59.8867   33.4645   44.1104 H   0  0  0  0  0  0  0  0  0  0  0  0
   58.2758   33.7786   44.9253 H   0  0  0  0  0  0  0  0  0  0  0  0
   60.5165   35.3326   45.2168 H   0  0  0  0  0  0  0  0  0  0  0  0
   59.1246   35.1964   46.3902 H   0  0  0  0  0  0  0  0  0  0  0  0
   62.5582   33.8412   45.6248 H   0  0  0  0  0  0  0  0  0  0  0  0
   64.0902   33.0366   47.4213 H   0  0  0  0  0  0  0  0  0  0  0  0
   63.3129   32.9705   49.7928 H   0  0  0  0  0  0  0  0  0  0  0  0
   61.0112   33.7357   50.3731 H   0  0  0  0  0  0  0  0  0  0  0  0
   59.4592   34.5113   48.5803 H   0  0  0  0  0  0  0  0  0  0  0  0
  1  2  1  0
  2  3  2  0
  2  4  1  0
  4  5  1  0
  5  6  2  0
  6  7  1  0
  6  8  1  0
  8  9  1  0
  9 10  2  0
  9 11  1  0
 11 12  1  0
 12 13  1  0
 13 14  1  0
 14 15  1  0
 15 16  2  0
 16 17  1  0
 17 18  2  0
 18 19  1  0
 19 20  2  0
 11 21  1  0
 21 22  2  0
 21  5  1  0
 20 15  1  0
  1 23  1  0
  4 24  1  0
  4 25  1  0
 12 26  1  0
 12 27  1  0
 13 28  1  0
 13 29  1  0
 14 30  1  0
 14 31  1  0
 16 32  1  0
 17 33  1  0
 18 34  1  0
 19 35  1  0
 20 36  1  0
M  CHG  3   1  -1   7  -1   8  -1
M  END
>  <UniqueID>  (36) 
36

>  <SMILES>  (36) 
[NH-]C(=O)Cc1c([O-])[n-]c(=O)n(CCCc2ccccc2)c1=O

>  <Energy>  (36) 
34.932360329011274

>  <Genealogy>  (36) 
[NH-]C(=O)Cc1c([O-])[n-]c(=O)n(CCCc2ccccc2)c1=O (protonated)
[NH-]C(=O)Cc1c([O-])[n-]c(=O)n(CCCc2ccccc2)c1=O (3D coordinates assigned)
[NH-]C(=O)Cc1c([O-])[n-]c(=O)n(CCCc2ccccc2)c1=O (optimized conformer: 34.932360329011274 kcal/mol)

>  <smiles>  (36) 
NC(=O)Cc1c(O)[nH]c(=O)n(CCCc2ccccc2)c1=O

>  <score_type>  (36) 
oracle

>  <origin>  (36) 
adg

>  <m_score__min__energy>  (36) 
-14.99

>  <m_primary>  (36) 
energy

$$$$
36:0
     RDKit          3D

 72 76  0  0  0  0  0  0  0  0999 V2000
   58.7210   22.4540   45.1790 C   0  0  0  0  0  0  0  0  0  0  0  0
   57.4930   22.9860   45.3180 C   0  0  0  0  0  0  0  0  0  0  0  0
   56.4610   22.1070   45.3420 N   0  0  0  0  0  0  0  0  0  0  0  0
   55.1720   22.4890   45.4600 C   0  0  0  0  0  0  0  0  0  0  0  0
   54.2700   21.6050   45.4610 O   0  0  0  0  0  0  0  0  0  0  0  0
   54.8590   23.8100   45.5920 N   0  0  0  0  0  0  0  0  0  0  0  0
   53.4520   24.2030   45.7870 C   0  0  0  0  0  0  0  0  0  0  0  0
   55.8570   24.7520   45.6370 C   0  0  0  0  0  0  0  0  0  0  0  0
   55.5620   25.9450   45.9370 O   0  0  0  0  0  0  0  0  0  0  0  0
   57.2180   24.3880   45.4070 C   0  0  0  0  0  0  0  0  0  0  0  0
   58.2070   25.3250   45.3010 C   0  0  0  0  0  0  0  0  0  0  0  0
   58.2220   26.6440   45.9660 C   0  0  0  0  0  0  0  0  0  0  0  0
   58.7040   26.9310   47.2410 C   0  0  0  0  0  0  0  0  0  0  0  0
   59.1770   25.9890   48.1540 O   0  0  0  0  0  0  0  0  0  0  0  0
   58.6650   28.2560   47.5170 N   0  0  0  0  0  0  0  0  0  0  0  0
   58.1730   28.8130   46.3920 C   0  0  0  0  0  0  0  0  0  0  0  0
   57.9280   30.1680   46.1760 C   0  0  0  0  0  0  0  0  0  0  0  0
   57.3560   30.5620   44.9480 C   0  0  0  0  0  0  0  0  0  0  0  0
   57.0220   31.9150   44.7800 O   0  0  0  0  0  0  0  0  0  0  0  0
   57.7980   32.9730   45.2650 C   0  0  0  0  0  0  0  0  0  0  0  0
   58.4890   33.7800   44.3540 C   0  0  0  0  0  0  0  0  0  0  0  0
   59.3300   34.7970   44.8160 C   0  0  0  0  0  0  0  0  0  0  0  0
   59.4910   35.0040   46.1880 C   0  0  0  0  0  0  0  0  0  0  0  0
   58.7940   34.2040   47.1080 C   0  0  0  0  0  0  0  0  0  0  0  0
   59.0040   34.3470   48.5190 N   0  0  0  0  0  0  0  0  0  0  0  0
   60.0170   33.6670   49.2710 C   0  0  0  0  0  0  0  0  0  0  0  0
   60.4060   34.1630   50.3620 O   0  0  0  0  0  0  0  0  0  0  0  0
   60.5700   32.3370   48.8330 C   0  0  0  0  0  0  0  0  0  0  0  0
   61.4830   32.5330   47.6800 N   0  0  0  0  0  0  0  0  0  0  0  0
   62.4690   31.4370   47.5330 C   0  0  0  0  0  0  0  0  0  0  0  0
   63.7660   31.6810   48.3400 C   0  0  0  0  0  0  0  0  0  0  0  0
   63.5250   32.6700   49.4110 N   0  0  0  0  0  0  0  0  0  0  0  0
   64.6060   32.7760   50.4280 C   0  0  0  0  0  0  0  0  0  0  0  0
   65.9780   32.7450   49.7480 C   0  0  0  0  0  0  0  0  0  0  0  0
   64.4790   33.9980   51.3580 C   0  0  0  0  0  0  0  0  0  0  0  0
   63.1690   33.9880   48.8420 C   0  0  0  0  0  0  0  0  0  0  0  0
   62.1460   33.8540   47.6880 C   0  0  0  0  0  0  0  0  0  0  0  0
   57.9020   33.2320   46.6410 C   0  0  0  0  0  0  0  0  0  0  0  0
   57.1040   29.5810   43.9450 C   0  0  0  0  0  0  0  0  0  0  0  0
   57.4060   28.2300   44.1750 C   0  0  0  0  0  0  0  0  0  0  0  0
   57.9040   27.8730   45.4280 C   0  0  0  0  0  0  0  0  0  0  0  0
   59.6043   23.1090   45.1516 H   0  0  0  0  0  0  0  0  0  0  0  0
   58.8417   21.3640   45.0927 H   0  0  0  0  0  0  0  0  0  0  0  0
   53.2341   24.2639   46.8635 H   0  0  0  0  0  0  0  0  0  0  0  0
   53.2775   25.1843   45.3215 H   0  0  0  0  0  0  0  0  0  0  0  0
   52.7943   23.4542   45.3215 H   0  0  0  0  0  0  0  0  0  0  0  0
   59.0683   25.0749   44.6641 H   0  0  0  0  0  0  0  0  0  0  0  0
   59.7220   26.2700   48.9590 H   0  0  0  0  0  0  0  0  0  0  0  0
   58.1752   30.9137   46.9460 H   0  0  0  0  0  0  0  0  0  0  0  0
   58.3703   33.6140   43.2731 H   0  0  0  0  0  0  0  0  0  0  0  0
   59.8657   35.4351   44.0978 H   0  0  0  0  0  0  0  0  0  0  0  0
   60.1650   35.7951   46.5485 H   0  0  0  0  0  0  0  0  0  0  0  0
   61.1245   31.8790   49.6653 H   0  0  0  0  0  0  0  0  0  0  0  0
   59.7418   31.6772   48.5351 H   0  0  0  0  0  0  0  0  0  0  0  0
   62.0085   30.5015   47.8833 H   0  0  0  0  0  0  0  0  0  0  0  0
   62.7470   31.3838   46.4700 H   0  0  0  0  0  0  0  0  0  0  0  0
   64.0977   30.7332   48.7892 H   0  0  0  0  0  0  0  0  0  0  0  0
   64.5413   32.0686   47.6628 H   0  0  0  0  0  0  0  0  0  0  0  0
   64.4974   31.8989   51.0830 H   0  0  0  0  0  0  0  0  0  0  0  0
   66.7668   32.7272   50.5145 H   0  0  0  0  0  0  0  0  0  0  0  0
   66.0560   31.8449   49.1206 H   0  0  0  0  0  0  0  0  0  0  0  0
   66.0966   33.6407   49.1206 H   0  0  0  0  0  0  0  0  0  0  0  0
   64.5135   33.6662   52.4062 H   0  0  0  0  0  0  0  0  0  0  0  0
   65.3098   34.6929   51.1659 H   0  0  0  0  0  0  0  0  0  0  0  0
   63.5231   34.5072   51.1659 H   0  0  0  0  0  0  0  0  0  0  0  0
   62.7324   34.6129   49.6351 H   0  0  0  0  0  0  0  0  0  0  0  0
   64.0839   34.4467   48.4387 H   0  0  0  0  0  0  0  0  0  0  0  0
   61.3793   34.6345   47.8019 H   0  0  0  0  0  0  0  0  0  0  0  0
   62.6913   33.9639   46.7390 H   0  0  0  0  0  0  0  0  0  0  0  0
   57.2809   32.6696   47.3537 H   0  0  0  0  0  0  0  0  0  0  0  0
   56.6688   29.8858   42.9818 H   0  0  0  0  0  0  0  0  0  0  0  0
   57.2544   27.4745   43.3900 H   0  0  0  0  0  0  0  0  0  0  0  0
  1  2  2  0
  2  3  1  0
  3  4  1  0
  4  5  2  0
  4  6  1  0
  6  7  1  0
  6  8  1  0
  8  9  2  0
  8 10  1  0
 10 11  2  3
 11 12  1  0
 12 13  2  0
 13 14  1  0
 13 15  1  0
 15 16  1  0
 16 17  2  0
 17 18  1  0
 18 19  1  0
 19 20  1  0
 20 21  2  0
 21 22  1  0
 22 23  2  0
 23 24  1  0
 24 25  1  0
 25 26  1  0
 26 27  2  0
 26 28  1  0
 28 29  1  0
 29 30  1  0
 30 31  1  0
 31 32  1  0
 32 33  1  0
 33 34  1  0
 33 35  1  0
 32 36  1  0
 36 37  1  0
 24 38  2  0
 18 39  2  0
 39 40  1  0
 40 41  2  0
 10  2  1  0
 41 12  1  0
 41 16  1  0
 38 20  1  0
 37 29  1  0
  1 42  1  0
  1 43  1  0
  7 44  1  0
  7 45  1  0
  7 46  1  0
 11 47  1  0
 14 48  1  0
 17 49  1  0
 21 50  1  0
 22 51  1  0
 23 52  1  0
 28 53  1  0
 28 54  1  0
 30 55  1  0
 30 56  1  0
 31 57  1  0
 31 58  1  0
 33 59  1  0
 34 60  1  0
 34 61  1  0
 34 62  1  0
 35 63  1  0
 35 64  1  0
 35 65  1  0
 36 66  1  0
 36 67  1  0
 37 68  1  0
 37 69  1  0
 38 70  1  0
 39 71  1  0
 40 72  1  0
M  CHG  3   3  -1  15  -1  25  -1
M  END
>  <UniqueID>  (37) 
37

>  <SMILES>  (37) 
C=c1[n-]c(=O)n(C)c(=O)c1=Cc1c(O)[n-]c2cc(Oc3cccc([N-]C(=O)CN4CCN(C(C)C)CC4)c3)ccc12

>  <Energy>  (37) 
162.32982004706363

>  <Genealogy>  (37) 
C=c1[n-]c(=O)n(C)c(=O)c1=Cc1c(O)[n-]c2cc(Oc3cccc([N-]C(=O)CN4CCN(C(C)C)CC4)c3)ccc12 (protonated)
C=c1[n-]c(=O)n(C)c(=O)c1=Cc1c(O)[n-]c2cc(Oc3cccc([N-]C(=O)CN4CCN(C(C)C)CC4)c3)ccc12 (3D coordinates assigned)
C=c1[n-]c(=O)n(C)c(=O)c1=Cc1c(O)[n-]c2cc(Oc3cccc([N-]C(=O)CN4CCN(C(C)C)CC4)c3)ccc12 (nonaromatic ring conformer: 162.32982004706363 kcal/mol)

>  <smiles>  (37) 
C=c1[nH]c(=O)n(C)c(=O)c1=Cc1c(O)[nH]c2cc(Oc3cccc(NC(=O)CN4CCN(C(C)C)CC4)c3)ccc12

>  <score_type>  (37) 
oracle

>  <origin>  (37) 
adg

>  <m_score__min__energy>  (37) 
-13.75

>  <m_primary>  (37) 
energy

$$$$
37:0
     RDKit          3D

 34 36  0  0  0  0  0  0  0  0999 V2000
   57.2540   31.8870   45.6590 H   0  0  0  0  0  0  0  0  0  0  0  0
   56.6820   32.5850   45.2480 O   0  0  0  0  0  0  0  0  0  0  0  0
   57.2710   33.8210   45.5480 C   0  0  0  0  0  0  0  0  0  0  0  0
   56.4859   34.5291   45.8518 H   0  0  0  0  0  0  0  0  0  0  0  0
   57.7943   34.1860   44.6519 H   0  0  0  0  0  0  0  0  0  0  0  0
   58.2890   33.6840   46.6850 C   0  0  2  0  0  0  0  0  0  0  0  0
   58.2030   34.5451   47.3641 H   0  0  0  0  0  0  0  0  0  0  0  0
   59.5980   33.6750   46.1570 O   0  0  0  0  0  0  0  0  0  0  0  0
   60.1360   32.4400   46.5070 C   0  0  0  0  0  0  0  0  0  0  0  0
   61.1677   32.5614   46.8688 H   0  0  0  0  0  0  0  0  0  0  0  0
   60.1703   31.7572   45.6453 H   0  0  0  0  0  0  0  0  0  0  0  0
   59.2590   31.9000   47.6020 C   0  0  2  0  0  0  0  0  0  0  0  0
   59.6810   32.1109   48.5957 H   0  0  0  0  0  0  0  0  0  0  0  0
   59.1410   30.4400   47.5220 N   0  0  0  0  0  0  0  0  0  0  0  0
   59.8580   29.5310   48.2330 C   0  0  0  0  0  0  0  0  0  0  0  0
   60.6320   29.8109   48.9628 H   0  0  0  0  0  0  0  0  0  0  0  0
   59.5260   28.2400   47.9550 N   0  0  0  0  0  0  0  0  0  0  0  0
   58.5590   28.3780   47.0290 C   0  0  0  0  0  0  0  0  0  0  0  0
   57.8200   27.4010   46.3770 C   0  0  0  0  0  0  0  0  0  0  0  0
   58.0140   26.1780   46.6030 O   0  0  0  0  0  0  0  0  0  0  0  0
   56.8680   27.8080   45.4820 N   0  0  0  0  0  0  0  0  0  0  0  0
   56.2990   27.0880   44.9800 H   0  0  0  0  0  0  0  0  0  0  0  0
   56.6460   29.1440   45.2350 C   0  0  0  0  0  0  0  0  0  0  0  0
   55.7280   29.4920   44.3810 N   0  0  0  0  0  0  0  0  0  0  0  0
   55.9500   29.7240   42.9540 C   0  0  0  0  0  0  0  0  0  0  0  0
   55.0034   30.0365   42.4889 H   0  0  0  0  0  0  0  0  0  0  0  0
   56.3130   28.7904   42.4995 H   0  0  0  0  0  0  0  0  0  0  0  0
   56.9980   30.8120   42.7330 C   0  0  0  0  0  0  0  0  0  0  0  0
   57.3538   31.1814   43.7061 H   0  0  0  0  0  0  0  0  0  0  0  0
   57.8445   30.3962   42.1668 H   0  0  0  0  0  0  0  0  0  0  0  0
   56.5508   31.6423   42.1668 H   0  0  0  0  0  0  0  0  0  0  0  0
   57.3890   30.0930   45.8870 N   0  0  0  0  0  0  0  0  0  0  0  0
   58.3300   29.6830   46.7690 C   0  0  0  0  0  0  0  0  0  0  0  0
   58.0230   32.5180   47.4310 O   0  0  0  0  0  0  0  0  0  0  0  0
  1  2  1  0
  2  3  1  0
  3  4  1  0
  3  5  1  0
  3  6  1  0
  6  7  1  1
  6  8  1  0
  8  9  1  0
  9 10  1  0
  9 11  1  0
  9 12  1  0
 12 13  1  1
 12 14  1  0
 14 15  1  0
 15 16  1  0
 15 17  2  0
 17 18  1  0
 18 19  1  0
 19 20  2  0
 19 21  1  0
 21 22  1  0
 21 23  1  0
 23 24  2  0
 24 25  1  0
 25 26  1  0
 25 27  1  0
 25 28  1  0
 28 29  1  0
 28 30  1  0
 28 31  1  0
 23 32  1  0
 32 33  1  0
 12 34  1  0
 34  6  1  0
 33 14  1  0
 33 18  2  0
M  CHG  1  32  -1
M  END
>  <UniqueID>  (38) 
38

>  <SMILES>  (38) 
CC/N=c1\[n-]c2c(ncn2[C@H]2CO[C@@H](CO)O2)c(=O)[nH]1

>  <Energy>  (38) 
67.0967085396925

>  <Genealogy>  (38) 
CCN=c1[n-]c2c(ncn2C2COC(CO)O2)c(=O)[nH]1 (protonated)
CCN=c1[n-]c2c(ncn2[C@H]2CO[C@@H](CO)O2)c(=O)[nH]1 (chirality)
CC/N=c1\[n-]c2c(ncn2[C@H]2CO[C@@H](CO)O2)c(=O)[nH]1 (cis-trans isomerization)
CC/N=c1\[n-]c2c(ncn2[C@H]2CO[C@@H](CO)O2)c(=O)[nH]1 (3D coordinates assigned)
CC/N=c1\[n-]c2c(ncn2[C@H]2CO[C@@H](CO)O2)c(=O)[nH]1 (nonaromatic ring conformer: 67.0967085396925 kcal/mol)

>  <smiles>  (38) 
CCN=c1[nH]c(=O)c2ncn(C3COC(CO)O3)c2[nH]1

>  <score_type>  (38) 
oracle

>  <origin>  (38) 
adg

>  <m_score__min__energy>  (38) 
-7.4699999999999998

>  <m_primary>  (38) 
energy

$$$$
38:0
     RDKit          3D

 40 41  0  0  0  0  0  0  0  0999 V2000
   57.9560   33.7810   44.6700 O   0  0  0  0  0  0  0  0  0  0  0  0
   58.1910   32.5440   44.6050 C   0  0  0  0  0  0  0  0  0  0  0  0
   57.6470   31.7860   43.4610 C   0  0  0  0  0  0  0  0  0  0  0  0
   56.8930   30.6870   43.6070 C   0  0  0  0  0  0  0  0  0  0  0  0
   57.3910   29.4380   44.2380 C   0  0  0  0  0  0  0  0  0  0  0  0
   58.7470   29.0620   44.1610 C   0  0  0  0  0  0  0  0  0  0  0  0
   59.1960   27.8900   44.7760 C   0  0  0  0  0  0  0  0  0  0  0  0
   58.3020   27.0810   45.4830 C   0  0  0  0  0  0  0  0  0  0  0  0
   58.8810   25.5810   46.2760 S   0  0  0  0  0  0  0  0  0  0  0  0
   60.5650   26.2300   46.5500 C   0  0  0  0  0  0  0  0  0  0  0  0
   60.6420   26.9920   47.8700 C   0  0  0  0  0  0  0  0  0  0  0  0
   59.3680   27.1160   48.4430 O   0  0  0  0  0  0  0  0  0  0  0  0
   56.9580   27.4530   45.5840 C   0  0  0  0  0  0  0  0  0  0  0  0
   56.5010   28.6240   44.9690 C   0  0  0  0  0  0  0  0  0  0  0  0
   55.1560   28.9650   45.0840 O   0  0  0  0  0  0  0  0  0  0  0  0
   59.0150   31.9190   45.6030 N   0  0  0  0  0  0  0  0  0  0  0  0
   59.2960   32.5330   46.8720 C   0  0  0  0  0  0  0  0  0  0  0  0
   59.5160   33.9210   46.9320 C   0  0  0  0  0  0  0  0  0  0  0  0
   59.6940   34.5610   48.1590 C   0  0  0  0  0  0  0  0  0  0  0  0
   59.6420   33.8270   49.3430 C   0  0  0  0  0  0  0  0  0  0  0  0
   59.4230   32.4490   49.3030 C   0  0  0  0  0  0  0  0  0  0  0  0
   59.2570   31.7810   48.0750 C   0  0  0  0  0  0  0  0  0  0  0  0
   59.0940   30.3070   48.0800 C   0  0  0  0  0  0  0  0  0  0  0  0
   59.4170   29.6300   47.0680 O   0  0  0  0  0  0  0  0  0  0  0  0
   58.5420   29.6540   49.1750 O   0  0  0  0  0  0  0  0  0  0  0  0
   57.8702   32.1386   42.4432 H   0  0  0  0  0  0  0  0  0  0  0  0
   55.8556   30.7115   43.2419 H   0  0  0  0  0  0  0  0  0  0  0  0
   59.4583   29.6965   43.6120 H   0  0  0  0  0  0  0  0  0  0  0  0
   60.2556   27.6036   44.7034 H   0  0  0  0  0  0  0  0  0  0  0  0
   61.2756   25.3907   46.5757 H   0  0  0  0  0  0  0  0  0  0  0  0
   60.8163   26.9182   45.7295 H   0  0  0  0  0  0  0  0  0  0  0  0
   61.2992   26.4475   48.5640 H   0  0  0  0  0  0  0  0  0  0  0  0
   61.0433   27.9977   47.6762 H   0  0  0  0  0  0  0  0  0  0  0  0
   58.9820   27.9670   48.1070 H   0  0  0  0  0  0  0  0  0  0  0  0
   56.2565   26.8222   46.1496 H   0  0  0  0  0  0  0  0  0  0  0  0
   59.4720   31.0060   45.3840 H   0  0  0  0  0  0  0  0  0  0  0  0
   59.5480   34.5078   46.0022 H   0  0  0  0  0  0  0  0  0  0  0  0
   59.8755   35.6454   48.1921 H   0  0  0  0  0  0  0  0  0  0  0  0
   59.7737   34.3344   50.3101 H   0  0  0  0  0  0  0  0  0  0  0  0
   59.3796   31.8782   50.2423 H   0  0  0  0  0  0  0  0  0  0  0  0
  1  2  2  0
  2  3  1  0
  3  4  2  3
  4  5  1  0
  5  6  2  0
  6  7  1  0
  7  8  2  0
  8  9  1  0
  9 10  1  0
 10 11  1  0
 11 12  1  0
  8 13  1  0
 13 14  2  0
 14 15  1  0
  2 16  1  0
 16 17  1  0
 17 18  2  0
 18 19  1  0
 19 20  2  0
 20 21  1  0
 21 22  2  0
 22 23  1  0
 23 24  2  0
 23 25  1  0
 14  5  1  0
 22 17  1  0
  3 26  1  0
  4 27  1  0
  6 28  1  0
  7 29  1  0
 10 30  1  0
 10 31  1  0
 11 32  1  0
 11 33  1  0
 12 34  1  0
 13 35  1  0
 16 36  1  0
 18 37  1  0
 19 38  1  0
 20 39  1  0
 21 40  1  0
M  CHG  2  15  -1  25  -1
M  END
>  <UniqueID>  (39) 
39

>  <SMILES>  (39) 
O=C(C=Cc1ccc(SCCO)cc1[O-])Nc1ccccc1C(=O)[O-]

>  <Energy>  (39) 
46.01698826927535

>  <Genealogy>  (39) 
O=C(C=Cc1ccc(SCCO)cc1[O-])Nc1ccccc1C(=O)[O-] (protonated)
O=C(C=Cc1ccc(SCCO)cc1[O-])Nc1ccccc1C(=O)[O-] (3D coordinates assigned)
O=C(C=Cc1ccc(SCCO)cc1[O-])Nc1ccccc1C(=O)[O-] (optimized conformer: 46.01698826927535 kcal/mol)

>  <smiles>  (39) 
O=C(C=Cc1ccc(SCCO)cc1O)Nc1ccccc1C(=O)O

>  <score_type>  (39) 
oracle

>  <origin>  (39) 
adg

>  <m_score__min__energy>  (39) 
-13.039999999999999

>  <m_primary>  (39) 
energy

$$$$
39:0
     RDKit          3D

 70 74  0  0  0  0  0  0  0  0999 V2000
   64.2630   32.3150   49.0650 C   0  0  0  0  0  0  0  0  0  0  0  0
   62.8660   32.4800   48.5460 C   0  0  0  0  0  0  0  0  0  0  0  0
   62.0640   33.5390   49.0000 C   0  0  0  0  0  0  0  0  0  0  0  0
   60.7740   33.7140   48.4910 C   0  0  0  0  0  0  0  0  0  0  0  0
   60.2790   32.8440   47.5090 C   0  0  0  0  0  0  0  0  0  0  0  0
   58.6400   33.0370   46.8950 S   0  0  0  0  0  0  0  0  0  0  0  0
   58.0450   34.3010   47.4480 O   0  0  0  0  0  0  0  0  0  0  0  0
   57.7790   31.8890   47.3460 O   0  0  0  0  0  0  0  0  0  0  0  0
   58.6960   33.0930   45.1520 N   0  0  0  0  0  0  0  0  0  0  0  0
   59.3210   34.2510   44.5040 C   0  0  0  0  0  0  0  0  0  0  0  0
   59.2440   35.3620   45.3520 O   0  0  0  0  0  0  0  0  0  0  0  0
   58.1940   31.9630   44.3960 C   0  0  0  0  0  0  0  0  0  0  0  0
   58.4000   31.9260   43.1500 O   0  0  0  0  0  0  0  0  0  0  0  0
   57.5380   30.8360   45.0460 N   0  0  1  0  0  0  0  0  0  0  0  0
   56.4860   30.2480   44.1730 C   0  0  0  0  0  0  0  0  0  0  0  0
   57.0130   29.2690   43.1210 C   0  0  0  0  0  0  0  0  0  0  0  0
   57.9150   28.3100   43.7460 N   0  0  0  0  0  0  0  0  0  0  0  0
   57.7890   26.9050   43.4500 C   0  0  0  0  0  0  0  0  0  0  0  0
   58.0080   26.5070   42.2730 O   0  0  0  0  0  0  0  0  0  0  0  0
   57.4160   25.9110   44.4870 C   0  0  0  0  0  0  0  0  0  0  0  0
   57.3770   24.5350   44.1920 C   0  0  0  0  0  0  0  0  0  0  0  0
   57.0290   23.6090   45.1820 C   0  0  0  0  0  0  0  0  0  0  0  0
   56.6930   24.0470   46.4650 C   0  0  0  0  0  0  0  0  0  0  0  0
   56.6980   25.4120   46.7600 C   0  0  0  0  0  0  0  0  0  0  0  0
   57.0480   26.3410   45.7740 C   0  0  0  0  0  0  0  0  0  0  0  0
   59.0380   28.8480   44.5110 C   0  0  0  0  0  0  0  0  0  0  0  0
   58.5590   29.8710   45.5660 C   0  0  2  0  0  0  0  0  0  0  0  0
   58.1700   29.2260   46.9260 C   0  0  0  0  0  0  0  0  0  0  0  0
   59.3150   28.7340   47.7660 C   0  0  0  0  0  0  0  0  0  0  0  0
   60.0100   27.5390   47.5930 C   0  0  0  0  0  0  0  0  0  0  0  0
   60.9130   27.3690   48.5830 N   0  0  0  0  0  0  0  0  0  0  0  0
   60.7750   28.4290   49.3990 C   0  0  0  0  0  0  0  0  0  0  0  0
   61.4560   28.6670   50.5930 C   0  0  0  0  0  0  0  0  0  0  0  0
   61.1030   29.8100   51.3330 C   0  0  0  0  0  0  0  0  0  0  0  0
   60.0840   30.6740   50.8740 C   0  0  0  0  0  0  0  0  0  0  0  0
   59.4170   30.4110   49.6650 C   0  0  0  0  0  0  0  0  0  0  0  0
   59.8000   29.2790   48.9410 C   0  0  0  0  0  0  0  0  0  0  0  0
   61.0830   31.7960   47.0430 C   0  0  0  0  0  0  0  0  0  0  0  0
   62.3740   31.6210   47.5510 C   0  0  0  0  0  0  0  0  0  0  0  0
   64.2481   32.3168   50.1649 H   0  0  0  0  0  0  0  0  0  0  0  0
   64.6775   31.3617   48.7054 H   0  0  0  0  0  0  0  0  0  0  0  0
   64.8882   33.1455   48.7054 H   0  0  0  0  0  0  0  0  0  0  0  0
   62.4523   34.2338   49.7593 H   0  0  0  0  0  0  0  0  0  0  0  0
   60.1452   34.5368   48.8619 H   0  0  0  0  0  0  0  0  0  0  0  0
   60.3763   34.0257   44.2907 H   0  0  0  0  0  0  0  0  0  0  0  0
   58.7943   34.4719   43.5639 H   0  0  0  0  0  0  0  0  0  0  0  0
   59.6360   35.0780   46.2180 H   0  0  0  0  0  0  0  0  0  0  0  0
   57.0070   31.2140   45.8600 H   0  0  0  0  0  0  0  0  0  0  0  0
   55.7679   29.7131   44.8119 H   0  0  0  0  0  0  0  0  0  0  0  0
   56.0299   31.0846   43.6233 H   0  0  0  0  0  0  0  0  0  0  0  0
   56.1676   28.7321   42.6660 H   0  0  0  0  0  0  0  0  0  0  0  0
   57.5579   29.8279   42.3459 H   0  0  0  0  0  0  0  0  0  0  0  0
   57.6214   24.1858   43.1779 H   0  0  0  0  0  0  0  0  0  0  0  0
   57.0201   22.5340   44.9492 H   0  0  0  0  0  0  0  0  0  0  0  0
   56.4245   23.3170   47.2428 H   0  0  0  0  0  0  0  0  0  0  0  0
   56.4265   25.7572   47.7685 H   0  0  0  0  0  0  0  0  0  0  0  0
   57.0351   27.4158   46.0075 H   0  0  0  0  0  0  0  0  0  0  0  0
   59.5529   28.0209   45.0216 H   0  0  0  0  0  0  0  0  0  0  0  0
   59.7193   29.3595   43.8151 H   0  0  0  0  0  0  0  0  0  0  0  0
   59.4437   30.4864   45.7864 H   0  0  0  0  0  0  0  0  0  0  0  0
   57.6201   29.9777   47.5114 H   0  0  0  0  0  0  0  0  0  0  0  0
   57.5772   28.3339   46.6757 H   0  0  0  0  0  0  0  0  0  0  0  0
   59.8462   26.8327   46.7658 H   0  0  0  0  0  0  0  0  0  0  0  0
   61.5620   26.5600   48.7060 H   0  0  0  0  0  0  0  0  0  0  0  0
   62.2430   27.9834   50.9442 H   0  0  0  0  0  0  0  0  0  0  0  0
   61.6241   30.0326   52.2758 H   0  0  0  0  0  0  0  0  0  0  0  0
   59.8105   31.5591   51.4671 H   0  0  0  0  0  0  0  0  0  0  0  0
   58.6192   31.0749   49.3006 H   0  0  0  0  0  0  0  0  0  0  0  0
   60.6978   31.1088   46.2753 H   0  0  0  0  0  0  0  0  0  0  0  0
   63.0069   30.8064   47.1691 H   0  0  0  0  0  0  0  0  0  0  0  0
  1  2  1  0
  2  3  2  0
  3  4  1  0
  4  5  2  0
  5  6  1  0
  6  7  2  0
  6  8  2  0
  6  9  1  0
  9 10  1  0
 10 11  1  0
  9 12  1  0
 12 13  2  0
 12 14  1  0
 14 15  1  0
 15 16  1  0
 16 17  1  0
 17 18  1  0
 18 19  2  0
 18 20  1  0
 20 21  2  0
 21 22  1  0
 22 23  2  0
 23 24  1  0
 24 25  2  0
 17 26  1  0
 26 27  1  0
 27 28  1  0
 28 29  1  0
 29 30  2  0
 30 31  1  0
 31 32  1  0
 32 33  2  0
 33 34  1  0
 34 35  2  0
 35 36  1  0
 36 37  2  0
  5 38  1  0
 38 39  2  0
 39  2  1  0
 27 14  1  0
 37 29  1  0
 25 20  1  0
 37 32  1  0
  1 40  1  0
  1 41  1  0
  1 42  1  0
  3 43  1  0
  4 44  1  0
 10 45  1  0
 10 46  1  0
 11 47  1  0
 14 48  1  1
 15 49  1  0
 15 50  1  0
 16 51  1  0
 16 52  1  0
 21 53  1  0
 22 54  1  0
 23 55  1  0
 24 56  1  0
 25 57  1  0
 26 58  1  0
 26 59  1  0
 27 60  1  1
 28 61  1  0
 28 62  1  0
 30 63  1  0
 31 64  1  0
 33 65  1  0
 34 66  1  0
 35 67  1  0
 36 68  1  0
 38 69  1  0
 39 70  1  0
M  CHG  1  14   1
M  END
>  <UniqueID>  (40) 
40

>  <SMILES>  (40) 
Cc1ccc(S(=O)(=O)N(CO)C(=O)[N@H+]2CCN(C(=O)c3ccccc3)C[C@@H]2Cc2c[nH]c3ccccc23)cc1

>  <Energy>  (40) 
122.25182824046551

>  <Genealogy>  (40) 
Cc1ccc(S(=O)(=O)N(CO)C(=O)[NH+]2CCN(C(=O)c3ccccc3)CC2Cc2c[nH]c3ccccc23)cc1 (protonated)
Cc1ccc(S(=O)(=O)N(CO)C(=O)[N@H+]2CCN(C(=O)c3ccccc3)C[C@@H]2Cc2c[nH]c3ccccc23)cc1 (chirality)
Cc1ccc(S(=O)(=O)N(CO)C(=O)[N@H+]2CCN(C(=O)c3ccccc3)C[C@@H]2Cc2c[nH]c3ccccc23)cc1 (3D coordinates assigned)
Cc1ccc(S(=O)(=O)N(CO)C(=O)[N@H+]2CCN(C(=O)c3ccccc3)C[C@@H]2Cc2c[nH]c3ccccc23)cc1 (nonaromatic ring conformer: 122.25182824046551 kcal/mol)

>  <smiles>  (40) 
Cc1ccc(S(=O)(=O)N(CO)C(=O)N2CCN(C(=O)c3ccccc3)CC2Cc2c[nH]c3ccccc23)cc1

>  <score_type>  (40) 
oracle

>  <origin>  (40) 
adg

>  <m_score__min__energy>  (40) 
-9.1999999999999993

>  <m_primary>  (40) 
energy

$$$$
40:0
     RDKit          3D

 55 58  0  0  0  0  0  0  0  0999 V2000
   58.9030   26.8040   44.6200 O   0  0  0  0  0  0  0  0  0  0  0  0
   58.4240   27.7010   45.3630 C   0  0  0  0  0  0  0  0  0  0  0  0
   58.7660   27.7020   46.7510 N   0  0  0  0  0  0  0  0  0  0  0  0
   60.1080   28.0520   47.2160 C   0  0  0  0  0  0  0  0  0  0  0  0
   60.6450   29.2900   46.4780 C   0  0  0  0  0  0  0  0  0  0  0  0
   60.4000   30.5180   47.2690 N   0  0  0  0  0  0  0  0  0  0  0  0
   61.4960   30.7810   48.2190 C   0  0  0  0  0  0  0  0  0  0  0  0
   61.0130   30.3740   49.5970 C   0  0  0  0  0  0  0  0  0  0  0  0
   59.5230   30.6100   49.5430 C   0  0  0  0  0  0  0  0  0  0  0  0
   59.1600   30.4300   48.0720 C   0  0  0  0  0  0  0  0  0  0  0  0
   57.5330   28.7450   44.7940 C   0  0  0  0  0  0  0  0  0  0  0  0
   58.1020   29.8330   44.1030 C   0  0  0  0  0  0  0  0  0  0  0  0
   57.2980   30.8790   43.6320 C   0  0  0  0  0  0  0  0  0  0  0  0
   58.0500   32.3260   42.8860 S   0  0  0  0  0  0  0  0  0  0  0  0
   58.4750   33.0210   44.4840 C   0  0  0  0  0  0  0  0  0  0  0  0
   59.4380   34.0300   44.5910 C   0  0  0  0  0  0  0  0  0  0  0  0
   59.6920   34.5990   45.8010 N   0  0  0  0  0  0  0  0  0  0  0  0
   59.0410   34.2120   46.9370 C   0  0  0  0  0  0  0  0  0  0  0  0
   59.2610   34.8050   48.0750 N   0  0  0  0  0  0  0  0  0  0  0  0
   60.1000   34.3420   49.1510 C   0  0  0  0  0  0  0  0  0  0  0  0
   59.6360   34.2280   50.3190 O   0  0  0  0  0  0  0  0  0  0  0  0
   61.5170   33.9840   48.8750 C   0  0  0  0  0  0  0  0  0  0  0  0
   61.9590   33.8360   47.5480 C   0  0  0  0  0  0  0  0  0  0  0  0
   63.2800   33.4610   47.2930 C   0  0  0  0  0  0  0  0  0  0  0  0
   64.1400   33.2390   48.3210 N   0  0  0  0  0  0  0  0  0  0  0  0
   63.7510   33.3810   49.6150 C   0  0  0  0  0  0  0  0  0  0  0  0
   62.4400   33.7660   49.9190 C   0  0  0  0  0  0  0  0  0  0  0  0
   62.0840   33.8940   51.2220 F   0  0  0  0  0  0  0  0  0  0  0  0
   58.0850   33.1890   46.8650 C   0  0  0  0  0  0  0  0  0  0  0  0
   57.4080   32.7670   48.0060 O   0  0  0  0  0  0  0  0  0  0  0  0
   57.8060   32.5930   45.6330 C   0  0  0  0  0  0  0  0  0  0  0  0
   55.9130   30.8270   43.8050 C   0  0  0  0  0  0  0  0  0  0  0  0
   55.3320   29.7410   44.4590 C   0  0  0  0  0  0  0  0  0  0  0  0
   56.1320   28.7050   44.9610 C   0  0  0  0  0  0  0  0  0  0  0  0
   55.5200   27.6320   45.6050 O   0  0  0  0  0  0  0  0  0  0  0  0
   60.0702   28.2651   48.2945 H   0  0  0  0  0  0  0  0  0  0  0  0
   60.7800   27.2053   47.0122 H   0  0  0  0  0  0  0  0  0  0  0  0
   61.7270   29.1737   46.3175 H   0  0  0  0  0  0  0  0  0  0  0  0
   60.1238   29.3806   45.5136 H   0  0  0  0  0  0  0  0  0  0  0  0
   62.3823   30.1911   47.9424 H   0  0  0  0  0  0  0  0  0  0  0  0
   61.7736   31.8453   48.2048 H   0  0  0  0  0  0  0  0  0  0  0  0
   61.2347   29.3144   49.7924 H   0  0  0  0  0  0  0  0  0  0  0  0
   61.5035   30.9396   50.4029 H   0  0  0  0  0  0  0  0  0  0  0  0
   58.9905   29.8773   50.1672 H   0  0  0  0  0  0  0  0  0  0  0  0
   59.2430   31.6032   49.9241 H   0  0  0  0  0  0  0  0  0  0  0  0
   58.6904   29.4465   47.9232 H   0  0  0  0  0  0  0  0  0  0  0  0
   58.4521   31.2119   47.7597 H   0  0  0  0  0  0  0  0  0  0  0  0
   59.1882   29.8614   43.9317 H   0  0  0  0  0  0  0  0  0  0  0  0
   59.9889   34.3629   43.6990 H   0  0  0  0  0  0  0  0  0  0  0  0
   61.2658   34.0152   46.7129 H   0  0  0  0  0  0  0  0  0  0  0  0
   63.6256   33.3449   46.2552 H   0  0  0  0  0  0  0  0  0  0  0  0
   64.4690   33.1927   50.4268 H   0  0  0  0  0  0  0  0  0  0  0  0
   57.0600   31.7872   45.5677 H   0  0  0  0  0  0  0  0  0  0  0  0
   55.2804   31.6429   43.4253 H   0  0  0  0  0  0  0  0  0  0  0  0
   54.2397   29.6970   44.5817 H   0  0  0  0  0  0  0  0  0  0  0  0
  1  2  2  0
  2  3  1  0
  3  4  1  0
  4  5  1  0
  5  6  1  0
  6  7  1  0
  7  8  1  0
  8  9  1  0
  9 10  1  0
  2 11  1  0
 11 12  2  0
 12 13  1  0
 13 14  1  0
 14 15  1  0
 15 16  2  0
 16 17  1  0
 17 18  1  0
 18 19  2  3
 19 20  1  0
 20 21  2  0
 20 22  1  0
 22 23  2  0
 23 24  1  0
 24 25  2  0
 25 26  1  0
 26 27  2  0
 27 28  1  0
 18 29  1  0
 29 30  1  0
 29 31  2  0
 13 32  2  0
 32 33  1  0
 33 34  2  0
 34 35  1  0
 10  6  1  0
 34 11  1  0
 31 15  1  0
 27 22  1  0
  4 36  1  0
  4 37  1  0
  5 38  1  0
  5 39  1  0
  7 40  1  0
  7 41  1  0
  8 42  1  0
  8 43  1  0
  9 44  1  0
  9 45  1  0
 10 46  1  0
 10 47  1  0
 12 48  1  0
 16 49  1  0
 23 50  1  0
 24 51  1  0
 26 52  1  0
 31 53  1  0
 32 54  1  0
 33 55  1  0
M  CHG  4   3  -1  17  -1  30  -1  35  -1
M  END
>  <UniqueID>  (41) 
41

>  <SMILES>  (41) 
O=C([N-]CCN1CCCC1)c1cc(Sc2c[n-]c(=NC(=O)c3ccncc3F)c([O-])c2)ccc1[O-]

>  <Energy>  (41) 
71.22585478726108

>  <Genealogy>  (41) 
O=C([N-]CCN1CCCC1)c1cc(Sc2c[n-]c(=NC(=O)c3ccncc3F)c([O-])c2)ccc1[O-] (protonated)
O=C([N-]CCN1CCCC1)c1cc(Sc2c[n-]c(=NC(=O)c3ccncc3F)c([O-])c2)ccc1[O-] (3D coordinates assigned)
O=C([N-]CCN1CCCC1)c1cc(Sc2c[n-]c(=NC(=O)c3ccncc3F)c([O-])c2)ccc1[O-] (nonaromatic ring conformer: 71.22585478726108 kcal/mol)

>  <smiles>  (41) 
O=C(NCCN1CCCC1)c1cc(Sc2c[nH]c(=NC(=O)c3ccncc3F)c(O)c2)ccc1O

>  <score_type>  (41) 
oracle

>  <origin>  (41) 
adg

>  <m_score__min__energy>  (41) 
-16.16

>  <m_primary>  (41) 
energy

$$$$
41:0
     RDKit          3D

 46 49  0  0  0  0  0  0  0  0999 V2000
   57.4160   25.9680   47.4710 O   0  0  0  0  0  0  0  0  0  0  0  0
   56.5070   25.7280   46.6300 C   0  0  0  0  0  0  0  0  0  0  0  0
   55.8640   24.4490   46.6090 N   0  0  0  0  0  0  0  0  0  0  0  0
   56.1390   23.3920   45.6800 C   0  0  0  0  0  0  0  0  0  0  0  0
   55.9270   23.6250   44.3140 C   0  0  0  0  0  0  0  0  0  0  0  0
   56.1950   22.6250   43.3750 C   0  0  0  0  0  0  0  0  0  0  0  0
   56.6980   21.3890   43.7920 C   0  0  0  0  0  0  0  0  0  0  0  0
   56.9430   21.1580   45.1470 C   0  0  0  0  0  0  0  0  0  0  0  0
   56.6750   22.1540   46.0930 C   0  0  0  0  0  0  0  0  0  0  0  0
   56.9930   21.9270   47.3920 F   0  0  0  0  0  0  0  0  0  0  0  0
   56.0470   26.7590   45.7470 N   0  0  0  0  0  0  0  0  0  0  0  0
   56.6910   28.0350   45.6190 C   0  0  0  0  0  0  0  0  0  0  0  0
   57.9580   28.2220   46.1930 C   0  0  0  0  0  0  0  0  0  0  0  0
   58.6120   29.4560   46.0900 C   0  0  0  0  0  0  0  0  0  0  0  0
   60.2270   29.6560   46.7660 S   0  0  0  0  0  0  0  0  0  0  0  0
   60.5230   28.5200   47.7040 O   0  0  0  0  0  0  0  0  0  0  0  0
   61.2350   29.6470   45.6510 O   0  0  0  0  0  0  0  0  0  0  0  0
   60.3190   31.1580   47.6240 N   0  0  0  0  0  0  0  0  0  0  0  0
   59.2060   31.7850   48.3310 C   0  0  0  0  0  0  0  0  0  0  0  0
   59.7690   33.1030   48.9190 C   0  0  0  0  0  0  0  0  0  0  0  0
   61.1900   33.1050   48.4680 C   0  0  0  0  0  0  0  0  0  0  0  0
   62.1720   34.0670   48.7120 C   0  0  0  0  0  0  0  0  0  0  0  0
   63.4580   33.8590   48.1850 C   0  0  0  0  0  0  0  0  0  0  0  0
   63.7380   32.7030   47.4310 C   0  0  0  0  0  0  0  0  0  0  0  0
   62.7330   31.7490   47.2000 C   0  0  0  0  0  0  0  0  0  0  0  0
   61.4630   31.9820   47.7350 C   0  0  0  0  0  0  0  0  0  0  0  0
   57.9950   30.5130   45.4100 C   0  0  0  0  0  0  0  0  0  0  0  0
   56.7200   30.3450   44.8620 C   0  0  0  0  0  0  0  0  0  0  0  0
   56.0600   29.1180   44.9750 C   0  0  0  0  0  0  0  0  0  0  0  0
   54.7710   28.9920   44.4680 O   0  0  0  0  0  0  0  0  0  0  0  0
   55.5472   24.6014   43.9789 H   0  0  0  0  0  0  0  0  0  0  0  0
   56.0099   22.8107   42.3067 H   0  0  0  0  0  0  0  0  0  0  0  0
   56.9005   20.5994   43.0534 H   0  0  0  0  0  0  0  0  0  0  0  0
   57.3485   20.1887   45.4725 H   0  0  0  0  0  0  0  0  0  0  0  0
   55.1190   26.6230   45.2850 H   0  0  0  0  0  0  0  0  0  0  0  0
   58.4417   27.3918   46.7286 H   0  0  0  0  0  0  0  0  0  0  0  0
   58.3811   31.9975   47.6351 H   0  0  0  0  0  0  0  0  0  0  0  0
   58.8050   31.1292   49.1178 H   0  0  0  0  0  0  0  0  0  0  0  0
   59.2285   33.9741   48.5202 H   0  0  0  0  0  0  0  0  0  0  0  0
   59.6660   33.1632   50.0125 H   0  0  0  0  0  0  0  0  0  0  0  0
   61.9444   34.9665   49.3028 H   0  0  0  0  0  0  0  0  0  0  0  0
   64.2493   34.6023   48.3622 H   0  0  0  0  0  0  0  0  0  0  0  0
   64.7469   32.5465   47.0216 H   0  0  0  0  0  0  0  0  0  0  0  0
   62.9403   30.8420   46.6132 H   0  0  0  0  0  0  0  0  0  0  0  0
   58.5144   31.4772   45.3068 H   0  0  0  0  0  0  0  0  0  0  0  0
   56.2339   31.1821   44.3395 H   0  0  0  0  0  0  0  0  0  0  0  0
  1  2  2  0
  2  3  1  0
  3  4  1  0
  4  5  2  0
  5  6  1  0
  6  7  2  0
  7  8  1  0
  8  9  2  0
  9 10  1  0
  2 11  1  0
 11 12  1  0
 12 13  2  0
 13 14  1  0
 14 15  1  0
 15 16  2  0
 15 17  2  0
 15 18  1  0
 18 19  1  0
 19 20  1  0
 20 21  1  0
 21 22  2  0
 22 23  1  0
 23 24  2  0
 24 25  1  0
 25 26  2  0
 14 27  2  0
 27 28  1  0
 28 29  2  0
 29 30  1  0
  9  4  1  0
 29 12  1  0
 26 18  1  0
 26 21  1  0
  5 31  1  0
  6 32  1  0
  7 33  1  0
  8 34  1  0
 11 35  1  0
 13 36  1  0
 19 37  1  0
 19 38  1  0
 20 39  1  0
 20 40  1  0
 22 41  1  0
 23 42  1  0
 24 43  1  0
 25 44  1  0
 27 45  1  0
 28 46  1  0
M  CHG  2   3  -1  30  -1
M  END
>  <UniqueID>  (42) 
42

>  <SMILES>  (42) 
O=C([N-]c1ccccc1F)Nc1cc(S(=O)(=O)N2CCc3ccccc32)ccc1[O-]

>  <Energy>  (42) 
75.97138115944509

>  <Genealogy>  (42) 
O=C([N-]c1ccccc1F)Nc1cc(S(=O)(=O)N2CCc3ccccc32)ccc1[O-] (protonated)
O=C([N-]c1ccccc1F)Nc1cc(S(=O)(=O)N2CCc3ccccc32)ccc1[O-] (3D coordinates assigned)
O=C([N-]c1ccccc1F)Nc1cc(S(=O)(=O)N2CCc3ccccc32)ccc1[O-] (nonaromatic ring conformer: 75.97138115944509 kcal/mol)

>  <smiles>  (42) 
O=C(Nc1cc(S(=O)(=O)N2CCc3ccccc32)ccc1O)Nc1ccccc1F

>  <score_type>  (42) 
oracle

>  <origin>  (42) 
adg

>  <m_score__min__energy>  (42) 
-13.93

>  <m_primary>  (42) 
energy

$$$$
42:0
     RDKit          3D

 41 43  0  0  0  0  0  0  0  0999 V2000
   58.8660   28.4550   45.5350 O   0  0  0  0  0  0  0  0  0  0  0  0
   57.6110   28.4420   45.6560 C   0  0  0  0  0  0  0  0  0  0  0  0
   56.8690   29.6710   45.5740 N   0  0  0  0  0  0  0  0  0  0  0  0
   57.4050   30.8980   45.0480 C   0  0  0  0  0  0  0  0  0  0  0  0
   57.2480   31.1870   43.6850 C   0  0  0  0  0  0  0  0  0  0  0  0
   57.7810   32.3610   43.1450 C   0  0  0  0  0  0  0  0  0  0  0  0
   58.4880   33.2480   43.9590 C   0  0  0  0  0  0  0  0  0  0  0  0
   58.6720   32.9640   45.3170 C   0  0  0  0  0  0  0  0  0  0  0  0
   59.6040   34.0760   46.3180 S   0  0  0  0  0  0  0  0  0  0  0  0
   61.0550   33.6940   46.2460 O   0  0  0  0  0  0  0  0  0  0  0  0
   59.4500   35.4860   45.8210 O   0  0  0  0  0  0  0  0  0  0  0  0
   59.0680   33.9790   47.9670 N   0  0  0  0  0  0  0  0  0  0  0  0
   60.1080   33.3680   48.7910 C   0  0  0  0  0  0  0  0  0  0  0  0
   60.0090   31.8750   48.6780 C   0  0  0  0  0  0  0  0  0  0  0  0
   59.0060   31.1790   49.3730 C   0  0  0  0  0  0  0  0  0  0  0  0
   58.8920   29.7910   49.2410 C   0  0  0  0  0  0  0  0  0  0  0  0
   59.7710   29.0920   48.4080 C   0  0  0  0  0  0  0  0  0  0  0  0
   60.7610   29.7810   47.7010 C   0  0  0  0  0  0  0  0  0  0  0  0
   60.8780   31.1680   47.8300 C   0  0  0  0  0  0  0  0  0  0  0  0
   58.1380   31.7840   45.8580 C   0  0  0  0  0  0  0  0  0  0  0  0
   56.9140   27.1650   45.9230 C   0  0  0  0  0  0  0  0  0  0  0  0
   57.6170   26.0200   46.3230 C   0  0  0  0  0  0  0  0  0  0  0  0
   56.9200   24.8370   46.5580 C   0  0  0  0  0  0  0  0  0  0  0  0
   55.5370   24.8190   46.3870 C   0  0  0  0  0  0  0  0  0  0  0  0
   54.8820   23.7640   46.5920 O   0  0  0  0  0  0  0  0  0  0  0  0
   54.8970   25.9500   45.9950 N   0  0  0  0  0  0  0  0  0  0  0  0
   55.5640   27.0850   45.7700 N   0  0  0  0  0  0  0  0  0  0  0  0
   55.9160   29.7020   46.0010 H   0  0  0  0  0  0  0  0  0  0  0  0
   56.7021   30.4857   43.0368 H   0  0  0  0  0  0  0  0  0  0  0  0
   57.6432   32.5863   42.0772 H   0  0  0  0  0  0  0  0  0  0  0  0
   58.9018   34.1732   43.5315 H   0  0  0  0  0  0  0  0  0  0  0  0
   61.0970   33.6992   48.4415 H   0  0  0  0  0  0  0  0  0  0  0  0
   59.9751   33.6702   49.8403 H   0  0  0  0  0  0  0  0  0  0  0  0
   58.3081   31.7271   50.0230 H   0  0  0  0  0  0  0  0  0  0  0  0
   58.1101   29.2489   49.7931 H   0  0  0  0  0  0  0  0  0  0  0  0
   59.6836   28.0000   48.3089 H   0  0  0  0  0  0  0  0  0  0  0  0
   61.4489   29.2308   47.0422 H   0  0  0  0  0  0  0  0  0  0  0  0
   61.6529   31.7076   47.2658 H   0  0  0  0  0  0  0  0  0  0  0  0
   58.2937   31.5508   46.9217 H   0  0  0  0  0  0  0  0  0  0  0  0
   58.7091   26.0554   46.4501 H   0  0  0  0  0  0  0  0  0  0  0  0
   57.4542   23.9290   46.8744 H   0  0  0  0  0  0  0  0  0  0  0  0
  1  2  2  0
  2  3  1  0
  3  4  1  0
  4  5  2  0
  5  6  1  0
  6  7  2  0
  7  8  1  0
  8  9  1  0
  9 10  2  0
  9 11  2  0
  9 12  1  0
 12 13  1  0
 13 14  1  0
 14 15  2  0
 15 16  1  0
 16 17  2  0
 17 18  1  0
 18 19  2  0
  8 20  2  0
  2 21  1  0
 21 22  1  0
 22 23  2  0
 23 24  1  0
 24 25  2  0
 24 26  1  0
 26 27  1  0
 20  4  1  0
 27 21  2  0
 19 14  1  0
  3 28  1  0
  5 29  1  0
  6 30  1  0
  7 31  1  0
 13 32  1  0
 13 33  1  0
 15 34  1  0
 16 35  1  0
 17 36  1  0
 18 37  1  0
 19 38  1  0
 20 39  1  0
 22 40  1  0
 23 41  1  0
M  CHG  2  12  -1  26  -1
M  END
>  <UniqueID>  (43) 
43

>  <SMILES>  (43) 
O=C(Nc1cccc(S(=O)(=O)[N-]Cc2ccccc2)c1)c1ccc(=O)[n-]n1

>  <Energy>  (43) 
46.5251669006499

>  <Genealogy>  (43) 
O=C(Nc1cccc(S(=O)(=O)[N-]Cc2ccccc2)c1)c1ccc(=O)[n-]n1 (protonated)
O=C(Nc1cccc(S(=O)(=O)[N-]Cc2ccccc2)c1)c1ccc(=O)[n-]n1 (3D coordinates assigned)
O=C(Nc1cccc(S(=O)(=O)[N-]Cc2ccccc2)c1)c1ccc(=O)[n-]n1 (optimized conformer: 46.5251669006499 kcal/mol)

>  <smiles>  (43) 
O=C(Nc1cccc(S(=O)(=O)NCc2ccccc2)c1)c1ccc(=O)[nH]n1

>  <score_type>  (43) 
oracle

>  <origin>  (43) 
adg

>  <m_score__min__energy>  (43) 
-12.77

>  <m_primary>  (43) 
energy

$$$$
43:0
     RDKit          3D

 55 58  0  0  0  0  0  0  0  0999 V2000
   58.9060   34.4910   44.5210 O   0  0  0  0  0  0  0  0  0  0  0  0
   58.3410   34.0080   45.5420 C   0  0  0  0  0  0  0  0  0  0  0  0
   58.6980   34.5040   46.9140 C   0  0  0  0  0  0  0  0  0  0  0  0
   59.4950   33.4740   47.6930 C   0  0  0  0  0  0  0  0  0  0  0  0
   58.8320   32.7260   48.6830 C   0  0  0  0  0  0  0  0  0  0  0  0
   59.5210   31.7990   49.4620 C   0  0  0  0  0  0  0  0  0  0  0  0
   60.8860   31.5990   49.2740 C   0  0  0  0  0  0  0  0  0  0  0  0
   61.5810   32.3340   48.3050 C   0  0  0  0  0  0  0  0  0  0  0  0
   62.9620   32.1400   48.1370 C   0  0  0  0  0  0  0  0  0  0  0  0
   63.6670   32.8770   47.1850 C   0  0  0  0  0  0  0  0  0  0  0  0
   63.0040   33.8160   46.3970 C   0  0  0  0  0  0  0  0  0  0  0  0
   61.6300   34.0230   46.5490 C   0  0  0  0  0  0  0  0  0  0  0  0
   60.8930   33.2850   47.5030 C   0  0  0  0  0  0  0  0  0  0  0  0
   57.2520   33.0820   45.3900 N   0  0  0  0  0  0  0  0  0  0  0  0
   57.3390   31.7900   45.2380 C   0  0  0  0  0  0  0  0  0  0  0  0
   58.0430   30.9650   46.1400 C   0  0  0  0  0  0  0  0  0  0  0  0
   58.0680   29.5840   45.9330 C   0  0  0  0  0  0  0  0  0  0  0  0
   57.4050   29.0260   44.8300 C   0  0  0  0  0  0  0  0  0  0  0  0
   57.4510   27.6160   44.5690 N   0  0  0  0  0  0  0  0  0  0  0  0
   56.6540   26.6590   45.2850 C   0  0  0  0  0  0  0  0  0  0  0  0
   55.6810   27.0440   45.9910 O   0  0  0  0  0  0  0  0  0  0  0  0
   56.9770   25.1910   45.2050 C   0  0  0  0  0  0  0  0  0  0  0  0
   58.3890   24.9450   44.8690 N   0  0  0  0  0  0  0  0  0  0  0  0
   59.2640   24.8540   46.0490 C   0  0  0  0  0  0  0  0  0  0  0  0
   59.7220   26.2110   46.5300 C   0  0  0  0  0  0  0  0  0  0  0  0
   60.3420   27.1020   45.6390 C   0  0  0  0  0  0  0  0  0  0  0  0
   60.7640   28.3600   46.0770 C   0  0  0  0  0  0  0  0  0  0  0  0
   60.5700   28.7390   47.4070 C   0  0  0  0  0  0  0  0  0  0  0  0
   59.9580   27.8560   48.3020 C   0  0  0  0  0  0  0  0  0  0  0  0
   59.5380   26.5960   47.8680 C   0  0  0  0  0  0  0  0  0  0  0  0
   56.7280   29.8790   43.9500 C   0  0  0  0  0  0  0  0  0  0  0  0
   56.6960   31.2180   44.1820 N   0  0  0  0  0  0  0  0  0  0  0  0
   59.2985   35.4205   46.8167 H   0  0  0  0  0  0  0  0  0  0  0  0
   57.7644   34.7010   47.4613 H   0  0  0  0  0  0  0  0  0  0  0  0
   57.7542   32.8752   48.8443 H   0  0  0  0  0  0  0  0  0  0  0  0
   58.9839   31.2222   50.2294 H   0  0  0  0  0  0  0  0  0  0  0  0
   61.4210   30.8605   49.8891 H   0  0  0  0  0  0  0  0  0  0  0  0
   63.4905   31.4030   48.7594 H   0  0  0  0  0  0  0  0  0  0  0  0
   64.7476   32.7167   47.0562 H   0  0  0  0  0  0  0  0  0  0  0  0
   63.5653   34.3977   45.6510 H   0  0  0  0  0  0  0  0  0  0  0  0
   61.1178   34.7667   45.9208 H   0  0  0  0  0  0  0  0  0  0  0  0
   58.5683   31.4060   47.0000 H   0  0  0  0  0  0  0  0  0  0  0  0
   58.6084   28.9330   46.6360 H   0  0  0  0  0  0  0  0  0  0  0  0
   58.0820   27.2740   43.8070 H   0  0  0  0  0  0  0  0  0  0  0  0
   56.7596   24.7278   46.1788 H   0  0  0  0  0  0  0  0  0  0  0  0
   56.3608   24.7549   44.4049 H   0  0  0  0  0  0  0  0  0  0  0  0
   58.7420   25.6660   44.1970 H   0  0  0  0  0  0  0  0  0  0  0  0
   58.7119   24.3587   46.8613 H   0  0  0  0  0  0  0  0  0  0  0  0
   60.1573   24.2800   45.7617 H   0  0  0  0  0  0  0  0  0  0  0  0
   60.4963   26.8079   44.5903 H   0  0  0  0  0  0  0  0  0  0  0  0
   61.2495   29.0524   45.3735 H   0  0  0  0  0  0  0  0  0  0  0  0
   60.8983   29.7312   47.7502 H   0  0  0  0  0  0  0  0  0  0  0  0
   59.8069   28.1540   49.3500 H   0  0  0  0  0  0  0  0  0  0  0  0
   59.0614   25.9030   48.5770 H   0  0  0  0  0  0  0  0  0  0  0  0
   56.2199   29.4638   43.0671 H   0  0  0  0  0  0  0  0  0  0  0  0
  1  2  2  0
  2  3  1  0
  3  4  1  0
  4  5  2  0
  5  6  1  0
  6  7  2  0
  7  8  1  0
  8  9  2  0
  9 10  1  0
 10 11  2  0
 11 12  1  0
 12 13  2  0
  2 14  1  0
 14 15  2  3
 15 16  1  0
 16 17  2  0
 17 18  1  0
 18 19  1  0
 19 20  1  0
 20 21  2  0
 20 22  1  0
 22 23  1  0
 23 24  1  0
 24 25  1  0
 25 26  2  0
 26 27  1  0
 27 28  2  0
 28 29  1  0
 29 30  2  0
 18 31  2  0
 31 32  1  0
 13  4  1  0
 32 15  1  0
 13  8  1  0
 30 25  1  0
  3 33  1  0
  3 34  1  0
  5 35  1  0
  6 36  1  0
  7 37  1  0
  9 38  1  0
 10 39  1  0
 11 40  1  0
 12 41  1  0
 16 42  1  0
 17 43  1  0
 19 44  1  0
 22 45  1  0
 22 46  1  0
 23 47  1  0
 24 48  1  0
 24 49  1  0
 26 50  1  0
 27 51  1  0
 28 52  1  0
 29 53  1  0
 30 54  1  0
 31 55  1  0
M  CHG  1  32  -1
M  END
>  <UniqueID>  (44) 
44

>  <SMILES>  (44) 
O=C(Cc1cccc2ccccc12)N=c1ccc(NC(=O)CNCc2ccccc2)c[n-]1

>  <Energy>  (44) 
75.63105396467253

>  <Genealogy>  (44) 
O=C(Cc1cccc2ccccc12)N=c1ccc(NC(=O)CNCc2ccccc2)c[n-]1 (protonated)
O=C(Cc1cccc2ccccc12)N=c1ccc(NC(=O)CNCc2ccccc2)c[n-]1 (3D coordinates assigned)
O=C(Cc1cccc2ccccc12)N=c1ccc(NC(=O)CNCc2ccccc2)c[n-]1 (optimized conformer: 75.63105396467253 kcal/mol)

>  <smiles>  (44) 
O=C(Cc1cccc2ccccc12)N=c1ccc(NC(=O)CNCc2ccccc2)c[nH]1

>  <score_type>  (44) 
oracle

>  <origin>  (44) 
adg

>  <m_score__min__energy>  (44) 
-11.26

>  <m_primary>  (44) 
energy

$$$$
44:0
     RDKit          3D

 67 70  0  0  1  0  0  0  0  0999 V2000
   58.2600   30.7210   52.1500 C   0  0  0  0  0  0  0  0  0  0  0  0
   59.1070   30.7270   50.9120 C   0  0  0  0  0  0  0  0  0  0  0  0
   58.9430   29.4910   50.0690 C   0  0  0  0  0  0  0  0  0  0  0  0
   58.6410   31.9060   50.0580 C   0  0  0  0  0  0  0  0  0  0  0  0
   60.4770   30.9140   51.1560 O   0  0  0  0  0  0  0  0  0  0  0  0
   61.4850   30.8810   50.2270 C   0  0  0  0  0  0  0  0  0  0  0  0
   61.9340   29.7520   49.8910 O   0  0  0  0  0  0  0  0  0  0  0  0
   62.0060   32.1020   49.6630 N   0  0  0  0  0  0  0  0  0  0  0  0
   61.4410   33.3650   50.0970 C   0  0  0  0  0  0  0  0  0  0  0  0
   61.4430   34.4080   48.9750 C   0  0  0  0  0  0  0  0  0  0  0  0
   61.6320   33.6860   47.7030 N   0  0  0  0  0  0  0  0  0  0  0  0
   60.5500   33.6970   46.8150 C   0  0  0  0  0  0  0  0  0  0  0  0
   60.2130   34.9480   46.2820 C   0  0  0  0  0  0  0  0  0  0  0  0
   59.2530   35.1230   45.3330 C   0  0  0  0  0  0  0  0  0  0  0  0
   58.5810   34.0110   44.8760 C   0  0  0  0  0  0  0  0  0  0  0  0
   58.8900   32.8150   45.3770 N   0  0  0  0  0  0  0  0  0  0  0  0
   59.8560   32.6360   46.3340 C   0  0  0  0  0  0  0  0  0  0  0  0
   59.9950   31.4990   46.8030 N   0  0  0  0  0  0  0  0  0  0  0  0
   59.2150   30.3740   46.7690 C   0  0  0  0  0  0  0  0  0  0  0  0
   57.9370   30.5520   46.6620 O   0  0  0  0  0  0  0  0  0  0  0  0
   59.5980   29.0090   46.8180 N   0  0  0  0  0  0  0  0  0  0  0  0
   58.6070   28.0060   46.7150 C   0  0  0  0  0  0  0  0  0  0  0  0
   57.6750   28.1820   45.6820 C   0  0  0  0  0  0  0  0  0  0  0  0
   56.6520   27.2840   45.4620 C   0  0  0  0  0  0  0  0  0  0  0  0
   56.5020   26.1670   46.2560 C   0  0  0  0  0  0  0  0  0  0  0  0
   55.4590   25.2860   46.0030 O   0  0  0  0  0  0  0  0  0  0  0  0
   55.6200   24.0410   45.4350 C   0  0  0  0  0  0  0  0  0  0  0  0
   55.7660   23.8190   44.0810 C   0  0  0  0  0  0  0  0  0  0  0  0
   55.9180   22.5120   43.6600 C   0  0  0  0  0  0  0  0  0  0  0  0
   56.0600   22.2470   42.4040 N   0  0  0  0  0  0  0  0  0  0  0  0
   55.9290   21.4650   44.5120 N   0  0  0  0  0  0  0  0  0  0  0  0
   55.7830   21.7190   45.8260 C   0  0  0  0  0  0  0  0  0  0  0  0
   55.6320   22.9770   46.2780 N   0  0  0  0  0  0  0  0  0  0  0  0
   57.4140   25.9930   47.2690 C   0  0  0  0  0  0  0  0  0  0  0  0
   58.4530   26.9050   47.4920 C   0  0  0  0  0  0  0  0  0  0  0  0
   62.8860   32.9950   47.5540 C   0  0  0  0  0  0  0  0  0  0  0  0
   63.0700   31.9840   48.6890 C   0  0  0  0  0  0  0  0  0  0  0  0
   58.9089   30.7256   53.0382 H   0  0  0  0  0  0  0  0  0  0  0  0
   57.6186   31.6146   52.1598 H   0  0  0  0  0  0  0  0  0  0  0  0
   57.6314   29.8184   52.1598 H   0  0  0  0  0  0  0  0  0  0  0  0
   58.8266   28.6141   50.7228 H   0  0  0  0  0  0  0  0  0  0  0  0
   58.0509   29.5959   49.4341 H   0  0  0  0  0  0  0  0  0  0  0  0
   59.8316   29.3597   49.4341 H   0  0  0  0  0  0  0  0  0  0  0  0
   58.3162   32.7277   50.7133 H   0  0  0  0  0  0  0  0  0  0  0  0
   59.4710   32.2495   49.4231 H   0  0  0  0  0  0  0  0  0  0  0  0
   57.8004   31.5893   49.4231 H   0  0  0  0  0  0  0  0  0  0  0  0
   60.4044   33.1970   50.4243 H   0  0  0  0  0  0  0  0  0  0  0  0
   62.0599   33.7498   50.9209 H   0  0  0  0  0  0  0  0  0  0  0  0
   60.4849   34.9483   48.9620 H   0  0  0  0  0  0  0  0  0  0  0  0
   62.2475   35.1423   49.1284 H   0  0  0  0  0  0  0  0  0  0  0  0
   60.7517   35.8340   46.6491 H   0  0  0  0  0  0  0  0  0  0  0  0
   59.0204   36.1245   44.9420 H   0  0  0  0  0  0  0  0  0  0  0  0
   57.7997   34.1085   44.1078 H   0  0  0  0  0  0  0  0  0  0  0  0
   58.3480   31.9940   44.9950 H   0  0  0  0  0  0  0  0  0  0  0  0
   60.6230   28.8200   46.9310 H   0  0  0  0  0  0  0  0  0  0  0  0
   57.7626   29.0622   45.0281 H   0  0  0  0  0  0  0  0  0  0  0  0
   55.9438   27.4618   44.6393 H   0  0  0  0  0  0  0  0  0  0  0  0
   55.7615   24.6523   43.3630 H   0  0  0  0  0  0  0  0  0  0  0  0
   56.6200   22.8180   41.7570 H   0  0  0  0  0  0  0  0  0  0  0  0
   55.7873   20.8839   46.5420 H   0  0  0  0  0  0  0  0  0  0  0  0
   55.5210   23.1370   47.3160 H   0  0  0  0  0  0  0  0  0  0  0  0
   57.3255   25.1129   47.9229 H   0  0  0  0  0  0  0  0  0  0  0  0
   59.1597   26.7245   48.3154 H   0  0  0  0  0  0  0  0  0  0  0  0
   62.8968   32.4652   46.5900 H   0  0  0  0  0  0  0  0  0  0  0  0
   63.7060   33.7274   47.5889 H   0  0  0  0  0  0  0  0  0  0  0  0
   63.0636   30.9670   48.2700 H   0  0  0  0  0  0  0  0  0  0  0  0
   64.0285   32.1874   49.1890 H   0  0  0  0  0  0  0  0  0  0  0  0
  1  2  1  0
  2  3  1  0
  2  4  1  0
  2  5  1  0
  5  6  1  0
  6  7  2  0
  6  8  1  0
  8  9  1  0
  9 10  1  0
 10 11  1  0
 11 12  1  0
 12 13  2  0
 13 14  1  0
 14 15  2  0
 15 16  1  0
 16 17  1  0
 17 18  2  0
 18 19  1  0
 19 20  2  0
 19 21  1  0
 21 22  1  0
 22 23  2  0
 23 24  1  0
 24 25  2  0
 25 26  1  0
 26 27  1  0
 27 28  2  0
 28 29  1  0
 29 30  2  3
 29 31  1  0
 31 32  2  0
 32 33  1  0
 25 34  1  0
 34 35  2  0
 11 36  1  0
 36 37  1  0
 37  8  1  0
 17 12  1  0
 35 22  1  0
 33 27  1  0
  1 38  1  0
  1 39  1  0
  1 40  1  0
  3 41  1  0
  3 42  1  0
  3 43  1  0
  4 44  1  0
  4 45  1  0
  4 46  1  0
  9 47  1  0
  9 48  1  0
 10 49  1  0
 10 50  1  0
 13 51  1  0
 14 52  1  0
 15 53  1  0
 16 54  1  0
 21 55  1  0
 23 56  1  0
 24 57  1  0
 28 58  1  0
 30 59  1  0
 32 60  1  0
 33 61  1  0
 34 62  1  0
 35 63  1  0
 36 64  1  0
 36 65  1  0
 37 66  1  0
 37 67  1  0
M  END
>  <smiles>  (45) 
CC(C)(C)OC(=O)N1CCN(c2ccc[nH]c2=NC(=O)Nc2ccc(Oc3cc(=N)nc[nH]3)cc2)CC1

>  <score_type>  (45) 
oracle

>  <origin>  (45) 
adg

>  <m_score__min__energy>  (45) 
-9.2400000000000002

>  <m_primary>  (45) 
energy

$$$$
45:0
     RDKit          3D

 31 32  0  0  0  0  0  0  0  0999 V2000
   59.7640   28.5310   48.1010 C   0  0  0  0  0  0  0  0  0  0  0  0
   59.1630   28.4010   46.7680 N   0  0  0  0  0  0  0  0  0  0  0  0
   58.0600   29.1470   46.4520 C   0  0  0  0  0  0  0  0  0  0  0  0
   57.4680   29.0540   45.1840 C   0  0  0  0  0  0  0  0  0  0  0  0
   56.2800   29.8590   44.8350 C   0  0  0  0  0  0  0  0  0  0  0  0
   55.1450   29.3170   44.8650 O   0  0  0  0  0  0  0  0  0  0  0  0
   56.3720   31.2490   44.5000 N   0  0  0  0  0  0  0  0  0  0  0  0
   57.5660   31.9030   43.9780 C   0  0  0  0  0  0  0  0  0  0  0  0
   58.1460   32.7940   45.0380 C   0  0  0  0  0  0  0  0  0  0  0  0
   58.7980   33.9860   44.6830 C   0  0  0  0  0  0  0  0  0  0  0  0
   59.3080   34.8310   45.6730 C   0  0  0  0  0  0  0  0  0  0  0  0
   59.1610   34.4990   47.0230 C   0  0  0  0  0  0  0  0  0  0  0  0
   59.6550   35.3200   47.9820 F   0  0  0  0  0  0  0  0  0  0  0  0
   58.5000   33.3210   47.3840 C   0  0  0  0  0  0  0  0  0  0  0  0
   57.9890   32.4730   46.3970 C   0  0  0  0  0  0  0  0  0  0  0  0
   58.0530   28.2200   44.2270 C   0  0  0  0  0  0  0  0  0  0  0  0
   59.1850   27.4750   44.5520 C   0  0  0  0  0  0  0  0  0  0  0  0
   59.7340   27.5760   45.8330 C   0  0  0  0  0  0  0  0  0  0  0  0
   60.7630   26.9010   46.1140 O   0  0  0  0  0  0  0  0  0  0  0  0
   58.9937   28.3644   48.8684 H   0  0  0  0  0  0  0  0  0  0  0  0
   60.5642   27.7852   48.2167 H   0  0  0  0  0  0  0  0  0  0  0  0
   60.1845   29.5409   48.2167 H   0  0  0  0  0  0  0  0  0  0  0  0
   57.6323   29.8283   47.2022 H   0  0  0  0  0  0  0  0  0  0  0  0
   58.3067   31.1418   43.6918 H   0  0  0  0  0  0  0  0  0  0  0  0
   57.3016   32.5037   43.0953 H   0  0  0  0  0  0  0  0  0  0  0  0
   58.9078   34.2557   43.6223 H   0  0  0  0  0  0  0  0  0  0  0  0
   59.8260   35.7590   45.3892 H   0  0  0  0  0  0  0  0  0  0  0  0
   58.3819   33.0611   48.4463 H   0  0  0  0  0  0  0  0  0  0  0  0
   57.4622   31.5513   46.6852 H   0  0  0  0  0  0  0  0  0  0  0  0
   57.6202   28.1517   43.2180 H   0  0  0  0  0  0  0  0  0  0  0  0
   59.6437   26.8112   43.8044 H   0  0  0  0  0  0  0  0  0  0  0  0
  1  2  1  0
  2  3  1  0
  3  4  2  0
  4  5  1  0
  5  6  2  0
  5  7  1  0
  7  8  1  0
  8  9  1  0
  9 10  2  0
 10 11  1  0
 11 12  2  0
 12 13  1  0
 12 14  1  0
 14 15  2  0
  4 16  1  0
 16 17  2  0
 17 18  1  0
 18 19  2  0
 18  2  1  0
 15  9  1  0
  1 20  1  0
  1 21  1  0
  1 22  1  0
  3 23  1  0
  8 24  1  0
  8 25  1  0
 10 26  1  0
 11 27  1  0
 14 28  1  0
 15 29  1  0
 16 30  1  0
 17 31  1  0
M  CHG  1   7  -1
M  END
>  <UniqueID>  (46) 
45

>  <SMILES>  (46) 
Cn1cc(C(=O)[N-]Cc2ccc(F)cc2)ccc1=O

>  <Energy>  (46) 
36.80916457585957

>  <Genealogy>  (46) 
Cn1cc(C(=O)[N-]Cc2ccc(F)cc2)ccc1=O (protonated)
Cn1cc(C(=O)[N-]Cc2ccc(F)cc2)ccc1=O (3D coordinates assigned)
Cn1cc(C(=O)[N-]Cc2ccc(F)cc2)ccc1=O (optimized conformer: 36.80916457585957 kcal/mol)

>  <smiles>  (46) 
Cn1cc(C(=O)NCc2ccc(F)cc2)ccc1=O

>  <score_type>  (46) 
oracle

>  <origin>  (46) 
adg

>  <m_score__min__energy>  (46) 
-8.3000000000000007

>  <m_primary>  (46) 
energy

$$$$
46:0
     RDKit          3D

 55 57  0  0  1  0  0  0  0  0999 V2000
   55.5020   24.6090   45.5480 C   0  0  0  0  0  0  0  0  0  0  0  0
   58.1620   33.5660   46.8170 N   0  0  0  0  0  0  0  0  0  0  0  0
   58.0320   32.9680   45.6840 C   0  0  0  0  0  0  0  0  0  0  0  0
   57.6790   26.5530   46.5920 C   0  0  0  0  0  0  0  0  0  0  0  0
   58.6690   27.4850   46.3370 C   0  0  0  0  0  0  0  0  0  0  0  0
   57.8110   31.8230   43.2750 C   0  0  0  0  0  0  0  0  0  0  0  0
   58.3800   33.0760   43.3720 C   0  0  0  0  0  0  0  0  0  0  0  0
   56.7910   29.8810   44.2090 N   0  0  0  0  0  0  0  0  0  0  0  0
   55.8810   29.7070   43.1190 C   0  0  0  0  0  0  0  0  0  0  0  0
   57.3550   31.1610   44.4260 C   0  0  0  0  0  0  0  0  0  0  0  0
   58.3720   28.5940   45.5460 C   0  0  0  0  0  0  0  0  0  0  0  0
   57.0930   28.7520   45.0240 C   0  0  0  0  0  0  0  0  0  0  0  0
   56.1280   27.8270   45.2830 N   0  0  0  0  0  0  0  0  0  0  0  0
   56.4130   26.7400   46.0550 C   0  0  0  0  0  0  0  0  0  0  0  0
   55.5160   25.8480   46.3110 N   0  0  0  0  0  0  0  0  0  0  0  0
   58.8450   32.9930   47.9290 C   0  0  0  0  0  0  0  0  0  0  0  0
   58.1250   32.3960   48.9490 C   0  0  0  0  0  0  0  0  0  0  0  0
   58.7920   31.8590   49.9990 C   0  0  0  0  0  0  0  0  0  0  0  0
   58.0620   31.2200   51.0880 C   0  0  0  0  0  0  0  0  0  0  0  0
   57.7800   30.0010   50.9390 O   0  0  0  0  0  0  0  0  0  0  0  0
   57.6870   31.9440   52.2660 N   0  0  0  0  0  0  0  0  0  0  0  0
   58.0060   33.3510   52.4470 C   0  0  0  0  0  0  0  0  0  0  0  0
   56.9600   31.2180   53.3010 C   0  0  0  0  0  0  0  0  0  0  0  0
   60.1740   31.8860   50.0880 C   0  0  0  0  0  0  0  0  0  0  0  0
   60.9050   32.4760   49.0840 C   0  0  0  0  0  0  0  0  0  0  0  0
   60.2280   33.0250   48.0100 C   0  0  0  0  0  0  0  0  0  0  0  0
   61.1850   33.7870   46.7080 S   0  0  0  0  0  0  0  0  0  0  0  0
   62.9510   33.4420   46.8970 C   0  0  0  0  0  0  0  0  0  0  0  0
   57.4690   31.7410   45.6330 N   0  0  0  0  0  0  0  0  0  0  0  0
   58.4760   33.6220   44.5970 N   0  0  0  0  0  0  0  0  0  0  0  0
   55.4923   23.7530   46.2388 H   0  0  0  0  0  0  0  0  0  0  0  0
   54.6035   24.5788   44.9142 H   0  0  0  0  0  0  0  0  0  0  0  0
   56.3996   24.5585   44.9142 H   0  0  0  0  0  0  0  0  0  0  0  0
   57.8933   25.6718   47.2146 H   0  0  0  0  0  0  0  0  0  0  0  0
   59.6785   27.3527   46.7534 H   0  0  0  0  0  0  0  0  0  0  0  0
   57.7141   31.3404   42.2913 H   0  0  0  0  0  0  0  0  0  0  0  0
   54.8716   29.5140   43.5113 H   0  0  0  0  0  0  0  0  0  0  0  0
   55.8672   30.6188   42.5038 H   0  0  0  0  0  0  0  0  0  0  0  0
   56.2045   28.8544   42.5038 H   0  0  0  0  0  0  0  0  0  0  0  0
   59.1490   29.3435   45.3350 H   0  0  0  0  0  0  0  0  0  0  0  0
   58.7418   33.6087   42.4802 H   0  0  0  0  0  0  0  0  0  0  0  0
   55.1460   27.9350   44.8870 H   0  0  0  0  0  0  0  0  0  0  0  0
   57.0264   32.3580   48.9079 H   0  0  0  0  0  0  0  0  0  0  0  0
   58.0579   33.5799   53.5217 H   0  0  0  0  0  0  0  0  0  0  0  0
   58.9766   33.5702   51.9781 H   0  0  0  0  0  0  0  0  0  0  0  0
   57.2248   33.9674   51.9781 H   0  0  0  0  0  0  0  0  0  0  0  0
   57.2980   31.5556   54.2919 H   0  0  0  0  0  0  0  0  0  0  0  0
   55.8822   31.4109   53.1959 H   0  0  0  0  0  0  0  0  0  0  0  0
   57.1515   30.1399   53.1959 H   0  0  0  0  0  0  0  0  0  0  0  0
   60.6826   31.4390   50.9549 H   0  0  0  0  0  0  0  0  0  0  0  0
   62.0033   32.5106   49.1338 H   0  0  0  0  0  0  0  0  0  0  0  0
   63.2026   33.3929   47.9667 H   0  0  0  0  0  0  0  0  0  0  0  0
   63.1899   32.4802   46.4196 H   0  0  0  0  0  0  0  0  0  0  0  0
   63.5343   34.2432   46.4196 H   0  0  0  0  0  0  0  0  0  0  0  0
   58.9050   34.5720   44.6950 H   0  0  0  0  0  0  0  0  0  0  0  0
  1  2  1  0
  2  3  2  0
  3  4  1  0
  4  5  2  0
  5  6  1  0
  6  7  2  0
  7  8  1  0
  8  9  1  0
  8 10  1  0
 10 11  1  0
 11 12  2  0
 12 13  1  0
 13 14  1  0
 14 15  2  0
 15 16  1  0
 16 17  2  0
 17 18  1  0
 18 19  1  0
 19 20  2  0
 19 21  1  0
 21 22  1  0
 21 23  1  0
 18 24  2  0
 24 25  1  0
 25 26  2  0
 26 27  1  0
 27 28  1  0
 14 29  1  0
  7 30  1  0
 30  3  1  0
 29 10  2  0
 26 16  1  0
  1 31  1  0
  1 32  1  0
  1 33  1  0
  4 34  1  0
  5 35  1  0
  6 36  1  0
  9 37  1  0
  9 38  1  0
  9 39  1  0
 11 40  1  0
 12 41  1  0
 13 42  1  0
 17 43  1  0
 22 44  1  0
 22 45  1  0
 22 46  1  0
 23 47  1  0
 23 48  1  0
 23 49  1  0
 24 50  1  0
 25 51  1  0
 28 52  1  0
 28 53  1  0
 28 54  1  0
 30 55  1  0
M  END
>  <smiles>  (47) 
CN=c1cccc(N(C)c2cc[nH]c(=Nc3cc(C(=O)N(C)C)ccc3SC)n2)[nH]1

>  <score_type>  (47) 
oracle

>  <origin>  (47) 
adg

>  <m_score__min__energy>  (47) 
-9.4100000000000001

>  <m_primary>  (47) 
energy

$$$$
47:0
     RDKit          3D

 44 46  0  0  0  0  0  0  0  0999 V2000
   57.9700   21.6460   43.9940 C   0  0  0  0  0  0  0  0  0  0  0  0
   56.4240   22.5220   43.9190 S   0  0  0  0  0  0  0  0  0  0  0  0
   55.8970   22.4910   42.5120 O   0  0  0  0  0  0  0  0  0  0  0  0
   55.4250   21.8560   44.8240 O   0  0  0  0  0  0  0  0  0  0  0  0
   56.6720   24.1880   44.4280 C   0  0  0  0  0  0  0  0  0  0  0  0
   57.5720   25.0100   43.7360 C   0  0  0  0  0  0  0  0  0  0  0  0
   57.7810   26.3280   44.1490 C   0  0  0  0  0  0  0  0  0  0  0  0
   57.0960   26.8400   45.2620 C   0  0  0  0  0  0  0  0  0  0  0  0
   57.3340   28.2590   45.7230 C   0  0  0  0  0  0  0  0  0  0  0  0
   56.2830   29.1830   45.2600 N   0  0  0  0  0  0  0  0  0  0  0  0
   56.4600   29.5990   43.8620 C   0  0  0  0  0  0  0  0  0  0  0  0
   57.0160   30.9850   43.7870 C   0  0  0  0  0  0  0  0  0  0  0  0
   56.9920   31.8630   44.8080 N   0  0  0  0  0  0  0  0  0  0  0  0
   57.5770   32.9380   44.2380 C   0  0  0  0  0  0  0  0  0  0  0  0
   57.8580   34.2100   44.9710 C   0  0  0  0  0  0  0  0  0  0  0  0
   58.8030   33.9480   46.1140 C   0  0  0  0  0  0  0  0  0  0  0  0
   60.1610   34.2880   45.9930 C   0  0  0  0  0  0  0  0  0  0  0  0
   61.0380   34.0790   47.0610 C   0  0  0  0  0  0  0  0  0  0  0  0
   60.5660   33.5380   48.2600 C   0  0  0  0  0  0  0  0  0  0  0  0
   59.2140   33.2110   48.3940 C   0  0  0  0  0  0  0  0  0  0  0  0
   58.3320   33.4180   47.3290 C   0  0  0  0  0  0  0  0  0  0  0  0
   57.0200   33.1050   47.4860 F   0  0  0  0  0  0  0  0  0  0  0  0
   57.9420   32.7180   42.9610 N   0  0  0  0  0  0  0  0  0  0  0  0
   57.5710   31.4980   42.7170 O   0  0  0  0  0  0  0  0  0  0  0  0
   56.2020   26.0110   45.9590 C   0  0  0  0  0  0  0  0  0  0  0  0
   55.9930   24.6930   45.5440 C   0  0  0  0  0  0  0  0  0  0  0  0
   58.2507   21.4870   45.0456 H   0  0  0  0  0  0  0  0  0  0  0  0
   57.8650   20.6732   43.4914 H   0  0  0  0  0  0  0  0  0  0  0  0
   58.7505   22.2360   43.4914 H   0  0  0  0  0  0  0  0  0  0  0  0
   58.1156   24.6159   42.8647 H   0  0  0  0  0  0  0  0  0  0  0  0
   58.4864   26.9682   43.5989 H   0  0  0  0  0  0  0  0  0  0  0  0
   57.3584   28.2740   46.8226 H   0  0  0  0  0  0  0  0  0  0  0  0
   58.2896   28.5955   45.2945 H   0  0  0  0  0  0  0  0  0  0  0  0
   56.2890   30.0380   45.8660 H   0  0  0  0  0  0  0  0  0  0  0  0
   57.1531   28.9049   43.3642 H   0  0  0  0  0  0  0  0  0  0  0  0
   55.4798   29.5847   43.3630 H   0  0  0  0  0  0  0  0  0  0  0  0
   58.3135   34.9352   44.2807 H   0  0  0  0  0  0  0  0  0  0  0  0
   56.9149   34.6140   45.3677 H   0  0  0  0  0  0  0  0  0  0  0  0
   60.5355   34.7206   45.0535 H   0  0  0  0  0  0  0  0  0  0  0  0
   62.1014   34.3407   46.9577 H   0  0  0  0  0  0  0  0  0  0  0  0
   61.2585   33.3696   49.0979 H   0  0  0  0  0  0  0  0  0  0  0  0
   58.8427   32.7896   49.3398 H   0  0  0  0  0  0  0  0  0  0  0  0
   55.6638   26.4009   46.8356 H   0  0  0  0  0  0  0  0  0  0  0  0
   55.2923   24.0495   46.0962 H   0  0  0  0  0  0  0  0  0  0  0  0
  1  2  1  0
  2  3  2  0
  2  4  2  0
  2  5  1  0
  5  6  2  0
  6  7  1  0
  7  8  2  0
  8  9  1  0
  9 10  1  0
 10 11  1  0
 11 12  1  0
 12 13  2  0
 13 14  1  0
 14 15  1  0
 15 16  1  0
 16 17  2  0
 17 18  1  0
 18 19  2  0
 19 20  1  0
 20 21  2  0
 21 22  1  0
 14 23  2  0
 23 24  1  0
  8 25  1  0
 25 26  2  0
 26  5  1  0
 24 12  1  0
 21 16  1  0
  1 27  1  0
  1 28  1  0
  1 29  1  0
  6 30  1  0
  7 31  1  0
  9 32  1  0
  9 33  1  0
 10 34  1  0
 11 35  1  0
 11 36  1  0
 15 37  1  0
 15 38  1  0
 17 39  1  0
 18 40  1  0
 19 41  1  0
 20 42  1  0
 25 43  1  0
 26 44  1  0
M  END
>  <UniqueID>  (48) 
46

>  <SMILES>  (48) 
CS(=O)(=O)c1ccc(CNCc2nc(Cc3ccccc3F)no2)cc1

>  <Energy>  (48) 
74.0488543113272

>  <Genealogy>  (48) 
CS(=O)(=O)c1ccc(CNCc2nc(Cc3ccccc3F)no2)cc1 (3D coordinates assigned)
CS(=O)(=O)c1ccc(CNCc2nc(Cc3ccccc3F)no2)cc1 (optimized conformer: 74.0488543113272 kcal/mol)

>  <smiles>  (48) 
CS(=O)(=O)c1ccc(CNCc2nc(Cc3ccccc3F)no2)cc1

>  <score_type>  (48) 
oracle

>  <origin>  (48) 
adg

>  <m_score__min__energy>  (48) 
-9.1999999999999993

>  <m_primary>  (48) 
energy

$$$$
48:0
     RDKit          3D

 43 45  0  0  0  0  0  0  0  0999 V2000
   57.1968   31.9102   46.9031 H   0  0  0  0  0  0  0  0  0  0  0  0
   57.7780   32.7340   46.4630 C   0  0  0  0  0  0  0  0  0  0  0  0
   59.0270   33.0070   46.9260 N   0  0  0  0  0  0  0  0  0  0  0  0
   59.7860   34.0140   46.4150 C   0  0  0  0  0  0  0  0  0  0  0  0
   60.9730   34.2110   46.9130 N   0  0  0  0  0  0  0  0  0  0  0  0
   62.2350   33.7190   46.3630 C   0  0  0  0  0  0  0  0  0  0  0  0
   62.8245   34.5706   45.9926 H   0  0  0  0  0  0  0  0  0  0  0  0
   62.0160   33.0219   45.5408 H   0  0  0  0  0  0  0  0  0  0  0  0
   63.0370   32.9810   47.4350 C   0  0  0  0  0  0  0  0  0  0  0  0
   62.9769   33.5425   48.3790 H   0  0  0  0  0  0  0  0  0  0  0  0
   64.0812   32.9022   47.0981 H   0  0  0  0  0  0  0  0  0  0  0  0
   62.5130   31.6290   47.6480 N   0  0  0  0  0  0  0  0  0  0  0  0
   63.0710   30.8370   47.2550 H   0  0  0  0  0  0  0  0  0  0  0  0
   61.2830   31.2960   48.3180 C   0  0  0  0  0  0  0  0  0  0  0  0
   60.8060   29.9460   48.2240 N   0  0  0  0  0  0  0  0  0  0  0  0
   59.8950   29.5090   47.4040 C   0  0  0  0  0  0  0  0  0  0  0  0
   59.0230   28.1020   47.6630 S   0  0  0  0  0  0  0  0  0  0  0  0
   58.0920   28.2950   46.2730 C   0  0  0  0  0  0  0  0  0  0  0  0
   57.3091   27.6072   45.9209 H   0  0  0  0  0  0  0  0  0  0  0  0
   58.4850   29.4790   45.6440 C   0  0  0  0  0  0  0  0  0  0  0  0
   57.8620   29.9760   44.3980 C   0  0  0  0  0  0  0  0  0  0  0  0
   58.1940   31.1340   43.7130 C   0  0  0  0  0  0  0  0  0  0  0  0
   58.9689   31.8656   43.9856 H   0  0  0  0  0  0  0  0  0  0  0  0
   57.3540   31.1820   42.6190 C   0  0  0  0  0  0  0  0  0  0  0  0
   57.3920   32.2190   41.5440 C   0  0  0  0  0  0  0  0  0  0  0  0
   57.4286   33.2191   42.0005 H   0  0  0  0  0  0  0  0  0  0  0  0
   58.2852   32.0678   40.9201 H   0  0  0  0  0  0  0  0  0  0  0  0
   56.4901   32.1335   40.9201 H   0  0  0  0  0  0  0  0  0  0  0  0
   56.5440   30.1080   42.5970 N   0  0  0  0  0  0  0  0  0  0  0  0
   55.8270   29.8800   41.8740 H   0  0  0  0  0  0  0  0  0  0  0  0
   56.8410   29.3700   43.6820 C   0  0  0  0  0  0  0  0  0  0  0  0
   56.3476   28.4269   43.9595 H   0  0  0  0  0  0  0  0  0  0  0  0
   59.4850   30.1510   46.2840 N   0  0  0  0  0  0  0  0  0  0  0  0
   59.8520   31.0730   45.9660 H   0  0  0  0  0  0  0  0  0  0  0  0
   60.5710   32.2000   48.9300 N   0  0  0  0  0  0  0  0  0  0  0  0
   60.0570   32.9290   48.3880 H   0  0  0  0  0  0  0  0  0  0  0  0
   60.4980   32.2520   49.9670 H   0  0  0  0  0  0  0  0  0  0  0  0
   59.2640   34.8060   45.3710 C   0  0  0  0  0  0  0  0  0  0  0  0
   59.8600   35.6267   44.9453 H   0  0  0  0  0  0  0  0  0  0  0  0
   57.9830   34.5380   44.8830 C   0  0  0  0  0  0  0  0  0  0  0  0
   57.5659   35.1471   44.0675 H   0  0  0  0  0  0  0  0  0  0  0  0
   57.2330   33.4970   45.4310 C   0  0  0  0  0  0  0  0  0  0  0  0
   56.2229   33.2806   45.0531 H   0  0  0  0  0  0  0  0  0  0  0  0
  1  2  1  0
  2  3  1  0
  3  4  1  0
  4  5  2  0
  5  6  1  0
  6  7  1  0
  6  8  1  0
  6  9  1  0
  9 10  1  0
  9 11  1  0
  9 12  1  0
 12 13  1  0
 12 14  1  0
 14 15  1  0
 15 16  2  0
 16 17  1  0
 17 18  1  0
 18 19  1  0
 18 20  2  0
 20 21  1  0
 21 22  1  0
 22 23  1  0
 22 24  2  0
 24 25  1  0
 25 26  1  0
 25 27  1  0
 25 28  1  0
 24 29  1  0
 29 30  1  0
 29 31  1  0
 31 32  1  0
 20 33  1  0
 33 34  1  0
 14 35  2  0
 35 36  1  0
 35 37  1  0
  4 38  1  0
 38 39  1  0
 38 40  2  0
 40 41  1  0
 40 42  1  0
 42 43  1  0
 42  2  2  0
 33 16  1  0
 31 21  2  0
M  CHG  2   3  -1  35   1
M  END
>  <UniqueID>  (49) 
47

>  <SMILES>  (49) 
Cc1cc(-c2cs/c(=N/C(=[NH2+])NCC/N=c3\cccc[n-]3)[nH]2)c[nH]1

>  <Energy>  (49) 
105.49702713563481

>  <Genealogy>  (49) 
Cc1cc(-c2csc(=NC(=[NH2+])NCCN=c3cccc[n-]3)[nH]2)c[nH]1 (protonated)
Cc1cc(-c2cs/c(=N/C(=[NH2+])NCC/N=c3\cccc[n-]3)[nH]2)c[nH]1 (cis-trans isomerization)
Cc1cc(-c2cs/c(=N/C(=[NH2+])NCC/N=c3\cccc[n-]3)[nH]2)c[nH]1 (3D coordinates assigned)
Cc1cc(-c2cs/c(=N/C(=[NH2+])NCC/N=c3\cccc[n-]3)[nH]2)c[nH]1 (optimized conformer: 105.49702713563481 kcal/mol)

>  <smiles>  (49) 
Cc1cc(-c2csc(=NC(=N)NCCN=c3cccc[nH]3)[nH]2)c[nH]1

>  <score_type>  (49) 
oracle

>  <origin>  (49) 
adg

>  <m_score__min__energy>  (49) 
-7.6200000000000001

>  <m_primary>  (49) 
energy

$$$$
49:0
     RDKit          3D

 37 39  0  0  0  0  0  0  0  0999 V2000
   55.6110   26.4020   46.4090 O   0  0  0  0  0  0  0  0  0  0  0  0
   56.7900   26.7380   46.1110 C   0  0  0  0  0  0  0  0  0  0  0  0
   57.8750   26.5900   47.1330 C   0  0  0  0  0  0  0  0  0  0  0  0
   58.7470   27.7770   47.1380 N   0  0  0  0  0  0  0  0  0  0  0  0
   58.2920   28.9400   47.6990 C   0  0  0  0  0  0  0  0  0  0  0  0
   59.0580   30.0630   47.6850 N   0  0  0  0  0  0  0  0  0  0  0  0
   60.2970   30.0710   47.1120 C   0  0  0  0  0  0  0  0  0  0  0  0
   61.1180   31.3100   47.1100 C   0  0  0  0  0  0  0  0  0  0  0  0
   60.5500   32.5520   46.7600 C   0  0  0  0  0  0  0  0  0  0  0  0
   61.3270   33.7140   46.7670 C   0  0  0  0  0  0  0  0  0  0  0  0
   62.6770   33.6530   47.1260 C   0  0  0  0  0  0  0  0  0  0  0  0
   63.2520   32.4290   47.4760 C   0  0  0  0  0  0  0  0  0  0  0  0
   62.4790   31.2620   47.4680 C   0  0  0  0  0  0  0  0  0  0  0  0
   60.7810   28.8920   46.5280 C   0  0  0  0  0  0  0  0  0  0  0  0
   59.9820   27.7470   46.5440 C   0  0  0  0  0  0  0  0  0  0  0  0
   60.4110   26.6910   46.0030 O   0  0  0  0  0  0  0  0  0  0  0  0
   57.0610   27.4180   44.8780 N   0  0  0  0  0  0  0  0  0  0  0  0
   57.2620   28.6900   44.6710 C   0  0  0  0  0  0  0  0  0  0  0  0
   58.5310   29.0890   44.3740 N   0  0  0  0  0  0  0  0  0  0  0  0
   58.8590   30.3860   44.1410 C   0  0  0  0  0  0  0  0  0  0  0  0
   57.8770   31.3720   44.1940 C   0  0  0  0  0  0  0  0  0  0  0  0
   56.5600   31.0080   44.4670 C   0  0  0  0  0  0  0  0  0  0  0  0
   56.2300   29.6670   44.6890 C   0  0  0  0  0  0  0  0  0  0  0  0
   54.8930   29.3410   44.8710 O   0  0  0  0  0  0  0  0  0  0  0  0
   57.4209   26.4707   48.1278 H   0  0  0  0  0  0  0  0  0  0  0  0
   58.4801   25.7061   46.8827 H   0  0  0  0  0  0  0  0  0  0  0  0
   57.2963   28.9660   48.1659 H   0  0  0  0  0  0  0  0  0  0  0  0
   58.6600   30.9360   48.1020 H   0  0  0  0  0  0  0  0  0  0  0  0
   59.4878   32.6070   46.4794 H   0  0  0  0  0  0  0  0  0  0  0  0
   60.8756   34.6780   46.4896 H   0  0  0  0  0  0  0  0  0  0  0  0
   63.2862   34.5688   47.1328 H   0  0  0  0  0  0  0  0  0  0  0  0
   64.3141   32.3821   47.7584 H   0  0  0  0  0  0  0  0  0  0  0  0
   62.9379   30.3009   47.7432 H   0  0  0  0  0  0  0  0  0  0  0  0
   61.7776   28.8692   46.0630 H   0  0  0  0  0  0  0  0  0  0  0  0
   59.8997   30.6576   43.9105 H   0  0  0  0  0  0  0  0  0  0  0  0
   58.1382   32.4266   44.0222 H   0  0  0  0  0  0  0  0  0  0  0  0
   55.7763   31.7787   44.5081 H   0  0  0  0  0  0  0  0  0  0  0  0
  1  2  2  0
  2  3  1  0
  3  4  1  0
  4  5  1  0
  5  6  2  0
  6  7  1  0
  7  8  1  0
  8  9  2  0
  9 10  1  0
 10 11  2  0
 11 12  1  0
 12 13  2  0
  7 14  2  0
 14 15  1  0
 15 16  2  0
  2 17  1  0
 17 18  2  3
 18 19  1  0
 19 20  1  0
 20 21  2  0
 21 22  1  0
 22 23  2  0
 23 24  1  0
 15  4  1  0
 23 18  1  0
 13  8  1  0
  3 25  1  0
  3 26  1  0
  5 27  1  0
  6 28  1  0
  9 29  1  0
 10 30  1  0
 11 31  1  0
 12 32  1  0
 13 33  1  0
 14 34  1  0
 20 35  1  0
 21 36  1  0
 22 37  1  0
M  CHG  3   6   1  19  -1  24  -1
M  END
>  <UniqueID>  (50) 
48

>  <SMILES>  (50) 
O=C(Cn1c[nH+]c(-c2ccccc2)cc1=O)N=c1[n-]cccc1[O-]

>  <Energy>  (50) 
57.80780081732183

>  <Genealogy>  (50) 
O=C(Cn1c[nH+]c(-c2ccccc2)cc1=O)N=c1[n-]cccc1[O-] (protonated)
O=C(Cn1c[nH+]c(-c2ccccc2)cc1=O)N=c1[n-]cccc1[O-] (3D coordinates assigned)
O=C(Cn1c[nH+]c(-c2ccccc2)cc1=O)N=c1[n-]cccc1[O-] (optimized conformer: 57.80780081732183 kcal/mol)

>  <smiles>  (50) 
O=C(Cn1cnc(-c2ccccc2)cc1=O)N=c1[nH]cccc1O

>  <score_type>  (50) 
oracle

>  <origin>  (50) 
adg

>  <m_score__min__energy>  (50) 
-11.93

>  <m_primary>  (50) 
energy

$$$$
50:0
     RDKit          3D

 56 59  0  0  0  0  0  0  0  0999 V2000
   55.4940   29.7860   44.8840 O   0  0  0  0  0  0  0  0  0  0  0  0
   56.2760   28.7980   44.9260 C   0  0  0  0  0  0  0  0  0  0  0  0
   57.5660   28.8390   44.1740 C   0  0  0  0  0  0  0  0  0  0  0  0
   58.5430   29.7200   44.9080 C   0  0  0  0  0  0  0  0  0  0  0  0
   59.8070   29.2230   45.2690 C   0  0  0  0  0  0  0  0  0  0  0  0
   60.6820   30.0010   46.0350 C   0  0  0  0  0  0  0  0  0  0  0  0
   60.3040   31.2880   46.4650 C   0  0  0  0  0  0  0  0  0  0  0  0
   61.2230   32.0980   47.3090 C   0  0  0  0  0  0  0  0  0  0  0  0
   62.5850   31.7580   47.4130 C   0  0  0  0  0  0  0  0  0  0  0  0
   63.4490   32.5300   48.1960 C   0  0  0  0  0  0  0  0  0  0  0  0
   62.9640   33.6470   48.8810 C   0  0  0  0  0  0  0  0  0  0  0  0
   61.6150   33.9950   48.7860 C   0  0  0  0  0  0  0  0  0  0  0  0
   60.7470   33.2260   48.0050 C   0  0  0  0  0  0  0  0  0  0  0  0
   59.0380   31.7850   46.0980 C   0  0  0  0  0  0  0  0  0  0  0  0
   58.1640   31.0050   45.3310 C   0  0  0  0  0  0  0  0  0  0  0  0
   55.9000   27.6070   45.6210 N   0  0  0  0  0  0  0  0  0  0  0  0
   56.7590   26.4280   45.7110 C   0  0  2  0  0  0  0  0  0  0  0  0
   55.9060   25.1480   45.8000 C   0  0  0  0  0  0  0  0  0  0  0  0
   56.4340   24.0130   44.9520 C   0  0  0  0  0  0  0  0  0  0  0  0
   57.5460   23.2640   45.3850 C   0  0  0  0  0  0  0  0  0  0  0  0
   58.0100   22.1860   44.6240 C   0  0  0  0  0  0  0  0  0  0  0  0
   57.3740   21.8540   43.4250 C   0  0  0  0  0  0  0  0  0  0  0  0
   56.2690   22.5950   42.9850 C   0  0  0  0  0  0  0  0  0  0  0  0
   55.7990   23.6700   43.7450 C   0  0  0  0  0  0  0  0  0  0  0  0
   57.6960   26.5580   46.8840 C   0  0  0  0  0  0  0  0  0  0  0  0
   58.1680   25.5160   47.4290 O   0  0  0  0  0  0  0  0  0  0  0  0
   57.9590   27.8640   47.4340 N   0  0  0  0  0  0  0  0  0  0  0  0
   58.9000   28.2070   48.2750 C   0  0  0  0  0  0  0  0  0  0  0  0
   59.9880   27.3700   48.5930 C   0  0  0  0  0  0  0  0  0  0  0  0
   60.9410   27.8000   49.5230 C   0  0  0  0  0  0  0  0  0  0  0  0
   60.8200   29.0280   50.1080 N   0  0  0  0  0  0  0  0  0  0  0  0
   59.7860   29.8640   49.8130 C   0  0  0  0  0  0  0  0  0  0  0  0
   58.8270   29.4740   48.8770 C   0  0  0  0  0  0  0  0  0  0  0  0
   57.9770   27.8218   44.0939 H   0  0  0  0  0  0  0  0  0  0  0  0
   57.3918   29.2426   43.1656 H   0  0  0  0  0  0  0  0  0  0  0  0
   60.1104   28.2158   44.9473 H   0  0  0  0  0  0  0  0  0  0  0  0
   61.6724   29.6047   46.3034 H   0  0  0  0  0  0  0  0  0  0  0  0
   62.9720   30.8799   46.8752 H   0  0  0  0  0  0  0  0  0  0  0  0
   64.5119   32.2575   48.2727 H   0  0  0  0  0  0  0  0  0  0  0  0
   63.6457   34.2530   49.4959 H   0  0  0  0  0  0  0  0  0  0  0  0
   61.2350   34.8748   49.3260 H   0  0  0  0  0  0  0  0  0  0  0  0
   59.6851   33.5039   47.9337 H   0  0  0  0  0  0  0  0  0  0  0  0
   58.7339   32.7931   46.4163 H   0  0  0  0  0  0  0  0  0  0  0  0
   57.1746   31.4007   45.0580 H   0  0  0  0  0  0  0  0  0  0  0  0
   57.3704   26.3548   44.7995 H   0  0  0  0  0  0  0  0  0  0  0  0
   55.8821   24.8174   46.8489 H   0  0  0  0  0  0  0  0  0  0  0  0
   54.9048   25.3985   45.4194 H   0  0  0  0  0  0  0  0  0  0  0  0
   58.0515   23.5281   46.3256 H   0  0  0  0  0  0  0  0  0  0  0  0
   58.8747   21.6002   44.9691 H   0  0  0  0  0  0  0  0  0  0  0  0
   57.7417   21.0087   42.8248 H   0  0  0  0  0  0  0  0  0  0  0  0
   55.7709   22.3305   42.0406 H   0  0  0  0  0  0  0  0  0  0  0  0
   54.9304   24.2490   43.3981 H   0  0  0  0  0  0  0  0  0  0  0  0
   60.0875   26.3851   48.1133 H   0  0  0  0  0  0  0  0  0  0  0  0
   61.7882   27.1484   49.7830 H   0  0  0  0  0  0  0  0  0  0  0  0
   59.7071   30.8421   50.3102 H   0  0  0  0  0  0  0  0  0  0  0  0
   58.0109   30.1614   48.6097 H   0  0  0  0  0  0  0  0  0  0  0  0
  1  2  2  0
  2  3  1  0
  3  4  1  0
  4  5  2  0
  5  6  1  0
  6  7  2  0
  7  8  1  0
  8  9  2  0
  9 10  1  0
 10 11  2  0
 11 12  1  0
 12 13  2  0
  7 14  1  0
 14 15  2  0
  2 16  1  0
 16 17  1  0
 17 18  1  0
 18 19  1  0
 19 20  2  0
 20 21  1  0
 21 22  2  0
 22 23  1  0
 23 24  2  0
 17 25  1  0
 25 26  2  0
 25 27  1  0
 27 28  2  3
 28 29  1  0
 29 30  2  0
 30 31  1  0
 31 32  1  0
 32 33  2  0
 15  4  1  0
 24 19  1  0
 33 28  1  0
 13  8  1  0
  3 34  1  0
  3 35  1  0
  5 36  1  0
  6 37  1  0
  9 38  1  0
 10 39  1  0
 11 40  1  0
 12 41  1  0
 13 42  1  0
 14 43  1  0
 15 44  1  0
 17 45  1  6
 18 46  1  0
 18 47  1  0
 20 48  1  0
 21 49  1  0
 22 50  1  0
 23 51  1  0
 24 52  1  0
 29 53  1  0
 30 54  1  0
 32 55  1  0
 33 56  1  0
M  CHG  2  16  -1  31  -1
M  END
>  <UniqueID>  (51) 
49

>  <SMILES>  (51) 
O=C(Cc1ccc(-c2ccccc2)cc1)[N-][C@H](Cc1ccccc1)C(=O)N=c1cc[n-]cc1

>  <Energy>  (51) 
68.13080373355496

>  <Genealogy>  (51) 
O=C(Cc1ccc(-c2ccccc2)cc1)[N-]C(Cc1ccccc1)C(=O)N=c1cc[n-]cc1 (protonated)
O=C(Cc1ccc(-c2ccccc2)cc1)[N-][C@H](Cc1ccccc1)C(=O)N=c1cc[n-]cc1 (chirality)
O=C(Cc1ccc(-c2ccccc2)cc1)[N-][C@H](Cc1ccccc1)C(=O)N=c1cc[n-]cc1 (3D coordinates assigned)
O=C(Cc1ccc(-c2ccccc2)cc1)[N-][C@H](Cc1ccccc1)C(=O)N=c1cc[n-]cc1 (optimized conformer: 68.13080373355496 kcal/mol)

>  <smiles>  (51) 
O=C(Cc1ccc(-c2ccccc2)cc1)NC(Cc1ccccc1)C(=O)N=c1cc[nH]cc1

>  <score_type>  (51) 
oracle

>  <origin>  (51) 
adg

>  <m_score__min__energy>  (51) 
-13.960000000000001

>  <m_primary>  (51) 
energy

$$$$
51:0
     RDKit          3D

 46 48  0  0  0  0  0  0  0  0999 V2000
   57.1120   34.6880   44.5590 O   0  0  0  0  0  0  0  0  0  0  0  0
   57.8970   33.9540   45.2180 C   0  0  0  0  0  0  0  0  0  0  0  0
   59.3690   34.2590   45.2030 C   0  0  0  0  0  0  0  0  0  0  0  0
   59.9500   34.2130   46.5930 C   0  0  0  0  0  0  0  0  0  0  0  0
   59.4340   34.9230   47.5000 O   0  0  0  0  0  0  0  0  0  0  0  0
   61.1210   33.3660   46.9230 C   0  0  0  0  0  0  0  0  0  0  0  0
   62.4070   33.8400   46.6120 C   0  0  0  0  0  0  0  0  0  0  0  0
   63.5380   33.0780   46.9070 C   0  0  0  0  0  0  0  0  0  0  0  0
   63.3990   31.8290   47.5110 C   0  0  0  0  0  0  0  0  0  0  0  0
   62.1300   31.3330   47.8110 C   0  0  0  0  0  0  0  0  0  0  0  0
   60.9760   32.0850   47.5080 C   0  0  0  0  0  0  0  0  0  0  0  0
   59.6840   31.5850   47.7550 O   0  0  0  0  0  0  0  0  0  0  0  0
   59.2840   30.8400   48.9050 C   0  0  0  0  0  0  0  0  0  0  0  0
   58.9330   31.7620   50.0420 C   0  0  0  0  0  0  0  0  0  0  0  0
   59.6510   32.9540   50.2440 C   0  0  0  0  0  0  0  0  0  0  0  0
   59.3120   33.8090   51.2960 C   0  0  0  0  0  0  0  0  0  0  0  0
   58.2510   33.4890   52.1470 C   0  0  0  0  0  0  0  0  0  0  0  0
   57.5250   32.3130   51.9450 C   0  0  0  0  0  0  0  0  0  0  0  0
   57.8600   31.4540   50.8940 C   0  0  0  0  0  0  0  0  0  0  0  0
   57.3600   32.7950   45.9500 C   0  0  0  0  0  0  0  0  0  0  0  0
   57.3800   32.7810   47.2110 O   0  0  0  0  0  0  0  0  0  0  0  0
   56.8710   31.6650   45.2170 N   0  0  0  0  0  0  0  0  0  0  0  0
   57.5460   30.4120   45.0230 C   0  0  0  0  0  0  0  0  0  0  0  0
   58.9510   30.3140   45.0340 C   0  0  0  0  0  0  0  0  0  0  0  0
   59.5700   29.0710   44.8640 C   0  0  0  0  0  0  0  0  0  0  0  0
   58.7980   27.9200   44.6940 C   0  0  0  0  0  0  0  0  0  0  0  0
   57.4040   28.0070   44.7050 C   0  0  0  0  0  0  0  0  0  0  0  0
   56.7800   29.2470   44.8770 C   0  0  0  0  0  0  0  0  0  0  0  0
   55.4240   29.3150   44.8890 F   0  0  0  0  0  0  0  0  0  0  0  0
   59.8828   33.5165   44.5747 H   0  0  0  0  0  0  0  0  0  0  0  0
   59.5103   35.2728   44.8001 H   0  0  0  0  0  0  0  0  0  0  0  0
   62.5231   34.8223   46.1308 H   0  0  0  0  0  0  0  0  0  0  0  0
   64.5393   33.4626   46.6631 H   0  0  0  0  0  0  0  0  0  0  0  0
   64.2919   31.2334   47.7515 H   0  0  0  0  0  0  0  0  0  0  0  0
   62.0287   30.3470   48.2879 H   0  0  0  0  0  0  0  0  0  0  0  0
   58.4052   30.2289   48.6514 H   0  0  0  0  0  0  0  0  0  0  0  0
   60.1197   30.1965   49.2172 H   0  0  0  0  0  0  0  0  0  0  0  0
   60.4820   33.2142   49.5719 H   0  0  0  0  0  0  0  0  0  0  0  0
   59.8819   34.7364   51.4546 H   0  0  0  0  0  0  0  0  0  0  0  0
   57.9876   34.1629   52.9756 H   0  0  0  0  0  0  0  0  0  0  0  0
   56.6884   32.0623   52.6138 H   0  0  0  0  0  0  0  0  0  0  0  0
   57.2805   30.5328   50.7338 H   0  0  0  0  0  0  0  0  0  0  0  0
   59.5630   31.2169   45.1766 H   0  0  0  0  0  0  0  0  0  0  0  0
   60.6677   29.0002   44.8643 H   0  0  0  0  0  0  0  0  0  0  0  0
   59.2874   26.9452   44.5515 H   0  0  0  0  0  0  0  0  0  0  0  0
   56.7960   27.0991   44.5782 H   0  0  0  0  0  0  0  0  0  0  0  0
  1  2  2  0
  2  3  1  0
  3  4  1  0
  4  5  2  0
  4  6  1  0
  6  7  2  0
  7  8  1  0
  8  9  2  0
  9 10  1  0
 10 11  2  0
 11 12  1  0
 12 13  1  0
 13 14  1  0
 14 15  2  0
 15 16  1  0
 16 17  2  0
 17 18  1  0
 18 19  2  0
  2 20  1  0
 20 21  2  0
 20 22  1  0
 22 23  1  0
 23 24  2  0
 24 25  1  0
 25 26  2  0
 26 27  1  0
 27 28  2  0
 28 29  1  0
 11  6  1  0
 19 14  1  0
 28 23  1  0
  3 30  1  0
  3 31  1  0
  7 32  1  0
  8 33  1  0
  9 34  1  0
 10 35  1  0
 13 36  1  0
 13 37  1  0
 15 38  1  0
 16 39  1  0
 17 40  1  0
 18 41  1  0
 19 42  1  0
 24 43  1  0
 25 44  1  0
 26 45  1  0
 27 46  1  0
M  CHG  1  22  -1
M  END
>  <UniqueID>  (52) 
50

>  <SMILES>  (52) 
O=C(CC(=O)c1ccccc1OCc1ccccc1)C(=O)[N-]c1ccccc1F

>  <Energy>  (52) 
54.91021635338092

>  <Genealogy>  (52) 
O=C(CC(=O)c1ccccc1OCc1ccccc1)C(=O)[N-]c1ccccc1F (protonated)
O=C(CC(=O)c1ccccc1OCc1ccccc1)C(=O)[N-]c1ccccc1F (3D coordinates assigned)
O=C(CC(=O)c1ccccc1OCc1ccccc1)C(=O)[N-]c1ccccc1F (optimized conformer: 54.91021635338092 kcal/mol)

>  <smiles>  (52) 
O=C(CC(=O)c1ccccc1OCc1ccccc1)C(=O)Nc1ccccc1F

>  <score_type>  (52) 
oracle

>  <origin>  (52) 
adg

>  <m_score__min__energy>  (52) 
-10.19

>  <m_primary>  (52) 
energy

$$$$
52:0
     RDKit          3D

 59 61  0  0  0  0  0  0  0  0999 V2000
   58.1230   34.1350   45.5640 C   0  0  0  0  0  0  0  0  0  0  0  0
   57.4140   32.7850   45.5680 C   0  0  0  0  0  0  0  0  0  0  0  0
   58.1380   31.7740   44.6720 C   0  0  0  0  0  0  0  0  0  0  0  0
   58.3350   30.4620   45.4060 C   0  0  0  0  0  0  0  0  0  0  0  0
   59.4700   30.2970   46.2290 C   0  0  0  0  0  0  0  0  0  0  0  0
   60.3530   31.3760   46.4060 O   0  0  0  0  0  0  0  0  0  0  0  0
   60.4150   32.1850   47.5510 C   0  0  0  0  0  0  0  0  0  0  0  0
   59.2780   32.2690   48.3590 C   0  0  0  0  0  0  0  0  0  0  0  0
   59.2650   33.0990   49.4780 C   0  0  0  0  0  0  0  0  0  0  0  0
   60.4010   33.8330   49.8160 C   0  0  0  0  0  0  0  0  0  0  0  0
   61.5780   33.7210   49.0540 C   0  0  0  0  0  0  0  0  0  0  0  0
   62.7350   34.4320   49.4070 O   0  0  0  0  0  0  0  0  0  0  0  0
   63.7640   33.9480   50.2250 C   0  0  0  0  0  0  0  0  0  0  0  0
   63.9910   34.5510   51.4190 N   0  0  0  0  0  0  0  0  0  0  0  0
   64.9830   34.1310   52.2470 C   0  0  0  0  0  0  0  0  0  0  0  0
   65.2040   34.7550   53.4780 O   0  0  0  0  0  0  0  0  0  0  0  0
   65.4710   36.1490   53.5960 C   0  0  0  0  0  0  0  0  0  0  0  0
   65.7930   33.0620   51.8650 C   0  0  0  0  0  0  0  0  0  0  0  0
   65.5680   32.4540   50.6190 C   0  0  0  0  0  0  0  0  0  0  0  0
   66.3520   31.3840   50.1590 O   0  0  0  0  0  0  0  0  0  0  0  0
   67.0970   30.5100   51.0010 C   0  0  0  0  0  0  0  0  0  0  0  0
   64.5640   32.9160   49.8250 N   0  0  0  0  0  0  0  0  0  0  0  0
   61.5870   32.8990   47.9040 C   0  0  0  0  0  0  0  0  0  0  0  0
   62.8320   32.7260   47.1190 C   0  0  0  0  0  0  0  0  0  0  0  0
   63.3800   33.8310   46.2680 C   0  0  0  0  0  0  0  0  0  0  0  0
   63.4520   31.6310   47.1690 O   0  0  0  0  0  0  0  0  0  0  0  0
   59.7200   29.0520   46.8350 C   0  0  0  0  0  0  0  0  0  0  0  0
   58.8540   27.9690   46.6370 C   0  0  0  0  0  0  0  0  0  0  0  0
   59.1270   26.6680   47.2910 C   0  0  0  0  0  0  0  0  0  0  0  0
   58.1960   25.8410   47.4830 O   0  0  0  0  0  0  0  0  0  0  0  0
   60.4130   26.3430   47.7040 O   0  0  0  0  0  0  0  0  0  0  0  0
   57.7340   28.1340   45.8120 C   0  0  0  0  0  0  0  0  0  0  0  0
   57.4640   29.3640   45.1970 C   0  0  0  0  0  0  0  0  0  0  0  0
   56.3060   29.4780   44.3590 N   0  0  0  0  0  0  0  0  0  0  0  0
   55.1670   29.3960   44.8620 O   0  0  0  0  0  0  0  0  0  0  0  0
   56.4340   29.9680   43.0790 O   0  0  0  0  0  0  0  0  0  0  0  0
   58.2948   34.4620   46.6001 H   0  0  0  0  0  0  0  0  0  0  0  0
   59.0880   34.0408   45.0445 H   0  0  0  0  0  0  0  0  0  0  0  0
   57.4977   34.8760   45.0445 H   0  0  0  0  0  0  0  0  0  0  0  0
   57.3872   32.3972   46.5970 H   0  0  0  0  0  0  0  0  0  0  0  0
   56.3948   32.9266   45.1792 H   0  0  0  0  0  0  0  0  0  0  0  0
   57.5377   31.5965   43.7675 H   0  0  0  0  0  0  0  0  0  0  0  0
   59.1228   32.1810   44.3988 H   0  0  0  0  0  0  0  0  0  0  0  0
   58.3863   31.6752   48.1096 H   0  0  0  0  0  0  0  0  0  0  0  0
   58.3577   33.1752   50.0952 H   0  0  0  0  0  0  0  0  0  0  0  0
   60.3767   34.5055   50.6861 H   0  0  0  0  0  0  0  0  0  0  0  0
   65.5236   36.4235   54.6599 H   0  0  0  0  0  0  0  0  0  0  0  0
   66.4299   36.3811   53.1096 H   0  0  0  0  0  0  0  0  0  0  0  0
   64.6657   36.7190   53.1096 H   0  0  0  0  0  0  0  0  0  0  0  0
   66.5937   32.7015   52.5275 H   0  0  0  0  0  0  0  0  0  0  0  0
   66.8910   30.7516   52.0542 H   0  0  0  0  0  0  0  0  0  0  0  0
   66.8042   29.4690   50.7996 H   0  0  0  0  0  0  0  0  0  0  0  0
   68.1712   30.6343   50.7996 H   0  0  0  0  0  0  0  0  0  0  0  0
   64.4290   32.4810   48.8860 H   0  0  0  0  0  0  0  0  0  0  0  0
   63.7758   34.6290   46.9134 H   0  0  0  0  0  0  0  0  0  0  0  0
   64.1879   33.4385   45.6330 H   0  0  0  0  0  0  0  0  0  0  0  0
   62.5786   34.2366   45.6330 H   0  0  0  0  0  0  0  0  0  0  0  0
   60.6075   28.9275   47.4729 H   0  0  0  0  0  0  0  0  0  0  0  0
   57.0556   27.2845   45.6442 H   0  0  0  0  0  0  0  0  0  0  0  0
  1  2  1  0
  2  3  1  0
  3  4  1  0
  4  5  2  0
  5  6  1  0
  6  7  1  0
  7  8  2  0
  8  9  1  0
  9 10  2  0
 10 11  1  0
 11 12  1  0
 12 13  1  0
 13 14  2  0
 14 15  1  0
 15 16  1  0
 16 17  1  0
 15 18  2  0
 18 19  1  0
 19 20  1  0
 20 21  1  0
 19 22  2  0
 11 23  2  0
 23 24  1  0
 24 25  1  0
 24 26  2  0
  5 27  1  0
 27 28  2  0
 28 29  1  0
 29 30  2  0
 29 31  1  0
 28 32  1  0
 32 33  2  0
 33 34  1  0
 34 35  2  0
 34 36  1  0
 33  4  1  0
 23  7  1  0
 22 13  1  0
  1 37  1  0
  1 38  1  0
  1 39  1  0
  2 40  1  0
  2 41  1  0
  3 42  1  0
  3 43  1  0
  8 44  1  0
  9 45  1  0
 10 46  1  0
 17 47  1  0
 17 48  1  0
 17 49  1  0
 18 50  1  0
 21 51  1  0
 21 52  1  0
 21 53  1  0
 22 54  1  0
 25 55  1  0
 25 56  1  0
 25 57  1  0
 27 58  1  0
 32 59  1  0
M  CHG  4  22   1  31  -1  34   1  36  -1
M  END
>  <UniqueID>  (53) 
51

>  <SMILES>  (53) 
CCCc1c(Oc2cccc(Oc3nc(OC)cc(OC)[nH+]3)c2C(C)=O)cc(C(=O)[O-])cc1[N+](=O)[O-]

>  <Energy>  (53) 
79.09554537330187

>  <Genealogy>  (53) 
CCCc1c(Oc2cccc(Oc3nc(OC)cc(OC)[nH+]3)c2C(C)=O)cc(C(=O)[O-])cc1[N+](=O)[O-] (protonated)
CCCc1c(Oc2cccc(Oc3nc(OC)cc(OC)[nH+]3)c2C(C)=O)cc(C(=O)[O-])cc1[N+](=O)[O-] (3D coordinates assigned)
CCCc1c(Oc2cccc(Oc3nc(OC)cc(OC)[nH+]3)c2C(C)=O)cc(C(=O)[O-])cc1[N+](=O)[O-] (optimized conformer: 79.09554537330187 kcal/mol)

>  <smiles>  (53) 
CCCc1c(Oc2cccc(Oc3nc(OC)cc(OC)n3)c2C(C)=O)cc(C(=O)O)cc1[N+](=O)[O-]

>  <score_type>  (53) 
oracle

>  <origin>  (53) 
adg

>  <m_score__min__energy>  (53) 
-9.0500000000000007

>  <m_primary>  (53) 
energy

$$$$
53:0
     RDKit          3D

 65 68  0  0  0  0  0  0  0  0999 V2000
   63.6110   32.0290   49.8700 C   0  0  0  0  0  0  0  0  0  0  0  0
   62.5160   31.4960   48.9940 C   0  0  0  0  0  0  0  0  0  0  0  0
   62.5420   31.7170   47.6080 C   0  0  0  0  0  0  0  0  0  0  0  0
   61.5380   31.1850   46.7920 C   0  0  0  0  0  0  0  0  0  0  0  0
   60.5130   30.4180   47.3510 C   0  0  0  0  0  0  0  0  0  0  0  0
   60.4920   30.1600   48.7300 C   0  0  0  0  0  0  0  0  0  0  0  0
   59.3720   29.3500   49.3370 C   0  0  0  0  0  0  0  0  0  0  0  0
   58.4960   28.8520   48.3300 O   0  0  0  0  0  0  0  0  0  0  0  0
   58.7350   27.6830   47.6010 C   0  0  0  0  0  0  0  0  0  0  0  0
   59.9000   27.3880   47.2250 O   0  0  0  0  0  0  0  0  0  0  0  0
   57.6550   26.8060   47.2900 N   0  0  0  0  0  0  0  0  0  0  0  0
   56.8290   26.8730   45.7690 S   0  0  0  0  0  0  0  0  0  0  0  0
   57.3110   25.7550   44.8870 O   0  0  0  0  0  0  0  0  0  0  0  0
   55.3560   26.6950   46.0030 O   0  0  0  0  0  0  0  0  0  0  0  0
   57.1050   28.4340   44.9990 C   0  0  0  0  0  0  0  0  0  0  0  0
   56.0210   29.2330   44.6060 C   0  0  0  0  0  0  0  0  0  0  0  0
   56.2440   30.4590   43.9770 C   0  0  0  0  0  0  0  0  0  0  0  0
   57.5530   30.9050   43.7390 C   0  0  0  0  0  0  0  0  0  0  0  0
   57.8010   32.2690   43.1560 C   0  0  0  0  0  0  0  0  0  0  0  0
   58.3470   33.1470   44.1880 N   0  0  0  0  0  0  0  0  0  0  0  0
   57.8450   33.1380   45.5330 C   0  0  0  0  0  0  0  0  0  0  0  0
   56.6350   32.8540   45.7420 O   0  0  0  0  0  0  0  0  0  0  0  0
   58.7300   33.4520   46.6800 C   0  0  0  0  0  0  0  0  0  0  0  0
   59.8820   34.2350   46.4890 C   0  0  0  0  0  0  0  0  0  0  0  0
   60.7030   34.5640   47.5700 C   0  0  0  0  0  0  0  0  0  0  0  0
   60.3820   34.1220   48.8540 C   0  0  0  0  0  0  0  0  0  0  0  0
   59.2330   33.3470   49.0690 C   0  0  0  0  0  0  0  0  0  0  0  0
   58.9130   32.8830   50.3940 N   0  0  0  0  0  0  0  0  0  0  0  0
   59.6180   33.4430   51.5550 C   0  0  0  0  0  0  0  0  0  0  0  0
   59.7500   32.4060   52.6960 C   0  0  0  0  0  0  0  0  0  0  0  0
   59.1140   31.1710   52.4120 O   0  0  0  0  0  0  0  0  0  0  0  0
   57.7820   31.4000   52.0040 C   0  0  0  0  0  0  0  0  0  0  0  0
   57.7690   31.9850   50.5900 C   0  0  0  0  0  0  0  0  0  0  0  0
   58.4110   33.0150   47.9780 C   0  0  0  0  0  0  0  0  0  0  0  0
   58.6380   30.1110   44.1440 C   0  0  0  0  0  0  0  0  0  0  0  0
   58.4140   28.8790   44.7640 C   0  0  0  0  0  0  0  0  0  0  0  0
   61.4930   30.7110   49.5480 C   0  0  0  0  0  0  0  0  0  0  0  0
   63.3341   31.8942   50.9260 H   0  0  0  0  0  0  0  0  0  0  0  0
   64.5440   31.4842   49.6632 H   0  0  0  0  0  0  0  0  0  0  0  0
   63.7578   33.0994   49.6632 H   0  0  0  0  0  0  0  0  0  0  0  0
   63.3541   32.3102   47.1623 H   0  0  0  0  0  0  0  0  0  0  0  0
   61.5557   31.3710   45.7080 H   0  0  0  0  0  0  0  0  0  0  0  0
   59.7182   30.0142   46.7067 H   0  0  0  0  0  0  0  0  0  0  0  0
   59.8011   28.5023   49.8914 H   0  0  0  0  0  0  0  0  0  0  0  0
   58.7957   30.0005   50.0113 H   0  0  0  0  0  0  0  0  0  0  0  0
   54.9921   28.8923   44.7941 H   0  0  0  0  0  0  0  0  0  0  0  0
   55.3896   31.0784   43.6665 H   0  0  0  0  0  0  0  0  0  0  0  0
   58.5183   32.1882   42.3260 H   0  0  0  0  0  0  0  0  0  0  0  0
   56.8541   32.6862   42.7826 H   0  0  0  0  0  0  0  0  0  0  0  0
   59.1690   33.7470   43.9440 H   0  0  0  0  0  0  0  0  0  0  0  0
   60.1387   34.5913   45.4804 H   0  0  0  0  0  0  0  0  0  0  0  0
   61.6048   35.1730   47.4088 H   0  0  0  0  0  0  0  0  0  0  0  0
   61.0331   34.3826   49.7015 H   0  0  0  0  0  0  0  0  0  0  0  0
   60.6239   33.7603   51.2428 H   0  0  0  0  0  0  0  0  0  0  0  0
   59.0360   34.2970   51.9319 H   0  0  0  0  0  0  0  0  0  0  0  0
   60.8190   32.2152   52.8716 H   0  0  0  0  0  0  0  0  0  0  0  0
   59.2524   32.8313   53.5800 H   0  0  0  0  0  0  0  0  0  0  0  0
   57.2287   30.4493   52.0115 H   0  0  0  0  0  0  0  0  0  0  0  0
   57.3059   32.1099   52.6963 H   0  0  0  0  0  0  0  0  0  0  0  0
   57.8231   31.1651   49.8587 H   0  0  0  0  0  0  0  0  0  0  0  0
   56.8400   32.5573   50.4506 H   0  0  0  0  0  0  0  0  0  0  0  0
   57.5089   32.4071   48.1413 H   0  0  0  0  0  0  0  0  0  0  0  0
   59.6671   30.4598   43.9727 H   0  0  0  0  0  0  0  0  0  0  0  0
   59.2676   28.2558   45.0689 H   0  0  0  0  0  0  0  0  0  0  0  0
   61.4746   30.5254   50.6321 H   0  0  0  0  0  0  0  0  0  0  0  0
  1  2  1  0
  2  3  2  0
  3  4  1  0
  4  5  2  0
  5  6  1  0
  6  7  1  0
  7  8  1  0
  8  9  1  0
  9 10  2  0
  9 11  1  0
 11 12  1  0
 12 13  2  0
 12 14  2  0
 12 15  1  0
 15 16  2  0
 16 17  1  0
 17 18  2  0
 18 19  1  0
 19 20  1  0
 20 21  1  0
 21 22  2  0
 21 23  1  0
 23 24  2  0
 24 25  1  0
 25 26  2  0
 26 27  1  0
 27 28  1  0
 28 29  1  0
 29 30  1  0
 30 31  1  0
 31 32  1  0
 32 33  1  0
 27 34  2  0
 18 35  1  0
 35 36  2  0
  6 37  2  0
 37  2  1  0
 36 15  1  0
 34 23  1  0
 33 28  1  0
  1 38  1  0
  1 39  1  0
  1 40  1  0
  3 41  1  0
  4 42  1  0
  5 43  1  0
  7 44  1  0
  7 45  1  0
 16 46  1  0
 17 47  1  0
 19 48  1  0
 19 49  1  0
 20 50  1  0
 24 51  1  0
 25 52  1  0
 26 53  1  0
 29 54  1  0
 29 55  1  0
 30 56  1  0
 30 57  1  0
 32 58  1  0
 32 59  1  0
 33 60  1  0
 33 61  1  0
 34 62  1  0
 35 63  1  0
 36 64  1  0
 37 65  1  0
M  CHG  1  11  -1
M  END
>  <UniqueID>  (54) 
52

>  <SMILES>  (54) 
Cc1cccc(COC(=O)[N-]S(=O)(=O)c2ccc(CNC(=O)c3cccc(N4CCOCC4)c3)cc2)c1

>  <Energy>  (54) 
74.92023050297638

>  <Genealogy>  (54) 
Cc1cccc(COC(=O)[N-]S(=O)(=O)c2ccc(CNC(=O)c3cccc(N4CCOCC4)c3)cc2)c1 (protonated)
Cc1cccc(COC(=O)[N-]S(=O)(=O)c2ccc(CNC(=O)c3cccc(N4CCOCC4)c3)cc2)c1 (3D coordinates assigned)
Cc1cccc(COC(=O)[N-]S(=O)(=O)c2ccc(CNC(=O)c3cccc(N4CCOCC4)c3)cc2)c1 (nonaromatic ring conformer: 74.92023050297638 kcal/mol)

>  <smiles>  (54) 
Cc1cccc(COC(=O)NS(=O)(=O)c2ccc(CNC(=O)c3cccc(N4CCOCC4)c3)cc2)c1

>  <score_type>  (54) 
oracle

>  <origin>  (54) 
adg

>  <m_score__min__energy>  (54) 
-11.31

>  <m_primary>  (54) 
energy

$$$$
54:0
     RDKit          3D

 49 52  0  0  0  0  0  0  0  0999 V2000
   54.9740   26.3760   45.9930 N   0  0  0  0  0  0  0  0  0  0  0  0
   56.4910   25.5820   46.2290 S   0  0  0  0  0  0  0  0  0  0  0  0
   56.4910   24.8810   47.5600 O   0  0  0  0  0  0  0  0  0  0  0  0
   56.6980   24.5600   45.1460 O   0  0  0  0  0  0  0  0  0  0  0  0
   57.7850   26.7740   46.1840 C   0  0  0  0  0  0  0  0  0  0  0  0
   59.1230   26.3590   46.2060 C   0  0  0  0  0  0  0  0  0  0  0  0
   60.1520   27.3030   46.1710 C   0  0  0  0  0  0  0  0  0  0  0  0
   59.8500   28.6660   46.1300 C   0  0  0  0  0  0  0  0  0  0  0  0
   58.5130   29.0980   46.1420 C   0  0  0  0  0  0  0  0  0  0  0  0
   58.1790   30.5360   46.0950 C   0  0  0  0  0  0  0  0  0  0  0  0
   57.2740   31.0470   45.2390 N   0  0  0  0  0  0  0  0  0  0  0  0
   57.3420   32.3750   45.4620 C   0  0  0  0  0  0  0  0  0  0  0  0
   56.6340   33.2050   44.8360 O   0  0  0  0  0  0  0  0  0  0  0  0
   58.2290   32.7410   46.4090 N   0  0  0  0  0  0  0  0  0  0  0  0
   58.7540   31.5720   46.8180 C   0  0  0  0  0  0  0  0  0  0  0  0
   59.7250   31.4780   47.9220 C   0  0  0  0  0  0  0  0  0  0  0  0
   59.3590   31.7840   49.0890 O   0  0  0  0  0  0  0  0  0  0  0  0
   61.0440   30.9600   47.6930 N   0  0  0  0  0  0  0  0  0  0  0  0
   62.1780   31.2560   48.5270 C   0  0  0  0  0  0  0  0  0  0  0  0
   62.3120   30.6040   49.7620 C   0  0  0  0  0  0  0  0  0  0  0  0
   63.4170   30.8570   50.5800 C   0  0  0  0  0  0  0  0  0  0  0  0
   64.4110   31.7620   50.1760 C   0  0  0  0  0  0  0  0  0  0  0  0
   65.5760   32.0290   51.0520 C   0  0  0  0  0  0  0  0  0  0  0  0
   66.1200   33.1640   51.0270 O   0  0  0  0  0  0  0  0  0  0  0  0
   66.0790   31.0480   51.9710 N   0  0  0  0  0  0  0  0  0  0  0  0
   66.2370   29.6450   51.7130 C   0  0  0  0  0  0  0  0  0  0  0  0
   65.3180   28.7470   52.2690 C   0  0  0  0  0  0  0  0  0  0  0  0
   65.4480   27.3730   52.0430 C   0  0  0  0  0  0  0  0  0  0  0  0
   66.5060   26.8870   51.2700 C   0  0  0  0  0  0  0  0  0  0  0  0
   67.4420   27.7740   50.7300 C   0  0  0  0  0  0  0  0  0  0  0  0
   68.7810   27.1630   49.7750 Cl  0  0  0  0  0  0  0  0  0  0  0  0
   67.3160   29.1490   50.9590 C   0  0  0  0  0  0  0  0  0  0  0  0
   64.2960   32.3840   48.9210 C   0  0  0  0  0  0  0  0  0  0  0  0
   63.1910   32.1340   48.1040 C   0  0  0  0  0  0  0  0  0  0  0  0
   57.4830   28.1430   46.1520 C   0  0  0  0  0  0  0  0  0  0  0  0
   55.1560   27.4040   46.0420 H   0  0  0  0  0  0  0  0  0  0  0  0
   59.3639   25.2866   46.2510 H   0  0  0  0  0  0  0  0  0  0  0  0
   61.2012   26.9726   46.1757 H   0  0  0  0  0  0  0  0  0  0  0  0
   60.6633   29.4054   46.0881 H   0  0  0  0  0  0  0  0  0  0  0  0
   61.1740   30.2900   46.9030 H   0  0  0  0  0  0  0  0  0  0  0  0
   61.5425   29.8891   50.0888 H   0  0  0  0  0  0  0  0  0  0  0  0
   63.5083   30.3427   51.5481 H   0  0  0  0  0  0  0  0  0  0  0  0
   64.4896   29.1240   52.8867 H   0  0  0  0  0  0  0  0  0  0  0  0
   64.7165   26.6738   52.4743 H   0  0  0  0  0  0  0  0  0  0  0  0
   66.6023   25.8067   51.0865 H   0  0  0  0  0  0  0  0  0  0  0  0
   68.0631   29.8440   50.5481 H   0  0  0  0  0  0  0  0  0  0  0  0
   65.0824   33.0731   48.5794 H   0  0  0  0  0  0  0  0  0  0  0  0
   63.1130   32.6271   47.1238 H   0  0  0  0  0  0  0  0  0  0  0  0
   56.4332   28.4710   46.1346 H   0  0  0  0  0  0  0  0  0  0  0  0
  1  2  1  0
  2  3  2  0
  2  4  2  0
  2  5  1  0
  5  6  2  0
  6  7  1  0
  7  8  2  0
  8  9  1  0
  9 10  1  0
 10 11  1  0
 11 12  1  0
 12 13  2  0
 12 14  1  0
 14 15  1  0
 15 16  1  0
 16 17  2  0
 16 18  1  0
 18 19  1  0
 19 20  2  0
 20 21  1  0
 21 22  2  0
 22 23  1  0
 23 24  2  0
 23 25  1  0
 25 26  1  0
 26 27  2  0
 27 28  1  0
 28 29  2  0
 29 30  1  0
 30 31  1  0
 30 32  2  0
 22 33  1  0
 33 34  2  0
  9 35  2  0
 35  5  1  0
 15 10  2  0
 34 19  1  0
 32 26  1  0
  1 36  1  0
  6 37  1  0
  7 38  1  0
  8 39  1  0
 18 40  1  0
 20 41  1  0
 21 42  1  0
 27 43  1  0
 28 44  1  0
 29 45  1  0
 32 46  1  0
 33 47  1  0
 34 48  1  0
 35 49  1  0
M  CHG  4   1  -1  11  -1  14  -1  25  -1
M  END
>  <UniqueID>  (55) 
53

>  <SMILES>  (55) 
[NH-]S(=O)(=O)c1cccc(-c2[n-]c(=O)[n-]c2C(=O)Nc2ccc(C(=O)[N-]c3cccc(Cl)c3)cc2)c1

>  <Energy>  (55) 
97.21832068224104

>  <Genealogy>  (55) 
[NH-]S(=O)(=O)c1cccc(-c2[n-]c(=O)[n-]c2C(=O)Nc2ccc(C(=O)[N-]c3cccc(Cl)c3)cc2)c1 (protonated)
[NH-]S(=O)(=O)c1cccc(-c2[n-]c(=O)[n-]c2C(=O)Nc2ccc(C(=O)[N-]c3cccc(Cl)c3)cc2)c1 (3D coordinates assigned)
[NH-]S(=O)(=O)c1cccc(-c2[n-]c(=O)[n-]c2C(=O)Nc2ccc(C(=O)[N-]c3cccc(Cl)c3)cc2)c1 (optimized conformer: 97.21832068224104 kcal/mol)

>  <smiles>  (55) 
NS(=O)(=O)c1cccc(-c2[nH]c(=O)[nH]c2C(=O)Nc2ccc(C(=O)Nc3cccc(Cl)c3)cc2)c1

>  <score_type>  (55) 
oracle

>  <origin>  (55) 
adg

>  <m_score__min__energy>  (55) 
-14.609999999999999

>  <m_primary>  (55) 
energy

$$$$
55:0
     RDKit          3D

 39 40  0  0  0  0  0  0  0  0999 V2000
   54.7810   26.3060   45.9930 N   0  0  0  0  0  0  0  0  0  0  0  0
   56.3820   25.6620   46.0910 S   0  0  0  0  0  0  0  0  0  0  0  0
   56.5360   24.5570   45.0840 O   0  0  0  0  0  0  0  0  0  0  0  0
   56.6180   25.1040   47.4660 O   0  0  0  0  0  0  0  0  0  0  0  0
   57.5440   26.9460   45.7700 C   0  0  0  0  0  0  0  0  0  0  0  0
   58.9060   26.6600   45.6160 C   0  0  0  0  0  0  0  0  0  0  0  0
   59.8130   27.6900   45.3620 C   0  0  0  0  0  0  0  0  0  0  0  0
   59.3650   29.0090   45.2450 C   0  0  0  0  0  0  0  0  0  0  0  0
   57.9990   29.3090   45.3730 C   0  0  0  0  0  0  0  0  0  0  0  0
   57.5210   30.7060   45.2390 C   0  0  0  0  0  0  0  0  0  0  0  0
   56.3520   30.9240   44.8210 O   0  0  0  0  0  0  0  0  0  0  0  0
   58.3750   31.8060   45.6000 N   0  0  0  0  0  0  0  0  0  0  0  0
   58.1580   33.1610   45.1750 C   0  0  0  0  0  0  0  0  0  0  0  0
   57.0560   33.5070   44.6720 O   0  0  0  0  0  0  0  0  0  0  0  0
   59.1870   34.1910   45.4030 C   0  0  0  0  0  0  0  0  0  0  0  0
   59.2840   34.9510   46.5050 C   0  0  0  0  0  0  0  0  0  0  0  0
   59.7230   34.4580   47.8610 C   0  0  0  0  0  0  0  0  0  0  0  0
   60.8460   33.4670   47.7210 C   0  0  0  0  0  0  0  0  0  0  0  0
   62.1140   33.8870   47.2820 C   0  0  0  0  0  0  0  0  0  0  0  0
   63.1550   32.9640   47.1470 C   0  0  0  0  0  0  0  0  0  0  0  0
   62.9370   31.6150   47.4380 C   0  0  0  0  0  0  0  0  0  0  0  0
   61.6760   31.1850   47.8580 C   0  0  0  0  0  0  0  0  0  0  0  0
   60.6320   32.1050   47.9960 C   0  0  0  0  0  0  0  0  0  0  0  0
   57.0960   28.2670   45.6520 C   0  0  0  0  0  0  0  0  0  0  0  0
   54.7200   27.0830   46.6880 H   0  0  0  0  0  0  0  0  0  0  0  0
   59.2617   25.6221   45.6953 H   0  0  0  0  0  0  0  0  0  0  0  0
   60.8839   27.4631   45.2535 H   0  0  0  0  0  0  0  0  0  0  0  0
   60.0865   29.8165   45.0516 H   0  0  0  0  0  0  0  0  0  0  0  0
   59.1980   31.6180   46.2120 H   0  0  0  0  0  0  0  0  0  0  0  0
   59.9323   34.3490   44.6096 H   0  0  0  0  0  0  0  0  0  0  0  0
   59.0232   36.0156   46.4120 H   0  0  0  0  0  0  0  0  0  0  0  0
   60.0664   35.3120   48.4633 H   0  0  0  0  0  0  0  0  0  0  0  0
   58.8720   33.9652   48.3539 H   0  0  0  0  0  0  0  0  0  0  0  0
   62.2876   34.9468   47.0437 H   0  0  0  0  0  0  0  0  0  0  0  0
   64.1471   33.3002   46.8112 H   0  0  0  0  0  0  0  0  0  0  0  0
   63.7589   30.8910   47.3363 H   0  0  0  0  0  0  0  0  0  0  0  0
   61.5041   30.1215   48.0804 H   0  0  0  0  0  0  0  0  0  0  0  0
   59.6389   31.7615   48.3212 H   0  0  0  0  0  0  0  0  0  0  0  0
   56.0269   28.4926   45.7787 H   0  0  0  0  0  0  0  0  0  0  0  0
  1  2  1  0
  2  3  2  0
  2  4  2  0
  2  5  1  0
  5  6  2  0
  6  7  1  0
  7  8  2  0
  8  9  1  0
  9 10  1  0
 10 11  2  0
 10 12  1  0
 12 13  1  0
 13 14  2  0
 13 15  1  0
 15 16  2  3
 16 17  1  0
 17 18  1  0
 18 19  2  0
 19 20  1  0
 20 21  2  0
 21 22  1  0
 22 23  2  0
  9 24  2  0
 24  5  1  0
 23 18  1  0
  1 25  1  0
  6 26  1  0
  7 27  1  0
  8 28  1  0
 12 29  1  0
 15 30  1  0
 16 31  1  0
 17 32  1  0
 17 33  1  0
 19 34  1  0
 20 35  1  0
 21 36  1  0
 22 37  1  0
 23 38  1  0
 24 39  1  0
M  CHG  1   1  -1
M  END
>  <UniqueID>  (56) 
54

>  <SMILES>  (56) 
[NH-]S(=O)(=O)c1cccc(C(=O)NC(=O)C=CCc2ccccc2)c1

>  <Energy>  (56) 
44.72365877003228

>  <Genealogy>  (56) 
[NH-]S(=O)(=O)c1cccc(C(=O)NC(=O)C=CCc2ccccc2)c1 (protonated)
[NH-]S(=O)(=O)c1cccc(C(=O)NC(=O)C=CCc2ccccc2)c1 (3D coordinates assigned)
[NH-]S(=O)(=O)c1cccc(C(=O)NC(=O)C=CCc2ccccc2)c1 (optimized conformer: 44.72365877003228 kcal/mol)

>  <smiles>  (56) 
NS(=O)(=O)c1cccc(C(=O)NC(=O)C=CCc2ccccc2)c1

>  <score_type>  (56) 
oracle

>  <origin>  (56) 
adg

>  <m_score__min__energy>  (56) 
-12.34

>  <m_primary>  (56) 
energy

$$$$
56:0
     RDKit          3D

 69 73  0  0  0  0  0  0  0  0999 V2000
   55.7640   29.7710   45.9100 H   0  0  0  0  0  0  0  0  0  0  0  0
   55.5250   29.0820   45.2350 O   0  0  0  0  0  0  0  0  0  0  0  0
   56.5760   29.0460   44.3060 C   0  0  0  0  0  0  0  0  0  0  0  0
   56.3404   28.3119   43.5214 H   0  0  0  0  0  0  0  0  0  0  0  0
   57.5016   28.7606   44.8274 H   0  0  0  0  0  0  0  0  0  0  0  0
   56.7730   30.4180   43.6670 C   0  0  0  0  0  0  0  0  0  0  0  0
   56.1133   30.5121   42.7918 H   0  0  0  0  0  0  0  0  0  0  0  0
   57.8213   30.5266   43.3520 H   0  0  0  0  0  0  0  0  0  0  0  0
   56.4550   31.4380   44.6130 O   0  0  0  0  0  0  0  0  0  0  0  0
   57.4060   32.1640   45.3440 C   0  0  0  0  0  0  0  0  0  0  0  0
   57.1780   33.5260   45.5650 C   0  0  0  0  0  0  0  0  0  0  0  0
   56.2794   34.0031   45.1468 H   0  0  0  0  0  0  0  0  0  0  0  0
   58.0810   34.2860   46.3120 C   0  0  0  0  0  0  0  0  0  0  0  0
   57.8892   35.3557   46.4823 H   0  0  0  0  0  0  0  0  0  0  0  0
   59.2270   33.6900   46.8430 C   0  0  0  0  0  0  0  0  0  0  0  0
   59.9296   34.2890   47.4410 H   0  0  0  0  0  0  0  0  0  0  0  0
   59.4850   32.3290   46.6160 C   0  0  0  0  0  0  0  0  0  0  0  0
   60.6970   31.6720   47.2280 C   0  0  0  0  0  0  0  0  0  0  0  0
   61.3903   32.4509   47.5782 H   0  0  0  0  0  0  0  0  0  0  0  0
   61.1785   31.0433   46.4646 H   0  0  0  0  0  0  0  0  0  0  0  0
   60.3150   30.8190   48.3670 N   0  0  0  0  0  0  0  0  0  0  0  0
   60.2360   31.3770   49.6930 C   0  0  0  0  0  0  0  0  0  0  0  0
   61.1840   32.0910   50.1160 O   0  0  0  0  0  0  0  0  0  0  0  0
   59.0700   31.1280   50.5660 C   0  0  0  0  0  0  0  0  0  0  0  0
   58.1340   32.1480   50.8040 C   0  0  0  0  0  0  0  0  0  0  0  0
   58.2776   33.1390   50.3488 H   0  0  0  0  0  0  0  0  0  0  0  0
   57.0210   31.9110   51.6160 C   0  0  0  0  0  0  0  0  0  0  0  0
   56.2967   32.7178   51.8016 H   0  0  0  0  0  0  0  0  0  0  0  0
   56.8240   30.6490   52.1950 C   0  0  0  0  0  0  0  0  0  0  0  0
   55.6440   30.4020   53.0900 C   0  0  0  0  0  0  0  0  0  0  0  0
   55.9609   30.4683   54.1413 H   0  0  0  0  0  0  0  0  0  0  0  0
   54.8693   31.1574   52.8922 H   0  0  0  0  0  0  0  0  0  0  0  0
   55.2373   29.3993   52.8922 H   0  0  0  0  0  0  0  0  0  0  0  0
   57.7750   29.6410   51.9880 C   0  0  0  0  0  0  0  0  0  0  0  0
   57.6442   28.6586   52.4652 H   0  0  0  0  0  0  0  0  0  0  0  0
   58.8890   29.8780   51.1780 C   0  0  0  0  0  0  0  0  0  0  0  0
   59.6288   29.0796   51.0191 H   0  0  0  0  0  0  0  0  0  0  0  0
   59.9420   29.4400   48.1710 C   0  0  0  0  0  0  0  0  0  0  0  0
   60.7800   28.3850   48.6290 C   0  0  0  0  0  0  0  0  0  0  0  0
   61.7328   28.6232   49.1244 H   0  0  0  0  0  0  0  0  0  0  0  0
   60.4030   27.0400   48.4550 C   0  0  0  0  0  0  0  0  0  0  0  0
   61.0461   26.2202   48.8075 H   0  0  0  0  0  0  0  0  0  0  0  0
   59.1930   26.7810   47.8240 C   0  0  0  0  0  0  0  0  0  0  0  0
   58.6330   25.5830   47.5790 N   0  0  0  0  0  0  0  0  0  0  0  0
   57.4680   25.9190   46.9650 C   0  0  0  0  0  0  0  0  0  0  0  0
   56.6130   25.0100   46.5920 N   0  0  0  0  0  0  0  0  0  0  0  0
   55.3240   25.2010   45.9870 C   0  0  0  0  0  0  0  0  0  0  0  0
   54.8010   26.3480   45.9160 O   0  0  0  0  0  0  0  0  0  0  0  0
   54.6490   24.0140   45.3590 C   0  0  0  0  0  0  0  0  0  0  0  0
   54.1229   23.4519   46.1447 H   0  0  0  0  0  0  0  0  0  0  0  0
   53.9540   24.3927   44.5951 H   0  0  0  0  0  0  0  0  0  0  0  0
   55.6220   23.0870   44.6710 C   0  0  0  0  0  0  0  0  0  0  0  0
   55.7340   23.0970   43.2700 C   0  0  0  0  0  0  0  0  0  0  0  0
   55.1000   23.7708   42.6751 H   0  0  0  0  0  0  0  0  0  0  0  0
   56.6470   22.2550   42.6290 C   0  0  0  0  0  0  0  0  0  0  0  0
   56.7274   22.2661   41.5320 H   0  0  0  0  0  0  0  0  0  0  0  0
   57.4590   21.3980   43.3800 C   0  0  0  0  0  0  0  0  0  0  0  0
   58.1687   20.7277   42.8730 H   0  0  0  0  0  0  0  0  0  0  0  0
   57.3680   21.3940   44.7740 C   0  0  0  0  0  0  0  0  0  0  0  0
   58.0132   20.7266   45.3641 H   0  0  0  0  0  0  0  0  0  0  0  0
   56.4570   22.2380   45.4220 C   0  0  0  0  0  0  0  0  0  0  0  0
   56.3950   22.2280   46.7770 F   0  0  0  0  0  0  0  0  0  0  0  0
   57.2840   27.2600   46.8280 N   0  0  0  0  0  0  0  0  0  0  0  0
   56.4750   27.7910   46.4370 H   0  0  0  0  0  0  0  0  0  0  0  0
   58.3860   27.7830   47.3790 C   0  0  0  0  0  0  0  0  0  0  0  0
   58.7160   29.1260   47.5360 C   0  0  0  0  0  0  0  0  0  0  0  0
   58.0443   29.9199   47.1774 H   0  0  0  0  0  0  0  0  0  0  0  0
   58.5700   31.5690   45.8670 C   0  0  0  0  0  0  0  0  0  0  0  0
   58.7648   30.5013   45.6881 H   0  0  0  0  0  0  0  0  0  0  0  0
  1  2  1  0
  2  3  1  0
  3  4  1  0
  3  5  1  0
  3  6  1  0
  6  7  1  0
  6  8  1  0
  6  9  1  0
  9 10  1  0
 10 11  2  0
 11 12  1  0
 11 13  1  0
 13 14  1  0
 13 15  2  0
 15 16  1  0
 15 17  1  0
 17 18  1  0
 18 19  1  0
 18 20  1  0
 18 21  1  0
 21 22  1  0
 22 23  2  0
 22 24  1  0
 24 25  2  0
 25 26  1  0
 25 27  1  0
 27 28  1  0
 27 29  2  0
 29 30  1  0
 30 31  1  0
 30 32  1  0
 30 33  1  0
 29 34  1  0
 34 35  1  0
 34 36  2  0
 36 37  1  0
 21 38  1  0
 38 39  2  0
 39 40  1  0
 39 41  1  0
 41 42  1  0
 41 43  2  0
 43 44  1  0
 44 45  1  0
 45 46  2  0
 46 47  1  0
 47 48  2  0
 47 49  1  0
 49 50  1  0
 49 51  1  0
 49 52  1  0
 52 53  2  0
 53 54  1  0
 53 55  1  0
 55 56  1  0
 55 57  2  0
 57 58  1  0
 57 59  1  0
 59 60  1  0
 59 61  2  0
 61 62  1  0
 45 63  1  0
 63 64  1  0
 63 65  1  0
 65 66  2  0
 66 67  1  0
 17 68  2  0
 68 69  1  0
 68 10  1  0
 36 24  1  0
 66 38  1  0
 65 43  1  0
 61 52  1  0
M  CHG  1  44  -1
M  END
>  <UniqueID>  (57) 
55

>  <SMILES>  (57) 
Cc1ccc(C(=O)N(Cc2cccc(OCCO)c2)c2ccc3[n-]/c(=N/C(=O)Cc4ccccc4F)[nH]c3c2)cc1

>  <Energy>  (57) 
121.24953463363177

>  <Genealogy>  (57) 
Cc1ccc(C(=O)N(Cc2cccc(OCCO)c2)c2ccc3[n-]c(=NC(=O)Cc4ccccc4F)[nH]c3c2)cc1 (protonated)
Cc1ccc(C(=O)N(Cc2cccc(OCCO)c2)c2ccc3[n-]/c(=N/C(=O)Cc4ccccc4F)[nH]c3c2)cc1 (cis-trans isomerization)
Cc1ccc(C(=O)N(Cc2cccc(OCCO)c2)c2ccc3[n-]/c(=N/C(=O)Cc4ccccc4F)[nH]c3c2)cc1 (3D coordinates assigned)
Cc1ccc(C(=O)N(Cc2cccc(OCCO)c2)c2ccc3[n-]/c(=N/C(=O)Cc4ccccc4F)[nH]c3c2)cc1 (optimized conformer: 121.24953463363177 kcal/mol)

>  <smiles>  (57) 
Cc1ccc(C(=O)N(Cc2cccc(OCCO)c2)c2ccc3[nH]c(=NC(=O)Cc4ccccc4F)[nH]c3c2)cc1

>  <score_type>  (57) 
oracle

>  <origin>  (57) 
adg

>  <m_score__min__energy>  (57) 
-13.1

>  <m_primary>  (57) 
energy

$$$$
57:0
     RDKit          3D

 52 55  0  0  0  0  0  0  0  0999 V2000
   50.8610   24.4810   44.4400 C   0  0  0  0  0  0  0  0  0  0  0  0
   51.5730   23.0680   45.2470 S   0  0  0  0  0  0  0  0  0  0  0  0
   50.8670   21.8260   44.7830 O   0  0  0  0  0  0  0  0  0  0  0  0
   51.4130   23.2240   46.7350 O   0  0  0  0  0  0  0  0  0  0  0  0
   53.2570   22.9750   44.8410 N   0  0  0  0  0  0  0  0  0  0  0  0
   54.3190   23.5880   45.5840 C   0  0  0  0  0  0  0  0  0  0  0  0
   55.0040   22.9070   46.6080 C   0  0  0  0  0  0  0  0  0  0  0  0
   56.0330   23.5420   47.3050 C   0  0  0  0  0  0  0  0  0  0  0  0
   56.3870   24.8630   47.0000 C   0  0  0  0  0  0  0  0  0  0  0  0
   57.4460   25.4690   47.6750 O   0  0  0  0  0  0  0  0  0  0  0  0
   55.6860   25.5600   45.9940 C   0  0  0  0  0  0  0  0  0  0  0  0
   56.0040   26.9170   45.6500 N   0  0  0  0  0  0  0  0  0  0  0  0
   57.3220   27.4360   45.4290 C   0  0  0  0  0  0  0  0  0  0  0  0
   58.2430   26.6340   45.1230 O   0  0  0  0  0  0  0  0  0  0  0  0
   57.6150   28.8870   45.5090 C   0  0  0  0  0  0  0  0  0  0  0  0
   58.3900   29.4070   46.5600 C   0  0  0  0  0  0  0  0  0  0  0  0
   58.6600   30.7770   46.6290 C   0  0  0  0  0  0  0  0  0  0  0  0
   58.1550   31.6460   45.6550 C   0  0  0  0  0  0  0  0  0  0  0  0
   58.4620   33.3760   45.7710 S   0  0  0  0  0  0  0  0  0  0  0  0
   57.1570   34.1190   45.8830 O   0  0  0  0  0  0  0  0  0  0  0  0
   59.1690   33.8640   44.5390 O   0  0  0  0  0  0  0  0  0  0  0  0
   59.4180   33.6930   47.1850 N   0  0  0  0  0  0  0  0  0  0  0  0
   58.8970   33.5520   48.5440 C   0  0  0  0  0  0  0  0  0  0  0  0
   60.1250   33.6060   49.4840 C   0  0  0  0  0  0  0  0  0  0  0  0
   61.2760   33.6700   48.5390 C   0  0  0  0  0  0  0  0  0  0  0  0
   62.6380   33.6850   48.8460 C   0  0  0  0  0  0  0  0  0  0  0  0
   63.5600   33.7580   47.7900 C   0  0  0  0  0  0  0  0  0  0  0  0
   63.1090   33.8190   46.4580 C   0  0  0  0  0  0  0  0  0  0  0  0
   61.7340   33.8060   46.1750 C   0  0  0  0  0  0  0  0  0  0  0  0
   60.8350   33.7230   47.2440 C   0  0  0  0  0  0  0  0  0  0  0  0
   57.3690   31.1350   44.6140 C   0  0  0  0  0  0  0  0  0  0  0  0
   57.0980   29.7650   44.5430 C   0  0  0  0  0  0  0  0  0  0  0  0
   54.6760   24.9050   45.2780 C   0  0  0  0  0  0  0  0  0  0  0  0
   50.5020   25.1935   45.1973 H   0  0  0  0  0  0  0  0  0  0  0  0
   51.6221   24.9665   43.8115 H   0  0  0  0  0  0  0  0  0  0  0  0
   50.0180   24.1581   43.8115 H   0  0  0  0  0  0  0  0  0  0  0  0
   54.7277   21.8723   46.8593 H   0  0  0  0  0  0  0  0  0  0  0  0
   56.5696   23.0019   48.0990 H   0  0  0  0  0  0  0  0  0  0  0  0
   57.9860   26.2160   47.2540 H   0  0  0  0  0  0  0  0  0  0  0  0
   58.7864   28.7320   47.3328 H   0  0  0  0  0  0  0  0  0  0  0  0
   59.2720   31.1737   47.4524 H   0  0  0  0  0  0  0  0  0  0  0  0
   58.2040   34.3747   48.7741 H   0  0  0  0  0  0  0  0  0  0  0  0
   58.3405   32.6109   48.6647 H   0  0  0  0  0  0  0  0  0  0  0  0
   60.0915   34.4989   50.1256 H   0  0  0  0  0  0  0  0  0  0  0  0
   60.1792   32.7493   50.1718 H   0  0  0  0  0  0  0  0  0  0  0  0
   62.9804   33.6407   49.8904 H   0  0  0  0  0  0  0  0  0  0  0  0
   64.6389   33.7676   48.0042 H   0  0  0  0  0  0  0  0  0  0  0  0
   63.8370   33.8771   45.6354 H   0  0  0  0  0  0  0  0  0  0  0  0
   61.3720   33.8598   45.1377 H   0  0  0  0  0  0  0  0  0  0  0  0
   56.9635   31.8141   43.8495 H   0  0  0  0  0  0  0  0  0  0  0  0
   56.4758   29.3727   43.7251 H   0  0  0  0  0  0  0  0  0  0  0  0
   54.1570   25.4333   44.4646 H   0  0  0  0  0  0  0  0  0  0  0  0
  1  2  1  0
  2  3  2  0
  2  4  2  0
  2  5  1  0
  5  6  1  0
  6  7  2  0
  7  8  1  0
  8  9  2  0
  9 10  1  0
  9 11  1  0
 11 12  1  0
 12 13  1  0
 13 14  2  0
 13 15  1  0
 15 16  2  0
 16 17  1  0
 17 18  2  0
 18 19  1  0
 19 20  2  0
 19 21  2  0
 19 22  1  0
 22 23  1  0
 23 24  1  0
 24 25  1  0
 25 26  2  0
 26 27  1  0
 27 28  2  0
 28 29  1  0
 29 30  2  0
 18 31  1  0
 31 32  2  0
 11 33  2  0
 33  6  1  0
 32 15  1  0
 30 22  1  0
 30 25  1  0
  1 34  1  0
  1 35  1  0
  1 36  1  0
  7 37  1  0
  8 38  1  0
 10 39  1  0
 16 40  1  0
 17 41  1  0
 23 42  1  0
 23 43  1  0
 24 44  1  0
 24 45  1  0
 26 46  1  0
 27 47  1  0
 28 48  1  0
 29 49  1  0
 31 50  1  0
 32 51  1  0
 33 52  1  0
M  CHG  2   5  -1  12  -1
M  END
>  <UniqueID>  (58) 
56

>  <SMILES>  (58) 
CS(=O)(=O)[N-]c1ccc(O)c([N-]C(=O)c2ccc(S(=O)(=O)N3CCc4ccccc43)cc2)c1

>  <Energy>  (58) 
79.26835665013226

>  <Genealogy>  (58) 
CS(=O)(=O)[N-]c1ccc(O)c([N-]C(=O)c2ccc(S(=O)(=O)N3CCc4ccccc43)cc2)c1 (protonated)
CS(=O)(=O)[N-]c1ccc(O)c([N-]C(=O)c2ccc(S(=O)(=O)N3CCc4ccccc43)cc2)c1 (3D coordinates assigned)
CS(=O)(=O)[N-]c1ccc(O)c([N-]C(=O)c2ccc(S(=O)(=O)N3CCc4ccccc43)cc2)c1 (nonaromatic ring conformer: 79.26835665013226 kcal/mol)

>  <smiles>  (58) 
CS(=O)(=O)Nc1ccc(O)c(NC(=O)c2ccc(S(=O)(=O)N3CCc4ccccc43)cc2)c1

>  <score_type>  (58) 
oracle

>  <origin>  (58) 
adg

>  <m_score__min__energy>  (58) 
-13.84

>  <m_primary>  (58) 
energy

$$$$
58:0
     RDKit          3D

 48 50  0  0  0  0  0  0  0  0999 V2000
   64.7300   33.0800   48.9890 C   0  0  0  0  0  0  0  0  0  0  0  0
   63.3940   32.9790   47.8150 S   0  0  0  0  0  0  0  0  0  0  0  0
   63.5010   31.6740   47.0790 O   0  0  0  0  0  0  0  0  0  0  0  0
   63.5050   34.1140   46.8370 O   0  0  0  0  0  0  0  0  0  0  0  0
   61.8590   33.0490   48.6190 N   0  0  0  0  0  0  0  0  0  0  0  0
   60.7400   32.2640   48.2020 C   0  0  0  0  0  0  0  0  0  0  0  0
   60.3150   31.2130   49.0200 C   0  0  0  0  0  0  0  0  0  0  0  0
   59.2050   30.4470   48.6620 C   0  0  0  0  0  0  0  0  0  0  0  0
   58.5150   30.7200   47.4800 C   0  0  0  0  0  0  0  0  0  0  0  0
   58.9430   31.7600   46.6330 C   0  0  0  0  0  0  0  0  0  0  0  0
   58.2700   32.0570   45.4010 N   0  0  0  0  0  0  0  0  0  0  0  0
   57.3210   30.9340   44.4800 S   0  0  0  0  0  0  0  0  0  0  0  0
   57.4980   31.2110   43.0130 O   0  0  0  0  0  0  0  0  0  0  0  0
   55.8760   31.0830   44.8640 O   0  0  0  0  0  0  0  0  0  0  0  0
   57.8420   29.2830   44.8180 C   0  0  0  0  0  0  0  0  0  0  0  0
   59.2050   28.9530   44.7690 C   0  0  0  0  0  0  0  0  0  0  0  0
   59.6220   27.6460   45.0270 C   0  0  0  0  0  0  0  0  0  0  0  0
   58.6860   26.6590   45.3380 C   0  0  0  0  0  0  0  0  0  0  0  0
   57.3200   26.9720   45.4010 C   0  0  0  0  0  0  0  0  0  0  0  0
   56.3360   25.9140   45.7160 C   0  0  0  0  0  0  0  0  0  0  0  0
   55.5540   26.0770   46.6920 O   0  0  0  0  0  0  0  0  0  0  0  0
   56.2590   24.7040   44.9400 N   0  0  0  0  0  0  0  0  0  0  0  0
   55.1870   23.7370   45.1030 C   0  0  0  0  0  0  0  0  0  0  0  0
   55.5110   22.6010   44.1410 C   0  0  0  0  0  0  0  0  0  0  0  0
   56.9920   22.7510   43.8110 C   0  0  0  0  0  0  0  0  0  0  0  0
   57.3320   24.2090   44.0930 C   0  0  0  0  0  0  0  0  0  0  0  0
   56.8970   28.2870   45.1250 C   0  0  0  0  0  0  0  0  0  0  0  0
   55.5420   28.6060   45.1680 O   0  0  0  0  0  0  0  0  0  0  0  0
   60.0680   32.5240   46.9890 C   0  0  0  0  0  0  0  0  0  0  0  0
   60.5090   33.5190   46.1140 O   0  0  0  0  0  0  0  0  0  0  0  0
   64.3235   33.0493   50.0107 H   0  0  0  0  0  0  0  0  0  0  0  0
   65.4135   32.2310   48.8406 H   0  0  0  0  0  0  0  0  0  0  0  0
   65.2781   34.0221   48.8406 H   0  0  0  0  0  0  0  0  0  0  0  0
   60.8580   30.9889   49.9500 H   0  0  0  0  0  0  0  0  0  0  0  0
   58.8727   29.6253   49.3135 H   0  0  0  0  0  0  0  0  0  0  0  0
   57.6335   30.1204   47.2091 H   0  0  0  0  0  0  0  0  0  0  0  0
   59.9478   29.7272   44.5263 H   0  0  0  0  0  0  0  0  0  0  0  0
   60.6918   27.3934   44.9850 H   0  0  0  0  0  0  0  0  0  0  0  0
   59.0211   25.6299   45.5348 H   0  0  0  0  0  0  0  0  0  0  0  0
   55.1578   23.3669   46.1385 H   0  0  0  0  0  0  0  0  0  0  0  0
   54.2027   24.1807   44.8924 H   0  0  0  0  0  0  0  0  0  0  0  0
   55.3208   21.6282   44.6180 H   0  0  0  0  0  0  0  0  0  0  0  0
   54.8867   22.6439   43.2364 H   0  0  0  0  0  0  0  0  0  0  0  0
   57.5957   22.0866   44.4467 H   0  0  0  0  0  0  0  0  0  0  0  0
   57.2046   22.4794   42.7665 H   0  0  0  0  0  0  0  0  0  0  0  0
   58.2980   24.2842   44.6137 H   0  0  0  0  0  0  0  0  0  0  0  0
   57.4205   24.7931   43.1651 H   0  0  0  0  0  0  0  0  0  0  0  0
   61.4180   33.9540   46.1980 H   0  0  0  0  0  0  0  0  0  0  0  0
  1  2  1  0
  2  3  2  0
  2  4  2  0
  2  5  1  0
  5  6  1  0
  6  7  2  0
  7  8  1  0
  8  9  2  0
  9 10  1  0
 10 11  1  0
 11 12  1  0
 12 13  2  0
 12 14  2  0
 12 15  1  0
 15 16  2  0
 16 17  1  0
 17 18  2  0
 18 19  1  0
 19 20  1  0
 20 21  2  0
 20 22  1  0
 22 23  1  0
 23 24  1  0
 24 25  1  0
 25 26  1  0
 19 27  2  0
 27 28  1  0
 10 29  2  0
 29 30  1  0
 29  6  1  0
 27 15  1  0
 26 22  1  0
  1 31  1  0
  1 32  1  0
  1 33  1  0
  7 34  1  0
  8 35  1  0
  9 36  1  0
 16 37  1  0
 17 38  1  0
 18 39  1  0
 23 40  1  0
 23 41  1  0
 24 42  1  0
 24 43  1  0
 25 44  1  0
 25 45  1  0
 26 46  1  0
 26 47  1  0
 30 48  1  0
M  CHG  3   5  -1  11  -1  28  -1
M  END
>  <UniqueID>  (59) 
57

>  <SMILES>  (59) 
CS(=O)(=O)[N-]c1cccc([N-]S(=O)(=O)c2cccc(C(=O)N3CCCC3)c2[O-])c1O

>  <Energy>  (59) 
64.79538553612578

>  <Genealogy>  (59) 
CS(=O)(=O)[N-]c1cccc([N-]S(=O)(=O)c2cccc(C(=O)N3CCCC3)c2[O-])c1O (protonated)
CS(=O)(=O)[N-]c1cccc([N-]S(=O)(=O)c2cccc(C(=O)N3CCCC3)c2[O-])c1O (3D coordinates assigned)
CS(=O)(=O)[N-]c1cccc([N-]S(=O)(=O)c2cccc(C(=O)N3CCCC3)c2[O-])c1O (nonaromatic ring conformer: 64.79538553612578 kcal/mol)

>  <smiles>  (59) 
CS(=O)(=O)Nc1cccc(NS(=O)(=O)c2cccc(C(=O)N3CCCC3)c2O)c1O

>  <score_type>  (59) 
oracle

>  <origin>  (59) 
adg

>  <m_score__min__energy>  (59) 
-15.31

>  <m_primary>  (59) 
energy

$$$$
59:0
     RDKit          3D

 55 58  0  0  0  0  0  0  0  0999 V2000
   56.4370   29.8090   53.5730 O   0  0  0  0  0  0  0  0  0  0  0  0
   56.4470   30.5710   52.5690 C   0  0  0  0  0  0  0  0  0  0  0  0
   55.3780   30.5010   51.6150 N   0  0  0  0  0  0  0  0  0  0  0  0
   53.9740   30.5810   51.8980 C   0  0  0  0  0  0  0  0  0  0  0  0
   53.4040   29.6240   52.7490 C   0  0  0  0  0  0  0  0  0  0  0  0
   52.0440   29.6780   53.0660 C   0  0  0  0  0  0  0  0  0  0  0  0
   51.2460   30.7030   52.5510 C   0  0  0  0  0  0  0  0  0  0  0  0
   51.8090   31.6780   51.7210 C   0  0  0  0  0  0  0  0  0  0  0  0
   51.0200   32.7070   51.2250 O   0  0  0  0  0  0  0  0  0  0  0  0
   53.1700   31.6230   51.3990 C   0  0  0  0  0  0  0  0  0  0  0  0
   57.5510   31.5520   52.3630 C   0  0  0  0  0  0  0  0  0  0  0  0
   57.6770   32.3170   51.2560 C   0  0  0  0  0  0  0  0  0  0  0  0
   58.5860   32.0280   50.1280 C   0  0  0  0  0  0  0  0  0  0  0  0
   58.7280   30.7290   49.6090 C   0  0  0  0  0  0  0  0  0  0  0  0
   58.0290   29.6420   50.1370 O   0  0  0  0  0  0  0  0  0  0  0  0
   59.5660   30.5170   48.5670 N   0  0  0  0  0  0  0  0  0  0  0  0
   60.2980   31.5190   48.0200 C   0  0  0  0  0  0  0  0  0  0  0  0
   61.0450   31.2600   47.0390 O   0  0  0  0  0  0  0  0  0  0  0  0
   60.2240   32.7910   48.5320 N   0  0  0  0  0  0  0  0  0  0  0  0
   61.0160   33.8790   47.9270 C   0  0  0  0  0  0  0  0  0  0  0  0
   60.0920   34.9260   47.3010 C   0  0  0  0  0  0  0  0  0  0  0  0
   59.1380   34.2790   46.3330 C   0  0  0  0  0  0  0  0  0  0  0  0
   59.5000   34.1110   44.9870 C   0  0  0  0  0  0  0  0  0  0  0  0
   58.6300   33.4700   44.0970 C   0  0  0  0  0  0  0  0  0  0  0  0
   57.3990   32.9860   44.5490 C   0  0  0  0  0  0  0  0  0  0  0  0
   57.0370   33.1390   45.8900 C   0  0  0  0  0  0  0  0  0  0  0  0
   57.9040   33.7790   46.7820 C   0  0  0  0  0  0  0  0  0  0  0  0
   59.3660   33.0540   49.5720 C   0  0  0  0  0  0  0  0  0  0  0  0
   59.2620   34.2260   50.0300 O   0  0  0  0  0  0  0  0  0  0  0  0
   58.5460   31.7320   53.4440 C   0  0  0  0  0  0  0  0  0  0  0  0
   59.3090   30.6390   53.8960 C   0  0  0  0  0  0  0  0  0  0  0  0
   60.2430   30.8090   54.9220 C   0  0  0  0  0  0  0  0  0  0  0  0
   60.4200   32.0650   55.5080 C   0  0  0  0  0  0  0  0  0  0  0  0
   59.6600   33.1540   55.0720 C   0  0  0  0  0  0  0  0  0  0  0  0
   58.7240   32.9890   54.0450 C   0  0  0  0  0  0  0  0  0  0  0  0
   54.0316   28.8249   53.1703 H   0  0  0  0  0  0  0  0  0  0  0  0
   51.6015   28.9133   53.7212 H   0  0  0  0  0  0  0  0  0  0  0  0
   50.1749   30.7431   52.7984 H   0  0  0  0  0  0  0  0  0  0  0  0
   53.6126   32.3964   50.7540 H   0  0  0  0  0  0  0  0  0  0  0  0
   57.0562   33.2227   51.1900 H   0  0  0  0  0  0  0  0  0  0  0  0
   57.1140   29.7300   50.5600 H   0  0  0  0  0  0  0  0  0  0  0  0
   61.6302   34.3562   48.7049 H   0  0  0  0  0  0  0  0  0  0  0  0
   61.6612   33.4573   47.1423 H   0  0  0  0  0  0  0  0  0  0  0  0
   59.5179   35.4235   48.0965 H   0  0  0  0  0  0  0  0  0  0  0  0
   60.7047   35.6606   46.7579 H   0  0  0  0  0  0  0  0  0  0  0  0
   60.4712   34.4845   44.6302 H   0  0  0  0  0  0  0  0  0  0  0  0
   58.9152   33.3472   43.0417 H   0  0  0  0  0  0  0  0  0  0  0  0
   56.7149   32.4844   43.8487 H   0  0  0  0  0  0  0  0  0  0  0  0
   56.0689   32.7556   46.2447 H   0  0  0  0  0  0  0  0  0  0  0  0
   57.6188   33.8912   47.8384 H   0  0  0  0  0  0  0  0  0  0  0  0
   59.1698   29.6476   53.4403 H   0  0  0  0  0  0  0  0  0  0  0  0
   60.8397   29.9524   55.2687 H   0  0  0  0  0  0  0  0  0  0  0  0
   61.1580   32.1969   56.3130 H   0  0  0  0  0  0  0  0  0  0  0  0
   59.7978   34.1415   55.5366 H   0  0  0  0  0  0  0  0  0  0  0  0
   58.1250   33.8474   53.7069 H   0  0  0  0  0  0  0  0  0  0  0  0
  1  2  2  0
  2  3  1  0
  3  4  1  0
  4  5  2  0
  5  6  1  0
  6  7  2  0
  7  8  1  0
  8  9  1  0
  8 10  2  0
  2 11  1  0
 11 12  2  3
 12 13  1  0
 13 14  2  0
 14 15  1  0
 14 16  1  0
 16 17  1  0
 17 18  2  0
 17 19  1  0
 19 20  1  0
 20 21  1  0
 21 22  1  0
 22 23  2  0
 23 24  1  0
 24 25  2  0
 25 26  1  0
 26 27  2  0
 19 28  1  0
 28 29  2  0
 11 30  1  0
 30 31  2  0
 31 32  1  0
 32 33  2  0
 33 34  1  0
 34 35  2  0
 10  4  1  0
 28 13  1  0
 35 30  1  0
 27 22  1  0
  5 36  1  0
  6 37  1  0
  7 38  1  0
 10 39  1  0
 12 40  1  0
 15 41  1  0
 20 42  1  0
 20 43  1  0
 21 44  1  0
 21 45  1  0
 23 46  1  0
 24 47  1  0
 25 48  1  0
 26 49  1  0
 27 50  1  0
 31 51  1  0
 32 52  1  0
 33 53  1  0
 34 54  1  0
 35 55  1  0
M  CHG  3   3  -1   9  -1  16  -1
M  END
>  <UniqueID>  (60) 
58

>  <SMILES>  (60) 
O=C([N-]c1cccc([O-])c1)C(=Cc1c(O)[n-]c(=O)n(CCc2ccccc2)c1=O)c1ccccc1

>  <Energy>  (60) 
82.47611668453656

>  <Genealogy>  (60) 
O=C([N-]c1cccc([O-])c1)C(=Cc1c(O)[n-]c(=O)n(CCc2ccccc2)c1=O)c1ccccc1 (protonated)
O=C([N-]c1cccc([O-])c1)C(=Cc1c(O)[n-]c(=O)n(CCc2ccccc2)c1=O)c1ccccc1 (3D coordinates assigned)
O=C([N-]c1cccc([O-])c1)C(=Cc1c(O)[n-]c(=O)n(CCc2ccccc2)c1=O)c1ccccc1 (optimized conformer: 82.47611668453656 kcal/mol)

>  <smiles>  (60) 
O=C(Nc1cccc(O)c1)C(=Cc1c(O)[nH]c(=O)n(CCc2ccccc2)c1=O)c1ccccc1

>  <score_type>  (60) 
oracle

>  <origin>  (60) 
adg

>  <m_score__min__energy>  (60) 
-15.91

>  <m_primary>  (60) 
energy

$$$$
60:0
     RDKit          3D

 35 37  0  0  0  0  0  0  0  0999 V2000
   55.0640   30.3810   51.2620 O   0  0  0  0  0  0  0  0  0  0  0  0
   54.5890   30.5270   52.4210 C   0  0  0  0  0  0  0  0  0  0  0  0
   53.2790   31.2210   52.6050 C   0  0  0  0  0  0  0  0  0  0  0  0
   52.4920   31.1320   51.3340 C   0  0  0  0  0  0  0  0  0  0  0  0
   52.6000   30.1360   50.4400 N   0  0  0  0  0  0  0  0  0  0  0  0
   51.6400   30.3930   49.5280 C   0  0  0  0  0  0  0  0  0  0  0  0
   51.4340   29.6620   48.5250 O   0  0  0  0  0  0  0  0  0  0  0  0
   50.9100   31.4990   49.7910 N   0  0  0  0  0  0  0  0  0  0  0  0
   51.4540   31.9480   50.9400 C   0  0  0  0  0  0  0  0  0  0  0  0
   51.0020   33.0720   51.6190 O   0  0  0  0  0  0  0  0  0  0  0  0
   55.2480   29.9510   53.5500 N   0  0  0  0  0  0  0  0  0  0  0  0
   56.9210   30.2400   53.8750 S   0  0  0  0  0  0  0  0  0  0  0  0
   57.5590   28.9830   54.3970 O   0  0  0  0  0  0  0  0  0  0  0  0
   57.0510   31.3270   54.9070 O   0  0  0  0  0  0  0  0  0  0  0  0
   57.7100   30.7120   52.3810 C   0  0  0  0  0  0  0  0  0  0  0  0
   58.4210   29.8630   51.5490 C   0  0  0  0  0  0  0  0  0  0  0  0
   58.8830   30.4910   50.3870 C   0  0  0  0  0  0  0  0  0  0  0  0
   58.5300   31.8420   50.3000 C   0  0  0  0  0  0  0  0  0  0  0  0
   58.8470   32.7740   49.1860 C   0  0  0  0  0  0  0  0  0  0  0  0
   59.9080   33.6950   49.2900 C   0  0  0  0  0  0  0  0  0  0  0  0
   60.2010   34.5630   48.2340 C   0  0  0  0  0  0  0  0  0  0  0  0
   59.4430   34.5260   47.0640 C   0  0  0  0  0  0  0  0  0  0  0  0
   58.3860   33.6220   46.9460 C   0  0  0  0  0  0  0  0  0  0  0  0
   57.4310   33.5790   45.4750 Cl  0  0  0  0  0  0  0  0  0  0  0  0
   58.0860   32.7530   48.0000 C   0  0  0  0  0  0  0  0  0  0  0  0
   57.6350   32.2330   51.6800 S   0  0  0  0  0  0  0  0  0  0  0  0
   52.7184   30.7389   53.4194 H   0  0  0  0  0  0  0  0  0  0  0  0
   53.4526   32.2771   52.8591 H   0  0  0  0  0  0  0  0  0  0  0  0
   53.2610   29.3270   50.4600 H   0  0  0  0  0  0  0  0  0  0  0  0
   58.6039   28.8028   51.7784 H   0  0  0  0  0  0  0  0  0  0  0  0
   59.4687   29.9713   49.6145 H   0  0  0  0  0  0  0  0  0  0  0  0
   60.5107   33.7314   50.2095 H   0  0  0  0  0  0  0  0  0  0  0  0
   61.0322   35.2775   48.3263 H   0  0  0  0  0  0  0  0  0  0  0  0
   59.6780   35.2090   46.2344 H   0  0  0  0  0  0  0  0  0  0  0  0
   57.2484   32.0467   47.9024 H   0  0  0  0  0  0  0  0  0  0  0  0
  1  2  2  0
  2  3  1  0
  3  4  1  0
  4  5  1  0
  5  6  1  0
  6  7  2  0
  6  8  1  0
  8  9  1  0
  9 10  1  0
  2 11  1  0
 11 12  1  0
 12 13  2  0
 12 14  2  0
 12 15  1  0
 15 16  2  0
 16 17  1  0
 17 18  2  0
 18 19  1  0
 19 20  2  0
 20 21  1  0
 21 22  2  0
 22 23  1  0
 23 24  1  0
 23 25  2  0
 18 26  1  0
  9  4  2  0
 26 15  1  0
 25 19  1  0
  3 27  1  0
  3 28  1  0
  5 29  1  0
 16 30  1  0
 17 31  1  0
 20 32  1  0
 21 33  1  0
 22 34  1  0
 25 35  1  0
M  CHG  3   8  -1  10  -1  11  -1
M  END
>  <UniqueID>  (61) 
59

>  <SMILES>  (61) 
O=C(Cc1[nH]c(=O)[n-]c1[O-])[N-]S(=O)(=O)c1ccc(-c2cccc(Cl)c2)s1

>  <Energy>  (61) 
95.51072350668085

>  <Genealogy>  (61) 
O=C(Cc1[nH]c(=O)[n-]c1[O-])[N-]S(=O)(=O)c1ccc(-c2cccc(Cl)c2)s1 (protonated)
O=C(Cc1[nH]c(=O)[n-]c1[O-])[N-]S(=O)(=O)c1ccc(-c2cccc(Cl)c2)s1 (3D coordinates assigned)
O=C(Cc1[nH]c(=O)[n-]c1[O-])[N-]S(=O)(=O)c1ccc(-c2cccc(Cl)c2)s1 (optimized conformer: 95.51072350668085 kcal/mol)

>  <smiles>  (61) 
O=C(Cc1[nH]c(=O)[nH]c1O)NS(=O)(=O)c1ccc(-c2cccc(Cl)c2)s1

>  <score_type>  (61) 
oracle

>  <origin>  (61) 
adg

>  <m_score__min__energy>  (61) 
-17.030000000000001

>  <m_primary>  (61) 
energy

$$$$
61:0
     RDKit          3D

 35 37  0  0  0  0  0  0  0  0999 V2000
   57.4140   27.2540   47.2130 O   0  0  0  0  0  0  0  0  0  0  0  0
   56.9690   27.0510   46.0500 C   0  0  0  0  0  0  0  0  0  0  0  0
   57.3680   27.8790   44.9470 N   0  0  0  0  0  0  0  0  0  0  0  0
   57.3430   29.1780   44.9190 C   0  0  0  0  0  0  0  0  0  0  0  0
   56.2170   29.9200   44.8320 N   0  0  0  0  0  0  0  0  0  0  0  0
   56.4610   31.2280   44.7750 N   0  0  0  0  0  0  0  0  0  0  0  0
   57.7790   31.5280   44.8170 C   0  0  0  0  0  0  0  0  0  0  0  0
   58.3120   32.9200   44.6870 C   0  0  0  0  0  0  0  0  0  0  0  0
   57.9670   33.7910   45.9020 C   0  0  0  0  0  0  0  0  0  0  0  0
   59.3990   34.6190   46.5980 S   0  0  0  0  0  0  0  0  0  0  0  0
   59.8940   35.6510   45.6240 O   0  0  0  0  0  0  0  0  0  0  0  0
   58.9980   35.3090   47.8710 O   0  0  0  0  0  0  0  0  0  0  0  0
   60.6780   33.4600   46.9630 C   0  0  0  0  0  0  0  0  0  0  0  0
   62.0270   33.8380   46.8980 C   0  0  0  0  0  0  0  0  0  0  0  0
   63.0330   32.8960   47.1430 C   0  0  0  0  0  0  0  0  0  0  0  0
   62.6960   31.5770   47.4600 C   0  0  0  0  0  0  0  0  0  0  0  0
   61.3520   31.2010   47.5430 C   0  0  0  0  0  0  0  0  0  0  0  0
   60.3460   32.1400   47.3000 C   0  0  0  0  0  0  0  0  0  0  0  0
   58.7250   30.1350   44.9410 S   0  0  0  0  0  0  0  0  0  0  0  0
   56.0210   25.9540   45.8170 C   0  0  0  0  0  0  0  0  0  0  0  0
   56.3390   24.6600   45.4690 C   0  0  0  0  0  0  0  0  0  0  0  0
   55.2060   23.9470   45.3460 N   0  0  0  0  0  0  0  0  0  0  0  0
   54.2390   24.8430   45.6270 C   0  0  0  0  0  0  0  0  0  0  0  0
   53.0160   24.5490   45.6170 O   0  0  0  0  0  0  0  0  0  0  0  0
   54.6860   26.0810   45.9210 N   0  0  0  0  0  0  0  0  0  0  0  0
   59.4062   32.8718   44.5855 H   0  0  0  0  0  0  0  0  0  0  0  0
   57.8463   33.3775   43.8016 H   0  0  0  0  0  0  0  0  0  0  0  0
   57.2375   34.5534   45.5913 H   0  0  0  0  0  0  0  0  0  0  0  0
   57.5601   33.1270   46.6789 H   0  0  0  0  0  0  0  0  0  0  0  0
   62.2950   34.8766   46.6540 H   0  0  0  0  0  0  0  0  0  0  0  0
   64.0903   33.1942   47.0860 H   0  0  0  0  0  0  0  0  0  0  0  0
   63.4875   30.8356   47.6440 H   0  0  0  0  0  0  0  0  0  0  0  0
   61.0862   30.1650   47.7998 H   0  0  0  0  0  0  0  0  0  0  0  0
   59.2895   31.8425   47.3734 H   0  0  0  0  0  0  0  0  0  0  0  0
   57.3569   24.2721   45.3162 H   0  0  0  0  0  0  0  0  0  0  0  0
  1  2  2  0
  2  3  1  0
  3  4  2  3
  4  5  1  0
  5  6  1  0
  6  7  2  0
  7  8  1  0
  8  9  1  0
  9 10  1  0
 10 11  2  0
 10 12  2  0
 10 13  1  0
 13 14  2  0
 14 15  1  0
 15 16  2  0
 16 17  1  0
 17 18  2  0
  7 19  1  0
  2 20  1  0
 20 21  2  0
 21 22  1  0
 22 23  1  0
 23 24  2  0
 23 25  1  0
 19  4  1  0
 25 20  1  0
 18 13  1  0
  8 26  1  0
  8 27  1  0
  9 28  1  0
  9 29  1  0
 14 30  1  0
 15 31  1  0
 16 32  1  0
 17 33  1  0
 18 34  1  0
 21 35  1  0
M  CHG  3   5  -1  22  -1  25  -1
M  END
>  <UniqueID>  (62) 
60

>  <SMILES>  (62) 
O=C(N=c1[n-]nc(CCS(=O)(=O)c2ccccc2)s1)c1c[n-]c(=O)[n-]1

>  <Energy>  (62) 
92.31100008515227

>  <Genealogy>  (62) 
O=C(N=c1[n-]nc(CCS(=O)(=O)c2ccccc2)s1)c1c[n-]c(=O)[n-]1 (protonated)
O=C(N=c1[n-]nc(CCS(=O)(=O)c2ccccc2)s1)c1c[n-]c(=O)[n-]1 (3D coordinates assigned)
O=C(N=c1[n-]nc(CCS(=O)(=O)c2ccccc2)s1)c1c[n-]c(=O)[n-]1 (optimized conformer: 92.31100008515227 kcal/mol)

>  <smiles>  (62) 
O=C(N=c1[nH]nc(CCS(=O)(=O)c2ccccc2)s1)c1c[nH]c(=O)[nH]1

>  <score_type>  (62) 
oracle

>  <origin>  (62) 
adg

>  <m_score__min__energy>  (62) 
-14.83

>  <m_primary>  (62) 
energy

$$$$
62:0
     RDKit          3D

 49 51  0  0  0  0  0  0  0  0999 V2000
   60.8930   26.0440   47.0980 O   0  0  0  0  0  0  0  0  0  0  0  0
   59.9320   26.4370   47.8140 C   0  0  0  0  0  0  0  0  0  0  0  0
   60.1910   26.9650   49.1210 N   0  0  0  0  0  0  0  0  0  0  0  0
   61.1620   28.0240   49.3780 C   0  0  0  0  0  0  0  0  0  0  0  0
   60.5540   29.3500   49.0150 C   0  0  0  0  0  0  0  0  0  0  0  0
   59.2760   29.6820   49.4900 C   0  0  0  0  0  0  0  0  0  0  0  0
   58.6100   30.8050   48.9950 C   0  0  0  0  0  0  0  0  0  0  0  0
   59.2110   31.6080   48.0140 C   0  0  0  0  0  0  0  0  0  0  0  0
   58.4160   32.6730   47.3090 C   0  0  0  0  0  0  0  0  0  0  0  0
   57.7000   32.0750   46.1880 N   0  0  0  0  0  0  0  0  0  0  0  0
   58.3200   31.7580   44.9360 C   0  0  0  0  0  0  0  0  0  0  0  0
   58.6520   32.6890   44.1520 O   0  0  0  0  0  0  0  0  0  0  0  0
   58.5050   30.3490   44.5130 C   0  0  0  0  0  0  0  0  0  0  0  0
   59.7050   29.7060   44.8780 C   0  0  0  0  0  0  0  0  0  0  0  0
   59.9570   28.3900   44.4910 C   0  0  0  0  0  0  0  0  0  0  0  0
   59.0190   27.6920   43.7350 C   0  0  0  0  0  0  0  0  0  0  0  0
   57.8190   28.3030   43.3720 C   0  0  0  0  0  0  0  0  0  0  0  0
   57.5380   29.6280   43.7560 C   0  0  0  0  0  0  0  0  0  0  0  0
   56.1960   30.2160   43.3760 C   0  0  0  0  0  0  0  0  0  0  0  0
   55.4860   30.6090   44.5190 O   0  0  0  0  0  0  0  0  0  0  0  0
   60.5080   31.3020   47.5730 C   0  0  0  0  0  0  0  0  0  0  0  0
   61.1760   30.1820   48.0730 C   0  0  0  0  0  0  0  0  0  0  0  0
   58.5480   26.3870   47.2880 C   0  0  0  0  0  0  0  0  0  0  0  0
   57.7690   25.2240   47.4310 C   0  0  0  0  0  0  0  0  0  0  0  0
   56.4520   25.1920   46.9640 C   0  0  0  0  0  0  0  0  0  0  0  0
   55.8960   26.3180   46.3510 C   0  0  0  0  0  0  0  0  0  0  0  0
   54.5840   26.2770   45.8950 O   0  0  0  0  0  0  0  0  0  0  0  0
   56.6560   27.4820   46.2020 C   0  0  0  0  0  0  0  0  0  0  0  0
   56.0920   28.6030   45.5950 O   0  0  0  0  0  0  0  0  0  0  0  0
   57.9790   27.5160   46.6680 C   0  0  0  0  0  0  0  0  0  0  0  0
   61.4339   28.0233   50.4439 H   0  0  0  0  0  0  0  0  0  0  0  0
   62.0646   27.8530   48.7729 H   0  0  0  0  0  0  0  0  0  0  0  0
   58.7966   29.0546   50.2559 H   0  0  0  0  0  0  0  0  0  0  0  0
   57.6102   31.0611   49.3757 H   0  0  0  0  0  0  0  0  0  0  0  0
   57.6951   33.1185   48.0102 H   0  0  0  0  0  0  0  0  0  0  0  0
   59.0944   33.4557   46.9385 H   0  0  0  0  0  0  0  0  0  0  0  0
   60.4521   30.2489   45.4756 H   0  0  0  0  0  0  0  0  0  0  0  0
   60.8987   27.9025   44.7836 H   0  0  0  0  0  0  0  0  0  0  0  0
   59.2247   26.6572   43.4236 H   0  0  0  0  0  0  0  0  0  0  0  0
   57.0824   27.7423   42.7779 H   0  0  0  0  0  0  0  0  0  0  0  0
   56.3554   31.0925   42.7307 H   0  0  0  0  0  0  0  0  0  0  0  0
   55.6127   29.4508   42.8429 H   0  0  0  0  0  0  0  0  0  0  0  0
   56.1600   30.7570   45.2340 H   0  0  0  0  0  0  0  0  0  0  0  0
   61.0004   31.9471   46.8304 H   0  0  0  0  0  0  0  0  0  0  0  0
   62.1942   29.9516   47.7264 H   0  0  0  0  0  0  0  0  0  0  0  0
   58.1993   24.3341   47.9135 H   0  0  0  0  0  0  0  0  0  0  0  0
   55.8514   24.2777   47.0794 H   0  0  0  0  0  0  0  0  0  0  0  0
   55.1390   28.5970   45.2520 H   0  0  0  0  0  0  0  0  0  0  0  0
   58.5764   28.4318   46.5481 H   0  0  0  0  0  0  0  0  0  0  0  0
  1  2  2  0
  2  3  1  0
  3  4  1  0
  4  5  1  0
  5  6  2  0
  6  7  1  0
  7  8  2  0
  8  9  1  0
  9 10  1  0
 10 11  1  0
 11 12  2  0
 11 13  1  0
 13 14  2  0
 14 15  1  0
 15 16  2  0
 16 17  1  0
 17 18  2  0
 18 19  1  0
 19 20  1  0
  8 21  1  0
 21 22  2  0
  2 23  1  0
 23 24  2  0
 24 25  1  0
 25 26  2  0
 26 27  1  0
 26 28  1  0
 28 29  1  0
 28 30  2  0
 22  5  1  0
 30 23  1  0
 18 13  1  0
  4 31  1  0
  4 32  1  0
  6 33  1  0
  7 34  1  0
  9 35  1  0
  9 36  1  0
 14 37  1  0
 15 38  1  0
 16 39  1  0
 17 40  1  0
 19 41  1  0
 19 42  1  0
 20 43  1  0
 21 44  1  0
 22 45  1  0
 24 46  1  0
 25 47  1  0
 29 48  1  0
 30 49  1  0
M  CHG  3   3  -1  10  -1  27  -1
M  END
>  <UniqueID>  (63) 
61

>  <SMILES>  (63) 
O=C([N-]Cc1ccc(C[N-]C(=O)c2ccccc2CO)cc1)c1ccc([O-])c(O)c1

>  <Energy>  (63) 
52.94609054783974

>  <Genealogy>  (63) 
O=C([N-]Cc1ccc(C[N-]C(=O)c2ccccc2CO)cc1)c1ccc([O-])c(O)c1 (protonated)
O=C([N-]Cc1ccc(C[N-]C(=O)c2ccccc2CO)cc1)c1ccc([O-])c(O)c1 (3D coordinates assigned)
O=C([N-]Cc1ccc(C[N-]C(=O)c2ccccc2CO)cc1)c1ccc([O-])c(O)c1 (optimized conformer: 52.94609054783974 kcal/mol)

>  <smiles>  (63) 
O=C(NCc1ccc(CNC(=O)c2ccccc2CO)cc1)c1ccc(O)c(O)c1

>  <score_type>  (63) 
oracle

>  <origin>  (63) 
adg

>  <m_score__min__energy>  (63) 
-14.93

>  <m_primary>  (63) 
energy

$$$$
63:0
     RDKit          3D

 65 68  0  0  0  0  0  0  0  0999 V2000
   50.1300   32.8200   52.7720 C   0  0  0  0  0  0  0  0  0  0  0  0
   51.0180   32.7600   51.6200 N   0  0  0  0  0  0  0  0  0  0  0  0
   51.5980   31.5390   51.1500 C   0  0  0  0  0  0  0  0  0  0  0  0
   51.0460   30.9050   50.2090 O   0  0  0  0  0  0  0  0  0  0  0  0
   52.8410   31.0190   51.7640 C   0  0  0  0  0  0  0  0  0  0  0  0
   52.8300   30.4620   53.0530 C   0  0  0  0  0  0  0  0  0  0  0  0
   54.0120   29.9800   53.6220 C   0  0  0  0  0  0  0  0  0  0  0  0
   55.2060   30.0700   52.9050 C   0  0  0  0  0  0  0  0  0  0  0  0
   56.3920   29.5830   53.4760 O   0  0  0  0  0  0  0  0  0  0  0  0
   57.6290   29.5210   52.8140 C   0  0  0  0  0  0  0  0  0  0  0  0
   57.7490   29.8970   51.4660 C   0  0  0  0  0  0  0  0  0  0  0  0
   58.9690   29.7580   50.7820 C   0  0  0  0  0  0  0  0  0  0  0  0
   59.0210   30.0440   49.3280 C   0  0  0  0  0  0  0  0  0  0  0  0
   58.2360   30.8990   48.8330 O   0  0  0  0  0  0  0  0  0  0  0  0
   59.8810   29.3030   48.4490 N   0  0  0  0  0  0  0  0  0  0  0  0
   59.3860   28.7740   47.2070 C   0  0  0  0  0  0  0  0  0  0  0  0
   58.4950   29.5420   46.4360 C   0  0  0  0  0  0  0  0  0  0  0  0
   58.0300   29.0800   45.2020 C   0  0  0  0  0  0  0  0  0  0  0  0
   56.9510   30.0910   44.2390 S   0  0  0  0  0  0  0  0  0  0  0  0
   56.8320   29.5200   42.8540 O   0  0  0  0  0  0  0  0  0  0  0  0
   55.5830   30.1010   44.8650 O   0  0  0  0  0  0  0  0  0  0  0  0
   57.5800   31.7090   44.1220 N   0  0  0  0  0  0  0  0  0  0  0  0
   56.9370   32.5790   45.1050 C   0  0  0  0  0  0  0  0  0  0  0  0
   57.9820   33.3920   45.8120 C   0  0  0  0  0  0  0  0  0  0  0  0
   58.2240   33.1940   47.1810 C   0  0  0  0  0  0  0  0  0  0  0  0
   59.1810   33.9690   47.8460 C   0  0  0  0  0  0  0  0  0  0  0  0
   59.9010   34.9440   47.1500 C   0  0  0  0  0  0  0  0  0  0  0  0
   59.6540   35.1570   45.7910 C   0  0  0  0  0  0  0  0  0  0  0  0
   58.6940   34.3900   45.1230 C   0  0  0  0  0  0  0  0  0  0  0  0
   58.4250   27.8180   44.7460 C   0  0  0  0  0  0  0  0  0  0  0  0
   59.2740   27.0240   45.5220 C   0  0  0  0  0  0  0  0  0  0  0  0
   59.7690   27.4930   46.7510 C   0  0  0  0  0  0  0  0  0  0  0  0
   60.6950   26.6270   47.5600 C   0  0  0  0  0  0  0  0  0  0  0  0
   60.0890   29.2810   51.4820 C   0  0  0  0  0  0  0  0  0  0  0  0
   59.9930   28.9660   52.8390 C   0  0  0  0  0  0  0  0  0  0  0  0
   58.7700   29.0960   53.5180 C   0  0  0  0  0  0  0  0  0  0  0  0
   58.6670   28.6940   54.9610 C   0  0  0  0  0  0  0  0  0  0  0  0
   55.1990   30.6020   51.6520 N   0  0  0  0  0  0  0  0  0  0  0  0
   54.0640   31.0760   51.0740 C   0  0  0  0  0  0  0  0  0  0  0  0
   50.7252   32.7798   53.6962 H   0  0  0  0  0  0  0  0  0  0  0  0
   49.5575   33.7589   52.7451 H   0  0  0  0  0  0  0  0  0  0  0  0
   49.4364   31.9667   52.7451 H   0  0  0  0  0  0  0  0  0  0  0  0
   51.8874   30.4048   53.6171 H   0  0  0  0  0  0  0  0  0  0  0  0
   54.0013   29.5332   54.6271 H   0  0  0  0  0  0  0  0  0  0  0  0
   56.8752   30.3063   50.9378 H   0  0  0  0  0  0  0  0  0  0  0  0
   60.8860   29.1690   48.7040 H   0  0  0  0  0  0  0  0  0  0  0  0
   58.1593   30.5205   46.8099 H   0  0  0  0  0  0  0  0  0  0  0  0
   56.2324   33.2517   44.5941 H   0  0  0  0  0  0  0  0  0  0  0  0
   56.3920   31.9653   45.8373 H   0  0  0  0  0  0  0  0  0  0  0  0
   57.6597   32.4275   47.7324 H   0  0  0  0  0  0  0  0  0  0  0  0
   59.3669   33.8105   48.9185 H   0  0  0  0  0  0  0  0  0  0  0  0
   60.6617   35.5434   47.6716 H   0  0  0  0  0  0  0  0  0  0  0  0
   60.2158   35.9296   45.2456 H   0  0  0  0  0  0  0  0  0  0  0  0
   58.4954   34.5679   44.0558 H   0  0  0  0  0  0  0  0  0  0  0  0
   58.0663   27.4493   43.7737 H   0  0  0  0  0  0  0  0  0  0  0  0
   59.5576   26.0221   45.1674 H   0  0  0  0  0  0  0  0  0  0  0  0
   60.5133   26.7969   48.6315 H   0  0  0  0  0  0  0  0  0  0  0  0
   60.5110   25.5694   47.3201 H   0  0  0  0  0  0  0  0  0  0  0  0
   61.7380   26.8813   47.3201 H   0  0  0  0  0  0  0  0  0  0  0  0
   61.0479   29.1547   50.9581 H   0  0  0  0  0  0  0  0  0  0  0  0
   60.8827   28.6130   53.3810 H   0  0  0  0  0  0  0  0  0  0  0  0
   58.8892   29.5613   55.6000 H   0  0  0  0  0  0  0  0  0  0  0  0
   57.6481   28.3360   55.1701 H   0  0  0  0  0  0  0  0  0  0  0  0
   59.3882   27.8902   55.1701 H   0  0  0  0  0  0  0  0  0  0  0  0
   54.1027   31.5059   50.0622 H   0  0  0  0  0  0  0  0  0  0  0  0
  1  2  1  0
  2  3  1  0
  3  4  2  0
  3  5  1  0
  5  6  2  0
  6  7  1  0
  7  8  2  0
  8  9  1  0
  9 10  1  0
 10 11  2  0
 11 12  1  0
 12 13  1  0
 13 14  2  0
 13 15  1  0
 15 16  1  0
 16 17  2  0
 17 18  1  0
 18 19  1  0
 19 20  2  0
 19 21  2  0
 19 22  1  0
 22 23  1  0
 23 24  1  0
 24 25  2  0
 25 26  1  0
 26 27  2  0
 27 28  1  0
 28 29  2  0
 18 30  2  0
 30 31  1  0
 31 32  2  0
 32 33  1  0
 12 34  2  0
 34 35  1  0
 35 36  2  0
 36 37  1  0
  8 38  1  0
 38 39  2  0
 39  5  1  0
 36 10  1  0
 32 16  1  0
 29 24  1  0
  1 40  1  0
  1 41  1  0
  1 42  1  0
  6 43  1  0
  7 44  1  0
 11 45  1  0
 15 46  1  0
 17 47  1  0
 23 48  1  0
 23 49  1  0
 25 50  1  0
 26 51  1  0
 27 52  1  0
 28 53  1  0
 29 54  1  0
 30 55  1  0
 31 56  1  0
 33 57  1  0
 33 58  1  0
 33 59  1  0
 34 60  1  0
 35 61  1  0
 37 62  1  0
 37 63  1  0
 37 64  1  0
 39 65  1  0
M  CHG  2   2  -1  22  -1
M  END
>  <UniqueID>  (64) 
62

>  <SMILES>  (64) 
C[N-]C(=O)c1ccc(Oc2cc(C(=O)Nc3cc(S(=O)(=O)[N-]Cc4ccccc4)ccc3C)ccc2C)nc1

>  <Energy>  (64) 
76.41200588429713

>  <Genealogy>  (64) 
C[N-]C(=O)c1ccc(Oc2cc(C(=O)Nc3cc(S(=O)(=O)[N-]Cc4ccccc4)ccc3C)ccc2C)nc1 (protonated)
C[N-]C(=O)c1ccc(Oc2cc(C(=O)Nc3cc(S(=O)(=O)[N-]Cc4ccccc4)ccc3C)ccc2C)nc1 (3D coordinates assigned)
C[N-]C(=O)c1ccc(Oc2cc(C(=O)Nc3cc(S(=O)(=O)[N-]Cc4ccccc4)ccc3C)ccc2C)nc1 (optimized conformer: 76.41200588429713 kcal/mol)

>  <smiles>  (64) 
CNC(=O)c1ccc(Oc2cc(C(=O)Nc3cc(S(=O)(=O)NCc4ccccc4)ccc3C)ccc2C)nc1

>  <score_type>  (64) 
oracle

>  <origin>  (64) 
adg

>  <m_score__min__energy>  (64) 
-15.74

>  <m_primary>  (64) 
energy

$$$$
64:0
     RDKit          3D

 48 49  0  0  0  0  0  0  0  0999 V2000
   61.5820   33.4620   52.1990 C   0  0  0  0  0  0  0  0  0  0  0  0
   61.5160   33.4650   50.4200 S   0  0  0  0  0  0  0  0  0  0  0  0
   61.4590   32.0430   49.9380 O   0  0  0  0  0  0  0  0  0  0  0  0
   60.2870   34.1850   49.9400 O   0  0  0  0  0  0  0  0  0  0  0  0
   62.9380   34.2140   49.7660 N   0  0  0  0  0  0  0  0  0  0  0  0
   63.7130   33.7350   48.6580 C   0  0  0  0  0  0  0  0  0  0  0  0
   64.8150   33.1750   48.9000 O   0  0  0  0  0  0  0  0  0  0  0  0
   63.2400   33.8300   47.2320 C   0  0  0  0  0  0  0  0  0  0  0  0
   62.0910   32.8880   46.9860 C   0  0  0  0  0  0  0  0  0  0  0  0
   62.2590   31.5030   47.1430 C   0  0  0  0  0  0  0  0  0  0  0  0
   61.1980   30.6290   46.8880 C   0  0  0  0  0  0  0  0  0  0  0  0
   59.9520   31.1230   46.4630 C   0  0  0  0  0  0  0  0  0  0  0  0
   58.8250   30.1950   46.1900 C   0  0  0  0  0  0  0  0  0  0  0  0
   57.7690   30.5840   45.3500 C   0  0  0  0  0  0  0  0  0  0  0  0
   56.7080   29.7130   45.0990 C   0  0  0  0  0  0  0  0  0  0  0  0
   56.6830   28.4410   45.6770 C   0  0  0  0  0  0  0  0  0  0  0  0
   55.5860   27.6180   45.4460 O   0  0  0  0  0  0  0  0  0  0  0  0
   57.7440   28.0230   46.5040 C   0  0  0  0  0  0  0  0  0  0  0  0
   57.7600   26.6790   47.1240 C   0  0  0  0  0  0  0  0  0  0  0  0
   58.7290   26.3540   47.8630 O   0  0  0  0  0  0  0  0  0  0  0  0
   56.7080   25.7350   46.8650 N   0  0  0  0  0  0  0  0  0  0  0  0
   56.6610   24.4170   47.4950 C   0  0  0  0  0  0  0  0  0  0  0  0
   55.7600   23.4550   46.7130 C   0  0  0  0  0  0  0  0  0  0  0  0
   54.9280   24.2720   45.3550 S   0  0  0  0  0  0  0  0  0  0  0  0
   53.9990   25.5930   45.9690 N   0  0  0  0  0  0  0  0  0  0  0  0
   54.0090   23.3050   44.6630 O   0  0  0  0  0  0  0  0  0  0  0  0
   55.9390   24.7920   44.3720 O   0  0  0  0  0  0  0  0  0  0  0  0
   58.8000   28.9120   46.7670 C   0  0  0  0  0  0  0  0  0  0  0  0
   59.7920   32.5110   46.2950 C   0  0  0  0  0  0  0  0  0  0  0  0
   60.8530   33.3830   46.5510 C   0  0  0  0  0  0  0  0  0  0  0  0
   60.5603   33.5084   52.6039 H   0  0  0  0  0  0  0  0  0  0  0  0
   62.0725   32.5406   52.5462 H   0  0  0  0  0  0  0  0  0  0  0  0
   62.1540   34.3351   52.5462 H   0  0  0  0  0  0  0  0  0  0  0  0
   62.9118   34.8600   47.0287 H   0  0  0  0  0  0  0  0  0  0  0  0
   64.0708   33.5545   46.5658 H   0  0  0  0  0  0  0  0  0  0  0  0
   63.2308   31.1033   47.4684 H   0  0  0  0  0  0  0  0  0  0  0  0
   61.3391   29.5462   47.0209 H   0  0  0  0  0  0  0  0  0  0  0  0
   57.7782   31.5817   44.8869 H   0  0  0  0  0  0  0  0  0  0  0  0
   55.8853   30.0301   44.4413 H   0  0  0  0  0  0  0  0  0  0  0  0
   55.9510   25.9800   46.1880 H   0  0  0  0  0  0  0  0  0  0  0  0
   57.6791   24.0023   47.5335 H   0  0  0  0  0  0  0  0  0  0  0  0
   56.2477   24.5321   48.5079 H   0  0  0  0  0  0  0  0  0  0  0  0
   56.3768   22.6375   46.3116 H   0  0  0  0  0  0  0  0  0  0  0  0
   54.9923   23.0723   47.4016 H   0  0  0  0  0  0  0  0  0  0  0  0
   53.9820   26.3260   45.2250 H   0  0  0  0  0  0  0  0  0  0  0  0
   59.6182   28.6006   47.4330 H   0  0  0  0  0  0  0  0  0  0  0  0
   58.8243   32.9123   45.9596 H   0  0  0  0  0  0  0  0  0  0  0  0
   60.7165   34.4654   46.4104 H   0  0  0  0  0  0  0  0  0  0  0  0
  1  2  1  0
  2  3  2  0
  2  4  2  0
  2  5  1  0
  5  6  1  0
  6  7  2  0
  6  8  1  0
  8  9  1  0
  9 10  2  0
 10 11  1  0
 11 12  2  0
 12 13  1  0
 13 14  2  0
 14 15  1  0
 15 16  2  0
 16 17  1  0
 16 18  1  0
 18 19  1  0
 19 20  2  0
 19 21  1  0
 21 22  1  0
 22 23  1  0
 23 24  1  0
 24 25  1  0
 24 26  2  0
 24 27  2  0
 18 28  2  0
 12 29  1  0
 29 30  2  0
 30  9  1  0
 28 13  1  0
  1 31  1  0
  1 32  1  0
  1 33  1  0
  8 34  1  0
  8 35  1  0
 10 36  1  0
 11 37  1  0
 14 38  1  0
 15 39  1  0
 21 40  1  0
 22 41  1  0
 22 42  1  0
 23 43  1  0
 23 44  1  0
 25 45  1  0
 28 46  1  0
 29 47  1  0
 30 48  1  0
M  CHG  3   5  -1  17  -1  25  -1
M  END
>  <UniqueID>  (65) 
63

>  <SMILES>  (65) 
CS(=O)(=O)[N-]C(=O)Cc1ccc(-c2ccc([O-])c(C(=O)NCCS([NH-])(=O)=O)c2)cc1

>  <Energy>  (65) 
46.87997844354866

>  <Genealogy>  (65) 
CS(=O)(=O)[N-]C(=O)Cc1ccc(-c2ccc([O-])c(C(=O)NCCS([NH-])(=O)=O)c2)cc1 (protonated)
CS(=O)(=O)[N-]C(=O)Cc1ccc(-c2ccc([O-])c(C(=O)NCCS([NH-])(=O)=O)c2)cc1 (3D coordinates assigned)
CS(=O)(=O)[N-]C(=O)Cc1ccc(-c2ccc([O-])c(C(=O)NCCS([NH-])(=O)=O)c2)cc1 (optimized conformer: 46.87997844354866 kcal/mol)

>  <smiles>  (65) 
CS(=O)(=O)NC(=O)Cc1ccc(-c2ccc(O)c(C(=O)NCCS(N)(=O)=O)c2)cc1

>  <score_type>  (65) 
oracle

>  <origin>  (65) 
adg

>  <m_score__min__energy>  (65) 
-13.640000000000001

>  <m_primary>  (65) 
energy

$$$$
65:0
     RDKit          3D

 58 61  0  0  0  0  0  0  0  0999 V2000
   60.7110   28.1930   49.8250 O   0  0  0  0  0  0  0  0  0  0  0  0
   59.9230   28.6220   48.9420 C   0  0  0  0  0  0  0  0  0  0  0  0
   58.9520   29.7200   49.2940 C   0  0  0  0  0  0  0  0  0  0  0  0
   59.6820   30.9720   49.6060 N   0  0  0  0  0  0  0  0  0  0  0  0
   60.7660   31.3010   48.8230 C   0  0  0  0  0  0  0  0  0  0  0  0
   61.0740   30.5680   47.8410 O   0  0  0  0  0  0  0  0  0  0  0  0
   61.5210   32.4160   49.0900 N   0  0  0  0  0  0  0  0  0  0  0  0
   62.7120   32.7070   48.2610 C   0  0  0  0  0  0  0  0  0  0  0  0
   62.3230   33.3500   46.9220 C   0  0  0  0  0  0  0  0  0  0  0  0
   60.9810   34.0970   46.9990 C   0  0  0  0  0  0  0  0  0  0  0  0
   60.0530   33.6570   45.9330 N   0  0  0  0  0  0  0  0  0  0  0  0
   59.1700   34.7690   45.4850 C   0  0  0  0  0  0  0  0  0  0  0  0
   57.8580   34.2630   44.8730 C   0  0  0  0  0  0  0  0  0  0  0  0
   57.0440   33.4630   45.9020 C   0  0  0  0  0  0  0  0  0  0  0  0
   57.9360   32.7380   46.9250 C   0  0  0  0  0  0  0  0  0  0  0  0
   59.3170   32.4280   46.3340 C   0  0  0  0  0  0  0  0  0  0  0  0
   61.1930   33.2350   50.1350 C   0  0  0  0  0  0  0  0  0  0  0  0
   61.9020   34.2490   50.3950 O   0  0  0  0  0  0  0  0  0  0  0  0
   60.0670   32.9610   50.9210 C   0  0  0  0  0  0  0  0  0  0  0  0
   59.7000   33.8120   51.9830 C   0  0  0  0  0  0  0  0  0  0  0  0
   58.5630   33.5470   52.7410 C   0  0  0  0  0  0  0  0  0  0  0  0
   57.7760   32.4390   52.4490 C   0  0  0  0  0  0  0  0  0  0  0  0
   58.1270   31.5820   51.4050 C   0  0  0  0  0  0  0  0  0  0  0  0
   59.2910   31.8130   50.6280 C   0  0  0  0  0  0  0  0  0  0  0  0
   59.8980   27.9710   47.6660 N   0  0  0  0  0  0  0  0  0  0  0  0
   59.0820   28.3380   46.5460 C   0  0  0  0  0  0  0  0  0  0  0  0
   59.5800   29.2570   45.6150 C   0  0  0  0  0  0  0  0  0  0  0  0
   58.7940   29.6570   44.5290 C   0  0  0  0  0  0  0  0  0  0  0  0
   57.4970   29.1560   44.3790 C   0  0  0  0  0  0  0  0  0  0  0  0
   56.4250   29.7040   42.8980 Br  0  0  0  0  0  0  0  0  0  0  0  0
   56.9830   28.2610   45.3230 C   0  0  0  0  0  0  0  0  0  0  0  0
   57.7670   27.8600   46.4080 C   0  0  0  0  0  0  0  0  0  0  0  0
   58.2783   29.8954   48.4423 H   0  0  0  0  0  0  0  0  0  0  0  0
   58.3715   29.4147   50.1771 H   0  0  0  0  0  0  0  0  0  0  0  0
   63.3701   33.3962   48.8105 H   0  0  0  0  0  0  0  0  0  0  0  0
   63.2264   31.7576   48.0511 H   0  0  0  0  0  0  0  0  0  0  0  0
   63.1083   34.0633   46.6312 H   0  0  0  0  0  0  0  0  0  0  0  0
   62.2165   32.5440   46.1810 H   0  0  0  0  0  0  0  0  0  0  0  0
   60.5190   33.9018   47.9780 H   0  0  0  0  0  0  0  0  0  0  0  0
   61.1759   35.1713   46.8650 H   0  0  0  0  0  0  0  0  0  0  0  0
   58.9339   35.4038   46.3518 H   0  0  0  0  0  0  0  0  0  0  0  0
   59.7076   35.3320   44.7078 H   0  0  0  0  0  0  0  0  0  0  0  0
   57.2631   35.1241   44.5344 H   0  0  0  0  0  0  0  0  0  0  0  0
   58.0974   33.6036   44.0257 H   0  0  0  0  0  0  0  0  0  0  0  0
   56.3798   34.1547   46.4409 H   0  0  0  0  0  0  0  0  0  0  0  0
   56.4737   32.6979   45.3548 H   0  0  0  0  0  0  0  0  0  0  0  0
   58.0601   33.3785   47.8107 H   0  0  0  0  0  0  0  0  0  0  0  0
   57.4525   31.7885   47.1982 H   0  0  0  0  0  0  0  0  0  0  0  0
   59.9112   31.8910   47.0881 H   0  0  0  0  0  0  0  0  0  0  0  0
   59.1653   31.8190   45.4306 H   0  0  0  0  0  0  0  0  0  0  0  0
   60.3171   34.6927   52.2147 H   0  0  0  0  0  0  0  0  0  0  0  0
   58.2873   34.2143   53.5709 H   0  0  0  0  0  0  0  0  0  0  0  0
   56.8727   32.2368   53.0434 H   0  0  0  0  0  0  0  0  0  0  0  0
   57.4906   30.7132   51.1810 H   0  0  0  0  0  0  0  0  0  0  0  0
   60.5936   29.6664   45.7378 H   0  0  0  0  0  0  0  0  0  0  0  0
   59.1969   30.3669   43.7917 H   0  0  0  0  0  0  0  0  0  0  0  0
   55.9601   27.8722   45.2111 H   0  0  0  0  0  0  0  0  0  0  0  0
   57.3539   27.1680   47.1567 H   0  0  0  0  0  0  0  0  0  0  0  0
  1  2  2  0
  2  3  1  0
  3  4  1  0
  4  5  1  0
  5  6  2  0
  5  7  1  0
  7  8  1  0
  8  9  1  0
  9 10  1  0
 10 11  1  0
 11 12  1  0
 12 13  1  0
 13 14  1  0
 14 15  1  0
 15 16  1  0
  7 17  1  0
 17 18  2  0
 17 19  1  0
 19 20  2  0
 20 21  1  0
 21 22  2  0
 22 23  1  0
 23 24  2  0
  2 25  1  0
 25 26  1  0
 26 27  2  0
 27 28  1  0
 28 29  2  0
 29 30  1  0
 29 31  1  0
 31 32  2  0
 24  4  1  0
 32 26  1  0
 16 11  1  0
 24 19  1  0
  3 33  1  0
  3 34  1  0
  8 35  1  0
  8 36  1  0
  9 37  1  0
  9 38  1  0
 10 39  1  0
 10 40  1  0
 12 41  1  0
 12 42  1  0
 13 43  1  0
 13 44  1  0
 14 45  1  0
 14 46  1  0
 15 47  1  0
 15 48  1  0
 16 49  1  0
 16 50  1  0
 20 51  1  0
 21 52  1  0
 22 53  1  0
 23 54  1  0
 27 55  1  0
 28 56  1  0
 31 57  1  0
 32 58  1  0
M  CHG  1  25  -1
M  END
>  <UniqueID>  (66) 
64

>  <SMILES>  (66) 
O=C(Cn1c(=O)n(CCCN2CCCCC2)c(=O)c2ccccc21)[N-]c1ccc(Br)cc1

>  <Energy>  (66) 
85.85865912084073

>  <Genealogy>  (66) 
O=C(Cn1c(=O)n(CCCN2CCCCC2)c(=O)c2ccccc21)[N-]c1ccc(Br)cc1 (protonated)
O=C(Cn1c(=O)n(CCCN2CCCCC2)c(=O)c2ccccc21)[N-]c1ccc(Br)cc1 (3D coordinates assigned)
O=C(Cn1c(=O)n(CCCN2CCCCC2)c(=O)c2ccccc21)[N-]c1ccc(Br)cc1 (nonaromatic ring conformer: 85.85865912084073 kcal/mol)

>  <smiles>  (66) 
O=C(Cn1c(=O)n(CCCN2CCCCC2)c(=O)c2ccccc21)Nc1ccc(Br)cc1

>  <score_type>  (66) 
oracle

>  <origin>  (66) 
adg

>  <m_score__min__energy>  (66) 
-11.23

>  <m_primary>  (66) 
energy

$$$$
66:0
     RDKit          3D

 46 48  0  0  0  0  0  0  0  0999 V2000
   55.5850   23.2560   45.9410 C   0  0  0  0  0  0  0  0  0  0  0  0
   56.4050   23.7810   47.0820 C   0  0  0  0  0  0  0  0  0  0  0  0
   57.0340   22.9680   47.8080 O   0  0  0  0  0  0  0  0  0  0  0  0
   56.4950   25.1840   47.3710 N   0  0  0  0  0  0  0  0  0  0  0  0
   57.3710   26.1060   46.7130 C   0  0  0  0  0  0  0  0  0  0  0  0
   58.7390   26.0530   47.0010 C   0  0  0  0  0  0  0  0  0  0  0  0
   59.6310   26.9110   46.3560 C   0  0  0  0  0  0  0  0  0  0  0  0
   59.1650   27.8220   45.4060 C   0  0  0  0  0  0  0  0  0  0  0  0
   57.8010   27.8890   45.1050 C   0  0  0  0  0  0  0  0  0  0  0  0
   57.3530   28.8240   44.1150 N   0  0  0  0  0  0  0  0  0  0  0  0
   56.6880   30.0590   44.4110 C   0  0  0  0  0  0  0  0  0  0  0  0
   55.5030   30.0270   44.8390 O   0  0  0  0  0  0  0  0  0  0  0  0
   57.3750   31.3840   44.2110 C   0  0  0  0  0  0  0  0  0  0  0  0
   56.6930   32.4430   44.9690 N   0  0  0  0  0  0  0  0  0  0  0  0
   57.6450   33.2070   45.8040 C   0  0  2  0  0  0  0  0  0  0  0  0
   58.3240   34.3280   44.9790 C   0  0  0  0  0  0  0  0  0  0  0  0
   59.4920   34.9630   45.7520 C   0  0  0  0  0  0  0  0  0  0  0  0
   60.6000   33.9340   46.0290 C   0  0  0  0  0  0  0  0  0  0  0  0
   60.0330   32.6500   46.5620 C   0  0  0  0  0  0  0  0  0  0  0  0
   60.7970   31.7270   47.2030 N   0  0  0  0  0  0  0  0  0  0  0  0
   60.0770   30.6360   47.5470 C   0  0  0  0  0  0  0  0  0  0  0  0
   60.6320   29.5000   48.3350 C   0  0  0  0  0  0  0  0  0  0  0  0
   58.4630   30.7860   47.0920 S   0  0  0  0  0  0  0  0  0  0  0  0
   58.7000   32.2890   46.3690 C   0  0  0  0  0  0  0  0  0  0  0  0
   56.8870   27.0770   45.8070 C   0  0  0  0  0  0  0  0  0  0  0  0
   55.5170   27.2880   45.6340 O   0  0  0  0  0  0  0  0  0  0  0  0
   54.7202   22.7023   46.3353 H   0  0  0  0  0  0  0  0  0  0  0  0
   55.2325   24.0967   45.3255 H   0  0  0  0  0  0  0  0  0  0  0  0
   56.2010   22.5840   45.3255 H   0  0  0  0  0  0  0  0  0  0  0  0
   59.1141   25.3303   47.7407 H   0  0  0  0  0  0  0  0  0  0  0  0
   60.7036   26.8695   46.5966 H   0  0  0  0  0  0  0  0  0  0  0  0
   59.8731   28.4892   44.8927 H   0  0  0  0  0  0  0  0  0  0  0  0
   58.4165   31.3064   44.5563 H   0  0  0  0  0  0  0  0  0  0  0  0
   57.3453   31.6397   43.1415 H   0  0  0  0  0  0  0  0  0  0  0  0
   55.9870   31.9670   45.5800 H   0  0  0  0  0  0  0  0  0  0  0  0
   57.0806   33.6654   46.6294 H   0  0  0  0  0  0  0  0  0  0  0  0
   58.7062   33.9004   44.0403 H   0  0  0  0  0  0  0  0  0  0  0  0
   57.5772   35.1096   44.7756 H   0  0  0  0  0  0  0  0  0  0  0  0
   59.9096   35.7885   45.1568 H   0  0  0  0  0  0  0  0  0  0  0  0
   59.1117   35.3333   46.7155 H   0  0  0  0  0  0  0  0  0  0  0  0
   61.1381   33.7263   45.0923 H   0  0  0  0  0  0  0  0  0  0  0  0
   61.2806   34.3526   46.7850 H   0  0  0  0  0  0  0  0  0  0  0  0
   60.5278   29.7133   49.4091 H   0  0  0  0  0  0  0  0  0  0  0  0
   60.0820   28.5797   48.0889 H   0  0  0  0  0  0  0  0  0  0  0  0
   61.6960   29.3682   48.0889 H   0  0  0  0  0  0  0  0  0  0  0  0
   55.1440   27.9350   44.9520 H   0  0  0  0  0  0  0  0  0  0  0  0
  1  2  1  0
  2  3  2  0
  2  4  1  0
  4  5  1  0
  5  6  2  0
  6  7  1  0
  7  8  2  0
  8  9  1  0
  9 10  1  0
 10 11  1  0
 11 12  2  0
 11 13  1  0
 13 14  1  0
 14 15  1  0
 15 16  1  0
 16 17  1  0
 17 18  1  0
 18 19  1  0
 19 20  1  0
 20 21  2  0
 21 22  1  0
 21 23  1  0
 23 24  1  0
  9 25  2  0
 25 26  1  0
 25  5  1  0
 24 15  1  0
 24 19  2  0
  1 27  1  0
  1 28  1  0
  1 29  1  0
  6 30  1  0
  7 31  1  0
  8 32  1  0
 13 33  1  0
 13 34  1  0
 14 35  1  0
 15 36  1  1
 16 37  1  0
 16 38  1  0
 17 39  1  0
 17 40  1  0
 18 41  1  0
 18 42  1  0
 22 43  1  0
 22 44  1  0
 22 45  1  0
 26 46  1  0
M  CHG  2   4  -1  10  -1
M  END
>  <UniqueID>  (67) 
65

>  <SMILES>  (67) 
CC(=O)[N-]c1cccc([N-]C(=O)CN[C@@H]2CCCc3nc(C)sc32)c1O

>  <Energy>  (67) 
86.32721751010651

>  <Genealogy>  (67) 
CC(=O)[N-]c1cccc([N-]C(=O)CNC2CCCc3nc(C)sc32)c1O (protonated)
CC(=O)[N-]c1cccc([N-]C(=O)CN[C@@H]2CCCc3nc(C)sc32)c1O (chirality)
CC(=O)[N-]c1cccc([N-]C(=O)CN[C@@H]2CCCc3nc(C)sc32)c1O (3D coordinates assigned)
CC(=O)[N-]c1cccc([N-]C(=O)CN[C@@H]2CCCc3nc(C)sc32)c1O (nonaromatic ring conformer: 86.32721751010651 kcal/mol)

>  <smiles>  (67) 
CC(=O)Nc1cccc(NC(=O)CNC2CCCc3nc(C)sc32)c1O

>  <score_type>  (67) 
oracle

>  <origin>  (67) 
adg

>  <m_score__min__energy>  (67) 
-13.58

>  <m_primary>  (67) 
energy

$$$$
67:0
     RDKit          3D

 46 48  0  0  0  0  0  0  0  0999 V2000
   59.2350   29.9600   46.8140 C   0  0  0  0  0  0  0  0  0  0  0  0
   59.3090   28.7760   45.8550 C   0  0  0  0  0  0  0  0  0  0  0  0
   58.0240   27.9940   45.8530 C   0  0  0  0  0  0  0  0  0  0  0  0
   57.8370   26.9020   46.6170 N   0  0  0  0  0  0  0  0  0  0  0  0
   56.5340   26.6080   46.4380 C   0  0  0  0  0  0  0  0  0  0  0  0
   55.9760   25.6300   46.9990 O   0  0  0  0  0  0  0  0  0  0  0  0
   55.8740   27.4530   45.6210 N   0  0  0  0  0  0  0  0  0  0  0  0
   56.8220   28.3290   45.2420 C   0  0  0  0  0  0  0  0  0  0  0  0
   56.5400   29.4710   44.3500 C   0  0  0  0  0  0  0  0  0  0  0  0
   56.5360   29.2830   43.1050 O   0  0  0  0  0  0  0  0  0  0  0  0
   56.2590   30.7860   44.8500 N   0  0  0  0  0  0  0  0  0  0  0  0
   57.0520   31.8100   44.7490 C   0  0  0  0  0  0  0  0  0  0  0  0
   57.7290   32.1380   43.6240 N   0  0  0  0  0  0  0  0  0  0  0  0
   58.4980   33.2420   43.8100 C   0  0  0  0  0  0  0  0  0  0  0  0
   58.4200   33.7960   45.0830 C   0  0  0  0  0  0  0  0  0  0  0  0
   59.2790   34.9070   45.6040 C   0  0  0  0  0  0  0  0  0  0  0  0
   60.2020   34.3900   46.6700 C   0  0  0  0  0  0  0  0  0  0  0  0
   59.7540   34.2310   47.9910 C   0  0  0  0  0  0  0  0  0  0  0  0
   60.6480   33.7910   48.9820 C   0  0  0  0  0  0  0  0  0  0  0  0
   60.2530   33.6820   50.3610 N   0  0  0  0  0  0  0  0  0  0  0  0
   59.0360   33.0650   50.8090 C   0  0  0  0  0  0  0  0  0  0  0  0
   58.4030   32.2750   50.0590 O   0  0  0  0  0  0  0  0  0  0  0  0
   58.5550   33.2970   52.2060 C   0  0  0  0  0  0  0  0  0  0  0  0
   59.5370   34.0190   52.9170 O   0  0  0  0  0  0  0  0  0  0  0  0
   58.9090   34.9440   53.7770 C   0  0  0  0  0  0  0  0  0  0  0  0
   61.9780   33.5310   48.6270 C   0  0  0  0  0  0  0  0  0  0  0  0
   62.3840   33.6880   47.3000 C   0  0  0  0  0  0  0  0  0  0  0  0
   61.4980   34.1140   46.3620 N   0  0  0  0  0  0  0  0  0  0  0  0
   57.3600   32.8730   46.0120 S   0  0  0  0  0  0  0  0  0  0  0  0
   59.2579   29.5939   47.8510 H   0  0  0  0  0  0  0  0  0  0  0  0
   60.0933   30.6260   46.6413 H   0  0  0  0  0  0  0  0  0  0  0  0
   58.3005   30.5139   46.6413 H   0  0  0  0  0  0  0  0  0  0  0  0
   59.5029   29.1495   44.8387 H   0  0  0  0  0  0  0  0  0  0  0  0
   60.1201   28.1108   46.1861 H   0  0  0  0  0  0  0  0  0  0  0  0
   59.1322   33.6643   43.0166 H   0  0  0  0  0  0  0  0  0  0  0  0
   59.8743   35.3242   44.7785 H   0  0  0  0  0  0  0  0  0  0  0  0
   58.6351   35.6885   46.0337 H   0  0  0  0  0  0  0  0  0  0  0  0
   58.7074   34.4499   48.2493 H   0  0  0  0  0  0  0  0  0  0  0  0
   60.9090   34.0430   51.0890 H   0  0  0  0  0  0  0  0  0  0  0  0
   57.6185   33.8735   52.1824 H   0  0  0  0  0  0  0  0  0  0  0  0
   58.3729   32.3317   52.7010 H   0  0  0  0  0  0  0  0  0  0  0  0
   59.1009   34.6613   54.8226 H   0  0  0  0  0  0  0  0  0  0  0  0
   59.3112   35.9505   53.5895 H   0  0  0  0  0  0  0  0  0  0  0  0
   57.8251   34.9415   53.5895 H   0  0  0  0  0  0  0  0  0  0  0  0
   62.6996   33.2045   49.3903 H   0  0  0  0  0  0  0  0  0  0  0  0
   63.4227   33.4664   47.0137 H   0  0  0  0  0  0  0  0  0  0  0  0
  1  2  1  0
  2  3  1  0
  3  4  1  0
  4  5  1  0
  5  6  2  0
  5  7  1  0
  7  8  1  0
  8  9  1  0
  9 10  2  0
  9 11  1  0
 11 12  2  3
 12 13  1  0
 13 14  1  0
 14 15  2  0
 15 16  1  0
 16 17  1  0
 17 18  2  0
 18 19  1  0
 19 20  1  0
 20 21  1  0
 21 22  2  0
 21 23  1  0
 23 24  1  0
 24 25  1  0
 19 26  2  0
 26 27  1  0
 27 28  2  0
 15 29  1  0
  8  3  2  0
 29 12  1  0
 28 17  1  0
  1 30  1  0
  1 31  1  0
  1 32  1  0
  2 33  1  0
  2 34  1  0
 14 35  1  0
 16 36  1  0
 16 37  1  0
 18 38  1  0
 20 39  1  0
 23 40  1  0
 23 41  1  0
 25 42  1  0
 25 43  1  0
 25 44  1  0
 26 45  1  0
 27 46  1  0
M  CHG  3   4  -1   7  -1  13  -1
M  END
>  <UniqueID>  (68) 
66

>  <SMILES>  (68) 
CCc1[n-]c(=O)[n-]c1C(=O)N=c1[n-]cc(Cc2cc(NC(=O)COC)ccn2)s1

>  <Energy>  (68) 
109.43975152682727

>  <Genealogy>  (68) 
CCc1[n-]c(=O)[n-]c1C(=O)N=c1[n-]cc(Cc2cc(NC(=O)COC)ccn2)s1 (protonated)
CCc1[n-]c(=O)[n-]c1C(=O)N=c1[n-]cc(Cc2cc(NC(=O)COC)ccn2)s1 (3D coordinates assigned)
CCc1[n-]c(=O)[n-]c1C(=O)N=c1[n-]cc(Cc2cc(NC(=O)COC)ccn2)s1 (optimized conformer: 109.43975152682727 kcal/mol)

>  <smiles>  (68) 
CCc1[nH]c(=O)[nH]c1C(=O)N=c1[nH]cc(Cc2cc(NC(=O)COC)ccn2)s1

>  <score_type>  (68) 
oracle

>  <origin>  (68) 
adg

>  <m_score__min__energy>  (68) 
-13.630000000000001

>  <m_primary>  (68) 
energy

$$$$
68:0
     RDKit          3D

 37 39  0  0  0  0  0  0  0  0999 V2000
   52.3750   23.8550   45.2040 H   0  0  0  0  0  0  0  0  0  0  0  0
   53.1530   23.4330   45.7580 N   0  0  0  0  0  0  0  0  0  0  0  0
   54.2520   24.0770   45.9810 C   0  0  0  0  0  0  0  0  0  0  0  0
   54.3420   25.4000   45.6880 N   0  0  0  0  0  0  0  0  0  0  0  0
   55.4870   26.0940   45.9120 C   0  0  0  0  0  0  0  0  0  0  0  0
   55.5200   27.4510   45.6190 O   0  0  0  0  0  0  0  0  0  0  0  0
   56.6130   25.4410   46.4470 C   0  0  0  0  0  0  0  0  0  0  0  0
   57.9140   26.1830   46.6870 C   0  0  0  0  0  0  0  0  0  0  0  0
   57.7263   27.0028   47.3960 H   0  0  0  0  0  0  0  0  0  0  0  0
   58.6410   25.4601   47.0856 H   0  0  0  0  0  0  0  0  0  0  0  0
   58.5060   26.7750   45.3940 C   0  0  0  0  0  0  0  0  0  0  0  0
   59.2807   26.0879   45.0228 H   0  0  0  0  0  0  0  0  0  0  0  0
   57.6703   26.8947   44.6888 H   0  0  0  0  0  0  0  0  0  0  0  0
   59.1380   28.1640   45.5710 C   0  0  0  0  0  0  0  0  0  0  0  0
   59.4930   28.2574   46.6079 H   0  0  0  0  0  0  0  0  0  0  0  0
   59.9604   28.2448   44.8449 H   0  0  0  0  0  0  0  0  0  0  0  0
   58.1800   29.2890   45.2900 C   0  0  0  0  0  0  0  0  0  0  0  0
   58.3340   30.6360   45.5600 C   0  0  0  0  0  0  0  0  0  0  0  0
   57.2380   31.2560   45.0900 N   0  0  0  0  0  0  0  0  0  0  0  0
   56.4620   30.3560   44.5080 N   0  0  0  0  0  0  0  0  0  0  0  0
   57.0150   29.1560   44.6240 N   0  0  0  0  0  0  0  0  0  0  0  0
   56.6110   28.2780   44.2320 H   0  0  0  0  0  0  0  0  0  0  0  0
   57.0200   32.7000   45.0640 C   0  0  0  0  0  0  0  0  0  0  0  0
   55.9753   32.9131   45.3344 H   0  0  0  0  0  0  0  0  0  0  0  0
   57.2339   33.0736   44.0517 H   0  0  0  0  0  0  0  0  0  0  0  0
   57.9550   33.4050   46.0620 C   0  0  0  0  0  0  0  0  0  0  0  0
   57.5797   33.2421   47.0831 H   0  0  0  0  0  0  0  0  0  0  0  0
   57.9744   34.4790   45.8250 H   0  0  0  0  0  0  0  0  0  0  0  0
   59.3900   32.8540   45.9590 C   0  0  0  0  0  0  0  0  0  0  0  0
   60.0324   33.3927   46.6712 H   0  0  0  0  0  0  0  0  0  0  0  0
   59.7440   32.9994   44.9277 H   0  0  0  0  0  0  0  0  0  0  0  0
   59.4370   31.3520   46.2800 C   0  0  0  0  0  0  0  0  0  0  0  0
   59.3174   31.2078   47.3639 H   0  0  0  0  0  0  0  0  0  0  0  0
   60.4046   30.9442   45.9524 H   0  0  0  0  0  0  0  0  0  0  0  0
   56.4850   24.0750   46.7620 C   0  0  0  0  0  0  0  0  0  0  0  0
   57.4420   23.4400   47.2780 O   0  0  0  0  0  0  0  0  0  0  0  0
   55.3160   23.4290   46.5190 N   0  0  0  0  0  0  0  0  0  0  0  0
  1  2  1  0
  2  3  2  0
  3  4  1  0
  4  5  1  0
  5  6  1  0
  5  7  2  0
  7  8  1  0
  8  9  1  0
  8 10  1  0
  8 11  1  0
 11 12  1  0
 11 13  1  0
 11 14  1  0
 14 15  1  0
 14 16  1  0
 14 17  1  0
 17 18  2  0
 18 19  1  0
 19 20  1  0
 20 21  2  0
 21 22  1  0
 19 23  1  0
 23 24  1  0
 23 25  1  0
 23 26  1  0
 26 27  1  0
 26 28  1  0
 26 29  1  0
 29 30  1  0
 29 31  1  0
 29 32  1  0
 32 33  1  0
 32 34  1  0
  7 35  1  0
 35 36  2  0
 35 37  1  0
 37  3  1  0
 21 17  1  0
 32 18  1  0
M  CHG  4   4  -1   6  -1  21   1  37  -1
M  END
>  <UniqueID>  (69) 
67

>  <SMILES>  (69) 
[H]/N=c1\[n-]c([O-])c(CCCc2[nH+]nn3c2CCCC3)c(=O)[n-]1

>  <Energy>  (69) 
71.12469259850337

>  <Genealogy>  (69) 
N=c1[n-]c([O-])c(CCCc2[nH+]nn3c2CCCC3)c(=O)[n-]1 (protonated)
[H]/N=c1\[n-]c([O-])c(CCCc2[nH+]nn3c2CCCC3)c(=O)[n-]1 (cis-trans isomerization)
[H]/N=c1\[n-]c([O-])c(CCCc2[nH+]nn3c2CCCC3)c(=O)[n-]1 (3D coordinates assigned)
[H]/N=c1\[n-]c([O-])c(CCCc2[nH+]nn3c2CCCC3)c(=O)[n-]1 (nonaromatic ring conformer: 71.12469259850337 kcal/mol)

>  <smiles>  (69) 
N=c1[nH]c(O)c(CCCc2nnn3c2CCCC3)c(=O)[nH]1

>  <score_type>  (69) 
oracle

>  <origin>  (69) 
adg

>  <m_score__min__energy>  (69) 
-13.039999999999999

>  <m_primary>  (69) 
energy

$$$$
69:0
     RDKit          3D

 40 42  0  0  0  0  0  0  0  0999 V2000
   55.1640   29.3400   44.8390 O   0  0  0  0  0  0  0  0  0  0  0  0
   56.2680   29.8420   44.5020 C   0  0  0  0  0  0  0  0  0  0  0  0
   56.3990   31.2720   44.4540 N   0  0  0  0  0  0  0  0  0  0  0  0
   57.2730   32.0110   45.0790 C   0  0  0  0  0  0  0  0  0  0  0  0
   57.7290   33.2470   44.5720 C   0  0  0  0  0  0  0  0  0  0  0  0
   58.6510   33.9930   45.3080 C   0  0  0  0  0  0  0  0  0  0  0  0
   59.1300   33.5060   46.5220 C   0  0  0  0  0  0  0  0  0  0  0  0
   58.6840   32.2670   46.9830 C   0  0  0  0  0  0  0  0  0  0  0  0
   57.7780   31.5570   46.2580 N   0  0  0  0  0  0  0  0  0  0  0  0
   57.3460   28.9670   44.1400 N   0  0  0  0  0  0  0  0  0  0  0  0
   58.1120   28.1680   45.0520 C   0  0  0  0  0  0  0  0  0  0  0  0
   59.4970   28.3500   45.2050 C   0  0  0  0  0  0  0  0  0  0  0  0
   60.2060   27.5860   46.1340 C   0  0  0  0  0  0  0  0  0  0  0  0
   59.5410   26.6420   46.9190 C   0  0  0  0  0  0  0  0  0  0  0  0
   58.1560   26.4500   46.7710 C   0  0  0  0  0  0  0  0  0  0  0  0
   57.4430   25.4970   47.5700 N   0  0  0  0  0  0  0  0  0  0  0  0
   57.0870   24.1710   47.1570 C   0  0  0  0  0  0  0  0  0  0  0  0
   57.0060   23.2650   48.0290 O   0  0  0  0  0  0  0  0  0  0  0  0
   56.9070   23.8250   45.7270 C   0  0  0  0  0  0  0  0  0  0  0  0
   57.9290   23.1150   45.0730 C   0  0  0  0  0  0  0  0  0  0  0  0
   57.7730   22.6990   43.7500 C   0  0  0  0  0  0  0  0  0  0  0  0
   56.5940   22.9800   43.0650 C   0  0  0  0  0  0  0  0  0  0  0  0
   55.5690   23.6870   43.6950 C   0  0  0  0  0  0  0  0  0  0  0  0
   55.7130   24.1310   45.0220 C   0  0  0  0  0  0  0  0  0  0  0  0
   54.6630   24.9190   45.6110 N   0  0  0  0  0  0  0  0  0  0  0  0
   53.6160   24.3760   46.0180 O   0  0  0  0  0  0  0  0  0  0  0  0
   54.8850   26.2420   45.9180 O   0  0  0  0  0  0  0  0  0  0  0  0
   57.4570   27.1900   45.8100 C   0  0  0  0  0  0  0  0  0  0  0  0
   57.3607   33.6193   43.6047 H   0  0  0  0  0  0  0  0  0  0  0  0
   58.9993   34.9653   44.9294 H   0  0  0  0  0  0  0  0  0  0  0  0
   59.8516   34.0916   47.1105 H   0  0  0  0  0  0  0  0  0  0  0  0
   59.0651   31.8641   47.9330 H   0  0  0  0  0  0  0  0  0  0  0  0
   60.0236   29.0959   44.5916 H   0  0  0  0  0  0  0  0  0  0  0  0
   61.2908   27.7281   46.2477 H   0  0  0  0  0  0  0  0  0  0  0  0
   60.1019   26.0472   47.6549 H   0  0  0  0  0  0  0  0  0  0  0  0
   58.8613   22.8850   45.6096 H   0  0  0  0  0  0  0  0  0  0  0  0
   58.5823   22.1486   43.2480 H   0  0  0  0  0  0  0  0  0  0  0  0
   56.4702   22.6440   42.0249 H   0  0  0  0  0  0  0  0  0  0  0  0
   54.6385   23.8994   43.1481 H   0  0  0  0  0  0  0  0  0  0  0  0
   56.3852   27.0017   45.6493 H   0  0  0  0  0  0  0  0  0  0  0  0
  1  2  2  0
  2  3  1  0
  3  4  2  3
  4  5  1  0
  5  6  2  0
  6  7  1  0
  7  8  2  0
  8  9  1  0
  2 10  1  0
 10 11  1  0
 11 12  2  0
 12 13  1  0
 13 14  2  0
 14 15  1  0
 15 16  1  0
 16 17  1  0
 17 18  2  0
 17 19  1  0
 19 20  2  0
 20 21  1  0
 21 22  2  0
 22 23  1  0
 23 24  2  0
 24 25  1  0
 25 26  2  0
 25 27  1  0
 15 28  2  0
  9  4  1  0
 28 11  1  0
 24 19  1  0
  5 29  1  0
  6 30  1  0
  7 31  1  0
  8 32  1  0
 12 33  1  0
 13 34  1  0
 14 35  1  0
 20 36  1  0
 21 37  1  0
 22 38  1  0
 23 39  1  0
 28 40  1  0
M  CHG  5   9  -1  10  -1  16  -1  25   1  27  -1
M  END
>  <UniqueID>  (70) 
68

>  <SMILES>  (70) 
O=C(N=c1cccc[n-]1)[N-]c1cccc([N-]C(=O)c2ccccc2[N+](=O)[O-])c1

>  <Energy>  (70) 
66.454155477307

>  <Genealogy>  (70) 
O=C(N=c1cccc[n-]1)[N-]c1cccc([N-]C(=O)c2ccccc2[N+](=O)[O-])c1 (protonated)
O=C(N=c1cccc[n-]1)[N-]c1cccc([N-]C(=O)c2ccccc2[N+](=O)[O-])c1 (3D coordinates assigned)
O=C(N=c1cccc[n-]1)[N-]c1cccc([N-]C(=O)c2ccccc2[N+](=O)[O-])c1 (optimized conformer: 66.454155477307 kcal/mol)

>  <smiles>  (70) 
O=C(N=c1cccc[nH]1)Nc1cccc(NC(=O)c2ccccc2[N+](=O)[O-])c1

>  <score_type>  (70) 
oracle

>  <origin>  (70) 
adg

>  <m_score__min__energy>  (70) 
-13.06

>  <m_primary>  (70) 
energy

$$$$
70:0
     RDKit          3D

 44 46  0  0  0  0  0  0  0  0999 V2000
   53.6910   24.2680   46.3470 O   0  0  0  0  0  0  0  0  0  0  0  0
   54.5400   24.8230   45.5990 C   0  0  0  0  0  0  0  0  0  0  0  0
   54.8670   26.1600   45.8010 O   0  0  0  0  0  0  0  0  0  0  0  0
   55.1640   24.0640   44.4740 C   0  0  0  0  0  0  0  0  0  0  0  0
   56.6120   23.8120   44.7690 C   0  0  0  0  0  0  0  0  0  0  0  0
   57.2610   22.6280   44.4210 C   0  0  0  0  0  0  0  0  0  0  0  0
   58.8470   22.7270   44.9720 S   0  0  0  0  0  0  0  0  0  0  0  0
   58.6420   24.2500   45.6430 C   0  0  0  0  0  0  0  0  0  0  0  0
   59.6030   24.8890   46.2470 N   0  0  0  0  0  0  0  0  0  0  0  0
   59.5860   26.2040   46.8300 C   0  0  0  0  0  0  0  0  0  0  0  0
   60.1450   26.4260   47.9380 O   0  0  0  0  0  0  0  0  0  0  0  0
   58.9620   27.3260   46.0890 C   0  0  0  0  0  0  0  0  0  0  0  0
   59.7190   28.0930   45.1830 C   0  0  0  0  0  0  0  0  0  0  0  0
   59.1330   29.1570   44.4920 C   0  0  0  0  0  0  0  0  0  0  0  0
   57.7850   29.4730   44.6950 C   0  0  0  0  0  0  0  0  0  0  0  0
   57.0640   30.8420   43.8510 S   0  0  0  0  0  0  0  0  0  0  0  0
   56.5830   30.3810   42.5030 O   0  0  0  0  0  0  0  0  0  0  0  0
   55.8950   31.3660   44.6370 O   0  0  0  0  0  0  0  0  0  0  0  0
   58.2360   32.1090   43.6260 N   0  0  0  0  0  0  0  0  0  0  0  0
   57.7480   33.3800   44.1640 C   0  0  0  0  0  0  0  0  0  0  0  0
   58.3470   33.6470   45.5190 C   0  0  0  0  0  0  0  0  0  0  0  0
   58.0160   32.8380   46.6200 C   0  0  0  0  0  0  0  0  0  0  0  0
   58.5790   33.0940   47.8740 C   0  0  0  0  0  0  0  0  0  0  0  0
   59.4770   34.1530   48.0380 C   0  0  0  0  0  0  0  0  0  0  0  0
   59.8190   34.9550   46.9460 C   0  0  0  0  0  0  0  0  0  0  0  0
   59.2560   34.7060   45.6900 C   0  0  0  0  0  0  0  0  0  0  0  0
   57.0250   28.7160   45.5950 C   0  0  0  0  0  0  0  0  0  0  0  0
   57.6040   27.6470   46.2820 C   0  0  0  0  0  0  0  0  0  0  0  0
   57.3800   24.7090   45.4490 N   0  0  0  0  0  0  0  0  0  0  0  0
   54.6443   23.1024   44.3504 H   0  0  0  0  0  0  0  0  0  0  0  0
   55.0804   24.6537   43.5492 H   0  0  0  0  0  0  0  0  0  0  0  0
   56.8148   21.7795   43.8816 H   0  0  0  0  0  0  0  0  0  0  0  0
   60.7797   27.8530   45.0178 H   0  0  0  0  0  0  0  0  0  0  0  0
   59.7339   29.7486   43.7856 H   0  0  0  0  0  0  0  0  0  0  0  0
   58.0274   34.1937   43.4786 H   0  0  0  0  0  0  0  0  0  0  0  0
   56.6539   33.3257   44.2645 H   0  0  0  0  0  0  0  0  0  0  0  0
   57.3125   32.0017   46.4947 H   0  0  0  0  0  0  0  0  0  0  0  0
   58.3147   32.4606   48.7337 H   0  0  0  0  0  0  0  0  0  0  0  0
   59.9144   34.3549   49.0269 H   0  0  0  0  0  0  0  0  0  0  0  0
   60.5317   35.7830   47.0743 H   0  0  0  0  0  0  0  0  0  0  0  0
   59.5253   35.3409   44.8330 H   0  0  0  0  0  0  0  0  0  0  0  0
   55.9665   28.9647   45.7617 H   0  0  0  0  0  0  0  0  0  0  0  0
   56.9956   27.0515   46.9786 H   0  0  0  0  0  0  0  0  0  0  0  0
   57.0110   25.6380   45.7480 H   0  0  0  0  0  0  0  0  0  0  0  0
  1  2  2  0
  2  3  1  0
  2  4  1  0
  4  5  1  0
  5  6  2  0
  6  7  1  0
  7  8  1  0
  8  9  2  3
  9 10  1  0
 10 11  2  0
 10 12  1  0
 12 13  2  0
 13 14  1  0
 14 15  2  0
 15 16  1  0
 16 17  2  0
 16 18  2  0
 16 19  1  0
 19 20  1  0
 20 21  1  0
 21 22  2  0
 22 23  1  0
 23 24  2  0
 24 25  1  0
 25 26  2  0
 15 27  1  0
 27 28  2  0
  8 29  1  0
 29  5  1  0
 28 12  1  0
 26 21  1  0
  4 30  1  0
  4 31  1  0
  6 32  1  0
 13 33  1  0
 14 34  1  0
 20 35  1  0
 20 36  1  0
 22 37  1  0
 23 38  1  0
 24 39  1  0
 25 40  1  0
 26 41  1  0
 27 42  1  0
 28 43  1  0
 29 44  1  0
M  CHG  2   3  -1  19  -1
M  END
>  <UniqueID>  (71) 
69

>  <SMILES>  (71) 
O=C([O-])Cc1csc(=NC(=O)c2ccc(S(=O)(=O)[N-]Cc3ccccc3)cc2)[nH]1

>  <Energy>  (71) 
79.05252003500543

>  <Genealogy>  (71) 
O=C([O-])Cc1csc(=NC(=O)c2ccc(S(=O)(=O)[N-]Cc3ccccc3)cc2)[nH]1 (protonated)
O=C([O-])Cc1csc(=NC(=O)c2ccc(S(=O)(=O)[N-]Cc3ccccc3)cc2)[nH]1 (3D coordinates assigned)
O=C([O-])Cc1csc(=NC(=O)c2ccc(S(=O)(=O)[N-]Cc3ccccc3)cc2)[nH]1 (optimized conformer: 79.05252003500543 kcal/mol)

>  <smiles>  (71) 
O=C(O)Cc1csc(=NC(=O)c2ccc(S(=O)(=O)NCc3ccccc3)cc2)[nH]1

>  <score_type>  (71) 
oracle

>  <origin>  (71) 
adg

>  <m_score__min__energy>  (71) 
-13.59

>  <m_primary>  (71) 
energy

$$$$
71:0
     RDKit          3D

 49 51  0  0  0  0  0  0  0  0999 V2000
   51.1210   24.1250   43.9510 C   0  0  0  0  0  0  0  0  0  0  0  0
   51.8910   23.7590   45.2150 C   0  0  0  0  0  0  0  0  0  0  0  0
   53.2430   23.3240   44.8820 N   0  0  0  0  0  0  0  0  0  0  0  0
   54.4180   24.1050   45.1360 C   0  0  0  0  0  0  0  0  0  0  0  0
   54.2970   25.2600   45.6310 O   0  0  0  0  0  0  0  0  0  0  0  0
   55.7760   23.5660   44.8450 C   0  0  0  0  0  0  0  0  0  0  0  0
   55.9130   22.5710   43.8560 C   0  0  0  0  0  0  0  0  0  0  0  0
   57.1640   22.0320   43.5510 C   0  0  0  0  0  0  0  0  0  0  0  0
   58.2990   22.4780   44.2220 C   0  0  0  0  0  0  0  0  0  0  0  0
   58.1880   23.4590   45.2060 C   0  0  0  0  0  0  0  0  0  0  0  0
   56.9320   23.9970   45.5450 C   0  0  0  0  0  0  0  0  0  0  0  0
   56.8330   25.0010   46.5700 N   0  0  0  0  0  0  0  0  0  0  0  0
   57.8620   25.9220   46.9550 C   0  0  0  0  0  0  0  0  0  0  0  0
   58.4950   25.7040   48.0220 O   0  0  0  0  0  0  0  0  0  0  0  0
   58.2350   27.0810   46.1110 C   0  0  0  0  0  0  0  0  0  0  0  0
   59.5850   27.4070   45.8910 C   0  0  0  0  0  0  0  0  0  0  0  0
   59.9260   28.5030   45.0950 C   0  0  0  0  0  0  0  0  0  0  0  0
   58.9280   29.2930   44.5230 C   0  0  0  0  0  0  0  0  0  0  0  0
   57.5780   28.9940   44.7490 C   0  0  0  0  0  0  0  0  0  0  0  0
   56.3250   30.0060   44.0400 S   0  0  0  0  0  0  0  0  0  0  0  0
   56.6450   30.2320   42.5900 O   0  0  0  0  0  0  0  0  0  0  0  0
   54.9800   29.3400   44.1460 O   0  0  0  0  0  0  0  0  0  0  0  0
   56.2630   31.5360   44.8540 N   0  0  0  0  0  0  0  0  0  0  0  0
   57.4050   32.3150   45.2350 C   0  0  0  0  0  0  0  0  0  0  0  0
   58.1270   31.9360   46.3740 C   0  0  0  0  0  0  0  0  0  0  0  0
   59.2430   32.6710   46.7830 C   0  0  0  0  0  0  0  0  0  0  0  0
   59.6500   33.7960   46.0540 C   0  0  0  0  0  0  0  0  0  0  0  0
   60.7610   34.5360   46.4520 O   0  0  0  0  0  0  0  0  0  0  0  0
   58.9340   34.1800   44.9160 C   0  0  0  0  0  0  0  0  0  0  0  0
   57.8180   33.4450   44.5050 C   0  0  0  0  0  0  0  0  0  0  0  0
   57.2350   27.8900   45.5430 C   0  0  0  0  0  0  0  0  0  0  0  0
   50.1593   24.5821   44.2269 H   0  0  0  0  0  0  0  0  0  0  0  0
   51.7097   24.8396   43.3571 H   0  0  0  0  0  0  0  0  0  0  0  0
   50.9385   23.2173   43.3571 H   0  0  0  0  0  0  0  0  0  0  0  0
   51.9456   24.6388   45.8731 H   0  0  0  0  0  0  0  0  0  0  0  0
   51.3680   22.9362   45.7243 H   0  0  0  0  0  0  0  0  0  0  0  0
   55.0225   22.2146   43.3175 H   0  0  0  0  0  0  0  0  0  0  0  0
   57.2530   21.2534   42.7790 H   0  0  0  0  0  0  0  0  0  0  0  0
   59.2844   22.0559   43.9755 H   0  0  0  0  0  0  0  0  0  0  0  0
   59.0909   23.8164   45.7228 H   0  0  0  0  0  0  0  0  0  0  0  0
   60.3769   26.7956   46.3482 H   0  0  0  0  0  0  0  0  0  0  0  0
   60.9846   28.7441   44.9185 H   0  0  0  0  0  0  0  0  0  0  0  0
   59.2018   30.1524   43.8933 H   0  0  0  0  0  0  0  0  0  0  0  0
   57.8132   31.0534   46.9507 H   0  0  0  0  0  0  0  0  0  0  0  0
   59.8030   32.3656   47.6792 H   0  0  0  0  0  0  0  0  0  0  0  0
   61.7040   34.2240   46.2550 H   0  0  0  0  0  0  0  0  0  0  0  0
   59.2499   35.0636   44.3420 H   0  0  0  0  0  0  0  0  0  0  0  0
   57.2606   33.7512   43.6075 H   0  0  0  0  0  0  0  0  0  0  0  0
   56.1755   27.6552   45.7228 H   0  0  0  0  0  0  0  0  0  0  0  0
  1  2  1  0
  2  3  1  0
  3  4  1  0
  4  5  2  0
  4  6  1  0
  6  7  2  0
  7  8  1  0
  8  9  2  0
  9 10  1  0
 10 11  2  0
 11 12  1  0
 12 13  1  0
 13 14  2  0
 13 15  1  0
 15 16  2  0
 16 17  1  0
 17 18  2  0
 18 19  1  0
 19 20  1  0
 20 21  2  0
 20 22  2  0
 20 23  1  0
 23 24  1  0
 24 25  2  0
 25 26  1  0
 26 27  2  0
 27 28  1  0
 27 29  1  0
 29 30  2  0
 19 31  2  0
 11  6  1  0
 31 15  1  0
 30 24  1  0
  1 32  1  0
  1 33  1  0
  1 34  1  0
  2 35  1  0
  2 36  1  0
  7 37  1  0
  8 38  1  0
  9 39  1  0
 10 40  1  0
 16 41  1  0
 17 42  1  0
 18 43  1  0
 25 44  1  0
 26 45  1  0
 28 46  1  0
 29 47  1  0
 30 48  1  0
 31 49  1  0
M  CHG  3   3  -1  12  -1  23  -1
M  END
>  <UniqueID>  (72) 
70

>  <SMILES>  (72) 
CC[N-]C(=O)c1ccccc1[N-]C(=O)c1cccc(S(=O)(=O)[N-]c2ccc(O)cc2)c1

>  <Energy>  (72) 
59.92101990250986

>  <Genealogy>  (72) 
CC[N-]C(=O)c1ccccc1[N-]C(=O)c1cccc(S(=O)(=O)[N-]c2ccc(O)cc2)c1 (protonated)
CC[N-]C(=O)c1ccccc1[N-]C(=O)c1cccc(S(=O)(=O)[N-]c2ccc(O)cc2)c1 (3D coordinates assigned)
CC[N-]C(=O)c1ccccc1[N-]C(=O)c1cccc(S(=O)(=O)[N-]c2ccc(O)cc2)c1 (optimized conformer: 59.92101990250986 kcal/mol)

>  <smiles>  (72) 
CCNC(=O)c1ccccc1NC(=O)c1cccc(S(=O)(=O)Nc2ccc(O)cc2)c1

>  <score_type>  (72) 
oracle

>  <origin>  (72) 
adg

>  <m_score__min__energy>  (72) 
-14.85

>  <m_primary>  (72) 
energy

$$$$
72:0
     RDKit          3D

 40 42  0  0  0  0  0  0  0  0999 V2000
   57.7160   33.5830   44.4680 C   0  0  0  0  0  0  0  0  0  0  0  0
   57.3850   31.8970   44.9470 S   0  0  0  0  0  0  0  0  0  0  0  0
   57.4950   31.7750   46.4400 O   0  0  0  0  0  0  0  0  0  0  0  0
   55.9870   31.5470   44.5200 O   0  0  0  0  0  0  0  0  0  0  0  0
   58.4960   30.8030   44.1870 N   0  0  0  0  0  0  0  0  0  0  0  0
   58.8500   29.5470   44.7680 C   0  0  0  0  0  0  0  0  0  0  0  0
   60.1640   29.0880   44.6270 C   0  0  0  0  0  0  0  0  0  0  0  0
   60.5720   27.9160   45.2620 C   0  0  0  0  0  0  0  0  0  0  0  0
   59.6760   27.2030   46.0600 C   0  0  0  0  0  0  0  0  0  0  0  0
   58.3500   27.6430   46.2110 C   0  0  0  0  0  0  0  0  0  0  0  0
   57.4050   26.8750   47.1100 C   0  0  0  0  0  0  0  0  0  0  0  0
   56.4650   26.0020   46.3140 C   0  0  0  0  0  0  0  0  0  0  0  0
   55.1550   26.3640   46.2490 N   0  0  0  0  0  0  0  0  0  0  0  0
   54.2440   25.6160   45.6280 N   0  0  0  0  0  0  0  0  0  0  0  0
   54.5710   24.4400   45.0390 C   0  0  0  0  0  0  0  0  0  0  0  0
   53.6760   23.7660   44.4630 O   0  0  0  0  0  0  0  0  0  0  0  0
   55.8990   23.9900   45.0790 C   0  0  0  0  0  0  0  0  0  0  0  0
   56.8740   24.8030   45.6900 C   0  0  0  0  0  0  0  0  0  0  0  0
   58.2530   24.3840   45.6880 N   0  0  0  0  0  0  0  0  0  0  0  0
   58.6870   23.1470   45.0400 C   0  0  0  0  0  0  0  0  0  0  0  0
   57.5650   22.1100   45.0430 C   0  0  0  0  0  0  0  0  0  0  0  0
   56.2980   22.6940   44.4130 C   0  0  0  0  0  0  0  0  0  0  0  0
   57.9180   28.7890   45.5090 C   0  0  0  0  0  0  0  0  0  0  0  0
   56.5700   29.1470   45.5440 O   0  0  0  0  0  0  0  0  0  0  0  0
   57.8377   34.2029   45.3685 H   0  0  0  0  0  0  0  0  0  0  0  0
   58.6385   33.6199   43.8700 H   0  0  0  0  0  0  0  0  0  0  0  0
   56.8759   33.9660   43.8700 H   0  0  0  0  0  0  0  0  0  0  0  0
   60.8787   29.6546   44.0121 H   0  0  0  0  0  0  0  0  0  0  0  0
   61.6022   27.5524   45.1339 H   0  0  0  0  0  0  0  0  0  0  0  0
   60.0102   26.2900   46.5745 H   0  0  0  0  0  0  0  0  0  0  0  0
   57.9944   26.2396   47.7874 H   0  0  0  0  0  0  0  0  0  0  0  0
   56.8030   27.6012   47.6759 H   0  0  0  0  0  0  0  0  0  0  0  0
   59.0040   25.0490   45.9710 H   0  0  0  0  0  0  0  0  0  0  0  0
   58.9731   23.3656   44.0006 H   0  0  0  0  0  0  0  0  0  0  0  0
   59.5445   22.7400   45.5959 H   0  0  0  0  0  0  0  0  0  0  0  0
   57.8838   21.2292   44.4664 H   0  0  0  0  0  0  0  0  0  0  0  0
   57.3472   21.8224   46.0822 H   0  0  0  0  0  0  0  0  0  0  0  0
   56.4833   22.8824   43.3452 H   0  0  0  0  0  0  0  0  0  0  0  0
   55.4801   21.9704   44.5452 H   0  0  0  0  0  0  0  0  0  0  0  0
   56.2620   30.1000   45.6910 H   0  0  0  0  0  0  0  0  0  0  0  0
  1  2  1  0
  2  3  2  0
  2  4  2  0
  2  5  1  0
  5  6  1  0
  6  7  2  0
  7  8  1  0
  8  9  2  0
  9 10  1  0
 10 11  1  0
 11 12  1  0
 12 13  2  0
 13 14  1  0
 14 15  1  0
 15 16  2  0
 15 17  1  0
 17 18  2  0
 18 19  1  0
 19 20  1  0
 20 21  1  0
 21 22  1  0
 10 23  2  0
 23 24  1  0
 23  6  1  0
 18 12  1  0
 22 17  1  0
  1 25  1  0
  1 26  1  0
  1 27  1  0
  7 28  1  0
  8 29  1  0
  9 30  1  0
 11 31  1  0
 11 32  1  0
 19 33  1  0
 20 34  1  0
 20 35  1  0
 21 36  1  0
 21 37  1  0
 22 38  1  0
 22 39  1  0
 24 40  1  0
M  CHG  2   5  -1  14  -1
M  END
>  <UniqueID>  (73) 
71

>  <SMILES>  (73) 
CS(=O)(=O)[N-]c1cccc(Cc2n[n-]c(=O)c3c2NCCC3)c1O

>  <Energy>  (73) 
47.93692233701662

>  <Genealogy>  (73) 
CS(=O)(=O)[N-]c1cccc(Cc2n[n-]c(=O)c3c2NCCC3)c1O (protonated)
CS(=O)(=O)[N-]c1cccc(Cc2n[n-]c(=O)c3c2NCCC3)c1O (3D coordinates assigned)
CS(=O)(=O)[N-]c1cccc(Cc2n[n-]c(=O)c3c2NCCC3)c1O (nonaromatic ring conformer: 47.93692233701662 kcal/mol)

>  <smiles>  (73) 
CS(=O)(=O)Nc1cccc(Cc2n[nH]c(=O)c3c2NCCC3)c1O

>  <score_type>  (73) 
oracle

>  <origin>  (73) 
adg

>  <m_score__min__energy>  (73) 
-12.449999999999999

>  <m_primary>  (73) 
energy

$$$$
73:0
     RDKit          3D

 52 54  0  0  0  0  0  0  0  0999 V2000
   59.8550   29.5460   45.6400 C   0  0  0  0  0  0  0  0  0  0  0  0
   59.0010   30.6450   45.9410 O   0  0  0  0  0  0  0  0  0  0  0  0
   59.0590   31.3970   47.1260 C   0  0  0  0  0  0  0  0  0  0  0  0
   58.8830   30.8030   48.3920 C   0  0  0  0  0  0  0  0  0  0  0  0
   58.9400   31.5790   49.5570 C   0  0  0  0  0  0  0  0  0  0  0  0
   58.7060   30.8210   51.1360 S   0  0  0  0  0  0  0  0  0  0  0  0
   59.9240   30.0010   51.4610 O   0  0  0  0  0  0  0  0  0  0  0  0
   57.5390   29.8790   51.0250 O   0  0  0  0  0  0  0  0  0  0  0  0
   58.3740   31.9820   52.4190 N   0  0  0  0  0  0  0  0  0  0  0  0
   57.0660   32.6420   52.2540 C   0  0  0  0  0  0  0  0  0  0  0  0
   55.8680   31.7340   52.6090 C   0  0  0  0  0  0  0  0  0  0  0  0
   56.2850   30.4540   53.2060 N   0  0  0  0  0  0  0  0  0  0  0  0
   55.4070   29.3080   53.1610 C   0  0  0  0  0  0  0  0  0  0  0  0
   55.4290   28.4720   54.1070 O   0  0  0  0  0  0  0  0  0  0  0  0
   54.4460   29.1020   52.0150 C   0  0  0  0  0  0  0  0  0  0  0  0
   53.3460   30.1350   52.0020 C   0  0  0  0  0  0  0  0  0  0  0  0
   52.5680   30.3570   53.1500 C   0  0  0  0  0  0  0  0  0  0  0  0
   51.5750   31.3410   53.1490 C   0  0  0  0  0  0  0  0  0  0  0  0
   51.3560   32.1150   52.0050 C   0  0  0  0  0  0  0  0  0  0  0  0
   50.3690   33.0920   52.0060 O   0  0  0  0  0  0  0  0  0  0  0  0
   52.1340   31.9060   50.8630 C   0  0  0  0  0  0  0  0  0  0  0  0
   53.1280   30.9240   50.8600 C   0  0  0  0  0  0  0  0  0  0  0  0
   57.4080   30.4300   54.1520 C   0  0  0  0  0  0  0  0  0  0  0  0
   58.5150   31.4320   53.7800 C   0  0  0  0  0  0  0  0  0  0  0  0
   59.1930   32.9520   49.4620 C   0  0  0  0  0  0  0  0  0  0  0  0
   59.3690   33.5510   48.2140 C   0  0  0  0  0  0  0  0  0  0  0  0
   59.2990   32.7830   47.0410 C   0  0  0  0  0  0  0  0  0  0  0  0
   59.4930   33.4350   45.7010 C   0  0  0  0  0  0  0  0  0  0  0  0
   60.2094   29.0899   46.5762 H   0  0  0  0  0  0  0  0  0  0  0  0
   59.2984   28.7985   45.0557 H   0  0  0  0  0  0  0  0  0  0  0  0
   60.7168   29.9007   45.0557 H   0  0  0  0  0  0  0  0  0  0  0  0
   58.6993   29.7210   48.4659 H   0  0  0  0  0  0  0  0  0  0  0  0
   59.1040   32.7280   52.3220 H   0  0  0  0  0  0  0  0  0  0  0  0
   57.0377   33.5267   52.9070 H   0  0  0  0  0  0  0  0  0  0  0  0
   56.9684   32.9049   51.1904 H   0  0  0  0  0  0  0  0  0  0  0  0
   55.2244   32.2643   53.3264 H   0  0  0  0  0  0  0  0  0  0  0  0
   55.3333   31.5074   51.6748 H   0  0  0  0  0  0  0  0  0  0  0  0
   55.0036   29.1661   51.0690 H   0  0  0  0  0  0  0  0  0  0  0  0
   53.9799   28.1133   52.1382 H   0  0  0  0  0  0  0  0  0  0  0  0
   52.7407   29.7541   54.0537 H   0  0  0  0  0  0  0  0  0  0  0  0
   50.9651   31.5067   54.0493 H   0  0  0  0  0  0  0  0  0  0  0  0
   51.9633   32.5163   49.9639 H   0  0  0  0  0  0  0  0  0  0  0  0
   53.7419   30.7681   49.9606 H   0  0  0  0  0  0  0  0  0  0  0  0
   57.0298   30.6787   55.1546 H   0  0  0  0  0  0  0  0  0  0  0  0
   57.8470   29.4218   54.1232 H   0  0  0  0  0  0  0  0  0  0  0  0
   58.4865   32.2653   54.4975 H   0  0  0  0  0  0  0  0  0  0  0  0
   59.4702   30.8875   53.8128 H   0  0  0  0  0  0  0  0  0  0  0  0
   59.2534   33.5620   50.3754 H   0  0  0  0  0  0  0  0  0  0  0  0
   59.5638   34.6317   48.1490 H   0  0  0  0  0  0  0  0  0  0  0  0
   59.8041   34.4804   45.8435 H   0  0  0  0  0  0  0  0  0  0  0  0
   60.2693   32.8948   45.1393 H   0  0  0  0  0  0  0  0  0  0  0  0
   58.5476   33.4071   45.1393 H   0  0  0  0  0  0  0  0  0  0  0  0
  1  2  1  0
  2  3  1  0
  3  4  2  0
  4  5  1  0
  5  6  1  0
  6  7  2  0
  6  8  2  0
  6  9  1  0
  9 10  1  0
 10 11  1  0
 11 12  1  0
 12 13  1  0
 13 14  2  0
 13 15  1  0
 15 16  1  0
 16 17  2  0
 17 18  1  0
 18 19  2  0
 19 20  1  0
 19 21  1  0
 21 22  2  0
 12 23  1  0
 23 24  1  0
  5 25  2  0
 25 26  1  0
 26 27  2  0
 27 28  1  0
 27  3  1  0
 24  9  1  0
 22 16  1  0
  1 29  1  0
  1 30  1  0
  1 31  1  0
  4 32  1  0
  9 33  1  0
 10 34  1  0
 10 35  1  0
 11 36  1  0
 11 37  1  0
 15 38  1  0
 15 39  1  0
 17 40  1  0
 18 41  1  0
 21 42  1  0
 22 43  1  0
 23 44  1  0
 23 45  1  0
 24 46  1  0
 24 47  1  0
 25 48  1  0
 26 49  1  0
 28 50  1  0
 28 51  1  0
 28 52  1  0
M  CHG  2   9   1  20  -1
M  END
>  <UniqueID>  (74) 
72

>  <SMILES>  (74) 
COc1cc(S(=O)(=O)[NH+]2CCN(C(=O)Cc3ccc([O-])cc3)CC2)ccc1C

>  <Energy>  (74) 
61.563904299265424

>  <Genealogy>  (74) 
COc1cc(S(=O)(=O)[NH+]2CCN(C(=O)Cc3ccc([O-])cc3)CC2)ccc1C (protonated)
COc1cc(S(=O)(=O)[NH+]2CCN(C(=O)Cc3ccc([O-])cc3)CC2)ccc1C (3D coordinates assigned)
COc1cc(S(=O)(=O)[NH+]2CCN(C(=O)Cc3ccc([O-])cc3)CC2)ccc1C (nonaromatic ring conformer: 61.563904299265424 kcal/mol)

>  <smiles>  (74) 
COc1cc(S(=O)(=O)N2CCN(C(=O)Cc3ccc(O)cc3)CC2)ccc1C

>  <score_type>  (74) 
oracle

>  <origin>  (74) 
adg

>  <m_score__min__energy>  (74) 
-10.720000000000001

>  <m_primary>  (74) 
energy

$$$$
74:0
     RDKit          3D

 48 50  0  0  0  0  0  0  0  0999 V2000
   58.1320   32.5480   41.2170 C   0  0  0  0  0  0  0  0  0  0  0  0
   57.1900   31.5400   41.8640 C   0  0  0  0  0  0  0  0  0  0  0  0
   57.3170   31.5780   43.3200 N   0  0  0  0  0  0  0  0  0  0  0  0
   57.8830   32.5540   44.0540 C   0  0  0  0  0  0  0  0  0  0  0  0
   57.8610   32.2350   45.3580 N   0  0  0  0  0  0  0  0  0  0  0  0
   57.2770   31.0530   45.4880 N   0  0  0  0  0  0  0  0  0  0  0  0
   56.9310   30.6660   44.2440 C   0  0  0  0  0  0  0  0  0  0  0  0
   56.2860   29.3440   43.9510 C   0  0  0  0  0  0  0  0  0  0  0  0
   55.8470   28.6800   45.1750 N   0  0  0  0  0  0  0  0  0  0  0  0
   56.3250   27.4300   45.6900 C   0  0  0  0  0  0  0  0  0  0  0  0
   55.4820   26.5420   45.9880 O   0  0  0  0  0  0  0  0  0  0  0  0
   57.7890   27.1420   45.9090 C   0  0  0  0  0  0  0  0  0  0  0  0
   58.5820   28.3900   46.2300 C   0  0  0  0  0  0  0  0  0  0  0  0
   59.4890   28.9360   45.3040 C   0  0  0  0  0  0  0  0  0  0  0  0
   60.2040   30.0970   45.6110 C   0  0  0  0  0  0  0  0  0  0  0  0
   59.9930   30.7610   46.8290 C   0  0  0  0  0  0  0  0  0  0  0  0
   60.7720   31.9770   47.1450 C   0  0  0  0  0  0  0  0  0  0  0  0
   60.3810   33.0820   46.6790 O   0  0  0  0  0  0  0  0  0  0  0  0
   61.9370   31.9380   47.9890 N   0  0  0  0  0  0  0  0  0  0  0  0
   62.7890   33.0990   48.1910 C   0  0  0  0  0  0  0  0  0  0  0  0
   63.8310   32.6730   49.2160 C   0  0  0  0  0  0  0  0  0  0  0  0
   63.2540   31.4350   49.8980 C   0  0  0  0  0  0  0  0  0  0  0  0
   62.2450   30.8570   48.9150 C   0  0  0  0  0  0  0  0  0  0  0  0
   59.0700   30.2330   47.7450 C   0  0  0  0  0  0  0  0  0  0  0  0
   58.3540   29.0710   47.4380 C   0  0  0  0  0  0  0  0  0  0  0  0
   58.6593   33.1123   42.0003 H   0  0  0  0  0  0  0  0  0  0  0  0
   58.8645   32.0165   40.5918 H   0  0  0  0  0  0  0  0  0  0  0  0
   57.5521   33.2429   40.5918 H   0  0  0  0  0  0  0  0  0  0  0  0
   56.1540   31.7826   41.5850 H   0  0  0  0  0  0  0  0  0  0  0  0
   57.4529   30.5318   41.5113 H   0  0  0  0  0  0  0  0  0  0  0  0
   58.3046   33.4831   43.6430 H   0  0  0  0  0  0  0  0  0  0  0  0
   58.2350   32.8020   46.1500 H   0  0  0  0  0  0  0  0  0  0  0  0
   55.4140   29.5080   43.3008 H   0  0  0  0  0  0  0  0  0  0  0  0
   57.0279   28.7001   43.4560 H   0  0  0  0  0  0  0  0  0  0  0  0
   57.8884   26.4355   46.7462 H   0  0  0  0  0  0  0  0  0  0  0  0
   58.1907   26.7209   44.9755 H   0  0  0  0  0  0  0  0  0  0  0  0
   59.6368   28.4454   44.3306 H   0  0  0  0  0  0  0  0  0  0  0  0
   60.9372   30.4929   44.8929 H   0  0  0  0  0  0  0  0  0  0  0  0
   63.2750   33.3868   47.2471 H   0  0  0  0  0  0  0  0  0  0  0  0
   62.2127   33.9700   48.5363 H   0  0  0  0  0  0  0  0  0  0  0  0
   64.7815   32.4296   48.7188 H   0  0  0  0  0  0  0  0  0  0  0  0
   64.0422   33.4747   49.9390 H   0  0  0  0  0  0  0  0  0  0  0  0
   64.0501   30.7046   50.1047 H   0  0  0  0  0  0  0  0  0  0  0  0
   62.7860   31.6830   50.8621 H   0  0  0  0  0  0  0  0  0  0  0  0
   62.6800   30.0022   48.3764 H   0  0  0  0  0  0  0  0  0  0  0  0
   61.3430   30.4896   49.4263 H   0  0  0  0  0  0  0  0  0  0  0  0
   58.9086   30.7358   48.7100 H   0  0  0  0  0  0  0  0  0  0  0  0
   57.6065   28.6873   48.1479 H   0  0  0  0  0  0  0  0  0  0  0  0
  1  2  1  0
  2  3  1  0
  3  4  1  0
  4  5  2  0
  5  6  1  0
  6  7  2  0
  7  8  1  0
  8  9  1  0
  9 10  1  0
 10 11  2  0
 10 12  1  0
 12 13  1  0
 13 14  2  0
 14 15  1  0
 15 16  2  0
 16 17  1  0
 17 18  2  0
 17 19  1  0
 19 20  1  0
 20 21  1  0
 21 22  1  0
 22 23  1  0
 16 24  1  0
 24 25  2  0
  7  3  1  0
 25 13  1  0
 23 19  1  0
  1 26  1  0
  1 27  1  0
  1 28  1  0
  2 29  1  0
  2 30  1  0
  4 31  1  0
  5 32  1  0
  8 33  1  0
  8 34  1  0
 12 35  1  0
 12 36  1  0
 14 37  1  0
 15 38  1  0
 20 39  1  0
 20 40  1  0
 21 41  1  0
 21 42  1  0
 22 43  1  0
 22 44  1  0
 23 45  1  0
 23 46  1  0
 24 47  1  0
 25 48  1  0
M  CHG  2   5   1   9  -1
M  END
>  <UniqueID>  (75) 
73

>  <SMILES>  (75) 
CCn1c[nH+]nc1C[N-]C(=O)Cc1ccc(C(=O)N2CCCC2)cc1

>  <Energy>  (75) 
78.60865765717556

>  <Genealogy>  (75) 
CCn1c[nH+]nc1C[N-]C(=O)Cc1ccc(C(=O)N2CCCC2)cc1 (protonated)
CCn1c[nH+]nc1C[N-]C(=O)Cc1ccc(C(=O)N2CCCC2)cc1 (3D coordinates assigned)
CCn1c[nH+]nc1C[N-]C(=O)Cc1ccc(C(=O)N2CCCC2)cc1 (nonaromatic ring conformer: 78.60865765717556 kcal/mol)

>  <smiles>  (75) 
CCn1cnnc1CNC(=O)Cc1ccc(C(=O)N2CCCC2)cc1

>  <score_type>  (75) 
oracle

>  <origin>  (75) 
adg

>  <m_score__min__energy>  (75) 
-9.2200000000000006

>  <m_primary>  (75) 
energy

$$$$
75:0
     RDKit          3D

 24 25  0  0  0  0  0  0  0  0999 V2000
   55.3840   26.1710   45.9410 O   0  0  0  0  0  0  0  0  0  0  0  0
   56.2330   27.0930   45.8330 C   0  0  0  0  0  0  0  0  0  0  0  0
   57.4910   26.9150   46.3040 N   0  0  0  0  0  0  0  0  0  0  0  0
   58.4080   27.9070   46.1880 C   0  0  0  0  0  0  0  0  0  0  0  0
   59.9230   27.6740   46.7610 S   0  0  0  0  0  0  0  0  0  0  0  0
   58.0670   29.0850   45.5960 N   0  0  0  0  0  0  0  0  0  0  0  0
   56.7970   29.2690   45.1250 C   0  0  0  0  0  0  0  0  0  0  0  0
   56.4230   30.3820   44.5590 N   0  0  0  0  0  0  0  0  0  0  0  0
   57.2580   31.2980   43.7800 C   0  0  0  0  0  0  0  0  0  0  0  0
   57.8270   32.3850   44.6560 C   0  0  0  0  0  0  0  0  0  0  0  0
   58.4680   33.4940   44.0790 C   0  0  0  0  0  0  0  0  0  0  0  0
   59.0050   34.4990   44.8890 C   0  0  0  0  0  0  0  0  0  0  0  0
   58.9140   34.4010   46.2810 C   0  0  0  0  0  0  0  0  0  0  0  0
   58.2890   33.2940   46.8640 C   0  0  0  0  0  0  0  0  0  0  0  0
   57.7510   32.2870   46.0570 C   0  0  0  0  0  0  0  0  0  0  0  0
   55.8900   28.2660   45.2460 N   0  0  0  0  0  0  0  0  0  0  0  0
   58.7930   29.8290   45.5100 H   0  0  0  0  0  0  0  0  0  0  0  0
   58.0846   30.7328   43.3248 H   0  0  0  0  0  0  0  0  0  0  0  0
   56.6362   31.7639   43.0014 H   0  0  0  0  0  0  0  0  0  0  0  0
   58.5477   33.5719   42.9847 H   0  0  0  0  0  0  0  0  0  0  0  0
   59.4998   35.3680   44.4307 H   0  0  0  0  0  0  0  0  0  0  0  0
   59.3338   35.1942   46.9171 H   0  0  0  0  0  0  0  0  0  0  0  0
   58.2206   33.2155   47.9591 H   0  0  0  0  0  0  0  0  0  0  0  0
   57.2663   31.4146   46.5196 H   0  0  0  0  0  0  0  0  0  0  0  0
  1  2  2  0
  2  3  1  0
  3  4  1  0
  4  5  2  0
  4  6  1  0
  6  7  1  0
  7  8  2  3
  8  9  1  0
  9 10  1  0
 10 11  2  0
 11 12  1  0
 12 13  2  0
 13 14  1  0
 14 15  2  0
  7 16  1  0
 16  2  1  0
 15 10  1  0
  6 17  1  0
  9 18  1  0
  9 19  1  0
 11 20  1  0
 12 21  1  0
 13 22  1  0
 14 23  1  0
 15 24  1  0
M  CHG  2   3  -1  16  -1
M  END
>  <UniqueID>  (76) 
74

>  <SMILES>  (76) 
O=c1[n-]c(=S)[nH]c(=NCc2ccccc2)[n-]1

>  <Energy>  (76) 
26.351724403639558

>  <Genealogy>  (76) 
O=c1[n-]c(=S)[nH]c(=NCc2ccccc2)[n-]1 (protonated)
O=c1[n-]c(=S)[nH]c(=NCc2ccccc2)[n-]1 (3D coordinates assigned)
O=c1[n-]c(=S)[nH]c(=NCc2ccccc2)[n-]1 (optimized conformer: 26.351724403639558 kcal/mol)

>  <smiles>  (76) 
O=c1[nH]c(=S)[nH]c(=NCc2ccccc2)[nH]1

>  <score_type>  (76) 
oracle

>  <origin>  (76) 
adg

>  <m_score__min__energy>  (76) 
-9.8100000000000005

>  <m_primary>  (76) 
energy

$$$$
76:0
     RDKit          3D

 43 46  0  0  0  0  0  0  0  0999 V2000
   57.5840   25.5230   44.3710 H   0  0  0  0  0  0  0  0  0  0  0  0
   57.3990   25.8200   45.3550 N   0  0  0  0  0  0  0  0  0  0  0  0
   56.6830   26.8590   45.6560 C   0  0  0  0  0  0  0  0  0  0  0  0
   57.2580   28.2260   45.5930 C   0  0  0  0  0  0  0  0  0  0  0  0
   58.4810   28.5090   46.2270 C   0  0  0  0  0  0  0  0  0  0  0  0
   59.0111   27.7129   46.7703 H   0  0  0  0  0  0  0  0  0  0  0  0
   59.0280   29.7940   46.1720 C   0  0  0  0  0  0  0  0  0  0  0  0
   59.9803   30.0056   46.6804 H   0  0  0  0  0  0  0  0  0  0  0  0
   58.3690   30.8150   45.4720 C   0  0  0  0  0  0  0  0  0  0  0  0
   58.9170   32.2140   45.4820 C   0  0  0  0  0  0  0  0  0  0  0  0
   59.7351   32.2927   44.7509 H   0  0  0  0  0  0  0  0  0  0  0  0
   58.1187   32.9226   45.2162 H   0  0  0  0  0  0  0  0  0  0  0  0
   59.4260   32.5300   46.8220 N   0  0  0  0  0  0  0  0  0  0  0  0
   58.5250   32.5190   47.9410 C   0  0  0  0  0  0  0  0  0  0  0  0
   57.4030   33.0820   47.8100 O   0  0  0  0  0  0  0  0  0  0  0  0
   58.8410   31.8380   49.2320 C   0  0  0  0  0  0  0  0  0  0  0  0
   59.9040   30.9110   49.3960 C   0  0  0  0  0  0  0  0  0  0  0  0
   60.0250   30.2280   50.5690 N   0  0  0  0  0  0  0  0  0  0  0  0
   59.1810   30.4150   51.6140 C   0  0  0  0  0  0  0  0  0  0  0  0
   59.3156   29.8372   52.5403 H   0  0  0  0  0  0  0  0  0  0  0  0
   58.1460   31.3370   51.5140 C   0  0  0  0  0  0  0  0  0  0  0  0
   57.4699   31.5082   52.3646 H   0  0  0  0  0  0  0  0  0  0  0  0
   57.9740   32.0420   50.3250 C   0  0  0  0  0  0  0  0  0  0  0  0
   57.1514   32.7670   50.2377 H   0  0  0  0  0  0  0  0  0  0  0  0
   60.8840   30.6640   48.3800 N   0  0  0  0  0  0  0  0  0  0  0  0
   61.3980   29.7550   48.4390 H   0  0  0  0  0  0  0  0  0  0  0  0
   61.5600   31.7450   47.7360 C   0  0  0  0  0  0  0  0  0  0  0  0
   62.9590   31.8350   47.8020 C   0  0  0  0  0  0  0  0  0  0  0  0
   63.5321   31.0742   48.3522 H   0  0  0  0  0  0  0  0  0  0  0  0
   63.6260   32.8880   47.1710 C   0  0  0  0  0  0  0  0  0  0  0  0
   64.7219   32.9608   47.2327 H   0  0  0  0  0  0  0  0  0  0  0  0
   62.9010   33.8480   46.4620 C   0  0  0  0  0  0  0  0  0  0  0  0
   63.4251   34.6826   45.9734 H   0  0  0  0  0  0  0  0  0  0  0  0
   61.5110   33.7490   46.3730 C   0  0  0  0  0  0  0  0  0  0  0  0
   60.9436   34.4986   45.8019 H   0  0  0  0  0  0  0  0  0  0  0  0
   60.8350   32.6960   47.0100 C   0  0  0  0  0  0  0  0  0  0  0  0
   57.1430   30.5410   44.8500 C   0  0  0  0  0  0  0  0  0  0  0  0
   56.6091   31.3420   44.3177 H   0  0  0  0  0  0  0  0  0  0  0  0
   56.5950   29.2570   44.9020 C   0  0  0  0  0  0  0  0  0  0  0  0
   55.6386   29.0505   44.3993 H   0  0  0  0  0  0  0  0  0  0  0  0
   55.3190   26.6690   46.0410 N   0  0  0  0  0  0  0  0  0  0  0  0
   54.7340   27.4660   46.3730 H   0  0  0  0  0  0  0  0  0  0  0  0
   54.9010   25.7120   46.0450 H   0  0  0  0  0  0  0  0  0  0  0  0
  1  2  1  0
  2  3  2  0
  3  4  1  0
  4  5  2  0
  5  6  1  0
  5  7  1  0
  7  8  1  0
  7  9  2  0
  9 10  1  0
 10 11  1  0
 10 12  1  0
 10 13  1  0
 13 14  1  0
 14 15  2  0
 14 16  1  0
 16 17  2  0
 17 18  1  0
 18 19  2  0
 19 20  1  0
 19 21  1  0
 21 22  1  0
 21 23  2  0
 23 24  1  0
 17 25  1  0
 25 26  1  0
 25 27  1  0
 27 28  2  0
 28 29  1  0
 28 30  1  0
 30 31  1  0
 30 32  2  0
 32 33  1  0
 32 34  1  0
 34 35  1  0
 34 36  2  0
  9 37  1  0
 37 38  1  0
 37 39  2  0
 39 40  1  0
  3 41  1  0
 41 42  1  0
 41 43  1  0
 39  4  1  0
 36 13  1  0
 23 16  1  0
 36 27  1  0
M  END
>  <UniqueID>  (77) 
75

>  <SMILES>  (77) 
[H]/N=C(/N)c1ccc(CN2C(=O)c3cccnc3Nc3ccccc32)cc1

>  <Energy>  (77) 
71.32572439449109

>  <Genealogy>  (77) 
[H]/N=C(/N)c1ccc(CN2C(=O)c3cccnc3Nc3ccccc32)cc1 (cis-trans isomerization)
[H]/N=C(/N)c1ccc(CN2C(=O)c3cccnc3Nc3ccccc32)cc1 (3D coordinates assigned)
[H]/N=C(/N)c1ccc(CN2C(=O)c3cccnc3Nc3ccccc32)cc1 (nonaromatic ring conformer: 71.32572439449109 kcal/mol)

>  <smiles>  (77) 
N=C(N)c1ccc(CN2C(=O)c3cccnc3Nc3ccccc32)cc1

>  <score_type>  (77) 
oracle

>  <origin>  (77) 
adg

>  <m_score__min__energy>  (77) 
-8.4900000000000002

>  <m_primary>  (77) 
energy

$$$$
77:0
     RDKit          3D

 45 47  0  0  0  0  0  0  0  0999 V2000
   60.4450   26.7320   48.9640 C   0  0  0  0  0  0  0  0  0  0  0  0
   60.1070   26.8920   47.5110 C   0  0  0  0  0  0  0  0  0  0  0  0
   61.0180   27.2760   46.7240 O   0  0  0  0  0  0  0  0  0  0  0  0
   58.7490   26.5940   46.9810 C   0  0  0  0  0  0  0  0  0  0  0  0
   58.2220   25.2930   47.0910 C   0  0  0  0  0  0  0  0  0  0  0  0
   56.9400   25.0040   46.6210 C   0  0  0  0  0  0  0  0  0  0  0  0
   56.1720   26.0020   46.0230 C   0  0  0  0  0  0  0  0  0  0  0  0
   56.6840   27.2970   45.8710 C   0  0  0  0  0  0  0  0  0  0  0  0
   55.8520   28.2870   45.2470 N   0  0  0  0  0  0  0  0  0  0  0  0
   56.2840   29.4450   44.5210 C   0  0  0  0  0  0  0  0  0  0  0  0
   55.6490   30.5310   44.5910 O   0  0  0  0  0  0  0  0  0  0  0  0
   57.5600   29.3880   43.7380 C   0  0  0  0  0  0  0  0  0  0  0  0
   58.6600   29.9430   44.5260 N   0  0  0  0  0  0  0  0  0  0  0  0
   59.8760   29.2870   44.8370 C   0  0  0  0  0  0  0  0  0  0  0  0
   60.3060   28.2800   44.2140 O   0  0  0  0  0  0  0  0  0  0  0  0
   60.5500   29.8640   45.9450 N   0  0  0  0  0  0  0  0  0  0  0  0
   59.7370   30.9640   46.4650 C   0  0  2  0  0  0  0  0  0  0  0  0
   60.5220   32.3060   46.3720 C   0  0  0  0  0  0  0  0  0  0  0  0
   60.4120   33.2290   47.6030 C   0  0  0  0  0  0  0  0  0  0  0  0
   58.9810   33.3210   48.1490 C   0  0  0  0  0  0  0  0  0  0  0  0
   58.5650   32.0540   48.9090 C   0  0  0  0  0  0  0  0  0  0  0  0
   59.2080   30.5740   48.1370 S   0  0  0  0  0  0  0  0  0  0  0  0
   58.1460   29.5110   48.1130 O   0  0  0  0  0  0  0  0  0  0  0  0
   60.3840   30.0770   48.9310 O   0  0  0  0  0  0  0  0  0  0  0  0
   58.5470   30.9440   45.5320 C   0  0  0  0  0  0  0  0  0  0  0  0
   57.5380   31.6930   45.6420 O   0  0  0  0  0  0  0  0  0  0  0  0
   57.9630   27.5960   46.3760 C   0  0  0  0  0  0  0  0  0  0  0  0
   59.6198   27.1226   49.5776 H   0  0  0  0  0  0  0  0  0  0  0  0
   60.5972   25.6663   49.1899 H   0  0  0  0  0  0  0  0  0  0  0  0
   61.3658   27.2898   49.1899 H   0  0  0  0  0  0  0  0  0  0  0  0
   58.8260   24.4973   47.5514 H   0  0  0  0  0  0  0  0  0  0  0  0
   56.5347   23.9865   46.7227 H   0  0  0  0  0  0  0  0  0  0  0  0
   55.1568   25.7709   45.6680 H   0  0  0  0  0  0  0  0  0  0  0  0
   57.7854   28.3413   43.4858 H   0  0  0  0  0  0  0  0  0  0  0  0
   57.4435   29.9787   42.8174 H   0  0  0  0  0  0  0  0  0  0  0  0
   61.4600   29.5340   46.3400 H   0  0  0  0  0  0  0  0  0  0  0  0
   61.5852   32.0666   46.2224 H   0  0  0  0  0  0  0  0  0  0  0  0
   60.0698   32.8620   45.5375 H   0  0  0  0  0  0  0  0  0  0  0  0
   61.0665   32.8376   48.3957 H   0  0  0  0  0  0  0  0  0  0  0  0
   60.7128   34.2392   47.2884 H   0  0  0  0  0  0  0  0  0  0  0  0
   58.9178   34.1804   48.8327 H   0  0  0  0  0  0  0  0  0  0  0  0
   58.3009   33.4382   47.2925 H   0  0  0  0  0  0  0  0  0  0  0  0
   58.9488   32.1141   49.9381 H   0  0  0  0  0  0  0  0  0  0  0  0
   57.4666   31.9949   48.8991 H   0  0  0  0  0  0  0  0  0  0  0  0
   58.3533   28.6215   46.2980 H   0  0  0  0  0  0  0  0  0  0  0  0
  1  2  1  0
  2  3  2  0
  2  4  1  0
  4  5  2  0
  5  6  1  0
  6  7  2  0
  7  8  1  0
  8  9  1  0
  9 10  1  0
 10 11  2  0
 10 12  1  0
 12 13  1  0
 13 14  1  0
 14 15  2  0
 14 16  1  0
 17 16  1  6
 17 18  1  0
 18 19  1  0
 19 20  1  0
 20 21  1  0
 21 22  1  0
 22 23  2  0
 22 24  2  0
 17 25  1  0
 25 26  2  0
  8 27  2  0
 27  4  1  0
 25 13  1  0
 22 17  1  0
  1 28  1  0
  1 29  1  0
  1 30  1  0
  5 31  1  0
  6 32  1  0
  7 33  1  0
 12 34  1  0
 12 35  1  0
 16 36  1  0
 18 37  1  0
 18 38  1  0
 19 39  1  0
 19 40  1  0
 20 41  1  0
 20 42  1  0
 21 43  1  0
 21 44  1  0
 27 45  1  0
M  CHG  1   9  -1
M  END
>  <UniqueID>  (78) 
76

>  <SMILES>  (78) 
CC(=O)c1cccc([N-]C(=O)CN2C(=O)N[C@@]3(CCCCS3(=O)=O)C2=O)c1

>  <Energy>  (78) 
65.36373195603882

>  <Genealogy>  (78) 
CC(=O)c1cccc([N-]C(=O)CN2C(=O)NC3(CCCCS3(=O)=O)C2=O)c1 (protonated)
CC(=O)c1cccc([N-]C(=O)CN2C(=O)N[C@@]3(CCCCS3(=O)=O)C2=O)c1 (chirality)
CC(=O)c1cccc([N-]C(=O)CN2C(=O)N[C@@]3(CCCCS3(=O)=O)C2=O)c1 (3D coordinates assigned)
CC(=O)c1cccc([N-]C(=O)CN2C(=O)N[C@@]3(CCCCS3(=O)=O)C2=O)c1 (nonaromatic ring conformer: 65.36373195603882 kcal/mol)

>  <smiles>  (78) 
CC(=O)c1cccc(NC(=O)CN2C(=O)NC3(CCCCS3(=O)=O)C2=O)c1

>  <score_type>  (78) 
oracle

>  <origin>  (78) 
adg

>  <m_score__min__energy>  (78) 
-10.359999999999999

>  <m_primary>  (78) 
energy

$$$$
78:0
     RDKit          3D

 54 57  0  0  0  0  0  0  0  0999 V2000
   58.7960   28.7500   48.2060 O   0  0  0  0  0  0  0  0  0  0  0  0
   59.0360   29.7170   47.4360 C   0  0  0  0  0  0  0  0  0  0  0  0
   59.6770   29.4670   46.1100 C   0  0  0  0  0  0  0  0  0  0  0  0
   58.4020   29.3130   44.8090 S   0  0  0  0  0  0  0  0  0  0  0  0
   57.7200   27.7810   45.4380 C   0  0  0  0  0  0  0  0  0  0  0  0
   58.5440   26.7640   45.8060 N   0  0  0  0  0  0  0  0  0  0  0  0
   58.0430   25.5970   46.2880 C   0  0  0  0  0  0  0  0  0  0  0  0
   58.8320   24.6680   46.6140 O   0  0  0  0  0  0  0  0  0  0  0  0
   56.6570   25.4310   46.4280 C   0  0  0  0  0  0  0  0  0  0  0  0
   56.1440   24.1910   46.9470 N   0  0  0  0  0  0  0  0  0  0  0  0
   56.6170   22.8790   46.6150 C   0  0  0  0  0  0  0  0  0  0  0  0
   56.9590   22.0710   47.5200 O   0  0  0  0  0  0  0  0  0  0  0  0
   56.7560   22.4880   45.2080 C   0  0  0  0  0  0  0  0  0  0  0  0
   57.6630   21.5640   44.6970 C   0  0  0  0  0  0  0  0  0  0  0  0
   57.5460   21.3860   43.3120 C   0  0  0  0  0  0  0  0  0  0  0  0
   56.5560   22.1750   42.7280 C   0  0  0  0  0  0  0  0  0  0  0  0
   55.8220   23.0830   43.9370 S   0  0  0  0  0  0  0  0  0  0  0  0
   55.8210   26.4770   45.9920 C   0  0  0  0  0  0  0  0  0  0  0  0
   54.4350   26.3390   45.9920 O   0  0  0  0  0  0  0  0  0  0  0  0
   56.3730   27.6290   45.5260 N   0  0  0  0  0  0  0  0  0  0  0  0
   58.6530   31.0510   47.7920 N   0  0  0  0  0  0  0  0  0  0  0  0
   59.3820   32.2550   47.5040 C   0  0  0  0  0  0  0  0  0  0  0  0
   58.6700   33.3900   47.1010 C   0  0  0  0  0  0  0  0  0  0  0  0
   59.3470   34.5670   46.7670 C   0  0  0  0  0  0  0  0  0  0  0  0
   60.7430   34.6120   46.8170 C   0  0  0  0  0  0  0  0  0  0  0  0
   61.4700   33.4800   47.2040 C   0  0  0  0  0  0  0  0  0  0  0  0
   63.2350   33.5280   47.2550 S   0  0  0  0  0  0  0  0  0  0  0  0
   63.7750   32.2000   46.7930 O   0  0  0  0  0  0  0  0  0  0  0  0
   63.7290   34.5830   46.3030 O   0  0  0  0  0  0  0  0  0  0  0  0
   63.8370   33.8340   48.8660 N   0  0  0  0  0  0  0  0  0  0  0  0
   64.6200   32.6890   49.3590 C   0  0  0  0  0  0  0  0  0  0  0  0
   65.1590   32.9910   50.7730 C   0  0  0  0  0  0  0  0  0  0  0  0
   64.6950   34.2400   51.2580 O   0  0  0  0  0  0  0  0  0  0  0  0
   63.2800   34.2620   51.2430 C   0  0  0  0  0  0  0  0  0  0  0  0
   62.7390   34.1410   49.8010 C   0  0  0  0  0  0  0  0  0  0  0  0
   60.7880   32.3020   47.5470 C   0  0  0  0  0  0  0  0  0  0  0  0
   60.3453   30.3060   45.8659 H   0  0  0  0  0  0  0  0  0  0  0  0
   60.2517   28.5305   46.1609 H   0  0  0  0  0  0  0  0  0  0  0  0
   58.3967   21.0282   45.3171 H   0  0  0  0  0  0  0  0  0  0  0  0
   58.1760   20.6893   42.7395 H   0  0  0  0  0  0  0  0  0  0  0  0
   56.2992   22.1991   41.6587 H   0  0  0  0  0  0  0  0  0  0  0  0
   53.9940   25.5090   46.3730 H   0  0  0  0  0  0  0  0  0  0  0  0
   57.5719   33.3562   47.0466 H   0  0  0  0  0  0  0  0  0  0  0  0
   58.7796   35.4594   46.4642 H   0  0  0  0  0  0  0  0  0  0  0  0
   61.2718   35.5393   46.5516 H   0  0  0  0  0  0  0  0  0  0  0  0
   63.9776   31.7969   49.3964 H   0  0  0  0  0  0  0  0  0  0  0  0
   65.4663   32.5096   48.6796 H   0  0  0  0  0  0  0  0  0  0  0  0
   64.8261   32.1972   51.4579 H   0  0  0  0  0  0  0  0  0  0  0  0
   66.2569   33.0319   50.7188 H   0  0  0  0  0  0  0  0  0  0  0  0
   62.9009   33.4202   51.8411 H   0  0  0  0  0  0  0  0  0  0  0  0
   62.9402   35.2192   51.6653 H   0  0  0  0  0  0  0  0  0  0  0  0
   61.9918   33.3348   49.7603 H   0  0  0  0  0  0  0  0  0  0  0  0
   62.2786   35.0968   49.5104 H   0  0  0  0  0  0  0  0  0  0  0  0
   61.3558   31.4103   47.8512 H   0  0  0  0  0  0  0  0  0  0  0  0
  1  2  2  0
  2  3  1  0
  3  4  1  0
  4  5  1  0
  5  6  2  0
  6  7  1  0
  7  8  2  0
  7  9  1  0
  9 10  1  0
 10 11  1  0
 11 12  2  0
 11 13  1  0
 13 14  2  0
 14 15  1  0
 15 16  2  0
 16 17  1  0
  9 18  2  0
 18 19  1  0
 18 20  1  0
  2 21  1  0
 21 22  1  0
 22 23  2  0
 23 24  1  0
 24 25  2  0
 25 26  1  0
 26 27  1  0
 27 28  2  0
 27 29  2  0
 27 30  1  0
 30 31  1  0
 31 32  1  0
 32 33  1  0
 33 34  1  0
 34 35  1  0
 26 36  2  0
 20  5  1  0
 36 22  1  0
 17 13  1  0
 35 30  1  0
  3 37  1  0
  3 38  1  0
 14 39  1  0
 15 40  1  0
 16 41  1  0
 19 42  1  0
 23 43  1  0
 24 44  1  0
 25 45  1  0
 31 46  1  0
 31 47  1  0
 32 48  1  0
 32 49  1  0
 34 50  1  0
 34 51  1  0
 35 52  1  0
 35 53  1  0
 36 54  1  0
M  CHG  3  10  -1  20  -1  21  -1
M  END
>  <UniqueID>  (79) 
77

>  <SMILES>  (79) 
O=C(CSc1nc(=O)c([N-]C(=O)c2cccs2)c(O)[n-]1)[N-]c1cccc(S(=O)(=O)N2CCOCC2)c1

>  <Energy>  (79) 
96.49150253183237

>  <Genealogy>  (79) 
O=C(CSc1nc(=O)c([N-]C(=O)c2cccs2)c(O)[n-]1)[N-]c1cccc(S(=O)(=O)N2CCOCC2)c1 (protonated)
O=C(CSc1nc(=O)c([N-]C(=O)c2cccs2)c(O)[n-]1)[N-]c1cccc(S(=O)(=O)N2CCOCC2)c1 (3D coordinates assigned)
O=C(CSc1nc(=O)c([N-]C(=O)c2cccs2)c(O)[n-]1)[N-]c1cccc(S(=O)(=O)N2CCOCC2)c1 (nonaromatic ring conformer: 96.49150253183237 kcal/mol)

>  <smiles>  (79) 
O=C(CSc1nc(=O)c(NC(=O)c2cccs2)c(O)[nH]1)Nc1cccc(S(=O)(=O)N2CCOCC2)c1

>  <score_type>  (79) 
oracle

>  <origin>  (79) 
adg

>  <m_score__min__energy>  (79) 
-16.190000000000001

>  <m_primary>  (79) 
energy

$$$$
79:0
     RDKit          3D

 41 43  0  0  0  0  0  0  0  0999 V2000
   61.1420   28.6510   44.6380 C   0  0  0  0  0  0  0  0  0  0  0  0
   59.9470   28.1690   45.3910 C   0  0  0  0  0  0  0  0  0  0  0  0
   58.6790   28.2620   44.9340 N   0  0  0  0  0  0  0  0  0  0  0  0
   57.7620   27.8170   45.8400 C   0  0  0  0  0  0  0  0  0  0  0  0
   56.3150   27.8190   45.5630 C   0  0  0  0  0  0  0  0  0  0  0  0
   55.6030   26.8610   45.9670 O   0  0  0  0  0  0  0  0  0  0  0  0
   55.7190   28.9330   44.8860 N   0  0  0  0  0  0  0  0  0  0  0  0
   56.4150   30.0090   44.2380 C   0  0  0  0  0  0  0  0  0  0  0  0
   56.3720   30.0890   42.8400 C   0  0  0  0  0  0  0  0  0  0  0  0
   57.0170   31.1320   42.1710 C   0  0  0  0  0  0  0  0  0  0  0  0
   57.7010   32.1120   42.8950 C   0  0  0  0  0  0  0  0  0  0  0  0
   57.7350   32.0560   44.2940 C   0  0  0  0  0  0  0  0  0  0  0  0
   58.5780   33.3120   45.1980 S   0  0  0  0  0  0  0  0  0  0  0  0
   59.2920   34.2020   44.2210 O   0  0  0  0  0  0  0  0  0  0  0  0
   57.5820   34.1290   45.9740 O   0  0  0  0  0  0  0  0  0  0  0  0
   59.7260   32.5660   46.2910 N   0  0  0  0  0  0  0  0  0  0  0  0
   59.0660   32.0240   47.4980 C   0  0  0  0  0  0  0  0  0  0  0  0
   59.2030   32.9510   48.7200 C   0  0  0  0  0  0  0  0  0  0  0  0
   59.2140   34.2990   48.3100 O   0  0  0  0  0  0  0  0  0  0  0  0
   60.4120   34.5880   47.6100 C   0  0  0  0  0  0  0  0  0  0  0  0
   60.8360   33.4780   46.6180 C   0  0  0  0  0  0  0  0  0  0  0  0
   57.0820   31.0130   44.9650 C   0  0  0  0  0  0  0  0  0  0  0  0
   58.3080   27.3770   47.0460 C   0  0  0  0  0  0  0  0  0  0  0  0
   59.9790   27.5600   46.9570 S   0  0  0  0  0  0  0  0  0  0  0  0
   61.9209   28.9651   45.3484 H   0  0  0  0  0  0  0  0  0  0  0  0
   61.5289   27.8386   44.0053 H   0  0  0  0  0  0  0  0  0  0  0  0
   60.8570   29.5045   44.0053 H   0  0  0  0  0  0  0  0  0  0  0  0
   58.4350   28.6400   43.9910 H   0  0  0  0  0  0  0  0  0  0  0  0
   55.8269   29.3256   42.2654 H   0  0  0  0  0  0  0  0  0  0  0  0
   56.9864   31.1819   41.0726 H   0  0  0  0  0  0  0  0  0  0  0  0
   58.2135   32.9286   42.3654 H   0  0  0  0  0  0  0  0  0  0  0  0
   57.9967   31.8841   47.2811 H   0  0  0  0  0  0  0  0  0  0  0  0
   59.5597   31.0730   47.7467 H   0  0  0  0  0  0  0  0  0  0  0  0
   58.3537   32.7848   49.3991 H   0  0  0  0  0  0  0  0  0  0  0  0
   60.1474   32.7256   49.2371 H   0  0  0  0  0  0  0  0  0  0  0  0
   60.2682   35.5214   47.0460 H   0  0  0  0  0  0  0  0  0  0  0  0
   61.2114   34.6705   48.3611 H   0  0  0  0  0  0  0  0  0  0  0  0
   61.1912   33.9498   45.6900 H   0  0  0  0  0  0  0  0  0  0  0  0
   61.6292   32.8845   47.0962 H   0  0  0  0  0  0  0  0  0  0  0  0
   57.0908   30.9789   46.0644 H   0  0  0  0  0  0  0  0  0  0  0  0
   57.7456   26.9803   47.9041 H   0  0  0  0  0  0  0  0  0  0  0  0
  1  2  1  0
  2  3  2  0
  3  4  1  0
  4  5  1  0
  5  6  2  0
  5  7  1  0
  7  8  1  0
  8  9  2  0
  9 10  1  0
 10 11  2  0
 11 12  1  0
 12 13  1  0
 13 14  2  0
 13 15  2  0
 13 16  1  0
 16 17  1  0
 17 18  1  0
 18 19  1  0
 19 20  1  0
 20 21  1  0
 12 22  2  0
  4 23  2  0
 23 24  1  0
 24  2  1  0
 22  8  1  0
 21 16  1  0
  1 25  1  0
  1 26  1  0
  1 27  1  0
  3 28  1  0
  9 29  1  0
 10 30  1  0
 11 31  1  0
 17 32  1  0
 17 33  1  0
 18 34  1  0
 18 35  1  0
 20 36  1  0
 20 37  1  0
 21 38  1  0
 21 39  1  0
 22 40  1  0
 23 41  1  0
M  CHG  2   3   1   7  -1
M  END
>  <UniqueID>  (80) 
78

>  <SMILES>  (80) 
Cc1[nH+]c(C(=O)[N-]c2cccc(S(=O)(=O)N3CCOCC3)c2)cs1

>  <Energy>  (80) 
83.37710614972252

>  <Genealogy>  (80) 
Cc1[nH+]c(C(=O)[N-]c2cccc(S(=O)(=O)N3CCOCC3)c2)cs1 (protonated)
Cc1[nH+]c(C(=O)[N-]c2cccc(S(=O)(=O)N3CCOCC3)c2)cs1 (3D coordinates assigned)
Cc1[nH+]c(C(=O)[N-]c2cccc(S(=O)(=O)N3CCOCC3)c2)cs1 (nonaromatic ring conformer: 83.37710614972252 kcal/mol)

>  <smiles>  (80) 
Cc1nc(C(=O)Nc2cccc(S(=O)(=O)N3CCOCC3)c2)cs1

>  <score_type>  (80) 
oracle

>  <origin>  (80) 
adg

>  <m_score__min__energy>  (80) 
-8.4600000000000009

>  <m_primary>  (80) 
energy

$$$$
80:0
     RDKit          3D

 40 39  0  0  0  0  0  0  0  0999 V2000
   56.5301   31.9889   43.3019 H   0  0  0  0  0  0  0  0  0  0  0  0
   56.8600   31.5520   44.2560 C   0  0  0  0  0  0  0  0  0  0  0  0
   58.5420   28.2570   44.4390 C   0  0  0  0  0  0  0  0  0  0  0  0
   56.2319   34.3690   45.1087 H   0  0  0  0  0  0  0  0  0  0  0  0
   57.1990   33.8450   45.1000 C   0  0  0  0  0  0  0  0  0  0  0  0
   58.1947   35.5824   44.4800 H   0  0  0  0  0  0  0  0  0  0  0  0
   60.9270   33.4900   47.3720 C   0  0  0  0  0  0  0  0  0  0  0  0
   60.5696   32.4770   47.1351 H   0  0  0  0  0  0  0  0  0  0  0  0
   60.7765   33.7302   48.4348 H   0  0  0  0  0  0  0  0  0  0  0  0
   62.4330   33.5630   47.0820 C   0  0  0  0  0  0  0  0  0  0  0  0
   62.6229   34.4157   46.4135 H   0  0  0  0  0  0  0  0  0  0  0  0
   62.7311   32.6116   46.6173 H   0  0  0  0  0  0  0  0  0  0  0  0
   63.2500   33.7380   48.3310 C   0  0  0  0  0  0  0  0  0  0  0  0
   62.8790   34.5760   49.1960 O   0  0  0  0  0  0  0  0  0  0  0  0
   64.4580   32.9830   48.5160 N   0  0  0  0  0  0  0  0  0  0  0  0
   64.8950   32.5420   47.6750 H   0  0  0  0  0  0  0  0  0  0  0  0
   65.1670   32.8950   49.7630 C   0  0  0  0  0  0  0  0  0  0  0  0
   66.5880   32.7350   49.7460 N   0  0  0  0  0  0  0  0  0  0  0  0
   67.1050   32.7090   48.8400 H   0  0  0  0  0  0  0  0  0  0  0  0
   67.1300   32.6480   50.6350 H   0  0  0  0  0  0  0  0  0  0  0  0
   64.5340   32.9000   50.8980 N   0  0  0  0  0  0  0  0  0  0  0  0
   64.8920   32.3850   51.7310 H   0  0  0  0  0  0  0  0  0  0  0  0
   63.6590   33.4590   51.0170 H   0  0  0  0  0  0  0  0  0  0  0  0
   57.1770   32.3770   45.2610 C   0  0  0  0  0  0  0  0  0  0  0  0
   57.4300   31.9467   46.2412 H   0  0  0  0  0  0  0  0  0  0  0  0
   60.1420   34.4820   46.5600 C   0  0  0  0  0  0  0  0  0  0  0  0
   59.9650   35.4898   46.9637 H   0  0  0  0  0  0  0  0  0  0  0  0
   59.6550   34.1630   45.3570 C   0  0  0  0  0  0  0  0  0  0  0  0
   60.2710   33.5721   44.6632 H   0  0  0  0  0  0  0  0  0  0  0  0
   56.9330   30.0850   44.3700 C   0  0  0  0  0  0  0  0  0  0  0  0
   55.9260   29.4660   44.8120 O   0  0  0  0  0  0  0  0  0  0  0  0
   58.0800   29.3550   43.9010 N   0  0  0  0  0  0  0  0  0  0  0  0
   58.5510   29.7210   43.0420 H   0  0  0  0  0  0  0  0  0  0  0  0
   58.3030   34.5910   44.9440 C   0  0  0  0  0  0  0  0  0  0  0  0
   59.9480   28.0340   44.6170 N   0  0  0  0  0  0  0  0  0  0  0  0
   60.6700   28.6120   44.1360 H   0  0  0  0  0  0  0  0  0  0  0  0
   60.2770   27.1890   45.1340 H   0  0  0  0  0  0  0  0  0  0  0  0
   57.6300   27.2200   44.8140 N   0  0  0  0  0  0  0  0  0  0  0  0
   56.5990   27.3390   44.6970 H   0  0  0  0  0  0  0  0  0  0  0  0
   57.9840   26.3260   45.2220 H   0  0  0  0  0  0  0  0  0  0  0  0
  1  2  1  0
  2  3  1  0
  3  4  1  0
  3  5  2  3
  5  6  1  0
  5  7  1  0
  7  8  1  0
  7  9  1  0
  7 10  1  0
 10 11  1  0
 10 12  1  0
 10 13  1  0
 13 14  2  0
 13 15  1  0
 15 16  1  0
 15 17  1  0
 17 18  1  0
 18 19  1  0
 18 20  1  0
 17 21  2  0
 21 22  1  0
 21 23  1  0
  2 24  2  0
 24 25  1  0
 24 26  1  0
 26 27  1  0
 26 28  2  0
 28 29  1  0
 28 30  1  0
 30 31  2  0
 30 32  1  0
 32 33  1  0
 32 34  2  3
 34 35  1  0
 35 36  1  0
 35 37  1  0
 34 38  1  0
 38 39  1  0
 38 40  1  0
M  CHG  2  21   1  32   1
M  END
>  <UniqueID>  (81) 
79

>  <SMILES>  (81) 
NC(=[NH2+])NC(=O)CCC=CC=C/C=C/C(=O)[NH+]=C(N)N

>  <Energy>  (81) 
35.519053644449166

>  <Genealogy>  (81) 
NC(=[NH2+])NC(=O)CCC=CC=CC=CC(=O)[NH+]=C(N)N (protonated)
NC(=[NH2+])NC(=O)CCC=CC=C/C=C/C(=O)[NH+]=C(N)N (cis-trans isomerization)
NC(=[NH2+])NC(=O)CCC=CC=C/C=C/C(=O)[NH+]=C(N)N (3D coordinates assigned)
NC(=[NH2+])NC(=O)CCC=CC=C/C=C/C(=O)[NH+]=C(N)N (optimized conformer: 35.519053644449166 kcal/mol)

>  <smiles>  (81) 
N=C(N)NC(=O)CCC=CC=CC=CC(=O)N=C(N)N

>  <score_type>  (81) 
oracle

>  <origin>  (81) 
adg

>  <m_score__min__energy>  (81) 
-4.4800000000000004

>  <m_primary>  (81) 
energy

$$$$
81:0
     RDKit          3D

 60 63  0  0  0  0  0  0  0  0999 V2000
   56.6770   29.7370   44.0530 C   0  0  0  0  0  0  0  0  0  0  0  0
   56.8060   30.4840   45.2420 O   0  0  0  0  0  0  0  0  0  0  0  0
   57.3950   31.7340   44.9480 C   0  0  0  0  0  0  0  0  0  0  0  0
   58.8340   31.7470   45.4640 C   0  0  0  0  0  0  0  0  0  0  0  0
   58.9670   30.8720   46.6290 N   0  0  0  0  0  0  0  0  0  0  0  0
   60.2190   30.6720   47.2960 C   0  0  0  0  0  0  0  0  0  0  0  0
   61.2960   31.0160   46.7420 O   0  0  0  0  0  0  0  0  0  0  0  0
   60.2430   30.1440   48.6670 C   0  0  0  0  0  0  0  0  0  0  0  0
   60.6130   28.7900   48.8370 C   0  0  0  0  0  0  0  0  0  0  0  0
   60.4010   28.1290   50.0670 C   0  0  0  0  0  0  0  0  0  0  0  0
   59.8150   28.8050   51.1450 C   0  0  0  0  0  0  0  0  0  0  0  0
   59.4990   30.1490   50.9730 C   0  0  0  0  0  0  0  0  0  0  0  0
   58.9550   30.9570   51.8980 N   0  0  0  0  0  0  0  0  0  0  0  0
   58.8930   32.1470   51.2610 C   0  0  0  0  0  0  0  0  0  0  0  0
   58.2620   33.4770   51.9890 S   0  0  0  0  0  0  0  0  0  0  0  0
   59.3860   32.1240   49.9930 N   0  0  0  0  0  0  0  0  0  0  0  0
   59.6500   33.5410   49.0020 S   0  0  0  0  0  0  0  0  0  0  0  0
   59.2970   34.8060   49.7320 O   0  0  0  0  0  0  0  0  0  0  0  0
   58.7610   33.4530   47.7900 O   0  0  0  0  0  0  0  0  0  0  0  0
   61.3300   33.5780   48.4750 C   0  0  0  0  0  0  0  0  0  0  0  0
   61.6460   33.8540   47.1350 C   0  0  0  0  0  0  0  0  0  0  0  0
   62.9750   33.7780   46.6910 C   0  0  0  0  0  0  0  0  0  0  0  0
   63.9900   33.4260   47.5880 C   0  0  0  0  0  0  0  0  0  0  0  0
   63.6840   33.1740   48.9350 C   0  0  0  0  0  0  0  0  0  0  0  0
   64.9520   32.7330   50.0810 S   0  0  0  0  0  0  0  0  0  0  0  0
   66.2810   32.7860   49.3850 O   0  0  0  0  0  0  0  0  0  0  0  0
   64.9660   33.7310   51.2040 O   0  0  0  0  0  0  0  0  0  0  0  0
   64.6960   31.1200   50.7090 N   0  0  0  0  0  0  0  0  0  0  0  0
   63.4010   31.0550   51.4200 C   0  0  0  0  0  0  0  0  0  0  0  0
   63.2610   29.7830   52.2780 C   0  0  0  0  0  0  0  0  0  0  0  0
   64.2940   28.7230   51.9010 C   0  0  0  0  0  0  0  0  0  0  0  0
   65.7140   29.2860   52.0380 C   0  0  0  0  0  0  0  0  0  0  0  0
   65.8050   30.7630   51.6090 C   0  0  0  0  0  0  0  0  0  0  0  0
   62.3550   33.2580   49.3720 C   0  0  0  0  0  0  0  0  0  0  0  0
   59.7350   30.8270   49.8010 C   0  0  0  0  0  0  0  0  0  0  0  0
   56.4946   28.6810   44.3014 H   0  0  0  0  0  0  0  0  0  0  0  0
   55.8328   30.1265   43.4651 H   0  0  0  0  0  0  0  0  0  0  0  0
   57.6029   29.8208   43.4651 H   0  0  0  0  0  0  0  0  0  0  0  0
   57.3932   31.8944   43.8598 H   0  0  0  0  0  0  0  0  0  0  0  0
   56.8211   32.5360   45.4352 H   0  0  0  0  0  0  0  0  0  0  0  0
   59.5074   31.3957   44.6683 H   0  0  0  0  0  0  0  0  0  0  0  0
   59.0981   32.7737   45.7574 H   0  0  0  0  0  0  0  0  0  0  0  0
   58.1090   30.4050   47.0010 H   0  0  0  0  0  0  0  0  0  0  0  0
   61.0723   28.2439   47.9998 H   0  0  0  0  0  0  0  0  0  0  0  0
   60.6982   27.0759   50.1793 H   0  0  0  0  0  0  0  0  0  0  0  0
   59.6115   28.2904   52.0957 H   0  0  0  0  0  0  0  0  0  0  0  0
   60.8482   34.1310   46.4302 H   0  0  0  0  0  0  0  0  0  0  0  0
   63.2185   33.9946   45.6404 H   0  0  0  0  0  0  0  0  0  0  0  0
   65.0295   33.3466   47.2371 H   0  0  0  0  0  0  0  0  0  0  0  0
   63.3143   31.9339   52.0757 H   0  0  0  0  0  0  0  0  0  0  0  0
   62.6045   31.0354   50.6616 H   0  0  0  0  0  0  0  0  0  0  0  0
   63.3972   30.0513   53.3360 H   0  0  0  0  0  0  0  0  0  0  0  0
   62.2606   29.3614   52.1005 H   0  0  0  0  0  0  0  0  0  0  0  0
   64.1825   27.8553   52.5678 H   0  0  0  0  0  0  0  0  0  0  0  0
   64.1297   28.4211   50.8561 H   0  0  0  0  0  0  0  0  0  0  0  0
   66.0265   29.2038   53.0895 H   0  0  0  0  0  0  0  0  0  0  0  0
   66.3708   28.7035   51.3751 H   0  0  0  0  0  0  0  0  0  0  0  0
   65.7616   31.4009   52.5041 H   0  0  0  0  0  0  0  0  0  0  0  0
   66.7538   30.9147   51.0735 H   0  0  0  0  0  0  0  0  0  0  0  0
   62.1157   33.0708   50.4292 H   0  0  0  0  0  0  0  0  0  0  0  0
  1  2  1  0
  2  3  1  0
  3  4  1  0
  4  5  1  0
  5  6  1  0
  6  7  2  0
  6  8  1  0
  8  9  2  0
  9 10  1  0
 10 11  2  0
 11 12  1  0
 12 13  1  0
 13 14  1  0
 14 15  2  0
 14 16  1  0
 16 17  1  0
 17 18  2  0
 17 19  2  0
 17 20  1  0
 20 21  2  0
 21 22  1  0
 22 23  2  0
 23 24  1  0
 24 25  1  0
 25 26  2  0
 25 27  2  0
 25 28  1  0
 28 29  1  0
 29 30  1  0
 30 31  1  0
 31 32  1  0
 32 33  1  0
 24 34  2  0
 16 35  1  0
 35  8  1  0
 35 12  2  0
 34 20  1  0
 33 28  1  0
  1 36  1  0
  1 37  1  0
  1 38  1  0
  3 39  1  0
  3 40  1  0
  4 41  1  0
  4 42  1  0
  5 43  1  0
  9 44  1  0
 10 45  1  0
 11 46  1  0
 21 47  1  0
 22 48  1  0
 23 49  1  0
 29 50  1  0
 29 51  1  0
 30 52  1  0
 30 53  1  0
 31 54  1  0
 31 55  1  0
 32 56  1  0
 32 57  1  0
 33 58  1  0
 33 59  1  0
 34 60  1  0
M  CHG  1  13  -1
M  END
>  <UniqueID>  (82) 
80

>  <SMILES>  (82) 
COCCNC(=O)c1cccc2[n-]c(=S)n(S(=O)(=O)c3cccc(S(=O)(=O)N4CCCCC4)c3)c12

>  <Energy>  (82) 
113.52829167121665

>  <Genealogy>  (82) 
COCCNC(=O)c1cccc2[n-]c(=S)n(S(=O)(=O)c3cccc(S(=O)(=O)N4CCCCC4)c3)c12 (protonated)
COCCNC(=O)c1cccc2[n-]c(=S)n(S(=O)(=O)c3cccc(S(=O)(=O)N4CCCCC4)c3)c12 (3D coordinates assigned)
COCCNC(=O)c1cccc2[n-]c(=S)n(S(=O)(=O)c3cccc(S(=O)(=O)N4CCCCC4)c3)c12 (nonaromatic ring conformer: 113.52829167121665 kcal/mol)

>  <smiles>  (82) 
COCCNC(=O)c1cccc2[nH]c(=S)n(S(=O)(=O)c3cccc(S(=O)(=O)N4CCCCC4)c3)c12

>  <score_type>  (82) 
oracle

>  <origin>  (82) 
adg

>  <m_score__min__energy>  (82) 
-11.65

>  <m_primary>  (82) 
energy

$$$$
82:0
     RDKit          3D

 70 72  0  0  0  0  0  0  0  0999 V2000
   57.8120   31.9670   43.1960 C   0  0  0  0  0  0  0  0  0  0  0  0
   56.9620   31.6010   44.3650 C   0  0  0  0  0  0  0  0  0  0  0  0
   56.6980   32.4690   45.2400 O   0  0  0  0  0  0  0  0  0  0  0  0
   56.4980   30.2880   44.4970 O   0  0  0  0  0  0  0  0  0  0  0  0
   56.9850   29.2170   43.6950 C   0  0  0  0  0  0  0  0  0  0  0  0
   57.7500   28.2100   44.5680 C   0  0  0  0  0  0  0  0  0  0  0  0
   57.0080   27.9640   45.8940 C   0  0  0  0  0  0  0  0  0  0  0  0
   55.8580   27.1550   45.6710 O   0  0  0  0  0  0  0  0  0  0  0  0
   55.8490   25.7770   45.9040 C   0  0  0  0  0  0  0  0  0  0  0  0
   57.1400   25.0400   46.0100 C   0  0  0  0  0  0  0  0  0  0  0  0
   54.7600   25.1450   45.9900 O   0  0  0  0  0  0  0  0  0  0  0  0
   59.2350   28.6200   44.7720 C   0  0  0  0  0  0  0  0  0  0  0  0
   59.6010   28.8270   46.1950 N   0  0  0  0  0  0  0  0  0  0  0  0
   59.9760   27.7710   46.9740 C   0  0  0  0  0  0  0  0  0  0  0  0
   59.9890   26.5980   46.5080 O   0  0  0  0  0  0  0  0  0  0  0  0
   60.3160   27.9660   48.2670 N   0  0  0  0  0  0  0  0  0  0  0  0
   60.2660   29.1940   48.8430 C   0  0  0  0  0  0  0  0  0  0  0  0
   60.5190   29.2430   50.1280 N   0  0  0  0  0  0  0  0  0  0  0  0
   61.6420   28.8140   50.9030 C   0  0  0  0  0  0  0  0  0  0  0  0
   61.5910   27.5990   51.5960 C   0  0  0  0  0  0  0  0  0  0  0  0
   62.6440   27.2200   52.4320 C   0  0  0  0  0  0  0  0  0  0  0  0
   63.7440   28.0810   52.6290 C   0  0  0  0  0  0  0  0  0  0  0  0
   64.8260   27.7480   53.4620 O   0  0  0  0  0  0  0  0  0  0  0  0
   65.8620   26.8110   53.1580 C   0  0  0  0  0  0  0  0  0  0  0  0
   65.5760   25.5090   53.9030 C   0  0  0  0  0  0  0  0  0  0  0  0
   65.9210   26.5550   51.6480 C   0  0  0  0  0  0  0  0  0  0  0  0
   63.7620   29.3220   51.9720 C   0  0  0  0  0  0  0  0  0  0  0  0
   65.1010   30.4350   52.2090 Cl  0  0  0  0  0  0  0  0  0  0  0  0
   62.7090   29.6910   51.1270 C   0  0  0  0  0  0  0  0  0  0  0  0
   59.9320   30.2900   48.0630 N   0  0  0  0  0  0  0  0  0  0  0  0
   60.0630   31.6970   48.5120 C   0  0  0  0  0  0  0  0  0  0  0  0
   61.4660   32.0630   48.9440 C   0  0  0  0  0  0  0  0  0  0  0  0
   62.5440   31.6620   48.1380 C   0  0  0  0  0  0  0  0  0  0  0  0
   63.8560   31.9880   48.4930 C   0  0  0  0  0  0  0  0  0  0  0  0
   64.1060   32.7210   49.6560 C   0  0  0  0  0  0  0  0  0  0  0  0
   65.7550   33.1150   50.1080 Cl  0  0  0  0  0  0  0  0  0  0  0  0
   63.0420   33.1410   50.4570 C   0  0  0  0  0  0  0  0  0  0  0  0
   61.7270   32.8230   50.1020 C   0  0  0  0  0  0  0  0  0  0  0  0
   59.5440   30.0760   46.7570 C   0  0  0  0  0  0  0  0  0  0  0  0
   59.1240   31.0480   46.0650 O   0  0  0  0  0  0  0  0  0  0  0  0
   58.7679   32.3786   43.5522 H   0  0  0  0  0  0  0  0  0  0  0  0
   58.0028   31.0713   42.5867 H   0  0  0  0  0  0  0  0  0  0  0  0
   57.2924   32.7211   42.5867 H   0  0  0  0  0  0  0  0  0  0  0  0
   56.1371   28.7094   43.2118 H   0  0  0  0  0  0  0  0  0  0  0  0
   57.6648   29.6200   42.9299 H   0  0  0  0  0  0  0  0  0  0  0  0
   57.7807   27.2503   44.0313 H   0  0  0  0  0  0  0  0  0  0  0  0
   57.6812   27.4525   46.5976 H   0  0  0  0  0  0  0  0  0  0  0  0
   56.6912   28.9306   46.3128 H   0  0  0  0  0  0  0  0  0  0  0  0
   57.3936   24.8952   47.0705 H   0  0  0  0  0  0  0  0  0  0  0  0
   57.0444   24.0604   45.5188 H   0  0  0  0  0  0  0  0  0  0  0  0
   57.9349   25.6204   45.5188 H   0  0  0  0  0  0  0  0  0  0  0  0
   59.8753   27.8263   44.3596 H   0  0  0  0  0  0  0  0  0  0  0  0
   59.3792   29.5814   44.2573 H   0  0  0  0  0  0  0  0  0  0  0  0
   60.5820   27.1350   48.8480 H   0  0  0  0  0  0  0  0  0  0  0  0
   60.7179   26.9397   51.4818 H   0  0  0  0  0  0  0  0  0  0  0  0
   62.6153   26.2446   52.9396 H   0  0  0  0  0  0  0  0  0  0  0  0
   66.8342   27.2164   53.4749 H   0  0  0  0  0  0  0  0  0  0  0  0
   65.6159   25.6906   54.9872 H   0  0  0  0  0  0  0  0  0  0  0  0
   64.5758   25.1420   53.6292 H   0  0  0  0  0  0  0  0  0  0  0  0
   66.3303   24.7566   53.6292 H   0  0  0  0  0  0  0  0  0  0  0  0
   66.1646   25.4981   51.4645 H   0  0  0  0  0  0  0  0  0  0  0  0
   64.9452   26.7899   51.1979 H   0  0  0  0  0  0  0  0  0  0  0  0
   66.6956   27.1933   51.1979 H   0  0  0  0  0  0  0  0  0  0  0  0
   62.7203   30.6755   50.6365 H   0  0  0  0  0  0  0  0  0  0  0  0
   59.7710   32.3564   47.6814 H   0  0  0  0  0  0  0  0  0  0  0  0
   59.4113   31.8192   49.3897 H   0  0  0  0  0  0  0  0  0  0  0  0
   62.3542   31.0867   47.2199 H   0  0  0  0  0  0  0  0  0  0  0  0
   64.6931   31.6670   47.8557 H   0  0  0  0  0  0  0  0  0  0  0  0
   63.2385   33.7233   51.3693 H   0  0  0  0  0  0  0  0  0  0  0  0
   60.8922   33.1678   50.7298 H   0  0  0  0  0  0  0  0  0  0  0  0
  1  2  1  0
  2  3  2  0
  2  4  1  0
  4  5  1  0
  5  6  1  0
  6  7  1  0
  7  8  1  0
  8  9  1  0
  9 10  1  0
  9 11  2  0
  6 12  1  0
 12 13  1  0
 13 14  1  0
 14 15  2  0
 14 16  1  0
 16 17  1  0
 17 18  2  3
 18 19  1  0
 19 20  2  0
 20 21  1  0
 21 22  2  0
 22 23  1  0
 23 24  1  0
 24 25  1  0
 24 26  1  0
 22 27  1  0
 27 28  1  0
 27 29  2  0
 17 30  1  0
 30 31  1  0
 31 32  1  0
 32 33  2  0
 33 34  1  0
 34 35  2  0
 35 36  1  0
 35 37  1  0
 37 38  2  0
 30 39  1  0
 39 40  2  0
 39 13  1  0
 29 19  1  0
 38 32  1  0
  1 41  1  0
  1 42  1  0
  1 43  1  0
  5 44  1  0
  5 45  1  0
  6 46  1  0
  7 47  1  0
  7 48  1  0
 10 49  1  0
 10 50  1  0
 10 51  1  0
 12 52  1  0
 12 53  1  0
 16 54  1  0
 20 55  1  0
 21 56  1  0
 24 57  1  0
 25 58  1  0
 25 59  1  0
 25 60  1  0
 26 61  1  0
 26 62  1  0
 26 63  1  0
 29 64  1  0
 31 65  1  0
 31 66  1  0
 33 67  1  0
 34 68  1  0
 37 69  1  0
 38 70  1  0
M  END
>  <UniqueID>  (83) 
81

>  <SMILES>  (83) 
CC(=O)OCC(COC(C)=O)Cn1c(=O)[nH]c(=Nc2ccc(OC(C)C)c(Cl)c2)n(Cc2ccc(Cl)cc2)c1=O

>  <Energy>  (83) 
84.1899279199256

>  <Genealogy>  (83) 
CC(=O)OCC(COC(C)=O)Cn1c(=O)[nH]c(=Nc2ccc(OC(C)C)c(Cl)c2)n(Cc2ccc(Cl)cc2)c1=O (3D coordinates assigned)
CC(=O)OCC(COC(C)=O)Cn1c(=O)[nH]c(=Nc2ccc(OC(C)C)c(Cl)c2)n(Cc2ccc(Cl)cc2)c1=O (optimized conformer: 84.1899279199256 kcal/mol)

>  <smiles>  (83) 
CC(=O)OCC(COC(C)=O)Cn1c(=O)[nH]c(=Nc2ccc(OC(C)C)c(Cl)c2)n(Cc2ccc(Cl)cc2)c1=O

>  <score_type>  (83) 
oracle

>  <origin>  (83) 
adg

>  <m_score__min__energy>  (83) 
-8.4600000000000009

>  <m_primary>  (83) 
energy

$$$$
83:0
     RDKit          3D

 59 62  0  0  0  0  0  0  0  0999 V2000
   56.6500   27.9110   42.6310 H   0  0  0  0  0  0  0  0  0  0  0  0
   56.6620   28.8960   42.3920 O   0  0  0  0  0  0  0  0  0  0  0  0
   56.9060   29.8810   43.3480 C   0  0  0  0  0  0  0  0  0  0  0  0
   57.0940   31.2060   42.9310 C   0  0  0  0  0  0  0  0  0  0  0  0
   56.9963   31.4641   41.8662 H   0  0  0  0  0  0  0  0  0  0  0  0
   57.4040   32.1970   43.8590 C   0  0  0  0  0  0  0  0  0  0  0  0
   57.5478   33.2379   43.5337 H   0  0  0  0  0  0  0  0  0  0  0  0
   57.5300   31.8560   45.2030 C   0  0  0  0  0  0  0  0  0  0  0  0
   57.7901   32.6266   45.9436 H   0  0  0  0  0  0  0  0  0  0  0  0
   57.3320   30.5730   45.6000 N   0  0  0  0  0  0  0  0  0  0  0  0
   57.0060   29.5760   44.7310 C   0  0  0  0  0  0  0  0  0  0  0  0
   56.8180   28.3830   45.2250 N   0  0  0  0  0  0  0  0  0  0  0  0
   57.4470   27.1500   44.8480 C   0  0  0  0  0  0  0  0  0  0  0  0
   58.2540   27.1610   43.8810 O   0  0  0  0  0  0  0  0  0  0  0  0
   57.2400   25.8890   45.6130 C   0  0  0  0  0  0  0  0  0  0  0  0
   56.8490   24.7280   44.9180 C   0  0  0  0  0  0  0  0  0  0  0  0
   56.6988   24.7708   43.8291 H   0  0  0  0  0  0  0  0  0  0  0  0
   56.6500   23.5240   45.5950 C   0  0  0  0  0  0  0  0  0  0  0  0
   56.3376   22.6275   45.0393 H   0  0  0  0  0  0  0  0  0  0  0  0
   56.8460   23.4540   46.9740 C   0  0  0  0  0  0  0  0  0  0  0  0
   56.6847   22.5045   47.5055 H   0  0  0  0  0  0  0  0  0  0  0  0
   57.2470   24.5900   47.6790 C   0  0  0  0  0  0  0  0  0  0  0  0
   57.4070   24.5301   48.7657 H   0  0  0  0  0  0  0  0  0  0  0  0
   57.4470   25.8050   47.0130 C   0  0  0  0  0  0  0  0  0  0  0  0
   57.9200   26.9250   47.7610 N   0  0  0  0  0  0  0  0  0  0  0  0
   59.5870   27.3780   47.7050 S   0  0  0  0  0  0  0  0  0  0  0  0
   60.2570   26.9520   48.9810 O   0  0  0  0  0  0  0  0  0  0  0  0
   60.2640   26.6910   46.5530 O   0  0  0  0  0  0  0  0  0  0  0  0
   59.7030   29.1250   47.5270 C   0  0  0  0  0  0  0  0  0  0  0  0
   59.1090   29.9630   48.4790 C   0  0  0  0  0  0  0  0  0  0  0  0
   58.5408   29.5278   49.3143 H   0  0  0  0  0  0  0  0  0  0  0  0
   59.2360   31.3500   48.3710 C   0  0  0  0  0  0  0  0  0  0  0  0
   58.7727   32.0025   49.1257 H   0  0  0  0  0  0  0  0  0  0  0  0
   59.9520   31.9150   47.3040 C   0  0  0  0  0  0  0  0  0  0  0  0
   60.0370   33.4170   47.1530 C   0  0  0  0  0  0  0  0  0  0  0  0
   59.1497   33.8643   47.6249 H   0  0  0  0  0  0  0  0  0  0  0  0
   60.0908   33.6293   46.0750 H   0  0  0  0  0  0  0  0  0  0  0  0
   61.2450   34.0100   47.7720 N   0  0  0  0  0  0  0  0  0  0  0  0
   61.1840   34.2090   49.2360 C   0  0  0  0  0  0  0  0  0  0  0  0
   60.1325   34.1463   49.5528 H   0  0  0  0  0  0  0  0  0  0  0  0
   61.6244   35.1944   49.4482 H   0  0  0  0  0  0  0  0  0  0  0  0
   61.9950   33.1690   50.0290 C   0  0  0  0  0  0  0  0  0  0  0  0
   61.4425   32.8973   50.9405 H   0  0  0  0  0  0  0  0  0  0  0  0
   62.9704   33.6037   50.2928 H   0  0  0  0  0  0  0  0  0  0  0  0
   62.2150   31.9630   49.2190 N   0  0  0  0  0  0  0  0  0  0  0  0
   62.8240   30.8980   50.0270 C   0  0  0  0  0  0  0  0  0  0  0  0
   62.6928   31.1274   51.0948 H   0  0  0  0  0  0  0  0  0  0  0  0
   62.3379   29.9387   49.7956 H   0  0  0  0  0  0  0  0  0  0  0  0
   63.8973   30.8304   49.7956 H   0  0  0  0  0  0  0  0  0  0  0  0
   63.0690   32.2830   48.0620 C   0  0  0  0  0  0  0  0  0  0  0  0
   63.1048   31.4094   47.3945 H   0  0  0  0  0  0  0  0  0  0  0  0
   64.0708   32.5368   48.4387 H   0  0  0  0  0  0  0  0  0  0  0  0
   62.5360   33.4960   47.2680 C   0  0  0  0  0  0  0  0  0  0  0  0
   62.4047   33.1945   46.2183 H   0  0  0  0  0  0  0  0  0  0  0  0
   63.2725   34.3052   47.3809 H   0  0  0  0  0  0  0  0  0  0  0  0
   60.5710   31.0700   46.3690 C   0  0  0  0  0  0  0  0  0  0  0  0
   61.1589   31.5022   45.5458 H   0  0  0  0  0  0  0  0  0  0  0  0
   60.4440   29.6830   46.4790 C   0  0  0  0  0  0  0  0  0  0  0  0
   60.9278   29.0277   45.7398 H   0  0  0  0  0  0  0  0  0  0  0  0
  1  2  1  0
  2  3  1  0
  3  4  2  0
  4  5  1  0
  4  6  1  0
  6  7  1  0
  6  8  2  0
  8  9  1  0
  8 10  1  0
 10 11  1  0
 11 12  2  0
 12 13  1  0
 13 14  2  0
 13 15  1  0
 15 16  2  0
 16 17  1  0
 16 18  1  0
 18 19  1  0
 18 20  2  0
 20 21  1  0
 20 22  1  0
 22 23  1  0
 22 24  2  0
 24 25  1  0
 25 26  1  0
 26 27  2  0
 26 28  2  0
 26 29  1  0
 29 30  2  0
 30 31  1  0
 30 32  1  0
 32 33  1  0
 32 34  2  0
 34 35  1  0
 35 36  1  0
 35 37  1  0
 35 38  1  0
 38 39  1  0
 39 40  1  0
 39 41  1  0
 39 42  1  0
 42 43  1  0
 42 44  1  0
 42 45  1  0
 45 46  1  0
 46 47  1  0
 46 48  1  0
 46 49  1  0
 45 50  1  0
 50 51  1  0
 50 52  1  0
 50 53  1  0
 53 54  1  0
 53 55  1  0
 34 56  1  0
 56 57  1  0
 56 58  2  0
 58 59  1  0
 11  3  1  0
 24 15  1  0
 58 29  1  0
 53 38  1  0
M  CHG  2  10  -1  25  -1
M  END
>  <UniqueID>  (84) 
82

>  <SMILES>  (84) 
CN1CCN(Cc2ccc(S(=O)(=O)[N-]c3ccccc3C(=O)/N=c3/[n-]cccc3O)cc2)CC1

>  <Energy>  (84) 
98.1696619649103

>  <Genealogy>  (84) 
CN1CCN(Cc2ccc(S(=O)(=O)[N-]c3ccccc3C(=O)N=c3[n-]cccc3O)cc2)CC1 (protonated)
CN1CCN(Cc2ccc(S(=O)(=O)[N-]c3ccccc3C(=O)/N=c3/[n-]cccc3O)cc2)CC1 (cis-trans isomerization)
CN1CCN(Cc2ccc(S(=O)(=O)[N-]c3ccccc3C(=O)/N=c3/[n-]cccc3O)cc2)CC1 (3D coordinates assigned)
CN1CCN(Cc2ccc(S(=O)(=O)[N-]c3ccccc3C(=O)/N=c3/[n-]cccc3O)cc2)CC1 (nonaromatic ring conformer: 98.1696619649103 kcal/mol)

>  <smiles>  (84) 
CN1CCN(Cc2ccc(S(=O)(=O)Nc3ccccc3C(=O)N=c3[nH]cccc3O)cc2)CC1

>  <score_type>  (84) 
oracle

>  <origin>  (84) 
adg

>  <m_score__min__energy>  (84) 
-13.880000000000001

>  <m_primary>  (84) 
energy

$$$$
84:0
     RDKit          3D

 64 66  0  0  0  0  0  0  0  0999 V2000
   58.3788   32.8749   46.1614 H   0  0  0  0  0  0  0  0  0  0  0  0
   58.7110   31.8280   46.2220 C   0  0  0  0  0  0  0  0  0  0  0  0
   58.1760   30.8480   45.2520 C   0  0  0  0  0  0  0  0  0  0  0  0
   56.9310   30.7230   45.1090 O   0  0  0  0  0  0  0  0  0  0  0  0
   59.0470   30.0350   44.4560 N   0  0  0  0  0  0  0  0  0  0  0  0
   59.8490   28.9260   44.9570 C   0  0  0  0  0  0  0  0  0  0  0  0
   60.8888   29.0466   44.6190 H   0  0  0  0  0  0  0  0  0  0  0  0
   59.8121   28.9216   46.0564 H   0  0  0  0  0  0  0  0  0  0  0  0
   59.2940   27.5960   44.4290 C   0  0  0  0  0  0  0  0  0  0  0  0
   60.0806   27.0924   43.8479 H   0  0  0  0  0  0  0  0  0  0  0  0
   58.9836   26.9972   45.2980 H   0  0  0  0  0  0  0  0  0  0  0  0
   58.0590   27.7830   43.5280 C   0  0  0  0  0  0  0  0  0  0  0  0
   57.1789   27.9652   44.1622 H   0  0  0  0  0  0  0  0  0  0  0  0
   58.2465   28.6372   42.8608 H   0  0  0  0  0  0  0  0  0  0  0  0
   57.8100   26.5960   42.6960 N   0  0  0  0  0  0  0  0  0  0  0  0
   56.8700   26.6890   42.2450 H   0  0  0  0  0  0  0  0  0  0  0  0
   57.7650   25.3940   43.5390 C   0  0  0  0  0  0  0  0  0  0  0  0
   58.7295   24.8697   43.4694 H   0  0  0  0  0  0  0  0  0  0  0  0
   57.5668   25.7013   44.5764 H   0  0  0  0  0  0  0  0  0  0  0  0
   56.6450   24.4460   43.0880 C   0  0  0  0  0  0  0  0  0  0  0  0
   55.7748   24.5987   43.7433 H   0  0  0  0  0  0  0  0  0  0  0  0
   56.4233   24.6843   42.0373 H   0  0  0  0  0  0  0  0  0  0  0  0
   57.0390   22.9620   43.1410 C   0  0  0  0  0  0  0  0  0  0  0  0
   57.2788   22.6206   42.1232 H   0  0  0  0  0  0  0  0  0  0  0  0
   57.9093   22.8625   43.8063 H   0  0  0  0  0  0  0  0  0  0  0  0
   55.9610   22.1340   43.6760 N   0  0  0  0  0  0  0  0  0  0  0  0
   55.6710   21.9870   45.0690 C   0  0  0  0  0  0  0  0  0  0  0  0
   56.2340   21.0730   45.7290 O   0  0  0  0  0  0  0  0  0  0  0  0
   54.7080   22.8660   45.7700 C   0  0  0  0  0  0  0  0  0  0  0  0
   53.6730   22.8481   45.3979 H   0  0  0  0  0  0  0  0  0  0  0  0
   54.9520   23.6830   46.8080 C   0  0  0  0  0  0  0  0  0  0  0  0
   54.3051   23.5667   47.6900 H   0  0  0  0  0  0  0  0  0  0  0  0
   55.9990   24.7210   46.8870 C   0  0  0  0  0  0  0  0  0  0  0  0
   57.2350   24.4200   47.3800 N   0  0  0  0  0  0  0  0  0  0  0  0
   58.2370   25.3400   47.4230 C   0  0  0  0  0  0  0  0  0  0  0  0
   59.2140   25.0694   47.8499 H   0  0  0  0  0  0  0  0  0  0  0  0
   58.0250   26.6280   46.9250 C   0  0  0  0  0  0  0  0  0  0  0  0
   58.8268   27.3798   46.9690 H   0  0  0  0  0  0  0  0  0  0  0  0
   56.7850   26.9510   46.3710 C   0  0  0  0  0  0  0  0  0  0  0  0
   56.6114   27.9550   45.9564 H   0  0  0  0  0  0  0  0  0  0  0  0
   55.7640   25.9960   46.3440 C   0  0  0  0  0  0  0  0  0  0  0  0
   54.5290   26.3200   45.7900 O   0  0  0  0  0  0  0  0  0  0  0  0
   59.5890   31.4780   47.1730 C   0  0  0  0  0  0  0  0  0  0  0  0
   60.5892   31.1318   46.8734 H   0  0  0  0  0  0  0  0  0  0  0  0
   59.2540   31.5430   48.6150 C   0  0  0  0  0  0  0  0  0  0  0  0
   58.7940   30.4100   49.3370 C   0  0  0  0  0  0  0  0  0  0  0  0
   58.7060   29.0440   48.6950 C   0  0  0  0  0  0  0  0  0  0  0  0
   58.6563   28.2733   49.4783 H   0  0  0  0  0  0  0  0  0  0  0  0
   57.8025   28.9902   48.0698 H   0  0  0  0  0  0  0  0  0  0  0  0
   59.5951   28.8747   48.0698 H   0  0  0  0  0  0  0  0  0  0  0  0
   58.4090   30.5580   50.6850 C   0  0  0  0  0  0  0  0  0  0  0  0
   57.8850   29.4670   51.3790 O   0  0  0  0  0  0  0  0  0  0  0  0
   58.5600   31.7940   51.3390 C   0  0  0  0  0  0  0  0  0  0  0  0
   58.2070   31.9410   52.6950 C   0  0  0  0  0  0  0  0  0  0  0  0
   57.7798   31.0889   53.2440 H   0  0  0  0  0  0  0  0  0  0  0  0
   58.3960   33.1610   53.3460 C   0  0  0  0  0  0  0  0  0  0  0  0
   58.1251   33.2629   54.4072 H   0  0  0  0  0  0  0  0  0  0  0  0
   58.9270   34.2520   52.6570 C   0  0  0  0  0  0  0  0  0  0  0  0
   59.0774   35.2094   53.1774 H   0  0  0  0  0  0  0  0  0  0  0  0
   59.2680   34.1310   51.3080 C   0  0  0  0  0  0  0  0  0  0  0  0
   59.6774   34.9969   50.7671 H   0  0  0  0  0  0  0  0  0  0  0  0
   59.0900   32.9040   50.6360 C   0  0  0  0  0  0  0  0  0  0  0  0
   59.4270   32.7710   49.2780 C   0  0  0  0  0  0  0  0  0  0  0  0
   59.9290   33.8680   48.5760 O   0  0  0  0  0  0  0  0  0  0  0  0
  1  2  1  0
  2  3  1  0
  3  4  2  0
  3  5  1  0
  5  6  1  0
  6  7  1  0
  6  8  1  0
  6  9  1  0
  9 10  1  0
  9 11  1  0
  9 12  1  0
 12 13  1  0
 12 14  1  0
 12 15  1  0
 15 16  1  0
 15 17  1  0
 17 18  1  0
 17 19  1  0
 17 20  1  0
 20 21  1  0
 20 22  1  0
 20 23  1  0
 23 24  1  0
 23 25  1  0
 23 26  1  0
 26 27  1  0
 27 28  2  0
 27 29  1  0
 29 30  1  0
 29 31  2  0
 31 32  1  0
 31 33  1  0
 33 34  2  0
 34 35  1  0
 35 36  1  0
 35 37  2  0
 37 38  1  0
 37 39  1  0
 39 40  1  0
 39 41  2  0
 41 42  1  0
  2 43  2  3
 43 44  1  0
 43 45  1  0
 45 46  2  0
 46 47  1  0
 47 48  1  0
 47 49  1  0
 47 50  1  0
 46 51  1  0
 51 52  1  0
 51 53  2  0
 53 54  1  0
 54 55  1  0
 54 56  2  0
 56 57  1  0
 56 58  1  0
 58 59  1  0
 58 60  2  0
 60 61  1  0
 60 62  1  0
 62 63  2  0
 63 64  1  0
 41 33  1  0
 63 45  1  0
 62 53  1  0
M  CHG  5   5  -1  26  -1  42  -1  52  -1  64  -1
M  END
>  <UniqueID>  (85) 
83

>  <SMILES>  (85) 
Cc1c(C=CC(=O)[N-]CCCNCCC[N-]C(=O)/C=C\c2ncccc2[O-])c([O-])c2ccccc2c1[O-]

>  <Energy>  (85) 
77.38300583600903

>  <Genealogy>  (85) 
Cc1c(C=CC(=O)[N-]CCCNCCC[N-]C(=O)C=Cc2ncccc2[O-])c([O-])c2ccccc2c1[O-] (protonated)
Cc1c(C=CC(=O)[N-]CCCNCCC[N-]C(=O)/C=C\c2ncccc2[O-])c([O-])c2ccccc2c1[O-] (cis-trans isomerization)
Cc1c(C=CC(=O)[N-]CCCNCCC[N-]C(=O)/C=C\c2ncccc2[O-])c([O-])c2ccccc2c1[O-] (3D coordinates assigned)
Cc1c(C=CC(=O)[N-]CCCNCCC[N-]C(=O)/C=C\c2ncccc2[O-])c([O-])c2ccccc2c1[O-] (optimized conformer: 77.38300583600903 kcal/mol)

>  <smiles>  (85) 
Cc1c(C=CC(=O)NCCCNCCCNC(=O)C=Cc2ncccc2O)c(O)c2ccccc2c1O

>  <score_type>  (85) 
oracle

>  <origin>  (85) 
adg

>  <m_score__min__energy>  (85) 
-18.52

>  <m_primary>  (85) 
energy

$$$$
85:0
     RDKit          3D

 49 53  0  0  0  0  0  0  0  0999 V2000
   55.2290   24.1550   47.0490 O   0  0  0  0  0  0  0  0  0  0  0  0
   55.1280   24.8340   45.9920 C   0  0  0  0  0  0  0  0  0  0  0  0
   54.8170   24.1480   44.7020 C   0  0  0  0  0  0  0  0  0  0  0  0
   55.9100   23.2540   44.3390 N   0  0  0  0  0  0  0  0  0  0  0  0
   57.1260   23.2180   44.9140 C   0  0  0  0  0  0  0  0  0  0  0  0
   57.8910   22.2850   44.2450 C   0  0  0  0  0  0  0  0  0  0  0  0
   57.0620   21.7940   43.2540 C   0  0  0  0  0  0  0  0  0  0  0  0
   55.8630   22.4040   43.3260 N   0  0  0  0  0  0  0  0  0  0  0  0
   55.4120   26.2390   45.9910 N   0  0  0  0  0  0  0  0  0  0  0  0
   56.6820   26.8520   45.7290 C   0  0  0  0  0  0  0  0  0  0  0  0
   57.8470   26.1670   46.0980 C   0  0  0  0  0  0  0  0  0  0  0  0
   59.1020   26.7260   45.8530 C   0  0  0  0  0  0  0  0  0  0  0  0
   59.2070   27.9640   45.2160 C   0  0  0  0  0  0  0  0  0  0  0  0
   58.0520   28.6440   44.7950 C   0  0  0  0  0  0  0  0  0  0  0  0
   58.1350   29.9230   44.1440 N   0  0  0  0  0  0  0  0  0  0  0  0
   58.2250   31.1810   44.8330 C   0  0  0  0  0  0  0  0  0  0  0  0
   57.3950   32.2740   44.4750 C   0  0  0  0  0  0  0  0  0  0  0  0
   57.4640   33.4890   45.1760 C   0  0  0  0  0  0  0  0  0  0  0  0
   58.3580   33.5940   46.2400 C   0  0  0  0  0  0  0  0  0  0  0  0
   59.1650   32.5250   46.6030 C   0  0  0  0  0  0  0  0  0  0  0  0
   59.1070   31.3050   45.9250 C   0  0  0  0  0  0  0  0  0  0  0  0
   59.9120   32.8700   47.6450 C   0  0  0  0  0  0  0  0  0  0  0  0
   60.8540   32.0160   48.4400 C   0  0  0  0  0  0  0  0  0  0  0  0
   62.2560   32.5110   48.2820 C   0  0  0  0  0  0  0  0  0  0  0  0
   62.7910   33.0830   47.1540 C   0  0  0  0  0  0  0  0  0  0  0  0
   64.0530   33.4610   47.4150 N   0  0  0  0  0  0  0  0  0  0  0  0
   64.2420   33.1100   48.7050 C   0  0  0  0  0  0  0  0  0  0  0  0
   63.1620   32.5330   49.2740 N   0  0  0  0  0  0  0  0  0  0  0  0
   59.4950   34.2350   47.9250 C   0  0  0  0  0  0  0  0  0  0  0  0
   59.9230   34.9630   48.8580 O   0  0  0  0  0  0  0  0  0  0  0  0
   58.5050   34.6430   46.9860 N   0  0  0  0  0  0  0  0  0  0  0  0
   56.7920   28.0890   45.0660 C   0  0  0  0  0  0  0  0  0  0  0  0
   53.8907   23.5652   44.8129 H   0  0  0  0  0  0  0  0  0  0  0  0
   54.6892   24.9029   43.9122 H   0  0  0  0  0  0  0  0  0  0  0  0
   57.4534   23.8271   45.7694 H   0  0  0  0  0  0  0  0  0  0  0  0
   58.9314   21.9956   44.4542 H   0  0  0  0  0  0  0  0  0  0  0  0
   57.3388   21.0235   42.5193 H   0  0  0  0  0  0  0  0  0  0  0  0
   57.7721   25.1829   46.5836 H   0  0  0  0  0  0  0  0  0  0  0  0
   60.0111   26.1897   46.1626 H   0  0  0  0  0  0  0  0  0  0  0  0
   60.1981   28.4087   45.0431 H   0  0  0  0  0  0  0  0  0  0  0  0
   58.1320   29.9390   43.0970 H   0  0  0  0  0  0  0  0  0  0  0  0
   56.6888   32.1688   43.6382 H   0  0  0  0  0  0  0  0  0  0  0  0
   56.8265   34.3391   44.8915 H   0  0  0  0  0  0  0  0  0  0  0  0
   59.7367   30.4588   46.2370 H   0  0  0  0  0  0  0  0  0  0  0  0
   60.5720   32.0556   49.5025 H   0  0  0  0  0  0  0  0  0  0  0  0
   60.7952   30.9800   48.0749 H   0  0  0  0  0  0  0  0  0  0  0  0
   62.2707   33.2108   46.1933 H   0  0  0  0  0  0  0  0  0  0  0  0
   65.1871   33.2783   49.2420 H   0  0  0  0  0  0  0  0  0  0  0  0
   55.8823   28.6252   44.7577 H   0  0  0  0  0  0  0  0  0  0  0  0
  1  2  2  0
  2  3  1  0
  3  4  1  0
  4  5  1  0
  5  6  2  0
  6  7  1  0
  7  8  2  0
  2  9  1  0
  9 10  1  0
 10 11  2  0
 11 12  1  0
 12 13  2  0
 13 14  1  0
 14 15  1  0
 15 16  1  0
 16 17  1  0
 17 18  2  0
 18 19  1  0
 19 20  1  0
 20 21  1  0
 20 22  2  0
 22 23  1  0
 23 24  1  0
 24 25  2  0
 25 26  1  0
 26 27  1  0
 27 28  2  0
 22 29  1  0
 29 30  2  0
 29 31  1  0
 14 32  2  0
  8  4  1  0
 32 10  1  0
 21 16  2  0
 28 24  1  0
 31 19  2  0
  3 33  1  0
  3 34  1  0
  5 35  1  0
  6 36  1  0
  7 37  1  0
 11 38  1  0
 12 39  1  0
 13 40  1  0
 15 41  1  0
 17 42  1  0
 18 43  1  0
 21 44  1  0
 23 45  1  0
 23 46  1  0
 25 47  1  0
 27 48  1  0
 32 49  1  0
M  CHG  2   9  -1  26  -1
M  END
>  <UniqueID>  (86) 
84

>  <SMILES>  (86) 
O=C(Cn1cccn1)[N-]c1cccc(Nc2ccc3c(c2)=C(Cc2c[n-]cn2)C(=O)N=3)c1

>  <Energy>  (86) 
148.4085489090639

>  <Genealogy>  (86) 
O=C(Cn1cccn1)[N-]c1cccc(Nc2ccc3c(c2)=C(Cc2c[n-]cn2)C(=O)N=3)c1 (protonated)
O=C(Cn1cccn1)[N-]c1cccc(Nc2ccc3c(c2)=C(Cc2c[n-]cn2)C(=O)N=3)c1 (3D coordinates assigned)
O=C(Cn1cccn1)[N-]c1cccc(Nc2ccc3c(c2)=C(Cc2c[n-]cn2)C(=O)N=3)c1 (nonaromatic ring conformer: 148.4085489090639 kcal/mol)

>  <smiles>  (86) 
O=C(Cn1cccn1)Nc1cccc(Nc2ccc3c(c2)=C(Cc2c[nH]cn2)C(=O)N=3)c1

>  <score_type>  (86) 
oracle

>  <origin>  (86) 
adg

>  <m_score__min__energy>  (86) 
-12.83

>  <m_primary>  (86) 
energy

$$$$
86:0
     RDKit          3D

 53 56  0  0  0  0  0  0  0  0999 V2000
   59.2100   27.3940   48.2350 C   0  0  0  0  0  0  0  0  0  0  0  0
   58.8010   28.0640   47.1470 C   0  0  0  0  0  0  0  0  0  0  0  0
   58.2080   27.5290   45.9900 C   0  0  0  0  0  0  0  0  0  0  0  0
   58.0540   26.2540   45.5820 C   0  0  0  0  0  0  0  0  0  0  0  0
   56.9180   25.3770   45.9110 C   0  0  0  0  0  0  0  0  0  0  0  0
   56.9740   24.0330   45.9520 N   0  0  0  0  0  0  0  0  0  0  0  0
   55.6870   23.6730   46.1450 C   0  0  0  0  0  0  0  0  0  0  0  0
   55.3290   22.4730   46.2550 O   0  0  0  0  0  0  0  0  0  0  0  0
   54.8130   24.7020   46.2000 N   0  0  0  0  0  0  0  0  0  0  0  0
   55.6080   25.7700   46.0350 C   0  0  0  0  0  0  0  0  0  0  0  0
   55.1450   27.0800   45.9930 O   0  0  0  0  0  0  0  0  0  0  0  0
   57.7880   28.6110   45.2340 C   0  0  0  0  0  0  0  0  0  0  0  0
   58.1800   29.7480   45.9090 C   0  0  0  0  0  0  0  0  0  0  0  0
   57.9630   31.1490   45.4200 C   0  0  0  0  0  0  0  0  0  0  0  0
   58.8030   29.4200   47.0610 N   0  0  0  0  0  0  0  0  0  0  0  0
   59.2960   30.3590   48.0330 C   0  0  0  0  0  0  0  0  0  0  0  0
   60.5650   30.9340   47.8820 C   0  0  0  0  0  0  0  0  0  0  0  0
   61.0410   31.8400   48.8310 C   0  0  0  0  0  0  0  0  0  0  0  0
   60.2620   32.1660   49.9430 C   0  0  0  0  0  0  0  0  0  0  0  0
   58.9950   31.5800   50.1230 C   0  0  0  0  0  0  0  0  0  0  0  0
   58.1760   31.9310   51.3070 C   0  0  0  0  0  0  0  0  0  0  0  0
   57.8530   33.1350   51.5020 O   0  0  0  0  0  0  0  0  0  0  0  0
   57.7570   30.9230   52.2410 N   0  0  0  0  0  0  0  0  0  0  0  0
   56.7410   31.1770   53.2590 C   0  0  0  0  0  0  0  0  0  0  0  0
   55.4280   30.5740   52.8400 C   0  0  0  0  0  0  0  0  0  0  0  0
   55.2480   29.1850   52.8970 C   0  0  0  0  0  0  0  0  0  0  0  0
   54.0440   28.6140   52.4810 C   0  0  0  0  0  0  0  0  0  0  0  0
   53.0120   29.4240   52.0000 C   0  0  0  0  0  0  0  0  0  0  0  0
   53.1750   30.8200   51.9250 C   0  0  0  0  0  0  0  0  0  0  0  0
   52.0830   31.6770   51.4080 C   0  0  0  0  0  0  0  0  0  0  0  0
   51.4010   31.3340   50.2020 N   0  0  0  0  0  0  0  0  0  0  0  0
   51.7420   32.7200   52.0300 O   0  0  0  0  0  0  0  0  0  0  0  0
   54.3920   31.3860   52.3480 C   0  0  0  0  0  0  0  0  0  0  0  0
   58.5170   30.6810   49.1530 C   0  0  0  0  0  0  0  0  0  0  0  0
   59.6616   27.9374   49.0781 H   0  0  0  0  0  0  0  0  0  0  0  0
   59.0938   26.3013   48.2840 H   0  0  0  0  0  0  0  0  0  0  0  0
   58.8467   25.8312   44.9473 H   0  0  0  0  0  0  0  0  0  0  0  0
   57.2455   28.5710   44.2779 H   0  0  0  0  0  0  0  0  0  0  0  0
   57.8582   31.8257   46.2808 H   0  0  0  0  0  0  0  0  0  0  0  0
   58.8234   31.4619   44.8102 H   0  0  0  0  0  0  0  0  0  0  0  0
   57.0483   31.1870   44.8102 H   0  0  0  0  0  0  0  0  0  0  0  0
   61.1872   30.6708   47.0139 H   0  0  0  0  0  0  0  0  0  0  0  0
   62.0326   32.2985   48.7025 H   0  0  0  0  0  0  0  0  0  0  0  0
   60.6411   32.8857   50.6834 H   0  0  0  0  0  0  0  0  0  0  0  0
   58.2120   29.9830   52.2270 H   0  0  0  0  0  0  0  0  0  0  0  0
   57.0600   30.7285   54.2114 H   0  0  0  0  0  0  0  0  0  0  0  0
   56.6162   32.2631   53.3803 H   0  0  0  0  0  0  0  0  0  0  0  0
   56.0587   28.5424   53.2710 H   0  0  0  0  0  0  0  0  0  0  0  0
   53.9073   27.5237   52.5320 H   0  0  0  0  0  0  0  0  0  0  0  0
   52.0648   28.9671   51.6774 H   0  0  0  0  0  0  0  0  0  0  0  0
   51.9290   31.0120   49.3600 H   0  0  0  0  0  0  0  0  0  0  0  0
   54.5338   32.4754   52.2929 H   0  0  0  0  0  0  0  0  0  0  0  0
   57.5227   30.2263   49.2743 H   0  0  0  0  0  0  0  0  0  0  0  0
  1  2  2  0
  2  3  1  0
  3  4  2  3
  4  5  1  0
  5  6  1  0
  6  7  1  0
  7  8  2  0
  7  9  1  0
  9 10  1  0
 10 11  1  0
  3 12  1  0
 12 13  2  0
 13 14  1  0
 13 15  1  0
 15 16  1  0
 16 17  2  0
 17 18  1  0
 18 19  2  0
 19 20  1  0
 20 21  1  0
 21 22  2  0
 21 23  1  0
 23 24  1  0
 24 25  1  0
 25 26  2  0
 26 27  1  0
 27 28  2  0
 28 29  1  0
 29 30  1  0
 30 31  1  0
 30 32  2  0
 29 33  2  0
 20 34  2  0
 15  2  1  0
 34 16  1  0
 10  5  2  0
 33 25  1  0
  1 35  1  0
  1 36  1  0
  4 37  1  0
 12 38  1  0
 14 39  1  0
 14 40  1  0
 14 41  1  0
 17 42  1  0
 18 43  1  0
 19 44  1  0
 23 45  1  0
 24 46  1  0
 24 47  1  0
 26 48  1  0
 27 49  1  0
 28 50  1  0
 31 51  1  0
 33 52  1  0
 34 53  1  0
M  CHG  4   6  -1   9  -1  11  -1  31  -1
M  END
>  <UniqueID>  (87) 
85

>  <SMILES>  (87) 
C=c1c(=Cc2[n-]c(=O)[n-]c2[O-])cc(C)n1-c1cccc(C(=O)NCc2cccc(C([NH-])=O)c2)c1

>  <Energy>  (87) 
132.24215311112192

>  <Genealogy>  (87) 
C=c1c(=Cc2[n-]c(=O)[n-]c2[O-])cc(C)n1-c1cccc(C(=O)NCc2cccc(C([NH-])=O)c2)c1 (protonated)
C=c1c(=Cc2[n-]c(=O)[n-]c2[O-])cc(C)n1-c1cccc(C(=O)NCc2cccc(C([NH-])=O)c2)c1 (3D coordinates assigned)
C=c1c(=Cc2[n-]c(=O)[n-]c2[O-])cc(C)n1-c1cccc(C(=O)NCc2cccc(C([NH-])=O)c2)c1 (optimized conformer: 132.24215311112192 kcal/mol)

>  <smiles>  (87) 
C=c1c(=Cc2[nH]c(=O)[nH]c2O)cc(C)n1-c1cccc(C(=O)NCc2cccc(C(N)=O)c2)c1

>  <score_type>  (87) 
oracle

>  <origin>  (87) 
adg

>  <m_score__min__energy>  (87) 
-20.949999999999999

>  <m_primary>  (87) 
energy

$$$$
87:0
     RDKit          3D

 39 41  0  0  0  0  0  0  0  0999 V2000
   55.4060   26.3450   45.9870 O   0  0  0  0  0  0  0  0  0  0  0  0
   56.2740   27.2470   45.8380 C   0  0  0  0  0  0  0  0  0  0  0  0
   55.9000   28.5020   45.2550 N   0  0  0  0  0  0  0  0  0  0  0  0
   56.5260   29.0480   44.0540 C   0  0  0  0  0  0  0  0  0  0  0  0
   57.8350   29.7170   44.3860 C   0  0  0  0  0  0  0  0  0  0  0  0
   58.9030   29.0570   44.2570 O   0  0  0  0  0  0  0  0  0  0  0  0
   57.8840   31.0640   44.9090 N   0  0  0  0  0  0  0  0  0  0  0  0
   57.4030   32.1870   44.0960 C   0  0  0  0  0  0  0  0  0  0  0  0
   58.4300   33.3130   44.1210 C   0  0  0  0  0  0  0  0  0  0  0  0
   58.7850   33.6800   45.5360 C   0  0  0  0  0  0  0  0  0  0  0  0
   59.2570   34.9710   45.8190 C   0  0  0  0  0  0  0  0  0  0  0  0
   59.6280   35.3180   47.1200 C   0  0  0  0  0  0  0  0  0  0  0  0
   59.5430   34.3770   48.1460 C   0  0  0  0  0  0  0  0  0  0  0  0
   59.0910   33.0830   47.8730 C   0  0  0  0  0  0  0  0  0  0  0  0
   58.7160   32.7190   46.5710 C   0  0  0  0  0  0  0  0  0  0  0  0
   58.2350   31.3080   46.3180 C   0  0  0  0  0  0  0  0  0  0  0  0
   57.6730   27.0110   46.2660 C   0  0  0  0  0  0  0  0  0  0  0  0
   58.4050   25.9260   45.7460 C   0  0  0  0  0  0  0  0  0  0  0  0
   59.7250   25.7040   46.1500 C   0  0  0  0  0  0  0  0  0  0  0  0
   60.3300   26.5610   47.0730 C   0  0  0  0  0  0  0  0  0  0  0  0
   61.6100   26.3440   47.4630 F   0  0  0  0  0  0  0  0  0  0  0  0
   59.6140   27.6410   47.5950 C   0  0  0  0  0  0  0  0  0  0  0  0
   58.2940   27.8680   47.1960 C   0  0  0  0  0  0  0  0  0  0  0  0
   56.7099   28.2311   43.3407 H   0  0  0  0  0  0  0  0  0  0  0  0
   55.8502   29.7968   43.6151 H   0  0  0  0  0  0  0  0  0  0  0  0
   57.2534   31.8509   43.0594 H   0  0  0  0  0  0  0  0  0  0  0  0
   56.4499   32.5527   44.5056 H   0  0  0  0  0  0  0  0  0  0  0  0
   59.3384   32.9845   43.5948 H   0  0  0  0  0  0  0  0  0  0  0  0
   57.9986   34.1951   43.6253 H   0  0  0  0  0  0  0  0  0  0  0  0
   59.3352   35.7139   45.0115 H   0  0  0  0  0  0  0  0  0  0  0  0
   59.9877   36.3349   47.3358 H   0  0  0  0  0  0  0  0  0  0  0  0
   59.8319   34.6535   49.1707 H   0  0  0  0  0  0  0  0  0  0  0  0
   59.0288   32.3440   48.6854 H   0  0  0  0  0  0  0  0  0  0  0  0
   59.0333   30.6084   46.6066 H   0  0  0  0  0  0  0  0  0  0  0  0
   57.3231   31.1591   46.9149 H   0  0  0  0  0  0  0  0  0  0  0  0
   57.9353   25.2489   45.0174 H   0  0  0  0  0  0  0  0  0  0  0  0
   60.2885   24.8528   45.7403 H   0  0  0  0  0  0  0  0  0  0  0  0
   60.0906   28.3148   48.3223 H   0  0  0  0  0  0  0  0  0  0  0  0
   57.7365   28.7209   47.6105 H   0  0  0  0  0  0  0  0  0  0  0  0
  1  2  2  0
  2  3  1  0
  3  4  1  0
  4  5  1  0
  5  6  2  0
  5  7  1  0
  7  8  1  0
  8  9  1  0
  9 10  1  0
 10 11  2  0
 11 12  1  0
 12 13  2  0
 13 14  1  0
 14 15  2  0
 15 16  1  0
  2 17  1  0
 17 18  2  0
 18 19  1  0
 19 20  2  0
 20 21  1  0
 20 22  1  0
 22 23  2  0
 16  7  1  0
 23 17  1  0
 15 10  1  0
  4 24  1  0
  4 25  1  0
  8 26  1  0
  8 27  1  0
  9 28  1  0
  9 29  1  0
 11 30  1  0
 12 31  1  0
 13 32  1  0
 14 33  1  0
 16 34  1  0
 16 35  1  0
 18 36  1  0
 19 37  1  0
 22 38  1  0
 23 39  1  0
M  CHG  1   3  -1
M  END
>  <UniqueID>  (88) 
86

>  <SMILES>  (88) 
O=C([N-]CC(=O)N1CCc2ccccc2C1)c1ccc(F)cc1

>  <Energy>  (88) 
42.719644575350785

>  <Genealogy>  (88) 
O=C([N-]CC(=O)N1CCc2ccccc2C1)c1ccc(F)cc1 (protonated)
O=C([N-]CC(=O)N1CCc2ccccc2C1)c1ccc(F)cc1 (3D coordinates assigned)
O=C([N-]CC(=O)N1CCc2ccccc2C1)c1ccc(F)cc1 (nonaromatic ring conformer: 42.719644575350785 kcal/mol)

>  <smiles>  (88) 
O=C(NCC(=O)N1CCc2ccccc2C1)c1ccc(F)cc1

>  <score_type>  (88) 
oracle

>  <origin>  (88) 
adg

>  <m_score__min__energy>  (88) 
-10.43

>  <m_primary>  (88) 
energy

$$$$
88:0
     RDKit          3D

 71 74  0  0  0  0  0  0  0  0999 V2000
   58.8631   32.9739   43.1542 H   0  0  0  0  0  0  0  0  0  0  0  0
   58.3720   32.8450   44.1300 C   0  0  0  0  0  0  0  0  0  0  0  0
   58.7420   33.7460   45.2440 C   0  0  0  0  0  0  0  0  0  0  0  0
   58.5280   34.9840   45.1360 O   0  0  0  0  0  0  0  0  0  0  0  0
   59.3370   33.2330   46.4550 N   0  0  0  0  0  0  0  0  0  0  0  0
   60.1140   31.9790   46.4320 C   0  0  0  0  0  0  0  0  0  0  0  0
   60.4422   31.7891   45.3994 H   0  0  0  0  0  0  0  0  0  0  0  0
   59.4590   31.1796   46.8088 H   0  0  0  0  0  0  0  0  0  0  0  0
   61.3600   32.0230   47.3440 C   0  0  0  0  0  0  0  0  0  0  0  0
   62.2534   32.1149   46.7088 H   0  0  0  0  0  0  0  0  0  0  0  0
   61.3618   31.0949   47.9345 H   0  0  0  0  0  0  0  0  0  0  0  0
   61.3490   33.1960   48.3430 C   0  0  0  0  0  0  0  0  0  0  0  0
   61.6620   34.1033   47.8055 H   0  0  0  0  0  0  0  0  0  0  0  0
   62.3330   33.0000   49.4340 N   0  0  0  0  0  0  0  0  0  0  0  0
   63.0840   34.1220   49.9380 C   0  0  0  0  0  0  0  0  0  0  0  0
   62.6930   35.3050   49.7500 O   0  0  0  0  0  0  0  0  0  0  0  0
   64.2660   33.8890   50.7040 N   0  0  0  0  0  0  0  0  0  0  0  0
   64.8760   32.5660   50.7540 C   0  0  0  0  0  0  0  0  0  0  0  0
   65.4458   32.4667   51.6897 H   0  0  0  0  0  0  0  0  0  0  0  0
   65.5422   32.4518   49.8862 H   0  0  0  0  0  0  0  0  0  0  0  0
   63.8240   31.4900   50.7000 C   0  0  0  0  0  0  0  0  0  0  0  0
   62.6100   31.7080   50.0230 C   0  0  0  0  0  0  0  0  0  0  0  0
   61.6870   30.7090   49.9790 N   0  0  0  0  0  0  0  0  0  0  0  0
   61.9250   29.4920   50.5450 C   0  0  0  0  0  0  0  0  0  0  0  0
   61.0100   28.5680   50.5600 N   0  0  0  0  0  0  0  0  0  0  0  0
   60.2040   28.1660   49.4410 C   0  0  0  0  0  0  0  0  0  0  0  0
   60.3730   26.9100   48.8350 C   0  0  0  0  0  0  0  0  0  0  0  0
   61.1270   26.2113   49.2265 H   0  0  0  0  0  0  0  0  0  0  0  0
   59.5900   26.5430   47.7390 C   0  0  0  0  0  0  0  0  0  0  0  0
   59.7408   25.5629   47.2628 H   0  0  0  0  0  0  0  0  0  0  0  0
   58.6110   27.4180   47.2410 C   0  0  0  0  0  0  0  0  0  0  0  0
   57.8010   27.0770   46.1020 N   0  0  0  0  0  0  0  0  0  0  0  0
   57.7890   27.7240   45.2820 H   0  0  0  0  0  0  0  0  0  0  0  0
   56.6100   25.8090   46.1050 S   0  0  0  0  0  0  0  0  0  0  0  0
   55.2320   26.3990   45.9850 O   0  0  0  0  0  0  0  0  0  0  0  0
   56.7040   25.0600   47.4040 O   0  0  0  0  0  0  0  0  0  0  0  0
   56.9200   24.6700   44.7700 C   0  0  0  0  0  0  0  0  0  0  0  0
   57.1878   23.6860   45.1823 H   0  0  0  0  0  0  0  0  0  0  0  0
   56.0151   24.5746   44.1518 H   0  0  0  0  0  0  0  0  0  0  0  0
   57.7484   25.0463   44.1518 H   0  0  0  0  0  0  0  0  0  0  0  0
   58.4300   28.6650   47.8590 C   0  0  0  0  0  0  0  0  0  0  0  0
   57.6690   29.3582   47.4713 H   0  0  0  0  0  0  0  0  0  0  0  0
   59.2120   29.0400   48.9710 C   0  0  0  0  0  0  0  0  0  0  0  0
   59.0440   30.2760   49.6210 O   0  0  0  0  0  0  0  0  0  0  0  0
   58.5230   30.4350   50.9360 C   0  0  0  0  0  0  0  0  0  0  0  0
   59.3052   30.1963   51.6716 H   0  0  0  0  0  0  0  0  0  0  0  0
   58.1927   31.4748   51.0763 H   0  0  0  0  0  0  0  0  0  0  0  0
   57.6684   29.7568   51.0763 H   0  0  0  0  0  0  0  0  0  0  0  0
   63.1110   29.2600   51.1640 N   0  0  0  0  0  0  0  0  0  0  0  0
   64.0630   30.2230   51.2440 C   0  0  0  0  0  0  0  0  0  0  0  0
   65.0228   30.0080   51.7365 H   0  0  0  0  0  0  0  0  0  0  0  0
   59.9320   33.4410   48.8750 C   0  0  0  0  0  0  0  0  0  0  0  0
   59.9623   34.2088   49.6621 H   0  0  0  0  0  0  0  0  0  0  0  0
   59.5280   32.5072   49.2931 H   0  0  0  0  0  0  0  0  0  0  0  0
   59.0370   33.9200   47.7260 C   0  0  0  0  0  0  0  0  0  0  0  0
   59.1881   35.0007   47.5876 H   0  0  0  0  0  0  0  0  0  0  0  0
   57.9953   33.6895   47.9939 H   0  0  0  0  0  0  0  0  0  0  0  0
   57.4570   31.8770   44.2740 C   0  0  0  0  0  0  0  0  0  0  0  0
   56.4260   32.0582   43.9360 H   0  0  0  0  0  0  0  0  0  0  0  0
   57.8060   30.5480   44.8870 C   0  0  0  0  0  0  0  0  0  0  0  0
   58.8092   30.2491   44.5491 H   0  0  0  0  0  0  0  0  0  0  0  0
   57.7811   30.6514   45.9818 H   0  0  0  0  0  0  0  0  0  0  0  0
   56.8310   29.5040   44.4910 N   0  0  0  0  0  0  0  0  0  0  0  0
   55.5580   30.1120   44.0630 C   0  0  0  0  0  0  0  0  0  0  0  0
   54.9697   30.3930   44.9490 H   0  0  0  0  0  0  0  0  0  0  0  0
   55.7643   31.0088   43.4603 H   0  0  0  0  0  0  0  0  0  0  0  0
   54.9901   29.3879   43.4603 H   0  0  0  0  0  0  0  0  0  0  0  0
   57.3830   28.6970   43.3890 C   0  0  0  0  0  0  0  0  0  0  0  0
   57.9584   27.8558   43.8030 H   0  0  0  0  0  0  0  0  0  0  0  0
   56.5601   28.3092   42.7706 H   0  0  0  0  0  0  0  0  0  0  0  0
   58.0427   29.3234   42.7706 H   0  0  0  0  0  0  0  0  0  0  0  0
  1  2  1  0
  2  3  1  0
  3  4  2  0
  3  5  1  0
  5  6  1  0
  6  7  1  0
  6  8  1  0
  6  9  1  0
  9 10  1  0
  9 11  1  0
  9 12  1  0
 12 13  1  0
 12 14  1  0
 14 15  1  0
 15 16  2  0
 15 17  1  0
 17 18  1  0
 18 19  1  0
 18 20  1  0
 18 21  1  0
 21 22  1  0
 22 23  2  0
 23 24  1  0
 24 25  2  0
 25 26  1  0
 26 27  2  0
 27 28  1  0
 27 29  1  0
 29 30  1  0
 29 31  2  0
 31 32  1  0
 32 33  1  0
 32 34  1  0
 34 35  2  0
 34 36  2  0
 34 37  1  0
 37 38  1  0
 37 39  1  0
 37 40  1  0
 31 41  1  0
 41 42  1  0
 41 43  2  0
 43 44  1  0
 44 45  1  0
 45 46  1  0
 45 47  1  0
 45 48  1  0
 24 49  1  0
 49 50  1  0
 50 51  1  0
 12 52  1  0
 52 53  1  0
 52 54  1  0
 52 55  1  0
 55 56  1  0
 55 57  1  0
  2 58  2  3
 58 59  1  0
 58 60  1  0
 60 61  1  0
 60 62  1  0
 60 63  1  0
 63 64  1  0
 64 65  1  0
 64 66  1  0
 64 67  1  0
 63 68  1  0
 68 69  1  0
 68 70  1  0
 68 71  1  0
 55  5  1  0
 22 14  1  0
 43 26  1  0
 50 21  2  0
M  CHG  2  17  -1  49  -1
M  END
>  <UniqueID>  (89) 
87

>  <SMILES>  (89) 
COc1cc(NS(C)(=O)=O)ccc1/N=c1\nc2c(c[n-]1)C[N-]C(=O)N2C1CCN(C(=O)C=CCN(C)C)CC1

>  <Energy>  (89) 
83.71942006877303

>  <Genealogy>  (89) 
COc1cc(NS(C)(=O)=O)ccc1N=c1nc2c(c[n-]1)C[N-]C(=O)N2C1CCN(C(=O)C=CCN(C)C)CC1 (protonated)
COc1cc(NS(C)(=O)=O)ccc1/N=c1\nc2c(c[n-]1)C[N-]C(=O)N2C1CCN(C(=O)C=CCN(C)C)CC1 (cis-trans isomerization)
COc1cc(NS(C)(=O)=O)ccc1/N=c1\nc2c(c[n-]1)C[N-]C(=O)N2C1CCN(C(=O)C=CCN(C)C)CC1 (3D coordinates assigned)
COc1cc(NS(C)(=O)=O)ccc1/N=c1\nc2c(c[n-]1)C[N-]C(=O)N2C1CCN(C(=O)C=CCN(C)C)CC1 (nonaromatic ring conformer: 83.71942006877303 kcal/mol)

>  <smiles>  (89) 
COc1cc(NS(C)(=O)=O)ccc1N=c1nc2c(c[nH]1)CNC(=O)N2C1CCN(C(=O)C=CCN(C)C)CC1

>  <score_type>  (89) 
oracle

>  <origin>  (89) 
adg

>  <m_score__min__energy>  (89) 
-12.210000000000001

>  <m_primary>  (89) 
energy

$$$$
89:0
     RDKit          3D

 49 51  0  0  0  0  0  0  0  0999 V2000
   50.5500   33.1000   52.6940 C   0  0  0  0  0  0  0  0  0  0  0  0
   51.3220   32.6920   51.5260 N   0  0  0  0  0  0  0  0  0  0  0  0
   51.7100   31.0020   51.6440 S   0  0  0  0  0  0  0  0  0  0  0  0
   51.8270   30.4170   50.2620 O   0  0  0  0  0  0  0  0  0  0  0  0
   50.6060   30.2900   52.3750 O   0  0  0  0  0  0  0  0  0  0  0  0
   53.2160   30.7850   52.5330 C   0  0  0  0  0  0  0  0  0  0  0  0
   53.2270   30.1450   53.7800 C   0  0  0  0  0  0  0  0  0  0  0  0
   54.4310   29.9690   54.4680 C   0  0  0  0  0  0  0  0  0  0  0  0
   55.6280   30.4320   53.9150 C   0  0  0  0  0  0  0  0  0  0  0  0
   55.6310   31.0800   52.6680 C   0  0  0  0  0  0  0  0  0  0  0  0
   56.9010   31.5620   52.0710 C   0  0  0  0  0  0  0  0  0  0  0  0
   57.2640   32.9080   52.2030 C   0  0  0  0  0  0  0  0  0  0  0  0
   58.4520   33.3670   51.6490 C   0  0  0  0  0  0  0  0  0  0  0  0
   59.2820   32.4820   50.9590 C   0  0  0  0  0  0  0  0  0  0  0  0
   60.3630   32.9190   50.4730 O   0  0  0  0  0  0  0  0  0  0  0  0
   58.9320   31.1600   50.8210 N   0  0  0  0  0  0  0  0  0  0  0  0
   59.8430   30.2290   50.1280 C   0  0  0  0  0  0  0  0  0  0  0  0
   59.6890   30.3740   48.6430 C   0  0  0  0  0  0  0  0  0  0  0  0
   60.0290   29.4220   47.8890 O   0  0  0  0  0  0  0  0  0  0  0  0
   59.1620   31.5890   48.0910 N   0  0  0  0  0  0  0  0  0  0  0  0
   58.6190   31.6960   46.7640 C   0  0  0  0  0  0  0  0  0  0  0  0
   58.8150   32.8770   46.0350 C   0  0  0  0  0  0  0  0  0  0  0  0
   58.2750   33.0160   44.7560 C   0  0  0  0  0  0  0  0  0  0  0  0
   57.5200   31.9820   44.1970 C   0  0  0  0  0  0  0  0  0  0  0  0
   57.2930   30.7940   44.9160 C   0  0  0  0  0  0  0  0  0  0  0  0
   56.4820   29.7000   44.3250 C   0  0  0  0  0  0  0  0  0  0  0  0
   55.2140   29.3500   44.8810 N   0  0  0  0  0  0  0  0  0  0  0  0
   56.9090   29.0630   43.3230 O   0  0  0  0  0  0  0  0  0  0  0  0
   57.8410   30.6640   46.2060 C   0  0  0  0  0  0  0  0  0  0  0  0
   57.7660   30.6910   51.3790 C   0  0  0  0  0  0  0  0  0  0  0  0
   57.4390   29.3370   51.2860 O   0  0  0  0  0  0  0  0  0  0  0  0
   54.4170   31.2470   51.9790 C   0  0  0  0  0  0  0  0  0  0  0  0
   51.0903   32.8145   53.6086 H   0  0  0  0  0  0  0  0  0  0  0  0
   50.4084   34.1907   52.6772 H   0  0  0  0  0  0  0  0  0  0  0  0
   49.5690   32.6026   52.6772 H   0  0  0  0  0  0  0  0  0  0  0  0
   52.2862   29.7805   54.2181 H   0  0  0  0  0  0  0  0  0  0  0  0
   54.4363   29.4654   55.4459 H   0  0  0  0  0  0  0  0  0  0  0  0
   56.5733   30.2884   54.4589 H   0  0  0  0  0  0  0  0  0  0  0  0
   56.6071   33.6030   52.7464 H   0  0  0  0  0  0  0  0  0  0  0  0
   58.7377   34.4241   51.7536 H   0  0  0  0  0  0  0  0  0  0  0  0
   60.8814   30.4566   50.4109 H   0  0  0  0  0  0  0  0  0  0  0  0
   59.5959   29.1972   50.4185 H   0  0  0  0  0  0  0  0  0  0  0  0
   59.2300   32.4590   48.6660 H   0  0  0  0  0  0  0  0  0  0  0  0
   59.3984   33.6997   46.4741 H   0  0  0  0  0  0  0  0  0  0  0  0
   58.4441   33.9418   44.1865 H   0  0  0  0  0  0  0  0  0  0  0  0
   57.0998   32.0975   43.1870 H   0  0  0  0  0  0  0  0  0  0  0  0
   55.1390   28.6410   45.6460 H   0  0  0  0  0  0  0  0  0  0  0  0
   57.6594   29.7461   46.7843 H   0  0  0  0  0  0  0  0  0  0  0  0
   54.4100   31.7441   50.9977 H   0  0  0  0  0  0  0  0  0  0  0  0
  1  2  1  0
  2  3  1  0
  3  4  2  0
  3  5  2  0
  3  6  1  0
  6  7  2  0
  7  8  1  0
  8  9  2  0
  9 10  1  0
 10 11  1  0
 11 12  1  0
 12 13  2  0
 13 14  1  0
 14 15  2  0
 14 16  1  0
 16 17  1  0
 17 18  1  0
 18 19  2  0
 18 20  1  0
 20 21  1  0
 21 22  2  0
 22 23  1  0
 23 24  2  0
 24 25  1  0
 25 26  1  0
 26 27  1  0
 26 28  2  0
 25 29  2  0
 16 30  1  0
 30 31  1  0
 10 32  2  0
 32  6  1  0
 30 11  2  0
 29 21  1  0
  1 33  1  0
  1 34  1  0
  1 35  1  0
  7 36  1  0
  8 37  1  0
  9 38  1  0
 12 39  1  0
 13 40  1  0
 17 41  1  0
 17 42  1  0
 20 43  1  0
 22 44  1  0
 23 45  1  0
 24 46  1  0
 27 47  1  0
 29 48  1  0
 32 49  1  0
M  CHG  3   2  -1  27  -1  31  -1
M  END
>  <UniqueID>  (90) 
88

>  <SMILES>  (90) 
C[N-]S(=O)(=O)c1cccc(-c2ccc(=O)n(CC(=O)Nc3cccc(C([NH-])=O)c3)c2[O-])c1

>  <Energy>  (90) 
61.89401105212987

>  <Genealogy>  (90) 
C[N-]S(=O)(=O)c1cccc(-c2ccc(=O)n(CC(=O)Nc3cccc(C([NH-])=O)c3)c2[O-])c1 (protonated)
C[N-]S(=O)(=O)c1cccc(-c2ccc(=O)n(CC(=O)Nc3cccc(C([NH-])=O)c3)c2[O-])c1 (3D coordinates assigned)
C[N-]S(=O)(=O)c1cccc(-c2ccc(=O)n(CC(=O)Nc3cccc(C([NH-])=O)c3)c2[O-])c1 (optimized conformer: 61.89401105212987 kcal/mol)

>  <smiles>  (90) 
CNS(=O)(=O)c1cccc(-c2ccc(=O)n(CC(=O)Nc3cccc(C(N)=O)c3)c2O)c1

>  <score_type>  (90) 
oracle

>  <origin>  (90) 
adg

>  <m_score__min__energy>  (90) 
-16.100000000000001

>  <m_primary>  (90) 
energy

$$$$
90:0
     RDKit          3D

 64 67  0  0  0  0  0  0  0  0999 V2000
   58.1540   33.0820   43.4280 C   0  0  0  0  0  0  0  0  0  0  0  0
   58.0070   32.8210   44.9330 C   0  0  0  0  0  0  0  0  0  0  0  0
   56.7920   33.5480   45.5230 C   0  0  0  0  0  0  0  0  0  0  0  0
   59.2590   33.1830   45.6680 C   0  0  0  0  0  0  0  0  0  0  0  0
   59.7640   34.3360   45.7270 O   0  0  0  0  0  0  0  0  0  0  0  0
   59.8250   32.0500   46.3130 N   0  0  0  0  0  0  0  0  0  0  0  0
   59.0540   31.0470   46.0370 C   0  0  0  0  0  0  0  0  0  0  0  0
   59.2380   29.6940   46.5020 N   0  0  0  0  0  0  0  0  0  0  0  0
   60.3190   29.3640   47.4500 C   0  0  0  0  0  0  0  0  0  0  0  0
   60.2960   30.2930   48.6740 C   0  0  0  0  0  0  0  0  0  0  0  0
   58.8970   30.4300   49.2890 C   0  0  0  0  0  0  0  0  0  0  0  0
   58.5240   31.9000   49.5160 C   0  0  0  0  0  0  0  0  0  0  0  0
   59.2910   32.7790   48.6350 N   0  0  0  0  0  0  0  0  0  0  0  0
   60.1600   33.8340   49.0670 C   0  0  0  0  0  0  0  0  0  0  0  0
   59.6660   34.9670   49.3090 O   0  0  0  0  0  0  0  0  0  0  0  0
   61.6120   33.6290   49.2490 C   0  0  0  0  0  0  0  0  0  0  0  0
   62.2100   33.8320   50.5020 C   0  0  0  0  0  0  0  0  0  0  0  0
   63.5790   33.6180   50.6750 C   0  0  0  0  0  0  0  0  0  0  0  0
   64.3680   33.1700   49.6050 C   0  0  0  0  0  0  0  0  0  0  0  0
   65.8110   32.9480   49.8070 C   0  0  0  0  0  0  0  0  0  0  0  0
   66.2520   31.8230   50.1640 O   0  0  0  0  0  0  0  0  0  0  0  0
   63.7640   32.9340   48.3590 C   0  0  0  0  0  0  0  0  0  0  0  0
   62.3950   33.1640   48.1820 C   0  0  0  0  0  0  0  0  0  0  0  0
   58.2420   28.7070   46.0870 C   0  0  0  0  0  0  0  0  0  0  0  0
   58.2370   27.3150   46.6210 C   0  0  0  0  0  0  0  0  0  0  0  0
   58.2210   27.1030   47.8620 O   0  0  0  0  0  0  0  0  0  0  0  0
   58.3370   26.2050   45.7180 N   0  0  0  0  0  0  0  0  0  0  0  0
   57.2620   25.3330   45.3440 C   0  0  0  0  0  0  0  0  0  0  0  0
   55.9980   25.5370   45.9140 C   0  0  0  0  0  0  0  0  0  0  0  0
   54.9380   24.6770   45.6060 C   0  0  0  0  0  0  0  0  0  0  0  0
   55.1400   23.5970   44.7410 C   0  0  0  0  0  0  0  0  0  0  0  0
   56.4020   23.3790   44.1770 C   0  0  0  0  0  0  0  0  0  0  0  0
   56.6870   21.8810   43.0240 Br  0  0  0  0  0  0  0  0  0  0  0  0
   57.4630   24.2410   44.4800 C   0  0  0  0  0  0  0  0  0  0  0  0
   57.2530   29.0460   45.2240 C   0  0  0  0  0  0  0  0  0  0  0  0
   57.1670   30.3750   44.5240 C   0  0  0  0  0  0  0  0  0  0  0  0
   57.9400   31.3880   45.2280 N   0  0  0  0  0  0  0  0  0  0  0  0
   58.6883   34.0306   43.2708 H   0  0  0  0  0  0  0  0  0  0  0  0
   58.7221   32.2605   42.9672 H   0  0  0  0  0  0  0  0  0  0  0  0
   57.1570   33.1420   42.9672 H   0  0  0  0  0  0  0  0  0  0  0  0
   56.8439   33.5170   46.6213 H   0  0  0  0  0  0  0  0  0  0  0  0
   56.7916   34.5949   45.1854 H   0  0  0  0  0  0  0  0  0  0  0  0
   55.8692   33.0535   45.1854 H   0  0  0  0  0  0  0  0  0  0  0  0
   60.6980   32.0580   46.8820 H   0  0  0  0  0  0  0  0  0  0  0  0
   60.1938   28.3246   47.7875 H   0  0  0  0  0  0  0  0  0  0  0  0
   61.2822   29.4945   46.9350 H   0  0  0  0  0  0  0  0  0  0  0  0
   60.9771   29.8870   49.4364 H   0  0  0  0  0  0  0  0  0  0  0  0
   60.6098   31.2923   48.3378 H   0  0  0  0  0  0  0  0  0  0  0  0
   58.1616   29.9756   48.6088 H   0  0  0  0  0  0  0  0  0  0  0  0
   58.8970   29.9197   50.2635 H   0  0  0  0  0  0  0  0  0  0  0  0
   57.4514   32.0342   49.3124 H   0  0  0  0  0  0  0  0  0  0  0  0
   58.7549   32.1623   50.5590 H   0  0  0  0  0  0  0  0  0  0  0  0
   61.5965   34.1618   51.3534 H   0  0  0  0  0  0  0  0  0  0  0  0
   64.0415   33.8018   51.6560 H   0  0  0  0  0  0  0  0  0  0  0  0
   66.5143   33.7779   49.6434 H   0  0  0  0  0  0  0  0  0  0  0  0
   64.3703   32.5665   47.5180 H   0  0  0  0  0  0  0  0  0  0  0  0
   61.9309   32.9794   47.2019 H   0  0  0  0  0  0  0  0  0  0  0  0
   55.8385   26.3767   46.6064 H   0  0  0  0  0  0  0  0  0  0  0  0
   53.9444   24.8508   46.0449 H   0  0  0  0  0  0  0  0  0  0  0  0
   54.3070   22.9189   44.5039 H   0  0  0  0  0  0  0  0  0  0  0  0
   58.4561   24.0640   44.0414 H   0  0  0  0  0  0  0  0  0  0  0  0
   56.4657   28.3045   45.0234 H   0  0  0  0  0  0  0  0  0  0  0  0
   57.5597   30.2690   43.5020 H   0  0  0  0  0  0  0  0  0  0  0  0
   56.1137   30.6913   44.5020 H   0  0  0  0  0  0  0  0  0  0  0  0
  1  2  1  0
  2  3  1  0
  2  4  1  0
  4  5  2  0
  4  6  1  0
  6  7  2  0
  7  8  1  0
  8  9  1  0
  9 10  1  0
 10 11  1  0
 11 12  1  0
 12 13  1  0
 13 14  1  0
 14 15  2  0
 14 16  1  0
 16 17  2  0
 17 18  1  0
 18 19  2  0
 19 20  1  0
 20 21  2  0
 19 22  1  0
 22 23  2  0
  8 24  1  0
 24 25  1  0
 25 26  2  0
 25 27  1  0
 27 28  1  0
 28 29  2  0
 29 30  1  0
 30 31  2  0
 31 32  1  0
 32 33  1  0
 32 34  2  0
 24 35  2  0
 35 36  1  0
 36 37  1  0
 37  2  1  0
 37  7  1  0
 23 16  1  0
 34 28  1  0
  1 38  1  0
  1 39  1  0
  1 40  1  0
  3 41  1  0
  3 42  1  0
  3 43  1  0
  6 44  1  0
  9 45  1  0
  9 46  1  0
 10 47  1  0
 10 48  1  0
 11 49  1  0
 11 50  1  0
 12 51  1  0
 12 52  1  0
 17 53  1  0
 18 54  1  0
 20 55  1  0
 22 56  1  0
 23 57  1  0
 29 58  1  0
 30 59  1  0
 31 60  1  0
 34 61  1  0
 35 62  1  0
 36 63  1  0
 36 64  1  0
M  CHG  3   6   1  13  -1  27  -1
M  END
>  <UniqueID>  (91) 
89

>  <SMILES>  (91) 
CC1(C)C(=O)[NH+]=C2N(CCCC[N-]C(=O)c3ccc(C=O)cc3)C(C(=O)[N-]c3cccc(Br)c3)=CCN21

>  <Energy>  (91) 
91.40948025002727

>  <Genealogy>  (91) 
CC1(C)C(=O)[NH+]=C2N(CCCC[N-]C(=O)c3ccc(C=O)cc3)C(C(=O)[N-]c3cccc(Br)c3)=CCN21 (protonated)
CC1(C)C(=O)[NH+]=C2N(CCCC[N-]C(=O)c3ccc(C=O)cc3)C(C(=O)[N-]c3cccc(Br)c3)=CCN21 (3D coordinates assigned)
CC1(C)C(=O)[NH+]=C2N(CCCC[N-]C(=O)c3ccc(C=O)cc3)C(C(=O)[N-]c3cccc(Br)c3)=CCN21 (nonaromatic ring conformer: 91.40948025002727 kcal/mol)

>  <smiles>  (91) 
CC1(C)C(=O)N=C2N(CCCCNC(=O)c3ccc(C=O)cc3)C(C(=O)Nc3cccc(Br)c3)=CCN21

>  <score_type>  (91) 
oracle

>  <origin>  (91) 
adg

>  <m_score__min__energy>  (91) 
-11.16

>  <m_primary>  (91) 
energy

$$$$
91:0
     RDKit          3D

 47 49  0  0  0  0  0  0  0  0999 V2000
   62.7420   32.4080   47.3550 C   0  0  0  0  0  0  0  0  0  0  0  0
   61.8830   31.6570   48.2070 O   0  0  0  0  0  0  0  0  0  0  0  0
   61.0220   30.6370   47.7710 C   0  0  0  0  0  0  0  0  0  0  0  0
   60.7370   30.4340   46.4080 C   0  0  0  0  0  0  0  0  0  0  0  0
   59.8430   29.4330   46.0040 C   0  0  0  0  0  0  0  0  0  0  0  0
   59.2020   28.6420   46.9780 C   0  0  0  0  0  0  0  0  0  0  0  0
   59.5250   28.8120   48.3310 C   0  0  0  0  0  0  0  0  0  0  0  0
   60.4250   29.8130   48.7340 C   0  0  0  0  0  0  0  0  0  0  0  0
   60.7400   30.0340   50.0850 O   0  0  0  0  0  0  0  0  0  0  0  0
   60.2340   31.1130   50.8650 C   0  0  0  0  0  0  0  0  0  0  0  0
   58.2000   27.5840   46.5840 C   0  0  0  0  0  0  0  0  0  0  0  0
   57.5970   27.8450   45.2650 N   0  0  0  0  0  0  0  0  0  0  0  0
   56.3720   28.6850   45.2370 C   0  0  0  0  0  0  0  0  0  0  0  0
   56.2920   29.6990   44.0800 C   0  0  0  0  0  0  0  0  0  0  0  0
   56.4060   31.0630   44.5830 N   0  0  0  0  0  0  0  0  0  0  0  0
   57.3960   32.0410   44.2290 C   0  0  0  0  0  0  0  0  0  0  0  0
   57.6460   32.2120   43.0080 O   0  0  0  0  0  0  0  0  0  0  0  0
   58.0910   32.8990   45.2160 C   0  0  0  0  0  0  0  0  0  0  0  0
   58.8540   34.0200   44.8930 C   0  0  0  0  0  0  0  0  0  0  0  0
   59.4200   34.6590   45.9500 N   0  0  0  0  0  0  0  0  0  0  0  0
   59.1220   34.0570   47.1210 C   0  0  0  0  0  0  0  0  0  0  0  0
   59.6530   34.5080   48.4370 C   0  0  0  0  0  0  0  0  0  0  0  0
   58.1760   32.6890   46.8870 S   0  0  0  0  0  0  0  0  0  0  0  0
   58.5990   28.1150   44.2160 C   0  0  0  0  0  0  0  0  0  0  0  0
   59.4960   29.3180   44.5390 C   0  0  0  0  0  0  0  0  0  0  0  0
   63.4303   33.0098   47.9666 H   0  0  0  0  0  0  0  0  0  0  0  0
   63.3208   31.7210   46.7201 H   0  0  0  0  0  0  0  0  0  0  0  0
   62.1385   33.0733   46.7201 H   0  0  0  0  0  0  0  0  0  0  0  0
   61.2214   31.0682   45.6509 H   0  0  0  0  0  0  0  0  0  0  0  0
   59.0690   28.1546   49.0859 H   0  0  0  0  0  0  0  0  0  0  0  0
   60.3449   30.8766   51.9336 H   0  0  0  0  0  0  0  0  0  0  0  0
   60.7963   32.0292   50.6319 H   0  0  0  0  0  0  0  0  0  0  0  0
   59.1700   31.2665   50.6319 H   0  0  0  0  0  0  0  0  0  0  0  0
   58.7090   26.6094   46.5531 H   0  0  0  0  0  0  0  0  0  0  0  0
   57.3917   27.5930   47.3301 H   0  0  0  0  0  0  0  0  0  0  0  0
   55.5028   28.0150   45.1617 H   0  0  0  0  0  0  0  0  0  0  0  0
   56.3922   29.2810   46.1613 H   0  0  0  0  0  0  0  0  0  0  0  0
   57.1115   29.5052   43.3723 H   0  0  0  0  0  0  0  0  0  0  0  0
   55.3200   29.5869   43.5773 H   0  0  0  0  0  0  0  0  0  0  0  0
   58.9883   34.3628   43.8564 H   0  0  0  0  0  0  0  0  0  0  0  0
   59.0852   34.0257   49.2463 H   0  0  0  0  0  0  0  0  0  0  0  0
   60.7145   34.2312   48.5184 H   0  0  0  0  0  0  0  0  0  0  0  0
   59.5516   35.6003   48.5184 H   0  0  0  0  0  0  0  0  0  0  0  0
   59.2346   27.2247   44.1009 H   0  0  0  0  0  0  0  0  0  0  0  0
   58.0520   28.3512   43.2914 H   0  0  0  0  0  0  0  0  0  0  0  0
   60.4301   29.2198   43.9664 H   0  0  0  0  0  0  0  0  0  0  0  0
   58.9339   30.2236   44.2671 H   0  0  0  0  0  0  0  0  0  0  0  0
  1  2  1  0
  2  3  1  0
  3  4  2  0
  4  5  1  0
  5  6  2  0
  6  7  1  0
  7  8  2  0
  8  9  1  0
  9 10  1  0
  6 11  1  0
 11 12  1  0
 12 13  1  0
 13 14  1  0
 14 15  1  0
 15 16  1  0
 16 17  2  0
 16 18  1  0
 18 19  2  0
 19 20  1  0
 20 21  2  0
 21 22  1  0
 21 23  1  0
 12 24  1  0
 24 25  1  0
  8  3  1  0
 23 18  1  0
 25  5  1  0
  1 26  1  0
  1 27  1  0
  1 28  1  0
  4 29  1  0
  7 30  1  0
 10 31  1  0
 10 32  1  0
 10 33  1  0
 11 34  1  0
 11 35  1  0
 13 36  1  0
 13 37  1  0
 14 38  1  0
 14 39  1  0
 19 40  1  0
 22 41  1  0
 22 42  1  0
 22 43  1  0
 24 44  1  0
 24 45  1  0
 25 46  1  0
 25 47  1  0
M  CHG  1  15  -1
M  END
>  <UniqueID>  (92) 
90

>  <SMILES>  (92) 
COc1cc2c(cc1OC)CN(CC[N-]C(=O)c1cnc(C)s1)CC2

>  <Energy>  (92) 
83.8059413779455

>  <Genealogy>  (92) 
COc1cc2c(cc1OC)CN(CC[N-]C(=O)c1cnc(C)s1)CC2 (protonated)
COc1cc2c(cc1OC)CN(CC[N-]C(=O)c1cnc(C)s1)CC2 (3D coordinates assigned)
COc1cc2c(cc1OC)CN(CC[N-]C(=O)c1cnc(C)s1)CC2 (nonaromatic ring conformer: 83.8059413779455 kcal/mol)

>  <smiles>  (92) 
COc1cc2c(cc1OC)CN(CCNC(=O)c1cnc(C)s1)CC2

>  <score_type>  (92) 
oracle

>  <origin>  (92) 
adg

>  <m_score__min__energy>  (92) 
-9.3300000000000001

>  <m_primary>  (92) 
energy

$$$$
92:0
     RDKit          3D

 44 47  0  0  0  0  0  0  0  0999 V2000
   58.0580   27.8440   46.3030 O   0  0  0  0  0  0  0  0  0  0  0  0
   56.9480   27.4820   45.8250 C   0  0  0  0  0  0  0  0  0  0  0  0
   56.1920   28.3830   44.9990 N   0  0  0  0  0  0  0  0  0  0  0  0
   56.7370   29.5780   44.4100 C   0  0  0  0  0  0  0  0  0  0  0  0
   56.5840   29.8510   43.0430 C   0  0  0  0  0  0  0  0  0  0  0  0
   57.0940   31.0280   42.5030 C   0  0  0  0  0  0  0  0  0  0  0  0
   57.7550   31.9510   43.3150 C   0  0  0  0  0  0  0  0  0  0  0  0
   57.9160   31.7180   44.7020 C   0  0  0  0  0  0  0  0  0  0  0  0
   58.5990   32.6860   45.5580 N   0  0  0  0  0  0  0  0  0  0  0  0
   58.9040   32.3270   46.9590 C   0  0  0  0  0  0  0  0  0  0  0  0
   59.6910   33.4030   47.7120 C   0  0  0  0  0  0  0  0  0  0  0  0
   59.2510   34.6910   47.3550 O   0  0  0  0  0  0  0  0  0  0  0  0
   59.6330   34.9370   46.0230 C   0  0  0  0  0  0  0  0  0  0  0  0
   58.8410   34.0550   45.0530 C   0  0  0  0  0  0  0  0  0  0  0  0
   57.3810   30.5180   45.2310 C   0  0  0  0  0  0  0  0  0  0  0  0
   56.4120   26.1410   46.1490 C   0  0  0  0  0  0  0  0  0  0  0  0
   57.1740   25.2130   46.8800 C   0  0  0  0  0  0  0  0  0  0  0  0
   56.6450   23.9520   47.1680 C   0  0  0  0  0  0  0  0  0  0  0  0
   57.3370   23.1260   47.8250 O   0  0  0  0  0  0  0  0  0  0  0  0
   55.3520   23.6190   46.7250 C   0  0  0  0  0  0  0  0  0  0  0  0
   54.7720   22.3630   46.9890 C   0  0  0  0  0  0  0  0  0  0  0  0
   53.4830   22.0750   46.5270 C   0  0  0  0  0  0  0  0  0  0  0  0
   52.7650   23.0300   45.8030 C   0  0  0  0  0  0  0  0  0  0  0  0
   53.3300   24.2800   45.5350 C   0  0  0  0  0  0  0  0  0  0  0  0
   54.6190   24.5800   45.9920 C   0  0  0  0  0  0  0  0  0  0  0  0
   55.1640   25.7970   45.7290 N   0  0  0  0  0  0  0  0  0  0  0  0
   55.1670   28.2150   44.8930 H   0  0  0  0  0  0  0  0  0  0  0  0
   56.0594   29.1328   42.3957 H   0  0  0  0  0  0  0  0  0  0  0  0
   56.9753   31.2323   41.4287 H   0  0  0  0  0  0  0  0  0  0  0  0
   58.1569   32.8734   42.8704 H   0  0  0  0  0  0  0  0  0  0  0  0
   57.9550   32.1563   47.4884 H   0  0  0  0  0  0  0  0  0  0  0  0
   59.5359   31.4271   46.9303 H   0  0  0  0  0  0  0  0  0  0  0  0
   59.5498   33.2614   48.7937 H   0  0  0  0  0  0  0  0  0  0  0  0
   60.7546   33.3096   47.4472 H   0  0  0  0  0  0  0  0  0  0  0  0
   59.4443   35.9940   45.7840 H   0  0  0  0  0  0  0  0  0  0  0  0
   60.7024   34.7028   45.9162 H   0  0  0  0  0  0  0  0  0  0  0  0
   57.8683   34.5327   44.8642 H   0  0  0  0  0  0  0  0  0  0  0  0
   59.4452   33.9588   44.1389 H   0  0  0  0  0  0  0  0  0  0  0  0
   57.4719   30.3178   46.3088 H   0  0  0  0  0  0  0  0  0  0  0  0
   58.1843   25.4788   47.2245 H   0  0  0  0  0  0  0  0  0  0  0  0
   55.3329   21.6077   47.5590 H   0  0  0  0  0  0  0  0  0  0  0  0
   53.0333   21.0929   46.7347 H   0  0  0  0  0  0  0  0  0  0  0  0
   51.7520   22.7975   45.4428 H   0  0  0  0  0  0  0  0  0  0  0  0
   52.7613   25.0290   44.9644 H   0  0  0  0  0  0  0  0  0  0  0  0
  1  2  2  0
  2  3  1  0
  3  4  1  0
  4  5  2  0
  5  6  1  0
  6  7  2  0
  7  8  1  0
  8  9  1  0
  9 10  1  0
 10 11  1  0
 11 12  1  0
 12 13  1  0
 13 14  1  0
  8 15  2  0
  2 16  1  0
 16 17  2  0
 17 18  1  0
 18 19  2  0
 18 20  1  0
 20 21  2  0
 21 22  1  0
 22 23  2  0
 23 24  1  0
 24 25  2  0
 25 26  1  0
 15  4  1  0
 26 16  1  0
 14  9  1  0
 25 20  1  0
  3 27  1  0
  5 28  1  0
  6 29  1  0
  7 30  1  0
 10 31  1  0
 10 32  1  0
 11 33  1  0
 11 34  1  0
 13 35  1  0
 13 36  1  0
 14 37  1  0
 14 38  1  0
 15 39  1  0
 17 40  1  0
 21 41  1  0
 22 42  1  0
 23 43  1  0
 24 44  1  0
M  CHG  1  26  -1
M  END
>  <UniqueID>  (93) 
91

>  <SMILES>  (93) 
O=C(Nc1cccc(N2CCOCC2)c1)c1cc(=O)c2ccccc2[n-]1

>  <Energy>  (93) 
64.03998806685706

>  <Genealogy>  (93) 
O=C(Nc1cccc(N2CCOCC2)c1)c1cc(=O)c2ccccc2[n-]1 (protonated)
O=C(Nc1cccc(N2CCOCC2)c1)c1cc(=O)c2ccccc2[n-]1 (3D coordinates assigned)
O=C(Nc1cccc(N2CCOCC2)c1)c1cc(=O)c2ccccc2[n-]1 (nonaromatic ring conformer: 64.03998806685706 kcal/mol)

>  <smiles>  (93) 
O=C(Nc1cccc(N2CCOCC2)c1)c1cc(=O)c2ccccc2[nH]1

>  <score_type>  (93) 
oracle

>  <origin>  (93) 
adg

>  <m_score__min__energy>  (93) 
-10.84

>  <m_primary>  (93) 
energy

$$$$
93:0
     RDKit          3D

 44 46  0  0  0  0  0  0  0  0999 V2000
   53.8590   24.4770   45.9900 N   0  0  0  0  0  0  0  0  0  0  0  0
   54.4100   23.7370   44.8980 C   0  0  0  0  0  0  0  0  0  0  0  0
   53.6750   23.4570   43.9130 O   0  0  0  0  0  0  0  0  0  0  0  0
   55.8350   23.3350   44.8870 C   0  0  0  0  0  0  0  0  0  0  0  0
   56.2430   22.3160   44.0070 C   0  0  0  0  0  0  0  0  0  0  0  0
   57.5920   21.9700   43.8970 C   0  0  0  0  0  0  0  0  0  0  0  0
   58.5490   22.6380   44.6610 C   0  0  0  0  0  0  0  0  0  0  0  0
   58.1580   23.6360   45.5550 C   0  0  0  0  0  0  0  0  0  0  0  0
   56.8060   23.9710   45.7020 C   0  0  0  0  0  0  0  0  0  0  0  0
   56.4670   24.9300   46.6640 O   0  0  0  0  0  0  0  0  0  0  0  0
   56.2800   26.2850   46.3740 C   0  0  0  0  0  0  0  0  0  0  0  0
   55.1440   26.7170   46.0350 O   0  0  0  0  0  0  0  0  0  0  0  0
   57.4060   27.1670   46.4390 N   0  0  0  0  0  0  0  0  0  0  0  0
   57.5700   28.3990   45.7200 C   0  0  0  0  0  0  0  0  0  0  0  0
   56.5540   28.9340   44.9110 C   0  0  0  0  0  0  0  0  0  0  0  0
   56.7500   30.1460   44.2440 C   0  0  0  0  0  0  0  0  0  0  0  0
   57.9520   30.8500   44.3820 C   0  0  0  0  0  0  0  0  0  0  0  0
   58.0980   32.0590   43.6820 O   0  0  0  0  0  0  0  0  0  0  0  0
   57.6540   33.3370   44.1390 C   0  0  0  0  0  0  0  0  0  0  0  0
   58.3170   33.7000   45.4410 C   0  0  0  0  0  0  0  0  0  0  0  0
   59.3640   34.6380   45.4610 C   0  0  0  0  0  0  0  0  0  0  0  0
   59.9740   34.9850   46.6690 C   0  0  0  0  0  0  0  0  0  0  0  0
   59.5410   34.4060   47.8660 C   0  0  0  0  0  0  0  0  0  0  0  0
   58.4930   33.4830   47.8560 C   0  0  0  0  0  0  0  0  0  0  0  0
   57.8780   33.1330   46.6490 C   0  0  0  0  0  0  0  0  0  0  0  0
   58.9590   30.3280   45.2160 C   0  0  0  0  0  0  0  0  0  0  0  0
   58.7630   29.1160   45.8830 C   0  0  0  0  0  0  0  0  0  0  0  0
   52.8440   24.7160   46.0020 H   0  0  0  0  0  0  0  0  0  0  0  0
   54.4690   24.8440   46.7550 H   0  0  0  0  0  0  0  0  0  0  0  0
   55.4933   21.7871   43.4003 H   0  0  0  0  0  0  0  0  0  0  0  0
   57.8998   21.1702   43.2074 H   0  0  0  0  0  0  0  0  0  0  0  0
   59.6129   22.3780   44.5588 H   0  0  0  0  0  0  0  0  0  0  0  0
   58.9183   24.1640   46.1493 H   0  0  0  0  0  0  0  0  0  0  0  0
   55.6003   28.3967   44.8021 H   0  0  0  0  0  0  0  0  0  0  0  0
   55.9520   30.5509   43.6042 H   0  0  0  0  0  0  0  0  0  0  0  0
   57.9033   34.0966   43.3834 H   0  0  0  0  0  0  0  0  0  0  0  0
   56.5662   33.2962   44.2970 H   0  0  0  0  0  0  0  0  0  0  0  0
   59.7040   35.1002   44.5225 H   0  0  0  0  0  0  0  0  0  0  0  0
   60.7966   35.7152   46.6786 H   0  0  0  0  0  0  0  0  0  0  0  0
   60.0258   34.6775   48.8153 H   0  0  0  0  0  0  0  0  0  0  0  0
   58.1506   33.0305   48.7984 H   0  0  0  0  0  0  0  0  0  0  0  0
   57.0478   32.4113   46.6459 H   0  0  0  0  0  0  0  0  0  0  0  0
   59.9040   30.8766   45.3430 H   0  0  0  0  0  0  0  0  0  0  0  0
   59.5512   28.7216   46.5411 H   0  0  0  0  0  0  0  0  0  0  0  0
  1  2  1  0
  2  3  2  0
  2  4  1  0
  4  5  2  0
  5  6  1  0
  6  7  2  0
  7  8  1  0
  8  9  2  0
  9 10  1  0
 10 11  1  0
 11 12  2  0
 11 13  1  0
 13 14  1  0
 14 15  2  0
 15 16  1  0
 16 17  2  0
 17 18  1  0
 18 19  1  0
 19 20  1  0
 20 21  2  0
 21 22  1  0
 22 23  2  0
 23 24  1  0
 24 25  2  0
 17 26  1  0
 26 27  2  0
  9  4  1  0
 27 14  1  0
 25 20  1  0
  1 28  1  0
  1 29  1  0
  5 30  1  0
  6 31  1  0
  7 32  1  0
  8 33  1  0
 15 34  1  0
 16 35  1  0
 19 36  1  0
 19 37  1  0
 21 38  1  0
 22 39  1  0
 23 40  1  0
 24 41  1  0
 25 42  1  0
 26 43  1  0
 27 44  1  0
M  CHG  1  13  -1
M  END
>  <UniqueID>  (94) 
92

>  <SMILES>  (94) 
NC(=O)c1ccccc1OC(=O)[N-]c1ccc(OCc2ccccc2)cc1

>  <Energy>  (94) 
59.93470902790013

>  <Genealogy>  (94) 
NC(=O)c1ccccc1OC(=O)[N-]c1ccc(OCc2ccccc2)cc1 (protonated)
NC(=O)c1ccccc1OC(=O)[N-]c1ccc(OCc2ccccc2)cc1 (3D coordinates assigned)
NC(=O)c1ccccc1OC(=O)[N-]c1ccc(OCc2ccccc2)cc1 (optimized conformer: 59.93470902790013 kcal/mol)

>  <smiles>  (94) 
NC(=O)c1ccccc1OC(=O)Nc1ccc(OCc2ccccc2)cc1

>  <score_type>  (94) 
oracle

>  <origin>  (94) 
adg

>  <m_score__min__energy>  (94) 
-10.800000000000001

>  <m_primary>  (94) 
energy

$$$$
