0:0
     RDKit          3D

 56 59  0  0  1  0  0  0  0  0999 V2000
   59.5210   22.3000   45.2500 C   0  0  0  0  0  0  0  0  0  0  0  0
   58.1190   21.9020   45.4500 N   0  0  0  0  0  0  0  0  0  0  0  0
   57.5140   21.6180   44.1940 C   0  0  0  0  0  0  0  0  0  0  0  0
   56.2470   20.8310   44.2280 C   0  0  0  0  0  0  0  0  0  0  0  0
   55.3490   21.0850   45.3650 C   0  0  0  0  0  0  0  0  0  0  0  0
   55.9710   21.4510   46.6110 N   0  0  0  0  0  0  0  0  0  0  0  0
   55.5230   22.6170   47.2970 C   0  0  0  0  0  0  0  0  0  0  0  0
   54.6130   22.5640   48.1930 O   0  0  0  0  0  0  0  0  0  0  0  0
   56.0610   23.9480   47.0360 C   0  0  0  0  0  0  0  0  0  0  0  0
   55.4510   24.7040   46.0630 C   0  0  0  0  0  0  0  0  0  0  0  0
   55.8750   25.9690   45.7370 C   0  0  0  0  0  0  0  0  0  0  0  0
   56.9530   26.5110   46.4040 C   0  0  0  0  0  0  0  0  0  0  0  0
   57.3730   27.8780   46.0160 C   0  0  0  0  0  0  0  0  0  0  0  0
   56.3450   28.6150   45.3170 N   0  0  0  0  0  0  0  0  0  0  0  0
   56.7250   29.6650   44.6740 C   0  0  0  0  0  0  0  0  0  0  0  0
   57.2770   30.7000   45.3160 N   0  0  0  0  0  0  0  0  0  0  0  0
   57.6920   31.8280   44.6700 C   0  0  0  0  0  0  0  0  0  0  0  0
   58.2920   32.9480   45.3800 C   0  0  0  0  0  0  0  0  0  0  0  0
   58.4680   33.0140   46.7250 C   0  0  0  0  0  0  0  0  0  0  0  0
   59.0480   34.1230   47.3110 C   0  0  0  0  0  0  0  0  0  0  0  0
   59.4480   35.1640   46.5080 C   0  0  0  0  0  0  0  0  0  0  0  0
   59.2820   35.1110   45.1890 N   0  0  0  0  0  0  0  0  0  0  0  0
   58.7160   34.0300   44.6230 C   0  0  0  0  0  0  0  0  0  0  0  0
   57.5040   31.8320   43.3050 C   0  0  0  0  0  0  0  0  0  0  0  0
   56.9310   30.7530   42.6500 C   0  0  0  0  0  0  0  0  0  0  0  0
   56.5440   29.6720   43.3380 N   0  0  0  0  0  0  0  0  0  0  0  0
   57.5750   25.7680   47.3810 C   0  0  0  0  0  0  0  0  0  0  0  0
   57.1330   24.4830   47.7020 C   0  0  0  0  0  0  0  0  0  0  0  0
   57.7360   23.7400   48.6610 F   0  0  0  0  0  0  0  0  0  0  0  0
   57.0410   20.7540   47.2880 C   0  0  0  0  0  0  0  0  0  0  0  0
   58.2030   20.7160   46.3120 C   0  0  0  0  0  0  0  0  0  0  0  0
   60.0061   22.4377   46.2276 H   0  0  0  0  0  0  0  0  0  0  0  0
   60.0479   21.5159   44.6864 H   0  0  0  0  0  0  0  0  0  0  0  0
   59.5574   23.2440   44.6864 H   0  0  0  0  0  0  0  0  0  0  0  0
   57.2979   22.5781   43.7025 H   0  0  0  0  0  0  0  0  0  0  0  0
   58.2365   20.9835   43.6598 H   0  0  0  0  0  0  0  0  0  0  0  0
   55.6902   21.0533   43.3058 H   0  0  0  0  0  0  0  0  0  0  0  0
   56.5582   19.7810   44.3307 H   0  0  0  0  0  0  0  0  0  0  0  0
   54.6710   21.9023   45.0782 H   0  0  0  0  0  0  0  0  0  0  0  0
   54.8521   20.1235   45.5614 H   0  0  0  0  0  0  0  0  0  0  0  0
   54.5905   24.2795   45.5251 H   0  0  0  0  0  0  0  0  0  0  0  0
   55.3603   26.5432   44.9526 H   0  0  0  0  0  0  0  0  0  0  0  0
   57.6418   28.4325   46.9272 H   0  0  0  0  0  0  0  0  0  0  0  0
   58.2247   27.7741   45.3276 H   0  0  0  0  0  0  0  0  0  0  0  0
   58.1445   32.1734   47.3564 H   0  0  0  0  0  0  0  0  0  0  0  0
   59.1871   34.1716   48.4011 H   0  0  0  0  0  0  0  0  0  0  0  0
   59.9114   36.0525   46.9616 H   0  0  0  0  0  0  0  0  0  0  0  0
   58.5860   34.0034   43.5310 H   0  0  0  0  0  0  0  0  0  0  0  0
   57.8156   32.7112   42.7219 H   0  0  0  0  0  0  0  0  0  0  0  0
   56.7936   30.7853   41.5591 H   0  0  0  0  0  0  0  0  0  0  0  0
   56.1100   28.8650   42.8190 H   0  0  0  0  0  0  0  0  0  0  0  0
   58.4352   26.1937   47.9184 H   0  0  0  0  0  0  0  0  0  0  0  0
   57.3285   21.2926   48.2030 H   0  0  0  0  0  0  0  0  0  0  0  0
   56.7344   19.7408   47.5871 H   0  0  0  0  0  0  0  0  0  0  0  0
   59.1539   20.7245   46.8650 H   0  0  0  0  0  0  0  0  0  0  0  0
   58.1576   19.8008   45.7035 H   0  0  0  0  0  0  0  0  0  0  0  0
  1  2  1  0
  2  3  1  0
  3  4  1  0
  4  5  1  0
  5  6  1  0
  6  7  1  0
  7  8  2  0
  7  9  1  0
  9 10  2  0
 10 11  1  0
 11 12  2  0
 12 13  1  0
 13 14  1  0
 14 15  2  0
 15 16  1  0
 16 17  2  0
 17 18  1  0
 18 19  2  0
 19 20  1  0
 20 21  2  0
 21 22  1  0
 22 23  2  0
 17 24  1  0
 24 25  2  0
 25 26  1  0
 12 27  1  0
 27 28  2  0
 28 29  1  0
  6 30  1  0
 30 31  1  0
 31  2  1  0
 28  9  1  0
 26 15  1  0
 23 18  1  0
  1 32  1  0
  1 33  1  0
  1 34  1  0
  3 35  1  0
  3 36  1  0
  4 37  1  0
  4 38  1  0
  5 39  1  0
  5 40  1  0
 10 41  1  0
 11 42  1  0
 13 43  1  0
 13 44  1  0
 19 45  1  0
 20 46  1  0
 21 47  1  0
 23 48  1  0
 24 49  1  0
 25 50  1  0
 26 51  1  0
 27 52  1  0
 30 53  1  0
 30 54  1  0
 31 55  1  0
 31 56  1  0
M  END
>  <smiles>  (1) 
CN1CCCN(C(=O)c2ccc(CN=c3nc(-c4cccnc4)cc[nH]3)cc2F)CC1

>  <score_type>  (1) 
oracle

>  <origin>  (1) 
adg

>  <m_score__min__energy>  (1) 
-7

>  <m_primary>  (1) 
energy

$$$$
1:0
     RDKit          3D

 54 58  0  0  0  0  0  0  0  0999 V2000
   57.2460   26.1100   47.0210 C   0  0  0  0  0  0  0  0  0  0  0  0
   57.6360   27.2070   46.1380 N   0  0  0  0  0  0  0  0  0  0  0  0
   56.7380   27.9070   45.4600 N   0  0  0  0  0  0  0  0  0  0  0  0
   57.3850   28.9010   44.8230 C   0  0  0  0  0  0  0  0  0  0  0  0
   56.5980   30.0810   43.7960 S   0  0  0  0  0  0  0  0  0  0  0  0
   57.7800   31.3080   43.2840 C   0  0  0  0  0  0  0  0  0  0  0  0
   56.0370   29.3930   42.5830 O   0  0  0  0  0  0  0  0  0  0  0  0
   55.4770   30.7360   44.5510 O   0  0  0  0  0  0  0  0  0  0  0  0
   58.7360   28.8510   45.0980 C   0  0  0  0  0  0  0  0  0  0  0  0
   58.8630   27.7520   45.9190 C   0  0  0  0  0  0  0  0  0  0  0  0
   60.0040   27.3660   46.4180 N   0  0  0  0  0  0  0  0  0  0  0  0
   60.4150   27.3480   47.7900 C   0  0  0  0  0  0  0  0  0  0  0  0
   61.0890   26.3770   48.2270 O   0  0  0  0  0  0  0  0  0  0  0  0
   60.1460   28.5150   48.6640 C   0  0  0  0  0  0  0  0  0  0  0  0
   60.0270   28.3550   50.0540 C   0  0  0  0  0  0  0  0  0  0  0  0
   59.7750   29.4560   50.8750 C   0  0  0  0  0  0  0  0  0  0  0  0
   59.6420   30.7400   50.3300 C   0  0  0  0  0  0  0  0  0  0  0  0
   59.3330   31.8370   51.2010 N   0  0  0  0  0  0  0  0  0  0  0  0
   60.0240   32.8190   52.0600 C   0  0  0  0  0  0  0  0  0  0  0  0
   58.8020   33.5830   52.4480 C   0  0  0  0  0  0  0  0  0  0  0  0
   58.1160   32.5790   51.5840 C   0  0  0  0  0  0  0  0  0  0  0  0
   59.7740   30.9130   48.9360 C   0  0  0  0  0  0  0  0  0  0  0  0
   59.6730   32.2060   48.3340 N   0  0  0  0  0  0  0  0  0  0  0  0
   60.1260   33.3680   48.8400 C   0  0  0  0  0  0  0  0  0  0  0  0
   59.8080   34.4240   48.0610 N   0  0  0  0  0  0  0  0  0  0  0  0
   59.1130   33.8880   47.0350 C   0  0  0  0  0  0  0  0  0  0  0  0
   58.5630   34.7220   45.9070 C   0  0  0  0  0  0  0  0  0  0  0  0
   57.3970   34.1290   45.1310 C   0  0  0  0  0  0  0  0  0  0  0  0
   58.7850   34.1690   44.5060 C   0  0  0  0  0  0  0  0  0  0  0  0
   59.0160   32.5180   47.2080 C   0  0  0  0  0  0  0  0  0  0  0  0
   60.0180   29.8020   48.1150 C   0  0  0  0  0  0  0  0  0  0  0  0
   57.3581   26.4252   48.0689 H   0  0  0  0  0  0  0  0  0  0  0  0
   56.1969   25.8403   46.8294 H   0  0  0  0  0  0  0  0  0  0  0  0
   57.8894   25.2386   46.8294 H   0  0  0  0  0  0  0  0  0  0  0  0
   58.2307   31.7759   44.1717 H   0  0  0  0  0  0  0  0  0  0  0  0
   58.5669   30.8303   42.6819 H   0  0  0  0  0  0  0  0  0  0  0  0
   57.2732   32.0765   42.6819 H   0  0  0  0  0  0  0  0  0  0  0  0
   59.5264   29.5295   44.7446 H   0  0  0  0  0  0  0  0  0  0  0  0
   60.1331   27.3548   50.4994 H   0  0  0  0  0  0  0  0  0  0  0  0
   59.6798   29.3138   51.9616 H   0  0  0  0  0  0  0  0  0  0  0  0
   60.5232   32.3516   52.9216 H   0  0  0  0  0  0  0  0  0  0  0  0
   60.8465   33.3899   51.6044 H   0  0  0  0  0  0  0  0  0  0  0  0
   58.5397   33.5490   53.5157 H   0  0  0  0  0  0  0  0  0  0  0  0
   58.6942   34.6714   52.3303 H   0  0  0  0  0  0  0  0  0  0  0  0
   57.3995   31.9586   52.1422 H   0  0  0  0  0  0  0  0  0  0  0  0
   57.4907   32.9679   50.7669 H   0  0  0  0  0  0  0  0  0  0  0  0
   60.6907   33.4482   49.7806 H   0  0  0  0  0  0  0  0  0  0  0  0
   58.7511   35.6828   46.4084 H   0  0  0  0  0  0  0  0  0  0  0  0
   56.9614   33.1680   45.4420 H   0  0  0  0  0  0  0  0  0  0  0  0
   56.3996   34.4849   44.8335 H   0  0  0  0  0  0  0  0  0  0  0  0
   59.3524   33.2371   44.3658 H   0  0  0  0  0  0  0  0  0  0  0  0
   59.2061   34.5657   43.5704 H   0  0  0  0  0  0  0  0  0  0  0  0
   58.4948   31.8138   46.5428 H   0  0  0  0  0  0  0  0  0  0  0  0
   60.1103   29.9402   47.0276 H   0  0  0  0  0  0  0  0  0  0  0  0
  1  2  1  0
  2  3  1  0
  3  4  1  0
  4  5  1  0
  5  6  1  0
  5  7  2  0
  5  8  2  0
  4  9  2  0
  9 10  1  0
 10 11  2  3
 11 12  1  0
 12 13  2  0
 12 14  1  0
 14 15  2  0
 15 16  1  0
 16 17  2  0
 17 18  1  0
 18 19  1  0
 19 20  1  0
 20 21  1  0
 17 22  1  0
 22 23  1  0
 23 24  1  0
 24 25  2  0
 25 26  1  0
 26 27  1  0
 27 28  1  0
 28 29  1  0
 26 30  2  0
 22 31  2  0
 10  2  1  0
 31 14  1  0
 21 18  1  0
 30 23  1  0
 29 27  1  0
  1 32  1  0
  1 33  1  0
  1 34  1  0
  6 35  1  0
  6 36  1  0
  6 37  1  0
  9 38  1  0
 15 39  1  0
 16 40  1  0
 19 41  1  0
 19 42  1  0
 20 43  1  0
 20 44  1  0
 21 45  1  0
 21 46  1  0
 24 47  1  0
 27 48  1  0
 28 49  1  0
 28 50  1  0
 29 51  1  0
 29 52  1  0
 30 53  1  0
 31 54  1  0
M  CHG  1   3  -1
M  END
>  <UniqueID>  (2) 
1

>  <SMILES>  (2) 
Cn1[n-]c(S(C)(=O)=O)cc1=NC(=O)c1ccc(N2CCC2)c(-n2cnc(C3CC3)c2)c1

>  <Energy>  (2) 
442.73796132224567

>  <Genealogy>  (2) 
Cn1[n-]c(S(C)(=O)=O)cc1=NC(=O)c1ccc(N2CCC2)c(-n2cnc(C3CC3)c2)c1 (protonated)
Cn1[n-]c(S(C)(=O)=O)cc1=NC(=O)c1ccc(N2CCC2)c(-n2cnc(C3CC3)c2)c1 (3D coordinates assigned)
Cn1[n-]c(S(C)(=O)=O)cc1=NC(=O)c1ccc(N2CCC2)c(-n2cnc(C3CC3)c2)c1 (nonaromatic ring conformer: 442.73796132224567 kcal/mol)

>  <smiles>  (2) 
Cn1[nH]c(S(C)(=O)=O)cc1=NC(=O)c1ccc(N2CCC2)c(-n2cnc(C3CC3)c2)c1

>  <score_type>  (2) 
oracle

>  <origin>  (2) 
adg

>  <m_score__min__energy>  (2) 
-10.26

>  <m_primary>  (2) 
energy

$$$$
2:0
     RDKit          3D

 69 72  0  0  0  0  0  0  0  0999 V2000
   61.5050   28.0880   52.1200 O   0  0  0  0  0  0  0  0  0  0  0  0
   61.5780   29.1100   51.3850 C   0  0  0  0  0  0  0  0  0  0  0  0
   62.5110   30.2270   51.7360 C   0  0  0  0  0  0  0  0  0  0  0  0
   63.6910   30.1820   50.8680 N   0  0  0  0  0  0  0  0  0  0  0  0
   64.2730   31.7870   50.5560 S   0  0  0  0  0  0  0  0  0  0  0  0
   65.7060   31.7040   50.1050 O   0  0  0  0  0  0  0  0  0  0  0  0
   64.2050   32.5890   51.8240 O   0  0  0  0  0  0  0  0  0  0  0  0
   63.3010   32.5830   49.3220 C   0  0  0  0  0  0  0  0  0  0  0  0
   62.2650   33.4510   49.6970 C   0  0  0  0  0  0  0  0  0  0  0  0
   61.5000   34.0980   48.7200 C   0  0  0  0  0  0  0  0  0  0  0  0
   61.7730   33.9080   47.3620 C   0  0  0  0  0  0  0  0  0  0  0  0
   60.9680   34.5600   46.4110 O   0  0  0  0  0  0  0  0  0  0  0  0
   59.6390   34.2080   46.1490 C   0  0  0  0  0  0  0  0  0  0  0  0
   58.7920   33.8720   47.2180 C   0  0  0  0  0  0  0  0  0  0  0  0
   57.4820   33.4420   46.9760 C   0  0  0  0  0  0  0  0  0  0  0  0
   57.0100   33.3670   45.6640 C   0  0  0  0  0  0  0  0  0  0  0  0
   57.8360   33.7470   44.5960 C   0  0  0  0  0  0  0  0  0  0  0  0
   59.1490   34.1650   44.8340 C   0  0  0  0  0  0  0  0  0  0  0  0
   62.8030   33.0170   46.9860 C   0  0  0  0  0  0  0  0  0  0  0  0
   63.5620   32.3630   47.9590 C   0  0  0  0  0  0  0  0  0  0  0  0
   60.7480   29.2260   50.2240 N   0  0  0  0  0  0  0  0  0  0  0  0
   60.5140   30.4940   49.5310 C   0  0  1  0  0  0  0  0  0  0  0  0
   60.8390   30.3530   48.0360 C   0  0  0  0  0  0  0  0  0  0  0  0
   59.6800   29.7490   47.2810 C   0  0  0  0  0  0  0  0  0  0  0  0
   58.9510   30.5140   46.3520 C   0  0  0  0  0  0  0  0  0  0  0  0
   57.8470   29.9580   45.6900 C   0  0  0  0  0  0  0  0  0  0  0  0
   57.4520   28.6420   45.9610 C   0  0  0  0  0  0  0  0  0  0  0  0
   56.3470   28.1010   45.3030 O   0  0  0  0  0  0  0  0  0  0  0  0
   58.1700   27.8820   46.8950 C   0  0  0  0  0  0  0  0  0  0  0  0
   59.2750   28.4310   47.5520 C   0  0  0  0  0  0  0  0  0  0  0  0
   59.0840   30.9220   49.7090 C   0  0  0  0  0  0  0  0  0  0  0  0
   58.1590   30.0600   49.6990 O   0  0  0  0  0  0  0  0  0  0  0  0
   58.7700   32.3120   49.8410 N   0  0  0  0  0  0  0  0  0  0  0  0
   59.2950   33.1430   50.9170 C   0  0  0  0  0  0  0  0  0  0  0  0
   58.1890   33.4340   51.9370 C   0  0  0  0  0  0  0  0  0  0  0  0
   58.2960   32.5490   53.1850 C   0  0  0  0  0  0  0  0  0  0  0  0
   57.8810   31.1760   52.9040 N   0  0  0  0  0  0  0  0  0  0  0  0
   58.5600   30.0530   53.1940 C   0  0  0  0  0  0  0  0  0  0  0  0
   57.8060   28.9820   52.7650 C   0  0  0  0  0  0  0  0  0  0  0  0
   56.6580   29.4310   52.2110 N   0  0  0  0  0  0  0  0  0  0  0  0
   56.7390   30.7750   52.3120 C   0  0  0  0  0  0  0  0  0  0  0  0
   61.9953   31.1892   51.6010 H   0  0  0  0  0  0  0  0  0  0  0  0
   62.8276   30.1189   52.7839 H   0  0  0  0  0  0  0  0  0  0  0  0
   62.0532   33.6237   50.7625 H   0  0  0  0  0  0  0  0  0  0  0  0
   60.6768   34.7617   49.0231 H   0  0  0  0  0  0  0  0  0  0  0  0
   59.1604   33.9472   48.2517 H   0  0  0  0  0  0  0  0  0  0  0  0
   56.8275   33.1645   47.8154 H   0  0  0  0  0  0  0  0  0  0  0  0
   55.9885   33.0092   45.4677 H   0  0  0  0  0  0  0  0  0  0  0  0
   57.4492   33.7161   43.5667 H   0  0  0  0  0  0  0  0  0  0  0  0
   59.7956   34.4590   43.9941 H   0  0  0  0  0  0  0  0  0  0  0  0
   63.0084   32.8373   45.9204 H   0  0  0  0  0  0  0  0  0  0  0  0
   64.3654   31.6746   47.6578 H   0  0  0  0  0  0  0  0  0  0  0  0
   61.1737   31.2600   49.9647 H   0  0  0  0  0  0  0  0  0  0  0  0
   61.0584   31.3478   47.6210 H   0  0  0  0  0  0  0  0  0  0  0  0
   61.7089   29.6883   47.9294 H   0  0  0  0  0  0  0  0  0  0  0  0
   59.2483   31.5525   46.1442 H   0  0  0  0  0  0  0  0  0  0  0  0
   57.2893   30.5575   44.9554 H   0  0  0  0  0  0  0  0  0  0  0  0
   56.4270   27.6670   44.3900 H   0  0  0  0  0  0  0  0  0  0  0  0
   57.8623   26.8484   47.1119 H   0  0  0  0  0  0  0  0  0  0  0  0
   59.8306   27.8279   48.2852 H   0  0  0  0  0  0  0  0  0  0  0  0
   60.1215   32.6154   51.4155 H   0  0  0  0  0  0  0  0  0  0  0  0
   59.6598   34.0920   50.4971 H   0  0  0  0  0  0  0  0  0  0  0  0
   58.2603   34.4878   52.2442 H   0  0  0  0  0  0  0  0  0  0  0  0
   57.2238   33.2186   51.4553 H   0  0  0  0  0  0  0  0  0  0  0  0
   59.3402   32.5433   53.5309 H   0  0  0  0  0  0  0  0  0  0  0  0
   57.6301   32.9599   53.9582 H   0  0  0  0  0  0  0  0  0  0  0  0
   59.5423   29.9984   53.6860 H   0  0  0  0  0  0  0  0  0  0  0  0
   58.0942   27.9246   52.8590 H   0  0  0  0  0  0  0  0  0  0  0  0
   55.9610   31.4643   51.9519 H   0  0  0  0  0  0  0  0  0  0  0  0
  1  2  2  0
  2  3  1  0
  3  4  1  0
  4  5  1  0
  5  6  2  0
  5  7  2  0
  5  8  1  0
  8  9  2  0
  9 10  1  0
 10 11  2  0
 11 12  1  0
 12 13  1  0
 13 14  2  0
 14 15  1  0
 15 16  2  0
 16 17  1  0
 17 18  2  0
 11 19  1  0
 19 20  2  0
  2 21  1  0
 21 22  1  0
 22 23  1  0
 23 24  1  0
 24 25  2  0
 25 26  1  0
 26 27  2  0
 27 28  1  0
 27 29  1  0
 29 30  2  0
 22 31  1  0
 31 32  2  0
 31 33  1  0
 33 34  1  0
 34 35  1  0
 35 36  1  0
 36 37  1  0
 37 38  1  0
 38 39  2  0
 39 40  1  0
 40 41  2  0
 20  8  1  0
 30 24  1  0
 41 37  1  0
 18 13  1  0
  3 42  1  0
  3 43  1  0
  9 44  1  0
 10 45  1  0
 14 46  1  0
 15 47  1  0
 16 48  1  0
 17 49  1  0
 18 50  1  0
 19 51  1  0
 20 52  1  0
 22 53  1  1
 23 54  1  0
 23 55  1  0
 25 56  1  0
 26 57  1  0
 28 58  1  0
 29 59  1  0
 30 60  1  0
 34 61  1  0
 34 62  1  0
 35 63  1  0
 35 64  1  0
 36 65  1  0
 36 66  1  0
 38 67  1  0
 39 68  1  0
 41 69  1  0
M  CHG  3   4  -1  21  -1  33  -1
M  END
>  <UniqueID>  (3) 
2

>  <SMILES>  (3) 
O=C(C[N-]S(=O)(=O)c1ccc(Oc2ccccc2)cc1)[N-][C@@H](Cc1ccc(O)cc1)C(=O)[N-]CCCn1ccnc1

>  <Energy>  (3) 
97.63477277030714

>  <Genealogy>  (3) 
O=C(C[N-]S(=O)(=O)c1ccc(Oc2ccccc2)cc1)[N-]C(Cc1ccc(O)cc1)C(=O)[N-]CCCn1ccnc1 (protonated)
O=C(C[N-]S(=O)(=O)c1ccc(Oc2ccccc2)cc1)[N-][C@@H](Cc1ccc(O)cc1)C(=O)[N-]CCCn1ccnc1 (chirality)
O=C(C[N-]S(=O)(=O)c1ccc(Oc2ccccc2)cc1)[N-][C@@H](Cc1ccc(O)cc1)C(=O)[N-]CCCn1ccnc1 (3D coordinates assigned)
O=C(C[N-]S(=O)(=O)c1ccc(Oc2ccccc2)cc1)[N-][C@@H](Cc1ccc(O)cc1)C(=O)[N-]CCCn1ccnc1 (optimized conformer: 97.63477277030714 kcal/mol)

>  <smiles>  (3) 
O=C(CNS(=O)(=O)c1ccc(Oc2ccccc2)cc1)NC(Cc1ccc(O)cc1)C(=O)NCCCn1ccnc1

>  <score_type>  (3) 
oracle

>  <origin>  (3) 
adg

>  <m_score__min__energy>  (3) 
-15.789999999999999

>  <m_primary>  (3) 
energy

$$$$
3:0
     RDKit          3D

 54 56  0  0  0  0  0  0  0  0999 V2000
   63.6400   33.1280   47.0950 C   0  0  0  0  0  0  0  0  0  0  0  0
   62.9760   31.8270   47.5370 C   0  0  0  0  0  0  0  0  0  0  0  0
   61.6750   32.0990   48.2980 C   0  0  0  0  0  0  0  0  0  0  0  0
   61.1110   30.8470   48.8100 N   0  0  0  0  0  0  0  0  0  0  0  0
   61.2760   30.3790   50.0680 C   0  0  0  0  0  0  0  0  0  0  0  0
   60.8460   29.1080   50.1980 N   0  0  0  0  0  0  0  0  0  0  0  0
   60.4030   28.7480   48.9780 C   0  0  0  0  0  0  0  0  0  0  0  0
   59.9130   27.3760   48.6260 C   0  0  0  0  0  0  0  0  0  0  0  0
   60.7760   26.7620   47.5240 C   0  0  0  0  0  0  0  0  0  0  0  0
   60.1120   26.9030   46.2310 N   0  0  0  0  0  0  0  0  0  0  0  0
   60.5600   29.8200   48.1230 C   0  0  0  0  0  0  0  0  0  0  0  0
   60.3560   29.7750   46.7040 N   0  0  0  0  0  0  0  0  0  0  0  0
   59.3680   30.6060   46.0180 C   0  0  0  0  0  0  0  0  0  0  0  0
   58.1270   29.8040   45.7220 C   0  0  0  0  0  0  0  0  0  0  0  0
   58.0590   28.5150   46.1530 N   0  0  0  0  0  0  0  0  0  0  0  0
   56.9630   27.7480   45.9260 C   0  0  0  0  0  0  0  0  0  0  0  0
   56.9280   26.5610   46.3440 O   0  0  0  0  0  0  0  0  0  0  0  0
   55.9080   28.2570   45.2420 N   0  0  0  0  0  0  0  0  0  0  0  0
   55.9260   29.5310   44.7750 C   0  0  0  0  0  0  0  0  0  0  0  0
   54.9460   29.9560   44.1080 O   0  0  0  0  0  0  0  0  0  0  0  0
   57.0430   30.3500   45.0090 C   0  0  0  0  0  0  0  0  0  0  0  0
   57.1100   31.6620   44.5180 O   0  0  0  0  0  0  0  0  0  0  0  0
   56.6420   32.7970   45.2430 C   0  0  0  0  0  0  0  0  0  0  0  0
   57.8080   33.5670   45.8030 C   0  0  0  0  0  0  0  0  0  0  0  0
   58.5500   34.4220   44.9720 C   0  0  0  0  0  0  0  0  0  0  0  0
   59.6270   35.1470   45.4910 C   0  0  0  0  0  0  0  0  0  0  0  0
   59.9660   35.0280   46.8410 C   0  0  0  0  0  0  0  0  0  0  0  0
   59.2150   34.2030   47.6800 C   0  0  0  0  0  0  0  0  0  0  0  0
   58.1320   33.4790   47.1690 C   0  0  0  0  0  0  0  0  0  0  0  0
   57.4020   32.6970   48.0050 F   0  0  0  0  0  0  0  0  0  0  0  0
   63.9361   33.7081   47.9814 H   0  0  0  0  0  0  0  0  0  0  0  0
   64.5312   32.8985   46.4925 H   0  0  0  0  0  0  0  0  0  0  0  0
   62.9313   33.7151   46.4925 H   0  0  0  0  0  0  0  0  0  0  0  0
   62.7513   31.2190   46.6482 H   0  0  0  0  0  0  0  0  0  0  0  0
   63.6664   31.2942   48.2074 H   0  0  0  0  0  0  0  0  0  0  0  0
   61.8827   32.7744   49.1410 H   0  0  0  0  0  0  0  0  0  0  0  0
   60.9506   32.5623   47.6119 H   0  0  0  0  0  0  0  0  0  0  0  0
   61.7106   30.9671   50.8897 H   0  0  0  0  0  0  0  0  0  0  0  0
   60.8900   28.5140   51.0550 H   0  0  0  0  0  0  0  0  0  0  0  0
   59.9583   26.7358   49.5194 H   0  0  0  0  0  0  0  0  0  0  0  0
   58.8771   27.4518   48.2639 H   0  0  0  0  0  0  0  0  0  0  0  0
   61.7473   27.2774   47.4926 H   0  0  0  0  0  0  0  0  0  0  0  0
   60.9267   25.6934   47.7373 H   0  0  0  0  0  0  0  0  0  0  0  0
   59.1060   26.6470   46.3600 H   0  0  0  0  0  0  0  0  0  0  0  0
   60.1290   27.9150   45.9630 H   0  0  0  0  0  0  0  0  0  0  0  0
   60.8980   29.0720   46.1540 H   0  0  0  0  0  0  0  0  0  0  0  0
   59.1041   31.4601   46.6589 H   0  0  0  0  0  0  0  0  0  0  0  0
   59.7972   30.9649   45.0709 H   0  0  0  0  0  0  0  0  0  0  0  0
   56.0659   33.4477   44.5687 H   0  0  0  0  0  0  0  0  0  0  0  0
   56.0022   32.4578   46.0710 H   0  0  0  0  0  0  0  0  0  0  0  0
   58.2831   34.5216   43.9095 H   0  0  0  0  0  0  0  0  0  0  0  0
   60.2082   35.8121   44.8354 H   0  0  0  0  0  0  0  0  0  0  0  0
   60.8253   35.5848   47.2431 H   0  0  0  0  0  0  0  0  0  0  0  0
   59.4752   34.1218   48.7457 H   0  0  0  0  0  0  0  0  0  0  0  0
  1  2  1  0
  2  3  1  0
  3  4  1  0
  4  5  1  0
  5  6  2  0
  6  7  1  0
  7  8  1  0
  8  9  1  0
  9 10  1  0
  7 11  2  0
 11 12  1  0
 12 13  1  0
 13 14  1  0
 14 15  1  0
 15 16  1  0
 16 17  2  0
 16 18  1  0
 18 19  1  0
 19 20  2  0
 19 21  1  0
 21 22  1  0
 22 23  1  0
 23 24  1  0
 24 25  2  0
 25 26  1  0
 26 27  2  0
 27 28  1  0
 28 29  2  0
 29 30  1  0
 11  4  1  0
 21 14  2  0
 29 24  1  0
  1 31  1  0
  1 32  1  0
  1 33  1  0
  2 34  1  0
  2 35  1  0
  3 36  1  0
  3 37  1  0
  5 38  1  0
  6 39  1  0
  8 40  1  0
  8 41  1  0
  9 42  1  0
  9 43  1  0
 10 44  1  0
 10 45  1  0
 12 46  1  0
 13 47  1  0
 13 48  1  0
 23 49  1  0
 23 50  1  0
 25 51  1  0
 26 52  1  0
 27 53  1  0
 28 54  1  0
M  CHG  3   6   1  15  -1  18  -1
M  END
>  <UniqueID>  (4) 
3

>  <SMILES>  (4) 
CCCn1c[nH+]c(CCN)c1NCc1[n-]c(=O)[n-]c(=O)c1OCc1ccccc1F

>  <Energy>  (4) 
81.58055253776439

>  <Genealogy>  (4) 
CCCn1c[nH+]c(CCN)c1NCc1[n-]c(=O)[n-]c(=O)c1OCc1ccccc1F (protonated)
CCCn1c[nH+]c(CCN)c1NCc1[n-]c(=O)[n-]c(=O)c1OCc1ccccc1F (3D coordinates assigned)
CCCn1c[nH+]c(CCN)c1NCc1[n-]c(=O)[n-]c(=O)c1OCc1ccccc1F (optimized conformer: 81.58055253776439 kcal/mol)

>  <smiles>  (4) 
CCCn1cnc(CCN)c1NCc1[nH]c(=O)[nH]c(=O)c1OCc1ccccc1F

>  <score_type>  (4) 
oracle

>  <origin>  (4) 
adg

>  <m_score__min__energy>  (4) 
-9.8399999999999999

>  <m_primary>  (4) 
energy

$$$$
4:0
     RDKit          3D

 54 57  0  0  0  0  0  0  0  0999 V2000
   60.2463   34.2913   50.0927 H   0  0  0  0  0  0  0  0  0  0  0  0
   60.5600   34.2170   49.0410 C   0  0  0  0  0  0  0  0  0  0  0  0
   59.7510   34.6880   48.0550 N   0  0  0  0  0  0  0  0  0  0  0  0
   60.1040   34.6250   46.7380 C   0  0  0  0  0  0  0  0  0  0  0  0
   59.3120   35.0670   45.8050 N   0  0  0  0  0  0  0  0  0  0  0  0
   58.2430   34.3300   45.1860 C   0  0  0  0  0  0  0  0  0  0  0  0
   57.2420   34.9670   44.7640 O   0  0  0  0  0  0  0  0  0  0  0  0
   58.2560   32.8510   45.0890 C   0  0  0  0  0  0  0  0  0  0  0  0
   58.1440   32.2100   43.8440 C   0  0  0  0  0  0  0  0  0  0  0  0
   58.0359   32.8100   42.9284 H   0  0  0  0  0  0  0  0  0  0  0  0
   58.1690   30.8160   43.7610 C   0  0  0  0  0  0  0  0  0  0  0  0
   58.0655   30.3271   42.7811 H   0  0  0  0  0  0  0  0  0  0  0  0
   58.3250   30.0320   44.9160 C   0  0  0  0  0  0  0  0  0  0  0  0
   58.3450   28.5530   44.8140 C   0  0  0  0  0  0  0  0  0  0  0  0
   58.7820   28.0120   43.7610 O   0  0  0  0  0  0  0  0  0  0  0  0
   57.8920   27.7290   45.9020 N   0  0  0  0  0  0  0  0  0  0  0  0
   57.8180   28.1550   46.8530 H   0  0  0  0  0  0  0  0  0  0  0  0
   57.8060   26.2690   45.7960 C   0  0  2  0  0  0  0  0  0  0  0  0
   58.7937   25.8328   46.0061 H   0  0  0  0  0  0  0  0  0  0  0  0
   57.3980   25.8590   44.3610 C   0  0  0  0  0  0  0  0  0  0  0  0
   56.6981   26.6113   43.9683 H   0  0  0  0  0  0  0  0  0  0  0  0
   58.3199   25.8000   43.7638 H   0  0  0  0  0  0  0  0  0  0  0  0
   56.7190   24.4750   44.2930 C   0  0  0  0  0  0  0  0  0  0  0  0
   55.6281   24.6118   44.3284 H   0  0  0  0  0  0  0  0  0  0  0  0
   57.0272   23.9895   43.3553 H   0  0  0  0  0  0  0  0  0  0  0  0
   57.1430   23.5740   45.4560 C   0  0  0  0  0  0  0  0  0  0  0  0
   56.6589   22.5930   45.3410 H   0  0  0  0  0  0  0  0  0  0  0  0
   58.2387   23.4798   45.4332 H   0  0  0  0  0  0  0  0  0  0  0  0
   56.7410   24.1730   46.8240 C   0  0  2  0  0  0  0  0  0  0  0  0
   57.4564   23.8181   47.5805 H   0  0  0  0  0  0  0  0  0  0  0  0
   55.3790   23.7300   47.1460 N   0  0  0  0  0  0  0  0  0  0  0  0
   54.3070   23.6690   46.4030 C   0  0  0  0  0  0  0  0  0  0  0  0
   53.6390   22.4830   46.3680 N   0  0  0  0  0  0  0  0  0  0  0  0
   52.5160   22.2900   45.6290 C   0  0  0  0  0  0  0  0  0  0  0  0
   52.0137   21.3114   45.6366 H   0  0  0  0  0  0  0  0  0  0  0  0
   52.0010   23.3310   44.8620 C   0  0  0  0  0  0  0  0  0  0  0  0
   51.0956   23.1809   44.2556 H   0  0  0  0  0  0  0  0  0  0  0  0
   52.6470   24.5660   44.8720 C   0  0  0  0  0  0  0  0  0  0  0  0
   52.2481   25.3967   44.2714 H   0  0  0  0  0  0  0  0  0  0  0  0
   53.7990   24.7550   45.6410 C   0  0  0  0  0  0  0  0  0  0  0  0
   54.3880   26.0120   45.6340 O   0  0  0  0  0  0  0  0  0  0  0  0
   56.8080   25.7260   46.8310 C   0  0  0  0  0  0  0  0  0  0  0  0
   55.8086   26.1247   46.6024 H   0  0  0  0  0  0  0  0  0  0  0  0
   57.1481   26.0447   47.8274 H   0  0  0  0  0  0  0  0  0  0  0  0
   58.4420   30.6750   46.1620 C   0  0  0  0  0  0  0  0  0  0  0  0
   58.5547   30.0755   47.0774 H   0  0  0  0  0  0  0  0  0  0  0  0
   58.4160   32.0700   46.2450 C   0  0  0  0  0  0  0  0  0  0  0  0
   58.5218   32.5602   47.2241 H   0  0  0  0  0  0  0  0  0  0  0  0
   61.3270   34.0400   46.3810 C   0  0  0  0  0  0  0  0  0  0  0  0
   61.6191   33.9677   45.3230 H   0  0  0  0  0  0  0  0  0  0  0  0
   62.1710   33.5500   47.3790 C   0  0  0  0  0  0  0  0  0  0  0  0
   63.1355   33.0945   47.1103 H   0  0  0  0  0  0  0  0  0  0  0  0
   61.7890   33.6390   48.7180 C   0  0  0  0  0  0  0  0  0  0  0  0
   62.4493   33.2577   49.5108 H   0  0  0  0  0  0  0  0  0  0  0  0
  1  2  1  0
  2  3  1  0
  3  4  1  0
  4  5  2  0
  5  6  1  0
  6  7  2  0
  6  8  1  0
  8  9  2  0
  9 10  1  0
  9 11  1  0
 11 12  1  0
 11 13  2  0
 13 14  1  0
 14 15  2  0
 14 16  1  0
 16 17  1  0
 16 18  1  0
 18 19  1  1
 18 20  1  0
 20 21  1  0
 20 22  1  0
 20 23  1  0
 23 24  1  0
 23 25  1  0
 23 26  1  0
 26 27  1  0
 26 28  1  0
 26 29  1  0
 29 30  1  1
 29 31  1  0
 31 32  2  0
 32 33  1  0
 33 34  1  0
 34 35  1  0
 34 36  2  0
 36 37  1  0
 36 38  1  0
 38 39  1  0
 38 40  2  0
 40 41  1  0
 29 42  1  0
 42 43  1  0
 42 44  1  0
 13 45  1  0
 45 46  1  0
 45 47  2  0
 47 48  1  0
  4 49  1  0
 49 50  1  0
 49 51  2  0
 51 52  1  0
 51 53  1  0
 53 54  1  0
 53  2  2  0
 47  8  1  0
 42 18  1  0
 40 32  1  0
M  CHG  3   3  -1  33  -1  41  -1
M  END
>  <UniqueID>  (5) 
4

>  <SMILES>  (5) 
O=C(/N=c1/cccc[n-]1)c1ccc(C(=O)N[C@@H]2CCC[C@H](/N=c3/[n-]cccc3[O-])C2)cc1

>  <Energy>  (5) 
78.11821843107982

>  <Genealogy>  (5) 
O=C(N=c1cccc[n-]1)c1ccc(C(=O)NC2CCCC(N=c3[n-]cccc3[O-])C2)cc1 (protonated)
O=C(N=c1cccc[n-]1)c1ccc(C(=O)N[C@@H]2CCC[C@H](N=c3[n-]cccc3[O-])C2)cc1 (chirality)
O=C(/N=c1/cccc[n-]1)c1ccc(C(=O)N[C@@H]2CCC[C@H](/N=c3/[n-]cccc3[O-])C2)cc1 (cis-trans isomerization)
O=C(/N=c1/cccc[n-]1)c1ccc(C(=O)N[C@@H]2CCC[C@H](/N=c3/[n-]cccc3[O-])C2)cc1 (3D coordinates assigned)
O=C(/N=c1/cccc[n-]1)c1ccc(C(=O)N[C@@H]2CCC[C@H](/N=c3/[n-]cccc3[O-])C2)cc1 (nonaromatic ring conformer: 78.11821843107982 kcal/mol)

>  <smiles>  (5) 
O=C(N=c1cccc[nH]1)c1ccc(C(=O)NC2CCCC(N=c3[nH]cccc3O)C2)cc1

>  <score_type>  (5) 
oracle

>  <origin>  (5) 
adg

>  <m_score__min__energy>  (5) 
-15.699999999999999

>  <m_primary>  (5) 
energy

$$$$
5:0
     RDKit          3D

 52 55  0  0  1  0  0  0  0  0999 V2000
   64.1370   32.7450   47.1870 N   0  0  0  0  0  0  0  0  0  0  0  0
   62.8280   33.3030   47.1780 C   0  0  0  0  0  0  0  0  0  0  0  0
   62.4490   34.1400   46.2990 O   0  0  0  0  0  0  0  0  0  0  0  0
   61.8280   32.9470   48.1890 C   0  0  0  0  0  0  0  0  0  0  0  0
   61.1240   33.9560   48.8080 C   0  0  0  0  0  0  0  0  0  0  0  0
   60.1660   33.6460   49.7730 C   0  0  0  0  0  0  0  0  0  0  0  0
   59.9510   32.3290   50.0810 C   0  0  0  0  0  0  0  0  0  0  0  0
   60.6470   31.2840   49.4710 C   0  0  0  0  0  0  0  0  0  0  0  0
   60.3170   29.9170   49.8990 C   0  0  0  0  0  0  0  0  0  0  0  0
   59.5940   29.2680   48.8280 N   0  0  0  0  0  0  0  0  0  0  0  0
   59.9000   27.9700   48.3340 C   0  0  0  0  0  0  0  0  0  0  0  0
   60.8310   27.2540   48.7860 O   0  0  0  0  0  0  0  0  0  0  0  0
   59.0540   27.5100   47.2520 N   0  0  0  0  0  0  0  0  0  0  0  0
   58.6020   28.2650   46.3370 C   0  0  0  0  0  0  0  0  0  0  0  0
   57.2810   28.0830   45.9520 C   0  0  0  0  0  0  0  0  0  0  0  0
   56.8270   28.9250   44.9490 C   0  0  0  0  0  0  0  0  0  0  0  0
   55.6340   29.0490   44.3220 N   0  0  0  0  0  0  0  0  0  0  0  0
   55.6670   30.0000   43.4190 N   0  0  0  0  0  0  0  0  0  0  0  0
   56.8730   30.5560   43.3960 C   0  0  0  0  0  0  0  0  0  0  0  0
   57.2900   31.4690   42.6870 N   0  0  0  0  0  0  0  0  0  0  0  0
   57.9690   32.6530   42.9420 C   0  0  0  0  0  0  0  0  0  0  0  0
   58.1410   33.1890   44.2960 C   0  0  0  0  0  0  0  0  0  0  0  0
   59.2330   34.0280   44.5130 C   0  0  0  0  0  0  0  0  0  0  0  0
   59.4150   34.5880   45.7650 C   0  0  0  0  0  0  0  0  0  0  0  0
   58.5100   34.3080   46.7810 C   0  0  0  0  0  0  0  0  0  0  0  0
   57.4360   33.4840   46.5630 C   0  0  0  0  0  0  0  0  0  0  0  0
   57.2300   32.9040   45.3070 C   0  0  0  0  0  0  0  0  0  0  0  0
   57.6280   29.8830   44.3660 C   0  0  0  0  0  0  0  0  0  0  0  0
   58.9230   29.9800   44.8200 C   0  0  0  0  0  0  0  0  0  0  0  0
   59.4030   29.1930   45.7820 N   0  0  0  0  0  0  0  0  0  0  0  0
   61.5780   31.6280   48.5300 C   0  0  0  0  0  0  0  0  0  0  0  0
   64.8470   32.9670   47.9400 H   0  0  0  0  0  0  0  0  0  0  0  0
   64.4360   32.0780   46.4160 H   0  0  0  0  0  0  0  0  0  0  0  0
   61.3172   35.0056   48.5415 H   0  0  0  0  0  0  0  0  0  0  0  0
   59.5959   34.4414   50.2754 H   0  0  0  0  0  0  0  0  0  0  0  0
   59.1964   32.0838   50.8429 H   0  0  0  0  0  0  0  0  0  0  0  0
   61.2416   29.3611   50.1139 H   0  0  0  0  0  0  0  0  0  0  0  0
   59.7015   29.9434   50.8103 H   0  0  0  0  0  0  0  0  0  0  0  0
   58.7960   29.8280   48.4120 H   0  0  0  0  0  0  0  0  0  0  0  0
   56.6363   27.3201   46.4129 H   0  0  0  0  0  0  0  0  0  0  0  0
   54.7700   28.4830   44.5020 H   0  0  0  0  0  0  0  0  0  0  0  0
   54.8860   30.2900   42.8120 H   0  0  0  0  0  0  0  0  0  0  0  0
   58.9826   32.5167   42.5369 H   0  0  0  0  0  0  0  0  0  0  0  0
   57.2986   33.3983   42.4890 H   0  0  0  0  0  0  0  0  0  0  0  0
   59.9411   34.2421   43.6989 H   0  0  0  0  0  0  0  0  0  0  0  0
   60.2717   35.2514   45.9548 H   0  0  0  0  0  0  0  0  0  0  0  0
   58.6572   34.7542   47.7756 H   0  0  0  0  0  0  0  0  0  0  0  0
   56.7312   33.2776   47.3819 H   0  0  0  0  0  0  0  0  0  0  0  0
   56.3715   32.2411   45.1242 H   0  0  0  0  0  0  0  0  0  0  0  0
   59.5863   30.7348   44.3725 H   0  0  0  0  0  0  0  0  0  0  0  0
   60.3920   29.3160   46.0880 H   0  0  0  0  0  0  0  0  0  0  0  0
   62.1466   30.8315   48.0278 H   0  0  0  0  0  0  0  0  0  0  0  0
  1  2  1  0
  2  3  2  0
  2  4  1  0
  4  5  2  0
  5  6  1  0
  6  7  2  0
  7  8  1  0
  8  9  1  0
  9 10  1  0
 10 11  1  0
 11 12  2  0
 11 13  1  0
 13 14  2  0
 14 15  1  0
 15 16  2  0
 16 17  1  0
 17 18  1  0
 18 19  1  0
 19 20  2  0
 20 21  1  0
 21 22  1  0
 22 23  2  0
 23 24  1  0
 24 25  2  0
 25 26  1  0
 26 27  2  0
 19 28  1  0
 28 29  2  0
 29 30  1  0
  8 31  2  0
 31  4  1  0
 30 14  1  0
 28 16  1  0
 27 22  1  0
  1 32  1  0
  1 33  1  0
  5 34  1  0
  6 35  1  0
  7 36  1  0
  9 37  1  0
  9 38  1  0
 10 39  1  0
 15 40  1  0
 17 41  1  0
 18 42  1  0
 21 43  1  0
 21 44  1  0
 23 45  1  0
 24 46  1  0
 25 47  1  0
 26 48  1  0
 27 49  1  0
 29 50  1  0
 30 51  1  0
 31 52  1  0
M  END
>  <smiles>  (6) 
NC(=O)c1cccc(CNC(=O)N=c2cc3[nH][nH]c(=NCc4ccccc4)c3c[nH]2)c1

>  <score_type>  (6) 
oracle

>  <origin>  (6) 
adg

>  <m_score__min__energy>  (6) 
-9.5600000000000005

>  <m_primary>  (6) 
energy

$$$$
6:0
     RDKit          3D

 52 55  0  0  0  0  0  0  0  0999 V2000
   52.4590   22.2040   49.3910 C   0  0  0  0  0  0  0  0  0  0  0  0
   52.1060   21.9540   47.6630 S   0  0  0  0  0  0  0  0  0  0  0  0
   51.6110   20.5560   47.4240 O   0  0  0  0  0  0  0  0  0  0  0  0
   51.0260   22.9170   47.2530 O   0  0  0  0  0  0  0  0  0  0  0  0
   53.5320   22.2530   46.7150 N   0  0  0  0  0  0  0  0  0  0  0  0
   53.7160   23.3490   45.9430 C   0  0  0  0  0  0  0  0  0  0  0  0
   54.9660   23.3100   45.3390 C   0  0  0  0  0  0  0  0  0  0  0  0
   55.5650   24.3750   44.4690 C   0  0  0  0  0  0  0  0  0  0  0  0
   56.5510   25.2050   45.2530 C   0  0  0  0  0  0  0  0  0  0  0  0
   57.9100   24.8540   45.2630 C   0  0  0  0  0  0  0  0  0  0  0  0
   58.8300   25.6020   46.0000 C   0  0  0  0  0  0  0  0  0  0  0  0
   58.4040   26.7010   46.7570 C   0  0  0  0  0  0  0  0  0  0  0  0
   59.3820   27.4710   47.5470 C   0  0  0  0  0  0  0  0  0  0  0  0
   60.4110   26.8900   47.9780 O   0  0  0  0  0  0  0  0  0  0  0  0
   59.1910   28.8570   47.8610 N   0  0  0  0  0  0  0  0  0  0  0  0
   59.6600   30.1840   46.8450 S   0  0  0  0  0  0  0  0  0  0  0  0
   59.6510   31.4490   47.6570 O   0  0  0  0  0  0  0  0  0  0  0  0
   61.0500   29.9460   46.3280 O   0  0  0  0  0  0  0  0  0  0  0  0
   58.5250   30.3780   45.5100 C   0  0  0  0  0  0  0  0  0  0  0  0
   58.1220   29.2580   44.7690 C   0  0  0  0  0  0  0  0  0  0  0  0
   57.2440   29.4080   43.6900 C   0  0  0  0  0  0  0  0  0  0  0  0
   56.7550   30.6740   43.3560 C   0  0  0  0  0  0  0  0  0  0  0  0
   57.1450   31.7910   44.1000 C   0  0  0  0  0  0  0  0  0  0  0  0
   58.0310   31.6470   45.1720 C   0  0  0  0  0  0  0  0  0  0  0  0
   57.0490   27.0620   46.7430 C   0  0  0  0  0  0  0  0  0  0  0  0
   56.1250   26.3180   46.0030 C   0  0  0  0  0  0  0  0  0  0  0  0
   54.7860   26.6940   46.0190 O   0  0  0  0  0  0  0  0  0  0  0  0
   55.5630   22.1450   45.7850 C   0  0  0  0  0  0  0  0  0  0  0  0
   56.8260   21.6160   45.5210 C   0  0  0  0  0  0  0  0  0  0  0  0
   57.1770   20.4080   46.1420 C   0  0  0  0  0  0  0  0  0  0  0  0
   56.2710   19.7590   47.0060 C   0  0  0  0  0  0  0  0  0  0  0  0
   54.9980   20.3100   47.2570 C   0  0  0  0  0  0  0  0  0  0  0  0
   54.1120   19.6650   48.1140 O   0  0  0  0  0  0  0  0  0  0  0  0
   54.6650   21.5170   46.6200 C   0  0  0  0  0  0  0  0  0  0  0  0
   51.7107   21.6740   49.9985 H   0  0  0  0  0  0  0  0  0  0  0  0
   53.4613   21.8132   49.6208 H   0  0  0  0  0  0  0  0  0  0  0  0
   52.4231   23.2791   49.6208 H   0  0  0  0  0  0  0  0  0  0  0  0
   52.9801   24.1561   45.8124 H   0  0  0  0  0  0  0  0  0  0  0  0
   56.0832   23.9015   43.6220 H   0  0  0  0  0  0  0  0  0  0  0  0
   54.7604   25.0298   44.1032 H   0  0  0  0  0  0  0  0  0  0  0  0
   58.2528   23.9827   44.6856 H   0  0  0  0  0  0  0  0  0  0  0  0
   59.8950   25.3269   45.9862 H   0  0  0  0  0  0  0  0  0  0  0  0
   58.4970   28.2591   45.0366 H   0  0  0  0  0  0  0  0  0  0  0  0
   56.9383   28.5287   43.1040 H   0  0  0  0  0  0  0  0  0  0  0  0
   56.0638   30.7911   42.5083 H   0  0  0  0  0  0  0  0  0  0  0  0
   56.7539   32.7861   43.8415 H   0  0  0  0  0  0  0  0  0  0  0  0
   58.3410   32.5294   45.7509 H   0  0  0  0  0  0  0  0  0  0  0  0
   56.7107   27.9365   47.3182 H   0  0  0  0  0  0  0  0  0  0  0  0
   57.5260   22.1304   44.8462 H   0  0  0  0  0  0  0  0  0  0  0  0
   58.1657   19.9641   45.9537 H   0  0  0  0  0  0  0  0  0  0  0  0
   56.5604   18.8139   47.4887 H   0  0  0  0  0  0  0  0  0  0  0  0
   53.1180   19.6270   47.9180 H   0  0  0  0  0  0  0  0  0  0  0  0
  1  2  1  0
  2  3  2  0
  2  4  2  0
  2  5  1  0
  5  6  1  0
  6  7  2  0
  7  8  1  0
  8  9  1  0
  9 10  2  0
 10 11  1  0
 11 12  2  0
 12 13  1  0
 13 14  2  0
 13 15  1  0
 15 16  1  0
 16 17  2  0
 16 18  2  0
 16 19  1  0
 19 20  2  0
 20 21  1  0
 21 22  2  0
 22 23  1  0
 23 24  2  0
 12 25  1  0
 25 26  2  0
 26 27  1  0
  7 28  1  0
 28 29  2  0
 29 30  1  0
 30 31  2  0
 31 32  1  0
 32 33  1  0
 32 34  2  0
 34  5  1  0
 26  9  1  0
 34 28  1  0
 24 19  1  0
  1 35  1  0
  1 36  1  0
  1 37  1  0
  6 38  1  0
  8 39  1  0
  8 40  1  0
 10 41  1  0
 11 42  1  0
 20 43  1  0
 21 44  1  0
 22 45  1  0
 23 46  1  0
 24 47  1  0
 25 48  1  0
 29 49  1  0
 30 50  1  0
 31 51  1  0
 33 52  1  0
M  CHG  2  15  -1  27  -1
M  END
>  <UniqueID>  (7) 
5

>  <SMILES>  (7) 
CS(=O)(=O)n1cc(Cc2ccc(C(=O)[N-]S(=O)(=O)c3ccccc3)cc2[O-])c2cccc(O)c21

>  <Energy>  (7) 
88.2589026339007

>  <Genealogy>  (7) 
CS(=O)(=O)n1cc(Cc2ccc(C(=O)[N-]S(=O)(=O)c3ccccc3)cc2[O-])c2cccc(O)c21 (protonated)
CS(=O)(=O)n1cc(Cc2ccc(C(=O)[N-]S(=O)(=O)c3ccccc3)cc2[O-])c2cccc(O)c21 (3D coordinates assigned)
CS(=O)(=O)n1cc(Cc2ccc(C(=O)[N-]S(=O)(=O)c3ccccc3)cc2[O-])c2cccc(O)c21 (optimized conformer: 88.2589026339007 kcal/mol)

>  <smiles>  (7) 
CS(=O)(=O)n1cc(Cc2ccc(C(=O)NS(=O)(=O)c3ccccc3)cc2O)c2cccc(O)c21

>  <score_type>  (7) 
oracle

>  <origin>  (7) 
adg

>  <m_score__min__energy>  (7) 
-13.949999999999999

>  <m_primary>  (7) 
energy

$$$$
7:0
     RDKit          3D

 39 41  0  0  0  0  0  0  0  0999 V2000
   53.9230   25.5340   46.3650 H   0  0  0  0  0  0  0  0  0  0  0  0
   54.4170   26.3410   46.0040 O   0  0  0  0  0  0  0  0  0  0  0  0
   55.8090   26.4300   46.0270 C   0  0  0  0  0  0  0  0  0  0  0  0
   56.5890   25.3970   46.5730 C   0  0  0  0  0  0  0  0  0  0  0  0
   55.9870   24.2580   47.0940 O   0  0  0  0  0  0  0  0  0  0  0  0
   57.9810   25.5130   46.6010 C   0  0  0  0  0  0  0  0  0  0  0  0
   58.5893   24.7071   47.0375 H   0  0  0  0  0  0  0  0  0  0  0  0
   58.6030   26.6480   46.0770 C   0  0  0  0  0  0  0  0  0  0  0  0
   59.6984   26.7396   46.1176 H   0  0  0  0  0  0  0  0  0  0  0  0
   57.8380   27.6720   45.4990 C   0  0  0  0  0  0  0  0  0  0  0  0
   58.5290   28.8720   44.9780 C   0  0  0  0  0  0  0  0  0  0  0  0
   59.3281   28.7025   44.2413 H   0  0  0  0  0  0  0  0  0  0  0  0
   58.2740   30.1670   45.3200 C   0  0  0  0  0  0  0  0  0  0  0  0
   57.3230   31.0110   44.6680 C   0  0  0  0  0  0  0  0  0  0  0  0
   56.7880   30.7620   43.4640 C   0  0  0  0  0  0  0  0  0  0  0  0
   57.0032   29.8124   42.9523 H   0  0  0  0  0  0  0  0  0  0  0  0
   56.1339   31.5074   42.9880 H   0  0  0  0  0  0  0  0  0  0  0  0
   57.0090   32.2030   45.2310 N   0  0  0  0  0  0  0  0  0  0  0  0
   57.6180   32.6710   46.3430 C   0  0  0  0  0  0  0  0  0  0  0  0
   57.2540   33.7840   46.8100 O   0  0  0  0  0  0  0  0  0  0  0  0
   58.6310   31.9600   46.9260 N   0  0  0  0  0  0  0  0  0  0  0  0
   59.3170   32.4880   48.1250 C   0  0  0  0  0  0  0  0  0  0  0  0
   58.8202   33.4150   48.4472 H   0  0  0  0  0  0  0  0  0  0  0  0
   59.2677   31.7332   48.9236 H   0  0  0  0  0  0  0  0  0  0  0  0
   60.7640   32.7810   47.8210 C   0  0  0  0  0  0  0  0  0  0  0  0
   61.7820   32.2100   48.6020 C   0  0  0  0  0  0  0  0  0  0  0  0
   61.5214   31.5651   49.4542 H   0  0  0  0  0  0  0  0  0  0  0  0
   63.1250   32.4570   48.3020 C   0  0  0  0  0  0  0  0  0  0  0  0
   63.9173   32.0084   48.9193 H   0  0  0  0  0  0  0  0  0  0  0  0
   63.4620   33.2730   47.2190 C   0  0  0  0  0  0  0  0  0  0  0  0
   64.5191   33.4664   46.9840 H   0  0  0  0  0  0  0  0  0  0  0  0
   62.4570   33.8430   46.4350 C   0  0  0  0  0  0  0  0  0  0  0  0
   62.7230   34.4855   45.5827 H   0  0  0  0  0  0  0  0  0  0  0  0
   61.1130   33.5980   46.7320 C   0  0  0  0  0  0  0  0  0  0  0  0
   60.3246   34.0470   46.1101 H   0  0  0  0  0  0  0  0  0  0  0  0
   58.9700   30.7270   46.4270 C   0  0  0  0  0  0  0  0  0  0  0  0
   59.8960   30.0680   46.9820 O   0  0  0  0  0  0  0  0  0  0  0  0
   56.4320   27.5720   45.5030 C   0  0  0  0  0  0  0  0  0  0  0  0
   55.6480   28.6070   45.0010 O   0  0  0  0  0  0  0  0  0  0  0  0
  1  2  1  0
  2  3  1  0
  3  4  2  0
  4  5  1  0
  4  6  1  0
  6  7  1  0
  6  8  2  0
  8  9  1  0
  8 10  1  0
 10 11  1  0
 11 12  1  0
 11 13  2  0
 13 14  1  0
 14 15  2  0
 15 16  1  0
 15 17  1  0
 14 18  1  0
 18 19  1  0
 19 20  2  0
 19 21  1  0
 21 22  1  0
 22 23  1  0
 22 24  1  0
 22 25  1  0
 25 26  2  0
 26 27  1  0
 26 28  1  0
 28 29  1  0
 28 30  2  0
 30 31  1  0
 30 32  1  0
 32 33  1  0
 32 34  2  0
 34 35  1  0
 21 36  1  0
 36 37  2  0
 10 38  2  0
 38 39  1  0
 38  3  1  0
 36 13  1  0
 34 25  1  0
M  CHG  3   5  -1  18  -1  39  -1
M  END
>  <UniqueID>  (8) 
6

>  <SMILES>  (8) 
C=c1[n-]c(=O)n(Cc2ccccc2)c(=O)/c1=C/c1ccc([O-])c(O)c1[O-]

>  <Energy>  (8) 
69.98618931694931

>  <Genealogy>  (8) 
C=c1[n-]c(=O)n(Cc2ccccc2)c(=O)c1=Cc1ccc([O-])c(O)c1[O-] (protonated)
C=c1[n-]c(=O)n(Cc2ccccc2)c(=O)/c1=C/c1ccc([O-])c(O)c1[O-] (cis-trans isomerization)
C=c1[n-]c(=O)n(Cc2ccccc2)c(=O)/c1=C/c1ccc([O-])c(O)c1[O-] (3D coordinates assigned)
C=c1[n-]c(=O)n(Cc2ccccc2)c(=O)/c1=C/c1ccc([O-])c(O)c1[O-] (optimized conformer: 69.98618931694931 kcal/mol)

>  <smiles>  (8) 
C=c1[nH]c(=O)n(Cc2ccccc2)c(=O)c1=Cc1ccc(O)c(O)c1O

>  <score_type>  (8) 
oracle

>  <origin>  (8) 
adg

>  <m_score__min__energy>  (8) 
-15.67

>  <m_primary>  (8) 
energy

$$$$
8:0
     RDKit          3D

 57 60  0  0  0  0  0  0  0  0999 V2000
   55.6608   31.1298   43.2452 H   0  0  0  0  0  0  0  0  0  0  0  0
   56.4470   30.6980   43.8820 C   0  0  0  0  0  0  0  0  0  0  0  0
   57.0100   31.4460   44.8670 N   0  0  0  0  0  0  0  0  0  0  0  0
   57.9840   30.9620   45.6860 C   0  0  0  0  0  0  0  0  0  0  0  0
   58.4680   31.7540   46.6020 N   0  0  0  0  0  0  0  0  0  0  0  0
   59.8340   32.1520   46.8180 C   0  0  0  0  0  0  0  0  0  0  0  0
   60.7640   31.2980   46.7690 O   0  0  0  0  0  0  0  0  0  0  0  0
   60.1790   33.6120   46.8990 C   0  0  0  0  0  0  0  0  0  0  0  0
   61.9370   33.8120   46.6940 Cl  0  0  0  0  0  0  0  0  0  0  0  0
   59.3430   34.5370   45.6220 Cl  0  0  0  0  0  0  0  0  0  0  0  0
   59.7010   34.2920   48.4790 Cl  0  0  0  0  0  0  0  0  0  0  0  0
   58.4030   29.6240   45.5270 C   0  0  0  0  0  0  0  0  0  0  0  0
   59.1531   29.1956   46.2080 H   0  0  0  0  0  0  0  0  0  0  0  0
   57.8580   28.8410   44.4950 C   0  0  0  0  0  0  0  0  0  0  0  0
   58.2500   27.5100   44.2850 O   0  0  0  0  0  0  0  0  0  0  0  0
   57.6490   26.3810   44.8600 C   0  0  0  0  0  0  0  0  0  0  0  0
   56.9020   26.5410   46.0320 C   0  0  0  0  0  0  0  0  0  0  0  0
   56.8045   27.5381   46.4863 H   0  0  0  0  0  0  0  0  0  0  0  0
   56.2790   25.4420   46.6290 C   0  0  0  0  0  0  0  0  0  0  0  0
   55.7161   25.5762   47.5645 H   0  0  0  0  0  0  0  0  0  0  0  0
   56.3650   24.1690   46.0460 C   0  0  0  0  0  0  0  0  0  0  0  0
   55.7120   23.0550   46.6810 N   0  0  0  0  0  0  0  0  0  0  0  0
   54.8600   22.6560   46.2280 H   0  0  0  0  0  0  0  0  0  0  0  0
   56.2040   22.4010   47.8580 C   0  0  0  0  0  0  0  0  0  0  0  0
   57.3800   22.6150   48.2640 O   0  0  0  0  0  0  0  0  0  0  0  0
   55.3780   21.4410   48.5260 N   0  0  0  0  0  0  0  0  0  0  0  0
   54.5210   21.7270   49.6400 C   0  0  0  0  0  0  0  0  0  0  0  0
   54.7600   21.0910   50.8640 C   0  0  0  0  0  0  0  0  0  0  0  0
   55.6036   20.3919   50.9620 H   0  0  0  0  0  0  0  0  0  0  0  0
   53.9320   21.3400   51.9620 C   0  0  0  0  0  0  0  0  0  0  0  0
   54.1340   20.8488   52.9253 H   0  0  0  0  0  0  0  0  0  0  0  0
   52.8470   22.2130   51.8370 C   0  0  0  0  0  0  0  0  0  0  0  0
   52.2051   22.4138   52.7074 H   0  0  0  0  0  0  0  0  0  0  0  0
   52.5710   22.8340   50.6120 C   0  0  0  0  0  0  0  0  0  0  0  0
   51.4530   23.6810   50.5310 O   0  0  0  0  0  0  0  0  0  0  0  0
   50.6760   24.1320   51.6440 C   0  0  0  0  0  0  0  0  0  0  0  0
   49.6352   24.2793   51.3199 H   0  0  0  0  0  0  0  0  0  0  0  0
   50.7287   23.3730   52.4385 H   0  0  0  0  0  0  0  0  0  0  0  0
   51.2120   25.4320   52.1860 C   0  0  0  0  0  0  0  0  0  0  0  0
   50.5500   26.6390   51.9040 C   0  0  0  0  0  0  0  0  0  0  0  0
   49.6396   26.6333   51.2867 H   0  0  0  0  0  0  0  0  0  0  0  0
   51.0440   27.8470   52.4050 C   0  0  0  0  0  0  0  0  0  0  0  0
   50.5260   28.7897   52.1748 H   0  0  0  0  0  0  0  0  0  0  0  0
   52.1950   27.8590   53.1980 C   0  0  0  0  0  0  0  0  0  0  0  0
   52.5829   28.8106   53.5906 H   0  0  0  0  0  0  0  0  0  0  0  0
   52.8530   26.6610   53.4920 C   0  0  0  0  0  0  0  0  0  0  0  0
   53.7590   26.6712   54.1157 H   0  0  0  0  0  0  0  0  0  0  0  0
   52.3620   25.4500   52.9950 C   0  0  0  0  0  0  0  0  0  0  0  0
   52.8767   24.5086   53.2375 H   0  0  0  0  0  0  0  0  0  0  0  0
   53.4170   22.5880   49.5130 C   0  0  0  0  0  0  0  0  0  0  0  0
   53.2121   23.0736   48.5475 H   0  0  0  0  0  0  0  0  0  0  0  0
   57.1130   24.0080   44.8660 C   0  0  0  0  0  0  0  0  0  0  0  0
   57.2073   23.0115   44.4098 H   0  0  0  0  0  0  0  0  0  0  0  0
   57.7370   25.1070   44.2700 C   0  0  0  0  0  0  0  0  0  0  0  0
   58.3001   24.9753   43.3343 H   0  0  0  0  0  0  0  0  0  0  0  0
   56.8650   29.3840   43.6780 C   0  0  0  0  0  0  0  0  0  0  0  0
   56.4149   28.7784   42.8777 H   0  0  0  0  0  0  0  0  0  0  0  0
  1  2  1  0
  2  3  1  0
  3  4  1  0
  4  5  2  0
  5  6  1  0
  6  7  2  0
  6  8  1  0
  8  9  1  0
  8 10  1  0
  8 11  1  0
  4 12  1  0
 12 13  1  0
 12 14  2  0
 14 15  1  0
 15 16  1  0
 16 17  2  0
 17 18  1  0
 17 19  1  0
 19 20  1  0
 19 21  2  0
 21 22  1  0
 22 23  1  0
 22 24  1  0
 24 25  2  0
 24 26  1  0
 26 27  1  0
 27 28  2  0
 28 29  1  0
 28 30  1  0
 30 31  1  0
 30 32  2  0
 32 33  1  0
 32 34  1  0
 34 35  1  0
 35 36  1  0
 36 37  1  0
 36 38  1  0
 36 39  1  0
 39 40  2  0
 40 41  1  0
 40 42  1  0
 42 43  1  0
 42 44  2  0
 44 45  1  0
 44 46  1  0
 46 47  1  0
 46 48  2  0
 48 49  1  0
 34 50  2  0
 50 51  1  0
 21 52  1  0
 52 53  1  0
 52 54  2  0
 54 55  1  0
 14 56  1  0
 56 57  1  0
 56  2  2  0
 54 16  1  0
 50 27  1  0
 48 39  1  0
M  CHG  2   3  -1  26  -1
M  END
>  <UniqueID>  (9) 
7

>  <SMILES>  (9) 
O=C([N-]c1cccc(OCc2ccccc2)c1)Nc1ccc(Oc2cc[n-]/c(=N/C(=O)C(Cl)(Cl)Cl)c2)cc1

>  <Energy>  (9) 
80.88997866038343

>  <Genealogy>  (9) 
O=C([N-]c1cccc(OCc2ccccc2)c1)Nc1ccc(Oc2cc[n-]c(=NC(=O)C(Cl)(Cl)Cl)c2)cc1 (protonated)
O=C([N-]c1cccc(OCc2ccccc2)c1)Nc1ccc(Oc2cc[n-]/c(=N/C(=O)C(Cl)(Cl)Cl)c2)cc1 (cis-trans isomerization)
O=C([N-]c1cccc(OCc2ccccc2)c1)Nc1ccc(Oc2cc[n-]/c(=N/C(=O)C(Cl)(Cl)Cl)c2)cc1 (3D coordinates assigned)
O=C([N-]c1cccc(OCc2ccccc2)c1)Nc1ccc(Oc2cc[n-]/c(=N/C(=O)C(Cl)(Cl)Cl)c2)cc1 (optimized conformer: 80.88997866038343 kcal/mol)

>  <smiles>  (9) 
O=C(Nc1ccc(Oc2cc[nH]c(=NC(=O)C(Cl)(Cl)Cl)c2)cc1)Nc1cccc(OCc2ccccc2)c1

>  <score_type>  (9) 
oracle

>  <origin>  (9) 
adg

>  <m_score__min__energy>  (9) 
-12.52

>  <m_primary>  (9) 
energy

$$$$
9:0
     RDKit          3D

 37 38  0  0  0  0  0  0  0  0999 V2000
   56.2980   33.5590   46.0520 O   0  0  0  0  0  0  0  0  0  0  0  0
   57.4640   33.4650   46.5190 C   0  0  0  0  0  0  0  0  0  0  0  0
   58.6410   33.7080   45.6290 C   0  0  0  0  0  0  0  0  0  0  0  0
   58.3080   33.0890   43.9440 S   0  0  0  0  0  0  0  0  0  0  0  0
   57.9290   31.4180   44.4670 C   0  0  0  0  0  0  0  0  0  0  0  0
   58.9340   30.5790   44.8340 N   0  0  0  0  0  0  0  0  0  0  0  0
   58.6820   29.2940   45.2000 C   0  0  0  0  0  0  0  0  0  0  0  0
   59.8120   28.3880   45.5930 C   0  0  0  0  0  0  0  0  0  0  0  0
   59.5840   27.1210   45.0860 F   0  0  0  0  0  0  0  0  0  0  0  0
   61.0030   28.8740   45.0860 F   0  0  0  0  0  0  0  0  0  0  0  0
   59.9130   28.3100   46.9710 F   0  0  0  0  0  0  0  0  0  0  0  0
   57.3590   28.8340   45.2250 C   0  0  0  0  0  0  0  0  0  0  0  0
   56.3400   29.7140   44.8550 C   0  0  0  0  0  0  0  0  0  0  0  0
   55.1400   29.3320   44.8630 O   0  0  0  0  0  0  0  0  0  0  0  0
   56.6430   30.9830   44.4810 N   0  0  0  0  0  0  0  0  0  0  0  0
   57.6820   33.0700   47.8790 N   0  0  0  0  0  0  0  0  0  0  0  0
   58.9080   32.5520   48.4060 C   0  0  0  0  0  0  0  0  0  0  0  0
   59.4370   33.0690   49.4270 O   0  0  0  0  0  0  0  0  0  0  0  0
   59.5160   31.4210   47.7720 N   0  0  0  0  0  0  0  0  0  0  0  0
   60.7370   30.7970   48.2770 C   0  0  0  0  0  0  0  0  0  0  0  0
   61.8980   31.7460   48.1540 C   0  0  0  0  0  0  0  0  0  0  0  0
   62.9470   31.7210   49.0890 C   0  0  0  0  0  0  0  0  0  0  0  0
   64.0110   32.6200   48.9780 C   0  0  0  0  0  0  0  0  0  0  0  0
   64.0350   33.5510   47.9360 C   0  0  0  0  0  0  0  0  0  0  0  0
   62.9930   33.5870   47.0050 C   0  0  0  0  0  0  0  0  0  0  0  0
   61.9270   32.6900   47.1130 C   0  0  0  0  0  0  0  0  0  0  0  0
   58.8439   34.7882   45.5842 H   0  0  0  0  0  0  0  0  0  0  0  0
   59.5120   33.1749   46.0379 H   0  0  0  0  0  0  0  0  0  0  0  0
   57.1281   27.8025   45.5293 H   0  0  0  0  0  0  0  0  0  0  0  0
   59.0440   30.9990   46.9410 H   0  0  0  0  0  0  0  0  0  0  0  0
   60.5972   30.5299   49.3349 H   0  0  0  0  0  0  0  0  0  0  0  0
   60.9486   29.8943   47.6851 H   0  0  0  0  0  0  0  0  0  0  0  0
   62.9304   30.9908   49.9115 H   0  0  0  0  0  0  0  0  0  0  0  0
   64.8304   32.5949   49.7114 H   0  0  0  0  0  0  0  0  0  0  0  0
   64.8747   34.2561   47.8484 H   0  0  0  0  0  0  0  0  0  0  0  0
   63.0122   34.3219   46.1868 H   0  0  0  0  0  0  0  0  0  0  0  0
   61.1072   32.7228   46.3803 H   0  0  0  0  0  0  0  0  0  0  0  0
  1  2  2  0
  2  3  1  0
  3  4  1  0
  4  5  1  0
  5  6  2  0
  6  7  1  0
  7  8  1  0
  8  9  1  0
  8 10  1  0
  8 11  1  0
  7 12  2  0
 12 13  1  0
 13 14  2  0
 13 15  1  0
  2 16  1  0
 16 17  1  0
 17 18  2  0
 17 19  1  0
 19 20  1  0
 20 21  1  0
 21 22  2  0
 22 23  1  0
 23 24  2  0
 24 25  1  0
 25 26  2  0
 15  5  1  0
 26 21  1  0
  3 27  1  0
  3 28  1  0
 12 29  1  0
 19 30  1  0
 20 31  1  0
 20 32  1  0
 22 33  1  0
 23 34  1  0
 24 35  1  0
 25 36  1  0
 26 37  1  0
M  CHG  2  15  -1  16  -1
M  END
>  <UniqueID>  (10) 
8

>  <SMILES>  (10) 
O=C(CSc1nc(C(F)(F)F)cc(=O)[n-]1)[N-]C(=O)NCc1ccccc1

>  <Energy>  (10) 
28.358141112017286

>  <Genealogy>  (10) 
O=C(CSc1nc(C(F)(F)F)cc(=O)[n-]1)[N-]C(=O)NCc1ccccc1 (protonated)
O=C(CSc1nc(C(F)(F)F)cc(=O)[n-]1)[N-]C(=O)NCc1ccccc1 (3D coordinates assigned)
O=C(CSc1nc(C(F)(F)F)cc(=O)[n-]1)[N-]C(=O)NCc1ccccc1 (optimized conformer: 28.358141112017286 kcal/mol)

>  <smiles>  (10) 
O=C(CSc1nc(C(F)(F)F)cc(=O)[nH]1)NC(=O)NCc1ccccc1

>  <score_type>  (10) 
oracle

>  <origin>  (10) 
adg

>  <m_score__min__energy>  (10) 
-10.85

>  <m_primary>  (10) 
energy

$$$$
10:0
     RDKit          3D

 36 37  0  0  0  0  0  0  0  0999 V2000
   57.0100   33.6960   45.9950 C   0  0  0  0  0  0  0  0  0  0  0  0
   58.7720   33.9300   45.9370 S   0  0  0  0  0  0  0  0  0  0  0  0
   59.0880   35.3230   46.4070 O   0  0  0  0  0  0  0  0  0  0  0  0
   59.2560   33.7740   44.5220 O   0  0  0  0  0  0  0  0  0  0  0  0
   59.5770   32.7700   46.9500 N   0  0  0  0  0  0  0  0  0  0  0  0
   58.8040   31.7710   47.6910 C   0  0  0  0  0  0  0  0  0  0  0  0
   58.7190   30.5000   46.9070 C   0  0  0  0  0  0  0  0  0  0  0  0
   59.7510   29.7930   46.7530 O   0  0  0  0  0  0  0  0  0  0  0  0
   57.5080   30.1830   46.2090 N   0  0  0  0  0  0  0  0  0  0  0  0
   57.2100   30.3620   44.9480 C   0  0  0  0  0  0  0  0  0  0  0  0
   57.9970   31.2110   44.2230 N   0  0  0  0  0  0  0  0  0  0  0  0
   57.7780   31.4560   42.9030 C   0  0  0  0  0  0  0  0  0  0  0  0
   56.7140   30.8460   42.2440 C   0  0  0  0  0  0  0  0  0  0  0  0
   55.8690   30.0000   42.9550 C   0  0  0  0  0  0  0  0  0  0  0  0
   56.0920   29.7590   44.3130 C   0  0  0  0  0  0  0  0  0  0  0  0
   55.1740   28.9740   45.0000 O   0  0  0  0  0  0  0  0  0  0  0  0
   61.0010   32.8210   47.0880 C   0  0  0  0  0  0  0  0  0  0  0  0
   61.6610   31.8920   47.9050 C   0  0  0  0  0  0  0  0  0  0  0  0
   63.0530   31.9340   48.0370 C   0  0  0  0  0  0  0  0  0  0  0  0
   63.7910   32.9020   47.3480 C   0  0  0  0  0  0  0  0  0  0  0  0
   63.1390   33.8250   46.5250 C   0  0  0  0  0  0  0  0  0  0  0  0
   61.7470   33.7850   46.3940 C   0  0  0  0  0  0  0  0  0  0  0  0
   56.6802   33.6522   47.0435 H   0  0  0  0  0  0  0  0  0  0  0  0
   56.5117   34.5359   45.4887 H   0  0  0  0  0  0  0  0  0  0  0  0
   56.7482   32.7552   45.4887 H   0  0  0  0  0  0  0  0  0  0  0  0
   59.2962   31.5717   48.6544 H   0  0  0  0  0  0  0  0  0  0  0  0
   57.7881   32.1567   47.8617 H   0  0  0  0  0  0  0  0  0  0  0  0
   58.8080   31.6840   44.6840 H   0  0  0  0  0  0  0  0  0  0  0  0
   58.4438   32.1384   42.3543 H   0  0  0  0  0  0  0  0  0  0  0  0
   56.5434   31.0309   41.1732 H   0  0  0  0  0  0  0  0  0  0  0  0
   55.0212   29.5185   42.4456 H   0  0  0  0  0  0  0  0  0  0  0  0
   61.0822   31.1275   48.4440 H   0  0  0  0  0  0  0  0  0  0  0  0
   63.5669   31.2062   48.6822 H   0  0  0  0  0  0  0  0  0  0  0  0
   64.8853   32.9370   47.4538 H   0  0  0  0  0  0  0  0  0  0  0  0
   63.7209   34.5830   45.9802 H   0  0  0  0  0  0  0  0  0  0  0  0
   61.2360   34.5114   45.7450 H   0  0  0  0  0  0  0  0  0  0  0  0
  1  2  1  0
  2  3  2  0
  2  4  2  0
  2  5  1  0
  5  6  1  0
  6  7  1  0
  7  8  2  0
  7  9  1  0
  9 10  2  3
 10 11  1  0
 11 12  1  0
 12 13  2  0
 13 14  1  0
 14 15  2  0
 15 16  1  0
  5 17  1  0
 17 18  2  0
 18 19  1  0
 19 20  2  0
 20 21  1  0
 21 22  2  0
 15 10  1  0
 22 17  1  0
  1 23  1  0
  1 24  1  0
  1 25  1  0
  6 26  1  0
  6 27  1  0
 11 28  1  0
 12 29  1  0
 13 30  1  0
 14 31  1  0
 18 32  1  0
 19 33  1  0
 20 34  1  0
 21 35  1  0
 22 36  1  0
M  CHG  1  16  -1
M  END
>  <UniqueID>  (11) 
9

>  <SMILES>  (11) 
CS(=O)(=O)N(CC(=O)N=c1[nH]cccc1[O-])c1ccccc1

>  <Energy>  (11) 
47.92060258992286

>  <Genealogy>  (11) 
CS(=O)(=O)N(CC(=O)N=c1[nH]cccc1[O-])c1ccccc1 (protonated)
CS(=O)(=O)N(CC(=O)N=c1[nH]cccc1[O-])c1ccccc1 (3D coordinates assigned)
CS(=O)(=O)N(CC(=O)N=c1[nH]cccc1[O-])c1ccccc1 (optimized conformer: 47.92060258992286 kcal/mol)

>  <smiles>  (11) 
CS(=O)(=O)N(CC(=O)N=c1[nH]cccc1O)c1ccccc1

>  <score_type>  (11) 
oracle

>  <origin>  (11) 
adg

>  <m_score__min__energy>  (11) 
-11.42

>  <m_primary>  (11) 
energy

$$$$
11:0
     RDKit          3D

 66 69  0  0  0  0  0  0  0  0999 V2000
   58.5830   30.4230   45.7040 C   0  0  0  0  0  0  0  0  0  0  0  0
   57.1970   30.1500   45.2960 N   0  0  0  0  0  0  0  0  0  0  0  0
   56.9360   28.7030   45.2220 C   0  0  0  0  0  0  0  0  0  0  0  0
   56.8040   30.8730   44.0650 C   0  0  0  0  0  0  0  0  0  0  0  0
   57.8470   31.8950   43.5630 C   0  0  0  0  0  0  0  0  0  0  0  0
   57.8670   33.1460   44.4480 C   0  0  0  0  0  0  0  0  0  0  0  0
   59.2340   33.6790   44.5340 N   0  0  0  0  0  0  0  0  0  0  0  0
   59.2640   34.9990   45.1820 C   0  0  0  0  0  0  0  0  0  0  0  0
   58.7460   34.9190   46.6250 C   0  0  0  0  0  0  0  0  0  0  0  0
   59.7510   34.3050   47.5620 C   0  0  0  0  0  0  0  0  0  0  0  0
   59.6320   34.4800   48.8050 O   0  0  0  0  0  0  0  0  0  0  0  0
   60.8130   33.4880   47.0400 N   0  0  0  0  0  0  0  0  0  0  0  0
   61.8880   32.9830   47.8550 C   0  0  0  0  0  0  0  0  0  0  0  0
   63.1530   33.5800   47.7720 C   0  0  0  0  0  0  0  0  0  0  0  0
   64.2080   33.1290   48.5590 C   0  0  0  0  0  0  0  0  0  0  0  0
   64.0270   32.0710   49.4600 C   0  0  0  0  0  0  0  0  0  0  0  0
   62.7600   31.4600   49.5740 C   0  0  0  0  0  0  0  0  0  0  0  0
   62.5570   30.3930   50.4790 C   0  0  0  0  0  0  0  0  0  0  0  0
   61.2910   29.7920   50.5730 C   0  0  0  0  0  0  0  0  0  0  0  0
   60.2230   30.2410   49.7900 C   0  0  0  0  0  0  0  0  0  0  0  0
   58.9040   29.5930   49.9270 C   0  0  0  0  0  0  0  0  0  0  0  0
   58.1450   29.8570   50.8980 O   0  0  0  0  0  0  0  0  0  0  0  0
   60.4210   31.2980   48.8930 C   0  0  0  0  0  0  0  0  0  0  0  0
   61.6790   31.9220   48.7710 C   0  0  0  0  0  0  0  0  0  0  0  0
   63.6710   29.9140   51.3290 C   0  0  0  0  0  0  0  0  0  0  0  0
   63.4790   28.9670   52.1430 O   0  0  0  0  0  0  0  0  0  0  0  0
   64.9680   30.5330   51.2370 N   0  0  0  0  0  0  0  0  0  0  0  0
   66.0900   30.0340   52.0480 C   0  0  0  0  0  0  0  0  0  0  0  0
   66.6200   28.7450   51.4770 C   0  0  0  0  0  0  0  0  0  0  0  0
   66.0630   27.5150   51.8650 C   0  0  0  0  0  0  0  0  0  0  0  0
   66.5700   26.3170   51.3500 C   0  0  0  0  0  0  0  0  0  0  0  0
   67.6380   26.3380   50.4500 C   0  0  0  0  0  0  0  0  0  0  0  0
   68.2030   27.5570   50.0640 C   0  0  0  0  0  0  0  0  0  0  0  0
   67.6980   28.7570   50.5760 C   0  0  0  0  0  0  0  0  0  0  0  0
   65.1600   31.6050   50.2950 C   0  0  0  0  0  0  0  0  0  0  0  0
   66.2910   32.1540   50.1820 O   0  0  0  0  0  0  0  0  0  0  0  0
   58.6463   30.4355   46.8021 H   0  0  0  0  0  0  0  0  0  0  0  0
   59.2434   29.6377   45.3076 H   0  0  0  0  0  0  0  0  0  0  0  0
   58.8962   31.4001   45.3076 H   0  0  0  0  0  0  0  0  0  0  0  0
   56.8617   28.2913   46.2394 H   0  0  0  0  0  0  0  0  0  0  0  0
   55.9917   28.5277   44.6857 H   0  0  0  0  0  0  0  0  0  0  0  0
   57.7595   28.2088   44.6857 H   0  0  0  0  0  0  0  0  0  0  0  0
   56.6383   30.1319   43.2692 H   0  0  0  0  0  0  0  0  0  0  0  0
   55.8986   31.4460   44.3139 H   0  0  0  0  0  0  0  0  0  0  0  0
   58.8430   31.4284   43.5786 H   0  0  0  0  0  0  0  0  0  0  0  0
   57.5759   32.1959   42.5403 H   0  0  0  0  0  0  0  0  0  0  0  0
   57.2048   33.9098   44.0142 H   0  0  0  0  0  0  0  0  0  0  0  0
   57.5189   32.8801   45.4570 H   0  0  0  0  0  0  0  0  0  0  0  0
   59.5930   33.7910   43.5560 H   0  0  0  0  0  0  0  0  0  0  0  0
   60.2993   35.3706   45.1922 H   0  0  0  0  0  0  0  0  0  0  0  0
   58.6135   35.6811   44.6149 H   0  0  0  0  0  0  0  0  0  0  0  0
   58.5132   35.9360   46.9737 H   0  0  0  0  0  0  0  0  0  0  0  0
   57.8519   34.2783   46.6254 H   0  0  0  0  0  0  0  0  0  0  0  0
   60.8430   33.3190   46.0100 H   0  0  0  0  0  0  0  0  0  0  0  0
   63.3140   34.4161   47.0756 H   0  0  0  0  0  0  0  0  0  0  0  0
   65.1945   33.6079   48.4731 H   0  0  0  0  0  0  0  0  0  0  0  0
   61.1376   28.9567   51.2721 H   0  0  0  0  0  0  0  0  0  0  0  0
   58.5775   28.8667   49.1681 H   0  0  0  0  0  0  0  0  0  0  0  0
   59.5814   31.6469   48.2738 H   0  0  0  0  0  0  0  0  0  0  0  0
   66.8940   30.7847   52.0548 H   0  0  0  0  0  0  0  0  0  0  0  0
   65.7347   29.8502   53.0727 H   0  0  0  0  0  0  0  0  0  0  0  0
   65.2246   27.4937   52.5768 H   0  0  0  0  0  0  0  0  0  0  0  0
   66.1269   25.3573   51.6543 H   0  0  0  0  0  0  0  0  0  0  0  0
   68.0345   25.3953   50.0450 H   0  0  0  0  0  0  0  0  0  0  0  0
   69.0455   27.5727   49.3570 H   0  0  0  0  0  0  0  0  0  0  0  0
   68.1469   29.7141   50.2718 H   0  0  0  0  0  0  0  0  0  0  0  0
  1  2  1  0
  2  3  1  0
  2  4  1  0
  4  5  1  0
  5  6  1  0
  6  7  1  0
  7  8  1  0
  8  9  1  0
  9 10  1  0
 10 11  2  0
 10 12  1  0
 12 13  1  0
 13 14  2  0
 14 15  1  0
 15 16  2  0
 16 17  1  0
 17 18  2  0
 18 19  1  0
 19 20  2  0
 20 21  1  0
 21 22  2  0
 20 23  1  0
 23 24  2  0
 18 25  1  0
 25 26  2  0
 25 27  1  0
 27 28  1  0
 28 29  1  0
 29 30  2  0
 30 31  1  0
 31 32  2  0
 32 33  1  0
 33 34  2  0
 27 35  1  0
 35 36  2  0
 24 13  1  0
 34 29  1  0
 35 16  1  0
 24 17  1  0
  1 37  1  0
  1 38  1  0
  1 39  1  0
  3 40  1  0
  3 41  1  0
  3 42  1  0
  4 43  1  0
  4 44  1  0
  5 45  1  0
  5 46  1  0
  6 47  1  0
  6 48  1  0
  7 49  1  0
  8 50  1  0
  8 51  1  0
  9 52  1  0
  9 53  1  0
 12 54  1  0
 14 55  1  0
 15 56  1  0
 19 57  1  0
 21 58  1  0
 23 59  1  0
 28 60  1  0
 28 61  1  0
 30 62  1  0
 31 63  1  0
 32 64  1  0
 33 65  1  0
 34 66  1  0
M  END
>  <UniqueID>  (12) 
10

>  <SMILES>  (12) 
CN(C)CCCNCCC(=O)Nc1ccc2c3c(cc(C=O)cc13)C(=O)N(Cc1ccccc1)C2=O

>  <Energy>  (12) 
74.49004575890554

>  <Genealogy>  (12) 
CN(C)CCCNCCC(=O)Nc1ccc2c3c(cc(C=O)cc13)C(=O)N(Cc1ccccc1)C2=O (3D coordinates assigned)
CN(C)CCCNCCC(=O)Nc1ccc2c3c(cc(C=O)cc13)C(=O)N(Cc1ccccc1)C2=O (nonaromatic ring conformer: 74.49004575890554 kcal/mol)

>  <smiles>  (12) 
CN(C)CCCNCCC(=O)Nc1ccc2c3c(cc(C=O)cc13)C(=O)N(Cc1ccccc1)C2=O

>  <score_type>  (12) 
oracle

>  <origin>  (12) 
adg

>  <m_score__min__energy>  (12) 
-9.3200000000000003

>  <m_primary>  (12) 
energy

$$$$
12:0
     RDKit          3D

 51 55  0  0  0  0  0  0  0  0999 V2000
   57.3950   29.4640   42.3490 H   0  0  0  0  0  0  0  0  0  0  0  0
   56.9980   30.3900   42.4530 O   0  0  0  0  0  0  0  0  0  0  0  0
   57.3200   31.2120   43.5300 C   0  0  0  0  0  0  0  0  0  0  0  0
   57.7750   32.5150   43.2810 C   0  0  0  0  0  0  0  0  0  0  0  0
   57.9384   32.8492   42.2458 H   0  0  0  0  0  0  0  0  0  0  0  0
   58.0210   33.3880   44.3380 C   0  0  0  0  0  0  0  0  0  0  0  0
   58.3821   34.4087   44.1435 H   0  0  0  0  0  0  0  0  0  0  0  0
   57.8050   32.9550   45.6430 C   0  0  0  0  0  0  0  0  0  0  0  0
   57.9753   33.6414   46.4856 H   0  0  0  0  0  0  0  0  0  0  0  0
   57.3840   31.6850   45.8760 N   0  0  0  0  0  0  0  0  0  0  0  0
   57.1560   30.7890   44.8750 C   0  0  0  0  0  0  0  0  0  0  0  0
   56.7760   29.5880   45.2170 N   0  0  0  0  0  0  0  0  0  0  0  0
   57.2740   28.3200   44.7660 C   0  0  0  0  0  0  0  0  0  0  0  0
   57.4030   28.1320   43.5280 O   0  0  0  0  0  0  0  0  0  0  0  0
   57.5420   27.1990   45.7080 C   0  0  0  0  0  0  0  0  0  0  0  0
   56.4550   26.4680   46.2390 C   0  0  0  0  0  0  0  0  0  0  0  0
   55.1460   26.7820   45.8910 O   0  0  0  0  0  0  0  0  0  0  0  0
   56.6800   25.3990   47.1110 C   0  0  0  0  0  0  0  0  0  0  0  0
   55.8268   24.8390   47.5215 H   0  0  0  0  0  0  0  0  0  0  0  0
   57.9790   25.0390   47.4630 C   0  0  0  0  0  0  0  0  0  0  0  0
   58.1501   24.1870   48.1374 H   0  0  0  0  0  0  0  0  0  0  0  0
   59.0610   25.7580   46.9610 C   0  0  0  0  0  0  0  0  0  0  0  0
   60.0844   25.4680   47.2411 H   0  0  0  0  0  0  0  0  0  0  0  0
   58.8590   26.8480   46.1020 C   0  0  0  0  0  0  0  0  0  0  0  0
   60.3040   27.8270   45.6480 S   0  0  0  0  0  0  0  0  0  0  0  0
   59.8440   29.1450   46.7700 C   0  0  0  0  0  0  0  0  0  0  0  0
   60.1950   30.4820   46.4640 C   0  0  0  0  0  0  0  0  0  0  0  0
   60.6399   30.7198   45.4865 H   0  0  0  0  0  0  0  0  0  0  0  0
   59.9790   31.5070   47.4000 C   0  0  0  0  0  0  0  0  0  0  0  0
   60.2477   32.5499   47.1761 H   0  0  0  0  0  0  0  0  0  0  0  0
   59.4110   31.1530   48.6240 C   0  0  0  0  0  0  0  0  0  0  0  0
   59.1480   31.8570   49.7790 C   0  0  0  0  0  0  0  0  0  0  0  0
   59.4840   33.2610   50.0780 C   0  0  0  0  0  0  0  0  0  0  0  0
   58.6566   33.9470   50.3123 H   0  0  0  0  0  0  0  0  0  0  0  0
   60.7310   33.7600   50.0840 C   0  0  0  0  0  0  0  0  0  0  0  0
   61.0028   34.4359   50.9082 H   0  0  0  0  0  0  0  0  0  0  0  0
   61.7690   33.4710   49.0670 C   0  0  0  0  0  0  0  0  0  0  0  0
   62.8020   32.6250   49.3430 N   0  0  0  0  0  0  0  0  0  0  0  0
   63.7590   32.3290   48.4230 C   0  0  0  0  0  0  0  0  0  0  0  0
   64.5720   31.6336   48.6789 H   0  0  0  0  0  0  0  0  0  0  0  0
   63.7090   32.9080   47.1540 C   0  0  0  0  0  0  0  0  0  0  0  0
   64.4729   32.6646   46.4008 H   0  0  0  0  0  0  0  0  0  0  0  0
   62.6790   33.7990   46.8520 C   0  0  0  0  0  0  0  0  0  0  0  0
   62.6326   34.2712   45.8596 H   0  0  0  0  0  0  0  0  0  0  0  0
   61.7060   34.0910   47.8120 C   0  0  0  0  0  0  0  0  0  0  0  0
   60.8977   34.8015   47.5842 H   0  0  0  0  0  0  0  0  0  0  0  0
   58.5690   31.0180   50.6700 N   0  0  0  0  0  0  0  0  0  0  0  0
   58.4900   29.8040   50.1340 N   0  0  0  0  0  0  0  0  0  0  0  0
   59.0090   29.8770   48.8960 C   0  0  0  0  0  0  0  0  0  0  0  0
   59.2110   28.8380   47.9930 C   0  0  0  0  0  0  0  0  0  0  0  0
   58.8882   27.8123   48.2246 H   0  0  0  0  0  0  0  0  0  0  0  0
  1  2  1  0
  2  3  1  0
  3  4  2  0
  4  5  1  0
  4  6  1  0
  6  7  1  0
  6  8  2  0
  8  9  1  0
  8 10  1  0
 10 11  1  0
 11 12  2  3
 12 13  1  0
 13 14  2  0
 13 15  1  0
 15 16  2  0
 16 17  1  0
 16 18  1  0
 18 19  1  0
 18 20  2  0
 20 21  1  0
 20 22  1  0
 22 23  1  0
 22 24  2  0
 24 25  1  0
 25 26  1  0
 26 27  1  0
 27 28  1  0
 27 29  2  0
 29 30  1  0
 29 31  1  0
 31 32  2  0
 32 33  1  0
 33 34  1  0
 33 35  2  0
 35 36  1  0
 35 37  1  0
 37 38  2  0
 38 39  1  0
 39 40  1  0
 39 41  2  0
 41 42  1  0
 41 43  1  0
 43 44  1  0
 43 45  2  0
 45 46  1  0
 32 47  1  0
 47 48  1  0
 48 49  2  0
 49 50  1  0
 50 51  1  0
 11  3  1  0
 24 15  1  0
 50 26  2  0
 49 31  1  0
 45 37  1  0
M  CHG  3  10  -1  17  -1  47  -1
M  END
>  <UniqueID>  (13) 
11

>  <SMILES>  (13) 
O=C(N=c1[n-]cccc1O)c1c([O-])cccc1Sc1ccc2c(/C=C\c3ccccn3)[n-]nc2c1

>  <Energy>  (13) 
116.93554907706923

>  <Genealogy>  (13) 
O=C(N=c1[n-]cccc1O)c1c([O-])cccc1Sc1ccc2c(C=Cc3ccccn3)[n-]nc2c1 (protonated)
O=C(N=c1[n-]cccc1O)c1c([O-])cccc1Sc1ccc2c(/C=C\c3ccccn3)[n-]nc2c1 (cis-trans isomerization)
O=C(N=c1[n-]cccc1O)c1c([O-])cccc1Sc1ccc2c(/C=C\c3ccccn3)[n-]nc2c1 (3D coordinates assigned)
O=C(N=c1[n-]cccc1O)c1c([O-])cccc1Sc1ccc2c(/C=C\c3ccccn3)[n-]nc2c1 (optimized conformer: 116.93554907706923 kcal/mol)

>  <smiles>  (13) 
O=C(N=c1[nH]cccc1O)c1c(O)cccc1Sc1ccc2c(C=Cc3ccccn3)[nH]nc2c1

>  <score_type>  (13) 
oracle

>  <origin>  (13) 
adg

>  <m_score__min__energy>  (13) 
-15.83

>  <m_primary>  (13) 
energy

$$$$
13:0
     RDKit          3D

 54 57  0  0  0  0  0  0  0  0999 V2000
   57.4630   31.6200   43.0330 C   0  0  0  0  0  0  0  0  0  0  0  0
   57.9460   31.5610   44.4290 N   0  0  0  0  0  0  0  0  0  0  0  0
   58.2620   32.7260   45.0890 C   0  0  0  0  0  0  0  0  0  0  0  0
   58.0840   33.8380   44.5140 O   0  0  0  0  0  0  0  0  0  0  0  0
   58.7570   32.7020   46.3690 N   0  0  0  0  0  0  0  0  0  0  0  0
   59.1200   33.9630   47.0570 C   0  0  0  0  0  0  0  0  0  0  0  0
   60.5840   33.9710   47.4300 C   0  0  0  0  0  0  0  0  0  0  0  0
   61.5630   33.8010   46.4380 C   0  0  0  0  0  0  0  0  0  0  0  0
   62.9210   33.8250   46.7710 C   0  0  0  0  0  0  0  0  0  0  0  0
   63.3140   34.0210   48.0960 C   0  0  0  0  0  0  0  0  0  0  0  0
   62.3490   34.1890   49.0920 C   0  0  0  0  0  0  0  0  0  0  0  0
   60.9900   34.1630   48.7650 C   0  0  0  0  0  0  0  0  0  0  0  0
   60.0770   34.3170   49.7530 F   0  0  0  0  0  0  0  0  0  0  0  0
   58.9180   31.5100   47.0200 C   0  0  0  0  0  0  0  0  0  0  0  0
   59.3630   31.4880   48.2020 O   0  0  0  0  0  0  0  0  0  0  0  0
   58.5790   30.3060   46.3890 C   0  0  0  0  0  0  0  0  0  0  0  0
   58.7160   29.0720   47.0510 C   0  0  0  0  0  0  0  0  0  0  0  0
   58.3390   27.8870   46.4260 C   0  0  0  0  0  0  0  0  0  0  0  0
   57.8090   27.9050   45.1380 C   0  0  0  0  0  0  0  0  0  0  0  0
   57.3810   26.6870   44.5800 O   0  0  0  0  0  0  0  0  0  0  0  0
   57.1020   25.4960   45.3210 C   0  0  0  0  0  0  0  0  0  0  0  0
   55.7670   25.5990   45.9950 C   0  0  0  0  0  0  0  0  0  0  0  0
   55.1480   26.6970   45.9970 O   0  0  0  0  0  0  0  0  0  0  0  0
   55.2160   24.4530   46.6540 N   0  0  0  0  0  0  0  0  0  0  0  0
   54.5050   23.3950   45.9500 C   0  0  0  0  0  0  0  0  0  0  0  0
   55.4140   22.7420   44.9480 C   0  0  0  0  0  0  0  0  0  0  0  0
   55.4230   23.1840   43.6160 C   0  0  0  0  0  0  0  0  0  0  0  0
   56.2840   22.5960   42.6850 C   0  0  0  0  0  0  0  0  0  0  0  0
   57.1450   21.5690   43.0770 C   0  0  0  0  0  0  0  0  0  0  0  0
   57.1510   21.1330   44.4020 C   0  0  0  0  0  0  0  0  0  0  0  0
   56.2930   21.7200   45.3380 C   0  0  0  0  0  0  0  0  0  0  0  0
   57.7020   29.1290   44.4530 C   0  0  0  0  0  0  0  0  0  0  0  0
   58.0780   30.3480   45.0700 C   0  0  0  0  0  0  0  0  0  0  0  0
   56.3711   31.7534   43.0281 H   0  0  0  0  0  0  0  0  0  0  0  0
   57.9381   32.4668   42.5161 H   0  0  0  0  0  0  0  0  0  0  0  0
   57.7203   30.6837   42.5161 H   0  0  0  0  0  0  0  0  0  0  0  0
   58.9143   34.8109   46.3872 H   0  0  0  0  0  0  0  0  0  0  0  0
   58.5223   34.0464   47.9767 H   0  0  0  0  0  0  0  0  0  0  0  0
   61.2597   33.6479   45.3918 H   0  0  0  0  0  0  0  0  0  0  0  0
   63.6809   33.6892   45.9873 H   0  0  0  0  0  0  0  0  0  0  0  0
   64.3827   34.0431   48.3556 H   0  0  0  0  0  0  0  0  0  0  0  0
   62.6592   34.3421   50.1362 H   0  0  0  0  0  0  0  0  0  0  0  0
   59.1248   29.0436   48.0718 H   0  0  0  0  0  0  0  0  0  0  0  0
   58.4605   26.9292   46.9530 H   0  0  0  0  0  0  0  0  0  0  0  0
   57.0962   24.6358   44.6354 H   0  0  0  0  0  0  0  0  0  0  0  0
   57.8791   25.3635   46.0882 H   0  0  0  0  0  0  0  0  0  0  0  0
   54.1617   22.6423   46.6749 H   0  0  0  0  0  0  0  0  0  0  0  0
   53.6415   23.8288   45.4245 H   0  0  0  0  0  0  0  0  0  0  0  0
   54.7501   23.9961   43.3035 H   0  0  0  0  0  0  0  0  0  0  0  0
   56.2833   22.9431   41.6412 H   0  0  0  0  0  0  0  0  0  0  0  0
   57.8180   21.1041   42.3415 H   0  0  0  0  0  0  0  0  0  0  0  0
   57.8316   20.3261   44.7114 H   0  0  0  0  0  0  0  0  0  0  0  0
   56.3074   21.3792   46.3838 H   0  0  0  0  0  0  0  0  0  0  0  0
   57.3202   29.1400   43.4214 H   0  0  0  0  0  0  0  0  0  0  0  0
  1  2  1  0
  2  3  1  0
  3  4  2  0
  3  5  1  0
  5  6  1  0
  6  7  1  0
  7  8  2  0
  8  9  1  0
  9 10  2  0
 10 11  1  0
 11 12  2  0
 12 13  1  0
  5 14  1  0
 14 15  2  0
 14 16  1  0
 16 17  2  0
 17 18  1  0
 18 19  2  0
 19 20  1  0
 20 21  1  0
 21 22  1  0
 22 23  2  0
 22 24  1  0
 24 25  1  0
 25 26  1  0
 26 27  2  0
 27 28  1  0
 28 29  2  0
 29 30  1  0
 30 31  2  0
 19 32  1  0
 32 33  2  0
 33  2  1  0
 12  7  1  0
 33 16  1  0
 31 26  1  0
  1 34  1  0
  1 35  1  0
  1 36  1  0
  6 37  1  0
  6 38  1  0
  8 39  1  0
  9 40  1  0
 10 41  1  0
 11 42  1  0
 17 43  1  0
 18 44  1  0
 21 45  1  0
 21 46  1  0
 25 47  1  0
 25 48  1  0
 27 49  1  0
 28 50  1  0
 29 51  1  0
 30 52  1  0
 31 53  1  0
 32 54  1  0
M  CHG  1  24  -1
M  END
>  <UniqueID>  (14) 
12

>  <SMILES>  (14) 
Cn1c(=O)n(Cc2ccccc2F)c(=O)c2ccc(OCC(=O)[N-]Cc3ccccc3)cc21

>  <Energy>  (14) 
65.07543707370947

>  <Genealogy>  (14) 
Cn1c(=O)n(Cc2ccccc2F)c(=O)c2ccc(OCC(=O)[N-]Cc3ccccc3)cc21 (protonated)
Cn1c(=O)n(Cc2ccccc2F)c(=O)c2ccc(OCC(=O)[N-]Cc3ccccc3)cc21 (3D coordinates assigned)
Cn1c(=O)n(Cc2ccccc2F)c(=O)c2ccc(OCC(=O)[N-]Cc3ccccc3)cc21 (optimized conformer: 65.07543707370947 kcal/mol)

>  <smiles>  (14) 
Cn1c(=O)n(Cc2ccccc2F)c(=O)c2ccc(OCC(=O)NCc3ccccc3)cc21

>  <score_type>  (14) 
oracle

>  <origin>  (14) 
adg

>  <m_score__min__energy>  (14) 
-10.93

>  <m_primary>  (14) 
energy

$$$$
14:0
     RDKit          3D

 44 46  0  0  0  0  0  0  0  0999 V2000
   56.1550   24.4850   44.8830 O   0  0  0  0  0  0  0  0  0  0  0  0
   55.2350   25.1090   45.4770 C   0  0  0  0  0  0  0  0  0  0  0  0
   53.9060   24.4500   45.6850 C   0  0  0  0  0  0  0  0  0  0  0  0
   54.0550   23.1840   46.4960 C   0  0  0  0  0  0  0  0  0  0  0  0
   55.0560   23.1020   47.4840 C   0  0  0  0  0  0  0  0  0  0  0  0
   55.2220   21.9270   48.2280 C   0  0  0  0  0  0  0  0  0  0  0  0
   54.4040   20.8190   47.9780 C   0  0  0  0  0  0  0  0  0  0  0  0
   53.4140   20.8850   46.9910 C   0  0  0  0  0  0  0  0  0  0  0  0
   53.2390   22.0590   46.2460 C   0  0  0  0  0  0  0  0  0  0  0  0
   52.2540   22.0990   45.2610 O   0  0  0  0  0  0  0  0  0  0  0  0
   55.4450   26.4410   45.9710 N   0  0  0  0  0  0  0  0  0  0  0  0
   56.6030   27.2690   45.7750 C   0  0  0  0  0  0  0  0  0  0  0  0
   57.9020   26.8200   46.0830 C   0  0  0  0  0  0  0  0  0  0  0  0
   59.0020   27.6530   45.8730 C   0  0  0  0  0  0  0  0  0  0  0  0
   58.8260   28.9260   45.3280 C   0  0  0  0  0  0  0  0  0  0  0  0
   57.5470   29.3710   44.9690 C   0  0  0  0  0  0  0  0  0  0  0  0
   57.3470   30.9760   44.2500 S   0  0  0  0  0  0  0  0  0  0  0  0
   57.3330   30.8590   42.7500 O   0  0  0  0  0  0  0  0  0  0  0  0
   56.0350   31.5440   44.7170 O   0  0  0  0  0  0  0  0  0  0  0  0
   58.6680   32.0170   44.7510 N   0  0  0  0  0  0  0  0  0  0  0  0
   58.5460   33.3780   44.1770 C   0  0  0  0  0  0  0  0  0  0  0  0
   57.9930   34.4010   45.1860 C   0  0  0  0  0  0  0  0  0  0  0  0
   57.0650   33.7820   46.0480 O   0  0  0  0  0  0  0  0  0  0  0  0
   57.7320   32.8800   46.9160 C   0  0  0  0  0  0  0  0  0  0  0  0
   58.8240   32.0340   46.2160 C   0  0  0  0  0  0  0  0  0  0  0  0
   56.4330   28.5420   45.2030 C   0  0  0  0  0  0  0  0  0  0  0  0
   55.1520   28.9810   44.8800 O   0  0  0  0  0  0  0  0  0  0  0  0
   53.2393   25.1435   46.2185 H   0  0  0  0  0  0  0  0  0  0  0  0
   53.4835   24.1914   44.7028 H   0  0  0  0  0  0  0  0  0  0  0  0
   55.7108   23.9656   47.6721 H   0  0  0  0  0  0  0  0  0  0  0  0
   55.9951   21.8749   49.0087 H   0  0  0  0  0  0  0  0  0  0  0  0
   54.5396   19.8945   48.5585 H   0  0  0  0  0  0  0  0  0  0  0  0
   52.7715   20.0130   46.7995 H   0  0  0  0  0  0  0  0  0  0  0  0
   58.0501   25.8091   46.4906 H   0  0  0  0  0  0  0  0  0  0  0  0
   60.0113   27.3051   46.1379 H   0  0  0  0  0  0  0  0  0  0  0  0
   59.6957   29.5829   45.1797 H   0  0  0  0  0  0  0  0  0  0  0  0
   59.5411   33.7114   43.8474 H   0  0  0  0  0  0  0  0  0  0  0  0
   57.8370   33.3224   43.3378 H   0  0  0  0  0  0  0  0  0  0  0  0
   58.8232   34.8108   45.7799 H   0  0  0  0  0  0  0  0  0  0  0  0
   57.4887   35.2099   44.6371 H   0  0  0  0  0  0  0  0  0  0  0  0
   58.2055   33.4598   47.7220 H   0  0  0  0  0  0  0  0  0  0  0  0
   56.9742   32.1776   47.2933 H   0  0  0  0  0  0  0  0  0  0  0  0
   59.8096   32.4564   46.4615 H   0  0  0  0  0  0  0  0  0  0  0  0
   58.7283   30.9989   46.5756 H   0  0  0  0  0  0  0  0  0  0  0  0
  1  2  2  0
  2  3  1  0
  3  4  1  0
  4  5  2  0
  5  6  1  0
  6  7  2  0
  7  8  1  0
  8  9  2  0
  9 10  1  0
  2 11  1  0
 11 12  1  0
 12 13  2  0
 13 14  1  0
 14 15  2  0
 15 16  1  0
 16 17  1  0
 17 18  2  0
 17 19  2  0
 17 20  1  0
 20 21  1  0
 21 22  1  0
 22 23  1  0
 23 24  1  0
 24 25  1  0
 16 26  2  0
 26 27  1  0
  9  4  1  0
 26 12  1  0
 25 20  1  0
  3 28  1  0
  3 29  1  0
  5 30  1  0
  6 31  1  0
  7 32  1  0
  8 33  1  0
 13 34  1  0
 14 35  1  0
 15 36  1  0
 21 37  1  0
 21 38  1  0
 22 39  1  0
 22 40  1  0
 24 41  1  0
 24 42  1  0
 25 43  1  0
 25 44  1  0
M  CHG  3  10  -1  11  -1  27  -1
M  END
>  <UniqueID>  (15) 
13

>  <SMILES>  (15) 
O=C(Cc1ccccc1[O-])[N-]c1cccc(S(=O)(=O)N2CCOCC2)c1[O-]

>  <Energy>  (15) 
61.08293465347156

>  <Genealogy>  (15) 
O=C(Cc1ccccc1[O-])[N-]c1cccc(S(=O)(=O)N2CCOCC2)c1[O-] (protonated)
O=C(Cc1ccccc1[O-])[N-]c1cccc(S(=O)(=O)N2CCOCC2)c1[O-] (3D coordinates assigned)
O=C(Cc1ccccc1[O-])[N-]c1cccc(S(=O)(=O)N2CCOCC2)c1[O-] (nonaromatic ring conformer: 61.08293465347156 kcal/mol)

>  <smiles>  (15) 
O=C(Cc1ccccc1O)Nc1cccc(S(=O)(=O)N2CCOCC2)c1O

>  <score_type>  (15) 
oracle

>  <origin>  (15) 
adg

>  <m_score__min__energy>  (15) 
-17.18

>  <m_primary>  (15) 
energy

$$$$
15:0
     RDKit          3D

 29 30  0  0  0  0  0  0  0  0999 V2000
   54.6950   28.9680   45.3160 H   0  0  0  0  0  0  0  0  0  0  0  0
   55.6780   29.1720   45.1830 O   0  0  0  0  0  0  0  0  0  0  0  0
   56.6730   28.2140   45.3860 C   0  0  0  0  0  0  0  0  0  0  0  0
   56.3340   26.9170   45.8120 C   0  0  0  0  0  0  0  0  0  0  0  0
   55.0030   26.5630   46.0060 O   0  0  0  0  0  0  0  0  0  0  0  0
   57.3360   25.9720   46.0510 C   0  0  0  0  0  0  0  0  0  0  0  0
   57.0663   24.9574   46.3793 H   0  0  0  0  0  0  0  0  0  0  0  0
   58.6780   26.3130   45.8740 C   0  0  0  0  0  0  0  0  0  0  0  0
   59.4641   25.5693   46.0716 H   0  0  0  0  0  0  0  0  0  0  0  0
   59.0240   27.5950   45.4470 C   0  0  0  0  0  0  0  0  0  0  0  0
   60.0838   27.8606   45.3191 H   0  0  0  0  0  0  0  0  0  0  0  0
   58.0280   28.5500   45.1790 C   0  0  0  0  0  0  0  0  0  0  0  0
   58.4290   29.9030   44.7270 C   0  0  0  0  0  0  0  0  0  0  0  0
   59.4560   30.4300   45.2330 O   0  0  0  0  0  0  0  0  0  0  0  0
   57.6830   30.6630   43.7030 C   0  0  0  0  0  0  0  0  0  0  0  0
   57.0971   30.1065   42.9567 H   0  0  0  0  0  0  0  0  0  0  0  0
   57.6900   32.0040   43.6450 C   0  0  0  0  0  0  0  0  0  0  0  0
   57.3828   32.4824   42.7033 H   0  0  0  0  0  0  0  0  0  0  0  0
   58.0870   32.8790   44.7740 C   0  0  0  0  0  0  0  0  0  0  0  0
   59.0640   33.8890   44.6490 C   0  0  0  0  0  0  0  0  0  0  0  0
   59.5690   34.0451   43.6843 H   0  0  0  0  0  0  0  0  0  0  0  0
   59.3940   34.6930   45.7450 C   0  0  0  0  0  0  0  0  0  0  0  0
   60.1616   35.4740   45.6410 H   0  0  0  0  0  0  0  0  0  0  0  0
   58.7520   34.5070   46.9700 C   0  0  0  0  0  0  0  0  0  0  0  0
   59.0170   35.1377   47.8314 H   0  0  0  0  0  0  0  0  0  0  0  0
   57.7730   33.5200   47.1020 C   0  0  0  0  0  0  0  0  0  0  0  0
   57.2645   33.3768   48.0669 H   0  0  0  0  0  0  0  0  0  0  0  0
   57.4380   32.7140   46.0110 C   0  0  0  0  0  0  0  0  0  0  0  0
   56.6602   31.9439   46.1203 H   0  0  0  0  0  0  0  0  0  0  0  0
  1  2  1  0
  2  3  1  0
  3  4  2  0
  4  5  1  0
  4  6  1  0
  6  7  1  0
  6  8  2  0
  8  9  1  0
  8 10  1  0
 10 11  1  0
 10 12  2  0
 12 13  1  0
 13 14  2  0
 13 15  1  0
 15 16  1  0
 15 17  2  0
 17 18  1  0
 17 19  1  0
 19 20  2  0
 20 21  1  0
 20 22  1  0
 22 23  1  0
 22 24  2  0
 24 25  1  0
 24 26  1  0
 26 27  1  0
 26 28  2  0
 28 29  1  0
 12  3  1  0
 28 19  1  0
M  CHG  1   5  -1
M  END
>  <UniqueID>  (16) 
14

>  <SMILES>  (16) 
O=C(/C=C/c1ccccc1)c1cccc([O-])c1O

>  <Energy>  (16) 
38.525303112317964

>  <Genealogy>  (16) 
O=C(C=Cc1ccccc1)c1cccc([O-])c1O (protonated)
O=C(/C=C/c1ccccc1)c1cccc([O-])c1O (cis-trans isomerization)
O=C(/C=C/c1ccccc1)c1cccc([O-])c1O (3D coordinates assigned)
O=C(/C=C/c1ccccc1)c1cccc([O-])c1O (optimized conformer: 38.525303112317964 kcal/mol)

>  <smiles>  (16) 
O=C(C=Cc1ccccc1)c1cccc(O)c1O

>  <score_type>  (16) 
oracle

>  <origin>  (16) 
adg

>  <m_score__min__energy>  (16) 
-11.9

>  <m_primary>  (16) 
energy

$$$$
16:0
     RDKit          3D

 53 56  0  0  0  0  0  0  0  0999 V2000
   55.1470   28.6260   45.6310 H   0  0  0  0  0  0  0  0  0  0  0  0
   55.4950   29.3280   44.9420 N   0  0  0  0  0  0  0  0  0  0  0  0
   56.8930   29.5590   44.7730 C   0  0  0  0  0  0  0  0  0  0  0  0
   57.6280   28.6090   44.3910 O   0  0  0  0  0  0  0  0  0  0  0  0
   57.4740   30.8950   45.0410 C   0  0  0  0  0  0  0  0  0  0  0  0
   57.1830   31.9840   44.2010 C   0  0  0  0  0  0  0  0  0  0  0  0
   56.5015   31.8498   43.3481 H   0  0  0  0  0  0  0  0  0  0  0  0
   57.7540   33.2350   44.4430 C   0  0  0  0  0  0  0  0  0  0  0  0
   57.5283   34.0788   43.7744 H   0  0  0  0  0  0  0  0  0  0  0  0
   58.6100   33.4190   45.5300 C   0  0  0  0  0  0  0  0  0  0  0  0
   59.0678   34.4038   45.7051 H   0  0  0  0  0  0  0  0  0  0  0  0
   58.8890   32.3580   46.3980 C   0  0  0  0  0  0  0  0  0  0  0  0
   59.8210   32.5660   47.4710 N   0  0  0  0  0  0  0  0  0  0  0  0
   59.8400   31.9400   48.6110 C   0  0  0  0  0  0  0  0  0  0  0  0
   58.7130   31.6730   49.3010 N   0  0  0  0  0  0  0  0  0  0  0  0
   58.9650   30.9890   50.4530 C   0  0  0  0  0  0  0  0  0  0  0  0
   57.8720   30.6090   51.3810 C   0  0  0  0  0  0  0  0  0  0  0  0
   58.0760   29.6480   52.3900 C   0  0  0  0  0  0  0  0  0  0  0  0
   59.0532   29.1514   52.4818 H   0  0  0  0  0  0  0  0  0  0  0  0
   57.0460   29.3210   53.2750 C   0  0  0  0  0  0  0  0  0  0  0  0
   57.2196   28.5717   54.0614 H   0  0  0  0  0  0  0  0  0  0  0  0
   55.7930   29.9400   53.1690 C   0  0  0  0  0  0  0  0  0  0  0  0
   54.7470   29.6060   54.1020 N   0  0  0  0  0  0  0  0  0  0  0  0
   53.7990   28.5670   53.7680 C   0  0  0  0  0  0  0  0  0  0  0  0
   54.2170   27.4080   53.4940 O   0  0  0  0  0  0  0  0  0  0  0  0
   52.3150   28.8220   53.6960 C   0  0  0  0  0  0  0  0  0  0  0  0
   51.8001   27.8802   53.4552 H   0  0  0  0  0  0  0  0  0  0  0  0
   51.9798   29.2085   54.6698 H   0  0  0  0  0  0  0  0  0  0  0  0
   51.9900   29.8440   52.6390 C   0  0  0  0  0  0  0  0  0  0  0  0
   51.4690   31.0990   52.9940 C   0  0  0  0  0  0  0  0  0  0  0  0
   51.3007   31.3417   54.0536 H   0  0  0  0  0  0  0  0  0  0  0  0
   51.1630   32.0420   52.0070 C   0  0  0  0  0  0  0  0  0  0  0  0
   50.7618   33.0251   52.2943 H   0  0  0  0  0  0  0  0  0  0  0  0
   51.3650   31.7400   50.6570 C   0  0  0  0  0  0  0  0  0  0  0  0
   51.0520   32.6880   49.6850 O   0  0  0  0  0  0  0  0  0  0  0  0
   51.5870   32.7620   48.8260 H   0  0  0  0  0  0  0  0  0  0  0  0
   51.8760   30.4860   50.2950 C   0  0  0  0  0  0  0  0  0  0  0  0
   52.0351   30.2438   49.2339 H   0  0  0  0  0  0  0  0  0  0  0  0
   52.1840   29.5420   51.2800 C   0  0  0  0  0  0  0  0  0  0  0  0
   52.5802   28.5578   50.9895 H   0  0  0  0  0  0  0  0  0  0  0  0
   54.7110   30.2790   55.4050 C   0  0  0  0  0  0  0  0  0  0  0  0
   54.7512   29.5274   56.2071 H   0  0  0  0  0  0  0  0  0  0  0  0
   55.5743   30.9551   55.4924 H   0  0  0  0  0  0  0  0  0  0  0  0
   53.7805   30.8592   55.4924 H   0  0  0  0  0  0  0  0  0  0  0  0
   55.5800   30.8910   52.1560 C   0  0  0  0  0  0  0  0  0  0  0  0
   54.3360   31.4960   52.0070 O   0  0  0  0  0  0  0  0  0  0  0  0
   56.6150   31.2270   51.2780 C   0  0  0  0  0  0  0  0  0  0  0  0
   56.4429   31.9835   50.4982 H   0  0  0  0  0  0  0  0  0  0  0  0
   60.3150   30.6920   50.6680 C   0  0  0  0  0  0  0  0  0  0  0  0
   60.7253   30.1474   51.5312 H   0  0  0  0  0  0  0  0  0  0  0  0
   61.2030   31.3100   49.3810 S   0  0  0  0  0  0  0  0  0  0  0  0
   58.3390   31.0910   46.1350 C   0  0  0  0  0  0  0  0  0  0  0  0
   58.5871   30.2435   46.7909 H   0  0  0  0  0  0  0  0  0  0  0  0
  1  2  1  0
  2  3  1  0
  3  4  2  0
  3  5  1  0
  5  6  2  0
  6  7  1  0
  6  8  1  0
  8  9  1  0
  8 10  2  0
 10 11  1  0
 10 12  1  0
 12 13  1  0
 13 14  2  0
 14 15  1  0
 15 16  1  0
 16 17  1  0
 17 18  2  0
 18 19  1  0
 18 20  1  0
 20 21  1  0
 20 22  2  0
 22 23  1  0
 23 24  1  0
 24 25  2  0
 24 26  1  0
 26 27  1  0
 26 28  1  0
 26 29  1  0
 29 30  2  0
 30 31  1  0
 30 32  1  0
 32 33  1  0
 32 34  2  0
 34 35  1  0
 35 36  1  0
 34 37  1  0
 37 38  1  0
 37 39  2  0
 39 40  1  0
 23 41  1  0
 41 42  1  0
 41 43  1  0
 41 44  1  0
 22 45  1  0
 45 46  1  0
 45 47  2  0
 47 48  1  0
 16 49  2  0
 49 50  1  0
 49 51  1  0
 12 52  2  0
 52 53  1  0
 52  5  1  0
 51 14  1  0
 47 17  1  0
 39 29  1  0
M  CHG  3   2  -1  15  -1  46  -1
M  END
>  <UniqueID>  (17) 
15

>  <SMILES>  (17) 
CN(C(=O)Cc1ccc(O)cc1)c1ccc(-c2cs/c(=N\c3cccc(C([NH-])=O)c3)[n-]2)cc1[O-]

>  <Energy>  (17) 
103.13326836802236

>  <Genealogy>  (17) 
CN(C(=O)Cc1ccc(O)cc1)c1ccc(-c2csc(=Nc3cccc(C([NH-])=O)c3)[n-]2)cc1[O-] (protonated)
CN(C(=O)Cc1ccc(O)cc1)c1ccc(-c2cs/c(=N\c3cccc(C([NH-])=O)c3)[n-]2)cc1[O-] (cis-trans isomerization)
CN(C(=O)Cc1ccc(O)cc1)c1ccc(-c2cs/c(=N\c3cccc(C([NH-])=O)c3)[n-]2)cc1[O-] (3D coordinates assigned)
CN(C(=O)Cc1ccc(O)cc1)c1ccc(-c2cs/c(=N\c3cccc(C([NH-])=O)c3)[n-]2)cc1[O-] (optimized conformer: 103.13326836802236 kcal/mol)

>  <smiles>  (17) 
CN(C(=O)Cc1ccc(O)cc1)c1ccc(-c2csc(=Nc3cccc(C(N)=O)c3)[nH]2)cc1O

>  <score_type>  (17) 
oracle

>  <origin>  (17) 
adg

>  <m_score__min__energy>  (17) 
-15.17

>  <m_primary>  (17) 
energy

$$$$
17:0
     RDKit          3D

 35 36  0  0  0  0  0  0  0  0999 V2000
   59.1610   35.0040   44.8670 C   0  0  0  0  0  0  0  0  0  0  0  0
   59.0680   34.2310   46.1500 C   0  0  0  0  0  0  0  0  0  0  0  0
   60.0790   34.3310   47.1190 C   0  0  0  0  0  0  0  0  0  0  0  0
   59.9720   33.6290   48.3230 C   0  0  0  0  0  0  0  0  0  0  0  0
   58.8530   32.8200   48.5750 C   0  0  0  0  0  0  0  0  0  0  0  0
   58.7190   32.0790   49.8770 C   0  0  0  0  0  0  0  0  0  0  0  0
   59.0600   30.6720   49.6970 N   0  0  0  0  0  0  0  0  0  0  0  0
   59.9460   30.1970   48.6800 C   0  0  0  0  0  0  0  0  0  0  0  0
   61.1900   30.3820   48.7800 O   0  0  0  0  0  0  0  0  0  0  0  0
   59.3980   29.4980   47.5130 C   0  0  0  0  0  0  0  0  0  0  0  0
   59.0950   28.1510   47.4390 C   0  0  0  0  0  0  0  0  0  0  0  0
   58.6080   27.9460   46.1660 C   0  0  0  0  0  0  0  0  0  0  0  0
   58.6450   29.1820   45.5490 C   0  0  0  0  0  0  0  0  0  0  0  0
   58.1740   29.4830   44.1630 C   0  0  0  0  0  0  0  0  0  0  0  0
   56.4860   30.0600   44.1970 S   0  0  0  0  0  0  0  0  0  0  0  0
   55.5160   28.9930   45.1490 N   0  0  0  0  0  0  0  0  0  0  0  0
   56.4490   31.4340   44.8020 O   0  0  0  0  0  0  0  0  0  0  0  0
   55.9400   30.1200   42.7980 O   0  0  0  0  0  0  0  0  0  0  0  0
   59.1180   30.0870   46.3730 O   0  0  0  0  0  0  0  0  0  0  0  0
   57.8340   32.7360   47.6130 C   0  0  0  0  0  0  0  0  0  0  0  0
   57.9400   33.4390   46.4090 C   0  0  0  0  0  0  0  0  0  0  0  0
   59.2896   36.0731   45.0916 H   0  0  0  0  0  0  0  0  0  0  0  0
   60.0225   34.6455   44.2845 H   0  0  0  0  0  0  0  0  0  0  0  0
   58.2391   34.8600   44.2845 H   0  0  0  0  0  0  0  0  0  0  0  0
   60.9585   34.9641   46.9300 H   0  0  0  0  0  0  0  0  0  0  0  0
   60.7688   33.7110   49.0769 H   0  0  0  0  0  0  0  0  0  0  0  0
   59.3974   32.5246   50.6194 H   0  0  0  0  0  0  0  0  0  0  0  0
   57.6781   32.1529   50.2249 H   0  0  0  0  0  0  0  0  0  0  0  0
   59.2173   27.3986   48.2320 H   0  0  0  0  0  0  0  0  0  0  0  0
   58.2620   26.9964   45.7317 H   0  0  0  0  0  0  0  0  0  0  0  0
   58.8150   30.2608   43.7224 H   0  0  0  0  0  0  0  0  0  0  0  0
   58.2273   28.5654   43.5588 H   0  0  0  0  0  0  0  0  0  0  0  0
   54.5400   29.3670   45.1340 H   0  0  0  0  0  0  0  0  0  0  0  0
   56.9478   32.1140   47.8074 H   0  0  0  0  0  0  0  0  0  0  0  0
   57.1354   33.3706   45.6620 H   0  0  0  0  0  0  0  0  0  0  0  0
  1  2  1  0
  2  3  2  0
  3  4  1  0
  4  5  2  0
  5  6  1  0
  6  7  1  0
  7  8  1  0
  8  9  2  0
  8 10  1  0
 10 11  2  0
 11 12  1  0
 12 13  2  0
 13 14  1  0
 14 15  1  0
 15 16  1  0
 15 17  2  0
 15 18  2  0
 13 19  1  0
  5 20  1  0
 20 21  2  0
 21  2  1  0
 19 10  1  0
  1 22  1  0
  1 23  1  0
  1 24  1  0
  3 25  1  0
  4 26  1  0
  6 27  1  0
  6 28  1  0
 11 29  1  0
 12 30  1  0
 14 31  1  0
 14 32  1  0
 16 33  1  0
 20 34  1  0
 21 35  1  0
M  CHG  2   7  -1  16  -1
M  END
>  <UniqueID>  (18) 
16

>  <SMILES>  (18) 
Cc1ccc(C[N-]C(=O)c2ccc(CS([NH-])(=O)=O)o2)cc1

>  <Energy>  (18) 
50.07600776262706

>  <Genealogy>  (18) 
Cc1ccc(C[N-]C(=O)c2ccc(CS([NH-])(=O)=O)o2)cc1 (protonated)
Cc1ccc(C[N-]C(=O)c2ccc(CS([NH-])(=O)=O)o2)cc1 (3D coordinates assigned)
Cc1ccc(C[N-]C(=O)c2ccc(CS([NH-])(=O)=O)o2)cc1 (optimized conformer: 50.07600776262706 kcal/mol)

>  <smiles>  (18) 
Cc1ccc(CNC(=O)c2ccc(CS(N)(=O)=O)o2)cc1

>  <score_type>  (18) 
oracle

>  <origin>  (18) 
adg

>  <m_score__min__energy>  (18) 
-12.529999999999999

>  <m_primary>  (18) 
energy

$$$$
18:0
     RDKit          3D

 51 54  0  0  0  0  0  0  0  0999 V2000
   60.3630   32.2590   49.4480 C   0  0  0  0  0  0  0  0  0  0  0  0
   59.9640   32.9600   48.2110 N   0  0  0  0  0  0  0  0  0  0  0  0
   60.3040   34.2840   48.0370 C   0  0  0  0  0  0  0  0  0  0  0  0
   60.9490   34.9100   48.9230 O   0  0  0  0  0  0  0  0  0  0  0  0
   59.9420   34.9690   46.8760 C   0  0  0  0  0  0  0  0  0  0  0  0
   59.2290   34.3190   45.8810 C   0  0  0  0  0  0  0  0  0  0  0  0
   58.8720   32.9810   46.0430 C   0  0  0  0  0  0  0  0  0  0  0  0
   58.1480   32.3210   45.0390 C   0  0  0  0  0  0  0  0  0  0  0  0
   57.7800   30.9820   45.1950 C   0  0  0  0  0  0  0  0  0  0  0  0
   56.8550   30.1790   43.9300 S   0  0  0  0  0  0  0  0  0  0  0  0
   56.6500   31.0900   42.7520 O   0  0  0  0  0  0  0  0  0  0  0  0
   55.5140   29.7910   44.4850 O   0  0  0  0  0  0  0  0  0  0  0  0
   57.6940   28.7520   43.4080 N   0  0  0  0  0  0  0  0  0  0  0  0
   58.4020   27.8690   44.2950 C   0  0  0  0  0  0  0  0  0  0  0  0
   59.6530   28.2100   44.8410 C   0  0  0  0  0  0  0  0  0  0  0  0
   60.3060   27.3320   45.7090 C   0  0  0  0  0  0  0  0  0  0  0  0
   59.7310   26.1020   46.0320 C   0  0  0  0  0  0  0  0  0  0  0  0
   58.4980   25.7280   45.4740 C   0  0  0  0  0  0  0  0  0  0  0  0
   57.8830   24.4240   45.8080 C   0  0  0  0  0  0  0  0  0  0  0  0
   57.6900   24.1330   47.0200 O   0  0  0  0  0  0  0  0  0  0  0  0
   57.4860   23.4890   44.7860 N   0  0  0  0  0  0  0  0  0  0  0  0
   57.6990   22.0510   44.9710 C   0  0  0  0  0  0  0  0  0  0  0  0
   56.5130   21.2760   44.3890 C   0  0  0  0  0  0  0  0  0  0  0  0
   56.2550   21.6730   43.0550 O   0  0  0  0  0  0  0  0  0  0  0  0
   55.8430   23.0270   43.0280 C   0  0  0  0  0  0  0  0  0  0  0  0
   56.9800   23.9470   43.4860 C   0  0  0  0  0  0  0  0  0  0  0  0
   57.8330   26.6240   44.6200 C   0  0  0  0  0  0  0  0  0  0  0  0
   58.1400   30.2960   46.3580 C   0  0  0  0  0  0  0  0  0  0  0  0
   58.8610   30.9410   47.3660 C   0  0  0  0  0  0  0  0  0  0  0  0
   59.2450   32.2960   47.2300 C   0  0  0  0  0  0  0  0  0  0  0  0
   60.0323   32.8399   50.3216 H   0  0  0  0  0  0  0  0  0  0  0  0
   59.8964   31.2632   49.4719 H   0  0  0  0  0  0  0  0  0  0  0  0
   61.4575   32.1517   49.4719 H   0  0  0  0  0  0  0  0  0  0  0  0
   60.2227   36.0252   46.7507 H   0  0  0  0  0  0  0  0  0  0  0  0
   58.9452   34.8579   44.9650 H   0  0  0  0  0  0  0  0  0  0  0  0
   57.8680   32.8612   44.1226 H   0  0  0  0  0  0  0  0  0  0  0  0
   57.6000   28.4900   42.3990 H   0  0  0  0  0  0  0  0  0  0  0  0
   60.1189   29.1725   44.5831 H   0  0  0  0  0  0  0  0  0  0  0  0
   61.2786   27.6114   46.1403 H   0  0  0  0  0  0  0  0  0  0  0  0
   60.2461   25.4225   46.7269 H   0  0  0  0  0  0  0  0  0  0  0  0
   58.6223   21.7485   44.4553 H   0  0  0  0  0  0  0  0  0  0  0  0
   57.7874   21.8304   46.0450 H   0  0  0  0  0  0  0  0  0  0  0  0
   56.7424   20.2003   44.4065 H   0  0  0  0  0  0  0  0  0  0  0  0
   55.6217   21.4891   44.9974 H   0  0  0  0  0  0  0  0  0  0  0  0
   55.5519   23.2957   42.0018 H   0  0  0  0  0  0  0  0  0  0  0  0
   54.9898   23.1513   43.7110 H   0  0  0  0  0  0  0  0  0  0  0  0
   57.7935   23.9210   42.7460 H   0  0  0  0  0  0  0  0  0  0  0  0
   56.6036   24.9762   43.5808 H   0  0  0  0  0  0  0  0  0  0  0  0
   56.8545   26.3483   44.1999 H   0  0  0  0  0  0  0  0  0  0  0  0
   57.8538   29.2410   46.4807 H   0  0  0  0  0  0  0  0  0  0  0  0
   59.1337   30.3883   48.2771 H   0  0  0  0  0  0  0  0  0  0  0  0
  1  2  1  0
  2  3  1  0
  3  4  2  0
  3  5  1  0
  5  6  2  0
  6  7  1  0
  7  8  2  0
  8  9  1  0
  9 10  1  0
 10 11  2  0
 10 12  2  0
 10 13  1  0
 13 14  1  0
 14 15  2  0
 15 16  1  0
 16 17  2  0
 17 18  1  0
 18 19  1  0
 19 20  2  0
 19 21  1  0
 21 22  1  0
 22 23  1  0
 23 24  1  0
 24 25  1  0
 25 26  1  0
 18 27  2  0
  9 28  2  0
 28 29  1  0
 29 30  2  0
 30  2  1  0
 30  7  1  0
 27 14  1  0
 26 21  1  0
  1 31  1  0
  1 32  1  0
  1 33  1  0
  5 34  1  0
  6 35  1  0
  8 36  1  0
 13 37  1  0
 15 38  1  0
 16 39  1  0
 17 40  1  0
 22 41  1  0
 22 42  1  0
 23 43  1  0
 23 44  1  0
 25 45  1  0
 25 46  1  0
 26 47  1  0
 26 48  1  0
 27 49  1  0
 28 50  1  0
 29 51  1  0
M  END
>  <UniqueID>  (19) 
17

>  <SMILES>  (19) 
Cn1c(=O)ccc2cc(S(=O)(=O)Nc3cccc(C(=O)N4CCOCC4)c3)ccc21

>  <Energy>  (19) 
73.39885206981994

>  <Genealogy>  (19) 
Cn1c(=O)ccc2cc(S(=O)(=O)Nc3cccc(C(=O)N4CCOCC4)c3)ccc21 (3D coordinates assigned)
Cn1c(=O)ccc2cc(S(=O)(=O)Nc3cccc(C(=O)N4CCOCC4)c3)ccc21 (nonaromatic ring conformer: 73.39885206981994 kcal/mol)

>  <smiles>  (19) 
Cn1c(=O)ccc2cc(S(=O)(=O)Nc3cccc(C(=O)N4CCOCC4)c3)ccc21

>  <score_type>  (19) 
oracle

>  <origin>  (19) 
adg

>  <m_score__min__energy>  (19) 
-10.710000000000001

>  <m_primary>  (19) 
energy

$$$$
19:0
     RDKit          3D

 80 84  0  0  0  0  0  0  0  0999 V2000
   60.7802   35.2645   45.7138 H   0  0  0  0  0  0  0  0  0  0  0  0
   60.7730   34.4170   46.4150 C   0  0  0  0  0  0  0  0  0  0  0  0
   59.5800   33.9580   46.8230 C   0  0  0  0  0  0  0  0  0  0  0  0
   59.1575   34.3966   47.7391 H   0  0  0  0  0  0  0  0  0  0  0  0
   58.7860   32.9120   46.1440 C   0  0  0  0  0  0  0  0  0  0  0  0
   58.1550   33.2100   44.9280 C   0  0  0  0  0  0  0  0  0  0  0  0
   58.2823   34.2041   44.4747 H   0  0  0  0  0  0  0  0  0  0  0  0
   57.3640   32.2490   44.2880 C   0  0  0  0  0  0  0  0  0  0  0  0
   56.8894   32.4844   43.3240 H   0  0  0  0  0  0  0  0  0  0  0  0
   57.1730   30.9830   44.8720 C   0  0  0  0  0  0  0  0  0  0  0  0
   56.3910   29.9850   44.2700 O   0  0  0  0  0  0  0  0  0  0  0  0
   56.2910   29.7800   42.8650 C   0  0  0  0  0  0  0  0  0  0  0  0
   55.8164   28.8071   42.6693 H   0  0  0  0  0  0  0  0  0  0  0  0
   55.6824   30.5810   42.4200 H   0  0  0  0  0  0  0  0  0  0  0  0
   57.2969   29.7935   42.4200 H   0  0  0  0  0  0  0  0  0  0  0  0
   57.7800   30.7010   46.1000 C   0  0  0  0  0  0  0  0  0  0  0  0
   57.6349   29.7153   46.5661 H   0  0  0  0  0  0  0  0  0  0  0  0
   58.5690   31.6600   46.7400 C   0  0  0  0  0  0  0  0  0  0  0  0
   59.0225   31.4327   47.7160 H   0  0  0  0  0  0  0  0  0  0  0  0
   62.0800   33.8670   46.8390 C   0  0  0  0  0  0  0  0  0  0  0  0
   63.0120   33.4530   46.0110 O   0  0  0  0  0  0  0  0  0  0  0  0
   64.0710   33.0440   46.6460 N   0  0  0  0  0  0  0  0  0  0  0  0
   63.8310   33.2040   47.9610 C   0  0  0  0  0  0  0  0  0  0  0  0
   64.8240   32.8410   49.0170 C   0  0  0  0  0  0  0  0  0  0  0  0
   64.3793   33.0036   50.0099 H   0  0  0  0  0  0  0  0  0  0  0  0
   65.1035   31.7826   48.9092 H   0  0  0  0  0  0  0  0  0  0  0  0
   65.7202   33.4697   48.9092 H   0  0  0  0  0  0  0  0  0  0  0  0
   62.5590   33.7300   48.1360 C   0  0  0  0  0  0  0  0  0  0  0  0
   61.7560   34.1710   49.6580 S   0  0  0  0  0  0  0  0  0  0  0  0
   60.4920   34.9250   49.3570 O   0  0  0  0  0  0  0  0  0  0  0  0
   62.6480   35.0910   50.4420 O   0  0  0  0  0  0  0  0  0  0  0  0
   61.3690   32.7760   50.6420 N   0  0  0  0  0  0  0  0  0  0  0  0
   59.9500   32.3920   50.4710 C   0  0  0  0  0  0  0  0  0  0  0  0
   59.3189   33.0928   51.0372 H   0  0  0  0  0  0  0  0  0  0  0  0
   59.7085   32.4282   49.3985 H   0  0  0  0  0  0  0  0  0  0  0  0
   59.6910   30.9680   50.9760 C   0  0  0  0  0  0  0  0  0  0  0  0
   59.9752   30.9053   52.0368 H   0  0  0  0  0  0  0  0  0  0  0  0
   58.6224   30.7402   50.8491 H   0  0  0  0  0  0  0  0  0  0  0  0
   60.5160   29.9330   50.1680 C   0  0  0  0  0  0  0  0  0  0  0  0
   60.8229   29.1651   50.8933 H   0  0  0  0  0  0  0  0  0  0  0  0
   59.6950   29.2760   49.0850 C   0  0  0  0  0  0  0  0  0  0  0  0
   58.4850   29.5940   48.9370 O   0  0  0  0  0  0  0  0  0  0  0  0
   60.3040   28.3240   48.2000 N   0  0  0  0  0  0  0  0  0  0  0  0
   61.1680   27.8300   48.5200 H   0  0  0  0  0  0  0  0  0  0  0  0
   59.7520   27.9640   46.9230 C   0  0  0  0  0  0  0  0  0  0  0  0
   60.1520   28.6170   45.7500 C   0  0  0  0  0  0  0  0  0  0  0  0
   60.8922   29.4291   45.8008 H   0  0  0  0  0  0  0  0  0  0  0  0
   59.6170   28.2430   44.5200 C   0  0  0  0  0  0  0  0  0  0  0  0
   59.9289   28.7754   43.6094 H   0  0  0  0  0  0  0  0  0  0  0  0
   58.6830   27.1940   44.4240 C   0  0  0  0  0  0  0  0  0  0  0  0
   58.0870   26.9000   43.0750 C   0  0  0  0  0  0  0  0  0  0  0  0
   57.1073   26.4167   43.2044 H   0  0  0  0  0  0  0  0  0  0  0  0
   57.9615   27.8396   42.5169 H   0  0  0  0  0  0  0  0  0  0  0  0
   58.7562   26.2286   42.5169 H   0  0  0  0  0  0  0  0  0  0  0  0
   58.3150   26.4860   45.6010 C   0  0  0  0  0  0  0  0  0  0  0  0
   57.1860   25.1040   45.6170 S   0  0  0  0  0  0  0  0  0  0  0  0
   57.5260   24.2460   46.8040 O   0  0  0  0  0  0  0  0  0  0  0  0
   55.7700   25.5700   45.8040 O   0  0  0  0  0  0  0  0  0  0  0  0
   57.2910   24.1010   44.1790 N   0  0  0  0  0  0  0  0  0  0  0  0
   57.9110   22.7870   44.4430 C   0  0  0  0  0  0  0  0  0  0  0  0
   58.5959   22.5425   43.6177 H   0  0  0  0  0  0  0  0  0  0  0  0
   58.4543   22.8469   45.3976 H   0  0  0  0  0  0  0  0  0  0  0  0
   56.8510   21.6770   44.5590 C   0  0  0  0  0  0  0  0  0  0  0  0
   57.3642   20.7245   44.7577 H   0  0  0  0  0  0  0  0  0  0  0  0
   56.1712   21.9620   45.3755 H   0  0  0  0  0  0  0  0  0  0  0  0
   56.0580   21.5260   43.3860 O   0  0  0  0  0  0  0  0  0  0  0  0
   55.9150   22.7250   42.6330 C   0  0  0  0  0  0  0  0  0  0  0  0
   56.7194   22.7641   41.8837 H   0  0  0  0  0  0  0  0  0  0  0  0
   54.9170   22.7010   42.1711 H   0  0  0  0  0  0  0  0  0  0  0  0
   55.9870   24.0000   43.4930 C   0  0  0  0  0  0  0  0  0  0  0  0
   55.8518   24.8790   42.8456 H   0  0  0  0  0  0  0  0  0  0  0  0
   55.1929   23.9562   44.2530 H   0  0  0  0  0  0  0  0  0  0  0  0
   58.8470   26.8990   46.8360 C   0  0  0  0  0  0  0  0  0  0  0  0
   58.5453   26.3735   47.7541 H   0  0  0  0  0  0  0  0  0  0  0  0
   61.7870   30.5540   49.5460 C   0  0  0  0  0  0  0  0  0  0  0  0
   62.5522   29.7721   49.4318 H   0  0  0  0  0  0  0  0  0  0  0  0
   61.5287   30.9811   48.5657 H   0  0  0  0  0  0  0  0  0  0  0  0
   62.3380   31.6710   50.4410 C   0  0  0  0  0  0  0  0  0  0  0  0
   62.5914   31.2428   51.4220 H   0  0  0  0  0  0  0  0  0  0  0  0
   63.2218   32.0921   49.9395 H   0  0  0  0  0  0  0  0  0  0  0  0
  1  2  1  0
  2  3  2  0
  3  4  1  0
  3  5  1  0
  5  6  2  0
  6  7  1  0
  6  8  1  0
  8  9  1  0
  8 10  2  0
 10 11  1  0
 11 12  1  0
 12 13  1  0
 12 14  1  0
 12 15  1  0
 10 16  1  0
 16 17  1  0
 16 18  2  0
 18 19  1  0
  2 20  1  0
 20 21  1  0
 21 22  1  0
 22 23  2  0
 23 24  1  0
 24 25  1  0
 24 26  1  0
 24 27  1  0
 23 28  1  0
 28 29  1  0
 29 30  2  0
 29 31  2  0
 29 32  1  0
 32 33  1  0
 33 34  1  0
 33 35  1  0
 33 36  1  0
 36 37  1  0
 36 38  1  0
 36 39  1  0
 39 40  1  0
 39 41  1  0
 41 42  2  0
 41 43  1  0
 43 44  1  0
 43 45  1  0
 45 46  2  0
 46 47  1  0
 46 48  1  0
 48 49  1  0
 48 50  2  0
 50 51  1  0
 51 52  1  0
 51 53  1  0
 51 54  1  0
 50 55  1  0
 55 56  1  0
 56 57  2  0
 56 58  2  0
 56 59  1  0
 59 60  1  0
 60 61  1  0
 60 62  1  0
 60 63  1  0
 63 64  1  0
 63 65  1  0
 63 66  1  0
 66 67  1  0
 67 68  1  0
 67 69  1  0
 67 70  1  0
 70 71  1  0
 70 72  1  0
 55 73  2  0
 73 74  1  0
 39 75  1  0
 75 76  1  0
 75 77  1  0
 75 78  1  0
 78 79  1  0
 78 80  1  0
 18  5  1  0
 28 20  2  0
 78 32  1  0
 73 45  1  0
 70 59  1  0
M  END
>  <UniqueID>  (20) 
18

>  <SMILES>  (20) 
COc1ccc(/C=C\c2onc(C)c2S(=O)(=O)N2CCC(C(=O)Nc3ccc(C)c(S(=O)(=O)N4CCOCC4)c3)CC2)cc1

>  <Energy>  (20) 
144.65369336000566

>  <Genealogy>  (20) 
COc1ccc(/C=C\c2onc(C)c2S(=O)(=O)N2CCC(C(=O)Nc3ccc(C)c(S(=O)(=O)N4CCOCC4)c3)CC2)cc1 (cis-trans isomerization)
COc1ccc(/C=C\c2onc(C)c2S(=O)(=O)N2CCC(C(=O)Nc3ccc(C)c(S(=O)(=O)N4CCOCC4)c3)CC2)cc1 (3D coordinates assigned)
COc1ccc(/C=C\c2onc(C)c2S(=O)(=O)N2CCC(C(=O)Nc3ccc(C)c(S(=O)(=O)N4CCOCC4)c3)CC2)cc1 (nonaromatic ring conformer: 144.65369336000566 kcal/mol)

>  <smiles>  (20) 
COc1ccc(C=Cc2onc(C)c2S(=O)(=O)N2CCC(C(=O)Nc3ccc(C)c(S(=O)(=O)N4CCOCC4)c3)CC2)cc1

>  <score_type>  (20) 
oracle

>  <origin>  (20) 
adg

>  <m_score__min__energy>  (20) 
-12.300000000000001

>  <m_primary>  (20) 
energy

$$$$
20:0
     RDKit          3D

 73 77  0  0  0  0  0  0  0  0999 V2000
   56.7690   31.7629   41.8919 H   0  0  0  0  0  0  0  0  0  0  0  0
   57.0150   31.3420   42.8780 C   0  0  0  0  0  0  0  0  0  0  0  0
   57.4240   32.1610   43.8810 N   0  0  0  0  0  0  0  0  0  0  0  0
   57.7410   31.6890   45.1180 C   0  0  0  0  0  0  0  0  0  0  0  0
   58.0750   32.5450   46.0430 N   0  0  0  0  0  0  0  0  0  0  0  0
   59.4140   32.8030   46.4860 C   0  0  0  0  0  0  0  0  0  0  0  0
   60.0860   31.8400   47.2480 C   0  0  0  0  0  0  0  0  0  0  0  0
   59.5561   30.9350   47.5799 H   0  0  0  0  0  0  0  0  0  0  0  0
   61.4290   32.0260   47.5880 C   0  0  0  0  0  0  0  0  0  0  0  0
   61.9540   31.2645   48.1835 H   0  0  0  0  0  0  0  0  0  0  0  0
   62.1110   33.1820   47.1720 C   0  0  0  0  0  0  0  0  0  0  0  0
   63.5750   33.3600   47.4930 C   0  0  0  0  0  0  0  0  0  0  0  0
   64.1169   32.4633   47.1579 H   0  0  0  0  0  0  0  0  0  0  0  0
   63.9130   34.2688   46.9735 H   0  0  0  0  0  0  0  0  0  0  0  0
   63.8410   33.5570   48.9350 N   0  0  0  0  0  0  0  0  0  0  0  0
   64.4980   32.4410   49.6420 C   0  0  0  0  0  0  0  0  0  0  0  0
   65.0184   31.8156   48.9017 H   0  0  0  0  0  0  0  0  0  0  0  0
   65.1937   32.8797   50.3725 H   0  0  0  0  0  0  0  0  0  0  0  0
   63.5090   31.5550   50.4240 C   0  0  0  0  0  0  0  0  0  0  0  0
   62.9122   30.9746   49.7050 H   0  0  0  0  0  0  0  0  0  0  0  0
   64.0987   30.9021   51.0843 H   0  0  0  0  0  0  0  0  0  0  0  0
   62.5910   32.3390   51.2760 N   0  0  0  0  0  0  0  0  0  0  0  0
   61.8740   31.6690   51.6470 H   0  0  0  0  0  0  0  0  0  0  0  0
   63.2700   32.9190   52.4510 C   0  0  0  0  0  0  0  0  0  0  0  0
   62.8109   32.5268   53.3704 H   0  0  0  0  0  0  0  0  0  0  0  0
   64.3360   32.6483   52.4292 H   0  0  0  0  0  0  0  0  0  0  0  0
   63.1693   34.0142   52.4292 H   0  0  0  0  0  0  0  0  0  0  0  0
   61.8680   33.3510   50.4830 C   0  0  0  0  0  0  0  0  0  0  0  0
   61.2143   32.8336   49.7654 H   0  0  0  0  0  0  0  0  0  0  0  0
   61.2929   33.9724   51.1852 H   0  0  0  0  0  0  0  0  0  0  0  0
   62.8120   34.2860   49.7030 C   0  0  0  0  0  0  0  0  0  0  0  0
   62.2117   34.8859   49.0032 H   0  0  0  0  0  0  0  0  0  0  0  0
   63.3346   34.9146   50.4390 H   0  0  0  0  0  0  0  0  0  0  0  0
   61.4110   34.1780   46.4690 C   0  0  0  0  0  0  0  0  0  0  0  0
   61.9197   35.1132   46.1923 H   0  0  0  0  0  0  0  0  0  0  0  0
   60.0710   33.9850   46.1200 C   0  0  0  0  0  0  0  0  0  0  0  0
   59.5322   34.7618   45.5576 H   0  0  0  0  0  0  0  0  0  0  0  0
   57.6530   30.3030   45.3680 C   0  0  0  0  0  0  0  0  0  0  0  0
   57.9107   29.9045   46.3604 H   0  0  0  0  0  0  0  0  0  0  0  0
   57.2360   29.4340   44.3480 C   0  0  0  0  0  0  0  0  0  0  0  0
   57.1410   27.9780   44.5960 C   0  0  0  0  0  0  0  0  0  0  0  0
   57.9180   27.1830   44.0000 O   0  0  0  0  0  0  0  0  0  0  0  0
   56.2100   27.4790   45.5650 N   0  0  0  0  0  0  0  0  0  0  0  0
   56.0570   26.1070   45.9550 C   0  0  0  0  0  0  0  0  0  0  0  0
   54.9010   25.3780   45.6280 C   0  0  0  0  0  0  0  0  0  0  0  0
   54.1073   25.8489   45.0294 H   0  0  0  0  0  0  0  0  0  0  0  0
   54.7560   24.0580   46.0600 C   0  0  0  0  0  0  0  0  0  0  0  0
   53.8512   23.4903   45.7971 H   0  0  0  0  0  0  0  0  0  0  0  0
   55.7590   23.4570   46.8260 C   0  0  0  0  0  0  0  0  0  0  0  0
   55.6438   22.4163   47.1632 H   0  0  0  0  0  0  0  0  0  0  0  0
   56.9090   24.1780   47.1640 C   0  0  0  0  0  0  0  0  0  0  0  0
   57.6972   23.7039   47.7674 H   0  0  0  0  0  0  0  0  0  0  0  0
   57.0580   25.5030   46.7350 C   0  0  0  0  0  0  0  0  0  0  0  0
   58.2500   26.2250   47.0600 N   0  0  0  0  0  0  0  0  0  0  0  0
   58.1550   27.6080   47.5290 C   0  0  0  0  0  0  0  0  0  0  0  0
   57.5648   27.6351   48.4569 H   0  0  0  0  0  0  0  0  0  0  0  0
   57.6686   28.2134   46.7500 H   0  0  0  0  0  0  0  0  0  0  0  0
   59.5530   28.1850   47.8030 C   0  0  0  0  0  0  0  0  0  0  0  0
   59.9665   27.6953   48.6970 H   0  0  0  0  0  0  0  0  0  0  0  0
   59.4417   29.2698   47.9474 H   0  0  0  0  0  0  0  0  0  0  0  0
   60.4910   27.9780   46.6720 N   0  0  0  0  0  0  0  0  0  0  0  0
   60.3940   29.0690   45.6870 C   0  0  0  0  0  0  0  0  0  0  0  0
   60.3084   30.0313   46.2130 H   0  0  0  0  0  0  0  0  0  0  0  0
   61.2952   29.0747   45.0563 H   0  0  0  0  0  0  0  0  0  0  0  0
   59.5059   28.9157   45.0563 H   0  0  0  0  0  0  0  0  0  0  0  0
   60.4080   26.6480   46.0090 C   0  0  0  0  0  0  0  0  0  0  0  0
   61.4264   26.2453   45.9054 H   0  0  0  0  0  0  0  0  0  0  0  0
   59.9213   26.7995   45.0343 H   0  0  0  0  0  0  0  0  0  0  0  0
   59.5610   25.6350   46.7870 C   0  0  0  0  0  0  0  0  0  0  0  0
   60.0597   25.3878   47.7358 H   0  0  0  0  0  0  0  0  0  0  0  0
   59.4405   24.7162   46.1943 H   0  0  0  0  0  0  0  0  0  0  0  0
   56.9060   29.9680   43.0950 C   0  0  0  0  0  0  0  0  0  0  0  0
   56.5625   29.3066   42.2859 H   0  0  0  0  0  0  0  0  0  0  0  0
  1  2  1  0
  2  3  1  0
  3  4  1  0
  4  5  2  0
  5  6  1  0
  6  7  2  0
  7  8  1  0
  7  9  1  0
  9 10  1  0
  9 11  2  0
 11 12  1  0
 12 13  1  0
 12 14  1  0
 12 15  1  0
 15 16  1  0
 16 17  1  0
 16 18  1  0
 16 19  1  0
 19 20  1  0
 19 21  1  0
 19 22  1  0
 22 23  1  0
 22 24  1  0
 24 25  1  0
 24 26  1  0
 24 27  1  0
 22 28  1  0
 28 29  1  0
 28 30  1  0
 28 31  1  0
 31 32  1  0
 31 33  1  0
 11 34  1  0
 34 35  1  0
 34 36  2  0
 36 37  1  0
  4 38  1  0
 38 39  1  0
 38 40  2  0
 40 41  1  0
 41 42  2  0
 41 43  1  0
 43 44  1  0
 44 45  2  0
 45 46  1  0
 45 47  1  0
 47 48  1  0
 47 49  2  0
 49 50  1  0
 49 51  1  0
 51 52  1  0
 51 53  2  0
 53 54  1  0
 54 55  1  0
 55 56  1  0
 55 57  1  0
 55 58  1  0
 58 59  1  0
 58 60  1  0
 58 61  1  0
 61 62  1  0
 62 63  1  0
 62 64  1  0
 62 65  1  0
 61 66  1  0
 66 67  1  0
 66 68  1  0
 66 69  1  0
 69 70  1  0
 69 71  1  0
 40 72  1  0
 72 73  1  0
 72  2  2  0
 36  6  1  0
 53 44  1  0
 69 54  1  0
 31 15  1  0
M  CHG  3   3  -1  22   1  43  -1
M  END
>  <UniqueID>  (21) 
19

>  <SMILES>  (21) 
CN1CCN(c2ccccc2[N-]C(=O)c2cc[n-]/c(=N/c3ccc(CN4CC[NH+](C)CC4)cc3)c2)CC1

>  <Energy>  (21) 
114.50564284725236

>  <Genealogy>  (21) 
CN1CCN(c2ccccc2[N-]C(=O)c2cc[n-]c(=Nc3ccc(CN4CC[NH+](C)CC4)cc3)c2)CC1 (protonated)
CN1CCN(c2ccccc2[N-]C(=O)c2cc[n-]/c(=N/c3ccc(CN4CC[NH+](C)CC4)cc3)c2)CC1 (cis-trans isomerization)
CN1CCN(c2ccccc2[N-]C(=O)c2cc[n-]/c(=N/c3ccc(CN4CC[NH+](C)CC4)cc3)c2)CC1 (3D coordinates assigned)
CN1CCN(c2ccccc2[N-]C(=O)c2cc[n-]/c(=N/c3ccc(CN4CC[NH+](C)CC4)cc3)c2)CC1 (nonaromatic ring conformer: 114.50564284725236 kcal/mol)

>  <smiles>  (21) 
CN1CCN(Cc2ccc(N=c3cc(C(=O)Nc4ccccc4N4CCN(C)CC4)cc[nH]3)cc2)CC1

>  <score_type>  (21) 
oracle

>  <origin>  (21) 
adg

>  <m_score__min__energy>  (21) 
-11.58

>  <m_primary>  (21) 
energy

$$$$
21:0
     RDKit          3D

 64 67  0  0  0  0  0  0  0  0999 V2000
   59.3070   34.6340   45.1220 C   0  0  0  0  0  0  0  0  0  0  0  0
   58.5350   33.3870   44.8080 C   0  0  0  0  0  0  0  0  0  0  0  0
   58.3020   33.0250   43.4730 C   0  0  0  0  0  0  0  0  0  0  0  0
   57.6260   31.8400   43.1700 C   0  0  0  0  0  0  0  0  0  0  0  0
   57.1820   31.0000   44.1990 C   0  0  0  0  0  0  0  0  0  0  0  0
   56.3780   29.4860   43.7990 S   0  0  0  0  0  0  0  0  0  0  0  0
   57.2930   28.5990   43.0000 O   0  0  0  0  0  0  0  0  0  0  0  0
   55.1610   29.7890   42.9730 O   0  0  0  0  0  0  0  0  0  0  0  0
   55.8900   28.6580   45.2450 N   0  0  0  0  0  0  0  0  0  0  0  0
   57.0650   28.1620   45.9580 C   0  0  0  0  0  0  0  0  0  0  0  0
   56.8270   26.7180   46.3840 C   0  0  0  0  0  0  0  0  0  0  0  0
   57.9600   26.2410   47.1780 N   0  0  0  0  0  0  0  0  0  0  0  0
   59.4650   26.6840   46.4290 S   0  0  0  0  0  0  0  0  0  0  0  0
   60.4760   25.6080   46.7030 O   0  0  0  0  0  0  0  0  0  0  0  0
   59.2690   26.7530   44.9400 O   0  0  0  0  0  0  0  0  0  0  0  0
   60.0430   28.2660   46.9980 C   0  0  0  0  0  0  0  0  0  0  0  0
   60.1230   29.3050   46.0560 C   0  0  0  0  0  0  0  0  0  0  0  0
   60.6660   30.5440   46.3990 C   0  0  0  0  0  0  0  0  0  0  0  0
   61.1670   30.7540   47.6810 C   0  0  0  0  0  0  0  0  0  0  0  0
   61.1030   29.7340   48.6290 C   0  0  0  0  0  0  0  0  0  0  0  0
   60.5020   28.5020   48.3220 C   0  0  0  0  0  0  0  0  0  0  0  0
   60.4070   27.2630   49.6340 S   0  0  0  0  0  0  0  0  0  0  0  0
   60.8730   28.3950   50.9560 C   0  0  0  0  0  0  0  0  0  0  0  0
   62.1240   28.2340   51.5700 C   0  0  0  0  0  0  0  0  0  0  0  0
   62.5220   29.0870   52.6000 C   0  0  0  0  0  0  0  0  0  0  0  0
   61.6570   30.0840   53.0510 C   0  0  0  0  0  0  0  0  0  0  0  0
   60.3940   30.2300   52.4740 C   0  0  0  0  0  0  0  0  0  0  0  0
   59.9880   29.3900   51.4190 C   0  0  0  0  0  0  0  0  0  0  0  0
   58.6610   29.4650   50.8820 N   0  0  0  0  0  0  0  0  0  0  0  0
   57.6090   30.2920   51.3900 C   0  0  0  0  0  0  0  0  0  0  0  0
   56.6610   29.7610   52.0310 O   0  0  0  0  0  0  0  0  0  0  0  0
   57.5620   31.6840   51.0610 N   0  0  0  0  0  0  0  0  0  0  0  0
   58.6180   32.4150   50.4240 C   0  0  0  0  0  0  0  0  0  0  0  0
   59.6200   32.9900   51.2140 C   0  0  0  0  0  0  0  0  0  0  0  0
   60.6230   33.7660   50.6260 C   0  0  0  0  0  0  0  0  0  0  0  0
   60.6180   33.9880   49.2460 C   0  0  0  0  0  0  0  0  0  0  0  0
   59.6150   33.4250   48.4510 C   0  0  0  0  0  0  0  0  0  0  0  0
   58.6190   32.6360   49.0350 C   0  0  0  0  0  0  0  0  0  0  0  0
   57.4050   31.3630   45.5370 C   0  0  0  0  0  0  0  0  0  0  0  0
   58.0880   32.5450   45.8390 C   0  0  0  0  0  0  0  0  0  0  0  0
   59.3814   34.7542   46.2129 H   0  0  0  0  0  0  0  0  0  0  0  0
   60.3165   34.5584   44.6917 H   0  0  0  0  0  0  0  0  0  0  0  0
   58.7892   35.5039   44.6917 H   0  0  0  0  0  0  0  0  0  0  0  0
   58.6533   33.6775   42.6601 H   0  0  0  0  0  0  0  0  0  0  0  0
   57.4421   31.5663   42.1206 H   0  0  0  0  0  0  0  0  0  0  0  0
   57.9427   28.2095   45.2966 H   0  0  0  0  0  0  0  0  0  0  0  0
   57.2436   28.7829   46.8483 H   0  0  0  0  0  0  0  0  0  0  0  0
   55.9091   26.6621   46.9876 H   0  0  0  0  0  0  0  0  0  0  0  0
   56.7212   26.0884   45.4883 H   0  0  0  0  0  0  0  0  0  0  0  0
   59.7524   29.1397   45.0336 H   0  0  0  0  0  0  0  0  0  0  0  0
   60.6982   31.3548   45.6564 H   0  0  0  0  0  0  0  0  0  0  0  0
   61.6130   31.7241   47.9456 H   0  0  0  0  0  0  0  0  0  0  0  0
   61.5286   29.8959   49.6303 H   0  0  0  0  0  0  0  0  0  0  0  0
   62.7961   27.4294   51.2370 H   0  0  0  0  0  0  0  0  0  0  0  0
   63.5167   28.9734   53.0558 H   0  0  0  0  0  0  0  0  0  0  0  0
   61.9706   30.7566   53.8629 H   0  0  0  0  0  0  0  0  0  0  0  0
   59.7106   31.0073   52.8464 H   0  0  0  0  0  0  0  0  0  0  0  0
   59.6182   32.8306   52.3024 H   0  0  0  0  0  0  0  0  0  0  0  0
   61.4170   34.2023   51.2499 H   0  0  0  0  0  0  0  0  0  0  0  0
   61.4031   34.6056   48.7854 H   0  0  0  0  0  0  0  0  0  0  0  0
   59.6094   33.6028   47.3655 H   0  0  0  0  0  0  0  0  0  0  0  0
   57.8351   32.1875   48.4070 H   0  0  0  0  0  0  0  0  0  0  0  0
   57.0416   30.7162   46.3491 H   0  0  0  0  0  0  0  0  0  0  0  0
   58.2759   32.8164   46.8883 H   0  0  0  0  0  0  0  0  0  0  0  0
  1  2  1  0
  2  3  2  0
  3  4  1  0
  4  5  2  0
  5  6  1  0
  6  7  2  0
  6  8  2  0
  6  9  1  0
  9 10  1  0
 10 11  1  0
 11 12  1  0
 12 13  1  0
 13 14  2  0
 13 15  2  0
 13 16  1  0
 16 17  2  0
 17 18  1  0
 18 19  2  0
 19 20  1  0
 20 21  2  0
 21 22  1  0
 22 23  1  0
 23 24  2  0
 24 25  1  0
 25 26  2  0
 26 27  1  0
 27 28  2  0
 28 29  1  0
 29 30  1  0
 30 31  2  0
 30 32  1  0
 32 33  1  0
 33 34  2  0
 34 35  1  0
 35 36  2  0
 36 37  1  0
 37 38  2  0
  5 39  1  0
 39 40  2  0
 40  2  1  0
 21 16  1  0
 28 23  1  0
 38 33  1  0
  1 41  1  0
  1 42  1  0
  1 43  1  0
  3 44  1  0
  4 45  1  0
 10 46  1  0
 10 47  1  0
 11 48  1  0
 11 49  1  0
 17 50  1  0
 18 51  1  0
 19 52  1  0
 20 53  1  0
 24 54  1  0
 25 55  1  0
 26 56  1  0
 27 57  1  0
 34 58  1  0
 35 59  1  0
 36 60  1  0
 37 61  1  0
 38 62  1  0
 39 63  1  0
 40 64  1  0
M  CHG  4   9  -1  12  -1  29  -1  32  -1
M  END
>  <UniqueID>  (22) 
20

>  <SMILES>  (22) 
Cc1ccc(S(=O)(=O)[N-]CC[N-]S(=O)(=O)c2ccccc2Sc2ccccc2[N-]C(=O)[N-]c2ccccc2)cc1

>  <Energy>  (22) 
63.74887754223892

>  <Genealogy>  (22) 
Cc1ccc(S(=O)(=O)[N-]CC[N-]S(=O)(=O)c2ccccc2Sc2ccccc2[N-]C(=O)[N-]c2ccccc2)cc1 (protonated)
Cc1ccc(S(=O)(=O)[N-]CC[N-]S(=O)(=O)c2ccccc2Sc2ccccc2[N-]C(=O)[N-]c2ccccc2)cc1 (3D coordinates assigned)
Cc1ccc(S(=O)(=O)[N-]CC[N-]S(=O)(=O)c2ccccc2Sc2ccccc2[N-]C(=O)[N-]c2ccccc2)cc1 (optimized conformer: 63.74887754223892 kcal/mol)

>  <smiles>  (22) 
Cc1ccc(S(=O)(=O)NCCNS(=O)(=O)c2ccccc2Sc2ccccc2NC(=O)Nc2ccccc2)cc1

>  <score_type>  (22) 
oracle

>  <origin>  (22) 
adg

>  <m_score__min__energy>  (22) 
-15

>  <m_primary>  (22) 
energy

$$$$
22:0
     RDKit          3D

 65 69  0  0  0  0  0  0  0  0999 V2000
   63.0370   33.1010   48.9660 N   0  0  0  0  0  0  0  0  0  0  0  0
   62.1730   31.9230   48.0450 S   0  0  0  0  0  0  0  0  0  0  0  0
   63.1020   31.2540   47.0730 O   0  0  0  0  0  0  0  0  0  0  0  0
   61.6310   30.8750   48.9790 O   0  0  0  0  0  0  0  0  0  0  0  0
   60.8400   32.6980   47.1750 C   0  0  0  0  0  0  0  0  0  0  0  0
   60.8890   34.0860   46.9630 C   0  0  0  0  0  0  0  0  0  0  0  0
   59.8220   34.7520   46.3540 C   0  0  0  0  0  0  0  0  0  0  0  0
   58.6930   34.0410   45.9480 C   0  0  0  0  0  0  0  0  0  0  0  0
   58.6330   32.6580   46.1360 C   0  0  0  0  0  0  0  0  0  0  0  0
   59.7050   31.9720   46.7350 C   0  0  0  0  0  0  0  0  0  0  0  0
   59.5980   30.5090   46.8950 C   0  0  0  0  0  0  0  0  0  0  0  0
   58.8960   29.9710   47.9820 C   0  0  0  0  0  0  0  0  0  0  0  0
   58.7830   28.5880   48.1330 C   0  0  0  0  0  0  0  0  0  0  0  0
   59.3860   27.7160   47.2070 C   0  0  0  0  0  0  0  0  0  0  0  0
   59.2330   26.2170   47.3120 C   0  0  0  0  0  0  0  0  0  0  0  0
   57.8350   25.7790   47.1870 N   0  0  0  0  0  0  0  0  0  0  0  0
   56.8630   26.2530   46.3750 C   0  0  0  0  0  0  0  0  0  0  0  0
   57.0570   27.2690   45.3210 C   0  0  0  0  0  0  0  0  0  0  0  0
   56.7240   28.6030   45.6070 C   0  0  0  0  0  0  0  0  0  0  0  0
   56.8850   29.5990   44.6430 C   0  0  0  0  0  0  0  0  0  0  0  0
   57.3990   29.2780   43.3870 C   0  0  0  0  0  0  0  0  0  0  0  0
   57.7550   27.9630   43.0920 C   0  0  0  0  0  0  0  0  0  0  0  0
   57.5770   26.9400   44.0440 C   0  0  0  0  0  0  0  0  0  0  0  0
   57.8920   25.5140   43.6430 C   0  0  0  0  0  0  0  0  0  0  0  0
   56.7000   24.6650   43.6250 N   0  0  0  0  0  0  0  0  0  0  0  0
   56.6780   23.2360   43.7490 C   0  0  0  0  0  0  0  0  0  0  0  0
   55.8710   22.5790   43.0400 O   0  0  0  0  0  0  0  0  0  0  0  0
   57.6060   22.5250   44.6920 C   0  0  0  0  0  0  0  0  0  0  0  0
   57.0240   20.8480   45.1350 S   0  0  0  0  0  0  0  0  0  0  0  0
   55.9040   21.4770   46.3880 C   0  0  0  0  0  0  0  0  0  0  0  0
   56.2600   21.4150   47.7420 C   0  0  0  0  0  0  0  0  0  0  0  0
   55.3700   21.8680   48.7210 C   0  0  0  0  0  0  0  0  0  0  0  0
   54.1230   22.3870   48.3510 C   0  0  0  0  0  0  0  0  0  0  0  0
   53.7660   22.4490   47.0000 C   0  0  0  0  0  0  0  0  0  0  0  0
   54.6560   22.0000   46.0180 C   0  0  0  0  0  0  0  0  0  0  0  0
   55.6940   25.6110   46.5790 N   0  0  0  0  0  0  0  0  0  0  0  0
   55.9040   24.7030   47.5210 N   0  0  0  0  0  0  0  0  0  0  0  0
   57.1990   24.8080   47.8690 C   0  0  0  0  0  0  0  0  0  0  0  0
   57.7440   24.0840   48.7420 O   0  0  0  0  0  0  0  0  0  0  0  0
   60.0560   28.2600   46.0980 C   0  0  0  0  0  0  0  0  0  0  0  0
   60.1600   29.6460   45.9430 C   0  0  0  0  0  0  0  0  0  0  0  0
   62.5230   34.0050   48.8690 H   0  0  0  0  0  0  0  0  0  0  0  0
   61.7761   34.6542   47.2796 H   0  0  0  0  0  0  0  0  0  0  0  0
   59.8727   35.8392   46.1945 H   0  0  0  0  0  0  0  0  0  0  0  0
   57.8495   34.5693   45.4796 H   0  0  0  0  0  0  0  0  0  0  0  0
   57.7408   32.1014   45.8132 H   0  0  0  0  0  0  0  0  0  0  0  0
   58.4318   30.6419   48.7198 H   0  0  0  0  0  0  0  0  0  0  0  0
   58.2182   28.1762   48.9824 H   0  0  0  0  0  0  0  0  0  0  0  0
   59.8222   25.7462   46.5112 H   0  0  0  0  0  0  0  0  0  0  0  0
   59.5876   25.9159   48.3088 H   0  0  0  0  0  0  0  0  0  0  0  0
   56.3323   28.8654   46.6009 H   0  0  0  0  0  0  0  0  0  0  0  0
   56.6064   30.6378   44.8739 H   0  0  0  0  0  0  0  0  0  0  0  0
   57.5237   30.0640   42.6276 H   0  0  0  0  0  0  0  0  0  0  0  0
   58.1791   27.7217   42.1061 H   0  0  0  0  0  0  0  0  0  0  0  0
   58.3373   25.5197   42.6372 H   0  0  0  0  0  0  0  0  0  0  0  0
   58.5876   25.1011   44.3884 H   0  0  0  0  0  0  0  0  0  0  0  0
   58.5933   22.4391   44.2146 H   0  0  0  0  0  0  0  0  0  0  0  0
   57.6495   23.1149   45.6195 H   0  0  0  0  0  0  0  0  0  0  0  0
   57.2398   21.0099   48.0349 H   0  0  0  0  0  0  0  0  0  0  0  0
   55.6499   21.8166   49.7835 H   0  0  0  0  0  0  0  0  0  0  0  0
   53.4251   22.7455   49.1220 H   0  0  0  0  0  0  0  0  0  0  0  0
   52.7844   22.8512   46.7091 H   0  0  0  0  0  0  0  0  0  0  0  0
   54.3769   22.0572   44.9555 H   0  0  0  0  0  0  0  0  0  0  0  0
   60.5016   27.5913   45.3469 H   0  0  0  0  0  0  0  0  0  0  0  0
   60.6851   30.0613   45.0702 H   0  0  0  0  0  0  0  0  0  0  0  0
  1  2  1  0
  2  3  2  0
  2  4  2  0
  2  5  1  0
  5  6  2  0
  6  7  1  0
  7  8  2  0
  8  9  1  0
  9 10  2  0
 10 11  1  0
 11 12  2  0
 12 13  1  0
 13 14  2  0
 14 15  1  0
 15 16  1  0
 16 17  1  0
 17 18  1  0
 18 19  2  0
 19 20  1  0
 20 21  2  0
 21 22  1  0
 22 23  2  0
 23 24  1  0
 24 25  1  0
 25 26  1  0
 26 27  2  0
 26 28  1  0
 28 29  1  0
 29 30  1  0
 30 31  2  0
 31 32  1  0
 32 33  2  0
 33 34  1  0
 34 35  2  0
 17 36  2  0
 36 37  1  0
 37 38  1  0
 38 39  2  0
 14 40  1  0
 40 41  2  0
 10  5  1  0
 41 11  1  0
 38 16  1  0
 23 18  1  0
 35 30  1  0
  1 42  1  0
  6 43  1  0
  7 44  1  0
  8 45  1  0
  9 46  1  0
 12 47  1  0
 13 48  1  0
 15 49  1  0
 15 50  1  0
 19 51  1  0
 20 52  1  0
 21 53  1  0
 22 54  1  0
 24 55  1  0
 24 56  1  0
 28 57  1  0
 28 58  1  0
 31 59  1  0
 32 60  1  0
 33 61  1  0
 34 62  1  0
 35 63  1  0
 40 64  1  0
 41 65  1  0
M  CHG  3   1  -1  25  -1  37  -1
M  END
>  <UniqueID>  (23) 
21

>  <SMILES>  (23) 
[NH-]S(=O)(=O)c1ccccc1-c1ccc(Cn2c(-c3ccccc3C[N-]C(=O)CSc3ccccc3)n[n-]c2=O)cc1

>  <Energy>  (23) 
116.38629984197648

>  <Genealogy>  (23) 
[NH-]S(=O)(=O)c1ccccc1-c1ccc(Cn2c(-c3ccccc3C[N-]C(=O)CSc3ccccc3)n[n-]c2=O)cc1 (protonated)
[NH-]S(=O)(=O)c1ccccc1-c1ccc(Cn2c(-c3ccccc3C[N-]C(=O)CSc3ccccc3)n[n-]c2=O)cc1 (3D coordinates assigned)
[NH-]S(=O)(=O)c1ccccc1-c1ccc(Cn2c(-c3ccccc3C[N-]C(=O)CSc3ccccc3)n[n-]c2=O)cc1 (optimized conformer: 116.38629984197648 kcal/mol)

>  <smiles>  (23) 
NS(=O)(=O)c1ccccc1-c1ccc(Cn2c(-c3ccccc3CNC(=O)CSc3ccccc3)n[nH]c2=O)cc1

>  <score_type>  (23) 
oracle

>  <origin>  (23) 
adg

>  <m_score__min__energy>  (23) 
-14.76

>  <m_primary>  (23) 
energy

$$$$
23:0
     RDKit          3D

 52 55  0  0  0  0  0  0  0  0999 V2000
   58.1490   35.3310   51.9870 H   0  0  0  0  0  0  0  0  0  0  0  0
   58.7950   34.5510   51.9960 O   0  0  0  0  0  0  0  0  0  0  0  0
   58.3480   33.2300   52.0150 C   0  0  0  0  0  0  0  0  0  0  0  0
   57.7790   32.7030   53.1840 C   0  0  0  0  0  0  0  0  0  0  0  0
   57.6835   33.3358   54.0787 H   0  0  0  0  0  0  0  0  0  0  0  0
   57.3330   31.3800   53.2190 C   0  0  0  0  0  0  0  0  0  0  0  0
   56.8863   30.9745   54.1388 H   0  0  0  0  0  0  0  0  0  0  0  0
   57.4540   30.5720   52.0870 C   0  0  0  0  0  0  0  0  0  0  0  0
   57.1053   29.5292   52.1164 H   0  0  0  0  0  0  0  0  0  0  0  0
   58.0180   31.0870   50.9160 C   0  0  0  0  0  0  0  0  0  0  0  0
   58.1118   30.4456   50.0273 H   0  0  0  0  0  0  0  0  0  0  0  0
   58.4660   32.4180   50.8660 C   0  0  0  0  0  0  0  0  0  0  0  0
   59.0880   32.9370   49.5920 C   0  0  0  0  0  0  0  0  0  0  0  0
   60.1786   32.8025   49.6416 H   0  0  0  0  0  0  0  0  0  0  0  0
   58.8398   34.0034   49.4857 H   0  0  0  0  0  0  0  0  0  0  0  0
   58.5610   32.2060   48.4180 N   0  0  0  0  0  0  0  0  0  0  0  0
   59.5730   31.3770   47.7330 C   0  0  0  0  0  0  0  0  0  0  0  0
   59.0643   30.7418   46.9929 H   0  0  0  0  0  0  0  0  0  0  0  0
   60.0858   30.7791   48.5009 H   0  0  0  0  0  0  0  0  0  0  0  0
   60.6420   32.2160   47.0090 C   0  0  0  0  0  0  0  0  0  0  0  0
   61.0256   31.6333   46.1586 H   0  0  0  0  0  0  0  0  0  0  0  0
   61.4276   32.4453   47.7440 H   0  0  0  0  0  0  0  0  0  0  0  0
   60.1090   33.5600   46.4790 C   0  0  0  0  0  0  0  0  0  0  0  0
   60.6062   33.7778   45.5223 H   0  0  0  0  0  0  0  0  0  0  0  0
   60.3261   34.3172   47.2468 H   0  0  0  0  0  0  0  0  0  0  0  0
   58.5860   33.5750   46.2500 C   0  0  1  0  0  0  0  0  0  0  0  0
   58.3157   34.6326   46.1142 H   0  0  0  0  0  0  0  0  0  0  0  0
   58.1820   32.8450   44.9820 C   0  0  0  0  0  0  0  0  0  0  0  0
   57.4290   31.7120   45.0470 N   0  0  0  0  0  0  0  0  0  0  0  0
   57.0050   31.0470   43.9390 C   0  0  0  0  0  0  0  0  0  0  0  0
   56.1830   29.8360   44.1050 C   0  0  0  0  0  0  0  0  0  0  0  0
   55.4970   29.3940   43.1420 O   0  0  0  0  0  0  0  0  0  0  0  0
   56.2510   29.1070   45.3380 N   0  0  0  0  0  0  0  0  0  0  0  0
   56.8530   27.9790   45.5950 C   0  0  0  0  0  0  0  0  0  0  0  0
   58.2150   27.9820   45.6160 N   0  0  0  0  0  0  0  0  0  0  0  0
   58.9480   26.8670   45.8690 C   0  0  0  0  0  0  0  0  0  0  0  0
   60.0467   26.9206   45.8717 H   0  0  0  0  0  0  0  0  0  0  0  0
   58.3100   25.6560   46.1250 C   0  0  0  0  0  0  0  0  0  0  0  0
   58.8982   24.7460   46.3146 H   0  0  0  0  0  0  0  0  0  0  0  0
   56.9170   25.6110   46.1380 C   0  0  0  0  0  0  0  0  0  0  0  0
   56.4017   24.6608   46.3420 H   0  0  0  0  0  0  0  0  0  0  0  0
   56.1720   26.7680   45.8930 C   0  0  0  0  0  0  0  0  0  0  0  0
   54.7880   26.6970   45.9990 O   0  0  0  0  0  0  0  0  0  0  0  0
   57.3430   31.5390   42.6700 C   0  0  0  0  0  0  0  0  0  0  0  0
   57.0105   31.0127   41.7631 H   0  0  0  0  0  0  0  0  0  0  0  0
   58.1060   32.7040   42.5700 C   0  0  0  0  0  0  0  0  0  0  0  0
   58.3779   33.0996   41.5803 H   0  0  0  0  0  0  0  0  0  0  0  0
   58.5240   33.3670   43.7250 C   0  0  0  0  0  0  0  0  0  0  0  0
   59.1165   34.2908   43.6506 H   0  0  0  0  0  0  0  0  0  0  0  0
   57.7880   33.0600   47.4830 C   0  0  0  0  0  0  0  0  0  0  0  0
   56.9318   32.4754   47.1154 H   0  0  0  0  0  0  0  0  0  0  0  0
   57.4941   33.9531   48.0539 H   0  0  0  0  0  0  0  0  0  0  0  0
  1  2  1  0
  2  3  1  0
  3  4  2  0
  4  5  1  0
  4  6  1  0
  6  7  1  0
  6  8  2  0
  8  9  1  0
  8 10  1  0
 10 11  1  0
 10 12  2  0
 12 13  1  0
 13 14  1  0
 13 15  1  0
 13 16  1  0
 16 17  1  0
 17 18  1  0
 17 19  1  0
 17 20  1  0
 20 21  1  0
 20 22  1  0
 20 23  1  0
 23 24  1  0
 23 25  1  0
 23 26  1  0
 26 27  1  6
 26 28  1  0
 28 29  2  0
 29 30  1  0
 30 31  1  0
 31 32  2  0
 31 33  1  0
 33 34  2  0
 34 35  1  0
 35 36  1  0
 36 37  1  0
 36 38  2  0
 38 39  1  0
 38 40  1  0
 40 41  1  0
 40 42  2  0
 42 43  1  0
 30 44  2  0
 44 45  1  0
 44 46  1  0
 46 47  1  0
 46 48  2  0
 48 49  1  0
 26 50  1  0
 50 51  1  0
 50 52  1  0
 12  3  1  0
 50 16  1  0
 48 28  1  0
 42 34  1  0
M  CHG  2  35  -1  43  -1
M  END
>  <UniqueID>  (24) 
22

>  <SMILES>  (24) 
O=C(/N=c1/[n-]cccc1[O-])c1cccc([C@@H]2CCCN(Cc3ccccc3O)C2)n1

>  <Energy>  (24) 
80.4253676962686

>  <Genealogy>  (24) 
O=C(N=c1[n-]cccc1[O-])c1cccc(C2CCCN(Cc3ccccc3O)C2)n1 (protonated)
O=C(N=c1[n-]cccc1[O-])c1cccc([C@@H]2CCCN(Cc3ccccc3O)C2)n1 (chirality)
O=C(/N=c1/[n-]cccc1[O-])c1cccc([C@@H]2CCCN(Cc3ccccc3O)C2)n1 (cis-trans isomerization)
O=C(/N=c1/[n-]cccc1[O-])c1cccc([C@@H]2CCCN(Cc3ccccc3O)C2)n1 (3D coordinates assigned)
O=C(/N=c1/[n-]cccc1[O-])c1cccc([C@@H]2CCCN(Cc3ccccc3O)C2)n1 (nonaromatic ring conformer: 80.4253676962686 kcal/mol)

>  <smiles>  (24) 
O=C(N=c1[nH]cccc1O)c1cccc(C2CCCN(Cc3ccccc3O)C2)n1

>  <score_type>  (24) 
oracle

>  <origin>  (24) 
adg

>  <m_score__min__energy>  (24) 
-15.59

>  <m_primary>  (24) 
energy

$$$$
24:0
     RDKit          3D

 50 52  0  0  0  0  0  0  0  0999 V2000
   60.5000   29.1700   51.4620 C   0  0  0  0  0  0  0  0  0  0  0  0
   60.9410   28.7450   50.0620 C   0  0  0  0  0  0  0  0  0  0  0  0
   60.2210   29.5060   49.0380 N   0  0  0  0  0  0  0  0  0  0  0  0
   59.6730   28.9440   47.8280 C   0  0  0  0  0  0  0  0  0  0  0  0
   58.5000   28.1750   47.9020 C   0  0  0  0  0  0  0  0  0  0  0  0
   57.9350   27.6270   46.7510 C   0  0  0  0  0  0  0  0  0  0  0  0
   58.5280   27.8390   45.4970 C   0  0  0  0  0  0  0  0  0  0  0  0
   57.9250   27.2490   44.2530 C   0  0  0  0  0  0  0  0  0  0  0  0
   57.4570   28.3000   43.3580 N   0  0  0  0  0  0  0  0  0  0  0  0
   56.5690   29.3480   43.7600 C   0  0  0  0  0  0  0  0  0  0  0  0
   55.7950   29.1880   44.7430 O   0  0  0  0  0  0  0  0  0  0  0  0
   56.6090   30.6660   43.0560 C   0  0  0  0  0  0  0  0  0  0  0  0
   57.2310   31.6930   43.9500 C   0  0  0  0  0  0  0  0  0  0  0  0
   58.0900   32.6870   43.4840 C   0  0  0  0  0  0  0  0  0  0  0  0
   58.6500   33.5540   44.8160 S   0  0  0  0  0  0  0  0  0  0  0  0
   57.7860   32.6230   45.9120 C   0  0  0  0  0  0  0  0  0  0  0  0
   57.8370   32.7970   47.2000 N   0  0  0  0  0  0  0  0  0  0  0  0
   58.8590   32.2990   48.0800 C   0  0  0  0  0  0  0  0  0  0  0  0
   58.6300   32.1370   49.3070 O   0  0  0  0  0  0  0  0  0  0  0  0
   60.1360   31.9110   47.5610 N   0  0  0  0  0  0  0  0  0  0  0  0
   61.3920   32.5550   47.8190 C   0  0  0  0  0  0  0  0  0  0  0  0
   62.1650   33.1080   46.7800 C   0  0  0  0  0  0  0  0  0  0  0  0
   63.3820   33.7310   47.0650 C   0  0  0  0  0  0  0  0  0  0  0  0
   63.8320   33.8230   48.3860 C   0  0  0  0  0  0  0  0  0  0  0  0
   63.0580   33.2990   49.4250 C   0  0  0  0  0  0  0  0  0  0  0  0
   61.8360   32.6690   49.1450 C   0  0  0  0  0  0  0  0  0  0  0  0
   61.0650   32.1420   50.1830 O   0  0  0  0  0  0  0  0  0  0  0  0
   57.0710   31.6520   45.3020 N   0  0  0  0  0  0  0  0  0  0  0  0
   59.7080   28.5900   45.4170 C   0  0  0  0  0  0  0  0  0  0  0  0
   60.2790   29.1370   46.5700 C   0  0  0  0  0  0  0  0  0  0  0  0
   61.0783   28.6126   52.2136 H   0  0  0  0  0  0  0  0  0  0  0  0
   60.6753   30.2484   51.5901 H   0  0  0  0  0  0  0  0  0  0  0  0
   59.4289   28.9549   51.5901 H   0  0  0  0  0  0  0  0  0  0  0  0
   62.0206   28.9255   49.9534 H   0  0  0  0  0  0  0  0  0  0  0  0
   60.7171   27.6761   49.9304 H   0  0  0  0  0  0  0  0  0  0  0  0
   60.0720   30.5250   49.2210 H   0  0  0  0  0  0  0  0  0  0  0  0
   58.0222   28.0033   48.8778 H   0  0  0  0  0  0  0  0  0  0  0  0
   57.0180   27.0242   46.8265 H   0  0  0  0  0  0  0  0  0  0  0  0
   58.6848   26.6455   43.7348 H   0  0  0  0  0  0  0  0  0  0  0  0
   57.0683   26.6211   44.5391 H   0  0  0  0  0  0  0  0  0  0  0  0
   57.2049   30.5720   42.1361 H   0  0  0  0  0  0  0  0  0  0  0  0
   55.5848   30.9755   42.8007 H   0  0  0  0  0  0  0  0  0  0  0  0
   58.3554   32.8726   42.4327 H   0  0  0  0  0  0  0  0  0  0  0  0
   61.8092   33.0491   45.7408 H   0  0  0  0  0  0  0  0  0  0  0  0
   63.9881   34.1504   46.2485 H   0  0  0  0  0  0  0  0  0  0  0  0
   64.7945   34.3075   48.6071 H   0  0  0  0  0  0  0  0  0  0  0  0
   63.4077   33.3807   50.4647 H   0  0  0  0  0  0  0  0  0  0  0  0
   60.1000   31.8660   50.0380 H   0  0  0  0  0  0  0  0  0  0  0  0
   60.1884   28.7503   44.4405 H   0  0  0  0  0  0  0  0  0  0  0  0
   61.2075   29.7220   46.4950 H   0  0  0  0  0  0  0  0  0  0  0  0
  1  2  1  0
  2  3  1  0
  3  4  1  0
  4  5  2  0
  5  6  1  0
  6  7  2  0
  7  8  1  0
  8  9  1  0
  9 10  1  0
 10 11  2  0
 10 12  1  0
 12 13  1  0
 13 14  2  0
 14 15  1  0
 15 16  1  0
 16 17  2  3
 17 18  1  0
 18 19  2  0
 18 20  1  0
 20 21  1  0
 21 22  2  0
 22 23  1  0
 23 24  2  0
 24 25  1  0
 25 26  2  0
 26 27  1  0
 16 28  1  0
  7 29  1  0
 29 30  2  0
 30  4  1  0
 28 13  1  0
 26 21  1  0
  1 31  1  0
  1 32  1  0
  1 33  1  0
  2 34  1  0
  2 35  1  0
  3 36  1  0
  5 37  1  0
  6 38  1  0
  8 39  1  0
  8 40  1  0
 12 41  1  0
 12 42  1  0
 14 43  1  0
 22 44  1  0
 23 45  1  0
 24 46  1  0
 25 47  1  0
 27 48  1  0
 29 49  1  0
 30 50  1  0
M  CHG  3   9  -1  20  -1  28  -1
M  END
>  <UniqueID>  (25) 
23

>  <SMILES>  (25) 
CCNc1ccc(C[N-]C(=O)Cc2csc(=NC(=O)[N-]c3ccccc3O)[n-]2)cc1

>  <Energy>  (25) 
79.66726770252372

>  <Genealogy>  (25) 
CCNc1ccc(C[N-]C(=O)Cc2csc(=NC(=O)[N-]c3ccccc3O)[n-]2)cc1 (protonated)
CCNc1ccc(C[N-]C(=O)Cc2csc(=NC(=O)[N-]c3ccccc3O)[n-]2)cc1 (3D coordinates assigned)
CCNc1ccc(C[N-]C(=O)Cc2csc(=NC(=O)[N-]c3ccccc3O)[n-]2)cc1 (optimized conformer: 79.66726770252372 kcal/mol)

>  <smiles>  (25) 
CCNc1ccc(CNC(=O)Cc2csc(=NC(=O)Nc3ccccc3O)[nH]2)cc1

>  <score_type>  (25) 
oracle

>  <origin>  (25) 
adg

>  <m_score__min__energy>  (25) 
-13.26

>  <m_primary>  (25) 
energy

$$$$
25:0
     RDKit          3D

 57 60  0  0  0  0  0  0  0  0999 V2000
   57.8422   30.2454   49.4023 H   0  0  0  0  0  0  0  0  0  0  0  0
   58.9210   30.1310   49.5840 C   0  0  0  0  0  0  0  0  0  0  0  0
   59.3710   29.0970   50.3400 N   0  0  0  0  0  0  0  0  0  0  0  0
   60.6910   28.8990   50.5950 C   0  0  0  0  0  0  0  0  0  0  0  0
   61.0300   27.9110   51.3740 N   0  0  0  0  0  0  0  0  0  0  0  0
   60.2630   27.3730   52.4580 C   0  0  0  0  0  0  0  0  0  0  0  0
   59.6450   26.2830   52.3210 O   0  0  0  0  0  0  0  0  0  0  0  0
   60.1390   28.1490   53.7340 C   0  0  0  0  0  0  0  0  0  0  0  0
   61.1342   28.5015   54.0428 H   0  0  0  0  0  0  0  0  0  0  0  0
   59.7134   27.4963   54.5104 H   0  0  0  0  0  0  0  0  0  0  0  0
   59.2470   29.3130   53.5410 N   0  0  0  0  0  0  0  0  0  0  0  0
   59.7480   30.5970   53.5000 C   0  0  0  0  0  0  0  0  0  0  0  0
   61.1460   30.8620   53.7230 N   0  0  0  0  0  0  0  0  0  0  0  0
   61.4770   31.7050   54.2350 H   0  0  0  0  0  0  0  0  0  0  0  0
   61.8960   30.2850   53.2700 H   0  0  0  0  0  0  0  0  0  0  0  0
   58.8710   31.6690   53.2640 C   0  0  0  0  0  0  0  0  0  0  0  0
   59.4410   33.3350   53.1690 Cl  0  0  0  0  0  0  0  0  0  0  0  0
   57.5420   31.4360   53.1410 N   0  0  0  0  0  0  0  0  0  0  0  0
   56.9050   32.2510   52.9840 H   0  0  0  0  0  0  0  0  0  0  0  0
   57.0100   30.1930   53.2630 C   0  0  0  0  0  0  0  0  0  0  0  0
   55.7070   30.0810   53.2100 N   0  0  0  0  0  0  0  0  0  0  0  0
   54.8310   29.7490   52.0850 C   0  0  0  0  0  0  0  0  0  0  0  0
   54.5242   28.6962   52.1716 H   0  0  0  0  0  0  0  0  0  0  0  0
   55.3903   29.9233   51.1540 H   0  0  0  0  0  0  0  0  0  0  0  0
   53.5960   30.6170   52.0590 C   0  0  0  0  0  0  0  0  0  0  0  0
   52.9190   30.8950   53.2540 C   0  0  0  0  0  0  0  0  0  0  0  0
   53.3297   30.5380   54.2100 H   0  0  0  0  0  0  0  0  0  0  0  0
   51.7250   31.6230   53.2400 C   0  0  0  0  0  0  0  0  0  0  0  0
   50.8970   31.9570   54.7520 Cl  0  0  0  0  0  0  0  0  0  0  0  0
   51.1920   32.0700   52.0250 C   0  0  0  0  0  0  0  0  0  0  0  0
   49.9930   32.7740   52.0080 O   0  0  0  0  0  0  0  0  0  0  0  0
   51.8600   31.8110   50.8210 C   0  0  0  0  0  0  0  0  0  0  0  0
   51.3080   32.3050   49.6300 O   0  0  0  0  0  0  0  0  0  0  0  0
   50.7110   31.4960   48.6200 C   0  0  0  0  0  0  0  0  0  0  0  0
   50.1210   30.6965   49.0918 H   0  0  0  0  0  0  0  0  0  0  0  0
   50.0529   32.1169   47.9943 H   0  0  0  0  0  0  0  0  0  0  0  0
   51.4983   31.0503   47.9943 H   0  0  0  0  0  0  0  0  0  0  0  0
   53.0550   31.0660   50.8420 C   0  0  0  0  0  0  0  0  0  0  0  0
   53.5693   30.8335   49.8978 H   0  0  0  0  0  0  0  0  0  0  0  0
   57.8900   29.0980   53.4560 C   0  0  0  0  0  0  0  0  0  0  0  0
   57.4370   27.9230   53.5450 O   0  0  0  0  0  0  0  0  0  0  0  0
   61.6310   29.8010   50.0600 C   0  0  0  0  0  0  0  0  0  0  0  0
   62.7040   29.6652   50.2604 H   0  0  0  0  0  0  0  0  0  0  0  0
   61.1940   30.8670   49.2750 C   0  0  0  0  0  0  0  0  0  0  0  0
   61.9269   31.5644   48.8432 H   0  0  0  0  0  0  0  0  0  0  0  0
   59.8230   31.0560   49.0320 C   0  0  0  0  0  0  0  0  0  0  0  0
   59.3420   32.2170   48.2340 C   0  0  0  0  0  0  0  0  0  0  0  0
   58.3660   32.0460   47.2330 C   0  0  0  0  0  0  0  0  0  0  0  0
   57.9400   31.0483   47.0512 H   0  0  0  0  0  0  0  0  0  0  0  0
   57.9340   33.1350   46.4680 C   0  0  0  0  0  0  0  0  0  0  0  0
   57.1736   32.9903   45.6865 H   0  0  0  0  0  0  0  0  0  0  0  0
   58.4680   34.4070   46.6960 C   0  0  0  0  0  0  0  0  0  0  0  0
   58.1278   35.2624   46.0939 H   0  0  0  0  0  0  0  0  0  0  0  0
   59.4320   34.5910   47.6870 C   0  0  0  0  0  0  0  0  0  0  0  0
   59.8516   35.5922   47.8646 H   0  0  0  0  0  0  0  0  0  0  0  0
   59.8670   33.5060   48.4560 C   0  0  0  0  0  0  0  0  0  0  0  0
   60.6239   33.6601   49.2392 H   0  0  0  0  0  0  0  0  0  0  0  0
  1  2  1  0
  2  3  1  0
  3  4  1  0
  4  5  2  0
  5  6  1  0
  6  7  2  0
  6  8  1  0
  8  9  1  0
  8 10  1  0
  8 11  1  0
 11 12  1  0
 12 13  1  0
 13 14  1  0
 13 15  1  0
 12 16  2  0
 16 17  1  0
 16 18  1  0
 18 19  1  0
 18 20  1  0
 20 21  2  3
 21 22  1  0
 22 23  1  0
 22 24  1  0
 22 25  1  0
 25 26  2  0
 26 27  1  0
 26 28  1  0
 28 29  1  0
 28 30  2  0
 30 31  1  0
 30 32  1  0
 32 33  1  0
 33 34  1  0
 34 35  1  0
 34 36  1  0
 34 37  1  0
 32 38  2  0
 38 39  1  0
 20 40  1  0
 40 41  2  0
  4 42  1  0
 42 43  1  0
 42 44  2  0
 44 45  1  0
 44 46  1  0
 46 47  1  0
 47 48  2  0
 48 49  1  0
 48 50  1  0
 50 51  1  0
 50 52  2  0
 52 53  1  0
 52 54  1  0
 54 55  1  0
 54 56  2  0
 56 57  1  0
 46  2  2  0
 56 47  1  0
 40 11  1  0
 38 25  1  0
M  CHG  2   3  -1  31  -1
M  END
>  <UniqueID>  (26) 
24

>  <SMILES>  (26) 
COc1cc(CN=c2[nH]c(Cl)c(N)n(CC(=O)/N=c3\ccc(-c4ccccc4)c[n-]3)c2=O)cc(Cl)c1[O-]

>  <Energy>  (26) 
83.15664855569693

>  <Genealogy>  (26) 
COc1cc(CN=c2[nH]c(Cl)c(N)n(CC(=O)N=c3ccc(-c4ccccc4)c[n-]3)c2=O)cc(Cl)c1[O-] (protonated)
COc1cc(CN=c2[nH]c(Cl)c(N)n(CC(=O)/N=c3\ccc(-c4ccccc4)c[n-]3)c2=O)cc(Cl)c1[O-] (cis-trans isomerization)
COc1cc(CN=c2[nH]c(Cl)c(N)n(CC(=O)/N=c3\ccc(-c4ccccc4)c[n-]3)c2=O)cc(Cl)c1[O-] (3D coordinates assigned)
COc1cc(CN=c2[nH]c(Cl)c(N)n(CC(=O)/N=c3\ccc(-c4ccccc4)c[n-]3)c2=O)cc(Cl)c1[O-] (optimized conformer: 83.15664855569693 kcal/mol)

>  <smiles>  (26) 
COc1cc(CN=c2[nH]c(Cl)c(N)n(CC(=O)N=c3ccc(-c4ccccc4)c[nH]3)c2=O)cc(Cl)c1O

>  <score_type>  (26) 
oracle

>  <origin>  (26) 
adg

>  <m_score__min__energy>  (26) 
-14.25

>  <m_primary>  (26) 
energy

$$$$
26:0
     RDKit          3D

 48 49  0  0  0  0  0  0  0  0999 V2000
   57.0920   32.0920   51.9910 O   0  0  0  0  0  0  0  0  0  0  0  0
   57.8140   30.7730   51.9420 S   0  0  0  0  0  0  0  0  0  0  0  0
   58.8400   30.7470   53.0390 O   0  0  0  0  0  0  0  0  0  0  0  0
   56.6800   29.4800   52.1850 N   0  0  0  0  0  0  0  0  0  0  0  0
   55.4140   30.0220   52.6780 C   0  0  0  0  0  0  0  0  0  0  0  0
   54.2820   29.6030   51.7420 C   0  0  0  0  0  0  0  0  0  0  0  0
   53.1130   30.5420   51.8780 C   0  0  0  0  0  0  0  0  0  0  0  0
   52.5970   30.8580   53.1450 C   0  0  0  0  0  0  0  0  0  0  0  0
   51.5380   31.7620   53.2710 C   0  0  0  0  0  0  0  0  0  0  0  0
   50.9940   32.3660   52.1330 C   0  0  0  0  0  0  0  0  0  0  0  0
   49.9420   33.2650   52.2650 O   0  0  0  0  0  0  0  0  0  0  0  0
   51.5100   32.0670   50.8660 C   0  0  0  0  0  0  0  0  0  0  0  0
   50.9790   32.6720   49.7340 O   0  0  0  0  0  0  0  0  0  0  0  0
   52.5680   31.1600   50.7390 C   0  0  0  0  0  0  0  0  0  0  0  0
   58.6270   30.5760   50.3910 C   0  0  0  0  0  0  0  0  0  0  0  0
   58.5820   29.3370   49.7410 C   0  0  0  0  0  0  0  0  0  0  0  0
   59.1630   29.1820   48.4800 C   0  0  0  0  0  0  0  0  0  0  0  0
   59.7920   30.2690   47.8500 C   0  0  0  0  0  0  0  0  0  0  0  0
   60.3700   30.1250   46.4640 C   0  0  0  0  0  0  0  0  0  0  0  0
   59.8740   28.8540   45.7540 C   0  0  0  0  0  0  0  0  0  0  0  0
   58.9370   29.1110   44.5550 C   0  0  0  0  0  0  0  0  0  0  0  0
   58.3800   30.5520   44.4880 C   0  0  0  0  0  0  0  0  0  0  0  0
   56.8630   30.6390   44.6730 C   0  0  0  0  0  0  0  0  0  0  0  0
   56.3720   29.4590   45.2480 O   0  0  0  0  0  0  0  0  0  0  0  0
   59.8450   31.5060   48.5110 C   0  0  0  0  0  0  0  0  0  0  0  0
   59.2650   31.6600   49.7730 C   0  0  0  0  0  0  0  0  0  0  0  0
   55.2174   29.6335   53.6881 H   0  0  0  0  0  0  0  0  0  0  0  0
   55.4738   31.1198   52.7127 H   0  0  0  0  0  0  0  0  0  0  0  0
   54.6442   29.6234   50.7035 H   0  0  0  0  0  0  0  0  0  0  0  0
   53.9561   28.5869   52.0091 H   0  0  0  0  0  0  0  0  0  0  0  0
   53.0282   30.3919   54.0432 H   0  0  0  0  0  0  0  0  0  0  0  0
   51.1324   31.9983   54.2658 H   0  0  0  0  0  0  0  0  0  0  0  0
   52.9751   30.9295   49.7434 H   0  0  0  0  0  0  0  0  0  0  0  0
   58.0872   28.4821   50.2250 H   0  0  0  0  0  0  0  0  0  0  0  0
   59.1278   28.2040   47.9778 H   0  0  0  0  0  0  0  0  0  0  0  0
   60.0780   31.0010   45.8662 H   0  0  0  0  0  0  0  0  0  0  0  0
   61.4632   30.0513   46.5612 H   0  0  0  0  0  0  0  0  0  0  0  0
   60.7518   28.2995   45.3906 H   0  0  0  0  0  0  0  0  0  0  0  0
   59.2851   28.2932   46.4948 H   0  0  0  0  0  0  0  0  0  0  0  0
   59.4979   28.9138   43.6295 H   0  0  0  0  0  0  0  0  0  0  0  0
   58.0727   28.4417   44.6780 H   0  0  0  0  0  0  0  0  0  0  0  0
   58.8602   31.1462   45.2794 H   0  0  0  0  0  0  0  0  0  0  0  0
   58.6015   30.9338   43.4804 H   0  0  0  0  0  0  0  0  0  0  0  0
   56.6263   31.4883   45.3307 H   0  0  0  0  0  0  0  0  0  0  0  0
   56.3913   30.7794   43.6893 H   0  0  0  0  0  0  0  0  0  0  0  0
   55.7990   29.7400   46.0080 H   0  0  0  0  0  0  0  0  0  0  0  0
   60.3465   32.3601   48.0324 H   0  0  0  0  0  0  0  0  0  0  0  0
   59.3093   32.6340   50.2823 H   0  0  0  0  0  0  0  0  0  0  0  0
  1  2  2  0
  2  3  2  0
  2  4  1  0
  4  5  1  0
  5  6  1  0
  6  7  1  0
  7  8  2  0
  8  9  1  0
  9 10  2  0
 10 11  1  0
 10 12  1  0
 12 13  1  0
 12 14  2  0
  2 15  1  0
 15 16  2  0
 16 17  1  0
 17 18  2  0
 18 19  1  0
 19 20  1  0
 20 21  1  0
 21 22  1  0
 22 23  1  0
 23 24  1  0
 18 25  1  0
 25 26  2  0
 14  7  1  0
 26 15  1  0
  5 27  1  0
  5 28  1  0
  6 29  1  0
  6 30  1  0
  8 31  1  0
  9 32  1  0
 14 33  1  0
 16 34  1  0
 17 35  1  0
 19 36  1  0
 19 37  1  0
 20 38  1  0
 20 39  1  0
 21 40  1  0
 21 41  1  0
 22 42  1  0
 22 43  1  0
 23 44  1  0
 23 45  1  0
 24 46  1  0
 25 47  1  0
 26 48  1  0
M  CHG  3   4  -1  11  -1  13  -1
M  END
>  <UniqueID>  (27) 
25

>  <SMILES>  (27) 
O=S(=O)([N-]CCc1ccc([O-])c([O-])c1)c1ccc(CCCCCO)cc1

>  <Energy>  (27) 
38.46362816057383

>  <Genealogy>  (27) 
O=S(=O)([N-]CCc1ccc([O-])c([O-])c1)c1ccc(CCCCCO)cc1 (protonated)
O=S(=O)([N-]CCc1ccc([O-])c([O-])c1)c1ccc(CCCCCO)cc1 (3D coordinates assigned)
O=S(=O)([N-]CCc1ccc([O-])c([O-])c1)c1ccc(CCCCCO)cc1 (optimized conformer: 38.46362816057383 kcal/mol)

>  <smiles>  (27) 
O=S(=O)(NCCc1ccc(O)c(O)c1)c1ccc(CCCCCO)cc1

>  <score_type>  (27) 
oracle

>  <origin>  (27) 
adg

>  <m_score__min__energy>  (27) 
-18.359999999999999

>  <m_primary>  (27) 
energy

$$$$
27:0
     RDKit          3D

 43 46  0  0  0  0  0  0  0  0999 V2000
   60.2990   35.6710   46.0120 C   0  0  0  0  0  0  0  0  0  0  0  0
   59.2150   34.6780   45.7130 C   0  0  0  0  0  0  0  0  0  0  0  0
   59.1850   34.0140   44.4800 C   0  0  0  0  0  0  0  0  0  0  0  0
   58.1980   33.0610   44.2170 C   0  0  0  0  0  0  0  0  0  0  0  0
   57.2320   32.7450   45.1810 C   0  0  0  0  0  0  0  0  0  0  0  0
   56.2470   31.7570   44.8380 N   0  0  0  0  0  0  0  0  0  0  0  0
   56.5170   30.0820   44.4840 S   0  0  0  0  0  0  0  0  0  0  0  0
   56.9870   29.9370   43.0630 O   0  0  0  0  0  0  0  0  0  0  0  0
   55.2550   29.2950   44.6970 O   0  0  0  0  0  0  0  0  0  0  0  0
   57.7570   29.4720   45.5600 C   0  0  0  0  0  0  0  0  0  0  0  0
   58.6250   30.2460   46.3120 C   0  0  0  0  0  0  0  0  0  0  0  0
   59.5080   29.4860   47.0950 C   0  0  0  0  0  0  0  0  0  0  0  0
   60.5320   30.1220   47.9510 C   0  0  0  0  0  0  0  0  0  0  0  0
   61.0760   31.2860   47.6690 O   0  0  0  0  0  0  0  0  0  0  0  0
   61.9380   31.5670   48.6200 C   0  0  0  0  0  0  0  0  0  0  0  0
   62.7540   32.8320   48.6220 C   0  0  0  0  0  0  0  0  0  0  0  0
   63.8100   32.9490   47.5330 C   0  0  0  0  0  0  0  0  0  0  0  0
   62.5340   33.7750   47.4490 C   0  0  0  0  0  0  0  0  0  0  0  0
   61.9820   30.5950   49.5580 N   0  0  0  0  0  0  0  0  0  0  0  0
   61.0860   29.6800   49.1460 C   0  0  0  0  0  0  0  0  0  0  0  0
   60.7750   28.4310   49.9080 C   0  0  0  0  0  0  0  0  0  0  0  0
   59.3330   28.1090   46.9380 C   0  0  0  0  0  0  0  0  0  0  0  0
   58.0790   27.8500   45.8460 S   0  0  0  0  0  0  0  0  0  0  0  0
   57.2720   33.4020   46.4320 C   0  0  0  0  0  0  0  0  0  0  0  0
   56.3760   33.1350   47.4100 F   0  0  0  0  0  0  0  0  0  0  0  0
   58.2650   34.3540   46.6900 C   0  0  0  0  0  0  0  0  0  0  0  0
   60.4115   35.7741   47.1014 H   0  0  0  0  0  0  0  0  0  0  0  0
   61.2468   35.3212   45.5769 H   0  0  0  0  0  0  0  0  0  0  0  0
   60.0335   36.6458   45.5769 H   0  0  0  0  0  0  0  0  0  0  0  0
   59.9418   34.2439   43.7156 H   0  0  0  0  0  0  0  0  0  0  0  0
   58.1792   32.5528   43.2416 H   0  0  0  0  0  0  0  0  0  0  0  0
   58.6227   31.3459   46.2972 H   0  0  0  0  0  0  0  0  0  0  0  0
   62.7486   32.9375   49.7169 H   0  0  0  0  0  0  0  0  0  0  0  0
   64.7703   33.4404   47.7484 H   0  0  0  0  0  0  0  0  0  0  0  0
   64.3227   32.2394   46.8670 H   0  0  0  0  0  0  0  0  0  0  0  0
   62.5722   34.8634   47.6036 H   0  0  0  0  0  0  0  0  0  0  0  0
   61.7426   33.9096   46.6970 H   0  0  0  0  0  0  0  0  0  0  0  0
   62.5640   30.5560   50.4230 H   0  0  0  0  0  0  0  0  0  0  0  0
   60.8264   28.6375   50.9872 H   0  0  0  0  0  0  0  0  0  0  0  0
   59.7634   28.0855   49.6486 H   0  0  0  0  0  0  0  0  0  0  0  0
   61.5065   27.6515   49.6486 H   0  0  0  0  0  0  0  0  0  0  0  0
   59.9168   27.3255   47.4433 H   0  0  0  0  0  0  0  0  0  0  0  0
   58.2997   34.8528   47.6698 H   0  0  0  0  0  0  0  0  0  0  0  0
  1  2  1  0
  2  3  2  0
  3  4  1  0
  4  5  2  0
  5  6  1  0
  6  7  1  0
  7  8  2  0
  7  9  2  0
  7 10  1  0
 10 11  2  0
 11 12  1  0
 12 13  1  0
 13 14  1  0
 14 15  1  0
 15 16  1  0
 16 17  1  0
 17 18  1  0
 15 19  2  0
 19 20  1  0
 20 21  1  0
 12 22  2  0
 22 23  1  0
  5 24  1  0
 24 25  1  0
 24 26  2  0
 26  2  1  0
 23 10  1  0
 20 13  2  0
 18 16  1  0
  1 27  1  0
  1 28  1  0
  1 29  1  0
  3 30  1  0
  4 31  1  0
 11 32  1  0
 16 33  1  0
 17 34  1  0
 17 35  1  0
 18 36  1  0
 18 37  1  0
 19 38  1  0
 21 39  1  0
 21 40  1  0
 21 41  1  0
 22 42  1  0
 26 43  1  0
M  CHG  2   6  -1  19   1
M  END
>  <UniqueID>  (28) 
26

>  <SMILES>  (28) 
Cc1ccc([N-]S(=O)(=O)c2cc(-c3oc(C4CC4)[nH+]c3C)cs2)c(F)c1

>  <Energy>  (28) 
374.66957974523507

>  <Genealogy>  (28) 
Cc1ccc([N-]S(=O)(=O)c2cc(-c3oc(C4CC4)[nH+]c3C)cs2)c(F)c1 (protonated)
Cc1ccc([N-]S(=O)(=O)c2cc(-c3oc(C4CC4)[nH+]c3C)cs2)c(F)c1 (3D coordinates assigned)
Cc1ccc([N-]S(=O)(=O)c2cc(-c3oc(C4CC4)[nH+]c3C)cs2)c(F)c1 (nonaromatic ring conformer: 374.66957974523507 kcal/mol)

>  <smiles>  (28) 
Cc1ccc(NS(=O)(=O)c2cc(-c3oc(C4CC4)nc3C)cs2)c(F)c1

>  <score_type>  (28) 
oracle

>  <origin>  (28) 
adg

>  <m_score__min__energy>  (28) 
-9.2100000000000009

>  <m_primary>  (28) 
energy

$$$$
28:0
     RDKit          3D

 37 39  0  0  0  0  0  0  0  0999 V2000
   56.2010   28.8920   45.5460 H   0  0  0  0  0  0  0  0  0  0  0  0
   55.7280   29.5730   44.9620 O   0  0  0  0  0  0  0  0  0  0  0  0
   56.4380   30.4420   44.1330 C   0  0  0  0  0  0  0  0  0  0  0  0
   56.3100   30.3570   42.7410 C   0  0  0  0  0  0  0  0  0  0  0  0
   55.6472   29.6010   42.2946 H   0  0  0  0  0  0  0  0  0  0  0  0
   57.0230   31.2310   41.9210 C   0  0  0  0  0  0  0  0  0  0  0  0
   56.9258   31.1713   40.8269 H   0  0  0  0  0  0  0  0  0  0  0  0
   57.8610   32.1820   42.5040 C   0  0  0  0  0  0  0  0  0  0  0  0
   58.4299   32.8765   41.8684 H   0  0  0  0  0  0  0  0  0  0  0  0
   57.9750   32.2510   43.8570 N   0  0  0  0  0  0  0  0  0  0  0  0
   57.2890   31.4110   44.6850 C   0  0  0  0  0  0  0  0  0  0  0  0
   57.4110   31.4920   45.9790 N   0  0  0  0  0  0  0  0  0  0  0  0
   58.2180   32.4250   46.7200 C   0  0  0  0  0  0  0  0  0  0  0  0
   57.7210   33.4980   47.1590 O   0  0  0  0  0  0  0  0  0  0  0  0
   59.6360   32.0950   47.0060 C   0  0  0  0  0  0  0  0  0  0  0  0
   60.5260   33.1430   47.3050 C   0  0  0  0  0  0  0  0  0  0  0  0
   60.1476   34.1731   47.3803 H   0  0  0  0  0  0  0  0  0  0  0  0
   61.8830   32.8900   47.5070 C   0  0  0  0  0  0  0  0  0  0  0  0
   62.5678   33.7193   47.7377 H   0  0  0  0  0  0  0  0  0  0  0  0
   62.3720   31.5890   47.4170 C   0  0  0  0  0  0  0  0  0  0  0  0
   63.4441   31.3940   47.5670 H   0  0  0  0  0  0  0  0  0  0  0  0
   61.5050   30.5330   47.1370 C   0  0  0  0  0  0  0  0  0  0  0  0
   61.8985   29.5078   47.0727 H   0  0  0  0  0  0  0  0  0  0  0  0
   60.1320   30.7660   46.9360 C   0  0  0  0  0  0  0  0  0  0  0  0
   59.2400   29.6550   46.7290 N   0  0  0  0  0  0  0  0  0  0  0  0
   58.2120   29.8000   46.8440 H   0  0  0  0  0  0  0  0  0  0  0  0
   59.6940   28.3390   46.2770 C   0  0  0  0  0  0  0  0  0  0  0  0
   60.2903   28.4553   45.3600 H   0  0  0  0  0  0  0  0  0  0  0  0
   60.3064   27.8792   47.0666 H   0  0  0  0  0  0  0  0  0  0  0  0
   58.5180   27.4570   45.9940 C   0  0  0  0  0  0  0  0  0  0  0  0
   57.2530   27.7820   46.3320 N   0  0  0  0  0  0  0  0  0  0  0  0
   56.5030   26.7770   45.8430 C   0  0  0  0  0  0  0  0  0  0  0  0
   55.1230   26.7200   45.9790 O   0  0  0  0  0  0  0  0  0  0  0  0
   57.2630   25.8300   45.1930 C   0  0  0  0  0  0  0  0  0  0  0  0
   56.9053   24.9126   44.7027 H   0  0  0  0  0  0  0  0  0  0  0  0
   58.5630   26.2710   45.2850 C   0  0  0  0  0  0  0  0  0  0  0  0
   59.4580   25.7789   44.8766 H   0  0  0  0  0  0  0  0  0  0  0  0
  1  2  1  0
  2  3  1  0
  3  4  2  0
  4  5  1  0
  4  6  1  0
  6  7  1  0
  6  8  2  0
  8  9  1  0
  8 10  1  0
 10 11  1  0
 11 12  2  0
 12 13  1  0
 13 14  2  0
 13 15  1  0
 15 16  2  0
 16 17  1  0
 16 18  1  0
 18 19  1  0
 18 20  2  0
 20 21  1  0
 20 22  1  0
 22 23  1  0
 22 24  2  0
 24 25  1  0
 25 26  1  0
 25 27  1  0
 27 28  1  0
 27 29  1  0
 27 30  1  0
 30 31  1  0
 31 32  1  0
 32 33  1  0
 32 34  2  0
 34 35  1  0
 34 36  1  0
 36 37  1  0
 11  3  1  0
 24 15  1  0
 36 30  2  0
M  CHG  3  10  -1  31  -1  33  -1
M  END
>  <UniqueID>  (29) 
27

>  <SMILES>  (29) 
O=C(/N=c1\[n-]cccc1O)c1ccccc1NCc1ccc([O-])[n-]1

>  <Energy>  (29) 
72.36903219647425

>  <Genealogy>  (29) 
O=C(N=c1[n-]cccc1O)c1ccccc1NCc1ccc([O-])[n-]1 (protonated)
O=C(/N=c1\[n-]cccc1O)c1ccccc1NCc1ccc([O-])[n-]1 (cis-trans isomerization)
O=C(/N=c1\[n-]cccc1O)c1ccccc1NCc1ccc([O-])[n-]1 (3D coordinates assigned)
O=C(/N=c1\[n-]cccc1O)c1ccccc1NCc1ccc([O-])[n-]1 (optimized conformer: 72.36903219647425 kcal/mol)

>  <smiles>  (29) 
O=C(N=c1[nH]cccc1O)c1ccccc1NCc1ccc(O)[nH]1

>  <score_type>  (29) 
oracle

>  <origin>  (29) 
adg

>  <m_score__min__energy>  (29) 
-14.359999999999999

>  <m_primary>  (29) 
energy

$$$$
29:0
     RDKit          3D

 31 32  0  0  0  0  0  0  0  0999 V2000
   59.2790   35.6840   44.9040 O   0  0  0  0  0  0  0  0  0  0  0  0
   59.1290   34.5380   45.4080 C   0  0  0  0  0  0  0  0  0  0  0  0
   57.7940   33.8700   45.3450 C   0  0  0  0  0  0  0  0  0  0  0  0
   57.7440   32.6500   43.9870 S   0  0  0  0  0  0  0  0  0  0  0  0
   58.2390   31.2500   45.0140 C   0  0  0  0  0  0  0  0  0  0  0  0
   59.3730   31.3830   45.7630 N   0  0  0  0  0  0  0  0  0  0  0  0
   59.8040   30.4040   46.5990 C   0  0  0  0  0  0  0  0  0  0  0  0
   59.0840   29.2190   46.7180 C   0  0  0  0  0  0  0  0  0  0  0  0
   57.9270   29.0430   45.9630 C   0  0  0  0  0  0  0  0  0  0  0  0
   57.4850   30.0500   45.0860 C   0  0  0  0  0  0  0  0  0  0  0  0
   56.2550   29.8040   44.2890 C   0  0  0  0  0  0  0  0  0  0  0  0
   56.1830   30.1310   43.0770 O   0  0  0  0  0  0  0  0  0  0  0  0
   55.1610   29.1740   44.8740 O   0  0  0  0  0  0  0  0  0  0  0  0
   60.2420   33.8440   45.9810 N   0  0  0  0  0  0  0  0  0  0  0  0
   60.5070   33.7680   47.3860 C   0  0  0  0  0  0  0  0  0  0  0  0
   59.4470   33.9580   48.2800 C   0  0  0  0  0  0  0  0  0  0  0  0
   59.6620   33.8880   49.6590 C   0  0  0  0  0  0  0  0  0  0  0  0
   60.9450   33.6460   50.1540 C   0  0  0  0  0  0  0  0  0  0  0  0
   62.0170   33.4910   49.2720 C   0  0  0  0  0  0  0  0  0  0  0  0
   61.8110   33.5590   47.8880 C   0  0  0  0  0  0  0  0  0  0  0  0
   63.3460   33.4700   46.7420 Br  0  0  0  0  0  0  0  0  0  0  0  0
   57.6022   33.3564   46.2986 H   0  0  0  0  0  0  0  0  0  0  0  0
   57.0250   34.6347   45.1610 H   0  0  0  0  0  0  0  0  0  0  0  0
   59.9260   32.2670   45.7050 H   0  0  0  0  0  0  0  0  0  0  0  0
   60.7246   30.5477   47.1837 H   0  0  0  0  0  0  0  0  0  0  0  0
   59.4257   28.4284   47.4023 H   0  0  0  0  0  0  0  0  0  0  0  0
   57.3539   28.1084   46.0533 H   0  0  0  0  0  0  0  0  0  0  0  0
   58.4376   34.1639   47.8944 H   0  0  0  0  0  0  0  0  0  0  0  0
   58.8206   34.0235   50.3545 H   0  0  0  0  0  0  0  0  0  0  0  0
   61.1116   33.5774   51.2391 H   0  0  0  0  0  0  0  0  0  0  0  0
   63.0286   33.3146   49.6664 H   0  0  0  0  0  0  0  0  0  0  0  0
  1  2  2  0
  2  3  1  0
  3  4  1  0
  4  5  1  0
  5  6  2  0
  6  7  1  0
  7  8  2  0
  8  9  1  0
  9 10  2  0
 10 11  1  0
 11 12  2  0
 11 13  1  0
  2 14  1  0
 14 15  1  0
 15 16  2  0
 16 17  1  0
 17 18  2  0
 18 19  1  0
 19 20  2  0
 20 21  1  0
 10  5  1  0
 20 15  1  0
  3 22  1  0
  3 23  1  0
  6 24  1  0
  7 25  1  0
  8 26  1  0
  9 27  1  0
 16 28  1  0
 17 29  1  0
 18 30  1  0
 19 31  1  0
M  CHG  3   6   1  13  -1  14  -1
M  END
>  <UniqueID>  (30) 
28

>  <SMILES>  (30) 
O=C(CSc1[nH+]cccc1C(=O)[O-])[N-]c1ccccc1Br

>  <Energy>  (30) 
37.098966863410226

>  <Genealogy>  (30) 
O=C(CSc1[nH+]cccc1C(=O)[O-])[N-]c1ccccc1Br (protonated)
O=C(CSc1[nH+]cccc1C(=O)[O-])[N-]c1ccccc1Br (3D coordinates assigned)
O=C(CSc1[nH+]cccc1C(=O)[O-])[N-]c1ccccc1Br (optimized conformer: 37.098966863410226 kcal/mol)

>  <smiles>  (30) 
O=C(CSc1ncccc1C(=O)O)Nc1ccccc1Br

>  <score_type>  (30) 
oracle

>  <origin>  (30) 
adg

>  <m_score__min__energy>  (30) 
-10.31

>  <m_primary>  (30) 
energy

$$$$
30:0
     RDKit          3D

 47 49  0  0  0  0  0  0  0  0999 V2000
   61.5760   30.7060   48.4920 C   0  0  0  0  0  0  0  0  0  0  0  0
   60.4450   29.9850   47.8200 C   0  0  0  0  0  0  0  0  0  0  0  0
   59.5440   29.2210   48.5770 C   0  0  0  0  0  0  0  0  0  0  0  0
   58.5140   28.5170   47.9470 C   0  0  0  0  0  0  0  0  0  0  0  0
   58.3780   28.5610   46.5540 C   0  0  0  0  0  0  0  0  0  0  0  0
   57.0920   27.6470   45.7690 S   0  0  0  0  0  0  0  0  0  0  0  0
   56.4460   26.7130   46.7540 O   0  0  0  0  0  0  0  0  0  0  0  0
   57.6960   26.8200   44.6690 O   0  0  0  0  0  0  0  0  0  0  0  0
   55.8850   28.6970   45.0800 N   0  0  0  0  0  0  0  0  0  0  0  0
   56.3480   29.3420   43.8470 C   0  0  0  0  0  0  0  0  0  0  0  0
   56.1090   30.8570   43.8600 C   0  0  0  0  0  0  0  0  0  0  0  0
   57.3960   31.7710   42.9350 S   0  0  0  0  0  0  0  0  0  0  0  0
   58.0460   32.6210   44.3700 C   0  0  0  0  0  0  0  0  0  0  0  0
   57.8570   32.1010   45.6100 N   0  0  0  0  0  0  0  0  0  0  0  0
   58.3380   32.7280   46.7150 C   0  0  0  0  0  0  0  0  0  0  0  0
   58.1450   32.2130   47.8490 O   0  0  0  0  0  0  0  0  0  0  0  0
   59.0420   33.9380   46.5840 C   0  0  0  0  0  0  0  0  0  0  0  0
   59.6270   34.6550   47.7750 C   0  0  0  0  0  0  0  0  0  0  0  0
   61.0450   34.2110   48.0110 C   0  0  0  0  0  0  0  0  0  0  0  0
   61.8640   33.8410   46.9280 C   0  0  0  0  0  0  0  0  0  0  0  0
   63.1900   33.4600   47.1480 C   0  0  0  0  0  0  0  0  0  0  0  0
   63.7120   33.4490   48.4450 C   0  0  0  0  0  0  0  0  0  0  0  0
   62.9080   33.8250   49.5250 C   0  0  0  0  0  0  0  0  0  0  0  0
   61.5800   34.2070   49.3090 C   0  0  0  0  0  0  0  0  0  0  0  0
   59.2400   34.4400   45.2900 C   0  0  0  0  0  0  0  0  0  0  0  0
   58.7390   33.7780   44.2170 N   0  0  0  0  0  0  0  0  0  0  0  0
   59.2910   29.3060   45.7930 C   0  0  0  0  0  0  0  0  0  0  0  0
   60.3220   30.0090   46.4230 C   0  0  0  0  0  0  0  0  0  0  0  0
   61.4607   30.6325   49.5835 H   0  0  0  0  0  0  0  0  0  0  0  0
   62.5311   30.2497   48.1926 H   0  0  0  0  0  0  0  0  0  0  0  0
   61.5655   31.7644   48.1926 H   0  0  0  0  0  0  0  0  0  0  0  0
   59.6487   29.1759   49.6711 H   0  0  0  0  0  0  0  0  0  0  0  0
   57.8072   27.9259   48.5479 H   0  0  0  0  0  0  0  0  0  0  0  0
   57.4258   29.1545   43.7324 H   0  0  0  0  0  0  0  0  0  0  0  0
   55.7761   28.9173   43.0088 H   0  0  0  0  0  0  0  0  0  0  0  0
   55.1302   31.0646   43.4030 H   0  0  0  0  0  0  0  0  0  0  0  0
   56.1434   31.1941   44.9065 H   0  0  0  0  0  0  0  0  0  0  0  0
   59.6131   35.7389   47.5881 H   0  0  0  0  0  0  0  0  0  0  0  0
   59.0261   34.4168   48.6650 H   0  0  0  0  0  0  0  0  0  0  0  0
   61.4590   33.8518   45.9053 H   0  0  0  0  0  0  0  0  0  0  0  0
   63.8250   33.1679   46.2986 H   0  0  0  0  0  0  0  0  0  0  0  0
   64.7552   33.1445   48.6156 H   0  0  0  0  0  0  0  0  0  0  0  0
   63.3199   33.8204   50.5450 H   0  0  0  0  0  0  0  0  0  0  0  0
   60.9513   34.5059   50.1607 H   0  0  0  0  0  0  0  0  0  0  0  0
   59.8033   35.3735   45.1443 H   0  0  0  0  0  0  0  0  0  0  0  0
   59.1954   29.3371   44.6976 H   0  0  0  0  0  0  0  0  0  0  0  0
   61.0404   30.5839   45.8202 H   0  0  0  0  0  0  0  0  0  0  0  0
  1  2  1  0
  2  3  2  0
  3  4  1  0
  4  5  2  0
  5  6  1  0
  6  7  2  0
  6  8  2  0
  6  9  1  0
  9 10  1  0
 10 11  1  0
 11 12  1  0
 12 13  1  0
 13 14  2  0
 14 15  1  0
 15 16  2  0
 15 17  1  0
 17 18  1  0
 18 19  1  0
 19 20  2  0
 20 21  1  0
 21 22  2  0
 22 23  1  0
 23 24  2  0
 17 25  2  0
 25 26  1  0
  5 27  1  0
 27 28  2  0
 28  2  1  0
 26 13  1  0
 24 19  1  0
  1 29  1  0
  1 30  1  0
  1 31  1  0
  3 32  1  0
  4 33  1  0
 10 34  1  0
 10 35  1  0
 11 36  1  0
 11 37  1  0
 18 38  1  0
 18 39  1  0
 20 40  1  0
 21 41  1  0
 22 42  1  0
 23 43  1  0
 24 44  1  0
 25 45  1  0
 27 46  1  0
 28 47  1  0
M  CHG  2   9  -1  26  -1
M  END
>  <UniqueID>  (31) 
29

>  <SMILES>  (31) 
Cc1ccc(S(=O)(=O)[N-]CCSc2nc(=O)c(Cc3ccccc3)c[n-]2)cc1

>  <Energy>  (31) 
44.43511752392393

>  <Genealogy>  (31) 
Cc1ccc(S(=O)(=O)[N-]CCSc2nc(=O)c(Cc3ccccc3)c[n-]2)cc1 (protonated)
Cc1ccc(S(=O)(=O)[N-]CCSc2nc(=O)c(Cc3ccccc3)c[n-]2)cc1 (3D coordinates assigned)
Cc1ccc(S(=O)(=O)[N-]CCSc2nc(=O)c(Cc3ccccc3)c[n-]2)cc1 (optimized conformer: 44.43511752392393 kcal/mol)

>  <smiles>  (31) 
Cc1ccc(S(=O)(=O)NCCSc2nc(=O)c(Cc3ccccc3)c[nH]2)cc1

>  <score_type>  (31) 
oracle

>  <origin>  (31) 
adg

>  <m_score__min__energy>  (31) 
-12.17

>  <m_primary>  (31) 
energy

$$$$
31:0
     RDKit          3D

 40 41  0  0  0  0  0  0  0  0999 V2000
   55.9972   25.1070   46.7780 H   0  0  0  0  0  0  0  0  0  0  0  0
   56.4920   25.9980   46.3640 C   0  0  0  0  0  0  0  0  0  0  0  0
   55.7450   27.0190   45.8660 N   0  0  0  0  0  0  0  0  0  0  0  0
   56.3180   28.1410   45.3410 C   0  0  0  0  0  0  0  0  0  0  0  0
   55.5890   29.1080   44.8690 N   0  0  0  0  0  0  0  0  0  0  0  0
   55.7540   29.7150   43.5480 C   0  0  0  0  0  0  0  0  0  0  0  0
   54.7680   30.0087   43.1588 H   0  0  0  0  0  0  0  0  0  0  0  0
   56.2239   28.9821   42.8757 H   0  0  0  0  0  0  0  0  0  0  0  0
   56.6360   30.9330   43.6340 C   0  0  0  0  0  0  0  0  0  0  0  0
   57.3300   31.3760   42.4990 C   0  0  0  0  0  0  0  0  0  0  0  0
   57.2253   30.8348   41.5471 H   0  0  0  0  0  0  0  0  0  0  0  0
   58.1540   32.5020   42.5720 C   0  0  0  0  0  0  0  0  0  0  0  0
   58.6895   32.8495   41.6761 H   0  0  0  0  0  0  0  0  0  0  0  0
   58.2990   33.1870   43.7800 C   0  0  0  0  0  0  0  0  0  0  0  0
   58.9432   34.0773   43.8289 H   0  0  0  0  0  0  0  0  0  0  0  0
   57.6290   32.7480   44.9320 C   0  0  0  0  0  0  0  0  0  0  0  0
   57.7780   33.4820   46.1590 N   0  0  0  0  0  0  0  0  0  0  0  0
   56.9420   33.9830   46.5350 H   0  0  0  0  0  0  0  0  0  0  0  0
   59.0330   33.6250   46.8490 C   0  0  0  0  0  0  0  0  0  0  0  0
   60.2200   33.8860   46.0770 N   0  0  0  0  0  0  0  0  0  0  0  0
   60.1300   34.0890   45.0570 H   0  0  0  0  0  0  0  0  0  0  0  0
   61.5150   33.8140   46.6130 C   0  0  0  0  0  0  0  0  0  0  0  0
   62.5830   33.7550   47.0550 N   0  0  0  0  0  0  0  0  0  0  0  0
   59.0870   33.5710   48.1570 N   0  0  0  0  0  0  0  0  0  0  0  0
   59.2670   34.4410   48.7040 H   0  0  0  0  0  0  0  0  0  0  0  0
   58.9130   32.3450   48.9440 C   0  0  0  0  0  0  0  0  0  0  0  0
   57.9216   32.3615   49.4204 H   0  0  0  0  0  0  0  0  0  0  0  0
   59.7065   32.3023   49.7046 H   0  0  0  0  0  0  0  0  0  0  0  0
   59.0210   31.1050   48.0600 C   0  0  0  0  0  0  0  0  0  0  0  0
   59.0990   30.2089   48.6932 H   0  0  0  0  0  0  0  0  0  0  0  0
   58.1261   31.0284   47.4249 H   0  0  0  0  0  0  0  0  0  0  0  0
   59.9156   31.1842   47.4249 H   0  0  0  0  0  0  0  0  0  0  0  0
   56.7850   31.6250   44.8480 C   0  0  0  0  0  0  0  0  0  0  0  0
   56.2375   31.2861   45.7398 H   0  0  0  0  0  0  0  0  0  0  0  0
   57.7140   28.2520   45.3090 C   0  0  0  0  0  0  0  0  0  0  0  0
   58.1894   29.1494   44.8864 H   0  0  0  0  0  0  0  0  0  0  0  0
   58.4970   27.2140   45.8180 C   0  0  0  0  0  0  0  0  0  0  0  0
   59.5941   27.2912   45.7991 H   0  0  0  0  0  0  0  0  0  0  0  0
   57.8850   26.0780   46.3510 C   0  0  0  0  0  0  0  0  0  0  0  0
   58.4936   25.2560   46.7558 H   0  0  0  0  0  0  0  0  0  0  0  0
  1  2  1  0
  2  3  1  0
  3  4  1  0
  4  5  2  0
  5  6  1  0
  6  7  1  0
  6  8  1  0
  6  9  1  0
  9 10  2  0
 10 11  1  0
 10 12  1  0
 12 13  1  0
 12 14  2  0
 14 15  1  0
 14 16  1  0
 16 17  1  0
 17 18  1  0
 17 19  1  0
 19 20  1  0
 20 21  1  0
 20 22  1  0
 22 23  3  0
 19 24  2  0
 24 25  1  0
 24 26  1  0
 26 27  1  0
 26 28  1  0
 26 29  1  0
 29 30  1  0
 29 31  1  0
 29 32  1  0
 16 33  2  0
 33 34  1  0
  4 35  1  0
 35 36  1  0
 35 37  2  0
 37 38  1  0
 37 39  1  0
 39 40  1  0
 39  2  2  0
 33  9  1  0
M  CHG  2   3  -1  24   1
M  END
>  <UniqueID>  (32) 
30

>  <SMILES>  (32) 
CC/[NH+]=C(/NC#N)Nc1cccc(C/N=c2/cccc[n-]2)c1

>  <Energy>  (32) 
40.41894527019446

>  <Genealogy>  (32) 
CC[NH+]=C(NC#N)Nc1cccc(CN=c2cccc[n-]2)c1 (protonated)
CC/[NH+]=C(/NC#N)Nc1cccc(C/N=c2/cccc[n-]2)c1 (cis-trans isomerization)
CC/[NH+]=C(/NC#N)Nc1cccc(C/N=c2/cccc[n-]2)c1 (3D coordinates assigned)
CC/[NH+]=C(/NC#N)Nc1cccc(C/N=c2/cccc[n-]2)c1 (optimized conformer: 40.41894527019446 kcal/mol)

>  <smiles>  (32) 
CCN=C(NC#N)Nc1cccc(CN=c2cccc[nH]2)c1

>  <score_type>  (32) 
oracle

>  <origin>  (32) 
adg

>  <m_score__min__energy>  (32) 
-7.21

>  <m_primary>  (32) 
energy

$$$$
32:0
     RDKit          3D

 43 45  0  0  0  0  0  0  0  0999 V2000
   54.7780   26.3100   45.9890 N   0  0  0  0  0  0  0  0  0  0  0  0
   56.3410   25.5810   46.0830 S   0  0  0  0  0  0  0  0  0  0  0  0
   56.3210   24.4780   47.1030 O   0  0  0  0  0  0  0  0  0  0  0  0
   56.7000   24.9940   44.7470 O   0  0  0  0  0  0  0  0  0  0  0  0
   57.5300   26.7960   46.5400 C   0  0  0  0  0  0  0  0  0  0  0  0
   58.5010   26.5020   47.5050 C   0  0  0  0  0  0  0  0  0  0  0  0
   59.4310   27.4720   47.8860 C   0  0  0  0  0  0  0  0  0  0  0  0
   59.4060   28.7470   47.3050 C   0  0  0  0  0  0  0  0  0  0  0  0
   60.3060   29.7560   47.7940 N   0  0  0  0  0  0  0  0  0  0  0  0
   61.2310   30.4280   46.8780 C   0  0  0  0  0  0  0  0  0  0  0  0
   61.4410   31.8780   47.3240 C   0  0  0  0  0  0  0  0  0  0  0  0
   61.7860   31.9400   48.6940 O   0  0  0  0  0  0  0  0  0  0  0  0
   60.7030   31.4830   49.4830 C   0  0  0  0  0  0  0  0  0  0  0  0
   60.4400   29.9960   49.2320 C   0  0  0  0  0  0  0  0  0  0  0  0
   58.4440   29.0390   46.3130 C   0  0  0  0  0  0  0  0  0  0  0  0
   58.4300   30.3050   45.6420 N   0  0  0  0  0  0  0  0  0  0  0  0
   57.2830   30.7560   44.9090 C   0  0  0  0  0  0  0  0  0  0  0  0
   56.2320   30.0610   44.8810 O   0  0  0  0  0  0  0  0  0  0  0  0
   57.3290   32.0500   44.1560 C   0  0  0  0  0  0  0  0  0  0  0  0
   57.9650   33.1090   44.9980 C   0  0  0  0  0  0  0  0  0  0  0  0
   57.7440   33.3120   46.3550 C   0  0  0  0  0  0  0  0  0  0  0  0
   58.5490   34.3210   46.8980 C   0  0  0  0  0  0  0  0  0  0  0  0
   59.4070   34.9070   45.9760 C   0  0  0  0  0  0  0  0  0  0  0  0
   59.1660   34.1680   44.4840 S   0  0  0  0  0  0  0  0  0  0  0  0
   57.4990   28.0680   45.9550 C   0  0  0  0  0  0  0  0  0  0  0  0
   54.7540   27.0730   46.7020 H   0  0  0  0  0  0  0  0  0  0  0  0
   58.5315   25.5032   47.9649 H   0  0  0  0  0  0  0  0  0  0  0  0
   60.1883   27.2334   48.6474 H   0  0  0  0  0  0  0  0  0  0  0  0
   62.1966   29.9011   46.8825 H   0  0  0  0  0  0  0  0  0  0  0  0
   60.8080   30.4180   45.8626 H   0  0  0  0  0  0  0  0  0  0  0  0
   62.2508   32.3243   46.7282 H   0  0  0  0  0  0  0  0  0  0  0  0
   60.5025   32.4315   47.1727 H   0  0  0  0  0  0  0  0  0  0  0  0
   60.9423   31.6329   50.5461 H   0  0  0  0  0  0  0  0  0  0  0  0
   59.8021   32.0523   49.2105 H   0  0  0  0  0  0  0  0  0  0  0  0
   61.2800   29.4044   49.6250 H   0  0  0  0  0  0  0  0  0  0  0  0
   59.5105   29.6990   49.7397 H   0  0  0  0  0  0  0  0  0  0  0  0
   59.2010   30.9810   45.8400 H   0  0  0  0  0  0  0  0  0  0  0  0
   57.9159   31.9152   43.2355 H   0  0  0  0  0  0  0  0  0  0  0  0
   56.3035   32.3572   43.9029 H   0  0  0  0  0  0  0  0  0  0  0  0
   57.0117   32.7387   46.9424 H   0  0  0  0  0  0  0  0  0  0  0  0
   58.5060   34.6213   47.9553 H   0  0  0  0  0  0  0  0  0  0  0  0
   60.1220   35.7162   46.1857 H   0  0  0  0  0  0  0  0  0  0  0  0
   56.7270   28.3068   45.2087 H   0  0  0  0  0  0  0  0  0  0  0  0
  1  2  1  0
  2  3  2  0
  2  4  2  0
  2  5  1  0
  5  6  2  0
  6  7  1  0
  7  8  2  0
  8  9  1  0
  9 10  1  0
 10 11  1  0
 11 12  1  0
 12 13  1  0
 13 14  1  0
  8 15  1  0
 15 16  1  0
 16 17  1  0
 17 18  2  0
 17 19  1  0
 19 20  1  0
 20 21  2  0
 21 22  1  0
 22 23  2  0
 23 24  1  0
 15 25  2  0
 25  5  1  0
 14  9  1  0
 24 20  1  0
  1 26  1  0
  6 27  1  0
  7 28  1  0
 10 29  1  0
 10 30  1  0
 11 31  1  0
 11 32  1  0
 13 33  1  0
 13 34  1  0
 14 35  1  0
 14 36  1  0
 16 37  1  0
 19 38  1  0
 19 39  1  0
 21 40  1  0
 22 41  1  0
 23 42  1  0
 25 43  1  0
M  CHG  1   1  -1
M  END
>  <UniqueID>  (33) 
31

>  <SMILES>  (33) 
[NH-]S(=O)(=O)c1ccc(N2CCOCC2)c(NC(=O)Cc2cccs2)c1

>  <Energy>  (33) 
75.82600361781209

>  <Genealogy>  (33) 
[NH-]S(=O)(=O)c1ccc(N2CCOCC2)c(NC(=O)Cc2cccs2)c1 (protonated)
[NH-]S(=O)(=O)c1ccc(N2CCOCC2)c(NC(=O)Cc2cccs2)c1 (3D coordinates assigned)
[NH-]S(=O)(=O)c1ccc(N2CCOCC2)c(NC(=O)Cc2cccs2)c1 (nonaromatic ring conformer: 75.82600361781209 kcal/mol)

>  <smiles>  (33) 
NS(=O)(=O)c1ccc(N2CCOCC2)c(NC(=O)Cc2cccs2)c1

>  <score_type>  (33) 
oracle

>  <origin>  (33) 
adg

>  <m_score__min__energy>  (33) 
-11.58

>  <m_primary>  (33) 
energy

$$$$
33:0
     RDKit          3D

 61 64  0  0  0  0  0  0  0  0999 V2000
   60.3600   26.8760   46.2860 O   0  0  0  0  0  0  0  0  0  0  0  0
   59.3530   27.5790   46.5720 C   0  0  0  0  0  0  0  0  0  0  0  0
   58.3040   27.7550   45.6180 N   0  0  0  0  0  0  0  0  0  0  0  0
   57.8780   29.0170   45.0810 C   0  0  0  0  0  0  0  0  0  0  0  0
   58.8530   29.9160   44.6270 C   0  0  0  0  0  0  0  0  0  0  0  0
   58.4790   31.1320   44.0450 C   0  0  0  0  0  0  0  0  0  0  0  0
   57.1270   31.4530   43.9030 C   0  0  0  0  0  0  0  0  0  0  0  0
   56.1460   30.5520   44.3250 C   0  0  0  0  0  0  0  0  0  0  0  0
   56.5140   29.3340   44.9050 C   0  0  0  0  0  0  0  0  0  0  0  0
   55.5390   28.4480   45.2300 F   0  0  0  0  0  0  0  0  0  0  0  0
   59.2510   28.2140   47.8510 N   0  0  0  0  0  0  0  0  0  0  0  0
   60.4090   28.4490   48.7150 C   0  0  0  0  0  0  0  0  0  0  0  0
   60.0060   28.6360   50.1890 C   0  0  0  0  0  0  0  0  0  0  0  0
   59.2390   29.9040   50.4400 C   0  0  0  0  0  0  0  0  0  0  0  0
   58.0750   29.8740   51.1410 N   0  0  0  0  0  0  0  0  0  0  0  0
   57.3080   30.9840   51.3020 C   0  0  0  0  0  0  0  0  0  0  0  0
   56.0340   30.8790   52.0340 C   0  0  0  0  0  0  0  0  0  0  0  0
   56.0020   31.1430   53.2660 O   0  0  0  0  0  0  0  0  0  0  0  0
   54.8410   30.4600   51.3650 N   0  0  0  0  0  0  0  0  0  0  0  0
   53.6640   29.9910   52.0870 C   0  0  0  0  0  0  0  0  0  0  0  0
   52.6110   31.0960   52.1720 C   0  0  0  0  0  0  0  0  0  0  0  0
   51.8240   31.2230   50.9010 C   0  0  0  0  0  0  0  0  0  0  0  0
   51.7650   30.2510   49.9690 N   0  0  0  0  0  0  0  0  0  0  0  0
   51.0280   30.7210   48.9760 N   0  0  0  0  0  0  0  0  0  0  0  0
   50.6700   31.9650   49.3370 C   0  0  0  0  0  0  0  0  0  0  0  0
   49.9640   32.7170   48.6160 O   0  0  0  0  0  0  0  0  0  0  0  0
   51.1480   32.3340   50.5400 N   0  0  0  0  0  0  0  0  0  0  0  0
   57.7230   32.1900   50.7250 C   0  0  0  0  0  0  0  0  0  0  0  0
   58.9040   32.2020   49.9770 C   0  0  0  0  0  0  0  0  0  0  0  0
   59.3090   33.4120   49.2500 C   0  0  0  0  0  0  0  0  0  0  0  0
   60.1270   34.2080   49.7810 O   0  0  0  0  0  0  0  0  0  0  0  0
   58.7440   33.7410   47.9730 N   0  0  0  0  0  0  0  0  0  0  0  0
   59.4410   33.6140   46.6940 C   0  0  0  0  0  0  0  0  0  0  0  0
   60.8220   33.0400   46.8890 C   0  0  0  0  0  0  0  0  0  0  0  0
   60.9850   31.6670   47.1380 C   0  0  0  0  0  0  0  0  0  0  0  0
   62.2580   31.1390   47.3710 C   0  0  0  0  0  0  0  0  0  0  0  0
   63.3780   31.9750   47.3540 C   0  0  0  0  0  0  0  0  0  0  0  0
   63.2280   33.3390   47.0910 C   0  0  0  0  0  0  0  0  0  0  0  0
   61.9560   33.8710   46.8540 C   0  0  0  0  0  0  0  0  0  0  0  0
   59.6320   31.0620   49.8460 N   0  0  0  0  0  0  0  0  0  0  0  0
   59.9188   29.6638   44.7290 H   0  0  0  0  0  0  0  0  0  0  0  0
   59.2502   31.8359   43.6989 H   0  0  0  0  0  0  0  0  0  0  0  0
   56.8344   32.4158   43.4586 H   0  0  0  0  0  0  0  0  0  0  0  0
   55.0819   30.8014   44.2007 H   0  0  0  0  0  0  0  0  0  0  0  0
   58.3310   28.6230   48.1310 H   0  0  0  0  0  0  0  0  0  0  0  0
   61.0878   27.5867   48.6400 H   0  0  0  0  0  0  0  0  0  0  0  0
   60.8991   29.3746   48.3787 H   0  0  0  0  0  0  0  0  0  0  0  0
   59.3794   27.7836   50.4904 H   0  0  0  0  0  0  0  0  0  0  0  0
   60.9348   28.6959   50.7753 H   0  0  0  0  0  0  0  0  0  0  0  0
   53.2376   29.1247   51.5599 H   0  0  0  0  0  0  0  0  0  0  0  0
   53.9629   29.7059   53.1065 H   0  0  0  0  0  0  0  0  0  0  0  0
   51.9197   30.8649   52.9959 H   0  0  0  0  0  0  0  0  0  0  0  0
   53.1325   32.0490   52.3448 H   0  0  0  0  0  0  0  0  0  0  0  0
   57.1325   33.1086   50.8573 H   0  0  0  0  0  0  0  0  0  0  0  0
   58.8644   32.9492   46.0340 H   0  0  0  0  0  0  0  0  0  0  0  0
   59.5358   34.6134   46.2444 H   0  0  0  0  0  0  0  0  0  0  0  0
   60.1069   31.0046   47.1496 H   0  0  0  0  0  0  0  0  0  0  0  0
   62.3786   30.0635   47.5681 H   0  0  0  0  0  0  0  0  0  0  0  0
   64.3777   31.5590   47.5477 H   0  0  0  0  0  0  0  0  0  0  0  0
   64.1107   33.9950   47.0703 H   0  0  0  0  0  0  0  0  0  0  0  0
   61.8424   34.9439   46.6394 H   0  0  0  0  0  0  0  0  0  0  0  0
  1  2  2  0
  2  3  1  0
  3  4  1  0
  4  5  2  0
  5  6  1  0
  6  7  2  0
  7  8  1  0
  8  9  2  0
  9 10  1  0
  2 11  1  0
 11 12  1  0
 12 13  1  0
 13 14  1  0
 14 15  2  0
 15 16  1  0
 16 17  1  0
 17 18  2  0
 17 19  1  0
 19 20  1  0
 20 21  1  0
 21 22  1  0
 22 23  2  0
 23 24  1  0
 24 25  1  0
 25 26  2  0
 25 27  1  0
 16 28  2  0
 28 29  1  0
 29 30  1  0
 30 31  2  0
 30 32  1  0
 32 33  1  0
 33 34  1  0
 34 35  2  0
 35 36  1  0
 36 37  2  0
 37 38  1  0
 38 39  2  0
 29 40  2  0
  9  4  1  0
 40 14  1  0
 27 22  1  0
 39 34  1  0
  5 41  1  0
  6 42  1  0
  7 43  1  0
  8 44  1  0
 11 45  1  0
 12 46  1  0
 12 47  1  0
 13 48  1  0
 13 49  1  0
 20 50  1  0
 20 51  1  0
 21 52  1  0
 21 53  1  0
 28 54  1  0
 33 55  1  0
 33 56  1  0
 35 57  1  0
 36 58  1  0
 37 59  1  0
 38 60  1  0
 39 61  1  0
M  CHG  5   3  -1  19  -1  24  -1  27  -1  32  -1
M  END
>  <UniqueID>  (34) 
32

>  <SMILES>  (34) 
O=C([N-]c1ccccc1F)NCCc1nc(C(=O)[N-]CCc2n[n-]c(=O)[n-]2)cc(C(=O)[N-]Cc2ccccc2)n1

>  <Energy>  (34) 
91.96058575792735

>  <Genealogy>  (34) 
O=C([N-]c1ccccc1F)NCCc1nc(C(=O)[N-]CCc2n[n-]c(=O)[n-]2)cc(C(=O)[N-]Cc2ccccc2)n1 (protonated)
O=C([N-]c1ccccc1F)NCCc1nc(C(=O)[N-]CCc2n[n-]c(=O)[n-]2)cc(C(=O)[N-]Cc2ccccc2)n1 (3D coordinates assigned)
O=C([N-]c1ccccc1F)NCCc1nc(C(=O)[N-]CCc2n[n-]c(=O)[n-]2)cc(C(=O)[N-]Cc2ccccc2)n1 (optimized conformer: 91.96058575792735 kcal/mol)

>  <smiles>  (34) 
O=C(NCCc1nc(C(=O)NCCc2n[nH]c(=O)[nH]2)cc(C(=O)NCc2ccccc2)n1)Nc1ccccc1F

>  <score_type>  (34) 
oracle

>  <origin>  (34) 
adg

>  <m_score__min__energy>  (34) 
-18.91

>  <m_primary>  (34) 
energy

$$$$
34:0
     RDKit          3D

 44 46  0  0  0  0  0  0  0  0999 V2000
   57.8070   26.5650   43.5350 C   0  0  0  0  0  0  0  0  0  0  0  0
   57.8440   27.6920   44.5330 C   0  0  0  0  0  0  0  0  0  0  0  0
   58.2930   27.5500   45.8600 C   0  0  0  0  0  0  0  0  0  0  0  0
   58.7950   26.3330   46.5300 C   0  0  0  0  0  0  0  0  0  0  0  0
   60.0370   26.1850   46.6880 O   0  0  0  0  0  0  0  0  0  0  0  0
   57.8860   25.3310   46.9980 N   0  0  0  0  0  0  0  0  0  0  0  0
   56.5150   25.1990   46.6070 C   0  0  0  0  0  0  0  0  0  0  0  0
   55.8040   26.2160   46.3820 O   0  0  0  0  0  0  0  0  0  0  0  0
   55.9040   23.8380   46.5360 C   0  0  0  0  0  0  0  0  0  0  0  0
   56.3280   23.1630   45.2710 C   0  0  0  0  0  0  0  0  0  0  0  0
   57.4950   22.4300   45.0930 C   0  0  0  0  0  0  0  0  0  0  0  0
   57.6690   21.9880   43.7750 C   0  0  0  0  0  0  0  0  0  0  0  0
   56.6520   22.3830   42.9140 C   0  0  0  0  0  0  0  0  0  0  0  0
   55.5370   23.2870   43.7920 S   0  0  0  0  0  0  0  0  0  0  0  0
   58.1470   29.0390   46.6370 S   0  0  0  0  0  0  0  0  0  0  0  0
   57.5500   29.8790   45.3180 C   0  0  0  0  0  0  0  0  0  0  0  0
   57.1340   31.2470   45.3700 N   0  0  0  0  0  0  0  0  0  0  0  0
   57.6300   32.2960   44.5300 C   0  0  0  0  0  0  0  0  0  0  0  0
   57.8660   32.0450   43.3180 O   0  0  0  0  0  0  0  0  0  0  0  0
   57.7430   33.7140   45.0150 C   0  0  0  0  0  0  0  0  0  0  0  0
   58.7630   33.7980   46.1150 C   0  0  0  0  0  0  0  0  0  0  0  0
   60.0990   34.1240   45.8190 C   0  0  0  0  0  0  0  0  0  0  0  0
   61.0560   34.1730   46.8390 C   0  0  0  0  0  0  0  0  0  0  0  0
   60.6880   33.8910   48.1580 C   0  0  0  0  0  0  0  0  0  0  0  0
   59.3650   33.5510   48.4580 C   0  0  0  0  0  0  0  0  0  0  0  0
   58.4070   33.4980   47.4410 C   0  0  0  0  0  0  0  0  0  0  0  0
   57.4070   29.0040   44.2420 C   0  0  0  0  0  0  0  0  0  0  0  0
   56.7840   29.3850   42.9970 C   0  0  0  0  0  0  0  0  0  0  0  0
   56.2830   29.6910   42.0010 N   0  0  0  0  0  0  0  0  0  0  0  0
   57.7754   25.6036   44.0686 H   0  0  0  0  0  0  0  0  0  0  0  0
   56.9116   26.6635   42.9037 H   0  0  0  0  0  0  0  0  0  0  0  0
   58.7069   26.6046   42.9037 H   0  0  0  0  0  0  0  0  0  0  0  0
   56.2370   23.2418   47.3984 H   0  0  0  0  0  0  0  0  0  0  0  0
   54.8078   23.9285   46.5520 H   0  0  0  0  0  0  0  0  0  0  0  0
   58.2084   22.2186   45.9032 H   0  0  0  0  0  0  0  0  0  0  0  0
   58.5301   21.3847   43.4518 H   0  0  0  0  0  0  0  0  0  0  0  0
   56.5871   22.1453   41.8420 H   0  0  0  0  0  0  0  0  0  0  0  0
   58.0518   34.3613   44.1810 H   0  0  0  0  0  0  0  0  0  0  0  0
   56.7669   34.0441   45.4000 H   0  0  0  0  0  0  0  0  0  0  0  0
   60.3928   34.3413   44.7815 H   0  0  0  0  0  0  0  0  0  0  0  0
   62.0983   34.4335   46.6028 H   0  0  0  0  0  0  0  0  0  0  0  0
   61.4393   33.9366   48.9601 H   0  0  0  0  0  0  0  0  0  0  0  0
   59.0777   33.3250   49.4955 H   0  0  0  0  0  0  0  0  0  0  0  0
   57.3698   33.2202   47.6799 H   0  0  0  0  0  0  0  0  0  0  0  0
  1  2  1  0
  2  3  2  0
  3  4  1  0
  4  5  2  0
  4  6  1  0
  6  7  1  0
  7  8  2  0
  7  9  1  0
  9 10  1  0
 10 11  2  0
 11 12  1  0
 12 13  2  0
 13 14  1  0
  3 15  1  0
 15 16  1  0
 16 17  1  0
 17 18  1  0
 18 19  2  0
 18 20  1  0
 20 21  1  0
 21 22  2  0
 22 23  1  0
 23 24  2  0
 24 25  1  0
 25 26  2  0
 16 27  2  0
 27 28  1  0
 28 29  3  0
 27  2  1  0
 14 10  1  0
 26 21  1  0
  1 30  1  0
  1 31  1  0
  1 32  1  0
  9 33  1  0
  9 34  1  0
 11 35  1  0
 12 36  1  0
 13 37  1  0
 20 38  1  0
 20 39  1  0
 22 40  1  0
 23 41  1  0
 24 42  1  0
 25 43  1  0
 26 44  1  0
M  CHG  2   6  -1  17  -1
M  END
>  <UniqueID>  (35) 
33

>  <SMILES>  (35) 
Cc1c(C(=O)[N-]C(=O)Cc2cccs2)sc([N-]C(=O)Cc2ccccc2)c1C#N

>  <Energy>  (35) 
100.36361857192654

>  <Genealogy>  (35) 
Cc1c(C(=O)[N-]C(=O)Cc2cccs2)sc([N-]C(=O)Cc2ccccc2)c1C#N (protonated)
Cc1c(C(=O)[N-]C(=O)Cc2cccs2)sc([N-]C(=O)Cc2ccccc2)c1C#N (3D coordinates assigned)
Cc1c(C(=O)[N-]C(=O)Cc2cccs2)sc([N-]C(=O)Cc2ccccc2)c1C#N (optimized conformer: 100.36361857192654 kcal/mol)

>  <smiles>  (35) 
Cc1c(C(=O)NC(=O)Cc2cccs2)sc(NC(=O)Cc2ccccc2)c1C#N

>  <score_type>  (35) 
oracle

>  <origin>  (35) 
adg

>  <m_score__min__energy>  (35) 
-12.41

>  <m_primary>  (35) 
energy

$$$$
35:0
     RDKit          3D

 38 40  0  0  0  0  0  0  0  0999 V2000
   55.7440   29.7390   46.0280 H   0  0  0  0  0  0  0  0  0  0  0  0
   55.7420   29.6310   45.0200 O   0  0  0  0  0  0  0  0  0  0  0  0
   56.4620   30.4920   44.1930 C   0  0  0  0  0  0  0  0  0  0  0  0
   56.2840   30.4580   42.8030 C   0  0  0  0  0  0  0  0  0  0  0  0
   55.5689   29.7510   42.3572 H   0  0  0  0  0  0  0  0  0  0  0  0
   57.0140   31.3210   41.9850 C   0  0  0  0  0  0  0  0  0  0  0  0
   56.8824   31.2969   40.8932 H   0  0  0  0  0  0  0  0  0  0  0  0
   57.9130   32.2150   42.5680 C   0  0  0  0  0  0  0  0  0  0  0  0
   58.4902   32.9050   41.9350 H   0  0  0  0  0  0  0  0  0  0  0  0
   58.0760   32.2340   43.9160 N   0  0  0  0  0  0  0  0  0  0  0  0
   57.3860   31.3960   44.7420 C   0  0  0  0  0  0  0  0  0  0  0  0
   57.5640   31.4260   46.0320 N   0  0  0  0  0  0  0  0  0  0  0  0
   58.1010   32.5200   46.7920 C   0  0  0  0  0  0  0  0  0  0  0  0
   57.3040   33.2620   47.4230 O   0  0  0  0  0  0  0  0  0  0  0  0
   59.5610   32.7630   46.9090 C   0  0  0  0  0  0  0  0  0  0  0  0
   60.1210   34.0450   46.8840 C   0  0  0  0  0  0  0  0  0  0  0  0
   59.3860   35.3400   46.7520 C   0  0  0  0  0  0  0  0  0  0  0  0
   59.1605   35.7373   47.7527 H   0  0  0  0  0  0  0  0  0  0  0  0
   60.0094   36.0611   46.2031 H   0  0  0  0  0  0  0  0  0  0  0  0
   58.4472   35.1745   46.2031 H   0  0  0  0  0  0  0  0  0  0  0  0
   61.7910   33.9150   47.0140 S   0  0  0  0  0  0  0  0  0  0  0  0
   61.8410   32.2390   47.1160 C   0  0  0  0  0  0  0  0  0  0  0  0
   63.0990   31.4440   47.2510 C   0  0  0  0  0  0  0  0  0  0  0  0
   63.3285   31.2990   48.3170 H   0  0  0  0  0  0  0  0  0  0  0  0
   62.9675   30.4646   46.7677 H   0  0  0  0  0  0  0  0  0  0  0  0
   63.9271   31.9831   46.7677 H   0  0  0  0  0  0  0  0  0  0  0  0
   60.5360   31.7410   47.0400 C   0  0  0  0  0  0  0  0  0  0  0  0
   60.2180   30.2990   47.1290 C   0  0  0  0  0  0  0  0  0  0  0  0
   59.8710   29.7240   48.3630 C   0  0  0  0  0  0  0  0  0  0  0  0
   59.8668   30.3417   49.2732 H   0  0  0  0  0  0  0  0  0  0  0  0
   59.5310   28.3700   48.4390 C   0  0  0  0  0  0  0  0  0  0  0  0
   59.2586   27.9252   49.4075 H   0  0  0  0  0  0  0  0  0  0  0  0
   59.5370   27.5810   47.2850 C   0  0  0  0  0  0  0  0  0  0  0  0
   59.2668   26.5164   47.3455 H   0  0  0  0  0  0  0  0  0  0  0  0
   59.8860   28.1440   46.0550 C   0  0  0  0  0  0  0  0  0  0  0  0
   59.8924   27.5215   45.1481 H   0  0  0  0  0  0  0  0  0  0  0  0
   60.2270   29.4970   45.9750 C   0  0  0  0  0  0  0  0  0  0  0  0
   60.5035   29.9359   45.0050 H   0  0  0  0  0  0  0  0  0  0  0  0
  1  2  1  0
  2  3  1  0
  3  4  2  0
  4  5  1  0
  4  6  1  0
  6  7  1  0
  6  8  2  0
  8  9  1  0
  8 10  1  0
 10 11  1  0
 11 12  2  0
 12 13  1  0
 13 14  2  0
 13 15  1  0
 15 16  2  0
 16 17  1  0
 17 18  1  0
 17 19  1  0
 17 20  1  0
 16 21  1  0
 21 22  1  0
 22 23  1  0
 23 24  1  0
 23 25  1  0
 23 26  1  0
 22 27  2  0
 27 28  1  0
 28 29  2  0
 29 30  1  0
 29 31  1  0
 31 32  1  0
 31 33  2  0
 33 34  1  0
 33 35  1  0
 35 36  1  0
 35 37  2  0
 37 38  1  0
 11  3  1  0
 27 15  1  0
 37 28  1  0
M  CHG  1  10  -1
M  END
>  <UniqueID>  (36) 
34

>  <SMILES>  (36) 
Cc1sc(C)c(-c2ccccc2)c1C(=O)/N=c1\[n-]cccc1O

>  <Energy>  (36) 
77.23163037025913

>  <Genealogy>  (36) 
Cc1sc(C)c(-c2ccccc2)c1C(=O)N=c1[n-]cccc1O (protonated)
Cc1sc(C)c(-c2ccccc2)c1C(=O)/N=c1\[n-]cccc1O (cis-trans isomerization)
Cc1sc(C)c(-c2ccccc2)c1C(=O)/N=c1\[n-]cccc1O (3D coordinates assigned)
Cc1sc(C)c(-c2ccccc2)c1C(=O)/N=c1\[n-]cccc1O (optimized conformer: 77.23163037025913 kcal/mol)

>  <smiles>  (36) 
Cc1sc(C)c(-c2ccccc2)c1C(=O)N=c1[nH]cccc1O

>  <score_type>  (36) 
oracle

>  <origin>  (36) 
adg

>  <m_score__min__energy>  (36) 
-10.130000000000001

>  <m_primary>  (36) 
energy

$$$$
36:0
     RDKit          3D

 58 61  0  0  0  0  0  0  0  0999 V2000
   57.9340   33.8484   43.0112 H   0  0  0  0  0  0  0  0  0  0  0  0
   58.0600   33.0360   43.7420 C   0  0  0  0  0  0  0  0  0  0  0  0
   58.1290   33.4030   45.1700 C   0  0  0  0  0  0  0  0  0  0  0  0
   57.6210   34.4970   45.5350 O   0  0  0  0  0  0  0  0  0  0  0  0
   58.7330   32.5200   46.1340 N   0  0  0  0  0  0  0  0  0  0  0  0
   59.0300   31.5680   45.8210 H   0  0  0  0  0  0  0  0  0  0  0  0
   59.1360   32.9350   47.4490 C   0  0  0  0  0  0  0  0  0  0  0  0
   60.2050   33.8310   47.5860 C   0  0  0  0  0  0  0  0  0  0  0  0
   60.7106   34.2216   46.6905 H   0  0  0  0  0  0  0  0  0  0  0  0
   60.6310   34.2300   48.8550 C   0  0  0  0  0  0  0  0  0  0  0  0
   61.4664   34.9384   48.9563 H   0  0  0  0  0  0  0  0  0  0  0  0
   59.9980   33.7310   49.9950 C   0  0  0  0  0  0  0  0  0  0  0  0
   60.3417   34.0442   50.9919 H   0  0  0  0  0  0  0  0  0  0  0  0
   58.9280   32.8340   49.8780 C   0  0  0  0  0  0  0  0  0  0  0  0
   58.3310   32.3240   51.0760 N   0  0  0  0  0  0  0  0  0  0  0  0
   58.1420   30.6510   51.5050 S   0  0  0  0  0  0  0  0  0  0  0  0
   58.6500   30.3630   52.8890 O   0  0  0  0  0  0  0  0  0  0  0  0
   56.6800   30.3080   51.4530 O   0  0  0  0  0  0  0  0  0  0  0  0
   59.0430   29.6700   50.3560 C   0  0  0  0  0  0  0  0  0  0  0  0
   58.5480   29.4360   49.0630 C   0  0  0  0  0  0  0  0  0  0  0  0
   57.5861   29.8727   48.7564 H   0  0  0  0  0  0  0  0  0  0  0  0
   59.2740   28.6500   48.1650 C   0  0  0  0  0  0  0  0  0  0  0  0
   58.8839   28.4678   47.1528 H   0  0  0  0  0  0  0  0  0  0  0  0
   60.4970   28.0950   48.5540 C   0  0  0  0  0  0  0  0  0  0  0  0
   61.0680   27.4756   47.8466 H   0  0  0  0  0  0  0  0  0  0  0  0
   60.9960   28.3250   49.8390 C   0  0  0  0  0  0  0  0  0  0  0  0
   61.9583   27.8871   50.1425 H   0  0  0  0  0  0  0  0  0  0  0  0
   60.2710   29.1120   50.7380 C   0  0  0  0  0  0  0  0  0  0  0  0
   60.6652   29.2942   51.7486 H   0  0  0  0  0  0  0  0  0  0  0  0
   58.5210   32.4140   48.6000 C   0  0  0  0  0  0  0  0  0  0  0  0
   57.7151   31.6720   48.5001 H   0  0  0  0  0  0  0  0  0  0  0  0
   58.1400   31.7820   43.2720 C   0  0  0  0  0  0  0  0  0  0  0  0
   58.6597   31.6220   42.3158 H   0  0  0  0  0  0  0  0  0  0  0  0
   57.5740   30.6030   43.9580 C   0  0  0  0  0  0  0  0  0  0  0  0
   56.1870   30.4620   44.1290 C   0  0  0  0  0  0  0  0  0  0  0  0
   55.5095   31.2611   43.7938 H   0  0  0  0  0  0  0  0  0  0  0  0
   55.6650   29.3110   44.7230 C   0  0  0  0  0  0  0  0  0  0  0  0
   54.5788   29.2136   44.8665 H   0  0  0  0  0  0  0  0  0  0  0  0
   56.5180   28.2800   45.1370 C   0  0  0  0  0  0  0  0  0  0  0  0
   55.9450   27.0780   45.6620 N   0  0  0  0  0  0  0  0  0  0  0  0
   56.8750   25.7460   46.2660 S   0  0  0  0  0  0  0  0  0  0  0  0
   56.2130   25.2020   47.5000 O   0  0  0  0  0  0  0  0  0  0  0  0
   58.2590   26.2050   46.6320 O   0  0  0  0  0  0  0  0  0  0  0  0
   56.9270   24.4800   45.0430 C   0  0  0  0  0  0  0  0  0  0  0  0
   57.9900   23.5650   45.0380 C   0  0  0  0  0  0  0  0  0  0  0  0
   58.8004   23.6622   45.7754 H   0  0  0  0  0  0  0  0  0  0  0  0
   58.0230   22.5300   44.0990 C   0  0  0  0  0  0  0  0  0  0  0  0
   58.8630   21.8198   44.0928 H   0  0  0  0  0  0  0  0  0  0  0  0
   56.9880   22.3970   43.1670 C   0  0  0  0  0  0  0  0  0  0  0  0
   57.0107   21.5786   42.4324 H   0  0  0  0  0  0  0  0  0  0  0  0
   55.9250   23.3050   43.1700 C   0  0  0  0  0  0  0  0  0  0  0  0
   55.1108   23.1996   42.4379 H   0  0  0  0  0  0  0  0  0  0  0  0
   55.8950   24.3470   44.1020 C   0  0  0  0  0  0  0  0  0  0  0  0
   55.0606   25.0638   44.0973 H   0  0  0  0  0  0  0  0  0  0  0  0
   57.9080   28.4470   45.0170 C   0  0  0  0  0  0  0  0  0  0  0  0
   58.5869   27.6598   45.3767 H   0  0  0  0  0  0  0  0  0  0  0  0
   58.4320   29.6080   44.4430 C   0  0  0  0  0  0  0  0  0  0  0  0
   59.5216   29.7410   44.3718 H   0  0  0  0  0  0  0  0  0  0  0  0
  1  2  1  0
  2  3  1  0
  3  4  2  0
  3  5  1  0
  5  6  1  0
  5  7  1  0
  7  8  2  0
  8  9  1  0
  8 10  1  0
 10 11  1  0
 10 12  2  0
 12 13  1  0
 12 14  1  0
 14 15  1  0
 15 16  1  0
 16 17  2  0
 16 18  2  0
 16 19  1  0
 19 20  2  0
 20 21  1  0
 20 22  1  0
 22 23  1  0
 22 24  2  0
 24 25  1  0
 24 26  1  0
 26 27  1  0
 26 28  2  0
 28 29  1  0
 14 30  2  0
 30 31  1  0
  2 32  2  0
 32 33  1  0
 32 34  1  0
 34 35  2  0
 35 36  1  0
 35 37  1  0
 37 38  1  0
 37 39  2  0
 39 40  1  0
 40 41  1  0
 41 42  2  0
 41 43  2  0
 41 44  1  0
 44 45  2  0
 45 46  1  0
 45 47  1  0
 47 48  1  0
 47 49  2  0
 49 50  1  0
 49 51  1  0
 51 52  1  0
 51 53  2  0
 53 54  1  0
 39 55  1  0
 55 56  1  0
 55 57  2  0
 57 58  1  0
 30  7  1  0
 57 34  1  0
 28 19  1  0
 53 44  1  0
M  CHG  2  15  -1  40  -1
M  END
>  <UniqueID>  (37) 
35

>  <SMILES>  (37) 
O=C(/C=C\c1ccc([N-]S(=O)(=O)c2ccccc2)cc1)Nc1cccc([N-]S(=O)(=O)c2ccccc2)c1

>  <Energy>  (37) 
84.25734305741848

>  <Genealogy>  (37) 
O=C(C=Cc1ccc([N-]S(=O)(=O)c2ccccc2)cc1)Nc1cccc([N-]S(=O)(=O)c2ccccc2)c1 (protonated)
O=C(/C=C\c1ccc([N-]S(=O)(=O)c2ccccc2)cc1)Nc1cccc([N-]S(=O)(=O)c2ccccc2)c1 (cis-trans isomerization)
O=C(/C=C\c1ccc([N-]S(=O)(=O)c2ccccc2)cc1)Nc1cccc([N-]S(=O)(=O)c2ccccc2)c1 (3D coordinates assigned)
O=C(/C=C\c1ccc([N-]S(=O)(=O)c2ccccc2)cc1)Nc1cccc([N-]S(=O)(=O)c2ccccc2)c1 (optimized conformer: 84.25734305741848 kcal/mol)

>  <smiles>  (37) 
O=C(C=Cc1ccc(NS(=O)(=O)c2ccccc2)cc1)Nc1cccc(NS(=O)(=O)c2ccccc2)c1

>  <score_type>  (37) 
oracle

>  <origin>  (37) 
adg

>  <m_score__min__energy>  (37) 
-14.91

>  <m_primary>  (37) 
energy

$$$$
37:0
     RDKit          3D

 54 56  0  0  0  0  0  0  0  0999 V2000
   59.7080   33.6780   49.9940 C   0  0  0  0  0  0  0  0  0  0  0  0
   60.1000   33.8400   48.5710 C   0  0  0  0  0  0  0  0  0  0  0  0
   59.1120   34.1400   47.6330 C   0  0  0  0  0  0  0  0  0  0  0  0
   59.5030   34.2840   46.3190 C   0  0  0  0  0  0  0  0  0  0  0  0
   58.5630   34.6040   45.2140 C   0  0  0  0  0  0  0  0  0  0  0  0
   57.0650   33.6340   45.2060 S   0  0  0  0  0  0  0  0  0  0  0  0
   57.3930   31.8780   45.0810 C   0  0  0  0  0  0  0  0  0  0  0  0
   56.3540   31.0760   44.8630 N   0  0  0  0  0  0  0  0  0  0  0  0
   56.4650   29.7460   44.7480 C   0  0  0  0  0  0  0  0  0  0  0  0
   55.4580   28.9910   44.5380 O   0  0  0  0  0  0  0  0  0  0  0  0
   57.7410   29.1950   44.8660 C   0  0  0  0  0  0  0  0  0  0  0  0
   57.8610   27.7230   44.7350 C   0  0  0  0  0  0  0  0  0  0  0  0
   58.1560   27.4050   43.2740 C   0  0  0  0  0  0  0  0  0  0  0  0
   58.9980   27.1490   45.5760 C   0  0  0  0  0  0  0  0  0  0  0  0
   58.8030   30.0390   45.0910 C   0  0  0  0  0  0  0  0  0  0  0  0
   58.6620   31.3810   45.2040 N   0  0  0  0  0  0  0  0  0  0  0  0
   60.8440   34.1350   45.9480 C   0  0  0  0  0  0  0  0  0  0  0  0
   61.8260   33.8400   46.8690 C   0  0  0  0  0  0  0  0  0  0  0  0
   61.4210   33.6950   48.2000 C   0  0  0  0  0  0  0  0  0  0  0  0
   62.4620   33.3930   49.1250 N   0  0  0  0  0  0  0  0  0  0  0  0
   63.4540   32.4020   48.8900 C   0  0  0  0  0  0  0  0  0  0  0  0
   63.3820   31.7750   47.8010 O   0  0  0  0  0  0  0  0  0  0  0  0
   64.5090   32.1200   49.8620 C   0  0  0  0  0  0  0  0  0  0  0  0
   65.7310   32.7490   49.8000 C   0  0  0  0  0  0  0  0  0  0  0  0
   66.7530   32.4950   50.7160 C   0  0  0  0  0  0  0  0  0  0  0  0
   66.5460   31.5850   51.7220 C   0  0  0  0  0  0  0  0  0  0  0  0
   65.3260   30.9480   51.7940 C   0  0  0  0  0  0  0  0  0  0  0  0
   64.3080   31.2070   50.8730 C   0  0  0  0  0  0  0  0  0  0  0  0
   63.0310   30.4680   51.0360 C   0  0  0  0  0  0  0  0  0  0  0  0
   60.5297   34.0176   50.6416 H   0  0  0  0  0  0  0  0  0  0  0  0
   58.8089   34.2783   50.1973 H   0  0  0  0  0  0  0  0  0  0  0  0
   59.4950   32.6181   50.1973 H   0  0  0  0  0  0  0  0  0  0  0  0
   58.0596   34.2573   47.9309 H   0  0  0  0  0  0  0  0  0  0  0  0
   58.2841   35.6648   45.2976 H   0  0  0  0  0  0  0  0  0  0  0  0
   59.0911   34.3683   44.2783 H   0  0  0  0  0  0  0  0  0  0  0  0
   56.9195   27.2750   45.0855 H   0  0  0  0  0  0  0  0  0  0  0  0
   58.9031   26.5996   43.2177 H   0  0  0  0  0  0  0  0  0  0  0  0
   57.2304   27.0821   42.7749 H   0  0  0  0  0  0  0  0  0  0  0  0
   58.5473   28.3038   42.7749 H   0  0  0  0  0  0  0  0  0  0  0  0
   58.7610   27.2686   46.6435 H   0  0  0  0  0  0  0  0  0  0  0  0
   59.1215   26.0806   45.3453 H   0  0  0  0  0  0  0  0  0  0  0  0
   59.9310   27.6841   45.3453 H   0  0  0  0  0  0  0  0  0  0  0  0
   59.8098   29.6056   45.1831 H   0  0  0  0  0  0  0  0  0  0  0  0
   59.4660   32.0210   45.3720 H   0  0  0  0  0  0  0  0  0  0  0  0
   61.1224   34.2568   44.8908 H   0  0  0  0  0  0  0  0  0  0  0  0
   62.8786   33.7241   46.5714 H   0  0  0  0  0  0  0  0  0  0  0  0
   62.4510   33.9600   50.0120 H   0  0  0  0  0  0  0  0  0  0  0  0
   65.9094   33.4801   48.9977 H   0  0  0  0  0  0  0  0  0  0  0  0
   67.7161   33.0198   50.6322 H   0  0  0  0  0  0  0  0  0  0  0  0
   67.3369   31.3686   52.4553 H   0  0  0  0  0  0  0  0  0  0  0  0
   65.1493   30.2172   52.5969 H   0  0  0  0  0  0  0  0  0  0  0  0
   62.8141   30.3425   52.1071 H   0  0  0  0  0  0  0  0  0  0  0  0
   62.2164   31.0343   50.5609 H   0  0  0  0  0  0  0  0  0  0  0  0
   63.1161   29.4796   50.5609 H   0  0  0  0  0  0  0  0  0  0  0  0
  1  2  1  0
  2  3  2  0
  3  4  1  0
  4  5  1  0
  5  6  1  0
  6  7  1  0
  7  8  2  0
  8  9  1  0
  9 10  2  0
  9 11  1  0
 11 12  1  0
 12 13  1  0
 12 14  1  0
 11 15  2  0
 15 16  1  0
  4 17  2  0
 17 18  1  0
 18 19  2  0
 19 20  1  0
 20 21  1  0
 21 22  2  0
 21 23  1  0
 23 24  2  0
 24 25  1  0
 25 26  2  0
 26 27  1  0
 27 28  2  0
 28 29  1  0
 19  2  1  0
 28 23  1  0
 16  7  1  0
  1 30  1  0
  1 31  1  0
  1 32  1  0
  3 33  1  0
  5 34  1  0
  5 35  1  0
 12 36  1  0
 13 37  1  0
 13 38  1  0
 13 39  1  0
 14 40  1  0
 14 41  1  0
 14 42  1  0
 15 43  1  0
 16 44  1  0
 17 45  1  0
 18 46  1  0
 20 47  1  0
 24 48  1  0
 25 49  1  0
 26 50  1  0
 27 51  1  0
 29 52  1  0
 29 53  1  0
 29 54  1  0
M  END
>  <smiles>  (38) 
Cc1cc(CSc2nc(=O)c(C(C)C)c[nH]2)ccc1NC(=O)c1ccccc1C

>  <score_type>  (38) 
oracle

>  <origin>  (38) 
adg

>  <m_score__min__energy>  (38) 
-9.6799999999999997

>  <m_primary>  (38) 
energy

$$$$
38:0
     RDKit          3D

 45 46  0  0  0  0  0  0  0  0999 V2000
   60.0500   34.2240   49.0740 C   0  0  0  0  0  0  0  0  0  0  0  0
   59.6060   33.7170   47.7630 C   0  0  0  0  0  0  0  0  0  0  0  0
   58.6090   34.4080   47.0840 C   0  0  0  0  0  0  0  0  0  0  0  0
   58.2050   33.9230   45.8610 C   0  0  0  0  0  0  0  0  0  0  0  0
   58.7580   32.7860   45.3070 C   0  0  0  0  0  0  0  0  0  0  0  0
   58.2540   32.3850   44.0360 N   0  0  0  0  0  0  0  0  0  0  0  0
   57.2640   31.3530   44.0480 C   0  0  0  0  0  0  0  0  0  0  0  0
   56.8630   30.8300   45.1320 O   0  0  0  0  0  0  0  0  0  0  0  0
   56.6480   30.8320   42.7990 C   0  0  0  0  0  0  0  0  0  0  0  0
   56.6580   29.0350   42.7260 S   0  0  0  0  0  0  0  0  0  0  0  0
   57.7750   28.3900   43.9510 C   0  0  0  0  0  0  0  0  0  0  0  0
   59.0870   28.7490   43.9260 N   0  0  0  0  0  0  0  0  0  0  0  0
   59.9480   28.2590   44.8600 C   0  0  0  0  0  0  0  0  0  0  0  0
   61.3220   28.6080   44.8700 N   0  0  0  0  0  0  0  0  0  0  0  0
   59.4260   27.4120   45.7900 C   0  0  0  0  0  0  0  0  0  0  0  0
   58.0940   27.0320   45.8360 C   0  0  0  0  0  0  0  0  0  0  0  0
   57.6600   26.2470   46.7140 O   0  0  0  0  0  0  0  0  0  0  0  0
   57.2870   27.5480   44.8850 N   0  0  0  0  0  0  0  0  0  0  0  0
   59.7400   32.1090   45.9840 C   0  0  0  0  0  0  0  0  0  0  0  0
   60.1700   32.5700   47.2150 C   0  0  0  0  0  0  0  0  0  0  0  0
   61.4150   31.7530   48.1200 S   0  0  0  0  0  0  0  0  0  0  0  0
   61.8100   30.5070   47.3550 O   0  0  0  0  0  0  0  0  0  0  0  0
   60.8470   31.3160   49.4250 O   0  0  0  0  0  0  0  0  0  0  0  0
   62.8230   32.7220   48.3220 N   0  0  0  0  0  0  0  0  0  0  0  0
   63.4540   33.0620   47.0920 C   0  0  0  0  0  0  0  0  0  0  0  0
   63.7490   31.9800   49.1530 C   0  0  0  0  0  0  0  0  0  0  0  0
   59.5528   33.6562   49.8742 H   0  0  0  0  0  0  0  0  0  0  0  0
   61.1400   34.1053   49.1630 H   0  0  0  0  0  0  0  0  0  0  0  0
   59.7886   35.2888   49.1630 H   0  0  0  0  0  0  0  0  0  0  0  0
   58.1566   35.3151   47.5113 H   0  0  0  0  0  0  0  0  0  0  0  0
   57.4180   34.4573   45.3086 H   0  0  0  0  0  0  0  0  0  0  0  0
   58.5700   32.8020   43.1340 H   0  0  0  0  0  0  0  0  0  0  0  0
   55.6064   31.1817   42.7465 H   0  0  0  0  0  0  0  0  0  0  0  0
   57.2421   31.2049   41.9517 H   0  0  0  0  0  0  0  0  0  0  0  0
   61.6850   29.2140   45.6120 H   0  0  0  0  0  0  0  0  0  0  0  0
   61.9930   28.2730   44.1470 H   0  0  0  0  0  0  0  0  0  0  0  0
   60.1048   27.0035   46.5532 H   0  0  0  0  0  0  0  0  0  0  0  0
   56.2740   27.3040   44.8600 H   0  0  0  0  0  0  0  0  0  0  0  0
   60.1845   31.2017   45.5490 H   0  0  0  0  0  0  0  0  0  0  0  0
   64.4053   33.5746   47.2974 H   0  0  0  0  0  0  0  0  0  0  0  0
   63.6481   32.1464   46.5141 H   0  0  0  0  0  0  0  0  0  0  0  0
   62.7961   33.7277   46.5141 H   0  0  0  0  0  0  0  0  0  0  0  0
   63.5191   32.1642   50.2128 H   0  0  0  0  0  0  0  0  0  0  0  0
   63.6539   30.9053   48.9386 H   0  0  0  0  0  0  0  0  0  0  0  0
   64.7771   32.3071   48.9386 H   0  0  0  0  0  0  0  0  0  0  0  0
  1  2  1  0
  2  3  2  0
  3  4  1  0
  4  5  2  0
  5  6  1  0
  6  7  1  0
  7  8  2  0
  7  9  1  0
  9 10  1  0
 10 11  1  0
 11 12  2  0
 12 13  1  0
 13 14  1  0
 13 15  2  0
 15 16  1  0
 16 17  2  0
 16 18  1  0
  5 19  1  0
 19 20  2  0
 20 21  1  0
 21 22  2  0
 21 23  2  0
 21 24  1  0
 24 25  1  0
 24 26  1  0
 20  2  1  0
 18 11  1  0
  1 27  1  0
  1 28  1  0
  1 29  1  0
  3 30  1  0
  4 31  1  0
  6 32  1  0
  9 33  1  0
  9 34  1  0
 14 35  1  0
 14 36  1  0
 15 37  1  0
 18 38  1  0
 19 39  1  0
 25 40  1  0
 25 41  1  0
 25 42  1  0
 26 43  1  0
 26 44  1  0
 26 45  1  0
M  END
>  <smiles>  (39) 
Cc1ccc(NC(=O)CSc2nc(N)cc(=O)[nH]2)cc1S(=O)(=O)N(C)C

>  <score_type>  (39) 
oracle

>  <origin>  (39) 
adg

>  <m_score__min__energy>  (39) 
-8.7899999999999991

>  <m_primary>  (39) 
energy

$$$$
39:0
     RDKit          3D

 47 49  0  0  0  0  0  0  0  0999 V2000
   58.3185   33.3107   42.4978 H   0  0  0  0  0  0  0  0  0  0  0  0
   57.7770   32.6730   43.2120 C   0  0  0  0  0  0  0  0  0  0  0  0
   57.2430   31.1030   42.9280 S   0  0  0  0  0  0  0  0  0  0  0  0
   56.5690   30.9500   44.4580 C   0  0  0  0  0  0  0  0  0  0  0  0
   55.9610   29.8780   44.8700 N   0  0  0  0  0  0  0  0  0  0  0  0
   56.5860   28.6890   45.3840 C   0  0  0  0  0  0  0  0  0  0  0  0
   55.8990   27.6580   45.6170 O   0  0  0  0  0  0  0  0  0  0  0  0
   58.0560   28.6760   45.6060 C   0  0  0  0  0  0  0  0  0  0  0  0
   58.5580   29.2460   46.7930 C   0  0  0  0  0  0  0  0  0  0  0  0
   57.8589   29.6666   47.5308 H   0  0  0  0  0  0  0  0  0  0  0  0
   59.9300   29.2840   47.0450 C   0  0  0  0  0  0  0  0  0  0  0  0
   60.3046   29.7336   47.9764 H   0  0  0  0  0  0  0  0  0  0  0  0
   60.8260   28.7540   46.1200 C   0  0  0  0  0  0  0  0  0  0  0  0
   61.9074   28.7928   46.3177 H   0  0  0  0  0  0  0  0  0  0  0  0
   60.3530   28.1740   44.9430 C   0  0  0  0  0  0  0  0  0  0  0  0
   61.0672   27.7593   44.2164 H   0  0  0  0  0  0  0  0  0  0  0  0
   58.9730   28.1130   44.6740 C   0  0  0  0  0  0  0  0  0  0  0  0
   58.5190   27.4380   43.4060 C   0  0  0  0  0  0  0  0  0  0  0  0
   57.9213   26.5494   43.6574 H   0  0  0  0  0  0  0  0  0  0  0  0
   57.9068   28.1371   42.8174 H   0  0  0  0  0  0  0  0  0  0  0  0
   59.3973   27.1346   42.8174 H   0  0  0  0  0  0  0  0  0  0  0  0
   56.7330   32.0670   45.1990 N   0  0  0  0  0  0  0  0  0  0  0  0
   57.4130   33.0240   44.5110 C   0  0  0  0  0  0  0  0  0  0  0  0
   57.6760   34.3760   45.0960 C   0  0  0  0  0  0  0  0  0  0  0  0
   56.7650   34.7431   45.5914 H   0  0  0  0  0  0  0  0  0  0  0  0
   57.9659   35.0692   44.2927 H   0  0  0  0  0  0  0  0  0  0  0  0
   58.7860   34.2880   46.0980 C   0  0  0  0  0  0  0  0  0  0  0  0
   59.2610   35.3460   46.5910 O   0  0  0  0  0  0  0  0  0  0  0  0
   59.2930   33.0040   46.4930 N   0  0  0  0  0  0  0  0  0  0  0  0
   58.7030   32.1640   46.2930 H   0  0  0  0  0  0  0  0  0  0  0  0
   60.5170   32.8090   47.2210 C   0  0  0  0  0  0  0  0  0  0  0  0
   60.4920   32.0990   48.4310 C   0  0  0  0  0  0  0  0  0  0  0  0
   59.5369   31.7159   48.8197 H   0  0  0  0  0  0  0  0  0  0  0  0
   61.6720   31.8750   49.1460 C   0  0  0  0  0  0  0  0  0  0  0  0
   61.6395   31.3199   50.0951 H   0  0  0  0  0  0  0  0  0  0  0  0
   62.8970   32.3540   48.6600 C   0  0  0  0  0  0  0  0  0  0  0  0
   64.1720   32.0830   49.4130 C   0  0  0  0  0  0  0  0  0  0  0  0
   64.6410   33.0403   49.6844 H   0  0  0  0  0  0  0  0  0  0  0  0
   64.8439   31.4965   48.7692 H   0  0  0  0  0  0  0  0  0  0  0  0
   63.8920   31.2860   50.6820 C   0  0  0  0  0  0  0  0  0  0  0  0
   64.1108   31.9088   51.5619 H   0  0  0  0  0  0  0  0  0  0  0  0
   62.8342   30.9847   50.6999 H   0  0  0  0  0  0  0  0  0  0  0  0
   64.5290   30.3894   50.6999 H   0  0  0  0  0  0  0  0  0  0  0  0
   62.9310   33.0330   47.4320 C   0  0  0  0  0  0  0  0  0  0  0  0
   63.8907   33.3905   47.0305 H   0  0  0  0  0  0  0  0  0  0  0  0
   61.7510   33.2570   46.7170 C   0  0  0  0  0  0  0  0  0  0  0  0
   61.7879   33.7871   45.7539 H   0  0  0  0  0  0  0  0  0  0  0  0
  1  2  1  0
  2  3  1  0
  3  4  1  0
  4  5  2  0
  5  6  1  0
  6  7  2  0
  6  8  1  0
  8  9  2  0
  9 10  1  0
  9 11  1  0
 11 12  1  0
 11 13  2  0
 13 14  1  0
 13 15  1  0
 15 16  1  0
 15 17  2  0
 17 18  1  0
 18 19  1  0
 18 20  1  0
 18 21  1  0
  4 22  1  0
 22 23  1  0
 23 24  1  0
 24 25  1  0
 24 26  1  0
 24 27  1  0
 27 28  2  0
 27 29  1  0
 29 30  1  0
 29 31  1  0
 31 32  2  0
 32 33  1  0
 32 34  1  0
 34 35  1  0
 34 36  2  0
 36 37  1  0
 37 38  1  0
 37 39  1  0
 37 40  1  0
 40 41  1  0
 40 42  1  0
 40 43  1  0
 36 44  1  0
 44 45  1  0
 44 46  2  0
 46 47  1  0
 23  2  2  0
 46 31  1  0
 17  8  1  0
M  CHG  1  22  -1
M  END
>  <UniqueID>  (40) 
36

>  <SMILES>  (40) 
CCc1ccc(NC(=O)Cc2cs/c(=N/C(=O)c3ccccc3C)[n-]2)cc1

>  <Energy>  (40) 
82.47751059490423

>  <Genealogy>  (40) 
CCc1ccc(NC(=O)Cc2csc(=NC(=O)c3ccccc3C)[n-]2)cc1 (protonated)
CCc1ccc(NC(=O)Cc2cs/c(=N/C(=O)c3ccccc3C)[n-]2)cc1 (cis-trans isomerization)
CCc1ccc(NC(=O)Cc2cs/c(=N/C(=O)c3ccccc3C)[n-]2)cc1 (3D coordinates assigned)
CCc1ccc(NC(=O)Cc2cs/c(=N/C(=O)c3ccccc3C)[n-]2)cc1 (optimized conformer: 82.47751059490423 kcal/mol)

>  <smiles>  (40) 
CCc1ccc(NC(=O)Cc2csc(=NC(=O)c3ccccc3C)[nH]2)cc1

>  <score_type>  (40) 
oracle

>  <origin>  (40) 
adg

>  <m_score__min__energy>  (40) 
-10.75

>  <m_primary>  (40) 
energy

$$$$
40:0
     RDKit          3D

 36 38  0  0  0  0  0  0  0  0999 V2000
   58.8720   36.1510   47.1090 H   0  0  0  0  0  0  0  0  0  0  0  0
   59.4180   35.4630   46.6030 O   0  0  0  0  0  0  0  0  0  0  0  0
   58.8620   34.2540   46.1920 C   0  0  0  0  0  0  0  0  0  0  0  0
   59.5850   33.0580   46.3100 C   0  0  0  0  0  0  0  0  0  0  0  0
   60.6003   33.0689   46.7332 H   0  0  0  0  0  0  0  0  0  0  0  0
   59.0160   31.8520   45.8900 C   0  0  0  0  0  0  0  0  0  0  0  0
   59.5778   30.9131   46.0035 H   0  0  0  0  0  0  0  0  0  0  0  0
   57.7310   31.8330   45.3240 C   0  0  0  0  0  0  0  0  0  0  0  0
   57.1200   30.6070   44.8920 N   0  0  0  0  0  0  0  0  0  0  0  0
   57.2690   29.4430   45.4540 C   0  0  0  0  0  0  0  0  0  0  0  0
   58.3730   29.2060   46.2050 N   0  0  0  0  0  0  0  0  0  0  0  0
   58.5270   28.0160   46.8370 C   0  0  0  0  0  0  0  0  0  0  0  0
   59.9550   27.7170   47.8030 Cl  0  0  0  0  0  0  0  0  0  0  0  0
   57.5680   27.0620   46.7330 N   0  0  0  0  0  0  0  0  0  0  0  0
   56.4580   27.2880   45.9850 C   0  0  0  0  0  0  0  0  0  0  0  0
   55.5300   26.3770   45.9350 N   0  0  0  0  0  0  0  0  0  0  0  0
   55.6260   25.1190   45.2490 C   0  0  0  0  0  0  0  0  0  0  0  0
   54.6480   24.1440   45.4710 C   0  0  0  0  0  0  0  0  0  0  0  0
   53.8158   24.3519   46.1597 H   0  0  0  0  0  0  0  0  0  0  0  0
   54.7210   22.9060   44.8230 C   0  0  0  0  0  0  0  0  0  0  0  0
   53.9371   22.1527   44.9904 H   0  0  0  0  0  0  0  0  0  0  0  0
   55.7950   22.6210   43.9570 C   0  0  0  0  0  0  0  0  0  0  0  0
   55.9120   21.3990   43.2790 O   0  0  0  0  0  0  0  0  0  0  0  0
   57.1420   20.8510   42.8180 C   0  0  0  0  0  0  0  0  0  0  0  0
   57.7657   20.5731   43.6804 H   0  0  0  0  0  0  0  0  0  0  0  0
   56.9399   19.9578   42.2086 H   0  0  0  0  0  0  0  0  0  0  0  0
   57.6710   21.5986   42.2086 H   0  0  0  0  0  0  0  0  0  0  0  0
   56.7910   23.5860   43.7660 C   0  0  0  0  0  0  0  0  0  0  0  0
   57.6390   23.3706   43.0993 H   0  0  0  0  0  0  0  0  0  0  0  0
   56.7160   24.8210   44.4160 C   0  0  0  0  0  0  0  0  0  0  0  0
   57.5152   25.5634   44.2741 H   0  0  0  0  0  0  0  0  0  0  0  0
   56.3110   28.4820   45.3500 N   0  0  0  0  0  0  0  0  0  0  0  0
   57.0000   33.0260   45.2400 C   0  0  0  0  0  0  0  0  0  0  0  0
   55.9756   33.0134   44.8395 H   0  0  0  0  0  0  0  0  0  0  0  0
   57.5670   34.2320   45.6630 C   0  0  0  0  0  0  0  0  0  0  0  0
   56.9930   35.1666   45.5796 H   0  0  0  0  0  0  0  0  0  0  0  0
  1  2  1  0
  2  3  1  0
  3  4  2  0
  4  5  1  0
  4  6  1  0
  6  7  1  0
  6  8  2  0
  8  9  1  0
  9 10  2  0
 10 11  1  0
 11 12  2  0
 12 13  1  0
 12 14  1  0
 14 15  1  0
 15 16  2  0
 16 17  1  0
 17 18  2  0
 18 19  1  0
 18 20  1  0
 20 21  1  0
 20 22  2  0
 22 23  1  0
 23 24  1  0
 24 25  1  0
 24 26  1  0
 24 27  1  0
 22 28  1  0
 28 29  1  0
 28 30  2  0
 30 31  1  0
 15 32  1  0
  8 33  1  0
 33 34  1  0
 33 35  2  0
 35 36  1  0
 35  3  1  0
 32 10  1  0
 30 17  1  0
M  CHG  2  14  -1  32  -1
M  END
>  <UniqueID>  (41) 
37

>  <SMILES>  (41) 
COc1ccc(/N=c2/[n-]c(Cl)n/c(=N/c3ccc(O)cc3)[n-]2)cc1

>  <Energy>  (41) 
49.95319154185399

>  <Genealogy>  (41) 
COc1ccc(N=c2[n-]c(Cl)nc(=Nc3ccc(O)cc3)[n-]2)cc1 (protonated)
COc1ccc(/N=c2/[n-]c(Cl)n/c(=N/c3ccc(O)cc3)[n-]2)cc1 (cis-trans isomerization)
COc1ccc(/N=c2/[n-]c(Cl)n/c(=N/c3ccc(O)cc3)[n-]2)cc1 (3D coordinates assigned)
COc1ccc(/N=c2/[n-]c(Cl)n/c(=N/c3ccc(O)cc3)[n-]2)cc1 (optimized conformer: 49.95319154185399 kcal/mol)

>  <smiles>  (41) 
COc1ccc(N=c2[nH]c(Cl)nc(=Nc3ccc(O)cc3)[nH]2)cc1

>  <score_type>  (41) 
oracle

>  <origin>  (41) 
adg

>  <m_score__min__energy>  (41) 
-10.880000000000001

>  <m_primary>  (41) 
energy

$$$$
41:0
     RDKit          3D

 43 44  0  0  0  0  0  0  0  0999 V2000
   57.7680   27.5910   44.2490 C   0  0  0  0  0  0  0  0  0  0  0  0
   58.5240   28.8290   44.0040 N   0  0  0  0  0  0  0  0  0  0  0  0
   59.6400   28.9370   44.9550 C   0  0  0  0  0  0  0  0  0  0  0  0
   57.4750   30.2340   44.1240 S   0  0  0  0  0  0  0  0  0  0  0  0
   57.0990   30.7250   42.7520 O   0  0  0  0  0  0  0  0  0  0  0  0
   56.2090   29.8800   44.8560 O   0  0  0  0  0  0  0  0  0  0  0  0
   58.2650   31.5310   44.9890 N   0  0  0  0  0  0  0  0  0  0  0  0
   57.7630   31.6260   46.3640 C   0  0  0  0  0  0  0  0  0  0  0  0
   58.6770   32.5630   47.1500 C   0  0  0  0  0  0  0  0  0  0  0  0
   58.9450   33.8000   46.3990 N   0  0  0  0  0  0  0  0  0  0  0  0
   59.7290   34.8530   47.0030 C   0  0  0  0  0  0  0  0  0  0  0  0
   59.6460   36.0300   46.5510 O   0  0  0  0  0  0  0  0  0  0  0  0
   60.6130   34.5770   48.1970 C   0  0  0  0  0  0  0  0  0  0  0  0
   61.6690   33.5440   47.9020 C   0  0  0  0  0  0  0  0  0  0  0  0
   62.7370   33.8440   47.0380 C   0  0  0  0  0  0  0  0  0  0  0  0
   63.6980   32.8740   46.7430 C   0  0  0  0  0  0  0  0  0  0  0  0
   63.5970   31.5950   47.2970 C   0  0  0  0  0  0  0  0  0  0  0  0
   62.5320   31.2840   48.1470 C   0  0  0  0  0  0  0  0  0  0  0  0
   61.5670   32.2520   48.4460 C   0  0  0  0  0  0  0  0  0  0  0  0
   58.2130   34.0590   45.1490 C   0  0  0  0  0  0  0  0  0  0  0  0
   58.1420   32.8070   44.2480 C   0  0  0  0  0  0  0  0  0  0  0  0
   57.6696   27.4298   45.3327 H   0  0  0  0  0  0  0  0  0  0  0  0
   56.7680   27.6768   43.7988 H   0  0  0  0  0  0  0  0  0  0  0  0
   58.3011   26.7406   43.7988 H   0  0  0  0  0  0  0  0  0  0  0  0
   58.9230   28.7830   43.0390 H   0  0  0  0  0  0  0  0  0  0  0  0
   59.2506   28.8993   45.9831 H   0  0  0  0  0  0  0  0  0  0  0  0
   60.3387   28.1023   44.7967 H   0  0  0  0  0  0  0  0  0  0  0  0
   60.1657   29.8902   44.7967 H   0  0  0  0  0  0  0  0  0  0  0  0
   56.7383   32.0260   46.3581 H   0  0  0  0  0  0  0  0  0  0  0  0
   57.7528   30.6301   46.8311 H   0  0  0  0  0  0  0  0  0  0  0  0
   58.1925   32.8201   48.1035 H   0  0  0  0  0  0  0  0  0  0  0  0
   59.6334   32.0490   47.3266 H   0  0  0  0  0  0  0  0  0  0  0  0
   61.1078   35.5133   48.4943 H   0  0  0  0  0  0  0  0  0  0  0  0
   59.9756   34.1849   49.0032 H   0  0  0  0  0  0  0  0  0  0  0  0
   62.8161   34.8467   46.5925 H   0  0  0  0  0  0  0  0  0  0  0  0
   64.5360   33.1174   46.0733 H   0  0  0  0  0  0  0  0  0  0  0  0
   64.3555   30.8332   47.0641 H   0  0  0  0  0  0  0  0  0  0  0  0
   62.4524   30.2766   48.5816 H   0  0  0  0  0  0  0  0  0  0  0  0
   60.7258   32.0011   49.1089 H   0  0  0  0  0  0  0  0  0  0  0  0
   57.1893   34.3765   45.3966 H   0  0  0  0  0  0  0  0  0  0  0  0
   58.7515   34.8436   44.5972 H   0  0  0  0  0  0  0  0  0  0  0  0
   57.1754   32.8116   43.7230 H   0  0  0  0  0  0  0  0  0  0  0  0
   58.9961   32.8603   43.5568 H   0  0  0  0  0  0  0  0  0  0  0  0
  1  2  1  0
  2  3  1  0
  2  4  1  0
  4  5  2  0
  4  6  2  0
  4  7  1  0
  7  8  1  0
  8  9  1  0
  9 10  1  0
 10 11  1  0
 11 12  2  0
 11 13  1  0
 13 14  1  0
 14 15  2  0
 15 16  1  0
 16 17  2  0
 17 18  1  0
 18 19  2  0
 10 20  1  0
 20 21  1  0
 21  7  1  0
 19 14  1  0
  1 22  1  0
  1 23  1  0
  1 24  1  0
  2 25  1  0
  3 26  1  0
  3 27  1  0
  3 28  1  0
  8 29  1  0
  8 30  1  0
  9 31  1  0
  9 32  1  0
 13 33  1  0
 13 34  1  0
 15 35  1  0
 16 36  1  0
 17 37  1  0
 18 38  1  0
 19 39  1  0
 20 40  1  0
 20 41  1  0
 21 42  1  0
 21 43  1  0
M  CHG  1   2   1
M  END
>  <UniqueID>  (42) 
38

>  <SMILES>  (42) 
C[NH+](C)S(=O)(=O)N1CCN(C(=O)Cc2ccccc2)CC1

>  <Energy>  (42) 
43.953829417417836

>  <Genealogy>  (42) 
C[NH+](C)S(=O)(=O)N1CCN(C(=O)Cc2ccccc2)CC1 (protonated)
C[NH+](C)S(=O)(=O)N1CCN(C(=O)Cc2ccccc2)CC1 (3D coordinates assigned)
C[NH+](C)S(=O)(=O)N1CCN(C(=O)Cc2ccccc2)CC1 (nonaromatic ring conformer: 43.953829417417836 kcal/mol)

>  <smiles>  (42) 
CN(C)S(=O)(=O)N1CCN(C(=O)Cc2ccccc2)CC1

>  <score_type>  (42) 
oracle

>  <origin>  (42) 
adg

>  <m_score__min__energy>  (42) 
-6.5199999999999996

>  <m_primary>  (42) 
energy

$$$$
42:0
     RDKit          3D

 45 47  0  0  0  0  0  0  0  0999 V2000
   55.1470   29.3400   44.8670 N   0  0  0  0  0  0  0  0  0  0  0  0
   56.8720   29.3460   44.9560 S   0  0  0  0  0  0  0  0  0  0  0  0
   57.4280   28.3040   44.0260 O   0  0  0  0  0  0  0  0  0  0  0  0
   57.3050   29.0210   46.3580 O   0  0  0  0  0  0  0  0  0  0  0  0
   57.4760   30.9350   44.4970 C   0  0  0  0  0  0  0  0  0  0  0  0
   57.4910   31.3210   43.1510 C   0  0  0  0  0  0  0  0  0  0  0  0
   57.9760   32.5780   42.7890 C   0  0  0  0  0  0  0  0  0  0  0  0
   58.4590   33.4540   43.7650 C   0  0  0  0  0  0  0  0  0  0  0  0
   58.4700   33.0760   45.1190 C   0  0  0  0  0  0  0  0  0  0  0  0
   58.9800   33.9900   46.1690 C   0  0  0  0  0  0  0  0  0  0  0  0
   59.2570   35.1830   45.8650 O   0  0  0  0  0  0  0  0  0  0  0  0
   59.1470   33.5450   47.5260 N   0  0  0  0  0  0  0  0  0  0  0  0
   59.6780   34.4130   48.5780 C   0  0  0  0  0  0  0  0  0  0  0  0
   60.7680   33.6880   49.3970 C   0  0  1  0  0  0  0  0  0  0  0  0
   60.5710   32.1840   49.4520 C   0  0  0  0  0  0  0  0  0  0  0  0
   60.3340   31.4070   50.5740 C   0  0  0  0  0  0  0  0  0  0  0  0
   60.2090   30.1140   50.1150 C   0  0  0  0  0  0  0  0  0  0  0  0
   60.3740   30.1760   48.7480 C   0  0  0  0  0  0  0  0  0  0  0  0
   60.5880   31.4180   48.3830 O   0  0  0  0  0  0  0  0  0  0  0  0
   62.1200   34.0830   48.9200 N   0  0  0  0  0  0  0  0  0  0  0  0
   62.3760   33.8400   47.4900 C   0  0  0  0  0  0  0  0  0  0  0  0
   63.3830   32.7130   47.3900 C   0  0  0  0  0  0  0  0  0  0  0  0
   64.1690   32.8060   48.6750 C   0  0  0  0  0  0  0  0  0  0  0  0
   63.2110   33.4350   49.6740 C   0  0  0  0  0  0  0  0  0  0  0  0
   57.9660   31.8110   45.4750 C   0  0  0  0  0  0  0  0  0  0  0  0
   54.7910   29.3970   45.8470 H   0  0  0  0  0  0  0  0  0  0  0  0
   57.1198   30.6321   42.3780 H   0  0  0  0  0  0  0  0  0  0  0  0
   57.9783   32.8807   41.7315 H   0  0  0  0  0  0  0  0  0  0  0  0
   58.8331   34.4460   43.4717 H   0  0  0  0  0  0  0  0  0  0  0  0
   58.8600   32.5780   47.7980 H   0  0  0  0  0  0  0  0  0  0  0  0
   60.1130   35.3120   48.1169 H   0  0  0  0  0  0  0  0  0  0  0  0
   58.8552   34.6863   49.2549 H   0  0  0  0  0  0  0  0  0  0  0  0
   60.6737   34.0162   50.4427 H   0  0  0  0  0  0  0  0  0  0  0  0
   60.2607   31.7512   51.6162 H   0  0  0  0  0  0  0  0  0  0  0  0
   60.0165   29.2141   50.7176 H   0  0  0  0  0  0  0  0  0  0  0  0
   60.3325   29.3141   48.0658 H   0  0  0  0  0  0  0  0  0  0  0  0
   61.4416   33.5540   46.9850 H   0  0  0  0  0  0  0  0  0  0  0  0
   62.7643   34.7489   47.0072 H   0  0  0  0  0  0  0  0  0  0  0  0
   62.8744   31.7407   47.3129 H   0  0  0  0  0  0  0  0  0  0  0  0
   64.0213   32.7954   46.4980 H   0  0  0  0  0  0  0  0  0  0  0  0
   64.4788   31.8060   49.0126 H   0  0  0  0  0  0  0  0  0  0  0  0
   65.0897   33.3960   48.5558 H   0  0  0  0  0  0  0  0  0  0  0  0
   62.7976   32.6580   50.3338 H   0  0  0  0  0  0  0  0  0  0  0  0
   63.7386   34.1762   50.2923 H   0  0  0  0  0  0  0  0  0  0  0  0
   57.9566   31.5067   46.5320 H   0  0  0  0  0  0  0  0  0  0  0  0
  1  2  1  0
  2  3  2  0
  2  4  2  0
  2  5  1  0
  5  6  2  0
  6  7  1  0
  7  8  2  0
  8  9  1  0
  9 10  1  0
 10 11  2  0
 10 12  1  0
 12 13  1  0
 13 14  1  0
 14 15  1  0
 15 16  2  0
 16 17  1  0
 17 18  2  0
 18 19  1  0
 14 20  1  0
 20 21  1  0
 21 22  1  0
 22 23  1  0
 23 24  1  0
  9 25  2  0
 25  5  1  0
 19 15  1  0
 24 20  1  0
  1 26  1  0
  6 27  1  0
  7 28  1  0
  8 29  1  0
 12 30  1  0
 13 31  1  0
 13 32  1  0
 14 33  1  1
 16 34  1  0
 17 35  1  0
 18 36  1  0
 21 37  1  0
 21 38  1  0
 22 39  1  0
 22 40  1  0
 23 41  1  0
 23 42  1  0
 24 43  1  0
 24 44  1  0
 25 45  1  0
M  CHG  1   1  -1
M  END
>  <UniqueID>  (43) 
39

>  <SMILES>  (43) 
[NH-]S(=O)(=O)c1cccc(C(=O)NC[C@@H](c2ccco2)N2CCCC2)c1

>  <Energy>  (43) 
77.4363256001798

>  <Genealogy>  (43) 
[NH-]S(=O)(=O)c1cccc(C(=O)NCC(c2ccco2)N2CCCC2)c1 (protonated)
[NH-]S(=O)(=O)c1cccc(C(=O)NC[C@@H](c2ccco2)N2CCCC2)c1 (chirality)
[NH-]S(=O)(=O)c1cccc(C(=O)NC[C@@H](c2ccco2)N2CCCC2)c1 (3D coordinates assigned)
[NH-]S(=O)(=O)c1cccc(C(=O)NC[C@@H](c2ccco2)N2CCCC2)c1 (nonaromatic ring conformer: 77.4363256001798 kcal/mol)

>  <smiles>  (43) 
NS(=O)(=O)c1cccc(C(=O)NCC(c2ccco2)N2CCCC2)c1

>  <score_type>  (43) 
oracle

>  <origin>  (43) 
adg

>  <m_score__min__energy>  (43) 
-11.859999999999999

>  <m_primary>  (43) 
energy

$$$$
43:0
     RDKit          3D

 41 42  0  0  0  0  0  0  0  0999 V2000
   55.9550   28.3490   45.2360 O   0  0  0  0  0  0  0  0  0  0  0  0
   56.4860   29.1240   44.3970 C   0  0  0  0  0  0  0  0  0  0  0  0
   55.8820   30.4750   44.1560 C   0  0  0  0  0  0  0  0  0  0  0  0
   56.6530   31.4910   44.7920 O   0  0  0  0  0  0  0  0  0  0  0  0
   57.7560   32.1080   44.1910 C   0  0  0  0  0  0  0  0  0  0  0  0
   58.4920   31.4740   43.3860 O   0  0  0  0  0  0  0  0  0  0  0  0
   58.0330   33.5490   44.4760 C   0  0  0  0  0  0  0  0  0  0  0  0
   58.5780   33.7000   45.8680 C   0  0  0  0  0  0  0  0  0  0  0  0
   59.7160   34.4910   46.0990 C   0  0  0  0  0  0  0  0  0  0  0  0
   60.2610   34.5840   47.3830 C   0  0  0  0  0  0  0  0  0  0  0  0
   59.6760   33.8870   48.4440 C   0  0  0  0  0  0  0  0  0  0  0  0
   58.5460   33.0960   48.2240 C   0  0  0  0  0  0  0  0  0  0  0  0
   57.9980   32.9980   46.9400 C   0  0  0  0  0  0  0  0  0  0  0  0
   57.6350   28.7070   43.6450 N   0  0  0  0  0  0  0  0  0  0  0  0
   58.1780   27.3510   43.7090 C   0  0  0  0  0  0  0  0  0  0  0  0
   58.5080   26.9570   45.1510 C   0  0  0  0  0  0  0  0  0  0  0  0
   59.1160   28.1030   45.9150 C   0  0  0  0  0  0  0  0  0  0  0  0
   58.5470   28.5290   47.1280 C   0  0  0  0  0  0  0  0  0  0  0  0
   59.0960   29.6140   47.8190 C   0  0  0  0  0  0  0  0  0  0  0  0
   60.2100   30.2830   47.3030 C   0  0  0  0  0  0  0  0  0  0  0  0
   60.7750   29.8690   46.0930 C   0  0  0  0  0  0  0  0  0  0  0  0
   60.2280   28.7870   45.4000 C   0  0  0  0  0  0  0  0  0  0  0  0
   55.8511   30.6691   43.0737 H   0  0  0  0  0  0  0  0  0  0  0  0
   54.8649   30.4880   44.5746 H   0  0  0  0  0  0  0  0  0  0  0  0
   58.7698   33.9286   43.7528 H   0  0  0  0  0  0  0  0  0  0  0  0
   57.0976   34.1213   44.3895 H   0  0  0  0  0  0  0  0  0  0  0  0
   60.1801   35.0394   45.2660 H   0  0  0  0  0  0  0  0  0  0  0  0
   61.1510   35.2062   47.5585 H   0  0  0  0  0  0  0  0  0  0  0  0
   60.1061   33.9615   49.4537 H   0  0  0  0  0  0  0  0  0  0  0  0
   58.0864   32.5496   49.0608 H   0  0  0  0  0  0  0  0  0  0  0  0
   57.1112   32.3702   46.7686 H   0  0  0  0  0  0  0  0  0  0  0  0
   58.1090   29.3990   43.0210 H   0  0  0  0  0  0  0  0  0  0  0  0
   57.4353   26.6472   43.3053 H   0  0  0  0  0  0  0  0  0  0  0  0
   59.1044   27.3173   43.1169 H   0  0  0  0  0  0  0  0  0  0  0  0
   57.5824   26.6430   45.6557 H   0  0  0  0  0  0  0  0  0  0  0  0
   59.2395   26.1359   45.1238 H   0  0  0  0  0  0  0  0  0  0  0  0
   57.6679   28.0077   47.5346 H   0  0  0  0  0  0  0  0  0  0  0  0
   58.6506   29.9415   48.7700 H   0  0  0  0  0  0  0  0  0  0  0  0
   60.6418   31.1348   47.8489 H   0  0  0  0  0  0  0  0  0  0  0  0
   61.6509   30.3959   45.6866 H   0  0  0  0  0  0  0  0  0  0  0  0
   60.6713   28.4690   44.4449 H   0  0  0  0  0  0  0  0  0  0  0  0
  1  2  2  0
  2  3  1  0
  3  4  1  0
  4  5  1  0
  5  6  2  0
  5  7  1  0
  7  8  1  0
  8  9  2  0
  9 10  1  0
 10 11  2  0
 11 12  1  0
 12 13  2  0
  2 14  1  0
 14 15  1  0
 15 16  1  0
 16 17  1  0
 17 18  2  0
 18 19  1  0
 19 20  2  0
 20 21  1  0
 21 22  2  0
 13  8  1  0
 22 17  1  0
  3 23  1  0
  3 24  1  0
  7 25  1  0
  7 26  1  0
  9 27  1  0
 10 28  1  0
 11 29  1  0
 12 30  1  0
 13 31  1  0
 14 32  1  0
 15 33  1  0
 15 34  1  0
 16 35  1  0
 16 36  1  0
 18 37  1  0
 19 38  1  0
 20 39  1  0
 21 40  1  0
 22 41  1  0
M  END
>  <UniqueID>  (44) 
40

>  <SMILES>  (44) 
O=C(COC(=O)Cc1ccccc1)NCCc1ccccc1

>  <Energy>  (44) 
27.61418087866403

>  <Genealogy>  (44) 
O=C(COC(=O)Cc1ccccc1)NCCc1ccccc1 (3D coordinates assigned)
O=C(COC(=O)Cc1ccccc1)NCCc1ccccc1 (optimized conformer: 27.61418087866403 kcal/mol)

>  <smiles>  (44) 
O=C(COC(=O)Cc1ccccc1)NCCc1ccccc1

>  <score_type>  (44) 
oracle

>  <origin>  (44) 
adg

>  <m_score__min__energy>  (44) 
-7

>  <m_primary>  (44) 
energy

$$$$
44:0
     RDKit          3D

 26 27  0  0  0  0  0  0  0  0999 V2000
   59.3490   35.0910   45.7930 C   0  0  0  0  0  0  0  0  0  0  0  0
   58.7290   33.7480   45.5480 C   0  0  0  0  0  0  0  0  0  0  0  0
   58.6890   32.7890   46.5720 C   0  0  0  0  0  0  0  0  0  0  0  0
   58.1450   31.5250   46.3330 C   0  0  0  0  0  0  0  0  0  0  0  0
   57.6430   31.2000   45.0660 C   0  0  0  0  0  0  0  0  0  0  0  0
   56.9540   29.6060   44.7750 S   0  0  0  0  0  0  0  0  0  0  0  0
   57.3340   29.1530   43.3940 O   0  0  0  0  0  0  0  0  0  0  0  0
   55.4550   29.6520   44.8820 O   0  0  0  0  0  0  0  0  0  0  0  0
   57.5680   28.4740   45.9350 N   0  0  0  0  0  0  0  0  0  0  0  0
   57.1130   27.2640   46.0560 C   0  0  0  0  0  0  0  0  0  0  0  0
   57.8230   26.2450   46.5880 N   0  0  0  0  0  0  0  0  0  0  0  0
   56.9820   25.1930   46.5090 C   0  0  0  0  0  0  0  0  0  0  0  0
   55.7990   25.6020   45.9370 C   0  0  0  0  0  0  0  0  0  0  0  0
   54.3980   24.5990   45.6210 Cl  0  0  0  0  0  0  0  0  0  0  0  0
   55.8790   26.9100   45.6510 N   0  0  0  0  0  0  0  0  0  0  0  0
   57.7030   32.1480   44.0350 C   0  0  0  0  0  0  0  0  0  0  0  0
   58.2480   33.4130   44.2720 C   0  0  0  0  0  0  0  0  0  0  0  0
   59.4296   35.2656   46.8761 H   0  0  0  0  0  0  0  0  0  0  0  0
   60.3516   35.1199   45.3413 H   0  0  0  0  0  0  0  0  0  0  0  0
   58.7207   35.8728   45.3413 H   0  0  0  0  0  0  0  0  0  0  0  0
   59.0879   33.0340   47.5674 H   0  0  0  0  0  0  0  0  0  0  0  0
   58.1106   30.7815   47.1430 H   0  0  0  0  0  0  0  0  0  0  0  0
   57.2062   24.1708   46.8479 H   0  0  0  0  0  0  0  0  0  0  0  0
   55.1500   27.5130   45.2110 H   0  0  0  0  0  0  0  0  0  0  0  0
   57.3196   31.8952   43.0354 H   0  0  0  0  0  0  0  0  0  0  0  0
   58.3003   34.1488   43.4560 H   0  0  0  0  0  0  0  0  0  0  0  0
  1  2  1  0
  2  3  2  0
  3  4  1  0
  4  5  2  0
  5  6  1  0
  6  7  2  0
  6  8  2  0
  6  9  1  0
  9 10  2  3
 10 11  1  0
 11 12  1  0
 12 13  2  0
 13 14  1  0
 13 15  1  0
  5 16  1  0
 16 17  2  0
 17  2  1  0
 15 10  1  0
  1 18  1  0
  1 19  1  0
  1 20  1  0
  3 21  1  0
  4 22  1  0
 12 23  1  0
 15 24  1  0
 16 25  1  0
 17 26  1  0
M  CHG  1  11  -1
M  END
>  <UniqueID>  (45) 
41

>  <SMILES>  (45) 
Cc1ccc(S(=O)(=O)N=c2[n-]cc(Cl)[nH]2)cc1

>  <Energy>  (45) 
57.584903124932914

>  <Genealogy>  (45) 
Cc1ccc(S(=O)(=O)N=c2[n-]cc(Cl)[nH]2)cc1 (protonated)
Cc1ccc(S(=O)(=O)N=c2[n-]cc(Cl)[nH]2)cc1 (3D coordinates assigned)
Cc1ccc(S(=O)(=O)N=c2[n-]cc(Cl)[nH]2)cc1 (optimized conformer: 57.584903124932914 kcal/mol)

>  <smiles>  (45) 
Cc1ccc(S(=O)(=O)N=c2[nH]cc(Cl)[nH]2)cc1

>  <score_type>  (45) 
oracle

>  <origin>  (45) 
adg

>  <m_score__min__energy>  (45) 
-8.8599999999999994

>  <m_primary>  (45) 
energy

$$$$
45:0
     RDKit          3D

 49 52  0  0  0  0  0  0  0  0999 V2000
   56.6120   34.9600   44.8560 C   0  0  0  0  0  0  0  0  0  0  0  0
   57.4930   33.8240   45.2730 C   0  0  0  0  0  0  0  0  0  0  0  0
   57.6230   32.6900   44.4680 C   0  0  0  0  0  0  0  0  0  0  0  0
   58.4910   31.6720   44.8760 C   0  0  0  0  0  0  0  0  0  0  0  0
   58.6510   30.4240   44.0510 C   0  0  0  0  0  0  0  0  0  0  0  0
   57.3950   29.6910   43.9490 N   0  0  0  0  0  0  0  0  0  0  0  0
   56.8210   28.9340   45.0230 C   0  0  0  0  0  0  0  0  0  0  0  0
   55.5730   28.9230   45.2010 O   0  0  0  0  0  0  0  0  0  0  0  0
   57.6960   28.2050   45.9550 C   0  0  0  0  0  0  0  0  0  0  0  0
   58.3100   28.9240   46.9940 C   0  0  0  0  0  0  0  0  0  0  0  0
   59.0750   28.2640   47.9570 C   0  0  0  0  0  0  0  0  0  0  0  0
   59.2300   26.8800   47.9000 C   0  0  0  0  0  0  0  0  0  0  0  0
   58.6470   26.1530   46.8600 C   0  0  0  0  0  0  0  0  0  0  0  0
   57.9060   26.8060   45.8550 C   0  0  0  0  0  0  0  0  0  0  0  0
   57.4420   26.0120   44.6530 C   0  0  0  0  0  0  0  0  0  0  0  0
   56.4680   24.9850   45.0470 N   0  0  0  0  0  0  0  0  0  0  0  0
   55.2710   25.1970   45.6520 C   0  0  0  0  0  0  0  0  0  0  0  0
   54.7920   26.4540   46.0120 O   0  0  0  0  0  0  0  0  0  0  0  0
   54.5890   24.0090   45.8720 C   0  0  0  0  0  0  0  0  0  0  0  0
   55.4270   23.0290   45.3800 C   0  0  0  0  0  0  0  0  0  0  0  0
   55.2620   21.6450   45.3340 C   0  0  0  0  0  0  0  0  0  0  0  0
   56.3000   20.8730   44.7770 C   0  0  0  0  0  0  0  0  0  0  0  0
   57.4710   21.4950   44.2980 C   0  0  0  0  0  0  0  0  0  0  0  0
   57.6140   22.8930   44.3660 C   0  0  0  0  0  0  0  0  0  0  0  0
   56.5590   23.6420   44.9020 C   0  0  0  0  0  0  0  0  0  0  0  0
   59.1870   31.8090   46.0360 N   0  0  0  0  0  0  0  0  0  0  0  0
   59.0440   32.9160   46.8130 C   0  0  0  0  0  0  0  0  0  0  0  0
   59.8170   33.0510   48.0820 C   0  0  0  0  0  0  0  0  0  0  0  0
   58.2120   33.9170   46.4220 N   0  0  0  0  0  0  0  0  0  0  0  0
   56.2191   35.4666   45.7499 H   0  0  0  0  0  0  0  0  0  0  0  0
   57.1944   35.6745   44.2558 H   0  0  0  0  0  0  0  0  0  0  0  0
   55.7750   34.5737   44.2558 H   0  0  0  0  0  0  0  0  0  0  0  0
   57.0537   32.5993   43.5312 H   0  0  0  0  0  0  0  0  0  0  0  0
   58.9861   30.7028   43.0410 H   0  0  0  0  0  0  0  0  0  0  0  0
   59.3919   29.7761   44.5422 H   0  0  0  0  0  0  0  0  0  0  0  0
   58.1869   30.0157   47.0491 H   0  0  0  0  0  0  0  0  0  0  0  0
   59.5567   28.8374   48.7627 H   0  0  0  0  0  0  0  0  0  0  0  0
   59.8121   26.3599   48.6750 H   0  0  0  0  0  0  0  0  0  0  0  0
   58.7674   25.0602   46.8250 H   0  0  0  0  0  0  0  0  0  0  0  0
   56.9725   26.6949   43.9297 H   0  0  0  0  0  0  0  0  0  0  0  0
   58.3138   25.5150   44.2024 H   0  0  0  0  0  0  0  0  0  0  0  0
   53.6002   23.8774   46.3355 H   0  0  0  0  0  0  0  0  0  0  0  0
   54.3483   21.1704   45.7212 H   0  0  0  0  0  0  0  0  0  0  0  0
   56.1965   19.7796   44.7154 H   0  0  0  0  0  0  0  0  0  0  0  0
   58.2780   20.8834   43.8683 H   0  0  0  0  0  0  0  0  0  0  0  0
   58.5303   23.3848   44.0076 H   0  0  0  0  0  0  0  0  0  0  0  0
   59.1380   32.9324   48.9393 H   0  0  0  0  0  0  0  0  0  0  0  0
   60.5959   32.2753   48.1211 H   0  0  0  0  0  0  0  0  0  0  0  0
   60.2869   34.0448   48.1211 H   0  0  0  0  0  0  0  0  0  0  0  0
  1  2  1  0
  2  3  2  0
  3  4  1  0
  4  5  1  0
  5  6  1  0
  6  7  1  0
  7  8  2  0
  7  9  1  0
  9 10  2  0
 10 11  1  0
 11 12  2  0
 12 13  1  0
 13 14  2  0
 14 15  1  0
 15 16  1  0
 16 17  1  0
 17 18  1  0
 17 19  2  0
 19 20  1  0
 20 21  2  0
 21 22  1  0
 22 23  2  0
 23 24  1  0
 24 25  2  0
  4 26  2  0
 26 27  1  0
 27 28  1  0
 27 29  2  0
 29  2  1  0
 14  9  1  0
 25 16  1  0
 25 20  1  0
  1 30  1  0
  1 31  1  0
  1 32  1  0
  3 33  1  0
  5 34  1  0
  5 35  1  0
 10 36  1  0
 11 37  1  0
 12 38  1  0
 13 39  1  0
 15 40  1  0
 15 41  1  0
 19 42  1  0
 21 43  1  0
 22 44  1  0
 23 45  1  0
 24 46  1  0
 28 47  1  0
 28 48  1  0
 28 49  1  0
M  CHG  2   6  -1  18  -1
M  END
>  <UniqueID>  (46) 
42

>  <SMILES>  (46) 
Cc1cc(C[N-]C(=O)c2ccccc2Cn2c([O-])cc3ccccc32)nc(C)n1

>  <Energy>  (46) 
88.77266170668075

>  <Genealogy>  (46) 
Cc1cc(C[N-]C(=O)c2ccccc2Cn2c([O-])cc3ccccc32)nc(C)n1 (protonated)
Cc1cc(C[N-]C(=O)c2ccccc2Cn2c([O-])cc3ccccc32)nc(C)n1 (3D coordinates assigned)
Cc1cc(C[N-]C(=O)c2ccccc2Cn2c([O-])cc3ccccc32)nc(C)n1 (optimized conformer: 88.77266170668075 kcal/mol)

>  <smiles>  (46) 
Cc1cc(CNC(=O)c2ccccc2Cn2c(O)cc3ccccc32)nc(C)n1

>  <score_type>  (46) 
oracle

>  <origin>  (46) 
adg

>  <m_score__min__energy>  (46) 
-14.210000000000001

>  <m_primary>  (46) 
energy

$$$$
46:0
     RDKit          3D

 50 53  0  0  1  0  0  0  0  0999 V2000
   56.5160   29.9470   42.6860 C   0  0  0  0  0  0  0  0  0  0  0  0
   56.1840   29.9190   44.1420 C   0  0  0  0  0  0  0  0  0  0  0  0
   55.1560   29.3290   44.5570 O   0  0  0  0  0  0  0  0  0  0  0  0
   57.1000   30.5960   45.0050 N   0  0  0  0  0  0  0  0  0  0  0  0
   58.0900   30.0220   45.5590 C   0  0  0  0  0  0  0  0  0  0  0  0
   58.9810   30.7600   46.2970 C   0  0  0  0  0  0  0  0  0  0  0  0
   60.0890   30.1930   46.9410 C   0  0  0  0  0  0  0  0  0  0  0  0
   60.9540   31.0540   47.7180 C   0  0  0  0  0  0  0  0  0  0  0  0
   62.2610   31.2510   47.3670 N   0  0  0  0  0  0  0  0  0  0  0  0
   62.8670   32.0650   48.2190 C   0  0  0  0  0  0  0  0  0  0  0  0
   64.1510   32.5300   48.2560 C   0  0  0  0  0  0  0  0  0  0  0  0
   64.4970   33.3870   49.2960 C   0  0  0  0  0  0  0  0  0  0  0  0
   63.5850   33.7570   50.2520 C   0  0  0  0  0  0  0  0  0  0  0  0
   62.2910   33.2700   50.1860 C   0  0  0  0  0  0  0  0  0  0  0  0
   61.9440   32.4190   49.1580 C   0  0  0  0  0  0  0  0  0  0  0  0
   60.7830   31.7760   48.8110 N   0  0  0  0  0  0  0  0  0  0  0  0
   59.5910   31.9210   49.5910 C   0  0  0  0  0  0  0  0  0  0  0  0
   59.1000   33.3470   49.5290 C   0  0  0  0  0  0  0  0  0  0  0  0
   59.6120   34.0540   48.3890 N   0  0  0  0  0  0  0  0  0  0  0  0
   59.0190   34.0160   47.2680 C   0  0  0  0  0  0  0  0  0  0  0  0
   57.7270   33.6130   47.0370 C   0  0  0  0  0  0  0  0  0  0  0  0
   57.1580   33.6160   45.7610 C   0  0  0  0  0  0  0  0  0  0  0  0
   57.9240   34.0320   44.7450 N   0  0  0  0  0  0  0  0  0  0  0  0
   59.1950   34.4410   44.8810 C   0  0  0  0  0  0  0  0  0  0  0  0
   59.7540   34.4360   46.1540 C   0  0  0  0  0  0  0  0  0  0  0  0
   60.2240   28.8720   46.7880 N   0  0  0  0  0  0  0  0  0  0  0  0
   59.3530   28.1090   46.0590 C   0  0  0  0  0  0  0  0  0  0  0  0
   59.5670   26.6430   45.9390 C   0  0  0  0  0  0  0  0  0  0  0  0
   58.3050   28.6960   45.4600 N   0  0  0  0  0  0  0  0  0  0  0  0
   57.6049   30.0388   42.5599 H   0  0  0  0  0  0  0  0  0  0  0  0
   56.1693   29.0164   42.2129 H   0  0  0  0  0  0  0  0  0  0  0  0
   56.0183   30.8064   42.2129 H   0  0  0  0  0  0  0  0  0  0  0  0
   58.8184   31.8442   46.3870 H   0  0  0  0  0  0  0  0  0  0  0  0
   64.8851   32.2373   47.4909 H   0  0  0  0  0  0  0  0  0  0  0  0
   65.5242   33.7764   49.3531 H   0  0  0  0  0  0  0  0  0  0  0  0
   63.8802   34.4361   51.0654 H   0  0  0  0  0  0  0  0  0  0  0  0
   61.5484   33.5584   50.9445 H   0  0  0  0  0  0  0  0  0  0  0  0
   58.8135   31.2511   49.1951 H   0  0  0  0  0  0  0  0  0  0  0  0
   59.8118   31.6617   50.6370 H   0  0  0  0  0  0  0  0  0  0  0  0
   58.0013   33.3401   49.4760 H   0  0  0  0  0  0  0  0  0  0  0  0
   59.4572   33.8639   50.4319 H   0  0  0  0  0  0  0  0  0  0  0  0
   57.1173   33.2753   47.8880 H   0  0  0  0  0  0  0  0  0  0  0  0
   56.1205   33.2891   45.5975 H   0  0  0  0  0  0  0  0  0  0  0  0
   57.4910   34.0300   43.7960 H   0  0  0  0  0  0  0  0  0  0  0  0
   59.7786   34.7712   44.0090 H   0  0  0  0  0  0  0  0  0  0  0  0
   60.7939   34.7686   46.2879 H   0  0  0  0  0  0  0  0  0  0  0  0
   61.0010   28.3550   47.1980 H   0  0  0  0  0  0  0  0  0  0  0  0
   59.6319   26.1985   46.9431 H   0  0  0  0  0  0  0  0  0  0  0  0
   58.7250   26.1931   45.3925 H   0  0  0  0  0  0  0  0  0  0  0  0
   60.5025   26.4525   45.3925 H   0  0  0  0  0  0  0  0  0  0  0  0
  1  2  1  0
  2  3  2  0
  2  4  1  0
  4  5  2  0
  5  6  1  0
  6  7  2  0
  7  8  1  0
  8  9  2  0
  9 10  1  0
 10 11  2  0
 11 12  1  0
 12 13  2  0
 13 14  1  0
 14 15  2  0
 15 16  1  0
 16 17  1  0
 17 18  1  0
 18 19  1  0
 19 20  2  3
 20 21  1  0
 21 22  2  0
 22 23  1  0
 23 24  1  0
 24 25  2  0
  7 26  1  0
 26 27  1  0
 27 28  1  0
 27 29  2  0
 29  5  1  0
 16  8  1  0
 25 20  1  0
 15 10  1  0
  1 30  1  0
  1 31  1  0
  1 32  1  0
  6 33  1  0
 11 34  1  0
 12 35  1  0
 13 36  1  0
 14 37  1  0
 17 38  1  0
 17 39  1  0
 18 40  1  0
 18 41  1  0
 21 42  1  0
 22 43  1  0
 23 44  1  0
 24 45  1  0
 25 46  1  0
 26 47  1  0
 28 48  1  0
 28 49  1  0
 28 50  1  0
M  END
>  <smiles>  (47) 
CC(=O)N=c1cc(-c2nc3ccccc3n2CCN=c2cc[nH]cc2)[nH]c(C)n1

>  <score_type>  (47) 
oracle

>  <origin>  (47) 
adg

>  <m_score__min__energy>  (47) 
-8.2899999999999991

>  <m_primary>  (47) 
energy

$$$$
47:0
     RDKit          3D

 42 44  0  0  0  0  0  0  0  0999 V2000
   59.6338   35.1088   45.4634 H   0  0  0  0  0  0  0  0  0  0  0  0
   59.1570   34.1190   45.4090 C   0  0  0  0  0  0  0  0  0  0  0  0
   59.0050   33.3530   46.5670 C   0  0  0  0  0  0  0  0  0  0  0  0
   59.3719   33.7358   47.5308 H   0  0  0  0  0  0  0  0  0  0  0  0
   58.3870   32.1000   46.5030 C   0  0  0  0  0  0  0  0  0  0  0  0
   58.2773   31.4960   47.4157 H   0  0  0  0  0  0  0  0  0  0  0  0
   57.9060   31.6100   45.2780 C   0  0  0  0  0  0  0  0  0  0  0  0
   57.2520   30.2870   45.2230 C   0  0  0  0  0  0  0  0  0  0  0  0
   57.7380   29.0670   45.6880 C   0  0  0  0  0  0  0  0  0  0  0  0
   59.1180   28.8070   46.1630 C   0  0  0  0  0  0  0  0  0  0  0  0
   60.0710   28.7010   45.3460 O   0  0  0  0  0  0  0  0  0  0  0  0
   59.3650   28.7090   47.5350 O   0  0  0  0  0  0  0  0  0  0  0  0
   59.5840   27.4710   48.1990 C   0  0  0  0  0  0  0  0  0  0  0  0
   58.6641   26.8688   48.1653 H   0  0  0  0  0  0  0  0  0  0  0  0
   59.8595   27.6600   49.2471 H   0  0  0  0  0  0  0  0  0  0  0  0
   60.7090   26.7180   47.5060 C   0  0  0  0  0  0  0  0  0  0  0  0
   61.3730   26.2736   48.2621 H   0  0  0  0  0  0  0  0  0  0  0  0
   60.2843   25.9215   46.8773 H   0  0  0  0  0  0  0  0  0  0  0  0
   61.2835   27.4143   46.8773 H   0  0  0  0  0  0  0  0  0  0  0  0
   56.7230   28.1400   45.4370 C   0  0  0  0  0  0  0  0  0  0  0  0
   56.7130   26.7000   45.7630 C   0  0  0  0  0  0  0  0  0  0  0  0
   57.8150   25.9540   45.9590 N   0  0  0  0  0  0  0  0  0  0  0  0
   57.3280   24.7410   46.3010 C   0  0  0  0  0  0  0  0  0  0  0  0
   58.1920   23.6550   46.6650 N   0  0  0  0  0  0  0  0  0  0  0  0
   58.1360   22.4620   46.2070 N   0  0  0  0  0  0  0  0  0  0  0  0
   58.9360   21.9380   45.1380 C   0  0  0  0  0  0  0  0  0  0  0  0
   60.1860   21.8910   45.2730 O   0  0  0  0  0  0  0  0  0  0  0  0
   58.3290   21.5760   43.8170 C   0  0  0  0  0  0  0  0  0  0  0  0
   57.3951   21.0190   43.9829 H   0  0  0  0  0  0  0  0  0  0  0  0
   58.1131   22.4930   43.2491 H   0  0  0  0  0  0  0  0  0  0  0  0
   59.0332   20.9502   43.2491 H   0  0  0  0  0  0  0  0  0  0  0  0
   55.9800   24.6860   46.3770 N   0  0  0  0  0  0  0  0  0  0  0  0
   55.6070   25.9280   46.0300 C   0  0  0  0  0  0  0  0  0  0  0  0
   54.2840   26.3410   45.9520 O   0  0  0  0  0  0  0  0  0  0  0  0
   55.6850   28.7510   44.8310 N   0  0  0  0  0  0  0  0  0  0  0  0
   54.7830   28.3120   44.5390 H   0  0  0  0  0  0  0  0  0  0  0  0
   55.9990   30.0500   44.6970 C   0  0  0  0  0  0  0  0  0  0  0  0
   55.3529   30.8118   44.2362 H   0  0  0  0  0  0  0  0  0  0  0  0
   58.0850   32.3760   44.1100 C   0  0  0  0  0  0  0  0  0  0  0  0
   57.6790   31.9050   42.9040 F   0  0  0  0  0  0  0  0  0  0  0  0
   58.7040   33.6290   44.1820 C   0  0  0  0  0  0  0  0  0  0  0  0
   58.8342   34.2297   43.2697 H   0  0  0  0  0  0  0  0  0  0  0  0
  1  2  1  0
  2  3  2  0
  3  4  1  0
  3  5  1  0
  5  6  1  0
  5  7  2  0
  7  8  1  0
  8  9  1  0
  9 10  1  0
 10 11  2  0
 10 12  1  0
 12 13  1  0
 13 14  1  0
 13 15  1  0
 13 16  1  0
 16 17  1  0
 16 18  1  0
 16 19  1  0
  9 20  2  0
 20 21  1  0
 21 22  1  0
 22 23  2  0
 23 24  1  0
 24 25  2  0
 25 26  1  0
 26 27  2  0
 26 28  1  0
 28 29  1  0
 28 30  1  0
 28 31  1  0
 23 32  1  0
 32 33  1  0
 33 34  1  0
 20 35  1  0
 35 36  1  0
 35 37  1  0
 37 38  1  0
  7 39  1  0
 39 40  1  0
 39 41  2  0
 41 42  1  0
 41  2  1  0
 37  8  2  0
 33 21  2  0
M  CHG  2  32  -1  34  -1
M  END
>  <UniqueID>  (48) 
43

>  <SMILES>  (48) 
CCOC(=O)c1c(-c2ccccc2F)c[nH]c1-c1nc(/N=N\C(C)=O)[n-]c1[O-]

>  <Energy>  (48) 
114.5864156497531

>  <Genealogy>  (48) 
CCOC(=O)c1c(-c2ccccc2F)c[nH]c1-c1nc(N=NC(C)=O)[n-]c1[O-] (protonated)
CCOC(=O)c1c(-c2ccccc2F)c[nH]c1-c1nc(/N=N\C(C)=O)[n-]c1[O-] (cis-trans isomerization)
CCOC(=O)c1c(-c2ccccc2F)c[nH]c1-c1nc(/N=N\C(C)=O)[n-]c1[O-] (3D coordinates assigned)
CCOC(=O)c1c(-c2ccccc2F)c[nH]c1-c1nc(/N=N\C(C)=O)[n-]c1[O-] (optimized conformer: 114.5864156497531 kcal/mol)

>  <smiles>  (48) 
CCOC(=O)c1c(-c2ccccc2F)c[nH]c1-c1nc(N=NC(C)=O)[nH]c1O

>  <score_type>  (48) 
oracle

>  <origin>  (48) 
adg

>  <m_score__min__energy>  (48) 
-13.58

>  <m_primary>  (48) 
energy

$$$$
48:0
     RDKit          3D

 56 59  0  0  1  0  0  0  0  0999 V2000
   58.3820   30.2790   46.5620 C   0  0  0  0  0  0  0  0  0  0  0  0
   58.1770   31.0760   45.3130 C   0  0  0  0  0  0  0  0  0  0  0  0
   57.5570   30.5090   44.2100 C   0  0  0  0  0  0  0  0  0  0  0  0
   57.3750   31.2640   43.0440 C   0  0  0  0  0  0  0  0  0  0  0  0
   57.8430   32.5780   43.0680 C   0  0  0  0  0  0  0  0  0  0  0  0
   58.4360   33.1040   44.1330 N   0  0  0  0  0  0  0  0  0  0  0  0
   58.6120   32.3850   45.2530 C   0  0  0  0  0  0  0  0  0  0  0  0
   59.1730   32.8730   46.2910 N   0  0  0  0  0  0  0  0  0  0  0  0
   60.1460   33.8740   46.2480 C   0  0  0  0  0  0  0  0  0  0  0  0
   60.0900   34.9550   45.6270 O   0  0  0  0  0  0  0  0  0  0  0  0
   61.3870   33.6380   47.0210 C   0  0  0  0  0  0  0  0  0  0  0  0
   62.5980   33.8430   46.3790 C   0  0  0  0  0  0  0  0  0  0  0  0
   63.7560   33.6180   47.0890 C   0  0  0  0  0  0  0  0  0  0  0  0
   63.6870   33.1980   48.4070 C   0  0  0  0  0  0  0  0  0  0  0  0
   62.4940   32.9910   49.0570 C   0  0  0  0  0  0  0  0  0  0  0  0
   62.4900   32.5350   50.4720 C   0  0  0  0  0  0  0  0  0  0  0  0
   61.2800   31.8990   50.8820 N   0  0  0  0  0  0  0  0  0  0  0  0
   60.0410   32.5480   51.1090 C   0  0  0  0  0  0  0  0  0  0  0  0
   59.9430   33.8140   50.9480 O   0  0  0  0  0  0  0  0  0  0  0  0
   58.8270   31.8700   51.5270 C   0  0  0  0  0  0  0  0  0  0  0  0
   57.7800   32.6150   52.0170 C   0  0  0  0  0  0  0  0  0  0  0  0
   56.5850   32.0300   52.4330 C   0  0  0  0  0  0  0  0  0  0  0  0
   56.4700   30.6570   52.3440 C   0  0  0  0  0  0  0  0  0  0  0  0
   55.2610   29.9800   52.7560 N   0  0  0  0  0  0  0  0  0  0  0  0
   54.1210   30.5250   52.5290 C   0  0  0  0  0  0  0  0  0  0  0  0
   53.0810   30.4540   53.4400 C   0  0  0  0  0  0  0  0  0  0  0  0
   51.8750   31.0690   53.1220 C   0  0  0  0  0  0  0  0  0  0  0  0
   51.7280   31.7360   51.9220 C   0  0  0  0  0  0  0  0  0  0  0  0
   50.6430   32.2910   51.6370 O   0  0  0  0  0  0  0  0  0  0  0  0
   52.7670   31.7760   51.0760 N   0  0  0  0  0  0  0  0  0  0  0  0
   53.9150   31.1920   51.3710 N   0  0  0  0  0  0  0  0  0  0  0  0
   57.4900   29.8700   51.8610 C   0  0  0  0  0  0  0  0  0  0  0  0
   58.6480   30.5040   51.4650 C   0  0  0  0  0  0  0  0  0  0  0  0
   61.3440   33.2200   48.3340 C   0  0  0  0  0  0  0  0  0  0  0  0
   58.2165   30.9223   47.4388 H   0  0  0  0  0  0  0  0  0  0  0  0
   57.6703   29.4405   46.5829 H   0  0  0  0  0  0  0  0  0  0  0  0
   59.4100   29.8880   46.5829 H   0  0  0  0  0  0  0  0  0  0  0  0
   57.2081   29.4666   44.2504 H   0  0  0  0  0  0  0  0  0  0  0  0
   56.8870   30.8415   42.1533 H   0  0  0  0  0  0  0  0  0  0  0  0
   57.7159   33.2017   42.1708 H   0  0  0  0  0  0  0  0  0  0  0  0
   58.7710   34.0880   44.1030 H   0  0  0  0  0  0  0  0  0  0  0  0
   62.6330   34.1762   45.3313 H   0  0  0  0  0  0  0  0  0  0  0  0
   64.7344   33.7716   46.6102 H   0  0  0  0  0  0  0  0  0  0  0  0
   64.6244   33.0232   48.9553 H   0  0  0  0  0  0  0  0  0  0  0  0
   63.3164   31.8215   50.6061 H   0  0  0  0  0  0  0  0  0  0  0  0
   62.5974   33.4365   51.0931 H   0  0  0  0  0  0  0  0  0  0  0  0
   61.2960   30.8480   51.0320 H   0  0  0  0  0  0  0  0  0  0  0  0
   57.8890   33.7076   52.0828 H   0  0  0  0  0  0  0  0  0  0  0  0
   55.7585   32.6438   52.8205 H   0  0  0  0  0  0  0  0  0  0  0  0
   53.2059   29.9225   54.3949 H   0  0  0  0  0  0  0  0  0  0  0  0
   51.0342   31.0239   53.8298 H   0  0  0  0  0  0  0  0  0  0  0  0
   52.6090   32.2910   50.1800 H   0  0  0  0  0  0  0  0  0  0  0  0
   54.6940   31.2570   50.6660 H   0  0  0  0  0  0  0  0  0  0  0  0
   57.3853   28.7771   51.7935 H   0  0  0  0  0  0  0  0  0  0  0  0
   59.4733   29.8876   51.0790 H   0  0  0  0  0  0  0  0  0  0  0  0
   60.3674   33.0655   48.8162 H   0  0  0  0  0  0  0  0  0  0  0  0
  1  2  1  0
  2  3  2  0
  3  4  1  0
  4  5  2  0
  5  6  1  0
  6  7  1  0
  7  8  2  0
  8  9  1  0
  9 10  2  0
  9 11  1  0
 11 12  2  0
 12 13  1  0
 13 14  2  0
 14 15  1  0
 15 16  1  0
 16 17  1  0
 17 18  1  0
 18 19  2  0
 18 20  1  0
 20 21  2  0
 21 22  1  0
 22 23  2  0
 23 24  1  0
 24 25  2  0
 25 26  1  0
 26 27  2  0
 27 28  1  0
 28 29  2  0
 28 30  1  0
 30 31  1  0
 23 32  1  0
 32 33  2  0
 15 34  2  0
  7  2  1  0
 34 11  1  0
 33 20  1  0
 31 25  1  0
  1 35  1  0
  1 36  1  0
  1 37  1  0
  3 38  1  0
  4 39  1  0
  5 40  1  0
  6 41  1  0
 12 42  1  0
 13 43  1  0
 14 44  1  0
 16 45  1  0
 16 46  1  0
 17 47  1  0
 21 48  1  0
 22 49  1  0
 26 50  1  0
 27 51  1  0
 30 52  1  0
 31 53  1  0
 32 54  1  0
 33 55  1  0
 34 56  1  0
M  END
>  <smiles>  (49) 
Cc1ccc[nH]c1=NC(=O)c1cccc(CNC(=O)c2ccc(N=c3ccc(=O)[nH][nH]3)cc2)c1

>  <score_type>  (49) 
oracle

>  <origin>  (49) 
adg

>  <m_score__min__energy>  (49) 
-10.58

>  <m_primary>  (49) 
energy

$$$$
49:0
     RDKit          3D

 58 61  0  0  0  0  0  0  0  0999 V2000
   59.2410   34.5090   46.8990 C   0  0  0  0  0  0  0  0  0  0  0  0
   59.8640   33.2490   47.1390 O   0  0  0  0  0  0  0  0  0  0  0  0
   61.2170   33.0810   47.4820 C   0  0  0  0  0  0  0  0  0  0  0  0
   62.2380   33.8340   46.8650 C   0  0  0  0  0  0  0  0  0  0  0  0
   63.5710   33.6660   47.2490 C   0  0  0  0  0  0  0  0  0  0  0  0
   63.9020   32.7490   48.2470 C   0  0  0  0  0  0  0  0  0  0  0  0
   62.9030   31.9900   48.8610 C   0  0  0  0  0  0  0  0  0  0  0  0
   61.5570   32.1420   48.4810 C   0  0  0  0  0  0  0  0  0  0  0  0
   60.5420   31.3450   49.1200 N   0  0  0  0  0  0  0  0  0  0  0  0
   59.4710   32.0120   49.8740 C   0  0  0  0  0  0  0  0  0  0  0  0
   58.3830   31.0210   50.2970 C   0  0  0  0  0  0  0  0  0  0  0  0
   58.9920   29.8360   50.9270 N   0  0  0  0  0  0  0  0  0  0  0  0
   58.4610   29.2010   52.1190 C   0  0  0  0  0  0  0  0  0  0  0  0
   59.1410   28.3000   52.6890 O   0  0  0  0  0  0  0  0  0  0  0  0
   57.1250   29.5550   52.7440 C   0  0  1  0  0  0  0  0  0  0  0  0
   57.3330   30.4450   53.9830 C   0  0  0  0  0  0  0  0  0  0  0  0
   58.5140   31.3710   53.8210 C   0  0  0  0  0  0  0  0  0  0  0  0
   58.3610   32.6090   53.1770 C   0  0  0  0  0  0  0  0  0  0  0  0
   59.4590   33.4620   53.0250 C   0  0  0  0  0  0  0  0  0  0  0  0
   60.7130   33.0870   53.5160 C   0  0  0  0  0  0  0  0  0  0  0  0
   60.8690   31.8640   54.1750 C   0  0  0  0  0  0  0  0  0  0  0  0
   59.7740   31.0090   54.3320 C   0  0  0  0  0  0  0  0  0  0  0  0
   56.2190   30.1840   51.7800 N   0  0  0  0  0  0  0  0  0  0  0  0
   55.2930   31.2520   52.0380 C   0  0  0  0  0  0  0  0  0  0  0  0
   55.7520   32.3860   52.3350 O   0  0  0  0  0  0  0  0  0  0  0  0
   53.8310   31.0970   51.9110 C   0  0  0  0  0  0  0  0  0  0  0  0
   53.0910   29.9710   52.2390 C   0  0  0  0  0  0  0  0  0  0  0  0
   51.7750   30.2930   52.0010 C   0  0  0  0  0  0  0  0  0  0  0  0
   51.7840   31.5990   51.5670 C   0  0  0  0  0  0  0  0  0  0  0  0
   50.6440   32.3340   51.2500 O   0  0  0  0  0  0  0  0  0  0  0  0
   53.0290   32.1050   51.5110 N   0  0  0  0  0  0  0  0  0  0  0  0
   60.1590   29.2070   50.2800 C   0  0  0  0  0  0  0  0  0  0  0  0
   60.5260   29.8870   48.9540 C   0  0  0  0  0  0  0  0  0  0  0  0
   59.0034   34.9895   47.8596 H   0  0  0  0  0  0  0  0  0  0  0  0
   59.9246   35.1528   46.3261 H   0  0  0  0  0  0  0  0  0  0  0  0
   58.3144   34.3567   46.3261 H   0  0  0  0  0  0  0  0  0  0  0  0
   61.9832   34.5578   46.0768 H   0  0  0  0  0  0  0  0  0  0  0  0
   64.3609   34.2579   46.7635 H   0  0  0  0  0  0  0  0  0  0  0  0
   64.9517   32.6235   48.5509 H   0  0  0  0  0  0  0  0  0  0  0  0
   63.1705   31.2685   49.6470 H   0  0  0  0  0  0  0  0  0  0  0  0
   59.9021   32.4753   50.7737 H   0  0  0  0  0  0  0  0  0  0  0  0
   59.0125   32.7720   49.2242 H   0  0  0  0  0  0  0  0  0  0  0  0
   57.7073   31.5079   51.0156 H   0  0  0  0  0  0  0  0  0  0  0  0
   57.8193   30.7049   49.4069 H   0  0  0  0  0  0  0  0  0  0  0  0
   56.6445   28.6190   53.0649 H   0  0  0  0  0  0  0  0  0  0  0  0
   56.4275   31.0487   54.1429 H   0  0  0  0  0  0  0  0  0  0  0  0
   57.5305   29.7891   54.8437 H   0  0  0  0  0  0  0  0  0  0  0  0
   57.3755   32.9088   52.7911 H   0  0  0  0  0  0  0  0  0  0  0  0
   59.3355   34.4303   52.5179 H   0  0  0  0  0  0  0  0  0  0  0  0
   61.5773   33.7545   53.3838 H   0  0  0  0  0  0  0  0  0  0  0  0
   61.8538   31.5742   54.5702 H   0  0  0  0  0  0  0  0  0  0  0  0
   59.8979   30.0502   54.8567 H   0  0  0  0  0  0  0  0  0  0  0  0
   53.4787   29.0124   52.6143 H   0  0  0  0  0  0  0  0  0  0  0  0
   50.8978   29.6420   52.1306 H   0  0  0  0  0  0  0  0  0  0  0  0
   61.0198   29.2731   50.9617 H   0  0  0  0  0  0  0  0  0  0  0  0
   59.8994   28.1607   50.0613 H   0  0  0  0  0  0  0  0  0  0  0  0
   61.5220   29.5467   48.6345 H   0  0  0  0  0  0  0  0  0  0  0  0
   59.7766   29.6203   48.1942 H   0  0  0  0  0  0  0  0  0  0  0  0
  1  2  1  0
  2  3  1  0
  3  4  2  0
  4  5  1  0
  5  6  2  0
  6  7  1  0
  7  8  2  0
  8  9  1  0
  9 10  1  0
 10 11  1  0
 11 12  1  0
 12 13  1  0
 13 14  2  0
 13 15  1  0
 15 16  1  0
 16 17  1  0
 17 18  2  0
 18 19  1  0
 19 20  2  0
 20 21  1  0
 21 22  2  0
 15 23  1  0
 23 24  1  0
 24 25  2  0
 24 26  1  0
 26 27  2  0
 27 28  1  0
 28 29  2  0
 29 30  1  0
 29 31  1  0
 12 32  1  0
 32 33  1  0
  8  3  1  0
 33  9  1  0
 22 17  1  0
 31 26  1  0
  1 34  1  0
  1 35  1  0
  1 36  1  0
  4 37  1  0
  5 38  1  0
  6 39  1  0
  7 40  1  0
 10 41  1  0
 10 42  1  0
 11 43  1  0
 11 44  1  0
 15 45  1  1
 16 46  1  0
 16 47  1  0
 18 48  1  0
 19 49  1  0
 20 50  1  0
 21 51  1  0
 22 52  1  0
 27 53  1  0
 28 54  1  0
 32 55  1  0
 32 56  1  0
 33 57  1  0
 33 58  1  0
M  CHG  3  23  -1  30  -1  31  -1
M  END
>  <UniqueID>  (50) 
44

>  <SMILES>  (50) 
COc1ccccc1N1CCN(C(=O)[C@@H](Cc2ccccc2)[N-]C(=O)c2ccc([O-])[n-]2)CC1

>  <Energy>  (50) 
93.03290911715028

>  <Genealogy>  (50) 
COc1ccccc1N1CCN(C(=O)C(Cc2ccccc2)[N-]C(=O)c2ccc([O-])[n-]2)CC1 (protonated)
COc1ccccc1N1CCN(C(=O)[C@@H](Cc2ccccc2)[N-]C(=O)c2ccc([O-])[n-]2)CC1 (chirality)
COc1ccccc1N1CCN(C(=O)[C@@H](Cc2ccccc2)[N-]C(=O)c2ccc([O-])[n-]2)CC1 (3D coordinates assigned)
COc1ccccc1N1CCN(C(=O)[C@@H](Cc2ccccc2)[N-]C(=O)c2ccc([O-])[n-]2)CC1 (nonaromatic ring conformer: 93.03290911715028 kcal/mol)

>  <smiles>  (50) 
COc1ccccc1N1CCN(C(=O)C(Cc2ccccc2)NC(=O)c2ccc(O)[nH]2)CC1

>  <score_type>  (50) 
oracle

>  <origin>  (50) 
adg

>  <m_score__min__energy>  (50) 
-14.789999999999999

>  <m_primary>  (50) 
energy

$$$$
50:0
     RDKit          3D

 53 57  0  0  0  0  0  0  0  0999 V2000
   58.1659   26.6708   44.0227 H   0  0  0  0  0  0  0  0  0  0  0  0
   57.6160   27.0470   44.8980 C   0  0  0  0  0  0  0  0  0  0  0  0
   57.1670   26.0600   45.8960 C   0  0  0  0  0  0  0  0  0  0  0  0
   57.9210   25.0600   46.3880 N   0  0  0  0  0  0  0  0  0  0  0  0
   57.0490   24.3470   47.1340 C   0  0  0  0  0  0  0  0  0  0  0  0
   57.3900   23.3200   47.7770 O   0  0  0  0  0  0  0  0  0  0  0  0
   55.7850   24.8190   47.1340 N   0  0  0  0  0  0  0  0  0  0  0  0
   55.8750   25.8960   46.3370 C   0  0  0  0  0  0  0  0  0  0  0  0
   54.7960   26.7080   46.0100 O   0  0  0  0  0  0  0  0  0  0  0  0
   57.4050   28.3690   44.9760 C   0  0  0  0  0  0  0  0  0  0  0  0
   56.2110   29.0200   44.6650 C   0  0  0  0  0  0  0  0  0  0  0  0
   55.2953   28.5222   44.3134 H   0  0  0  0  0  0  0  0  0  0  0  0
   56.3430   30.3550   44.8590 N   0  0  0  0  0  0  0  0  0  0  0  0
   57.5770   30.5560   45.2940 N   0  0  0  0  0  0  0  0  0  0  0  0
   58.1410   31.7300   45.6680 C   0  0  0  0  0  0  0  0  0  0  0  0
   57.4660   32.8420   45.5520 N   0  0  0  0  0  0  0  0  0  0  0  0
   57.8610   34.2620   45.6380 C   0  0  0  0  0  0  0  0  0  0  0  0
   56.8597   34.6243   45.3622 H   0  0  0  0  0  0  0  0  0  0  0  0
   59.2800   34.6150   45.2240 C   0  0  0  0  0  0  0  0  0  0  0  0
   59.9543   33.8322   44.8464 H   0  0  0  0  0  0  0  0  0  0  0  0
   59.7319   35.3382   44.5291 H   0  0  0  0  0  0  0  0  0  0  0  0
   58.8810   34.6350   46.7000 C   0  0  0  0  0  0  0  0  0  0  0  0
   59.2682   33.8667   47.3854 H   0  0  0  0  0  0  0  0  0  0  0  0
   58.9265   35.3787   47.5092 H   0  0  0  0  0  0  0  0  0  0  0  0
   59.4070   31.6900   46.1700 N   0  0  0  0  0  0  0  0  0  0  0  0
   60.0730   30.5050   46.3040 C   0  0  0  0  0  0  0  0  0  0  0  0
   61.3520   30.5020   46.8690 O   0  0  0  0  0  0  0  0  0  0  0  0
   61.6300   30.9810   48.1850 C   0  0  0  0  0  0  0  0  0  0  0  0
   61.9368   32.0358   48.1283 H   0  0  0  0  0  0  0  0  0  0  0  0
   62.4364   30.3726   48.6204 H   0  0  0  0  0  0  0  0  0  0  0  0
   60.4090   30.8670   49.0610 C   0  0  0  0  0  0  0  0  0  0  0  0
   60.0670   29.6400   49.6480 C   0  0  0  0  0  0  0  0  0  0  0  0
   60.6981   28.7557   49.4756 H   0  0  0  0  0  0  0  0  0  0  0  0
   58.9280   29.5360   50.4510 C   0  0  0  0  0  0  0  0  0  0  0  0
   58.6646   28.5668   50.8997 H   0  0  0  0  0  0  0  0  0  0  0  0
   58.1190   30.6530   50.6900 C   0  0  0  0  0  0  0  0  0  0  0  0
   56.9840   30.4850   51.5020 O   0  0  0  0  0  0  0  0  0  0  0  0
   56.9300   30.6850   52.9160 C   0  0  0  0  0  0  0  0  0  0  0  0
   55.8821   30.7730   53.2387 H   0  0  0  0  0  0  0  0  0  0  0  0
   57.6880   31.9680   53.2560 C   0  0  0  0  0  0  0  0  0  0  0  0
   57.7525   32.0772   54.3487 H   0  0  0  0  0  0  0  0  0  0  0  0
   58.7018   31.9182   52.8320 H   0  0  0  0  0  0  0  0  0  0  0  0
   57.1552   32.8319   52.8320 H   0  0  0  0  0  0  0  0  0  0  0  0
   57.5550   29.4920   53.6470 C   0  0  0  0  0  0  0  0  0  0  0  0
   57.4750   29.6448   54.7334 H   0  0  0  0  0  0  0  0  0  0  0  0
   57.0238   28.5706   53.3662 H   0  0  0  0  0  0  0  0  0  0  0  0
   58.6149   29.4042   53.3662 H   0  0  0  0  0  0  0  0  0  0  0  0
   58.4770   31.8910   50.1230 C   0  0  0  0  0  0  0  0  0  0  0  0
   57.8576   32.7799   50.3135 H   0  0  0  0  0  0  0  0  0  0  0  0
   59.6160   31.9960   49.3190 C   0  0  0  0  0  0  0  0  0  0  0  0
   59.8922   32.9688   48.8862 H   0  0  0  0  0  0  0  0  0  0  0  0
   59.4810   29.3390   45.9100 N   0  0  0  0  0  0  0  0  0  0  0  0
   58.2350   29.3980   45.3840 C   0  0  0  0  0  0  0  0  0  0  0  0
  1  2  1  0
  2  3  1  0
  3  4  1  0
  4  5  1  0
  5  6  2  0
  5  7  1  0
  7  8  1  0
  8  9  1  0
  2 10  2  3
 10 11  1  0
 11 12  1  0
 11 13  2  0
 13 14  1  0
 14 15  1  0
 15 16  2  0
 16 17  1  0
 17 18  1  0
 17 19  1  0
 19 20  1  0
 19 21  1  0
 19 22  1  0
 22 23  1  0
 22 24  1  0
 15 25  1  0
 25 26  2  0
 26 27  1  0
 27 28  1  0
 28 29  1  0
 28 30  1  0
 28 31  1  0
 31 32  2  0
 32 33  1  0
 32 34  1  0
 34 35  1  0
 34 36  2  0
 36 37  1  0
 37 38  1  0
 38 39  1  0
 38 40  1  0
 40 41  1  0
 40 42  1  0
 40 43  1  0
 38 44  1  0
 44 45  1  0
 44 46  1  0
 44 47  1  0
 36 48  1  0
 48 49  1  0
 48 50  2  0
 50 51  1  0
 26 52  1  0
 52 53  2  0
  8  3  2  0
 53 10  1  0
 53 14  1  0
 22 17  1  0
 50 31  1  0
M  CHG  3   4  -1   7  -1   9  -1
M  END
>  <UniqueID>  (51) 
45

>  <SMILES>  (51) 
CC(C)Oc1ccc(COc2n/c(=N\C3CC3)n3ncc(=Cc4[n-]c(=O)[n-]c4[O-])c3n2)cc1

>  <Energy>  (51) 
397.9735526859699

>  <Genealogy>  (51) 
CC(C)Oc1ccc(COc2nc(=NC3CC3)n3ncc(=Cc4[n-]c(=O)[n-]c4[O-])c3n2)cc1 (protonated)
CC(C)Oc1ccc(COc2n/c(=N\C3CC3)n3ncc(=Cc4[n-]c(=O)[n-]c4[O-])c3n2)cc1 (cis-trans isomerization)
CC(C)Oc1ccc(COc2n/c(=N\C3CC3)n3ncc(=Cc4[n-]c(=O)[n-]c4[O-])c3n2)cc1 (3D coordinates assigned)
CC(C)Oc1ccc(COc2n/c(=N\C3CC3)n3ncc(=Cc4[n-]c(=O)[n-]c4[O-])c3n2)cc1 (nonaromatic ring conformer: 397.9735526859699 kcal/mol)

>  <smiles>  (51) 
CC(C)Oc1ccc(COc2nc(=NC3CC3)n3ncc(=Cc4[nH]c(=O)[nH]c4O)c3n2)cc1

>  <score_type>  (51) 
oracle

>  <origin>  (51) 
adg

>  <m_score__min__energy>  (51) 
-17.52

>  <m_primary>  (51) 
energy

$$$$
51:0
     RDKit          3D

 24 24  0  0  0  0  0  0  0  0999 V2000
   57.0090   27.2450   43.6290 H   0  0  0  0  0  0  0  0  0  0  0  0
   57.9720   27.0330   43.4030 O   0  0  0  0  0  0  0  0  0  0  0  0
   58.9810   27.8540   43.8510 N   0  0  0  0  0  0  0  0  0  0  0  0
   59.4660   27.7610   45.0500 C   0  0  0  0  0  0  0  0  0  0  0  0
   60.3611   27.1427   45.2130 H   0  0  0  0  0  0  0  0  0  0  0  0
   58.8500   28.4670   46.2250 C   0  0  0  0  0  0  0  0  0  0  0  0
   59.4671   28.2792   47.1160 H   0  0  0  0  0  0  0  0  0  0  0  0
   57.8299   28.0780   46.3594 H   0  0  0  0  0  0  0  0  0  0  0  0
   58.7560   29.9620   46.0010 C   0  0  0  0  0  0  0  0  0  0  0  0
   59.7570   30.7790   46.5630 C   0  0  0  0  0  0  0  0  0  0  0  0
   60.5653   30.3197   47.1510 H   0  0  0  0  0  0  0  0  0  0  0  0
   59.7370   32.1620   46.3840 C   0  0  0  0  0  0  0  0  0  0  0  0
   60.5263   32.7850   46.8300 H   0  0  0  0  0  0  0  0  0  0  0  0
   58.7200   32.7550   45.6420 C   0  0  0  0  0  0  0  0  0  0  0  0
   58.7076   33.8458   45.5007 H   0  0  0  0  0  0  0  0  0  0  0  0
   57.7160   31.9680   45.0770 C   0  0  0  0  0  0  0  0  0  0  0  0
   56.9189   32.4452   44.4880 H   0  0  0  0  0  0  0  0  0  0  0  0
   57.7100   30.5720   45.2510 C   0  0  0  0  0  0  0  0  0  0  0  0
   56.4040   29.6480   44.4820 S   0  0  0  0  0  0  0  0  0  0  0  0
   56.1230   28.3850   45.2460 O   0  0  0  0  0  0  0  0  0  0  0  0
   55.1440   30.4680   44.4620 O   0  0  0  0  0  0  0  0  0  0  0  0
   56.8420   29.2640   42.8540 N   0  0  0  0  0  0  0  0  0  0  0  0
   57.8810   29.1520   42.8350 H   0  0  0  0  0  0  0  0  0  0  0  0
   56.4320   28.3290   42.6400 H   0  0  0  0  0  0  0  0  0  0  0  0
  1  2  1  0
  2  3  1  0
  3  4  2  0
  4  5  1  0
  4  6  1  0
  6  7  1  0
  6  8  1  0
  6  9  1  0
  9 10  2  0
 10 11  1  0
 10 12  1  0
 12 13  1  0
 12 14  2  0
 14 15  1  0
 14 16  1  0
 16 17  1  0
 16 18  2  0
 18 19  1  0
 19 20  2  0
 19 21  2  0
 19 22  1  0
 22 23  1  0
 22 24  1  0
 18  9  1  0
M  END
>  <UniqueID>  (52) 
46

>  <SMILES>  (52) 
NS(=O)(=O)c1ccccc1C/C=N\O

>  <Energy>  (52) 
21.96509459097039

>  <Genealogy>  (52) 
NS(=O)(=O)c1ccccc1C/C=N\O (cis-trans isomerization)
NS(=O)(=O)c1ccccc1C/C=N\O (3D coordinates assigned)
NS(=O)(=O)c1ccccc1C/C=N\O (optimized conformer: 21.96509459097039 kcal/mol)

>  <smiles>  (52) 
NS(=O)(=O)c1ccccc1CC=NO

>  <score_type>  (52) 
oracle

>  <origin>  (52) 
adg

>  <m_score__min__energy>  (52) 
-6.8399999999999999

>  <m_primary>  (52) 
energy

$$$$
52:0
     RDKit          3D

 66 69  0  0  0  0  0  0  0  0999 V2000
   57.9400   31.8410   42.9610 C   0  0  0  0  0  0  0  0  0  0  0  0
   56.6910   31.0260   43.2850 C   0  0  0  0  0  0  0  0  0  0  0  0
   56.6890   30.6260   44.6560 O   0  0  0  0  0  0  0  0  0  0  0  0
   57.3690   29.5190   45.1880 C   0  0  0  0  0  0  0  0  0  0  0  0
   57.2550   28.2240   44.6530 C   0  0  0  0  0  0  0  0  0  0  0  0
   57.9520   27.1600   45.2260 C   0  0  0  0  0  0  0  0  0  0  0  0
   58.7930   27.3630   46.3330 C   0  0  0  0  0  0  0  0  0  0  0  0
   59.4530   26.1600   46.9730 C   0  0  0  0  0  0  0  0  0  0  0  0
   59.4070   24.9600   46.0720 C   0  0  0  0  0  0  0  0  0  0  0  0
   60.4860   24.4680   45.6420 O   0  0  0  0  0  0  0  0  0  0  0  0
   58.1580   24.3400   45.7580 N   0  0  0  0  0  0  0  0  0  0  0  0
   56.9550   24.0020   46.9540 S   0  0  0  0  0  0  0  0  0  0  0  0
   56.8520   25.1670   47.8960 O   0  0  0  0  0  0  0  0  0  0  0  0
   57.3860   22.7940   47.7380 O   0  0  0  0  0  0  0  0  0  0  0  0
   55.3760   23.7490   46.1730 C   0  0  0  0  0  0  0  0  0  0  0  0
   54.8800   22.4480   45.9160 C   0  0  0  0  0  0  0  0  0  0  0  0
   55.6430   21.2090   46.2810 C   0  0  0  0  0  0  0  0  0  0  0  0
   53.6580   22.2990   45.3380 N   0  0  0  0  0  0  0  0  0  0  0  0
   52.9030   23.3690   44.9880 C   0  0  0  0  0  0  0  0  0  0  0  0
   51.7780   23.1970   44.4520 O   0  0  0  0  0  0  0  0  0  0  0  0
   53.3610   24.6230   45.2120 N   0  0  0  0  0  0  0  0  0  0  0  0
   54.5700   24.8390   45.7920 C   0  0  0  0  0  0  0  0  0  0  0  0
   54.9510   26.0250   45.9780 O   0  0  0  0  0  0  0  0  0  0  0  0
   58.9160   28.6690   46.8730 C   0  0  0  0  0  0  0  0  0  0  0  0
   59.7810   28.9570   48.0350 C   0  0  0  0  0  0  0  0  0  0  0  0
   59.9230   28.0140   49.0620 C   0  0  0  0  0  0  0  0  0  0  0  0
   60.7600   28.2840   50.1460 C   0  0  0  0  0  0  0  0  0  0  0  0
   61.4570   29.4930   50.2140 C   0  0  0  0  0  0  0  0  0  0  0  0
   61.3140   30.4520   49.1960 C   0  0  0  0  0  0  0  0  0  0  0  0
   62.0260   31.6980   49.1980 N   0  0  0  0  0  0  0  0  0  0  0  0
   61.5290   33.1880   48.4560 S   0  0  0  0  0  0  0  0  0  0  0  0
   60.2510   33.6330   49.1130 O   0  0  0  0  0  0  0  0  0  0  0  0
   62.5600   34.2630   48.6620 O   0  0  0  0  0  0  0  0  0  0  0  0
   61.2130   32.9370   46.7150 C   0  0  0  0  0  0  0  0  0  0  0  0
   59.8130   33.3530   46.3530 C   0  0  0  0  0  0  0  0  0  0  0  0
   59.5970   34.2600   45.3050 C   0  0  0  0  0  0  0  0  0  0  0  0
   58.2940   34.6100   44.9350 C   0  0  0  0  0  0  0  0  0  0  0  0
   57.2010   34.0510   45.6020 C   0  0  0  0  0  0  0  0  0  0  0  0
   57.4100   33.1440   46.6460 C   0  0  0  0  0  0  0  0  0  0  0  0
   58.7100   32.7950   47.0230 C   0  0  0  0  0  0  0  0  0  0  0  0
   60.4560   30.1830   48.1230 C   0  0  0  0  0  0  0  0  0  0  0  0
   58.1980   29.7280   46.2950 C   0  0  0  0  0  0  0  0  0  0  0  0
   58.4245   32.1571   43.8966 H   0  0  0  0  0  0  0  0  0  0  0  0
   58.6387   31.2245   42.3764 H   0  0  0  0  0  0  0  0  0  0  0  0
   57.6571   32.7288   42.3764 H   0  0  0  0  0  0  0  0  0  0  0  0
   55.7991   31.6384   43.0865 H   0  0  0  0  0  0  0  0  0  0  0  0
   56.6842   30.1248   42.6544 H   0  0  0  0  0  0  0  0  0  0  0  0
   56.6125   28.0486   43.7775 H   0  0  0  0  0  0  0  0  0  0  0  0
   57.8417   26.1494   44.8058 H   0  0  0  0  0  0  0  0  0  0  0  0
   60.5035   26.4029   47.1907 H   0  0  0  0  0  0  0  0  0  0  0  0
   58.9062   25.9182   47.8963 H   0  0  0  0  0  0  0  0  0  0  0  0
   55.6972   21.1210   47.3761 H   0  0  0  0  0  0  0  0  0  0  0  0
   55.1309   20.3278   45.8672 H   0  0  0  0  0  0  0  0  0  0  0  0
   56.6604   21.2697   45.8672 H   0  0  0  0  0  0  0  0  0  0  0  0
   59.3751   27.0614   49.0139 H   0  0  0  0  0  0  0  0  0  0  0  0
   60.8713   27.5417   50.9501 H   0  0  0  0  0  0  0  0  0  0  0  0
   62.1205   29.6954   51.0677 H   0  0  0  0  0  0  0  0  0  0  0  0
   61.9279   33.5346   46.1303 H   0  0  0  0  0  0  0  0  0  0  0  0
   61.3286   31.8665   46.4897 H   0  0  0  0  0  0  0  0  0  0  0  0
   60.4545   34.6973   44.7726 H   0  0  0  0  0  0  0  0  0  0  0  0
   58.1296   35.3269   44.1171 H   0  0  0  0  0  0  0  0  0  0  0  0
   56.1772   34.3239   45.3064 H   0  0  0  0  0  0  0  0  0  0  0  0
   56.5495   32.7044   47.1715 H   0  0  0  0  0  0  0  0  0  0  0  0
   58.8704   32.0824   47.8455 H   0  0  0  0  0  0  0  0  0  0  0  0
   60.3097   30.9418   47.3402 H   0  0  0  0  0  0  0  0  0  0  0  0
   58.2889   30.7386   46.7197 H   0  0  0  0  0  0  0  0  0  0  0  0
  1  2  1  0
  2  3  1  0
  3  4  1  0
  4  5  2  0
  5  6  1  0
  6  7  2  0
  7  8  1  0
  8  9  1  0
  9 10  2  0
  9 11  1  0
 11 12  1  0
 12 13  2  0
 12 14  2  0
 12 15  1  0
 15 16  2  0
 16 17  1  0
 16 18  1  0
 18 19  1  0
 19 20  2  0
 19 21  1  0
 21 22  1  0
 22 23  2  0
  7 24  1  0
 24 25  1  0
 25 26  2  0
 26 27  1  0
 27 28  2  0
 28 29  1  0
 29 30  1  0
 30 31  1  0
 31 32  2  0
 31 33  2  0
 31 34  1  0
 34 35  1  0
 35 36  2  0
 36 37  1  0
 37 38  2  0
 38 39  1  0
 39 40  2  0
 29 41  2  0
 24 42  2  0
 42  4  1  0
 22 15  1  0
 41 25  1  0
 40 35  1  0
  1 43  1  0
  1 44  1  0
  1 45  1  0
  2 46  1  0
  2 47  1  0
  5 48  1  0
  6 49  1  0
  8 50  1  0
  8 51  1  0
 17 52  1  0
 17 53  1  0
 17 54  1  0
 26 55  1  0
 27 56  1  0
 28 57  1  0
 34 58  1  0
 34 59  1  0
 36 60  1  0
 37 61  1  0
 38 62  1  0
 39 63  1  0
 40 64  1  0
 41 65  1  0
 42 66  1  0
M  CHG  4  11  -1  18  -1  21  -1  30  -1
M  END
>  <UniqueID>  (53) 
47

>  <SMILES>  (53) 
CCOc1ccc(CC(=O)[N-]S(=O)(=O)c2c(C)[n-]c(=O)[n-]c2=O)c(-c2cccc([N-]S(=O)(=O)Cc3ccccc3)c2)c1

>  <Energy>  (53) 
74.03904716721453

>  <Genealogy>  (53) 
CCOc1ccc(CC(=O)[N-]S(=O)(=O)c2c(C)[n-]c(=O)[n-]c2=O)c(-c2cccc([N-]S(=O)(=O)Cc3ccccc3)c2)c1 (protonated)
CCOc1ccc(CC(=O)[N-]S(=O)(=O)c2c(C)[n-]c(=O)[n-]c2=O)c(-c2cccc([N-]S(=O)(=O)Cc3ccccc3)c2)c1 (3D coordinates assigned)
CCOc1ccc(CC(=O)[N-]S(=O)(=O)c2c(C)[n-]c(=O)[n-]c2=O)c(-c2cccc([N-]S(=O)(=O)Cc3ccccc3)c2)c1 (optimized conformer: 74.03904716721453 kcal/mol)

>  <smiles>  (53) 
CCOc1ccc(CC(=O)NS(=O)(=O)c2c(C)[nH]c(=O)[nH]c2=O)c(-c2cccc(NS(=O)(=O)Cc3ccccc3)c2)c1

>  <score_type>  (53) 
oracle

>  <origin>  (53) 
adg

>  <m_score__min__energy>  (53) 
-17.149999999999999

>  <m_primary>  (53) 
energy

$$$$
53:0
     RDKit          3D

 62 65  0  0  0  0  0  0  0  0999 V2000
   64.4270   33.4290   47.8770 C   0  0  0  0  0  0  0  0  0  0  0  0
   62.9760   33.2670   47.7030 N   0  0  0  0  0  0  0  0  0  0  0  0
   62.2540   33.8470   48.8520 C   0  0  0  0  0  0  0  0  0  0  0  0
   60.7280   33.7410   48.6490 C   0  0  0  0  0  0  0  0  0  0  0  0
   60.4020   32.9020   47.4820 N   0  0  0  0  0  0  0  0  0  0  0  0
   58.6740   32.6600   47.3400 S   0  0  0  0  0  0  0  0  0  0  0  0
   58.1400   31.9350   48.5460 O   0  0  0  0  0  0  0  0  0  0  0  0
   58.0190   34.0130   47.3050 O   0  0  0  0  0  0  0  0  0  0  0  0
   58.2300   31.7860   45.8580 C   0  0  0  0  0  0  0  0  0  0  0  0
   57.7190   30.4860   45.9870 C   0  0  0  0  0  0  0  0  0  0  0  0
   57.3110   29.7500   44.8670 C   0  0  0  0  0  0  0  0  0  0  0  0
   56.7580   28.4350   45.0560 N   0  0  0  0  0  0  0  0  0  0  0  0
   57.5240   27.2660   45.3940 C   0  0  0  0  0  0  0  0  0  0  0  0
   58.6810   27.3870   45.8770 O   0  0  0  0  0  0  0  0  0  0  0  0
   56.9340   25.9150   45.2430 C   0  0  0  0  0  0  0  0  0  0  0  0
   57.7210   24.8760   44.7210 C   0  0  0  0  0  0  0  0  0  0  0  0
   57.2000   23.5900   44.5910 C   0  0  0  0  0  0  0  0  0  0  0  0
   55.8920   23.3200   44.9890 C   0  0  0  0  0  0  0  0  0  0  0  0
   55.0830   24.3380   45.5190 C   0  0  0  0  0  0  0  0  0  0  0  0
   53.6760   24.0110   45.9790 C   0  0  0  0  0  0  0  0  0  0  0  0
   52.9090   23.1750   45.0250 N   0  0  0  0  0  0  0  0  0  0  0  0
   51.8340   22.3540   45.6150 C   0  0  0  0  0  0  0  0  0  0  0  0
   50.4590   23.0590   45.5910 C   0  0  0  0  0  0  0  0  0  0  0  0
   50.5270   24.3600   45.0490 O   0  0  0  0  0  0  0  0  0  0  0  0
   51.0620   24.3010   43.7470 C   0  0  0  0  0  0  0  0  0  0  0  0
   52.5290   23.8360   43.7600 C   0  0  0  0  0  0  0  0  0  0  0  0
   55.5970   25.6490   45.6080 C   0  0  0  0  0  0  0  0  0  0  0  0
   54.7730   26.6870   46.0280 O   0  0  0  0  0  0  0  0  0  0  0  0
   57.3870   30.3440   43.5960 C   0  0  0  0  0  0  0  0  0  0  0  0
   57.9030   31.6330   43.4530 C   0  0  0  0  0  0  0  0  0  0  0  0
   58.3310   32.3590   44.5710 C   0  0  0  0  0  0  0  0  0  0  0  0
   58.9710   33.9740   44.2960 Cl  0  0  0  0  0  0  0  0  0  0  0  0
   61.1110   31.6140   47.5610 C   0  0  0  0  0  0  0  0  0  0  0  0
   62.6360   31.8380   47.5510 C   0  0  0  0  0  0  0  0  0  0  0  0
   64.6669   33.4558   48.9502 H   0  0  0  0  0  0  0  0  0  0  0  0
   64.9495   32.5836   47.4055 H   0  0  0  0  0  0  0  0  0  0  0  0
   64.7502   34.3688   47.4055 H   0  0  0  0  0  0  0  0  0  0  0  0
   62.5350   33.3037   49.7663 H   0  0  0  0  0  0  0  0  0  0  0  0
   62.5255   34.9093   48.9398 H   0  0  0  0  0  0  0  0  0  0  0  0
   60.2766   33.2960   49.5480 H   0  0  0  0  0  0  0  0  0  0  0  0
   60.3292   34.7511   48.4738 H   0  0  0  0  0  0  0  0  0  0  0  0
   57.6370   30.0356   46.9872 H   0  0  0  0  0  0  0  0  0  0  0  0
   55.7160   28.3430   45.0450 H   0  0  0  0  0  0  0  0  0  0  0  0
   58.7571   25.0787   44.4122 H   0  0  0  0  0  0  0  0  0  0  0  0
   57.8231   22.7856   44.1730 H   0  0  0  0  0  0  0  0  0  0  0  0
   55.4901   22.3011   44.8871 H   0  0  0  0  0  0  0  0  0  0  0  0
   53.7413   23.4725   46.9359 H   0  0  0  0  0  0  0  0  0  0  0  0
   53.1395   24.9673   46.0670 H   0  0  0  0  0  0  0  0  0  0  0  0
   51.7573   21.4150   45.0472 H   0  0  0  0  0  0  0  0  0  0  0  0
   52.0952   22.1743   46.6683 H   0  0  0  0  0  0  0  0  0  0  0  0
   49.7660   22.4594   44.9826 H   0  0  0  0  0  0  0  0  0  0  0  0
   50.1116   23.1484   46.6309 H   0  0  0  0  0  0  0  0  0  0  0  0
   50.4684   23.5943   43.1485 H   0  0  0  0  0  0  0  0  0  0  0  0
   51.0241   25.3108   43.3125 H   0  0  0  0  0  0  0  0  0  0  0  0
   52.6799   23.1261   42.9334 H   0  0  0  0  0  0  0  0  0  0  0  0
   53.1606   24.7299   43.6508 H   0  0  0  0  0  0  0  0  0  0  0  0
   57.0388   29.7915   42.7109 H   0  0  0  0  0  0  0  0  0  0  0  0
   57.9741   32.0830   42.4518 H   0  0  0  0  0  0  0  0  0  0  0  0
   60.8263   31.1001   48.4910 H   0  0  0  0  0  0  0  0  0  0  0  0
   60.8349   31.0010   46.6904 H   0  0  0  0  0  0  0  0  0  0  0  0
   63.0852   31.2738   48.3815 H   0  0  0  0  0  0  0  0  0  0  0  0
   63.0285   31.4917   46.5835 H   0  0  0  0  0  0  0  0  0  0  0  0
  1  2  1  0
  2  3  1  0
  3  4  1  0
  4  5  1  0
  5  6  1  0
  6  7  2  0
  6  8  2  0
  6  9  1  0
  9 10  2  0
 10 11  1  0
 11 12  1  0
 12 13  1  0
 13 14  2  0
 13 15  1  0
 15 16  2  0
 16 17  1  0
 17 18  2  0
 18 19  1  0
 19 20  1  0
 20 21  1  0
 21 22  1  0
 22 23  1  0
 23 24  1  0
 24 25  1  0
 25 26  1  0
 19 27  2  0
 27 28  1  0
 11 29  2  0
 29 30  1  0
 30 31  2  0
 31 32  1  0
  5 33  1  0
 33 34  1  0
 34  2  1  0
 31  9  1  0
 27 15  1  0
 26 21  1  0
  1 35  1  0
  1 36  1  0
  1 37  1  0
  3 38  1  0
  3 39  1  0
  4 40  1  0
  4 41  1  0
 10 42  1  0
 12 43  1  0
 16 44  1  0
 17 45  1  0
 18 46  1  0
 20 47  1  0
 20 48  1  0
 22 49  1  0
 22 50  1  0
 23 51  1  0
 23 52  1  0
 25 53  1  0
 25 54  1  0
 26 55  1  0
 26 56  1  0
 29 57  1  0
 30 58  1  0
 33 59  1  0
 33 60  1  0
 34 61  1  0
 34 62  1  0
M  CHG  1  28  -1
M  END
>  <UniqueID>  (54) 
48

>  <SMILES>  (54) 
CN1CCN(S(=O)(=O)c2cc(NC(=O)c3cccc(CN4CCOCC4)c3[O-])ccc2Cl)CC1

>  <Energy>  (54) 
96.96977895571158

>  <Genealogy>  (54) 
CN1CCN(S(=O)(=O)c2cc(NC(=O)c3cccc(CN4CCOCC4)c3[O-])ccc2Cl)CC1 (protonated)
CN1CCN(S(=O)(=O)c2cc(NC(=O)c3cccc(CN4CCOCC4)c3[O-])ccc2Cl)CC1 (3D coordinates assigned)
CN1CCN(S(=O)(=O)c2cc(NC(=O)c3cccc(CN4CCOCC4)c3[O-])ccc2Cl)CC1 (nonaromatic ring conformer: 96.96977895571158 kcal/mol)

>  <smiles>  (54) 
CN1CCN(S(=O)(=O)c2cc(NC(=O)c3cccc(CN4CCOCC4)c3O)ccc2Cl)CC1

>  <score_type>  (54) 
oracle

>  <origin>  (54) 
adg

>  <m_score__min__energy>  (54) 
-13.65

>  <m_primary>  (54) 
energy

$$$$
54:0
     RDKit          3D

 28 29  0  0  0  0  0  0  0  0999 V2000
   55.0610   26.3520   45.9460 N   0  0  0  0  0  0  0  0  0  0  0  0
   56.7620   26.5520   45.7190 S   0  0  0  0  0  0  0  0  0  0  0  0
   57.4730   26.3140   47.0220 O   0  0  0  0  0  0  0  0  0  0  0  0
   57.2560   25.5520   44.7110 O   0  0  0  0  0  0  0  0  0  0  0  0
   57.0910   28.1860   45.1510 C   0  0  0  0  0  0  0  0  0  0  0  0
   58.4130   28.6260   44.9970 C   0  0  0  0  0  0  0  0  0  0  0  0
   58.6740   29.9300   44.5610 C   0  0  0  0  0  0  0  0  0  0  0  0
   57.6140   30.8010   44.2840 C   0  0  0  0  0  0  0  0  0  0  0  0
   57.9490   32.4750   43.7370 S   0  0  0  0  0  0  0  0  0  0  0  0
   58.4070   33.0100   45.3810 C   0  0  0  0  0  0  0  0  0  0  0  0
   58.8120   34.2910   45.7290 C   0  0  0  0  0  0  0  0  0  0  0  0
   59.1210   34.4150   47.0880 C   0  0  0  0  0  0  0  0  0  0  0  0
   58.9560   33.2290   47.7910 C   0  0  0  0  0  0  0  0  0  0  0  0
   59.2420   33.0150   49.5060 S   0  0  0  0  0  0  0  0  0  0  0  0
   57.8420   32.3210   50.2460 N   0  0  0  0  0  0  0  0  0  0  0  0
   59.5200   34.3490   50.1420 O   0  0  0  0  0  0  0  0  0  0  0  0
   60.4230   32.1080   49.7110 O   0  0  0  0  0  0  0  0  0  0  0  0
   58.4260   32.0250   46.7440 S   0  0  0  0  0  0  0  0  0  0  0  0
   56.2930   30.3650   44.4400 C   0  0  0  0  0  0  0  0  0  0  0  0
   56.0320   29.0630   44.8760 C   0  0  0  0  0  0  0  0  0  0  0  0
   54.7560   27.0820   46.6270 H   0  0  0  0  0  0  0  0  0  0  0  0
   59.2474   27.9446   45.2194 H   0  0  0  0  0  0  0  0  0  0  0  0
   59.7125   30.2705   44.4360 H   0  0  0  0  0  0  0  0  0  0  0  0
   58.8827   35.1218   45.0116 H   0  0  0  0  0  0  0  0  0  0  0  0
   59.4592   35.3537   47.5510 H   0  0  0  0  0  0  0  0  0  0  0  0
   57.0110   32.7010   49.7410 H   0  0  0  0  0  0  0  0  0  0  0  0
   55.4594   31.0479   44.2192 H   0  0  0  0  0  0  0  0  0  0  0  0
   54.9929   28.7253   45.0038 H   0  0  0  0  0  0  0  0  0  0  0  0
  1  2  1  0
  2  3  2  0
  2  4  2  0
  2  5  1  0
  5  6  2  0
  6  7  1  0
  7  8  2  0
  8  9  1  0
  9 10  1  0
 10 11  2  0
 11 12  1  0
 12 13  2  0
 13 14  1  0
 14 15  1  0
 14 16  2  0
 14 17  2  0
 13 18  1  0
  8 19  1  0
 19 20  2  0
 20  5  1  0
 18 10  1  0
  1 21  1  0
  6 22  1  0
  7 23  1  0
 11 24  1  0
 12 25  1  0
 15 26  1  0
 19 27  1  0
 20 28  1  0
M  CHG  2   1  -1  15  -1
M  END
>  <UniqueID>  (55) 
49

>  <SMILES>  (55) 
[NH-]S(=O)(=O)c1ccc(Sc2ccc(S([NH-])(=O)=O)s2)cc1

>  <Energy>  (55) 
49.72208654695343

>  <Genealogy>  (55) 
[NH-]S(=O)(=O)c1ccc(Sc2ccc(S([NH-])(=O)=O)s2)cc1 (protonated)
[NH-]S(=O)(=O)c1ccc(Sc2ccc(S([NH-])(=O)=O)s2)cc1 (3D coordinates assigned)
[NH-]S(=O)(=O)c1ccc(Sc2ccc(S([NH-])(=O)=O)s2)cc1 (optimized conformer: 49.72208654695343 kcal/mol)

>  <smiles>  (55) 
NS(=O)(=O)c1ccc(Sc2ccc(S(N)(=O)=O)s2)cc1

>  <score_type>  (55) 
oracle

>  <origin>  (55) 
adg

>  <m_score__min__energy>  (55) 
-11.26

>  <m_primary>  (55) 
energy

$$$$
55:0
     RDKit          3D

 26 27  0  0  0  0  0  0  0  0999 V2000
   54.7410   24.4830   47.1510 H   0  0  0  0  0  0  0  0  0  0  0  0
   55.7410   24.3960   47.2850 O   0  0  0  0  0  0  0  0  0  0  0  0
   56.6340   25.3180   46.7420 C   0  0  0  0  0  0  0  0  0  0  0  0
   58.0150   25.1140   46.8440 C   0  0  0  0  0  0  0  0  0  0  0  0
   58.4003   24.2202   47.3565 H   0  0  0  0  0  0  0  0  0  0  0  0
   58.9070   26.0420   46.2970 C   0  0  0  0  0  0  0  0  0  0  0  0
   59.9909   25.8777   46.3876 H   0  0  0  0  0  0  0  0  0  0  0  0
   58.4250   27.1870   45.6300 C   0  0  0  0  0  0  0  0  0  0  0  0
   59.3280   28.2080   45.0440 C   0  0  0  0  0  0  0  0  0  0  0  0
   59.6754   28.0615   44.0106 H   0  0  0  0  0  0  0  0  0  0  0  0
   59.7450   29.3000   45.7030 C   0  0  0  0  0  0  0  0  0  0  0  0
   60.7868   29.6298   45.5773 H   0  0  0  0  0  0  0  0  0  0  0  0
   58.8570   30.0730   46.5890 C   0  0  0  0  0  0  0  0  0  0  0  0
   59.0610   30.0370   47.8320 O   0  0  0  0  0  0  0  0  0  0  0  0
   57.7780   30.8510   46.0420 N   0  0  0  0  0  0  0  0  0  0  0  0
   57.2250   30.6840   44.8780 C   0  0  0  0  0  0  0  0  0  0  0  0
   56.0360   30.0730   44.6760 N   0  0  0  0  0  0  0  0  0  0  0  0
   55.7100   30.0440   43.3560 C   0  0  0  0  0  0  0  0  0  0  0  0
   54.7788   29.5887   42.9878 H   0  0  0  0  0  0  0  0  0  0  0  0
   56.6400   30.6320   42.5060 C   0  0  0  0  0  0  0  0  0  0  0  0
   56.5565   30.7077   41.4118 H   0  0  0  0  0  0  0  0  0  0  0  0
   57.9160   31.2080   43.4410 S   0  0  0  0  0  0  0  0  0  0  0  0
   57.0370   27.3890   45.5480 C   0  0  0  0  0  0  0  0  0  0  0  0
   56.6463   28.2878   45.0485 H   0  0  0  0  0  0  0  0  0  0  0  0
   56.1470   26.4590   46.0950 C   0  0  0  0  0  0  0  0  0  0  0  0
   54.7770   26.6730   45.9940 O   0  0  0  0  0  0  0  0  0  0  0  0
  1  2  1  0
  2  3  1  0
  3  4  2  0
  4  5  1  0
  4  6  1  0
  6  7  1  0
  6  8  2  0
  8  9  1  0
  9 10  1  0
  9 11  2  0
 11 12  1  0
 11 13  1  0
 13 14  2  0
 13 15  1  0
 15 16  2  3
 16 17  1  0
 17 18  1  0
 18 19  1  0
 18 20  2  0
 20 21  1  0
 20 22  1  0
  8 23  1  0
 23 24  1  0
 23 25  2  0
 25 26  1  0
 25  3  1  0
 22 16  1  0
M  CHG  2  17  -1  26  -1
M  END
>  <UniqueID>  (56) 
50

>  <SMILES>  (56) 
O=C(/C=C/c1ccc(O)c([O-])c1)N=c1[n-]ccs1

>  <Energy>  (56) 
59.82818531502832

>  <Genealogy>  (56) 
O=C(C=Cc1ccc(O)c([O-])c1)N=c1[n-]ccs1 (protonated)
O=C(/C=C/c1ccc(O)c([O-])c1)N=c1[n-]ccs1 (cis-trans isomerization)
O=C(/C=C/c1ccc(O)c([O-])c1)N=c1[n-]ccs1 (3D coordinates assigned)
O=C(/C=C/c1ccc(O)c([O-])c1)N=c1[n-]ccs1 (optimized conformer: 59.82818531502832 kcal/mol)

>  <smiles>  (56) 
O=C(C=Cc1ccc(O)c(O)c1)N=c1[nH]ccs1

>  <score_type>  (56) 
oracle

>  <origin>  (56) 
adg

>  <m_score__min__energy>  (56) 
-11.99

>  <m_primary>  (56) 
energy

$$$$
56:0
     RDKit          3D

 44 45  0  0  0  0  0  0  0  0999 V2000
   55.5240   26.8260   46.0000 N   0  0  0  0  0  0  0  0  0  0  0  0
   56.9500   26.8010   46.3300 C   0  0  2  0  0  0  0  0  0  0  0  0
   57.7860   27.0420   45.0590 C   0  0  0  0  0  0  0  0  0  0  0  0
   57.8300   28.5040   44.6880 C   0  0  0  0  0  0  0  0  0  0  0  0
   58.7550   29.3630   45.2990 C   0  0  0  0  0  0  0  0  0  0  0  0
   58.7670   30.7250   44.9820 C   0  0  0  0  0  0  0  0  0  0  0  0
   57.8530   31.2510   44.0620 C   0  0  0  0  0  0  0  0  0  0  0  0
   57.9030   32.6280   43.7890 O   0  0  0  0  0  0  0  0  0  0  0  0
   57.3640   33.6540   44.6230 C   0  0  0  0  0  0  0  0  0  0  0  0
   58.2340   33.8730   45.8330 C   0  0  0  0  0  0  0  0  0  0  0  0
   59.3230   34.7600   45.7800 C   0  0  0  0  0  0  0  0  0  0  0  0
   60.1300   34.9510   46.9060 C   0  0  0  0  0  0  0  0  0  0  0  0
   59.8630   34.2530   48.0860 C   0  0  0  0  0  0  0  0  0  0  0  0
   58.7900   33.3610   48.1430 C   0  0  0  0  0  0  0  0  0  0  0  0
   57.9800   33.1650   47.0210 C   0  0  0  0  0  0  0  0  0  0  0  0
   56.9240   30.3880   43.4490 C   0  0  0  0  0  0  0  0  0  0  0  0
   56.9120   29.0260   43.7650 C   0  0  0  0  0  0  0  0  0  0  0  0
   57.3190   25.4980   46.9950 C   0  0  0  0  0  0  0  0  0  0  0  0
   58.5330   25.2190   47.1910 O   0  0  0  0  0  0  0  0  0  0  0  0
   56.2930   24.5770   47.3830 N   0  0  0  0  0  0  0  0  0  0  0  0
   56.3540   23.1430   47.1220 C   0  0  0  0  0  0  0  0  0  0  0  0
   55.3470   22.7550   46.0430 C   0  0  0  0  0  0  0  0  0  0  0  0
   54.1090   24.0730   45.8440 S   0  0  0  0  0  0  0  0  0  0  0  0
   54.9950   26.3470   46.7650 H   0  0  0  0  0  0  0  0  0  0  0  0
   55.3590   26.2860   45.1190 H   0  0  0  0  0  0  0  0  0  0  0  0
   57.1686   27.6088   47.0439 H   0  0  0  0  0  0  0  0  0  0  0  0
   58.8125   26.6880   45.2352 H   0  0  0  0  0  0  0  0  0  0  0  0
   57.3158   26.4922   44.2303 H   0  0  0  0  0  0  0  0  0  0  0  0
   59.4736   28.9641   46.0301 H   0  0  0  0  0  0  0  0  0  0  0  0
   59.5019   31.3892   45.4603 H   0  0  0  0  0  0  0  0  0  0  0  0
   57.3028   34.5902   44.0488 H   0  0  0  0  0  0  0  0  0  0  0  0
   56.3635   33.3448   44.9598 H   0  0  0  0  0  0  0  0  0  0  0  0
   59.5411   35.3056   44.8501 H   0  0  0  0  0  0  0  0  0  0  0  0
   60.9765   35.6521   46.8623 H   0  0  0  0  0  0  0  0  0  0  0  0
   60.4983   34.4060   48.9709 H   0  0  0  0  0  0  0  0  0  0  0  0
   58.5819   32.8115   49.0729 H   0  0  0  0  0  0  0  0  0  0  0  0
   57.1413   32.4548   47.0675 H   0  0  0  0  0  0  0  0  0  0  0  0
   56.2049   30.7871   42.7186 H   0  0  0  0  0  0  0  0  0  0  0  0
   56.1784   28.3601   43.2870 H   0  0  0  0  0  0  0  0  0  0  0  0
   57.3670   22.8789   46.7841 H   0  0  0  0  0  0  0  0  0  0  0  0
   56.1110   22.6013   48.0480 H   0  0  0  0  0  0  0  0  0  0  0  0
   55.8747   22.6040   45.0897 H   0  0  0  0  0  0  0  0  0  0  0  0
   54.8398   21.8252   46.3402 H   0  0  0  0  0  0  0  0  0  0  0  0
   54.7750   24.9240   46.7460 H   0  0  0  0  0  0  0  0  0  0  0  0
  1  2  1  0
  2  3  1  0
  3  4  1  0
  4  5  2  0
  5  6  1  0
  6  7  2  0
  7  8  1  0
  8  9  1  0
  9 10  1  0
 10 11  2  0
 11 12  1  0
 12 13  2  0
 13 14  1  0
 14 15  2  0
  7 16  1  0
 16 17  2  0
  2 18  1  0
 18 19  2  0
 18 20  1  0
 20 21  1  0
 21 22  1  0
 22 23  1  0
 17  4  1  0
 15 10  1  0
  1 24  1  0
  1 25  1  0
  2 26  1  1
  3 27  1  0
  3 28  1  0
  5 29  1  0
  6 30  1  0
  9 31  1  0
  9 32  1  0
 11 33  1  0
 12 34  1  0
 13 35  1  0
 14 36  1  0
 15 37  1  0
 16 38  1  0
 17 39  1  0
 21 40  1  0
 21 41  1  0
 22 42  1  0
 22 43  1  0
 23 44  1  0
M  CHG  1  20  -1
M  END
>  <UniqueID>  (57) 
51

>  <SMILES>  (57) 
N[C@H](Cc1ccc(OCc2ccccc2)cc1)C(=O)[N-]CCS

>  <Energy>  (57) 
34.429438184406514

>  <Genealogy>  (57) 
NC(Cc1ccc(OCc2ccccc2)cc1)C(=O)[N-]CCS (protonated)
N[C@H](Cc1ccc(OCc2ccccc2)cc1)C(=O)[N-]CCS (chirality)
N[C@H](Cc1ccc(OCc2ccccc2)cc1)C(=O)[N-]CCS (3D coordinates assigned)
N[C@H](Cc1ccc(OCc2ccccc2)cc1)C(=O)[N-]CCS (optimized conformer: 34.429438184406514 kcal/mol)

>  <smiles>  (57) 
NC(Cc1ccc(OCc2ccccc2)cc1)C(=O)NCCS

>  <score_type>  (57) 
oracle

>  <origin>  (57) 
adg

>  <m_score__min__energy>  (57) 
-9.0899999999999999

>  <m_primary>  (57) 
energy

$$$$
57:0
     RDKit          3D

 30 31  0  0  0  0  0  0  0  0999 V2000
   60.8020   28.7450   44.7680 C   0  0  0  0  0  0  0  0  0  0  0  0
   59.5920   28.7210   45.6640 C   0  0  0  0  0  0  0  0  0  0  0  0
   59.5870   27.8790   46.7180 C   0  0  0  0  0  0  0  0  0  0  0  0
   59.1560   26.4670   46.6670 C   0  0  0  0  0  0  0  0  0  0  0  0
   57.9170   26.0740   46.3360 C   0  0  0  0  0  0  0  0  0  0  0  0
   56.7470   26.7990   46.5070 C   0  0  0  0  0  0  0  0  0  0  0  0
   55.7450   25.9960   46.0170 C   0  0  0  0  0  0  0  0  0  0  0  0
   54.4010   26.3400   45.9960 O   0  0  0  0  0  0  0  0  0  0  0  0
   56.3340   24.8210   45.5630 C   0  0  0  0  0  0  0  0  0  0  0  0
   55.7510   23.7480   45.0050 C   0  0  0  0  0  0  0  0  0  0  0  0
   55.6940   23.4610   43.5620 C   0  0  0  0  0  0  0  0  0  0  0  0
   55.8790   22.2820   43.1590 O   0  0  0  0  0  0  0  0  0  0  0  0
   57.6680   24.8800   45.7580 N   0  0  0  0  0  0  0  0  0  0  0  0
   58.4390   29.6020   45.3390 C   0  0  0  0  0  0  0  0  0  0  0  0
   57.2650   29.0750   44.7810 C   0  0  0  0  0  0  0  0  0  0  0  0
   56.2080   29.9430   44.5000 C   0  0  0  0  0  0  0  0  0  0  0  0
   55.1390   29.5000   44.0070 O   0  0  0  0  0  0  0  0  0  0  0  0
   56.3330   31.2700   44.7620 N   0  0  0  0  0  0  0  0  0  0  0  0
   57.4770   31.7700   45.2960 C   0  0  0  0  0  0  0  0  0  0  0  0
   57.5750   33.0020   45.5310 O   0  0  0  0  0  0  0  0  0  0  0  0
   58.5160   30.9410   45.5770 N   0  0  0  0  0  0  0  0  0  0  0  0
   61.7136   28.7631   45.3833 H   0  0  0  0  0  0  0  0  0  0  0  0
   60.8060   27.8468   44.1331 H   0  0  0  0  0  0  0  0  0  0  0  0
   60.7703   29.6427   44.1331 H   0  0  0  0  0  0  0  0  0  0  0  0
   59.9290   28.2728   47.6865 H   0  0  0  0  0  0  0  0  0  0  0  0
   59.8954   25.6914   46.9153 H   0  0  0  0  0  0  0  0  0  0  0  0
   56.6431   27.8038   46.9425 H   0  0  0  0  0  0  0  0  0  0  0  0
   55.2763   23.0228   45.6824 H   0  0  0  0  0  0  0  0  0  0  0  0
   55.4918   24.2684   42.8428 H   0  0  0  0  0  0  0  0  0  0  0  0
   57.1787   27.9991   44.5689 H   0  0  0  0  0  0  0  0  0  0  0  0
  1  2  1  0
  2  3  2  3
  3  4  1  0
  4  5  2  3
  5  6  1  0
  6  7  2  0
  7  8  1  0
  7  9  1  0
  9 10  2  3
 10 11  1  0
 11 12  2  0
  9 13  1  0
  2 14  1  0
 14 15  2  0
 15 16  1  0
 16 17  2  0
 16 18  1  0
 18 19  1  0
 19 20  2  0
 19 21  1  0
 13  5  1  0
 21 14  1  0
  1 22  1  0
  1 23  1  0
  1 24  1  0
  3 25  1  0
  4 26  1  0
  6 27  1  0
 10 28  1  0
 11 29  1  0
 15 30  1  0
M  CHG  4   8  -1  13  -1  18  -1  21  -1
M  END
>  <UniqueID>  (58) 
52

>  <SMILES>  (58) 
CC(=CC=c1cc([O-])c(=CC=O)[n-]1)c1cc(=O)[n-]c(=O)[n-]1

>  <Energy>  (58) 
70.42231990305075

>  <Genealogy>  (58) 
CC(=CC=c1cc([O-])c(=CC=O)[n-]1)c1cc(=O)[n-]c(=O)[n-]1 (protonated)
CC(=CC=c1cc([O-])c(=CC=O)[n-]1)c1cc(=O)[n-]c(=O)[n-]1 (3D coordinates assigned)
CC(=CC=c1cc([O-])c(=CC=O)[n-]1)c1cc(=O)[n-]c(=O)[n-]1 (optimized conformer: 70.42231990305075 kcal/mol)

>  <smiles>  (58) 
CC(=CC=c1cc(O)c(=CC=O)[nH]1)c1cc(=O)[nH]c(=O)[nH]1

>  <score_type>  (58) 
oracle

>  <origin>  (58) 
adg

>  <m_score__min__energy>  (58) 
-15.390000000000001

>  <m_primary>  (58) 
energy

$$$$
58:0
     RDKit          3D

 75 79  0  0  1  0  0  0  0  0999 V2000
   60.0170   36.2020   45.6470 C   0  0  0  0  0  0  0  0  0  0  0  0
   59.2370   34.9340   45.6370 C   0  0  0  0  0  0  0  0  0  0  0  0
   58.9850   34.2210   44.4840 C   0  0  0  0  0  0  0  0  0  0  0  0
   58.2510   33.0410   44.5300 C   0  0  0  0  0  0  0  0  0  0  0  0
   58.0070   32.3100   43.2650 C   0  0  0  0  0  0  0  0  0  0  0  0
   57.7470   32.5360   45.7110 C   0  0  0  0  0  0  0  0  0  0  0  0
   57.9980   33.2490   46.8660 C   0  0  0  0  0  0  0  0  0  0  0  0
   57.5350   32.8350   48.1480 N   0  0  0  0  0  0  0  0  0  0  0  0
   58.3690   32.3500   49.1730 C   0  0  0  0  0  0  0  0  0  0  0  0
   59.5930   32.2710   48.9690 O   0  0  0  0  0  0  0  0  0  0  0  0
   57.7680   31.9720   50.4020 N   0  0  0  0  0  0  0  0  0  0  0  0
   58.5000   31.4690   51.5130 C   0  0  0  0  0  0  0  0  0  0  0  0
   59.5560   32.1660   52.0890 C   0  0  0  0  0  0  0  0  0  0  0  0
   60.2100   31.6050   53.1630 C   0  0  0  0  0  0  0  0  0  0  0  0
   59.8720   30.3810   53.7020 C   0  0  0  0  0  0  0  0  0  0  0  0
   60.5650   29.7840   54.8420 C   0  0  0  0  0  0  0  0  0  0  0  0
   62.0260   29.5060   54.5900 C   0  0  0  0  0  0  0  0  0  0  0  0
   62.1150   28.6770   53.4050 N   0  0  0  0  0  0  0  0  0  0  0  0
   62.0230   29.1140   52.1990 C   0  0  0  0  0  0  0  0  0  0  0  0
   61.1510   28.5720   51.3660 N   0  0  0  0  0  0  0  0  0  0  0  0
   61.0560   29.0390   50.0900 C   0  0  0  0  0  0  0  0  0  0  0  0
   60.1350   28.4380   49.2780 O   0  0  0  0  0  0  0  0  0  0  0  0
   59.3550   29.1580   48.3760 C   0  0  0  0  0  0  0  0  0  0  0  0
   60.2360   29.7910   47.3310 C   0  0  0  0  0  0  0  0  0  0  0  0
   60.1030   28.9750   46.1100 N   0  0  0  0  0  0  0  0  0  0  0  0
   58.8470   28.9050   45.4650 C   0  0  0  0  0  0  0  0  0  0  0  0
   57.6320   29.4590   45.8020 C   0  0  0  0  0  0  0  0  0  0  0  0
   56.6840   29.1050   44.8490 C   0  0  0  0  0  0  0  0  0  0  0  0
   55.4710   29.4220   44.8210 O   0  0  0  0  0  0  0  0  0  0  0  0
   57.3630   28.3440   43.9650 N   0  0  0  0  0  0  0  0  0  0  0  0
   58.6320   28.2290   44.3280 N   0  0  0  0  0  0  0  0  0  0  0  0
   61.8760   30.0410   49.7660 N   0  0  0  0  0  0  0  0  0  0  0  0
   62.7640   30.5930   50.6110 C   0  0  0  0  0  0  0  0  0  0  0  0
   63.5070   31.5600   50.1840 N   0  0  0  0  0  0  0  0  0  0  0  0
   62.9280   32.5610   49.3120 C   0  0  0  0  0  0  0  0  0  0  0  0
   63.9080   33.1550   48.3250 C   0  0  0  0  0  0  0  0  0  0  0  0
   62.7090   32.2970   47.8710 C   0  0  0  0  0  0  0  0  0  0  0  0
   62.8600   30.1340   51.8720 N   0  0  0  0  0  0  0  0  0  0  0  0
   58.8100   29.7180   53.0930 C   0  0  0  0  0  0  0  0  0  0  0  0
   58.1260   30.2390   52.0190 C   0  0  0  0  0  0  0  0  0  0  0  0
   58.7350   34.4370   46.8410 C   0  0  0  0  0  0  0  0  0  0  0  0
   60.2055   36.5084   46.6865 H   0  0  0  0  0  0  0  0  0  0  0  0
   60.9759   36.0467   45.1309 H   0  0  0  0  0  0  0  0  0  0  0  0
   59.4459   36.9878   45.1309 H   0  0  0  0  0  0  0  0  0  0  0  0
   59.3676   34.5886   43.5204 H   0  0  0  0  0  0  0  0  0  0  0  0
   57.6662   31.2889   43.4914 H   0  0  0  0  0  0  0  0  0  0  0  0
   57.2349   32.8335   42.6821 H   0  0  0  0  0  0  0  0  0  0  0  0
   58.9387   32.2647   42.6821 H   0  0  0  0  0  0  0  0  0  0  0  0
   57.1675   31.6012   45.7313 H   0  0  0  0  0  0  0  0  0  0  0  0
   56.4900   32.9070   48.3100 H   0  0  0  0  0  0  0  0  0  0  0  0
   56.7220   32.0550   50.5370 H   0  0  0  0  0  0  0  0  0  0  0  0
   59.8629   33.1460   51.6947 H   0  0  0  0  0  0  0  0  0  0  0  0
   61.0447   32.1613   53.6143 H   0  0  0  0  0  0  0  0  0  0  0  0
   60.4855   30.4732   55.6956 H   0  0  0  0  0  0  0  0  0  0  0  0
   60.0838   28.8143   55.0369 H   0  0  0  0  0  0  0  0  0  0  0  0
   62.5654   30.4509   54.4283 H   0  0  0  0  0  0  0  0  0  0  0  0
   62.4773   28.9958   55.4538 H   0  0  0  0  0  0  0  0  0  0  0  0
   60.5340   27.7910   51.6680 H   0  0  0  0  0  0  0  0  0  0  0  0
   58.6401   28.4790   47.8883 H   0  0  0  0  0  0  0  0  0  0  0  0
   58.8090   29.9455   48.9161 H   0  0  0  0  0  0  0  0  0  0  0  0
   59.9089   30.8227   47.1344 H   0  0  0  0  0  0  0  0  0  0  0  0
   61.2825   29.8295   47.6678 H   0  0  0  0  0  0  0  0  0  0  0  0
   60.9290   28.4580   45.7310 H   0  0  0  0  0  0  0  0  0  0  0  0
   57.4415   30.0839   46.6870 H   0  0  0  0  0  0  0  0  0  0  0  0
   56.9310   27.9110   43.1110 H   0  0  0  0  0  0  0  0  0  0  0  0
   59.3190   27.6800   43.7750 H   0  0  0  0  0  0  0  0  0  0  0  0
   62.2423   32.9242   50.0917 H   0  0  0  0  0  0  0  0  0  0  0  0
   63.9186   34.2387   48.1365 H   0  0  0  0  0  0  0  0  0  0  0  0
   64.9982   33.1271   48.1810 H   0  0  0  0  0  0  0  0  0  0  0  0
   61.8630   32.7669   47.3480 H   0  0  0  0  0  0  0  0  0  0  0  0
   62.5877   31.3936   47.2553 H   0  0  0  0  0  0  0  0  0  0  0  0
   63.5350   30.5390   52.5480 H   0  0  0  0  0  0  0  0  0  0  0  0
   58.5052   28.7372   53.4868 H   0  0  0  0  0  0  0  0  0  0  0  0
   57.2909   29.6826   51.5683 H   0  0  0  0  0  0  0  0  0  0  0  0
   58.9206   34.9841   47.7771 H   0  0  0  0  0  0  0  0  0  0  0  0
  1  2  1  0
  2  3  2  0
  3  4  1  0
  4  5  1  0
  4  6  2  0
  6  7  1  0
  7  8  1  0
  8  9  1  0
  9 10  2  0
  9 11  1  0
 11 12  1  0
 12 13  2  0
 13 14  1  0
 14 15  2  0
 15 16  1  0
 16 17  1  0
 17 18  1  0
 18 19  2  0
 19 20  1  0
 20 21  1  0
 21 22  1  0
 22 23  1  0
 23 24  1  0
 24 25  1  0
 25 26  1  0
 26 27  2  0
 27 28  1  0
 28 29  2  0
 28 30  1  0
 30 31  1  0
 21 32  2  0
 32 33  1  0
 33 34  2  0
 34 35  1  0
 35 36  1  0
 36 37  1  0
 33 38  1  0
 15 39  1  0
 39 40  2  0
  7 41  2  0
 41  2  1  0
 40 12  1  0
 38 19  1  0
 31 26  1  0
 37 35  1  0
  1 42  1  0
  1 43  1  0
  1 44  1  0
  3 45  1  0
  5 46  1  0
  5 47  1  0
  5 48  1  0
  6 49  1  0
  8 50  1  0
 11 51  1  0
 13 52  1  0
 14 53  1  0
 16 54  1  0
 16 55  1  0
 17 56  1  0
 17 57  1  0
 20 58  1  0
 23 59  1  0
 23 60  1  0
 24 61  1  0
 24 62  1  0
 25 63  1  0
 27 64  1  0
 30 65  1  0
 31 66  1  0
 35 67  1  0
 36 68  1  0
 36 69  1  0
 37 70  1  0
 37 71  1  0
 38 72  1  0
 39 73  1  0
 40 74  1  0
 41 75  1  0
M  END
>  <smiles>  (59) 
Cc1cc(C)cc(NC(=O)Nc2ccc(CCN=c3[nH]c(OCCNc4cc(=O)[nH][nH]4)nc(=NC4CC4)[nH]3)cc2)c1

>  <score_type>  (59) 
oracle

>  <origin>  (59) 
adg

>  <m_score__min__energy>  (59) 
-10.08

>  <m_primary>  (59) 
energy

$$$$
59:0
     RDKit          3D

 60 63  0  0  0  0  0  0  0  0999 V2000
   55.9040   22.2050   42.3960 N   0  0  0  0  0  0  0  0  0  0  0  0
   56.1070   22.2630   43.8050 C   0  0  0  0  0  0  0  0  0  0  0  0
   55.9630   21.2130   44.4900 O   0  0  0  0  0  0  0  0  0  0  0  0
   56.4520   23.5430   44.4650 C   0  0  0  0  0  0  0  0  0  0  0  0
   57.3460   24.4440   43.8570 C   0  0  0  0  0  0  0  0  0  0  0  0
   57.6680   25.6520   44.4800 C   0  0  0  0  0  0  0  0  0  0  0  0
   57.0760   25.9980   45.7090 C   0  0  0  0  0  0  0  0  0  0  0  0
   57.4200   27.2080   46.4050 N   0  0  0  0  0  0  0  0  0  0  0  0
   57.4750   28.4140   45.9110 C   0  0  0  0  0  0  0  0  0  0  0  0
   56.4460   28.8910   45.1680 N   0  0  0  0  0  0  0  0  0  0  0  0
   56.4810   30.1270   44.6300 C   0  0  0  0  0  0  0  0  0  0  0  0
   55.5080   30.5160   43.9300 O   0  0  0  0  0  0  0  0  0  0  0  0
   57.5620   30.9360   44.8400 N   0  0  0  0  0  0  0  0  0  0  0  0
   57.6420   32.2520   44.1760 C   0  0  0  0  0  0  0  0  0  0  0  0
   57.2910   33.3860   45.1470 C   0  0  0  0  0  0  0  0  0  0  0  0
   58.4850   34.2520   45.4560 C   0  0  0  0  0  0  0  0  0  0  0  0
   59.2600   34.5820   44.5220 O   0  0  0  0  0  0  0  0  0  0  0  0
   58.7960   34.6740   46.7870 N   0  0  0  0  0  0  0  0  0  0  0  0
   59.2700   33.7950   47.8470 C   0  0  0  0  0  0  0  0  0  0  0  0
   60.7690   33.8130   47.8820 C   0  0  0  0  0  0  0  0  0  0  0  0
   61.4400   34.1980   49.0540 C   0  0  0  0  0  0  0  0  0  0  0  0
   62.8370   34.2070   49.0970 C   0  0  0  0  0  0  0  0  0  0  0  0
   63.5750   33.8260   47.9740 C   0  0  0  0  0  0  0  0  0  0  0  0
   62.9150   33.4510   46.8000 C   0  0  0  0  0  0  0  0  0  0  0  0
   61.5170   33.4450   46.7510 C   0  0  0  0  0  0  0  0  0  0  0  0
   58.5970   30.4780   45.6160 C   0  0  0  0  0  0  0  0  0  0  0  0
   59.5980   31.2190   45.8250 O   0  0  0  0  0  0  0  0  0  0  0  0
   58.5610   29.2150   46.1570 N   0  0  0  0  0  0  0  0  0  0  0  0
   59.7290   28.6950   46.8980 C   0  0  0  0  0  0  0  0  0  0  0  0
   59.9490   29.4980   48.1540 C   0  0  0  0  0  0  0  0  0  0  0  0
   61.1980   30.0880   48.4110 C   0  0  0  0  0  0  0  0  0  0  0  0
   61.3800   30.8930   49.5380 C   0  0  0  0  0  0  0  0  0  0  0  0
   60.3170   31.1150   50.4190 C   0  0  0  0  0  0  0  0  0  0  0  0
   60.5440   32.1390   51.8260 Cl  0  0  0  0  0  0  0  0  0  0  0  0
   59.0730   30.5230   50.1790 C   0  0  0  0  0  0  0  0  0  0  0  0
   58.8880   29.7210   49.0480 C   0  0  0  0  0  0  0  0  0  0  0  0
   56.2160   25.0870   46.3310 C   0  0  0  0  0  0  0  0  0  0  0  0
   55.9010   23.8730   45.7140 C   0  0  0  0  0  0  0  0  0  0  0  0
   56.5830   22.6420   41.7350 H   0  0  0  0  0  0  0  0  0  0  0  0
   57.7945   24.1951   42.8839 H   0  0  0  0  0  0  0  0  0  0  0  0
   58.3880   26.3364   44.0076 H   0  0  0  0  0  0  0  0  0  0  0  0
   58.6654   32.4036   43.8023 H   0  0  0  0  0  0  0  0  0  0  0  0
   56.9196   32.2679   43.3466 H   0  0  0  0  0  0  0  0  0  0  0  0
   56.5062   34.0106   44.6953 H   0  0  0  0  0  0  0  0  0  0  0  0
   56.9456   32.9337   46.0883 H   0  0  0  0  0  0  0  0  0  0  0  0
   58.8769   34.1423   48.8139 H   0  0  0  0  0  0  0  0  0  0  0  0
   58.9211   32.7696   47.6549 H   0  0  0  0  0  0  0  0  0  0  0  0
   60.8632   34.4940   49.9427 H   0  0  0  0  0  0  0  0  0  0  0  0
   63.3561   34.5146   50.0167 H   0  0  0  0  0  0  0  0  0  0  0  0
   64.6743   33.8210   48.0133 H   0  0  0  0  0  0  0  0  0  0  0  0
   63.4964   33.1600   45.9127 H   0  0  0  0  0  0  0  0  0  0  0  0
   61.0019   33.1514   45.8245 H   0  0  0  0  0  0  0  0  0  0  0  0
   59.5503   27.6432   47.1660 H   0  0  0  0  0  0  0  0  0  0  0  0
   60.6221   28.7740   46.2608 H   0  0  0  0  0  0  0  0  0  0  0  0
   62.0370   29.9151   47.7210 H   0  0  0  0  0  0  0  0  0  0  0  0
   62.3602   31.3526   49.7326 H   0  0  0  0  0  0  0  0  0  0  0  0
   58.2407   30.6879   50.8790 H   0  0  0  0  0  0  0  0  0  0  0  0
   57.9065   29.2623   48.8573 H   0  0  0  0  0  0  0  0  0  0  0  0
   55.7841   25.3279   47.3136 H   0  0  0  0  0  0  0  0  0  0  0  0
   55.2159   23.1703   46.2108 H   0  0  0  0  0  0  0  0  0  0  0  0
  1  2  1  0
  2  3  2  0
  2  4  1  0
  4  5  2  0
  5  6  1  0
  6  7  2  0
  7  8  1  0
  8  9  2  3
  9 10  1  0
 10 11  1  0
 11 12  2  0
 11 13  1  0
 13 14  1  0
 14 15  1  0
 15 16  1  0
 16 17  2  0
 16 18  1  0
 18 19  1  0
 19 20  1  0
 20 21  2  0
 21 22  1  0
 22 23  2  0
 23 24  1  0
 24 25  2  0
 13 26  1  0
 26 27  2  0
 26 28  1  0
 28 29  1  0
 29 30  1  0
 30 31  2  0
 31 32  1  0
 32 33  2  0
 33 34  1  0
 33 35  1  0
 35 36  2  0
  7 37  1  0
 37 38  2  0
 38  4  1  0
 28  9  1  0
 36 30  1  0
 25 20  1  0
  1 39  1  0
  5 40  1  0
  6 41  1  0
 14 42  1  0
 14 43  1  0
 15 44  1  0
 15 45  1  0
 19 46  1  0
 19 47  1  0
 21 48  1  0
 22 49  1  0
 23 50  1  0
 24 51  1  0
 25 52  1  0
 29 53  1  0
 29 54  1  0
 31 55  1  0
 32 56  1  0
 35 57  1  0
 36 58  1  0
 37 59  1  0
 38 60  1  0
M  CHG  3   1  -1  10  -1  18  -1
M  END
>  <UniqueID>  (60) 
53

>  <SMILES>  (60) 
[NH-]C(=O)c1ccc(N=c2[n-]c(=O)n(CCC(=O)[N-]Cc3ccccc3)c(=O)n2Cc2ccc(Cl)cc2)cc1

>  <Energy>  (60) 
72.09762770359714

>  <Genealogy>  (60) 
[NH-]C(=O)c1ccc(N=c2[n-]c(=O)n(CCC(=O)[N-]Cc3ccccc3)c(=O)n2Cc2ccc(Cl)cc2)cc1 (protonated)
[NH-]C(=O)c1ccc(N=c2[n-]c(=O)n(CCC(=O)[N-]Cc3ccccc3)c(=O)n2Cc2ccc(Cl)cc2)cc1 (3D coordinates assigned)
[NH-]C(=O)c1ccc(N=c2[n-]c(=O)n(CCC(=O)[N-]Cc3ccccc3)c(=O)n2Cc2ccc(Cl)cc2)cc1 (optimized conformer: 72.09762770359714 kcal/mol)

>  <smiles>  (60) 
NC(=O)c1ccc(N=c2[nH]c(=O)n(CCC(=O)NCc3ccccc3)c(=O)n2Cc2ccc(Cl)cc2)cc1

>  <score_type>  (60) 
oracle

>  <origin>  (60) 
adg

>  <m_score__min__energy>  (60) 
-13.25

>  <m_primary>  (60) 
energy

$$$$
60:0
     RDKit          3D

 39 41  0  0  0  0  0  0  0  0999 V2000
   57.9340   26.6010   47.3730 N   0  0  0  0  0  0  0  0  0  0  0  0
   59.6130   26.9310   47.6270 S   0  0  0  0  0  0  0  0  0  0  0  0
   60.3980   26.2470   46.5430 O   0  0  0  0  0  0  0  0  0  0  0  0
   60.0450   26.3830   48.9580 O   0  0  0  0  0  0  0  0  0  0  0  0
   59.9030   28.6800   47.5770 C   0  0  0  0  0  0  0  0  0  0  0  0
   60.0600   29.3580   48.7980 C   0  0  0  0  0  0  0  0  0  0  0  0
   60.3780   30.7170   48.8240 C   0  0  0  0  0  0  0  0  0  0  0  0
   60.5490   31.4160   47.6320 C   0  0  0  0  0  0  0  0  0  0  0  0
   60.3860   30.7650   46.4090 C   0  0  0  0  0  0  0  0  0  0  0  0
   60.0400   29.4040   46.3600 C   0  0  0  0  0  0  0  0  0  0  0  0
   59.8350   28.8070   45.0240 C   0  0  0  0  0  0  0  0  0  0  0  0
   59.0600   29.3730   44.1530 N   0  0  0  0  0  0  0  0  0  0  0  0
   57.6830   29.5890   44.3460 N   0  0  0  0  0  0  0  0  0  0  0  0
   57.0260   30.7490   44.1760 C   0  0  0  0  0  0  0  0  0  0  0  0
   57.6370   32.0070   43.6400 C   0  0  0  0  0  0  0  0  0  0  0  0
   58.0900   32.8890   44.7720 C   0  0  0  0  0  0  0  0  0  0  0  0
   58.9790   33.9530   44.5380 C   0  0  0  0  0  0  0  0  0  0  0  0
   59.3650   34.7930   45.5860 C   0  0  0  0  0  0  0  0  0  0  0  0
   58.8650   34.5810   46.8740 C   0  0  0  0  0  0  0  0  0  0  0  0
   57.9750   33.5300   47.1140 C   0  0  0  0  0  0  0  0  0  0  0  0
   57.5860   32.6880   46.0680 C   0  0  0  0  0  0  0  0  0  0  0  0
   55.7200   30.6200   44.4930 N   0  0  0  0  0  0  0  0  0  0  0  0
   55.5360   29.3690   44.9000 N   0  0  0  0  0  0  0  0  0  0  0  0
   56.7320   28.7580   44.8120 C   0  0  0  0  0  0  0  0  0  0  0  0
   56.9280   27.5650   45.1640 O   0  0  0  0  0  0  0  0  0  0  0  0
   57.8530   26.1040   46.4570 H   0  0  0  0  0  0  0  0  0  0  0  0
   57.4530   27.5220   47.2610 H   0  0  0  0  0  0  0  0  0  0  0  0
   59.9308   28.8116   49.7439 H   0  0  0  0  0  0  0  0  0  0  0  0
   60.4936   31.2361   49.7869 H   0  0  0  0  0  0  0  0  0  0  0  0
   60.8131   32.4836   47.6547 H   0  0  0  0  0  0  0  0  0  0  0  0
   60.5300   31.3235   45.4723 H   0  0  0  0  0  0  0  0  0  0  0  0
   60.3475   27.8688   44.7650 H   0  0  0  0  0  0  0  0  0  0  0  0
   58.5020   31.7511   43.0104 H   0  0  0  0  0  0  0  0  0  0  0  0
   56.8849   32.5455   43.0447 H   0  0  0  0  0  0  0  0  0  0  0  0
   59.3725   34.1250   43.5253 H   0  0  0  0  0  0  0  0  0  0  0  0
   60.0630   35.6219   45.3971 H   0  0  0  0  0  0  0  0  0  0  0  0
   59.1718   35.2411   47.6987 H   0  0  0  0  0  0  0  0  0  0  0  0
   57.5802   33.3653   48.1274 H   0  0  0  0  0  0  0  0  0  0  0  0
   56.8824   31.8647   46.2604 H   0  0  0  0  0  0  0  0  0  0  0  0
  1  2  1  0
  2  3  2  0
  2  4  2  0
  2  5  1  0
  5  6  2  0
  6  7  1  0
  7  8  2  0
  8  9  1  0
  9 10  2  0
 10 11  1  0
 11 12  2  3
 12 13  1  0
 13 14  1  0
 14 15  1  0
 15 16  1  0
 16 17  2  0
 17 18  1  0
 18 19  2  0
 19 20  1  0
 20 21  2  0
 14 22  2  0
 22 23  1  0
 23 24  1  0
 24 25  2  0
 10  5  1  0
 24 13  1  0
 21 16  1  0
  1 26  1  0
  1 27  1  0
  6 28  1  0
  7 29  1  0
  8 30  1  0
  9 31  1  0
 11 32  1  0
 15 33  1  0
 15 34  1  0
 17 35  1  0
 18 36  1  0
 19 37  1  0
 20 38  1  0
 21 39  1  0
M  CHG  1  23  -1
M  END
>  <UniqueID>  (61) 
54

>  <SMILES>  (61) 
NS(=O)(=O)c1ccccc1C=Nn1c(Cc2ccccc2)n[n-]c1=O

>  <Energy>  (61) 
83.0778713903169

>  <Genealogy>  (61) 
NS(=O)(=O)c1ccccc1C=Nn1c(Cc2ccccc2)n[n-]c1=O (protonated)
NS(=O)(=O)c1ccccc1C=Nn1c(Cc2ccccc2)n[n-]c1=O (3D coordinates assigned)
NS(=O)(=O)c1ccccc1C=Nn1c(Cc2ccccc2)n[n-]c1=O (optimized conformer: 83.0778713903169 kcal/mol)

>  <smiles>  (61) 
NS(=O)(=O)c1ccccc1C=Nn1c(Cc2ccccc2)n[nH]c1=O

>  <score_type>  (61) 
oracle

>  <origin>  (61) 
adg

>  <m_score__min__energy>  (61) 
-9.3200000000000003

>  <m_primary>  (61) 
energy

$$$$
61:0
     RDKit          3D

 27 28  0  0  0  0  0  0  0  0999 V2000
   54.3350   28.9700   44.5070 H   0  0  0  0  0  0  0  0  0  0  0  0
   55.1530   29.5550   44.3790 O   0  0  0  0  0  0  0  0  0  0  0  0
   56.4280   29.1390   44.7580 C   0  0  0  0  0  0  0  0  0  0  0  0
   57.5300   29.9200   44.3990 C   0  0  0  0  0  0  0  0  0  0  0  0
   57.3793   30.8545   43.8387 H   0  0  0  0  0  0  0  0  0  0  0  0
   58.8210   29.5200   44.7480 C   0  0  0  0  0  0  0  0  0  0  0  0
   59.6850   30.1323   44.4505 H   0  0  0  0  0  0  0  0  0  0  0  0
   59.0170   28.3440   45.4740 C   0  0  0  0  0  0  0  0  0  0  0  0
   60.0376   28.0294   45.7374 H   0  0  0  0  0  0  0  0  0  0  0  0
   57.9220   27.5590   45.8710 C   0  0  0  0  0  0  0  0  0  0  0  0
   58.1900   26.3230   46.6400 C   0  0  0  0  0  0  0  0  0  0  0  0
   59.2058   26.1510   47.0254 H   0  0  0  0  0  0  0  0  0  0  0  0
   57.2440   25.4040   46.8860 C   0  0  0  0  0  0  0  0  0  0  0  0
   56.6856   25.4777   47.8309 H   0  0  0  0  0  0  0  0  0  0  0  0
   56.9050   24.2940   45.9610 C   0  0  0  0  0  0  0  0  0  0  0  0
   56.5070   23.0200   46.4140 C   0  0  0  0  0  0  0  0  0  0  0  0
   56.4460   22.8178   47.4935 H   0  0  0  0  0  0  0  0  0  0  0  0
   56.1890   22.0110   45.4980 C   0  0  0  0  0  0  0  0  0  0  0  0
   55.8060   20.7890   45.9470 F   0  0  0  0  0  0  0  0  0  0  0  0
   56.2540   22.2630   44.1230 C   0  0  0  0  0  0  0  0  0  0  0  0
   55.9380   21.2590   43.2160 O   0  0  0  0  0  0  0  0  0  0  0  0
   56.6330   23.5280   43.6650 C   0  0  0  0  0  0  0  0  0  0  0  0
   56.6930   23.7790   42.3330 F   0  0  0  0  0  0  0  0  0  0  0  0
   56.9510   24.5380   44.5770 C   0  0  0  0  0  0  0  0  0  0  0  0
   57.2400   25.5334   44.2086 H   0  0  0  0  0  0  0  0  0  0  0  0
   56.6190   27.9490   45.4850 C   0  0  0  0  0  0  0  0  0  0  0  0
   55.5220   27.1480   45.7870 O   0  0  0  0  0  0  0  0  0  0  0  0
  1  2  1  0
  2  3  1  0
  3  4  2  0
  4  5  1  0
  4  6  1  0
  6  7  1  0
  6  8  2  0
  8  9  1  0
  8 10  1  0
 10 11  1  0
 11 12  1  0
 11 13  2  0
 13 14  1  0
 13 15  1  0
 15 16  2  0
 16 17  1  0
 16 18  1  0
 18 19  1  0
 18 20  2  0
 20 21  1  0
 20 22  1  0
 22 23  1  0
 22 24  2  0
 24 25  1  0
 10 26  2  0
 26 27  1  0
 26  3  1  0
 24 15  1  0
M  CHG  2  21  -1  27  -1
M  END
>  <UniqueID>  (62) 
55

>  <SMILES>  (62) 
[O-]c1c(F)cc(/C=C/c2cccc(O)c2[O-])cc1F

>  <Energy>  (62) 
35.959986877258956

>  <Genealogy>  (62) 
[O-]c1c(F)cc(C=Cc2cccc(O)c2[O-])cc1F (protonated)
[O-]c1c(F)cc(/C=C/c2cccc(O)c2[O-])cc1F (cis-trans isomerization)
[O-]c1c(F)cc(/C=C/c2cccc(O)c2[O-])cc1F (3D coordinates assigned)
[O-]c1c(F)cc(/C=C/c2cccc(O)c2[O-])cc1F (optimized conformer: 35.959986877258956 kcal/mol)

>  <smiles>  (62) 
Oc1cccc(C=Cc2cc(F)c(O)c(F)c2)c1O

>  <score_type>  (62) 
oracle

>  <origin>  (62) 
adg

>  <m_score__min__energy>  (62) 
-12.19

>  <m_primary>  (62) 
energy

$$$$
62:0
     RDKit          3D

 55 57  0  0  0  0  0  0  0  0999 V2000
   54.5520   29.3480   44.7790 H   0  0  0  0  0  0  0  0  0  0  0  0
   55.5260   29.2030   45.1290 N   0  0  0  0  0  0  0  0  0  0  0  0
   56.6010   29.6890   43.8660 S   0  0  0  0  0  0  0  0  0  0  0  0
   55.8010   29.9280   42.6160 O   0  0  0  0  0  0  0  0  0  0  0  0
   57.6030   28.6010   43.6040 O   0  0  0  0  0  0  0  0  0  0  0  0
   57.4480   31.1600   44.3400 C   0  0  0  0  0  0  0  0  0  0  0  0
   57.7940   32.1270   43.3860 C   0  0  0  0  0  0  0  0  0  0  0  0
   57.5231   31.9778   42.3304 H   0  0  0  0  0  0  0  0  0  0  0  0
   58.4810   33.2780   43.7720 C   0  0  0  0  0  0  0  0  0  0  0  0
   58.7508   34.0335   43.0193 H   0  0  0  0  0  0  0  0  0  0  0  0
   58.8280   33.4750   45.1120 C   0  0  0  0  0  0  0  0  0  0  0  0
   59.3737   34.3831   45.4079 H   0  0  0  0  0  0  0  0  0  0  0  0
   58.4830   32.5180   46.0840 C   0  0  0  0  0  0  0  0  0  0  0  0
   58.8460   32.7260   47.5050 C   0  0  0  0  0  0  0  0  0  0  0  0
   57.9410   32.9040   48.3660 O   0  0  0  0  0  0  0  0  0  0  0  0
   60.2240   32.6560   47.9080 N   0  0  0  0  0  0  0  0  0  0  0  0
   60.9590   31.5900   48.0540 C   0  0  0  0  0  0  0  0  0  0  0  0
   61.5300   31.1800   49.3570 C   0  0  0  0  0  0  0  0  0  0  0  0
   62.6350   31.6610   49.7290 O   0  0  0  0  0  0  0  0  0  0  0  0
   60.8040   30.2820   50.2100 N   0  0  0  0  0  0  0  0  0  0  0  0
   59.6460   30.4820   50.7770 C   0  0  0  0  0  0  0  0  0  0  0  0
   59.0720   29.5550   51.6760 C   0  0  0  0  0  0  0  0  0  0  0  0
   59.5901   28.6116   51.9030 H   0  0  0  0  0  0  0  0  0  0  0  0
   57.8430   29.8430   52.2750 C   0  0  0  0  0  0  0  0  0  0  0  0
   57.3910   29.1271   52.9773 H   0  0  0  0  0  0  0  0  0  0  0  0
   57.1910   31.0390   51.9810 C   0  0  0  0  0  0  0  0  0  0  0  0
   56.2176   31.2689   52.4388 H   0  0  0  0  0  0  0  0  0  0  0  0
   57.7870   31.9420   51.0990 C   0  0  0  0  0  0  0  0  0  0  0  0
   57.2824   32.8903   50.8620 H   0  0  0  0  0  0  0  0  0  0  0  0
   58.9900   31.6540   50.5310 N   0  0  0  0  0  0  0  0  0  0  0  0
   59.4140   32.3560   49.8800 H   0  0  0  0  0  0  0  0  0  0  0  0
   61.4060   30.8590   46.8200 C   0  0  0  0  0  0  0  0  0  0  0  0
   62.4612   30.5680   46.9292 H   0  0  0  0  0  0  0  0  0  0  0  0
   61.2934   31.5167   45.9455 H   0  0  0  0  0  0  0  0  0  0  0  0
   60.5630   29.6250   46.6290 C   0  0  0  0  0  0  0  0  0  0  0  0
   59.5860   29.2830   47.5730 C   0  0  0  0  0  0  0  0  0  0  0  0
   59.4813   29.8789   48.4916 H   0  0  0  0  0  0  0  0  0  0  0  0
   58.7440   28.1900   47.3550 C   0  0  0  0  0  0  0  0  0  0  0  0
   57.9880   27.9292   48.1103 H   0  0  0  0  0  0  0  0  0  0  0  0
   58.8490   27.4140   46.1780 C   0  0  0  0  0  0  0  0  0  0  0  0
   57.9620   26.2870   45.9410 N   0  0  0  0  0  0  0  0  0  0  0  0
   57.2750   25.6270   47.0630 C   0  0  0  0  0  0  0  0  0  0  0  0
   57.6740   26.0103   48.0137 H   0  0  0  0  0  0  0  0  0  0  0  0
   56.1966   25.8364   47.0069 H   0  0  0  0  0  0  0  0  0  0  0  0
   57.4410   24.5411   47.0069 H   0  0  0  0  0  0  0  0  0  0  0  0
   57.7380   25.7810   44.5790 C   0  0  0  0  0  0  0  0  0  0  0  0
   57.2932   24.7762   44.6297 H   0  0  0  0  0  0  0  0  0  0  0  0
   57.0553   26.4577   44.0441 H   0  0  0  0  0  0  0  0  0  0  0  0
   58.6979   25.7305   44.0441 H   0  0  0  0  0  0  0  0  0  0  0  0
   59.8370   27.7740   45.2330 C   0  0  0  0  0  0  0  0  0  0  0  0
   59.9438   27.1872   44.3087 H   0  0  0  0  0  0  0  0  0  0  0  0
   60.6790   28.8650   45.4580 C   0  0  0  0  0  0  0  0  0  0  0  0
   61.4400   29.1299   44.7092 H   0  0  0  0  0  0  0  0  0  0  0  0
   57.7940   31.3570   45.6850 C   0  0  0  0  0  0  0  0  0  0  0  0
   57.5247   30.5980   46.4342 H   0  0  0  0  0  0  0  0  0  0  0  0
  1  2  1  0
  2  3  1  0
  3  4  2  0
  3  5  2  0
  3  6  1  0
  6  7  2  0
  7  8  1  0
  7  9  1  0
  9 10  1  0
  9 11  2  0
 11 12  1  0
 11 13  1  0
 13 14  1  0
 14 15  2  0
 14 16  1  0
 16 17  2  3
 17 18  1  0
 18 19  2  0
 18 20  1  0
 20 21  2  0
 21 22  1  0
 22 23  1  0
 22 24  2  0
 24 25  1  0
 24 26  1  0
 26 27  1  0
 26 28  2  0
 28 29  1  0
 28 30  1  0
 30 31  1  0
 17 32  1  0
 32 33  1  0
 32 34  1  0
 32 35  1  0
 35 36  2  0
 36 37  1  0
 36 38  1  0
 38 39  1  0
 38 40  2  0
 40 41  1  0
 41 42  1  0
 42 43  1  0
 42 44  1  0
 42 45  1  0
 41 46  1  0
 46 47  1  0
 46 48  1  0
 46 49  1  0
 40 50  1  0
 50 51  1  0
 50 52  2  0
 52 53  1  0
 13 54  2  0
 54 55  1  0
 54  6  1  0
 30 21  1  0
 52 35  1  0
M  CHG  1   2  -1
M  END
>  <UniqueID>  (63) 
56

>  <SMILES>  (63) 
CN(C)c1ccc(CC(=NC(=O)c2cccc(S([NH-])(=O)=O)c2)C(=O)/N=c2\cccc[nH]2)cc1

>  <Energy>  (63) 
72.4751514856391

>  <Genealogy>  (63) 
CN(C)c1ccc(CC(=NC(=O)c2cccc(S([NH-])(=O)=O)c2)C(=O)N=c2cccc[nH]2)cc1 (protonated)
CN(C)c1ccc(CC(=NC(=O)c2cccc(S([NH-])(=O)=O)c2)C(=O)/N=c2\cccc[nH]2)cc1 (cis-trans isomerization)
CN(C)c1ccc(CC(=NC(=O)c2cccc(S([NH-])(=O)=O)c2)C(=O)/N=c2\cccc[nH]2)cc1 (3D coordinates assigned)
CN(C)c1ccc(CC(=NC(=O)c2cccc(S([NH-])(=O)=O)c2)C(=O)/N=c2\cccc[nH]2)cc1 (optimized conformer: 72.4751514856391 kcal/mol)

>  <smiles>  (63) 
CN(C)c1ccc(CC(=NC(=O)c2cccc(S(N)(=O)=O)c2)C(=O)N=c2cccc[nH]2)cc1

>  <score_type>  (63) 
oracle

>  <origin>  (63) 
adg

>  <m_score__min__energy>  (63) 
-12.16

>  <m_primary>  (63) 
energy

$$$$
63:0
     RDKit          3D

 39 41  0  0  0  0  0  0  0  0999 V2000
   52.5780   24.8450   45.2500 O   0  0  0  0  0  0  0  0  0  0  0  0
   53.7790   24.8380   45.6220 C   0  0  0  0  0  0  0  0  0  0  0  0
   54.3530   23.6020   46.0730 N   0  0  0  0  0  0  0  0  0  0  0  0
   54.8350   22.5090   45.2300 C   0  0  0  0  0  0  0  0  0  0  0  0
   56.3260   22.3340   45.3530 C   0  0  0  0  0  0  0  0  0  0  0  0
   57.1960   23.2610   44.7570 C   0  0  0  0  0  0  0  0  0  0  0  0
   58.5800   23.0940   44.8520 C   0  0  0  0  0  0  0  0  0  0  0  0
   59.1100   21.9900   45.5270 C   0  0  0  0  0  0  0  0  0  0  0  0
   60.4900   21.8380   45.6150 O   0  0  0  0  0  0  0  0  0  0  0  0
   58.2490   21.0430   46.1070 C   0  0  0  0  0  0  0  0  0  0  0  0
   58.7500   19.9290   46.7790 O   0  0  0  0  0  0  0  0  0  0  0  0
   56.8640   21.2130   46.0100 C   0  0  0  0  0  0  0  0  0  0  0  0
   54.5030   26.0730   45.6390 N   0  0  0  0  0  0  0  0  0  0  0  0
   55.8030   26.2930   46.1980 C   0  0  0  0  0  0  0  0  0  0  0  0
   56.5280   25.2220   47.2640 S   0  0  0  0  0  0  0  0  0  0  0  0
   57.9630   26.0750   47.4330 C   0  0  0  0  0  0  0  0  0  0  0  0
   57.8830   27.2440   46.6780 C   0  0  0  0  0  0  0  0  0  0  0  0
   58.9710   28.2460   46.6940 C   0  0  0  0  0  0  0  0  0  0  0  0
   59.1960   29.0430   47.8310 C   0  0  0  0  0  0  0  0  0  0  0  0
   60.2400   29.9730   47.8460 C   0  0  0  0  0  0  0  0  0  0  0  0
   61.0750   30.1080   46.7320 C   0  0  0  0  0  0  0  0  0  0  0  0
   62.0870   31.0080   46.7480 F   0  0  0  0  0  0  0  0  0  0  0  0
   60.8680   29.3080   45.6040 C   0  0  0  0  0  0  0  0  0  0  0  0
   59.8240   28.3770   45.5860 C   0  0  0  0  0  0  0  0  0  0  0  0
   56.6570   27.3820   45.9800 C   0  0  0  0  0  0  0  0  0  0  0  0
   56.3230   28.5430   45.1310 C   0  0  0  0  0  0  0  0  0  0  0  0
   55.1870   29.0820   45.2060 O   0  0  0  0  0  0  0  0  0  0  0  0
   57.2650   29.0630   44.2510 O   0  0  0  0  0  0  0  0  0  0  0  0
   54.3391   21.5760   45.5360 H   0  0  0  0  0  0  0  0  0  0  0  0
   54.6009   22.7514   44.1829 H   0  0  0  0  0  0  0  0  0  0  0  0
   56.7856   24.1239   44.2120 H   0  0  0  0  0  0  0  0  0  0  0  0
   59.2544   23.8329   44.3946 H   0  0  0  0  0  0  0  0  0  0  0  0
   59.5970   19.4580   46.4830 H   0  0  0  0  0  0  0  0  0  0  0  0
   56.1902   20.4638   46.4512 H   0  0  0  0  0  0  0  0  0  0  0  0
   58.8255   25.7628   48.0401 H   0  0  0  0  0  0  0  0  0  0  0  0
   58.5474   28.9341   48.7127 H   0  0  0  0  0  0  0  0  0  0  0  0
   60.4049   30.5993   48.7351 H   0  0  0  0  0  0  0  0  0  0  0  0
   61.5271   29.4109   44.7294 H   0  0  0  0  0  0  0  0  0  0  0  0
   59.6704   27.7443   44.6994 H   0  0  0  0  0  0  0  0  0  0  0  0
  1  2  2  0
  2  3  1  0
  3  4  1  0
  4  5  1  0
  5  6  2  0
  6  7  1  0
  7  8  2  0
  8  9  1  0
  8 10  1  0
 10 11  1  0
 10 12  2  0
  2 13  1  0
 13 14  1  0
 14 15  1  0
 15 16  1  0
 16 17  2  0
 17 18  1  0
 18 19  2  0
 19 20  1  0
 20 21  2  0
 21 22  1  0
 21 23  1  0
 23 24  2  0
 17 25  1  0
 25 26  1  0
 26 27  2  0
 26 28  1  0
 12  5  1  0
 25 14  2  0
 24 18  1  0
  4 29  1  0
  4 30  1  0
  6 31  1  0
  7 32  1  0
 11 33  1  0
 12 34  1  0
 16 35  1  0
 19 36  1  0
 20 37  1  0
 23 38  1  0
 24 39  1  0
M  CHG  4   3  -1   9  -1  13  -1  28  -1
M  END
>  <UniqueID>  (64) 
57

>  <SMILES>  (64) 
O=C([N-]Cc1ccc([O-])c(O)c1)[N-]c1scc(-c2ccc(F)cc2)c1C(=O)[O-]

>  <Energy>  (64) 
83.24734995966627

>  <Genealogy>  (64) 
O=C([N-]Cc1ccc([O-])c(O)c1)[N-]c1scc(-c2ccc(F)cc2)c1C(=O)[O-] (protonated)
O=C([N-]Cc1ccc([O-])c(O)c1)[N-]c1scc(-c2ccc(F)cc2)c1C(=O)[O-] (3D coordinates assigned)
O=C([N-]Cc1ccc([O-])c(O)c1)[N-]c1scc(-c2ccc(F)cc2)c1C(=O)[O-] (optimized conformer: 83.24734995966627 kcal/mol)

>  <smiles>  (64) 
O=C(NCc1ccc(O)c(O)c1)Nc1scc(-c2ccc(F)cc2)c1C(=O)O

>  <score_type>  (64) 
oracle

>  <origin>  (64) 
adg

>  <m_score__min__energy>  (64) 
-15.5

>  <m_primary>  (64) 
energy

$$$$
64:0
     RDKit          3D

 63 67  0  0  0  0  0  0  0  0999 V2000
   57.2860   31.2290   43.5900 C   0  0  0  0  0  0  0  0  0  0  0  0
   56.8760   31.7300   44.8620 O   0  0  0  0  0  0  0  0  0  0  0  0
   57.6470   32.6340   45.5950 C   0  0  0  0  0  0  0  0  0  0  0  0
   58.2770   33.6910   44.9410 C   0  0  0  0  0  0  0  0  0  0  0  0
   59.0500   34.5880   45.6820 C   0  0  0  0  0  0  0  0  0  0  0  0
   59.2010   34.4110   47.0600 C   0  0  0  0  0  0  0  0  0  0  0  0
   58.5740   33.3160   47.6910 C   0  0  0  0  0  0  0  0  0  0  0  0
   58.6920   33.0670   48.9670 N   0  0  0  0  0  0  0  0  0  0  0  0
   59.8240   33.2860   49.8260 C   0  0  0  0  0  0  0  0  0  0  0  0
   61.1040   33.0580   49.4000 N   0  0  0  0  0  0  0  0  0  0  0  0
   62.1670   33.1080   50.2600 C   0  0  0  0  0  0  0  0  0  0  0  0
   63.8260   32.8330   49.6330 S   0  0  0  0  0  0  0  0  0  0  0  0
   64.0370   31.3170   50.5690 C   0  0  0  0  0  0  0  0  0  0  0  0
   62.9100   30.5710   50.9420 C   0  0  0  0  0  0  0  0  0  0  0  0
   63.0620   29.3440   51.5910 C   0  0  0  0  0  0  0  0  0  0  0  0
   61.9270   28.4990   51.8180 N   0  0  0  0  0  0  0  0  0  0  0  0
   61.4510   27.5480   50.8530 C   0  0  0  0  0  0  0  0  0  0  0  0
   61.8970   26.3700   50.8950 O   0  0  0  0  0  0  0  0  0  0  0  0
   60.5140   27.9370   49.7640 C   0  0  0  0  0  0  0  0  0  0  0  0
   60.3510   27.1150   48.6290 C   0  0  0  0  0  0  0  0  0  0  0  0
   59.5630   27.5410   47.5500 C   0  0  0  0  0  0  0  0  0  0  0  0
   58.9010   28.7790   47.6020 C   0  0  0  0  0  0  0  0  0  0  0  0
   58.1430   29.2830   46.4980 N   0  0  0  0  0  0  0  0  0  0  0  0
   57.0450   28.3530   45.5190 S   0  0  0  0  0  0  0  0  0  0  0  0
   57.8210   27.8690   43.9960 C   0  0  0  0  0  0  0  0  0  0  0  0
   55.8170   29.1610   45.2180 O   0  0  0  0  0  0  0  0  0  0  0  0
   56.6490   27.1290   46.2980 O   0  0  0  0  0  0  0  0  0  0  0  0
   59.0210   29.5730   48.7510 C   0  0  0  0  0  0  0  0  0  0  0  0
   59.8320   29.1670   49.8120 C   0  0  0  0  0  0  0  0  0  0  0  0
   64.3400   28.9160   51.9650 C   0  0  0  0  0  0  0  0  0  0  0  0
   65.4690   29.6660   51.6140 C   0  0  0  0  0  0  0  0  0  0  0  0
   65.3260   30.8650   50.8910 C   0  0  0  0  0  0  0  0  0  0  0  0
   66.4300   31.6350   50.4860 O   0  0  0  0  0  0  0  0  0  0  0  0
   66.8950   32.8000   51.1640 C   0  0  0  0  0  0  0  0  0  0  0  0
   61.9540   33.3740   51.5830 N   0  0  0  0  0  0  0  0  0  0  0  0
   60.7050   33.5820   51.9950 N   0  0  0  0  0  0  0  0  0  0  0  0
   60.2790   33.8240   53.2450 C   0  0  0  0  0  0  0  0  0  0  0  0
   58.8950   33.9520   53.2220 C   0  0  0  0  0  0  0  0  0  0  0  0
   58.4870   33.7740   51.9010 C   0  0  0  0  0  0  0  0  0  0  0  0
   59.6430   33.5420   51.1820 C   0  0  0  0  0  0  0  0  0  0  0  0
   57.8020   32.4840   46.9410 N   0  0  0  0  0  0  0  0  0  0  0  0
   57.9767   30.3850   43.7336 H   0  0  0  0  0  0  0  0  0  0  0  0
   56.4036   30.8891   43.0280 H   0  0  0  0  0  0  0  0  0  0  0  0
   57.7937   32.0267   43.0280 H   0  0  0  0  0  0  0  0  0  0  0  0
   58.1669   33.8175   43.8539 H   0  0  0  0  0  0  0  0  0  0  0  0
   59.5406   35.4350   45.1801 H   0  0  0  0  0  0  0  0  0  0  0  0
   59.8035   35.1193   47.6476 H   0  0  0  0  0  0  0  0  0  0  0  0
   61.9023   30.9537   50.7226 H   0  0  0  0  0  0  0  0  0  0  0  0
   60.8454   26.1332   48.5901 H   0  0  0  0  0  0  0  0  0  0  0  0
   59.4629   26.9032   46.6594 H   0  0  0  0  0  0  0  0  0  0  0  0
   58.7356   27.2986   44.2156 H   0  0  0  0  0  0  0  0  0  0  0  0
   57.1287   27.2423   43.4147 H   0  0  0  0  0  0  0  0  0  0  0  0
   58.0793   28.7664   43.4147 H   0  0  0  0  0  0  0  0  0  0  0  0
   58.4716   30.5237   48.8170 H   0  0  0  0  0  0  0  0  0  0  0  0
   59.9391   29.8149   50.6944 H   0  0  0  0  0  0  0  0  0  0  0  0
   64.4588   27.9847   52.5382 H   0  0  0  0  0  0  0  0  0  0  0  0
   66.4710   29.3170   51.9042 H   0  0  0  0  0  0  0  0  0  0  0  0
   66.8318   32.6416   52.2507 H   0  0  0  0  0  0  0  0  0  0  0  0
   67.9401   32.9956   50.8822 H   0  0  0  0  0  0  0  0  0  0  0  0
   66.2718   33.6615   50.8822 H   0  0  0  0  0  0  0  0  0  0  0  0
   60.9175   33.9070   54.1369 H   0  0  0  0  0  0  0  0  0  0  0  0
   58.2437   34.1556   54.0847 H   0  0  0  0  0  0  0  0  0  0  0  0
   57.4586   33.8107   51.5123 H   0  0  0  0  0  0  0  0  0  0  0  0
  1  2  1  0
  2  3  1  0
  3  4  2  0
  4  5  1  0
  5  6  2  0
  6  7  1  0
  7  8  2  3
  8  9  1  0
  9 10  2  0
 10 11  1  0
 11 12  1  0
 12 13  1  0
 13 14  2  0
 14 15  1  0
 15 16  1  0
 16 17  1  0
 17 18  2  0
 17 19  1  0
 19 20  2  0
 20 21  1  0
 21 22  2  0
 22 23  1  0
 23 24  1  0
 24 25  1  0
 24 26  2  0
 24 27  2  0
 22 28  1  0
 28 29  2  0
 15 30  2  0
 30 31  1  0
 31 32  2  0
 32 33  1  0
 33 34  1  0
 11 35  2  0
 35 36  1  0
 36 37  1  0
 37 38  2  0
 38 39  1  0
 39 40  2  0
  7 41  1  0
 41  3  1  0
 40  9  1  0
 32 13  1  0
 40 36  1  0
 29 19  1  0
  1 42  1  0
  1 43  1  0
  1 44  1  0
  4 45  1  0
  5 46  1  0
  6 47  1  0
 14 48  1  0
 20 49  1  0
 21 50  1  0
 25 51  1  0
 25 52  1  0
 25 53  1  0
 28 54  1  0
 29 55  1  0
 30 56  1  0
 31 57  1  0
 34 58  1  0
 34 59  1  0
 34 60  1  0
 37 61  1  0
 38 62  1  0
 39 63  1  0
M  CHG  3  16  -1  23  -1  41  -1
M  END
>  <UniqueID>  (65) 
58

>  <SMILES>  (65) 
COc1cccc(=Nc2nc(Sc3cc([N-]C(=O)c4ccc([N-]S(C)(=O)=O)cc4)ccc3OC)nn3cccc23)[n-]1

>  <Energy>  (65) 
109.74588664197209

>  <Genealogy>  (65) 
COc1cccc(=Nc2nc(Sc3cc([N-]C(=O)c4ccc([N-]S(C)(=O)=O)cc4)ccc3OC)nn3cccc23)[n-]1 (protonated)
COc1cccc(=Nc2nc(Sc3cc([N-]C(=O)c4ccc([N-]S(C)(=O)=O)cc4)ccc3OC)nn3cccc23)[n-]1 (3D coordinates assigned)
COc1cccc(=Nc2nc(Sc3cc([N-]C(=O)c4ccc([N-]S(C)(=O)=O)cc4)ccc3OC)nn3cccc23)[n-]1 (optimized conformer: 109.74588664197209 kcal/mol)

>  <smiles>  (65) 
COc1cccc(=Nc2nc(Sc3cc(NC(=O)c4ccc(NS(C)(=O)=O)cc4)ccc3OC)nn3cccc23)[nH]1

>  <score_type>  (65) 
oracle

>  <origin>  (65) 
adg

>  <m_score__min__energy>  (65) 
-13.800000000000001

>  <m_primary>  (65) 
energy

$$$$
65:0
     RDKit          3D

 71 76  0  0  0  0  0  0  0  0999 V2000
   67.2570   32.7170   50.4340 C   0  0  0  0  0  0  0  0  0  0  0  0
   66.2490   33.7220   50.4150 O   0  0  0  0  0  0  0  0  0  0  0  0
   64.8870   33.4680   50.2020 C   0  0  0  0  0  0  0  0  0  0  0  0
   63.8770   34.0610   50.9850 C   0  0  0  0  0  0  0  0  0  0  0  0
   62.5300   33.7690   50.7390 C   0  0  0  0  0  0  0  0  0  0  0  0
   62.1690   32.8870   49.7060 C   0  0  0  0  0  0  0  0  0  0  0  0
   60.7820   32.5570   49.4780 N   0  0  0  0  0  0  0  0  0  0  0  0
   60.0780   33.1160   48.3160 C   0  0  0  0  0  0  0  0  0  0  0  0
   58.8060   32.3090   48.0070 C   0  0  0  0  0  0  0  0  0  0  0  0
   58.9840   30.8690   48.2890 N   0  0  0  0  0  0  0  0  0  0  0  0
   60.0090   30.2810   47.4380 C   0  0  0  0  0  0  0  0  0  0  0  0
   60.4700   30.9040   46.4910 O   0  0  0  0  0  0  0  0  0  0  0  0
   60.5080   28.8780   47.6840 C   0  0  0  0  0  0  0  0  0  0  0  0
   59.7750   27.8830   46.8810 N   0  0  0  0  0  0  0  0  0  0  0  0
   58.5000   28.1740   46.4550 C   0  0  0  0  0  0  0  0  0  0  0  0
   57.6820   27.1990   45.8500 C   0  0  0  0  0  0  0  0  0  0  0  0
   56.2720   27.5470   45.6160 C   0  0  0  0  0  0  0  0  0  0  0  0
   55.3740   26.7200   45.9320 O   0  0  0  0  0  0  0  0  0  0  0  0
   55.8970   28.8560   45.1750 N   0  0  0  0  0  0  0  0  0  0  0  0
   56.0890   29.3350   43.8090 C   0  0  0  0  0  0  0  0  0  0  0  0
   56.9100   30.5930   43.7730 C   0  0  0  0  0  0  0  0  0  0  0  0
   57.4010   31.1480   44.9630 C   0  0  0  0  0  0  0  0  0  0  0  0
   58.1190   32.3470   44.9360 C   0  0  0  0  0  0  0  0  0  0  0  0
   58.3810   32.9780   43.7200 C   0  0  0  0  0  0  0  0  0  0  0  0
   57.9140   32.4200   42.5290 C   0  0  0  0  0  0  0  0  0  0  0  0
   57.1630   31.2450   42.5570 C   0  0  0  0  0  0  0  0  0  0  0  0
   58.2210   25.9090   45.6420 C   0  0  0  0  0  0  0  0  0  0  0  0
   59.5380   25.6640   46.0330 C   0  0  0  0  0  0  0  0  0  0  0  0
   59.9910   24.0760   45.6950 S   0  0  0  0  0  0  0  0  0  0  0  0
   58.5050   23.6650   45.0300 C   0  0  0  0  0  0  0  0  0  0  0  0
   58.1440   22.4270   44.5010 C   0  0  0  0  0  0  0  0  0  0  0  0
   56.8510   22.2710   43.9860 C   0  0  0  0  0  0  0  0  0  0  0  0
   55.9460   23.3480   44.0160 C   0  0  0  0  0  0  0  0  0  0  0  0
   56.3240   24.5890   44.5550 C   0  0  0  0  0  0  0  0  0  0  0  0
   57.6250   24.7520   45.0690 C   0  0  0  0  0  0  0  0  0  0  0  0
   60.3070   26.6340   46.6690 C   0  0  0  0  0  0  0  0  0  0  0  0
   61.4690   26.3450   47.0660 O   0  0  0  0  0  0  0  0  0  0  0  0
   59.2300   30.6200   49.7360 C   0  0  0  0  0  0  0  0  0  0  0  0
   60.0300   31.7430   50.4420 C   0  0  0  0  0  0  0  0  0  0  0  0
   63.1790   32.2970   48.9280 C   0  0  0  0  0  0  0  0  0  0  0  0
   64.5240   32.5890   49.1740 C   0  0  0  0  0  0  0  0  0  0  0  0
   67.5068   32.4679   51.4759 H   0  0  0  0  0  0  0  0  0  0  0  0
   66.8874   31.8172   49.9204 H   0  0  0  0  0  0  0  0  0  0  0  0
   68.1557   33.0893   49.9204 H   0  0  0  0  0  0  0  0  0  0  0  0
   64.1479   34.7564   51.7931 H   0  0  0  0  0  0  0  0  0  0  0  0
   61.7486   34.2332   51.3586 H   0  0  0  0  0  0  0  0  0  0  0  0
   59.8003   34.1586   48.5300 H   0  0  0  0  0  0  0  0  0  0  0  0
   60.7459   33.0687   47.4433 H   0  0  0  0  0  0  0  0  0  0  0  0
   57.9820   32.6933   48.6261 H   0  0  0  0  0  0  0  0  0  0  0  0
   58.5832   32.4213   46.9357 H   0  0  0  0  0  0  0  0  0  0  0  0
   58.0790   30.3990   48.0470 H   0  0  0  0  0  0  0  0  0  0  0  0
   61.5752   28.8295   47.4219 H   0  0  0  0  0  0  0  0  0  0  0  0
   60.3483   28.6418   48.7464 H   0  0  0  0  0  0  0  0  0  0  0  0
   58.1091   29.1933   46.5899 H   0  0  0  0  0  0  0  0  0  0  0  0
   56.6037   28.5563   43.2269 H   0  0  0  0  0  0  0  0  0  0  0  0
   55.1005   29.5575   43.3808 H   0  0  0  0  0  0  0  0  0  0  0  0
   57.2207   30.6384   45.9210 H   0  0  0  0  0  0  0  0  0  0  0  0
   58.4779   32.7935   45.8750 H   0  0  0  0  0  0  0  0  0  0  0  0
   58.9558   33.9156   43.6997 H   0  0  0  0  0  0  0  0  0  0  0  0
   58.1382   32.9068   41.5684 H   0  0  0  0  0  0  0  0  0  0  0  0
   56.7667   30.8271   41.6198 H   0  0  0  0  0  0  0  0  0  0  0  0
   58.8588   21.5910   44.4883 H   0  0  0  0  0  0  0  0  0  0  0  0
   56.5427   21.3058   43.5577 H   0  0  0  0  0  0  0  0  0  0  0  0
   54.9310   23.2167   43.6128 H   0  0  0  0  0  0  0  0  0  0  0  0
   55.6103   25.4258   44.5754 H   0  0  0  0  0  0  0  0  0  0  0  0
   58.2574   30.5192   50.2398 H   0  0  0  0  0  0  0  0  0  0  0  0
   59.8385   29.7061   49.8025 H   0  0  0  0  0  0  0  0  0  0  0  0
   59.3292   32.3920   50.9877 H   0  0  0  0  0  0  0  0  0  0  0  0
   60.7477   31.2740   51.1312 H   0  0  0  0  0  0  0  0  0  0  0  0
   62.9099   31.6008   48.1200 H   0  0  0  0  0  0  0  0  0  0  0  0
   65.3046   32.1238   48.5541 H   0  0  0  0  0  0  0  0  0  0  0  0
  1  2  1  0
  2  3  1  0
  3  4  2  0
  4  5  1  0
  5  6  2  0
  6  7  1  0
  7  8  1  0
  8  9  1  0
  9 10  1  0
 10 11  1  0
 11 12  2  0
 11 13  1  0
 13 14  1  0
 14 15  1  0
 15 16  2  0
 16 17  1  0
 17 18  2  0
 17 19  1  0
 19 20  1  0
 20 21  1  0
 21 22  2  0
 22 23  1  0
 23 24  2  0
 24 25  1  0
 25 26  2  0
 16 27  1  0
 27 28  2  0
 28 29  1  0
 29 30  1  0
 30 31  2  0
 31 32  1  0
 32 33  2  0
 33 34  1  0
 34 35  2  0
 28 36  1  0
 36 37  2  0
 10 38  1  0
 38 39  1  0
  6 40  1  0
 40 41  2  0
 41  3  1  0
 39  7  1  0
 36 14  1  0
 26 21  1  0
 35 27  1  0
 35 30  1  0
  1 42  1  0
  1 43  1  0
  1 44  1  0
  4 45  1  0
  5 46  1  0
  8 47  1  0
  8 48  1  0
  9 49  1  0
  9 50  1  0
 10 51  1  0
 13 52  1  0
 13 53  1  0
 15 54  1  0
 20 55  1  0
 20 56  1  0
 22 57  1  0
 23 58  1  0
 24 59  1  0
 25 60  1  0
 26 61  1  0
 31 62  1  0
 32 63  1  0
 33 64  1  0
 34 65  1  0
 38 66  1  0
 38 67  1  0
 39 68  1  0
 39 69  1  0
 40 70  1  0
 41 71  1  0
M  CHG  2  10   1  19  -1
M  END
>  <UniqueID>  (66) 
59

>  <SMILES>  (66) 
COc1ccc(N2CC[NH+](C(=O)Cn3cc(C(=O)[N-]Cc4ccccc4)c4c(sc5ccccc54)c3=O)CC2)cc1

>  <Energy>  (66) 
141.03508471620998

>  <Genealogy>  (66) 
COc1ccc(N2CC[NH+](C(=O)Cn3cc(C(=O)[N-]Cc4ccccc4)c4c(sc5ccccc54)c3=O)CC2)cc1 (protonated)
COc1ccc(N2CC[NH+](C(=O)Cn3cc(C(=O)[N-]Cc4ccccc4)c4c(sc5ccccc54)c3=O)CC2)cc1 (3D coordinates assigned)
COc1ccc(N2CC[NH+](C(=O)Cn3cc(C(=O)[N-]Cc4ccccc4)c4c(sc5ccccc54)c3=O)CC2)cc1 (nonaromatic ring conformer: 141.03508471620998 kcal/mol)

>  <smiles>  (66) 
COc1ccc(N2CCN(C(=O)Cn3cc(C(=O)NCc4ccccc4)c4c(sc5ccccc54)c3=O)CC2)cc1

>  <score_type>  (66) 
oracle

>  <origin>  (66) 
adg

>  <m_score__min__energy>  (66) 
-10.6

>  <m_primary>  (66) 
energy

$$$$
66:0
     RDKit          3D

 50 53  0  0  0  0  0  0  0  0999 V2000
   56.8356   21.1033   42.2971 H   0  0  0  0  0  0  0  0  0  0  0  0
   56.6680   21.8090   43.1240 C   0  0  0  0  0  0  0  0  0  0  0  0
   55.5360   22.4280   43.3730 O   0  0  0  0  0  0  0  0  0  0  0  0
   55.7000   23.1860   44.4330 C   0  0  0  0  0  0  0  0  0  0  0  0
   54.6290   24.0580   45.0110 C   0  0  0  0  0  0  0  0  0  0  0  0
   53.7760   23.4324   45.3126 H   0  0  0  0  0  0  0  0  0  0  0  0
   54.3134   24.7868   44.2499 H   0  0  0  0  0  0  0  0  0  0  0  0
   55.1330   24.7800   46.1780 N   0  0  0  0  0  0  0  0  0  0  0  0
   55.9560   25.7840   46.1310 C   0  0  0  0  0  0  0  0  0  0  0  0
   55.5180   26.9830   45.6710 N   0  0  0  0  0  0  0  0  0  0  0  0
   56.3600   28.0470   45.6090 C   0  0  0  0  0  0  0  0  0  0  0  0
   55.9130   29.1790   45.1510 N   0  0  0  0  0  0  0  0  0  0  0  0
   56.3190   29.8390   43.9420 C   0  0  0  0  0  0  0  0  0  0  0  0
   55.5110   30.0130   42.9910 O   0  0  0  0  0  0  0  0  0  0  0  0
   57.7000   30.4040   43.8410 C   0  0  0  0  0  0  0  0  0  0  0  0
   58.4238   29.6653   44.2159 H   0  0  0  0  0  0  0  0  0  0  0  0
   57.9170   30.6393   42.7886 H   0  0  0  0  0  0  0  0  0  0  0  0
   57.8040   31.6610   44.6580 C   0  0  0  0  0  0  0  0  0  0  0  0
   57.7760   31.6010   46.0610 C   0  0  0  0  0  0  0  0  0  0  0  0
   57.7099   30.6268   46.5674 H   0  0  0  0  0  0  0  0  0  0  0  0
   57.8320   32.7780   46.8160 C   0  0  0  0  0  0  0  0  0  0  0  0
   57.8169   32.7261   47.9147 H   0  0  0  0  0  0  0  0  0  0  0  0
   57.9070   34.0190   46.1780 C   0  0  0  0  0  0  0  0  0  0  0  0
   57.9526   34.9424   46.7740 H   0  0  0  0  0  0  0  0  0  0  0  0
   57.9240   34.0860   44.7830 C   0  0  0  0  0  0  0  0  0  0  0  0
   57.9799   35.0629   44.2806 H   0  0  0  0  0  0  0  0  0  0  0  0
   57.8700   32.9120   44.0240 C   0  0  0  0  0  0  0  0  0  0  0  0
   57.8793   32.9693   42.9255 H   0  0  0  0  0  0  0  0  0  0  0  0
   57.6480   27.9060   46.0270 N   0  0  0  0  0  0  0  0  0  0  0  0
   58.0940   26.7080   46.4920 C   0  0  0  0  0  0  0  0  0  0  0  0
   59.3220   26.5580   46.8930 N   0  0  0  0  0  0  0  0  0  0  0  0
   59.8650   27.0740   48.1490 C   0  0  0  0  0  0  0  0  0  0  0  0
   59.1330   26.9150   48.9546 H   0  0  0  0  0  0  0  0  0  0  0  0
   60.7995   26.5429   48.3828 H   0  0  0  0  0  0  0  0  0  0  0  0
   60.1530   28.5460   48.0210 C   0  0  0  0  0  0  0  0  0  0  0  0
   60.4830   29.0900   46.7680 C   0  0  0  0  0  0  0  0  0  0  0  0
   60.5101   28.4420   45.8795 H   0  0  0  0  0  0  0  0  0  0  0  0
   60.7770   30.4510   46.6460 C   0  0  0  0  0  0  0  0  0  0  0  0
   61.0340   30.8713   45.6625 H   0  0  0  0  0  0  0  0  0  0  0  0
   60.7450   31.2790   47.7720 C   0  0  0  0  0  0  0  0  0  0  0  0
   60.9788   32.3494   47.6742 H   0  0  0  0  0  0  0  0  0  0  0  0
   60.4160   30.7470   49.0220 C   0  0  0  0  0  0  0  0  0  0  0  0
   60.3923   31.3987   49.9078 H   0  0  0  0  0  0  0  0  0  0  0  0
   60.1170   29.3870   49.1470 C   0  0  0  0  0  0  0  0  0  0  0  0
   59.8523   28.9730   50.1311 H   0  0  0  0  0  0  0  0  0  0  0  0
   57.2460   25.6510   46.5390 N   0  0  0  0  0  0  0  0  0  0  0  0
   56.9920   23.0700   44.9050 C   0  0  0  0  0  0  0  0  0  0  0  0
   57.4317   23.5811   45.7741 H   0  0  0  0  0  0  0  0  0  0  0  0
   57.6150   22.1790   44.0580 C   0  0  0  0  0  0  0  0  0  0  0  0
   58.6574   21.8323   44.1147 H   0  0  0  0  0  0  0  0  0  0  0  0
  1  2  1  0
  2  3  1  0
  3  4  1  0
  4  5  1  0
  5  6  1  0
  5  7  1  0
  5  8  1  0
  8  9  2  0
  9 10  1  0
 10 11  1  0
 11 12  2  3
 12 13  1  0
 13 14  2  0
 13 15  1  0
 15 16  1  0
 15 17  1  0
 15 18  1  0
 18 19  2  0
 19 20  1  0
 19 21  1  0
 21 22  1  0
 21 23  2  0
 23 24  1  0
 23 25  1  0
 25 26  1  0
 25 27  2  0
 27 28  1  0
 11 29  1  0
 29 30  1  0
 30 31  2  3
 31 32  1  0
 32 33  1  0
 32 34  1  0
 32 35  1  0
 35 36  2  0
 36 37  1  0
 36 38  1  0
 38 39  1  0
 38 40  2  0
 40 41  1  0
 40 42  1  0
 42 43  1  0
 42 44  2  0
 44 45  1  0
 30 46  1  0
  4 47  2  0
 47 48  1  0
 47 49  1  0
 49 50  1  0
 49  2  2  0
 46  9  1  0
 27 18  1  0
 44 35  1  0
M  CHG  3  10  -1  29  -1  46  -1
M  END
>  <UniqueID>  (67) 
60

>  <SMILES>  (67) 
O=C(Cc1ccccc1)N=c1[n-]c(=NCc2ccccc2)[n-]/c(=N\Cc2ccco2)[n-]1

>  <Energy>  (67) 
78.69769744009437

>  <Genealogy>  (67) 
O=C(Cc1ccccc1)N=c1[n-]c(=NCc2ccccc2)[n-]c(=NCc2ccco2)[n-]1 (protonated)
O=C(Cc1ccccc1)N=c1[n-]c(=NCc2ccccc2)[n-]/c(=N\Cc2ccco2)[n-]1 (cis-trans isomerization)
O=C(Cc1ccccc1)N=c1[n-]c(=NCc2ccccc2)[n-]/c(=N\Cc2ccco2)[n-]1 (3D coordinates assigned)
O=C(Cc1ccccc1)N=c1[n-]c(=NCc2ccccc2)[n-]/c(=N\Cc2ccco2)[n-]1 (optimized conformer: 78.69769744009437 kcal/mol)

>  <smiles>  (67) 
O=C(Cc1ccccc1)N=c1[nH]c(=NCc2ccccc2)[nH]c(=NCc2ccco2)[nH]1

>  <score_type>  (67) 
oracle

>  <origin>  (67) 
adg

>  <m_score__min__energy>  (67) 
-14.039999999999999

>  <m_primary>  (67) 
energy

$$$$
67:0
     RDKit          3D

 56 59  0  0  0  0  0  0  0  0999 V2000
   54.8160   28.9360   42.6120 H   0  0  0  0  0  0  0  0  0  0  0  0
   54.7150   29.3790   43.5530 N   0  0  0  0  0  0  0  0  0  0  0  0
   55.7160   29.5230   44.3630 C   0  0  0  0  0  0  0  0  0  0  0  0
   56.1020   28.4830   45.1470 N   0  0  0  0  0  0  0  0  0  0  0  0
   57.1480   28.5920   46.0070 C   0  0  0  0  0  0  0  0  0  0  0  0
   57.4411   27.7370   46.6339 H   0  0  0  0  0  0  0  0  0  0  0  0
   57.8530   29.8050   46.0900 C   0  0  0  0  0  0  0  0  0  0  0  0
   58.9910   29.9840   47.0210 C   0  0  0  0  0  0  0  0  0  0  0  0
   58.7350   30.2370   48.3800 C   0  0  0  0  0  0  0  0  0  0  0  0
   57.6965   30.2890   48.7389 H   0  0  0  0  0  0  0  0  0  0  0  0
   59.7890   30.4230   49.2790 C   0  0  0  0  0  0  0  0  0  0  0  0
   59.5759   30.5883   50.3454 H   0  0  0  0  0  0  0  0  0  0  0  0
   61.1150   30.4000   48.8290 C   0  0  0  0  0  0  0  0  0  0  0  0
   62.2280   30.5530   49.7840 C   0  0  0  0  0  0  0  0  0  0  0  0
   62.2970   29.6390   50.8490 C   0  0  0  0  0  0  0  0  0  0  0  0
   61.5349   28.8510   50.9398 H   0  0  0  0  0  0  0  0  0  0  0  0
   63.3210   29.7200   51.7920 C   0  0  0  0  0  0  0  0  0  0  0  0
   63.3598   29.0021   52.6245 H   0  0  0  0  0  0  0  0  0  0  0  0
   64.2950   30.7100   51.6800 C   0  0  0  0  0  0  0  0  0  0  0  0
   65.1017   30.7740   52.4250 H   0  0  0  0  0  0  0  0  0  0  0  0
   64.2480   31.6200   50.6240 C   0  0  0  0  0  0  0  0  0  0  0  0
   65.0247   32.3946   50.5413 H   0  0  0  0  0  0  0  0  0  0  0  0
   63.2230   31.5620   49.6640 C   0  0  0  0  0  0  0  0  0  0  0  0
   63.2910   32.7260   48.3150 S   0  0  0  0  0  0  0  0  0  0  0  0
   63.7810   31.9840   47.1020 O   0  0  0  0  0  0  0  0  0  0  0  0
   64.3060   33.7960   48.5980 O   0  0  0  0  0  0  0  0  0  0  0  0
   61.7190   33.4190   47.9230 N   0  0  1  0  0  0  0  0  0  0  0  0
   61.0480   32.6220   48.0220 H   0  0  0  0  0  0  0  0  0  0  0  0
   61.3100   34.4470   48.9090 C   0  0  0  0  0  0  0  0  0  0  0  0
   62.2034   35.0044   49.2269 H   0  0  0  0  0  0  0  0  0  0  0  0
   60.5739   35.1017   48.4196 H   0  0  0  0  0  0  0  0  0  0  0  0
   60.6490   33.8530   50.1340 C   0  0  0  0  0  0  0  0  0  0  0  0
   61.3850   33.6450   51.3140 C   0  0  0  0  0  0  0  0  0  0  0  0
   62.4496   33.9194   51.3507 H   0  0  0  0  0  0  0  0  0  0  0  0
   60.7700   33.0910   52.4410 C   0  0  0  0  0  0  0  0  0  0  0  0
   61.3492   32.9393   53.3638 H   0  0  0  0  0  0  0  0  0  0  0  0
   59.4220   32.7300   52.3970 C   0  0  0  0  0  0  0  0  0  0  0  0
   58.9387   32.2997   53.2866 H   0  0  0  0  0  0  0  0  0  0  0  0
   58.6870   32.9150   51.2240 C   0  0  0  0  0  0  0  0  0  0  0  0
   57.6264   32.6252   51.1891 H   0  0  0  0  0  0  0  0  0  0  0  0
   59.2970   33.4680   50.0940 C   0  0  0  0  0  0  0  0  0  0  0  0
   58.7167   33.6026   49.1693 H   0  0  0  0  0  0  0  0  0  0  0  0
   61.6300   33.8510   46.5050 C   0  0  0  0  0  0  0  0  0  0  0  0
   62.2102   34.7789   46.3939 H   0  0  0  0  0  0  0  0  0  0  0  0
   62.0212   33.0166   45.9044 H   0  0  0  0  0  0  0  0  0  0  0  0
   60.2050   34.1160   45.9950 C   0  0  0  0  0  0  0  0  0  0  0  0
   59.5265   34.2422   46.8516 H   0  0  0  0  0  0  0  0  0  0  0  0
   60.1984   35.0308   45.3841 H   0  0  0  0  0  0  0  0  0  0  0  0
   59.8700   33.2648   45.3841 H   0  0  0  0  0  0  0  0  0  0  0  0
   61.3790   30.1170   47.4810 C   0  0  0  0  0  0  0  0  0  0  0  0
   62.4196   30.0440   47.1319 H   0  0  0  0  0  0  0  0  0  0  0  0
   60.3290   29.9270   46.5780 C   0  0  0  0  0  0  0  0  0  0  0  0
   60.6250   29.7400   45.2670 F   0  0  0  0  0  0  0  0  0  0  0  0
   57.4520   30.8480   45.3130 N   0  0  0  0  0  0  0  0  0  0  0  0
   56.4070   30.7380   44.4530 C   0  0  0  0  0  0  0  0  0  0  0  0
   56.1059   31.5951   43.8328 H   0  0  0  0  0  0  0  0  0  0  0  0
  1  2  1  0
  2  3  2  0
  3  4  1  0
  4  5  1  0
  5  6  1  0
  5  7  2  0
  7  8  1  0
  8  9  2  0
  9 10  1  0
  9 11  1  0
 11 12  1  0
 11 13  2  0
 13 14  1  0
 14 15  2  0
 15 16  1  0
 15 17  1  0
 17 18  1  0
 17 19  2  0
 19 20  1  0
 19 21  1  0
 21 22  1  0
 21 23  2  0
 23 24  1  0
 24 25  2  0
 24 26  2  0
 24 27  1  0
 27 28  1  6
 27 29  1  0
 29 30  1  0
 29 31  1  0
 29 32  1  0
 32 33  2  0
 33 34  1  0
 33 35  1  0
 35 36  1  0
 35 37  2  0
 37 38  1  0
 37 39  1  0
 39 40  1  0
 39 41  2  0
 41 42  1  0
 27 43  1  0
 43 44  1  0
 43 45  1  0
 43 46  1  0
 46 47  1  0
 46 48  1  0
 46 49  1  0
 13 50  1  0
 50 51  1  0
 50 52  2  0
 52 53  1  0
  7 54  1  0
 54 55  2  0
 55 56  1  0
 55  3  1  0
 52  8  1  0
 23 14  1  0
 41 32  1  0
M  CHG  2   4  -1  27   1
M  END
>  <UniqueID>  (68) 
61

>  <SMILES>  (68) 
[H]/N=c1\cnc(-c2ccc(-c3ccccc3S(=O)(=O)[N@H+](CC)Cc3ccccc3)cc2F)c[n-]1

>  <Energy>  (68) 
81.45449663995704

>  <Genealogy>  (68) 
CC[NH+](Cc1ccccc1)S(=O)(=O)c1ccccc1-c1ccc(-c2c[n-]c(=N)cn2)c(F)c1 (protonated)
CC[N@H+](Cc1ccccc1)S(=O)(=O)c1ccccc1-c1ccc(-c2c[n-]c(=N)cn2)c(F)c1 (chirality)
[H]/N=c1\cnc(-c2ccc(-c3ccccc3S(=O)(=O)[N@H+](CC)Cc3ccccc3)cc2F)c[n-]1 (cis-trans isomerization)
[H]/N=c1\cnc(-c2ccc(-c3ccccc3S(=O)(=O)[N@H+](CC)Cc3ccccc3)cc2F)c[n-]1 (3D coordinates assigned)
[H]/N=c1\cnc(-c2ccc(-c3ccccc3S(=O)(=O)[N@H+](CC)Cc3ccccc3)cc2F)c[n-]1 (optimized conformer: 81.45449663995704 kcal/mol)

>  <smiles>  (68) 
CCN(Cc1ccccc1)S(=O)(=O)c1ccccc1-c1ccc(-c2c[nH]c(=N)cn2)c(F)c1

>  <score_type>  (68) 
oracle

>  <origin>  (68) 
adg

>  <m_score__min__energy>  (68) 
-9.6500000000000004

>  <m_primary>  (68) 
energy

$$$$
68:0
     RDKit          3D

 71 75  0  0  0  0  0  0  0  0999 V2000
   59.9860   29.0790   47.3240 O   0  0  0  0  0  0  0  0  0  0  0  0
   58.8820   28.8790   47.9020 C   0  0  0  0  0  0  0  0  0  0  0  0
   57.8380   28.1260   47.2660 N   0  0  0  0  0  0  0  0  0  0  0  0
   57.7680   27.6190   45.8870 C   0  0  1  0  0  0  0  0  0  0  0  0
   59.1370   26.9230   45.6440 C   0  0  0  0  0  0  0  0  0  0  0  0
   59.6250   26.2770   46.7900 O   0  0  0  0  0  0  0  0  0  0  0  0
   56.5870   26.6100   45.7420 C   0  0  0  0  0  0  0  0  0  0  0  0
   56.9700   25.1680   45.9540 C   0  0  0  0  0  0  0  0  0  0  0  0
   57.3250   24.5740   47.1620 C   0  0  0  0  0  0  0  0  0  0  0  0
   57.5300   23.2480   46.9950 N   0  0  0  0  0  0  0  0  0  0  0  0
   57.3150   23.0000   45.6910 C   0  0  0  0  0  0  0  0  0  0  0  0
   57.3730   21.7660   45.0480 C   0  0  0  0  0  0  0  0  0  0  0  0
   57.0790   21.7270   43.6740 C   0  0  0  0  0  0  0  0  0  0  0  0
   56.7290   22.9070   42.9810 C   0  0  0  0  0  0  0  0  0  0  0  0
   56.6670   24.1370   43.6600 C   0  0  0  0  0  0  0  0  0  0  0  0
   56.9740   24.1460   45.0210 C   0  0  0  0  0  0  0  0  0  0  0  0
   57.5770   28.8080   44.9570 C   0  0  0  0  0  0  0  0  0  0  0  0
   57.6360   28.6400   43.7070 O   0  0  0  0  0  0  0  0  0  0  0  0
   57.3700   30.1270   45.4810 N   0  0  0  0  0  0  0  0  0  0  0  0
   57.0820   31.2810   44.6390 C   0  0  0  0  0  0  0  0  0  0  0  0
   57.7790   32.4900   45.1970 C   0  0  0  0  0  0  0  0  0  0  0  0
   57.7790   32.7200   46.5830 C   0  0  0  0  0  0  0  0  0  0  0  0
   58.3520   33.8840   47.1050 C   0  0  0  0  0  0  0  0  0  0  0  0
   58.9200   34.8310   46.2450 C   0  0  0  0  0  0  0  0  0  0  0  0
   59.4670   35.9620   46.7500 F   0  0  0  0  0  0  0  0  0  0  0  0
   58.9140   34.6140   44.8630 C   0  0  0  0  0  0  0  0  0  0  0  0
   58.3450   33.4490   44.3390 C   0  0  0  0  0  0  0  0  0  0  0  0
   58.6650   29.3850   49.2220 N   0  0  0  0  0  0  0  0  0  0  0  0
   59.5510   30.3180   49.8530 C   0  0  0  0  0  0  0  0  0  0  0  0
   60.9250   30.0520   49.9420 C   0  0  0  0  0  0  0  0  0  0  0  0
   61.7880   30.9960   50.5050 C   0  0  0  0  0  0  0  0  0  0  0  0
   61.2930   32.2080   51.0020 C   0  0  0  0  0  0  0  0  0  0  0  0
   62.2070   33.1250   51.5470 O   0  0  0  0  0  0  0  0  0  0  0  0
   62.8970   34.1360   50.8120 C   0  0  0  0  0  0  0  0  0  0  0  0
   62.8250   33.8490   49.3380 C   0  0  0  0  0  0  0  0  0  0  0  0
   61.6860   34.1930   48.5890 C   0  0  0  0  0  0  0  0  0  0  0  0
   61.6340   33.9120   47.2180 C   0  0  0  0  0  0  0  0  0  0  0  0
   62.7120   33.2790   46.5890 C   0  0  0  0  0  0  0  0  0  0  0  0
   63.8450   32.9280   47.3300 C   0  0  0  0  0  0  0  0  0  0  0  0
   63.9010   33.2070   48.7000 C   0  0  0  0  0  0  0  0  0  0  0  0
   59.9090   32.4670   50.9270 C   0  0  0  0  0  0  0  0  0  0  0  0
   59.0500   31.5340   50.3370 C   0  0  0  0  0  0  0  0  0  0  0  0
   59.0162   26.1777   44.8440 H   0  0  0  0  0  0  0  0  0  0  0  0
   59.8622   27.7022   45.3666 H   0  0  0  0  0  0  0  0  0  0  0  0
   59.6420   26.9610   47.5090 H   0  0  0  0  0  0  0  0  0  0  0  0
   55.8167   26.8736   46.4817 H   0  0  0  0  0  0  0  0  0  0  0  0
   56.2310   26.6907   44.7043 H   0  0  0  0  0  0  0  0  0  0  0  0
   57.4247   25.1085   48.1182 H   0  0  0  0  0  0  0  0  0  0  0  0
   57.7810   22.5540   47.7360 H   0  0  0  0  0  0  0  0  0  0  0  0
   57.6403   20.8514   45.5976 H   0  0  0  0  0  0  0  0  0  0  0  0
   57.1218   20.7696   43.1340 H   0  0  0  0  0  0  0  0  0  0  0  0
   56.5039   22.8637   41.9052 H   0  0  0  0  0  0  0  0  0  0  0  0
   56.3856   25.0619   43.1352 H   0  0  0  0  0  0  0  0  0  0  0  0
   57.4411   31.0889   43.6172 H   0  0  0  0  0  0  0  0  0  0  0  0
   55.9967   31.4591   44.6169 H   0  0  0  0  0  0  0  0  0  0  0  0
   57.3263   31.9812   47.2606 H   0  0  0  0  0  0  0  0  0  0  0  0
   58.3563   34.0553   48.1916 H   0  0  0  0  0  0  0  0  0  0  0  0
   59.3574   35.3606   44.1877 H   0  0  0  0  0  0  0  0  0  0  0  0
   58.3403   33.2824   43.2517 H   0  0  0  0  0  0  0  0  0  0  0  0
   57.9030   28.9560   49.7920 H   0  0  0  0  0  0  0  0  0  0  0  0
   61.3245   29.0979   49.5677 H   0  0  0  0  0  0  0  0  0  0  0  0
   62.8663   30.7850   50.5583 H   0  0  0  0  0  0  0  0  0  0  0  0
   62.4333   35.1126   51.0148 H   0  0  0  0  0  0  0  0  0  0  0  0
   63.9519   34.1484   51.1234 H   0  0  0  0  0  0  0  0  0  0  0  0
   60.8335   34.6841   49.0811 H   0  0  0  0  0  0  0  0  0  0  0  0
   60.7439   34.1894   46.6343 H   0  0  0  0  0  0  0  0  0  0  0  0
   62.6682   33.0576   45.5124 H   0  0  0  0  0  0  0  0  0  0  0  0
   64.6931   32.4320   46.8352 H   0  0  0  0  0  0  0  0  0  0  0  0
   64.7910   32.9227   49.2806 H   0  0  0  0  0  0  0  0  0  0  0  0
   59.5037   33.4053   51.3336 H   0  0  0  0  0  0  0  0  0  0  0  0
   57.9759   31.7558   50.2525 H   0  0  0  0  0  0  0  0  0  0  0  0
  1  2  2  0
  2  3  1  0
  4  3  1  1
  4  5  1  0
  5  6  1  0
  4  7  1  0
  7  8  1  0
  8  9  2  0
  9 10  1  0
 10 11  1  0
 11 12  2  0
 12 13  1  0
 13 14  2  0
 14 15  1  0
 15 16  2  0
  4 17  1  0
 17 18  2  0
 17 19  1  0
 19 20  1  0
 20 21  1  0
 21 22  2  0
 22 23  1  0
 23 24  2  0
 24 25  1  0
 24 26  1  0
 26 27  2  0
  2 28  1  0
 28 29  1  0
 29 30  2  0
 30 31  1  0
 31 32  2  0
 32 33  1  0
 33 34  1  0
 34 35  1  0
 35 36  2  0
 36 37  1  0
 37 38  2  0
 38 39  1  0
 39 40  2  0
 32 41  1  0
 41 42  2  0
 16  8  1  0
 27 21  1  0
 42 29  1  0
 16 11  1  0
 40 35  1  0
  5 43  1  0
  5 44  1  0
  6 45  1  0
  7 46  1  0
  7 47  1  0
  9 48  1  0
 10 49  1  0
 12 50  1  0
 13 51  1  0
 14 52  1  0
 15 53  1  0
 20 54  1  0
 20 55  1  0
 22 56  1  0
 23 57  1  0
 26 58  1  0
 27 59  1  0
 28 60  1  0
 30 61  1  0
 31 62  1  0
 34 63  1  0
 34 64  1  0
 36 65  1  0
 37 66  1  0
 38 67  1  0
 39 68  1  0
 40 69  1  0
 41 70  1  0
 42 71  1  0
M  CHG  2   3  -1  19  -1
M  END
>  <UniqueID>  (69) 
62

>  <SMILES>  (69) 
O=C([N-][C@@](CO)(Cc1c[nH]c2ccccc12)C(=O)[N-]Cc1ccc(F)cc1)Nc1ccc(OCc2ccccc2)cc1

>  <Energy>  (69) 
116.11555151500939

>  <Genealogy>  (69) 
O=C([N-]C(CO)(Cc1c[nH]c2ccccc12)C(=O)[N-]Cc1ccc(F)cc1)Nc1ccc(OCc2ccccc2)cc1 (protonated)
O=C([N-][C@@](CO)(Cc1c[nH]c2ccccc12)C(=O)[N-]Cc1ccc(F)cc1)Nc1ccc(OCc2ccccc2)cc1 (chirality)
O=C([N-][C@@](CO)(Cc1c[nH]c2ccccc12)C(=O)[N-]Cc1ccc(F)cc1)Nc1ccc(OCc2ccccc2)cc1 (3D coordinates assigned)
O=C([N-][C@@](CO)(Cc1c[nH]c2ccccc12)C(=O)[N-]Cc1ccc(F)cc1)Nc1ccc(OCc2ccccc2)cc1 (optimized conformer: 116.11555151500939 kcal/mol)

>  <smiles>  (69) 
O=C(Nc1ccc(OCc2ccccc2)cc1)NC(CO)(Cc1c[nH]c2ccccc12)C(=O)NCc1ccc(F)cc1

>  <score_type>  (69) 
oracle

>  <origin>  (69) 
adg

>  <m_score__min__energy>  (69) 
-11.890000000000001

>  <m_primary>  (69) 
energy

$$$$
69:0
     RDKit          3D

 24 25  0  0  0  0  0  0  0  0999 V2000
   58.8660   34.7520   46.8970 C   0  0  0  0  0  0  0  0  0  0  0  0
   58.5860   33.5900   46.2990 C   0  0  0  0  0  0  0  0  0  0  0  0
   59.4110   32.5280   46.4990 N   0  0  0  0  0  0  0  0  0  0  0  0
   59.1890   31.3180   45.9210 C   0  0  0  0  0  0  0  0  0  0  0  0
   59.9710   30.3690   46.1910 O   0  0  0  0  0  0  0  0  0  0  0  0
   58.0720   31.1530   45.0630 C   0  0  0  0  0  0  0  0  0  0  0  0
   57.7570   30.0070   44.4250 C   0  0  0  0  0  0  0  0  0  0  0  0
   57.5500   28.6890   45.0590 C   0  0  0  0  0  0  0  0  0  0  0  0
   58.6520   27.8800   45.3850 C   0  0  0  0  0  0  0  0  0  0  0  0
   58.4540   26.6100   45.9370 C   0  0  0  0  0  0  0  0  0  0  0  0
   57.1580   26.1320   46.1450 C   0  0  0  0  0  0  0  0  0  0  0  0
   56.0560   26.9190   45.7970 C   0  0  0  0  0  0  0  0  0  0  0  0
   54.7700   26.4300   45.9970 O   0  0  0  0  0  0  0  0  0  0  0  0
   56.2470   28.1920   45.2460 C   0  0  0  0  0  0  0  0  0  0  0  0
   55.1440   28.9630   44.8930 O   0  0  0  0  0  0  0  0  0  0  0  0
   57.2410   32.2190   44.8870 N   0  0  0  0  0  0  0  0  0  0  0  0
   57.4620   33.4240   45.4720 C   0  0  0  0  0  0  0  0  0  0  0  0
   56.6550   34.3690   45.2610 O   0  0  0  0  0  0  0  0  0  0  0  0
   58.2087   35.6209   46.7456 H   0  0  0  0  0  0  0  0  0  0  0  0
   59.7538   34.8395   47.5406 H   0  0  0  0  0  0  0  0  0  0  0  0
   57.6439   30.0587   43.3321 H   0  0  0  0  0  0  0  0  0  0  0  0
   59.6735   28.2466   45.2055 H   0  0  0  0  0  0  0  0  0  0  0  0
   59.3195   25.9873   46.2075 H   0  0  0  0  0  0  0  0  0  0  0  0
   57.0042   25.1349   46.5833 H   0  0  0  0  0  0  0  0  0  0  0  0
  1  2  2  0
  2  3  1  0
  3  4  1  0
  4  5  2  0
  4  6  1  0
  6  7  2  3
  7  8  1  0
  8  9  2  0
  9 10  1  0
 10 11  2  0
 11 12  1  0
 12 13  1  0
 12 14  2  0
 14 15  1  0
  6 16  1  0
 16 17  1  0
 17 18  2  0
 17  2  1  0
 14  8  1  0
  1 19  1  0
  1 20  1  0
  7 21  1  0
  9 22  1  0
 10 23  1  0
 11 24  1  0
M  CHG  4   3  -1  13  -1  15  -1  16  -1
M  END
>  <UniqueID>  (70) 
63

>  <SMILES>  (70) 
C=c1[n-]c(=O)c(=Cc2cccc([O-])c2[O-])[n-]c1=O

>  <Energy>  (70) 
40.936896454212686

>  <Genealogy>  (70) 
C=c1[n-]c(=O)c(=Cc2cccc([O-])c2[O-])[n-]c1=O (protonated)
C=c1[n-]c(=O)c(=Cc2cccc([O-])c2[O-])[n-]c1=O (3D coordinates assigned)
C=c1[n-]c(=O)c(=Cc2cccc([O-])c2[O-])[n-]c1=O (optimized conformer: 40.936896454212686 kcal/mol)

>  <smiles>  (70) 
C=c1[nH]c(=O)c(=Cc2cccc(O)c2O)[nH]c1=O

>  <score_type>  (70) 
oracle

>  <origin>  (70) 
adg

>  <m_score__min__energy>  (70) 
-16.98

>  <m_primary>  (70) 
energy

$$$$
70:0
     RDKit          3D

 56 59  0  0  0  0  0  0  0  0999 V2000
   56.7360   31.1650   43.2130 O   0  0  0  0  0  0  0  0  0  0  0  0
   56.6570   31.1110   44.4670 C   0  0  0  0  0  0  0  0  0  0  0  0
   56.5610   29.8350   45.1130 N   0  0  0  0  0  0  0  0  0  0  0  0
   57.6840   29.0030   45.4350 C   0  0  0  0  0  0  0  0  0  0  0  0
   59.0020   29.4360   45.2060 C   0  0  0  0  0  0  0  0  0  0  0  0
   60.0800   28.6210   45.5570 C   0  0  0  0  0  0  0  0  0  0  0  0
   59.8550   27.3700   46.1310 C   0  0  0  0  0  0  0  0  0  0  0  0
   58.5420   26.9150   46.3440 C   0  0  0  0  0  0  0  0  0  0  0  0
   58.2680   25.6260   46.9170 N   0  0  0  0  0  0  0  0  0  0  0  0
   57.0510   24.8740   46.8080 C   0  0  0  0  0  0  0  0  0  0  0  0
   56.2730   24.8430   47.7970 O   0  0  0  0  0  0  0  0  0  0  0  0
   56.6500   24.1820   45.5600 C   0  0  0  0  0  0  0  0  0  0  0  0
   57.5570   23.3050   44.9400 C   0  0  0  0  0  0  0  0  0  0  0  0
   57.2110   22.6530   43.7520 C   0  0  0  0  0  0  0  0  0  0  0  0
   55.9590   22.8650   43.1760 C   0  0  0  0  0  0  0  0  0  0  0  0
   55.0410   23.7180   43.7910 C   0  0  0  0  0  0  0  0  0  0  0  0
   55.3730   24.3690   44.9880 C   0  0  0  0  0  0  0  0  0  0  0  0
   54.4330   25.1850   45.6140 O   0  0  0  0  0  0  0  0  0  0  0  0
   57.4640   27.7550   46.0310 C   0  0  0  0  0  0  0  0  0  0  0  0
   56.6770   32.3250   45.2270 N   0  0  0  0  0  0  0  0  0  0  0  0
   57.8840   32.9910   45.6220 C   0  0  0  0  0  0  0  0  0  0  0  0
   58.0990   34.3180   45.2340 C   0  0  0  0  0  0  0  0  0  0  0  0
   59.2750   34.9770   45.6020 C   0  0  0  0  0  0  0  0  0  0  0  0
   60.2580   34.3040   46.3320 C   0  0  0  0  0  0  0  0  0  0  0  0
   60.0690   32.9640   46.7000 C   0  0  0  0  0  0  0  0  0  0  0  0
   61.3440   32.0940   47.5550 S   0  0  0  0  0  0  0  0  0  0  0  0
   62.5120   33.0220   47.7510 O   0  0  0  0  0  0  0  0  0  0  0  0
   61.8020   30.9240   46.7280 O   0  0  0  0  0  0  0  0  0  0  0  0
   60.7610   31.5370   49.1060 N   0  0  0  0  0  0  0  0  0  0  0  0
   59.9850   32.5910   49.7960 C   0  0  0  0  0  0  0  0  0  0  0  0
   58.4680   32.3430   49.7160 C   0  0  0  0  0  0  0  0  0  0  0  0
   58.0710   31.0960   50.2670 O   0  0  0  0  0  0  0  0  0  0  0  0
   59.0380   30.0650   50.1130 C   0  0  0  0  0  0  0  0  0  0  0  0
   59.9990   30.2850   48.9330 C   0  0  0  0  0  0  0  0  0  0  0  0
   58.8760   32.3140   46.3520 C   0  0  0  0  0  0  0  0  0  0  0  0
   59.1844   30.4198   44.7489 H   0  0  0  0  0  0  0  0  0  0  0  0
   61.1093   28.9665   45.3804 H   0  0  0  0  0  0  0  0  0  0  0  0
   60.7078   26.7372   46.4180 H   0  0  0  0  0  0  0  0  0  0  0  0
   58.5446   23.1305   45.3918 H   0  0  0  0  0  0  0  0  0  0  0  0
   57.9281   21.9715   43.2710 H   0  0  0  0  0  0  0  0  0  0  0  0
   55.6943   22.3594   42.2356 H   0  0  0  0  0  0  0  0  0  0  0  0
   54.0532   23.8802   43.3349 H   0  0  0  0  0  0  0  0  0  0  0  0
   54.6800   25.7700   46.4020 H   0  0  0  0  0  0  0  0  0  0  0  0
   56.4370   27.4311   46.2554 H   0  0  0  0  0  0  0  0  0  0  0  0
   57.3396   34.8444   44.6372 H   0  0  0  0  0  0  0  0  0  0  0  0
   59.4272   36.0283   45.3162 H   0  0  0  0  0  0  0  0  0  0  0  0
   61.1825   34.8265   46.6188 H   0  0  0  0  0  0  0  0  0  0  0  0
   60.2845   32.6160   50.8541 H   0  0  0  0  0  0  0  0  0  0  0  0
   60.1974   33.5480   49.2970 H   0  0  0  0  0  0  0  0  0  0  0  0
   57.9539   33.1461   50.2644 H   0  0  0  0  0  0  0  0  0  0  0  0
   58.1970   32.3282   48.6500 H   0  0  0  0  0  0  0  0  0  0  0  0
   59.6317   30.0059   51.0371 H   0  0  0  0  0  0  0  0  0  0  0  0
   58.4855   29.1365   49.9066 H   0  0  0  0  0  0  0  0  0  0  0  0
   60.7011   29.4400   48.8769 H   0  0  0  0  0  0  0  0  0  0  0  0
   59.4104   30.3549   48.0064 H   0  0  0  0  0  0  0  0  0  0  0  0
   58.7157   31.2680   46.6522 H   0  0  0  0  0  0  0  0  0  0  0  0
  1  2  2  0
  2  3  1  0
  3  4  1  0
  4  5  2  0
  5  6  1  0
  6  7  2  0
  7  8  1  0
  8  9  1  0
  9 10  1  0
 10 11  2  0
 10 12  1  0
 12 13  2  0
 13 14  1  0
 14 15  2  0
 15 16  1  0
 16 17  2  0
 17 18  1  0
  8 19  2  0
  2 20  1  0
 20 21  1  0
 21 22  2  0
 22 23  1  0
 23 24  2  0
 24 25  1  0
 25 26  1  0
 26 27  2  0
 26 28  2  0
 26 29  1  0
 29 30  1  0
 30 31  1  0
 31 32  1  0
 32 33  1  0
 33 34  1  0
 25 35  2  0
 19  4  1  0
 35 21  1  0
 17 12  1  0
 34 29  1  0
  5 36  1  0
  6 37  1  0
  7 38  1  0
 13 39  1  0
 14 40  1  0
 15 41  1  0
 16 42  1  0
 18 43  1  0
 19 44  1  0
 22 45  1  0
 23 46  1  0
 24 47  1  0
 30 48  1  0
 30 49  1  0
 31 50  1  0
 31 51  1  0
 33 52  1  0
 33 53  1  0
 34 54  1  0
 34 55  1  0
 35 56  1  0
M  CHG  3   3  -1   9  -1  20  -1
M  END
>  <UniqueID>  (71) 
64

>  <SMILES>  (71) 
O=C([N-]c1cccc([N-]C(=O)c2ccccc2O)c1)[N-]c1cccc(S(=O)(=O)N2CCOCC2)c1

>  <Energy>  (71) 
83.67696996247386

>  <Genealogy>  (71) 
O=C([N-]c1cccc([N-]C(=O)c2ccccc2O)c1)[N-]c1cccc(S(=O)(=O)N2CCOCC2)c1 (protonated)
O=C([N-]c1cccc([N-]C(=O)c2ccccc2O)c1)[N-]c1cccc(S(=O)(=O)N2CCOCC2)c1 (3D coordinates assigned)
O=C([N-]c1cccc([N-]C(=O)c2ccccc2O)c1)[N-]c1cccc(S(=O)(=O)N2CCOCC2)c1 (nonaromatic ring conformer: 83.67696996247386 kcal/mol)

>  <smiles>  (71) 
O=C(Nc1cccc(NC(=O)c2ccccc2O)c1)Nc1cccc(S(=O)(=O)N2CCOCC2)c1

>  <score_type>  (71) 
oracle

>  <origin>  (71) 
adg

>  <m_score__min__energy>  (71) 
-15.4

>  <m_primary>  (71) 
energy

$$$$
71:0
     RDKit          3D

 54 56  0  0  0  0  0  0  0  0999 V2000
   52.3600   31.7120   51.2960 C   0  0  0  0  0  0  0  0  0  0  0  0
   53.1760   30.4760   50.9420 C   0  0  0  0  0  0  0  0  0  0  0  0
   54.3400   30.3350   51.8720 C   0  0  0  0  0  0  0  0  0  0  0  0
   54.2770   29.5250   52.8370 O   0  0  0  0  0  0  0  0  0  0  0  0
   55.5340   31.0820   51.6290 N   0  0  0  0  0  0  0  0  0  0  0  0
   57.1090   30.4630   51.9970 S   0  0  0  0  0  0  0  0  0  0  0  0
   57.0110   29.0100   52.3760 O   0  0  0  0  0  0  0  0  0  0  0  0
   57.6760   31.2200   53.1650 O   0  0  0  0  0  0  0  0  0  0  0  0
   58.1560   30.6670   50.5970 C   0  0  0  0  0  0  0  0  0  0  0  0
   58.5460   29.5520   49.8460 C   0  0  0  0  0  0  0  0  0  0  0  0
   59.4140   29.7050   48.7610 C   0  0  0  0  0  0  0  0  0  0  0  0
   59.9150   30.9740   48.4280 C   0  0  0  0  0  0  0  0  0  0  0  0
   60.8710   31.1460   47.2780 C   0  0  0  0  0  0  0  0  0  0  0  0
   60.5500   32.3160   46.5260 O   0  0  0  0  0  0  0  0  0  0  0  0
   59.2680   32.6600   46.0650 C   0  0  0  0  0  0  0  0  0  0  0  0
   58.7100   33.9350   46.2550 C   0  0  0  0  0  0  0  0  0  0  0  0
   57.4380   34.2080   45.7560 C   0  0  0  0  0  0  0  0  0  0  0  0
   56.7400   33.2450   45.1000 N   0  0  0  0  0  0  0  0  0  0  0  0
   57.2340   31.9920   44.9070 C   0  0  0  0  0  0  0  0  0  0  0  0
   56.4950   31.1330   44.2610 N   0  0  0  0  0  0  0  0  0  0  0  0
   56.2600   29.7490   44.5620 C   0  0  0  0  0  0  0  0  0  0  0  0
   55.2110   29.3860   45.1590 O   0  0  0  0  0  0  0  0  0  0  0  0
   57.2050   28.7140   44.0290 C   0  0  0  0  0  0  0  0  0  0  0  0
   57.8220   27.9220   45.1530 C   0  0  0  0  0  0  0  0  0  0  0  0
   59.1990   28.0380   45.4080 C   0  0  0  0  0  0  0  0  0  0  0  0
   59.7780   27.3650   46.4860 C   0  0  0  0  0  0  0  0  0  0  0  0
   58.9910   26.5680   47.3180 C   0  0  0  0  0  0  0  0  0  0  0  0
   57.6220   26.4460   47.0770 C   0  0  0  0  0  0  0  0  0  0  0  0
   57.0290   27.1240   46.0030 C   0  0  0  0  0  0  0  0  0  0  0  0
   55.6570   27.0130   45.7840 O   0  0  0  0  0  0  0  0  0  0  0  0
   58.5290   31.6880   45.3810 C   0  0  0  0  0  0  0  0  0  0  0  0
   59.5130   32.0900   49.1780 C   0  0  0  0  0  0  0  0  0  0  0  0
   58.6400   31.9360   50.2570 C   0  0  0  0  0  0  0  0  0  0  0  0
   52.2964   31.8084   52.3899 H   0  0  0  0  0  0  0  0  0  0  0  0
   52.8466   32.6051   50.8769 H   0  0  0  0  0  0  0  0  0  0  0  0
   51.3476   31.6154   50.8769 H   0  0  0  0  0  0  0  0  0  0  0  0
   52.5370   29.5843   51.0234 H   0  0  0  0  0  0  0  0  0  0  0  0
   53.5518   30.5793   49.9133 H   0  0  0  0  0  0  0  0  0  0  0  0
   58.1686   28.5531   50.1102 H   0  0  0  0  0  0  0  0  0  0  0  0
   59.7059   28.8275   48.1654 H   0  0  0  0  0  0  0  0  0  0  0  0
   61.8946   31.2382   47.6700 H   0  0  0  0  0  0  0  0  0  0  0  0
   60.7925   30.2691   46.6186 H   0  0  0  0  0  0  0  0  0  0  0  0
   59.2727   34.7118   46.7935 H   0  0  0  0  0  0  0  0  0  0  0  0
   56.9977   35.2066   45.8938 H   0  0  0  0  0  0  0  0  0  0  0  0
   56.6543   28.0303   43.3662 H   0  0  0  0  0  0  0  0  0  0  0  0
   58.0075   29.2221   43.4742 H   0  0  0  0  0  0  0  0  0  0  0  0
   59.8250   28.6630   44.7542 H   0  0  0  0  0  0  0  0  0  0  0  0
   60.8564   27.4634   46.6795 H   0  0  0  0  0  0  0  0  0  0  0  0
   59.4499   26.0357   48.1642 H   0  0  0  0  0  0  0  0  0  0  0  0
   57.0050   25.8145   47.7332 H   0  0  0  0  0  0  0  0  0  0  0  0
   55.1470   27.7000   45.2420 H   0  0  0  0  0  0  0  0  0  0  0  0
   58.9564   30.6885   45.2128 H   0  0  0  0  0  0  0  0  0  0  0  0
   59.8872   33.0903   48.9148 H   0  0  0  0  0  0  0  0  0  0  0  0
   58.3314   32.8150   50.8420 H   0  0  0  0  0  0  0  0  0  0  0  0
  1  2  1  0
  2  3  1  0
  3  4  2  0
  3  5  1  0
  5  6  1  0
  6  7  2  0
  6  8  2  0
  6  9  1  0
  9 10  2  0
 10 11  1  0
 11 12  2  0
 12 13  1  0
 13 14  1  0
 14 15  1  0
 15 16  1  0
 16 17  2  0
 17 18  1  0
 18 19  1  0
 19 20  2  3
 20 21  1  0
 21 22  2  0
 21 23  1  0
 23 24  1  0
 24 25  2  0
 25 26  1  0
 26 27  2  0
 27 28  1  0
 28 29  2  0
 29 30  1  0
 19 31  1  0
 12 32  1  0
 32 33  2  0
 33  9  1  0
 31 15  2  0
 29 24  1  0
  1 34  1  0
  1 35  1  0
  1 36  1  0
  2 37  1  0
  2 38  1  0
 10 39  1  0
 11 40  1  0
 13 41  1  0
 13 42  1  0
 16 43  1  0
 17 44  1  0
 23 45  1  0
 23 46  1  0
 25 47  1  0
 26 48  1  0
 27 49  1  0
 28 50  1  0
 30 51  1  0
 31 52  1  0
 32 53  1  0
 33 54  1  0
M  CHG  2   5  -1  18  -1
M  END
>  <UniqueID>  (72) 
65

>  <SMILES>  (72) 
CCC(=O)[N-]S(=O)(=O)c1ccc(COc2cc[n-]c(=NC(=O)Cc3ccccc3O)c2)cc1

>  <Energy>  (72) 
60.73656396295512

>  <Genealogy>  (72) 
CCC(=O)[N-]S(=O)(=O)c1ccc(COc2cc[n-]c(=NC(=O)Cc3ccccc3O)c2)cc1 (protonated)
CCC(=O)[N-]S(=O)(=O)c1ccc(COc2cc[n-]c(=NC(=O)Cc3ccccc3O)c2)cc1 (3D coordinates assigned)
CCC(=O)[N-]S(=O)(=O)c1ccc(COc2cc[n-]c(=NC(=O)Cc3ccccc3O)c2)cc1 (optimized conformer: 60.73656396295512 kcal/mol)

>  <smiles>  (72) 
CCC(=O)NS(=O)(=O)c1ccc(COc2cc[nH]c(=NC(=O)Cc3ccccc3O)c2)cc1

>  <score_type>  (72) 
oracle

>  <origin>  (72) 
adg

>  <m_score__min__energy>  (72) 
-12.26

>  <m_primary>  (72) 
energy

$$$$
72:0
     RDKit          3D

 42 44  0  0  0  0  0  0  0  0999 V2000
   53.4449   24.7994   45.7938 H   0  0  0  0  0  0  0  0  0  0  0  0
   54.4780   24.4920   45.5740 C   0  0  0  0  0  0  0  0  0  0  0  0
   55.4880   24.8650   46.4020 N   0  0  0  0  0  0  0  0  0  0  0  0
   56.7710   24.4950   46.1520 C   0  0  0  0  0  0  0  0  0  0  0  0
   57.7140   24.8700   46.9650 N   0  0  0  0  0  0  0  0  0  0  0  0
   58.8430   25.7240   46.5960 C   0  0  0  0  0  0  0  0  0  0  0  0
   59.3883   26.0149   47.5060 H   0  0  0  0  0  0  0  0  0  0  0  0
   59.5035   25.1636   45.9180 H   0  0  0  0  0  0  0  0  0  0  0  0
   58.3640   26.9630   45.8900 C   0  0  0  0  0  0  0  0  0  0  0  0
   58.1270   28.1490   46.6040 C   0  0  0  0  0  0  0  0  0  0  0  0
   58.2739   28.1693   47.6940 H   0  0  0  0  0  0  0  0  0  0  0  0
   57.7060   29.3030   45.9390 C   0  0  0  0  0  0  0  0  0  0  0  0
   57.5203   30.2262   46.5076 H   0  0  0  0  0  0  0  0  0  0  0  0
   57.5190   29.2890   44.5480 C   0  0  0  0  0  0  0  0  0  0  0  0
   57.0390   30.5300   43.8400 C   0  0  0  0  0  0  0  0  0  0  0  0
   57.8552   30.9316   43.2215 H   0  0  0  0  0  0  0  0  0  0  0  0
   56.1769   30.2669   43.2094 H   0  0  0  0  0  0  0  0  0  0  0  0
   56.6230   31.5470   44.8060 N   0  0  0  0  0  0  0  0  0  0  0  0
   57.3830   32.5040   45.2500 C   0  0  0  0  0  0  0  0  0  0  0  0
   57.8990   32.4610   46.5100 N   0  0  0  0  0  0  0  0  0  0  0  0
   58.7000   33.4530   46.9820 C   0  0  0  0  0  0  0  0  0  0  0  0
   59.2610   33.3730   48.3710 C   0  0  0  0  0  0  0  0  0  0  0  0
   58.3710   32.7070   49.1940 F   0  0  0  0  0  0  0  0  0  0  0  0
   59.4790   34.6400   48.8810 F   0  0  0  0  0  0  0  0  0  0  0  0
   60.4620   32.6870   48.3480 F   0  0  0  0  0  0  0  0  0  0  0  0
   58.9980   34.5450   46.1570 C   0  0  0  0  0  0  0  0  0  0  0  0
   59.6439   35.3602   46.5151 H   0  0  0  0  0  0  0  0  0  0  0  0
   58.4580   34.5760   44.8720 C   0  0  0  0  0  0  0  0  0  0  0  0
   58.6742   35.4237   44.2052 H   0  0  0  0  0  0  0  0  0  0  0  0
   57.6650   33.5600   44.4430 N   0  0  0  0  0  0  0  0  0  0  0  0
   57.7570   28.1050   43.8320 C   0  0  0  0  0  0  0  0  0  0  0  0
   57.6114   28.0852   42.7419 H   0  0  0  0  0  0  0  0  0  0  0  0
   58.1780   26.9520   44.4990 C   0  0  0  0  0  0  0  0  0  0  0  0
   58.3650   26.0293   43.9301 H   0  0  0  0  0  0  0  0  0  0  0  0
   57.0520   23.7360   45.0550 N   0  0  0  0  0  0  0  0  0  0  0  0
   56.0740   23.3490   44.1950 C   0  0  0  0  0  0  0  0  0  0  0  0
   56.4170   22.5120   43.0050 C   0  0  0  0  0  0  0  0  0  0  0  0
   56.8142   21.5427   43.3407 H   0  0  0  0  0  0  0  0  0  0  0  0
   55.5135   22.3481   42.3993 H   0  0  0  0  0  0  0  0  0  0  0  0
   57.1757   23.0292   42.3993 H   0  0  0  0  0  0  0  0  0  0  0  0
   54.7500   23.7200   44.4460 C   0  0  0  0  0  0  0  0  0  0  0  0
   53.9409   23.4096   43.7685 H   0  0  0  0  0  0  0  0  0  0  0  0
  1  2  1  0
  2  3  1  0
  3  4  1  0
  4  5  2  0
  5  6  1  0
  6  7  1  0
  6  8  1  0
  6  9  1  0
  9 10  2  0
 10 11  1  0
 10 12  1  0
 12 13  1  0
 12 14  2  0
 14 15  1  0
 15 16  1  0
 15 17  1  0
 15 18  1  0
 18 19  2  0
 19 20  1  0
 20 21  2  0
 21 22  1  0
 22 23  1  0
 22 24  1  0
 22 25  1  0
 21 26  1  0
 26 27  1  0
 26 28  2  0
 28 29  1  0
 28 30  1  0
 14 31  1  0
 31 32  1  0
 31 33  2  0
 33 34  1  0
  4 35  1  0
 35 36  2  0
 36 37  1  0
 37 38  1  0
 37 39  1  0
 37 40  1  0
 36 41  1  0
 41 42  1  0
 41  2  2  0
 33  9  1  0
 30 19  1  0
M  CHG  2   3  -1  30  -1
M  END
>  <UniqueID>  (73) 
66

>  <SMILES>  (73) 
Cc1cc[n-]/c(=N/Cc2ccc(C/N=c3\nc(C(F)(F)F)cc[n-]3)cc2)n1

>  <Energy>  (73) 
41.84095076575206

>  <Genealogy>  (73) 
Cc1cc[n-]c(=NCc2ccc(CN=c3nc(C(F)(F)F)cc[n-]3)cc2)n1 (protonated)
Cc1cc[n-]/c(=N/Cc2ccc(C/N=c3\nc(C(F)(F)F)cc[n-]3)cc2)n1 (cis-trans isomerization)
Cc1cc[n-]/c(=N/Cc2ccc(C/N=c3\nc(C(F)(F)F)cc[n-]3)cc2)n1 (3D coordinates assigned)
Cc1cc[n-]/c(=N/Cc2ccc(C/N=c3\nc(C(F)(F)F)cc[n-]3)cc2)n1 (optimized conformer: 41.84095076575206 kcal/mol)

>  <smiles>  (73) 
Cc1cc[nH]c(=NCc2ccc(CN=c3nc(C(F)(F)F)cc[nH]3)cc2)n1

>  <score_type>  (73) 
oracle

>  <origin>  (73) 
adg

>  <m_score__min__energy>  (73) 
-10.51

>  <m_primary>  (73) 
energy

$$$$
73:0
     RDKit          3D

 42 45  0  0  0  0  0  0  0  0999 V2000
   61.1460   26.5740   46.6060 O   0  0  0  0  0  0  0  0  0  0  0  0
   60.3150   27.4910   46.8450 C   0  0  0  0  0  0  0  0  0  0  0  0
   60.7640   28.7680   47.3200 N   0  0  0  0  0  0  0  0  0  0  0  0
   60.0560   29.6390   48.2140 C   0  0  0  0  0  0  0  0  0  0  0  0
   59.4100   29.1590   49.3660 C   0  0  0  0  0  0  0  0  0  0  0  0
   58.7120   30.0380   50.2010 C   0  0  0  0  0  0  0  0  0  0  0  0
   58.6460   31.4100   49.8940 C   0  0  0  0  0  0  0  0  0  0  0  0
   57.9290   32.3350   50.7320 N   0  0  0  0  0  0  0  0  0  0  0  0
   58.3170   32.6600   52.0740 C   0  0  0  0  0  0  0  0  0  0  0  0
   59.2610   33.6770   52.2830 C   0  0  0  0  0  0  0  0  0  0  0  0
   59.6580   34.0160   53.5780 C   0  0  0  0  0  0  0  0  0  0  0  0
   59.1270   33.3330   54.6740 C   0  0  0  0  0  0  0  0  0  0  0  0
   58.2060   32.3010   54.4760 C   0  0  0  0  0  0  0  0  0  0  0  0
   57.8030   31.9530   53.1800 C   0  0  0  0  0  0  0  0  0  0  0  0
   56.6120   30.4660   52.9650 Br  0  0  0  0  0  0  0  0  0  0  0  0
   59.2610   31.8760   48.7230 C   0  0  0  0  0  0  0  0  0  0  0  0
   59.9570   30.9960   47.8900 C   0  0  0  0  0  0  0  0  0  0  0  0
   58.8830   27.2940   46.5260 C   0  0  0  0  0  0  0  0  0  0  0  0
   58.2510   26.1380   47.0090 C   0  0  0  0  0  0  0  0  0  0  0  0
   56.9260   25.9350   46.8080 N   0  0  0  0  0  0  0  0  0  0  0  0
   56.1530   26.8200   46.1290 C   0  0  0  0  0  0  0  0  0  0  0  0
   54.7990   26.5480   45.9680 O   0  0  0  0  0  0  0  0  0  0  0  0
   56.7250   27.9880   45.5970 C   0  0  0  0  0  0  0  0  0  0  0  0
   55.9440   28.9060   44.8720 C   0  0  0  0  0  0  0  0  0  0  0  0
   56.5300   30.0440   44.3170 C   0  0  0  0  0  0  0  0  0  0  0  0
   57.8960   30.2720   44.4650 C   0  0  0  0  0  0  0  0  0  0  0  0
   58.6870   29.3710   45.1830 C   0  0  0  0  0  0  0  0  0  0  0  0
   58.1140   28.2270   45.7820 C   0  0  0  0  0  0  0  0  0  0  0  0
   59.4534   28.0878   49.6122 H   0  0  0  0  0  0  0  0  0  0  0  0
   58.2119   29.6547   51.1026 H   0  0  0  0  0  0  0  0  0  0  0  0
   57.0080   32.6980   50.3950 H   0  0  0  0  0  0  0  0  0  0  0  0
   59.6906   34.2100   51.4220 H   0  0  0  0  0  0  0  0  0  0  0  0
   60.3899   34.8220   53.7350 H   0  0  0  0  0  0  0  0  0  0  0  0
   59.4339   33.6076   55.6940 H   0  0  0  0  0  0  0  0  0  0  0  0
   57.7957   31.7596   55.3412 H   0  0  0  0  0  0  0  0  0  0  0  0
   59.1951   32.9417   48.4584 H   0  0  0  0  0  0  0  0  0  0  0  0
   60.4309   31.3736   46.9719 H   0  0  0  0  0  0  0  0  0  0  0  0
   58.8383   25.3870   47.5577 H   0  0  0  0  0  0  0  0  0  0  0  0
   54.8666   28.7259   44.7420 H   0  0  0  0  0  0  0  0  0  0  0  0
   55.9112   30.7635   43.7607 H   0  0  0  0  0  0  0  0  0  0  0  0
   58.3542   31.1650   44.0149 H   0  0  0  0  0  0  0  0  0  0  0  0
   59.7670   29.5545   45.2828 H   0  0  0  0  0  0  0  0  0  0  0  0
  1  2  2  0
  2  3  1  0
  3  4  1  0
  4  5  2  0
  5  6  1  0
  6  7  2  0
  7  8  1  0
  8  9  1  0
  9 10  2  0
 10 11  1  0
 11 12  2  0
 12 13  1  0
 13 14  2  0
 14 15  1  0
  7 16  1  0
 16 17  2  0
  2 18  1  0
 18 19  2  0
 19 20  1  0
 20 21  2  0
 21 22  1  0
 21 23  1  0
 23 24  2  0
 24 25  1  0
 25 26  2  0
 26 27  1  0
 27 28  2  0
 17  4  1  0
 28 18  1  0
 14  9  1  0
 28 23  1  0
  5 29  1  0
  6 30  1  0
  8 31  1  0
 10 32  1  0
 11 33  1  0
 12 34  1  0
 13 35  1  0
 16 36  1  0
 17 37  1  0
 19 38  1  0
 24 39  1  0
 25 40  1  0
 26 41  1  0
 27 42  1  0
M  CHG  2   3  -1  22  -1
M  END
>  <UniqueID>  (74) 
67

>  <SMILES>  (74) 
O=C([N-]c1ccc(Nc2ccccc2Br)cc1)c1cnc([O-])c2ccccc12

>  <Energy>  (74) 
69.91010123202354

>  <Genealogy>  (74) 
O=C([N-]c1ccc(Nc2ccccc2Br)cc1)c1cnc([O-])c2ccccc12 (protonated)
O=C([N-]c1ccc(Nc2ccccc2Br)cc1)c1cnc([O-])c2ccccc12 (3D coordinates assigned)
O=C([N-]c1ccc(Nc2ccccc2Br)cc1)c1cnc([O-])c2ccccc12 (optimized conformer: 69.91010123202354 kcal/mol)

>  <smiles>  (74) 
O=C(Nc1ccc(Nc2ccccc2Br)cc1)c1cnc(O)c2ccccc12

>  <score_type>  (74) 
oracle

>  <origin>  (74) 
adg

>  <m_score__min__energy>  (74) 
-13.51

>  <m_primary>  (74) 
energy

$$$$
74:0
     RDKit          3D

 36 38  0  0  0  0  0  0  0  0999 V2000
   57.9000   25.6710   47.5720 O   0  0  0  0  0  0  0  0  0  0  0  0
   57.0650   25.8250   46.6390 C   0  0  0  0  0  0  0  0  0  0  0  0
   57.0610   27.0340   45.8590 N   0  0  0  0  0  0  0  0  0  0  0  0
   58.0070   28.1030   46.0260 C   0  0  0  0  0  0  0  0  0  0  0  0
   57.5600   29.4300   45.9650 C   0  0  0  0  0  0  0  0  0  0  0  0
   58.4630   30.4900   46.1010 C   0  0  0  0  0  0  0  0  0  0  0  0
   59.8280   30.2390   46.2990 C   0  0  0  0  0  0  0  0  0  0  0  0
   60.7410   31.3450   46.4090 N   0  0  0  0  0  0  0  0  0  0  0  0
   60.3450   32.7050   46.6520 C   0  0  0  0  0  0  0  0  0  0  0  0
   60.4770   33.2890   47.9270 C   0  0  0  0  0  0  0  0  0  0  0  0
   60.0580   34.6050   48.1460 C   0  0  0  0  0  0  0  0  0  0  0  0
   59.4930   35.3430   47.1020 C   0  0  0  0  0  0  0  0  0  0  0  0
   59.3380   34.7640   45.8410 C   0  0  0  0  0  0  0  0  0  0  0  0
   59.7550   33.4480   45.6190 C   0  0  0  0  0  0  0  0  0  0  0  0
   60.2840   28.9100   46.3110 C   0  0  0  0  0  0  0  0  0  0  0  0
   59.3820   27.8510   46.1760 C   0  0  0  0  0  0  0  0  0  0  0  0
   56.0880   24.7470   46.3650 C   0  0  0  0  0  0  0  0  0  0  0  0
   54.8030   25.0300   45.8660 C   0  0  0  0  0  0  0  0  0  0  0  0
   54.3940   26.3390   45.6450 O   0  0  0  0  0  0  0  0  0  0  0  0
   53.9320   24.0170   45.6240 N   0  0  0  0  0  0  0  0  0  0  0  0
   54.2700   22.7250   45.8640 C   0  0  0  0  0  0  0  0  0  0  0  0
   53.4460   21.8050   45.6280 O   0  0  0  0  0  0  0  0  0  0  0  0
   55.4960   22.4260   46.3620 N   0  0  0  0  0  0  0  0  0  0  0  0
   56.4070   23.4000   46.6200 C   0  0  0  0  0  0  0  0  0  0  0  0
   57.5380   23.0790   47.0740 O   0  0  0  0  0  0  0  0  0  0  0  0
   56.2960   27.1760   45.1620 H   0  0  0  0  0  0  0  0  0  0  0  0
   56.4915   29.6396   45.8091 H   0  0  0  0  0  0  0  0  0  0  0  0
   58.0996   31.5271   46.0523 H   0  0  0  0  0  0  0  0  0  0  0  0
   61.7620   31.1450   46.3050 H   0  0  0  0  0  0  0  0  0  0  0  0
   60.9114   32.7076   48.7536 H   0  0  0  0  0  0  0  0  0  0  0  0
   60.1731   35.0599   49.1409 H   0  0  0  0  0  0  0  0  0  0  0  0
   59.1703   36.3804   47.2740 H   0  0  0  0  0  0  0  0  0  0  0  0
   58.8876   35.3435   45.0217 H   0  0  0  0  0  0  0  0  0  0  0  0
   59.6194   32.9921   44.6271 H   0  0  0  0  0  0  0  0  0  0  0  0
   61.3578   28.7017   46.4274 H   0  0  0  0  0  0  0  0  0  0  0  0
   59.7500   26.8144   46.1872 H   0  0  0  0  0  0  0  0  0  0  0  0
  1  2  2  0
  2  3  1  0
  3  4  1  0
  4  5  2  0
  5  6  1  0
  6  7  2  0
  7  8  1  0
  8  9  1  0
  9 10  2  0
 10 11  1  0
 11 12  2  0
 12 13  1  0
 13 14  2  0
  7 15  1  0
 15 16  2  0
  2 17  1  0
 17 18  2  0
 18 19  1  0
 18 20  1  0
 20 21  1  0
 21 22  2  0
 21 23  1  0
 23 24  1  0
 24 25  2  0
 16  4  1  0
 24 17  1  0
 14  9  1  0
  3 26  1  0
  5 27  1  0
  6 28  1  0
  8 29  1  0
 10 30  1  0
 11 31  1  0
 12 32  1  0
 13 33  1  0
 14 34  1  0
 15 35  1  0
 16 36  1  0
M  CHG  3  19  -1  20  -1  23  -1
M  END
>  <UniqueID>  (75) 
68

>  <SMILES>  (75) 
O=C(Nc1ccc(Nc2ccccc2)cc1)c1c([O-])[n-]c(=O)[n-]c1=O

>  <Energy>  (75) 
55.667630165138014

>  <Genealogy>  (75) 
O=C(Nc1ccc(Nc2ccccc2)cc1)c1c([O-])[n-]c(=O)[n-]c1=O (protonated)
O=C(Nc1ccc(Nc2ccccc2)cc1)c1c([O-])[n-]c(=O)[n-]c1=O (3D coordinates assigned)
O=C(Nc1ccc(Nc2ccccc2)cc1)c1c([O-])[n-]c(=O)[n-]c1=O (optimized conformer: 55.667630165138014 kcal/mol)

>  <smiles>  (75) 
O=C(Nc1ccc(Nc2ccccc2)cc1)c1c(O)[nH]c(=O)[nH]c1=O

>  <score_type>  (75) 
oracle

>  <origin>  (75) 
adg

>  <m_score__min__energy>  (75) 
-14.27

>  <m_primary>  (75) 
energy

$$$$
75:0
     RDKit          3D

 63 65  0  0  0  0  0  0  0  0999 V2000
   56.5810   20.5610   44.5810 C   0  0  0  0  0  0  0  0  0  0  0  0
   56.8930   21.3230   43.3010 C   0  0  0  0  0  0  0  0  0  0  0  0
   56.1180   22.5140   43.2600 O   0  0  0  0  0  0  0  0  0  0  0  0
   56.4280   23.6480   44.0180 C   0  0  0  0  0  0  0  0  0  0  0  0
   55.5460   24.5130   44.2800 O   0  0  0  0  0  0  0  0  0  0  0  0
   57.8360   23.8580   44.4760 C   0  0  0  0  0  0  0  0  0  0  0  0
   58.0500   25.2730   44.7560 N   0  0  0  0  0  0  0  0  0  0  0  0
   58.8330   25.7780   45.7310 C   0  0  0  0  0  0  0  0  0  0  0  0
   58.6510   27.1480   45.7610 C   0  0  0  0  0  0  0  0  0  0  0  0
   59.2750   28.0890   46.7040 C   0  0  0  0  0  0  0  0  0  0  0  0
   60.5210   28.2740   46.6570 O   0  0  0  0  0  0  0  0  0  0  0  0
   58.5020   28.7910   47.6850 N   0  0  0  0  0  0  0  0  0  0  0  0
   58.9610   29.8850   48.4930 C   0  0  0  0  0  0  0  0  0  0  0  0
   58.7120   29.9410   49.8690 C   0  0  0  0  0  0  0  0  0  0  0  0
   59.2330   30.9810   50.6350 C   0  0  0  0  0  0  0  0  0  0  0  0
   60.0080   31.9950   50.0480 C   0  0  0  0  0  0  0  0  0  0  0  0
   60.6430   33.0100   50.9610 C   0  0  0  0  0  0  0  0  0  0  0  0
   60.2420   31.9650   48.6450 C   0  0  0  0  0  0  0  0  0  0  0  0
   61.1880   33.2010   47.7660 S   0  0  0  0  0  0  0  0  0  0  0  0
   62.1060   33.9380   48.6970 O   0  0  0  0  0  0  0  0  0  0  0  0
   62.0500   32.4960   46.7570 O   0  0  0  0  0  0  0  0  0  0  0  0
   60.1880   34.3640   46.9150 N   0  0  0  0  0  0  0  0  0  0  0  0
   58.8880   34.5960   47.5760 C   0  0  0  0  0  0  0  0  0  0  0  0
   57.7520   33.8160   46.8900 C   0  0  0  0  0  0  0  0  0  0  0  0
   57.5920   34.1270   45.5100 O   0  0  0  0  0  0  0  0  0  0  0  0
   58.7740   34.6160   44.8880 C   0  0  0  0  0  0  0  0  0  0  0  0
   60.0610   34.0260   45.4840 C   0  0  0  0  0  0  0  0  0  0  0  0
   59.7450   30.8790   47.9010 C   0  0  0  0  0  0  0  0  0  0  0  0
   57.7390   27.4190   44.7490 C   0  0  0  0  0  0  0  0  0  0  0  0
   57.1740   29.0010   44.2230 S   0  0  0  0  0  0  0  0  0  0  0  0
   56.8210   28.9490   42.7620 O   0  0  0  0  0  0  0  0  0  0  0  0
   55.9570   29.3880   45.0210 O   0  0  0  0  0  0  0  0  0  0  0  0
   58.4490   30.2280   44.4790 C   0  0  0  0  0  0  0  0  0  0  0  0
   58.0350   31.5760   43.9000 C   0  0  0  0  0  0  0  0  0  0  0  0
   57.3900   26.2580   44.1640 N   0  0  0  0  0  0  0  0  0  0  0  0
   56.8363   21.1846   45.4504 H   0  0  0  0  0  0  0  0  0  0  0  0
   55.5094   20.3142   44.6088 H   0  0  0  0  0  0  0  0  0  0  0  0
   57.1718   19.6335   44.6088 H   0  0  0  0  0  0  0  0  0  0  0  0
   57.9623   21.5799   43.2782 H   0  0  0  0  0  0  0  0  0  0  0  0
   56.6490   20.6956   42.4310 H   0  0  0  0  0  0  0  0  0  0  0  0
   58.0157   23.2722   45.3895 H   0  0  0  0  0  0  0  0  0  0  0  0
   58.5305   23.5309   43.6882 H   0  0  0  0  0  0  0  0  0  0  0  0
   59.5001   25.2005   46.3878 H   0  0  0  0  0  0  0  0  0  0  0  0
   58.1023   29.1604   50.3475 H   0  0  0  0  0  0  0  0  0  0  0  0
   59.0345   31.0088   51.7166 H   0  0  0  0  0  0  0  0  0  0  0  0
   60.4641   32.7240   52.0080 H   0  0  0  0  0  0  0  0  0  0  0  0
   61.7258   33.0474   50.7710 H   0  0  0  0  0  0  0  0  0  0  0  0
   60.2030   34.0001   50.7710 H   0  0  0  0  0  0  0  0  0  0  0  0
   58.9591   34.2730   48.6251 H   0  0  0  0  0  0  0  0  0  0  0  0
   58.6561   35.6691   47.5082 H   0  0  0  0  0  0  0  0  0  0  0  0
   57.9659   32.7408   46.9805 H   0  0  0  0  0  0  0  0  0  0  0  0
   56.8171   34.1036   47.3933 H   0  0  0  0  0  0  0  0  0  0  0  0
   58.7363   34.3628   43.8182 H   0  0  0  0  0  0  0  0  0  0  0  0
   58.8052   35.7028   45.0551 H   0  0  0  0  0  0  0  0  0  0  0  0
   60.0390   32.9317   45.3740 H   0  0  0  0  0  0  0  0  0  0  0  0
   60.9215   34.4516   44.9470 H   0  0  0  0  0  0  0  0  0  0  0  0
   59.9790   30.8108   46.8283 H   0  0  0  0  0  0  0  0  0  0  0  0
   58.6286   30.3402   45.5584 H   0  0  0  0  0  0  0  0  0  0  0  0
   59.3642   29.8938   43.9684 H   0  0  0  0  0  0  0  0  0  0  0  0
   57.8198   32.2768   44.7201 H   0  0  0  0  0  0  0  0  0  0  0  0
   58.8518   31.9757   43.2810 H   0  0  0  0  0  0  0  0  0  0  0  0
   57.1347   31.4483   43.2810 H   0  0  0  0  0  0  0  0  0  0  0  0
   56.7150   26.1350   43.3750 H   0  0  0  0  0  0  0  0  0  0  0  0
  1  2  1  0
  2  3  1  0
  3  4  1  0
  4  5  2  0
  4  6  1  0
  6  7  1  0
  7  8  1  0
  8  9  2  0
  9 10  1  0
 10 11  2  0
 10 12  1  0
 12 13  1  0
 13 14  2  0
 14 15  1  0
 15 16  2  0
 16 17  1  0
 16 18  1  0
 18 19  1  0
 19 20  2  0
 19 21  2  0
 19 22  1  0
 22 23  1  0
 23 24  1  0
 24 25  1  0
 25 26  1  0
 26 27  1  0
 18 28  2  0
  9 29  1  0
 29 30  1  0
 30 31  2  0
 30 32  2  0
 30 33  1  0
 33 34  1  0
 29 35  2  0
 35  7  1  0
 28 13  1  0
 27 22  1  0
  1 36  1  0
  1 37  1  0
  1 38  1  0
  2 39  1  0
  2 40  1  0
  6 41  1  0
  6 42  1  0
  8 43  1  0
 14 44  1  0
 15 45  1  0
 17 46  1  0
 17 47  1  0
 17 48  1  0
 23 49  1  0
 23 50  1  0
 24 51  1  0
 24 52  1  0
 26 53  1  0
 26 54  1  0
 27 55  1  0
 27 56  1  0
 28 57  1  0
 33 58  1  0
 33 59  1  0
 34 60  1  0
 34 61  1  0
 34 62  1  0
 35 63  1  0
M  CHG  2  12  -1  35   1
M  END
>  <UniqueID>  (76) 
69

>  <SMILES>  (76) 
CCOC(=O)Cn1cc(C(=O)[N-]c2ccc(C)c(S(=O)(=O)N3CCOCC3)c2)c(S(=O)(=O)CC)[nH+]1

>  <Energy>  (76) 
103.91291622222447

>  <Genealogy>  (76) 
CCOC(=O)Cn1cc(C(=O)[N-]c2ccc(C)c(S(=O)(=O)N3CCOCC3)c2)c(S(=O)(=O)CC)[nH+]1 (protonated)
CCOC(=O)Cn1cc(C(=O)[N-]c2ccc(C)c(S(=O)(=O)N3CCOCC3)c2)c(S(=O)(=O)CC)[nH+]1 (3D coordinates assigned)
CCOC(=O)Cn1cc(C(=O)[N-]c2ccc(C)c(S(=O)(=O)N3CCOCC3)c2)c(S(=O)(=O)CC)[nH+]1 (nonaromatic ring conformer: 103.91291622222447 kcal/mol)

>  <smiles>  (76) 
CCOC(=O)Cn1cc(C(=O)Nc2ccc(C)c(S(=O)(=O)N3CCOCC3)c2)c(S(=O)(=O)CC)n1

>  <score_type>  (76) 
oracle

>  <origin>  (76) 
adg

>  <m_score__min__energy>  (76) 
-9.2699999999999996

>  <m_primary>  (76) 
energy

$$$$
76:0
     RDKit          3D

 38 39  0  0  1  0  0  0  0  0999 V2000
   58.8830   31.8700   48.9740 C   0  0  0  0  0  0  0  0  0  0  0  0
   59.2070   33.0380   48.0790 C   0  0  0  0  0  0  0  0  0  0  0  0
   58.6810   32.8720   46.6910 C   0  0  0  0  0  0  0  0  0  0  0  0
   58.0050   31.7030   46.3470 C   0  0  0  0  0  0  0  0  0  0  0  0
   57.5080   31.5210   45.0740 C   0  0  0  0  0  0  0  0  0  0  0  0
   56.8170   30.3700   44.6540 N   0  0  0  0  0  0  0  0  0  0  0  0
   57.0940   29.1980   45.0860 C   0  0  0  0  0  0  0  0  0  0  0  0
   56.1300   28.3090   45.3840 N   0  0  0  0  0  0  0  0  0  0  0  0
   56.4170   27.0740   45.8420 C   0  0  0  0  0  0  0  0  0  0  0  0
   55.3570   26.2420   46.1180 O   0  0  0  0  0  0  0  0  0  0  0  0
   55.3290   24.9240   45.6180 C   0  0  0  0  0  0  0  0  0  0  0  0
   57.7410   26.7540   45.9910 C   0  0  0  0  0  0  0  0  0  0  0  0
   58.1180   25.4770   46.4650 N   0  0  0  0  0  0  0  0  0  0  0  0
   59.0060   24.7630   45.9590 O   0  0  0  0  0  0  0  0  0  0  0  0
   58.7290   27.6700   45.6840 C   0  0  0  0  0  0  0  0  0  0  0  0
   59.9910   27.3810   45.8240 N   0  0  0  0  0  0  0  0  0  0  0  0
   58.4030   28.8910   45.2310 N   0  0  0  0  0  0  0  0  0  0  0  0
   57.6950   32.5300   44.1310 C   0  0  0  0  0  0  0  0  0  0  0  0
   58.3600   33.7030   44.4320 C   0  0  0  0  0  0  0  0  0  0  0  0
   58.8490   33.8550   45.7310 C   0  0  0  0  0  0  0  0  0  0  0  0
   59.5770   35.0860   46.1410 C   0  0  0  0  0  0  0  0  0  0  0  0
   58.9688   32.1794   50.0261 H   0  0  0  0  0  0  0  0  0  0  0  0
   57.8564   31.5290   48.7747 H   0  0  0  0  0  0  0  0  0  0  0  0
   59.5873   31.0489   48.7747 H   0  0  0  0  0  0  0  0  0  0  0  0
   58.7661   33.9467   48.5148 H   0  0  0  0  0  0  0  0  0  0  0  0
   60.3027   33.1062   48.0101 H   0  0  0  0  0  0  0  0  0  0  0  0
   57.8660   30.9147   47.1015 H   0  0  0  0  0  0  0  0  0  0  0  0
   55.1330   28.5980   45.2540 H   0  0  0  0  0  0  0  0  0  0  0  0
   55.3139   24.2135   46.4577 H   0  0  0  0  0  0  0  0  0  0  0  0
   54.4277   24.7842   45.0031 H   0  0  0  0  0  0  0  0  0  0  0  0
   56.2236   24.7460   45.0031 H   0  0  0  0  0  0  0  0  0  0  0  0
   60.3310   26.4540   46.1230 H   0  0  0  0  0  0  0  0  0  0  0  0
   59.1450   29.5750   45.0010 H   0  0  0  0  0  0  0  0  0  0  0  0
   57.3003   32.3879   43.1141 H   0  0  0  0  0  0  0  0  0  0  0  0
   58.4993   34.4891   43.6753 H   0  0  0  0  0  0  0  0  0  0  0  0
   59.6109   35.1434   47.2390 H   0  0  0  0  0  0  0  0  0  0  0  0
   60.6022   35.0552   45.7436 H   0  0  0  0  0  0  0  0  0  0  0  0
   59.0561   35.9696   45.7436 H   0  0  0  0  0  0  0  0  0  0  0  0
  1  2  1  0
  2  3  1  0
  3  4  2  0
  4  5  1  0
  5  6  1  0
  6  7  2  0
  7  8  1  0
  8  9  1  0
  9 10  1  0
 10 11  1  0
  9 12  2  0
 12 13  1  0
 13 14  2  0
 12 15  1  0
 15 16  2  3
 15 17  1  0
  5 18  2  0
 18 19  1  0
 19 20  2  0
 20 21  1  0
 20  3  1  0
 17  7  1  0
  1 22  1  0
  1 23  1  0
  1 24  1  0
  2 25  1  0
  2 26  1  0
  4 27  1  0
  8 28  1  0
 11 29  1  0
 11 30  1  0
 11 31  1  0
 16 32  1  0
 17 33  1  0
 18 34  1  0
 19 35  1  0
 21 36  1  0
 21 37  1  0
 21 38  1  0
M  END
>  <smiles>  (77) 
CCc1cc(N=c2[nH]c(OC)c(N=O)c(=N)[nH]2)ccc1C

>  <score_type>  (77) 
oracle

>  <origin>  (77) 
adg

>  <m_score__min__energy>  (77) 
-7.1100000000000003

>  <m_primary>  (77) 
energy

$$$$
77:0
     RDKit          3D

 60 62  0  0  0  0  0  0  0  0999 V2000
   55.2370   22.7560   46.9980 N   0  0  0  0  0  0  0  0  0  0  0  0
   56.6290   22.9160   47.2720 C   0  0  0  0  0  0  0  0  0  0  0  0
   57.3310   21.9070   47.5420 O   0  0  0  0  0  0  0  0  0  0  0  0
   57.2720   24.2740   47.1870 C   0  0  1  0  0  0  0  0  0  0  0  0
   58.0010   24.4660   45.8450 C   0  0  0  0  0  0  0  0  0  0  0  0
   57.5120   23.5340   44.7620 C   0  0  0  0  0  0  0  0  0  0  0  0
   58.2010   22.3380   44.4880 C   0  0  0  0  0  0  0  0  0  0  0  0
   57.7630   21.4900   43.4660 C   0  0  0  0  0  0  0  0  0  0  0  0
   56.6350   21.8280   42.7110 C   0  0  0  0  0  0  0  0  0  0  0  0
   55.9430   23.0150   42.9770 C   0  0  0  0  0  0  0  0  0  0  0  0
   56.3790   23.8650   43.9970 C   0  0  0  0  0  0  0  0  0  0  0  0
   56.2810   25.3340   47.3760 N   0  0  0  0  0  0  0  0  0  0  0  0
   55.8350   26.2450   46.3630 C   0  0  0  0  0  0  0  0  0  0  0  0
   54.6990   26.0650   45.8430 O   0  0  0  0  0  0  0  0  0  0  0  0
   56.6620   27.4350   45.9640 C   0  0  0  0  0  0  0  0  0  0  0  0
   55.8920   28.3300   45.1090 N   0  0  0  0  0  0  0  0  0  0  0  0
   56.2380   29.6900   44.8160 C   0  0  0  0  0  0  0  0  0  0  0  0
   55.3120   30.5120   44.5840 O   0  0  0  0  0  0  0  0  0  0  0  0
   57.6690   30.1820   44.8290 C   0  0  2  0  0  0  0  0  0  0  0  0
   57.7540   31.5540   44.1270 C   0  0  0  0  0  0  0  0  0  0  0  0
   58.1880   32.6410   45.0800 C   0  0  0  0  0  0  0  0  0  0  0  0
   57.7890   32.5960   46.4260 C   0  0  0  0  0  0  0  0  0  0  0  0
   58.1390   33.6290   47.3010 C   0  0  0  0  0  0  0  0  0  0  0  0
   58.8810   34.7170   46.8390 C   0  0  0  0  0  0  0  0  0  0  0  0
   59.2790   34.7720   45.4980 C   0  0  0  0  0  0  0  0  0  0  0  0
   58.9330   33.7380   44.6200 C   0  0  0  0  0  0  0  0  0  0  0  0
   58.5290   29.1910   44.1420 N   0  0  0  0  0  0  0  0  0  0  0  0
   59.6120   28.6520   44.9910 C   0  0  2  0  0  0  0  0  0  0  0  0
   59.4490   27.2670   45.1760 O   0  0  0  0  0  0  0  0  0  0  0  0
   59.6850   29.3670   46.3210 C   0  0  0  0  0  0  0  0  0  0  0  0
   60.4050   30.5280   46.5580 C   0  0  0  0  0  0  0  0  0  0  0  0
   60.1420   30.8840   47.8620 C   0  0  0  0  0  0  0  0  0  0  0  0
   59.2750   29.9260   48.3410 C   0  0  0  0  0  0  0  0  0  0  0  0
   58.7440   29.9180   49.6240 O   0  0  0  0  0  0  0  0  0  0  0  0
   58.9820   28.9950   47.4110 N   0  0  0  0  0  0  0  0  0  0  0  0
   54.6310   23.5830   46.8080 H   0  0  0  0  0  0  0  0  0  0  0  0
   58.0153   24.3368   47.9955 H   0  0  0  0  0  0  0  0  0  0  0  0
   57.8479   25.5023   45.5094 H   0  0  0  0  0  0  0  0  0  0  0  0
   59.0637   24.2388   46.0156 H   0  0  0  0  0  0  0  0  0  0  0  0
   59.0880   22.0690   45.0803 H   0  0  0  0  0  0  0  0  0  0  0  0
   58.3058   20.5566   43.2557 H   0  0  0  0  0  0  0  0  0  0  0  0
   56.2915   21.1601   41.9073 H   0  0  0  0  0  0  0  0  0  0  0  0
   55.0556   23.2790   42.3830 H   0  0  0  0  0  0  0  0  0  0  0  0
   55.8333   24.7977   44.2027 H   0  0  0  0  0  0  0  0  0  0  0  0
   56.9741   27.9781   46.8682 H   0  0  0  0  0  0  0  0  0  0  0  0
   57.5440   27.0842   45.4081 H   0  0  0  0  0  0  0  0  0  0  0  0
   58.0157   30.2998   45.8663 H   0  0  0  0  0  0  0  0  0  0  0  0
   58.4814   31.4894   43.3044 H   0  0  0  0  0  0  0  0  0  0  0  0
   56.7532   31.8087   43.7481 H   0  0  0  0  0  0  0  0  0  0  0  0
   57.1983   31.7440   46.7936 H   0  0  0  0  0  0  0  0  0  0  0  0
   57.8289   33.5840   48.3554 H   0  0  0  0  0  0  0  0  0  0  0  0
   59.1528   35.5304   47.5278 H   0  0  0  0  0  0  0  0  0  0  0  0
   59.8645   35.6290   45.1336 H   0  0  0  0  0  0  0  0  0  0  0  0
   59.2459   33.7854   43.5665 H   0  0  0  0  0  0  0  0  0  0  0  0
   58.9700   29.6060   43.2870 H   0  0  0  0  0  0  0  0  0  0  0  0
   60.5653   28.8269   44.4707 H   0  0  0  0  0  0  0  0  0  0  0  0
   59.1320   27.1360   46.1090 H   0  0  0  0  0  0  0  0  0  0  0  0
   61.0557   31.0583   45.8471 H   0  0  0  0  0  0  0  0  0  0  0  0
   60.5408   31.7520   48.4075 H   0  0  0  0  0  0  0  0  0  0  0  0
   59.0970   29.2740   50.3240 H   0  0  0  0  0  0  0  0  0  0  0  0
  1  2  1  0
  2  3  2  0
  2  4  1  0
  4  5  1  0
  5  6  1  0
  6  7  2  0
  7  8  1  0
  8  9  2  0
  9 10  1  0
 10 11  2  0
  4 12  1  0
 12 13  1  0
 13 14  2  0
 13 15  1  0
 15 16  1  0
 16 17  1  0
 17 18  2  0
 17 19  1  0
 19 20  1  0
 20 21  1  0
 21 22  2  0
 22 23  1  0
 23 24  2  0
 24 25  1  0
 25 26  2  0
 19 27  1  0
 27 28  1  0
 28 29  1  0
 28 30  1  0
 30 31  2  0
 31 32  1  0
 32 33  2  0
 33 34  1  0
 33 35  1  0
 11  6  1  0
 26 21  1  0
 35 30  1  0
  1 36  1  0
  4 37  1  1
  5 38  1  0
  5 39  1  0
  7 40  1  0
  8 41  1  0
  9 42  1  0
 10 43  1  0
 11 44  1  0
 15 45  1  0
 15 46  1  0
 19 47  1  1
 20 48  1  0
 20 49  1  0
 22 50  1  0
 23 51  1  0
 24 52  1  0
 25 53  1  0
 26 54  1  0
 27 55  1  0
 28 56  1  6
 29 57  1  0
 31 58  1  0
 32 59  1  0
 34 60  1  0
M  CHG  4   1  -1  12  -1  16  -1  35  -1
M  END
>  <UniqueID>  (78) 
70

>  <SMILES>  (78) 
[NH-]C(=O)[C@@H](Cc1ccccc1)[N-]C(=O)C[N-]C(=O)[C@H](Cc1ccccc1)NC(O)c1ccc(O)[n-]1

>  <Energy>  (78) 
77.14950897643627

>  <Genealogy>  (78) 
[NH-]C(=O)C(Cc1ccccc1)[N-]C(=O)C[N-]C(=O)C(Cc1ccccc1)NC(O)c1ccc(O)[n-]1 (protonated)
[NH-]C(=O)[C@@H](Cc1ccccc1)[N-]C(=O)C[N-]C(=O)[C@H](Cc1ccccc1)NC(O)c1ccc(O)[n-]1 (chirality)
[NH-]C(=O)[C@@H](Cc1ccccc1)[N-]C(=O)C[N-]C(=O)[C@H](Cc1ccccc1)NC(O)c1ccc(O)[n-]1 (3D coordinates assigned)
[NH-]C(=O)[C@@H](Cc1ccccc1)[N-]C(=O)C[N-]C(=O)[C@H](Cc1ccccc1)NC(O)c1ccc(O)[n-]1 (optimized conformer: 77.14950897643627 kcal/mol)

>  <smiles>  (78) 
NC(=O)C(Cc1ccccc1)NC(=O)CNC(=O)C(Cc1ccccc1)NC(O)c1ccc(O)[nH]1

>  <score_type>  (78) 
oracle

>  <origin>  (78) 
adg

>  <m_score__min__energy>  (78) 
-15.34

>  <m_primary>  (78) 
energy

$$$$
78:0
     RDKit          3D

 69 74  0  0  0  0  0  0  0  0999 V2000
   58.3609   32.8283   42.7017 H   0  0  0  0  0  0  0  0  0  0  0  0
   57.8440   31.9660   43.1480 C   0  0  0  0  0  0  0  0  0  0  0  0
   57.0250   31.1570   42.3570 C   0  0  0  0  0  0  0  0  0  0  0  0
   56.9153   31.3699   41.2834 H   0  0  0  0  0  0  0  0  0  0  0  0
   56.3450   30.0780   42.9270 C   0  0  0  0  0  0  0  0  0  0  0  0
   55.6987   29.4446   42.3016 H   0  0  0  0  0  0  0  0  0  0  0  0
   56.4850   29.7990   44.3010 C   0  0  0  0  0  0  0  0  0  0  0  0
   55.8010   28.6980   44.9220 N   0  0  0  0  0  0  0  0  0  0  0  0
   56.3650   27.7550   45.6170 C   0  0  0  0  0  0  0  0  0  0  0  0
   57.6830   27.8160   45.9390 N   0  0  0  0  0  0  0  0  0  0  0  0
   58.2850   26.7840   46.5850 C   0  0  0  0  0  0  0  0  0  0  0  0
   60.0470   26.8130   46.9570 S   0  0  0  0  0  0  0  0  0  0  0  0
   59.9420   28.0320   48.2750 C   0  0  0  0  0  0  0  0  0  0  0  0
   59.1690   29.1870   48.1160 C   0  0  0  0  0  0  0  0  0  0  0  0
   58.7013   29.4057   47.1447 H   0  0  0  0  0  0  0  0  0  0  0  0
   58.9900   30.0650   49.1920 C   0  0  0  0  0  0  0  0  0  0  0  0
   58.3386   30.9439   49.0774 H   0  0  0  0  0  0  0  0  0  0  0  0
   59.6390   29.8300   50.4210 C   0  0  0  0  0  0  0  0  0  0  0  0
   59.4760   30.6510   51.5910 N   0  0  0  0  0  0  0  0  0  0  0  0
   58.6170   30.5720   52.7400 C   0  0  0  0  0  0  0  0  0  0  0  0
   58.4950   31.6060   53.4500 O   0  0  0  0  0  0  0  0  0  0  0  0
   57.8400   29.3340   53.1050 C   0  0  0  0  0  0  0  0  0  0  0  0
   58.3422   28.4552   52.6743 H   0  0  0  0  0  0  0  0  0  0  0  0
   57.7995   29.2588   54.2017 H   0  0  0  0  0  0  0  0  0  0  0  0
   56.4540   29.4000   52.5880 N   0  0  0  0  0  0  0  0  0  0  0  0
   56.0100   30.7970   52.4130 C   0  0  0  0  0  0  0  0  0  0  0  0
   55.8865   31.2676   53.3995 H   0  0  0  0  0  0  0  0  0  0  0  0
   56.7639   31.3485   51.8321 H   0  0  0  0  0  0  0  0  0  0  0  0
   54.6650   30.8250   51.6600 C   0  0  0  0  0  0  0  0  0  0  0  0
   54.0708   31.6724   52.0325 H   0  0  0  0  0  0  0  0  0  0  0  0
   54.8870   30.9240   50.5872 H   0  0  0  0  0  0  0  0  0  0  0  0
   53.8850   29.5860   51.8410 N   0  0  0  0  0  0  0  0  0  0  0  0
   54.2210   28.8690   51.1540 H   0  0  0  0  0  0  0  0  0  0  0  0
   54.0450   29.0390   53.1950 C   0  0  0  0  0  0  0  0  0  0  0  0
   53.7010   29.7860   53.9255 H   0  0  0  0  0  0  0  0  0  0  0  0
   53.4490   28.1174   53.2682 H   0  0  0  0  0  0  0  0  0  0  0  0
   55.5210   28.6880   53.4920 C   0  0  0  0  0  0  0  0  0  0  0  0
   55.7503   28.9677   54.5308 H   0  0  0  0  0  0  0  0  0  0  0  0
   55.6518   27.6075   53.3324 H   0  0  0  0  0  0  0  0  0  0  0  0
   60.4270   28.6790   50.5540 C   0  0  0  0  0  0  0  0  0  0  0  0
   60.9402   28.4803   51.5065 H   0  0  0  0  0  0  0  0  0  0  0  0
   60.5700   27.7810   49.4950 C   0  0  0  0  0  0  0  0  0  0  0  0
   61.1789   26.8739   49.6227 H   0  0  0  0  0  0  0  0  0  0  0  0
   57.5550   25.6960   46.9270 N   0  0  0  0  0  0  0  0  0  0  0  0
   56.2300   25.6320   46.6310 C   0  0  0  0  0  0  0  0  0  0  0  0
   55.5110   24.6030   46.9800 N   0  0  0  0  0  0  0  0  0  0  0  0
   54.9640   23.5680   46.0890 C   0  0  0  0  0  0  0  0  0  0  0  0
   55.8286   22.9670   45.7709 H   0  0  0  0  0  0  0  0  0  0  0  0
   54.2600   24.1860   44.8560 C   0  0  0  0  0  0  0  0  0  0  0  0
   54.3479   25.2825   44.8626 H   0  0  0  0  0  0  0  0  0  0  0  0
   54.6994   23.8550   43.9035 H   0  0  0  0  0  0  0  0  0  0  0  0
   52.8470   23.7680   45.0130 C   0  0  0  0  0  0  0  0  0  0  0  0
   51.7690   24.1570   44.2130 C   0  0  0  0  0  0  0  0  0  0  0  0
   51.9214   24.8304   43.3567 H   0  0  0  0  0  0  0  0  0  0  0  0
   50.4890   23.6730   44.5220 C   0  0  0  0  0  0  0  0  0  0  0  0
   49.6271   23.9673   43.9052 H   0  0  0  0  0  0  0  0  0  0  0  0
   50.3060   22.8130   45.6180 C   0  0  0  0  0  0  0  0  0  0  0  0
   49.3010   22.4347   45.8563 H   0  0  0  0  0  0  0  0  0  0  0  0
   51.4020   22.4350   46.4100 C   0  0  0  0  0  0  0  0  0  0  0  0
   51.2671   21.7613   47.2690 H   0  0  0  0  0  0  0  0  0  0  0  0
   52.6670   22.9310   46.0860 C   0  0  0  0  0  0  0  0  0  0  0  0
   53.9320   22.6670   46.8110 C   0  0  0  0  0  0  0  0  0  0  0  0
   53.8419   22.9457   47.8713 H   0  0  0  0  0  0  0  0  0  0  0  0
   54.2144   21.6039   46.8022 H   0  0  0  0  0  0  0  0  0  0  0  0
   55.6420   26.6600   45.9660 N   0  0  0  0  0  0  0  0  0  0  0  0
   57.3420   30.5910   45.0780 C   0  0  0  0  0  0  0  0  0  0  0  0
   57.4918   30.3544   46.1418 H   0  0  0  0  0  0  0  0  0  0  0  0
   58.0070   31.6800   44.5070 C   0  0  0  0  0  0  0  0  0  0  0  0
   58.6591   32.3125   45.1273 H   0  0  0  0  0  0  0  0  0  0  0  0
  1  2  1  0
  2  3  2  0
  3  4  1  0
  3  5  1  0
  5  6  1  0
  5  7  2  0
  7  8  1  0
  8  9  2  3
  9 10  1  0
 10 11  1  0
 11 12  1  0
 12 13  1  0
 13 14  2  0
 14 15  1  0
 14 16  1  0
 16 17  1  0
 16 18  2  0
 18 19  1  0
 19 20  1  0
 20 21  2  0
 20 22  1  0
 22 23  1  0
 22 24  1  0
 22 25  1  0
 25 26  1  0
 26 27  1  0
 26 28  1  0
 26 29  1  0
 29 30  1  0
 29 31  1  0
 29 32  1  0
 32 33  1  0
 32 34  1  0
 34 35  1  0
 34 36  1  0
 34 37  1  0
 37 38  1  0
 37 39  1  0
 18 40  1  0
 40 41  1  0
 40 42  2  0
 42 43  1  0
 11 44  2  0
 44 45  1  0
 45 46  2  0
 46 47  1  0
 47 48  1  0
 47 49  1  0
 49 50  1  0
 49 51  1  0
 49 52  1  0
 52 53  2  0
 53 54  1  0
 53 55  1  0
 55 56  1  0
 55 57  2  0
 57 58  1  0
 57 59  1  0
 59 60  1  0
 59 61  2  0
 61 62  1  0
 62 63  1  0
 62 64  1  0
 45 65  1  0
  7 66  1  0
 66 67  1  0
 66 68  2  0
 68 69  1  0
 68  2  1  0
 65  9  1  0
 42 13  1  0
 62 47  1  0
 37 25  1  0
 61 52  1  0
M  CHG  3  10  -1  19  -1  65  -1
M  END
>  <UniqueID>  (79) 
71

>  <SMILES>  (79) 
O=C(CN1CCNCC1)[N-]c1ccc(Sc2n/c(=N\C3Cc4ccccc4C3)[n-]c(=Nc3ccccc3)[n-]2)cc1

>  <Energy>  (79) 
109.91991449535321

>  <Genealogy>  (79) 
O=C(CN1CCNCC1)[N-]c1ccc(Sc2nc(=NC3Cc4ccccc4C3)[n-]c(=Nc3ccccc3)[n-]2)cc1 (protonated)
O=C(CN1CCNCC1)[N-]c1ccc(Sc2n/c(=N\C3Cc4ccccc4C3)[n-]c(=Nc3ccccc3)[n-]2)cc1 (cis-trans isomerization)
O=C(CN1CCNCC1)[N-]c1ccc(Sc2n/c(=N\C3Cc4ccccc4C3)[n-]c(=Nc3ccccc3)[n-]2)cc1 (3D coordinates assigned)
O=C(CN1CCNCC1)[N-]c1ccc(Sc2n/c(=N\C3Cc4ccccc4C3)[n-]c(=Nc3ccccc3)[n-]2)cc1 (nonaromatic ring conformer: 109.91991449535321 kcal/mol)

>  <smiles>  (79) 
O=C(CN1CCNCC1)Nc1ccc(Sc2nc(=NC3Cc4ccccc4C3)[nH]c(=Nc3ccccc3)[nH]2)cc1

>  <score_type>  (79) 
oracle

>  <origin>  (79) 
adg

>  <m_score__min__energy>  (79) 
-14.5

>  <m_primary>  (79) 
energy

$$$$
79:0
     RDKit          3D

 51 53  0  0  0  0  0  0  0  0999 V2000
   59.2700   35.1750   45.0420 C   0  0  0  0  0  0  0  0  0  0  0  0
   58.8370   33.7760   45.3980 C   0  0  0  0  0  0  0  0  0  0  0  0
   58.4220   32.9310   44.3580 C   0  0  0  0  0  0  0  0  0  0  0  0
   57.9510   31.6450   44.6280 C   0  0  0  0  0  0  0  0  0  0  0  0
   57.8880   31.1760   45.9410 C   0  0  0  0  0  0  0  0  0  0  0  0
   57.3750   29.8570   46.1820 N   0  0  0  0  0  0  0  0  0  0  0  0
   56.6780   29.0280   45.2410 C   0  0  0  0  0  0  0  0  0  0  0  0
   55.5320   29.3800   44.8540 O   0  0  0  0  0  0  0  0  0  0  0  0
   57.2850   27.7660   44.6950 C   0  0  0  0  0  0  0  0  0  0  0  0
   57.2050   26.6850   45.6780 N   0  0  0  0  0  0  0  0  0  0  0  0
   58.2230   25.9530   46.1700 C   0  0  0  0  0  0  0  0  0  0  0  0
   59.5550   26.1280   45.8110 O   0  0  0  0  0  0  0  0  0  0  0  0
   57.7640   25.0080   47.0660 C   0  0  0  0  0  0  0  0  0  0  0  0
   56.3890   25.1710   47.1260 C   0  0  0  0  0  0  0  0  0  0  0  0
   56.0900   26.2070   46.2620 C   0  0  0  0  0  0  0  0  0  0  0  0
   54.8120   26.6950   46.0180 O   0  0  0  0  0  0  0  0  0  0  0  0
   58.2630   32.0260   46.9940 C   0  0  0  0  0  0  0  0  0  0  0  0
   58.7660   33.3100   46.7340 C   0  0  0  0  0  0  0  0  0  0  0  0
   59.1750   34.1440   47.8810 C   0  0  0  0  0  0  0  0  0  0  0  0
   59.4680   35.3530   47.6850 O   0  0  0  0  0  0  0  0  0  0  0  0
   59.2400   33.6200   49.2150 N   0  0  0  0  0  0  0  0  0  0  0  0
   60.4660   33.2300   49.9080 C   0  0  0  0  0  0  0  0  0  0  0  0
   61.6570   34.0540   49.4170 C   0  0  0  0  0  0  0  0  0  0  0  0
   62.8030   33.1680   49.1040 N   0  0  0  0  0  0  0  0  0  0  0  0
   63.7860   33.8120   48.2000 C   0  0  0  0  0  0  0  0  0  0  0  0
   63.5220   33.4890   46.7140 C   0  0  0  0  0  0  0  0  0  0  0  0
   62.1510   33.2290   46.5000 O   0  0  0  0  0  0  0  0  0  0  0  0
   61.7750   32.0190   47.1370 C   0  0  0  0  0  0  0  0  0  0  0  0
   62.3660   31.8690   48.5600 C   0  0  0  0  0  0  0  0  0  0  0  0
   59.4478   35.7494   45.9631 H   0  0  0  0  0  0  0  0  0  0  0  0
   60.1971   35.1328   44.4515 H   0  0  0  0  0  0  0  0  0  0  0  0
   58.4811   35.6639   44.4515 H   0  0  0  0  0  0  0  0  0  0  0  0
   58.4683   33.2858   43.3178 H   0  0  0  0  0  0  0  0  0  0  0  0
   57.6273   30.9968   43.8003 H   0  0  0  0  0  0  0  0  0  0  0  0
   56.7418   27.4682   43.7860 H   0  0  0  0  0  0  0  0  0  0  0  0
   58.3436   27.9548   44.4630 H   0  0  0  0  0  0  0  0  0  0  0  0
   58.3676   24.2741   47.6202 H   0  0  0  0  0  0  0  0  0  0  0  0
   55.6800   24.5932   47.7371 H   0  0  0  0  0  0  0  0  0  0  0  0
   58.1614   31.6817   48.0338 H   0  0  0  0  0  0  0  0  0  0  0  0
   60.3364   33.3929   50.9881 H   0  0  0  0  0  0  0  0  0  0  0  0
   60.6642   32.1681   49.7002 H   0  0  0  0  0  0  0  0  0  0  0  0
   61.3672   34.6059   48.5107 H   0  0  0  0  0  0  0  0  0  0  0  0
   61.9551   34.7576   50.2082 H   0  0  0  0  0  0  0  0  0  0  0  0
   63.7321   34.9018   48.3391 H   0  0  0  0  0  0  0  0  0  0  0  0
   64.7817   33.4206   48.4555 H   0  0  0  0  0  0  0  0  0  0  0  0
   63.8282   34.3468   46.0973 H   0  0  0  0  0  0  0  0  0  0  0  0
   64.1008   32.5959   46.4360 H   0  0  0  0  0  0  0  0  0  0  0  0
   60.6778   31.9883   47.2092 H   0  0  0  0  0  0  0  0  0  0  0  0
   62.1727   31.1927   46.5294 H   0  0  0  0  0  0  0  0  0  0  0  0
   61.5979   31.4441   49.2230 H   0  0  0  0  0  0  0  0  0  0  0  0
   63.2427   31.2072   48.5013 H   0  0  0  0  0  0  0  0  0  0  0  0
  1  2  1  0
  2  3  2  0
  3  4  1  0
  4  5  2  0
  5  6  1  0
  6  7  1  0
  7  8  2  0
  7  9  1  0
  9 10  1  0
 10 11  1  0
 11 12  1  0
 11 13  2  0
 13 14  1  0
 14 15  2  0
 15 16  1  0
  5 17  1  0
 17 18  2  0
 18 19  1  0
 19 20  2  0
 19 21  1  0
 21 22  1  0
 22 23  1  0
 23 24  1  0
 24 25  1  0
 25 26  1  0
 26 27  1  0
 27 28  1  0
 28 29  1  0
 18  2  1  0
 29 24  1  0
 15 10  1  0
  1 30  1  0
  1 31  1  0
  1 32  1  0
  3 33  1  0
  4 34  1  0
  9 35  1  0
  9 36  1  0
 13 37  1  0
 14 38  1  0
 17 39  1  0
 22 40  1  0
 22 41  1  0
 23 42  1  0
 23 43  1  0
 25 44  1  0
 25 45  1  0
 26 46  1  0
 26 47  1  0
 28 48  1  0
 28 49  1  0
 29 50  1  0
 29 51  1  0
M  CHG  4   6  -1  12  -1  16  -1  21  -1
M  END
>  <UniqueID>  (80) 
72

>  <SMILES>  (80) 
Cc1ccc([N-]C(=O)Cn2c([O-])ccc2[O-])cc1C(=O)[N-]CCN1CCOCC1

>  <Energy>  (80) 
96.92580839903547

>  <Genealogy>  (80) 
Cc1ccc([N-]C(=O)Cn2c([O-])ccc2[O-])cc1C(=O)[N-]CCN1CCOCC1 (protonated)
Cc1ccc([N-]C(=O)Cn2c([O-])ccc2[O-])cc1C(=O)[N-]CCN1CCOCC1 (3D coordinates assigned)
Cc1ccc([N-]C(=O)Cn2c([O-])ccc2[O-])cc1C(=O)[N-]CCN1CCOCC1 (nonaromatic ring conformer: 96.92580839903547 kcal/mol)

>  <smiles>  (80) 
Cc1ccc(NC(=O)Cn2c(O)ccc2O)cc1C(=O)NCCN1CCOCC1

>  <score_type>  (80) 
oracle

>  <origin>  (80) 
adg

>  <m_score__min__energy>  (80) 
-15.51

>  <m_primary>  (80) 
energy

$$$$
80:0
     RDKit          3D

 48 51  0  0  0  0  0  0  0  0999 V2000
   59.2580   35.5720   44.7930 O   0  0  0  0  0  0  0  0  0  0  0  0
   59.5550   34.5690   45.4980 C   0  0  0  0  0  0  0  0  0  0  0  0
   60.6340   34.6420   46.3820 C   0  0  0  0  0  0  0  0  0  0  0  0
   60.9600   33.5220   47.1710 C   0  0  0  0  0  0  0  0  0  0  0  0
   62.0700   33.5420   48.0970 N   0  0  0  0  0  0  0  0  0  0  0  0
   61.9930   34.2760   49.3680 C   0  0  0  0  0  0  0  0  0  0  0  0
   62.9760   33.6910   50.3850 C   0  0  0  0  0  0  0  0  0  0  0  0
   64.2720   33.5850   49.8300 O   0  0  0  0  0  0  0  0  0  0  0  0
   64.2610   32.6330   48.7840 C   0  0  0  0  0  0  0  0  0  0  0  0
   63.3930   33.1140   47.6190 C   0  0  0  0  0  0  0  0  0  0  0  0
   60.2360   32.4110   47.0550 O   0  0  0  0  0  0  0  0  0  0  0  0
   59.2010   32.2960   46.2280 C   0  0  0  0  0  0  0  0  0  0  0  0
   58.4970   31.0900   46.1710 C   0  0  0  0  0  0  0  0  0  0  0  0
   57.3950   30.9500   45.3140 C   0  0  0  0  0  0  0  0  0  0  0  0
   56.6590   29.7250   45.2360 N   0  0  0  0  0  0  0  0  0  0  0  0
   57.3880   28.1500   45.2380 S   0  0  0  0  0  0  0  0  0  0  0  0
   56.3070   27.1100   45.3530 O   0  0  0  0  0  0  0  0  0  0  0  0
   58.1030   27.9460   43.9320 O   0  0  0  0  0  0  0  0  0  0  0  0
   58.5500   27.9660   46.5480 C   0  0  0  0  0  0  0  0  0  0  0  0
   58.3640   28.6610   47.7500 C   0  0  0  0  0  0  0  0  0  0  0  0
   59.2370   28.4590   48.8250 C   0  0  0  0  0  0  0  0  0  0  0  0
   60.3100   27.5520   48.7080 C   0  0  0  0  0  0  0  0  0  0  0  0
   61.2000   27.2880   49.7620 O   0  0  0  0  0  0  0  0  0  0  0  0
   61.4350   28.1490   50.8750 C   0  0  0  0  0  0  0  0  0  0  0  0
   62.4660   27.6500   51.6520 F   0  0  0  0  0  0  0  0  0  0  0  0
   60.2880   28.2130   51.6410 F   0  0  0  0  0  0  0  0  0  0  0  0
   61.7490   29.4250   50.4350 F   0  0  0  0  0  0  0  0  0  0  0  0
   60.5000   26.8750   47.4960 C   0  0  0  0  0  0  0  0  0  0  0  0
   59.6270   27.0780   46.4220 C   0  0  0  0  0  0  0  0  0  0  0  0
   57.0330   32.0170   44.4790 C   0  0  0  0  0  0  0  0  0  0  0  0
   57.7310   33.2280   44.5290 C   0  0  0  0  0  0  0  0  0  0  0  0
   58.8180   33.3780   45.4080 C   0  0  0  0  0  0  0  0  0  0  0  0
   61.2243   35.5668   46.4612 H   0  0  0  0  0  0  0  0  0  0  0  0
   62.2411   35.3330   49.1913 H   0  0  0  0  0  0  0  0  0  0  0  0
   60.9723   34.1881   49.7684 H   0  0  0  0  0  0  0  0  0  0  0  0
   63.0145   34.3469   51.2672 H   0  0  0  0  0  0  0  0  0  0  0  0
   62.6317   32.6856   50.6687 H   0  0  0  0  0  0  0  0  0  0  0  0
   65.2898   32.4780   48.4269 H   0  0  0  0  0  0  0  0  0  0  0  0
   63.8428   31.6914   49.1693 H   0  0  0  0  0  0  0  0  0  0  0  0
   63.8898   33.9620   47.1249 H   0  0  0  0  0  0  0  0  0  0  0  0
   63.2606   32.2829   46.9107 H   0  0  0  0  0  0  0  0  0  0  0  0
   58.8090   30.2449   46.8023 H   0  0  0  0  0  0  0  0  0  0  0  0
   57.5279   29.3688   47.8494 H   0  0  0  0  0  0  0  0  0  0  0  0
   59.0854   29.0100   49.7649 H   0  0  0  0  0  0  0  0  0  0  0  0
   61.3436   26.1773   47.3881 H   0  0  0  0  0  0  0  0  0  0  0  0
   59.7862   26.5393   45.4762 H   0  0  0  0  0  0  0  0  0  0  0  0
   56.1928   31.9005   43.7786 H   0  0  0  0  0  0  0  0  0  0  0  0
   57.4293   34.0635   43.8802 H   0  0  0  0  0  0  0  0  0  0  0  0
  1  2  2  0
  2  3  1  0
  3  4  2  0
  4  5  1  0
  5  6  1  0
  6  7  1  0
  7  8  1  0
  8  9  1  0
  9 10  1  0
  4 11  1  0
 11 12  1  0
 12 13  2  0
 13 14  1  0
 14 15  1  0
 15 16  1  0
 16 17  2  0
 16 18  2  0
 16 19  1  0
 19 20  2  0
 20 21  1  0
 21 22  2  0
 22 23  1  0
 23 24  1  0
 24 25  1  0
 24 26  1  0
 24 27  1  0
 22 28  1  0
 28 29  2  0
 14 30  2  0
 30 31  1  0
 31 32  2  0
 32  2  1  0
 10  5  1  0
 32 12  1  0
 29 19  1  0
  3 33  1  0
  6 34  1  0
  6 35  1  0
  7 36  1  0
  7 37  1  0
  9 38  1  0
  9 39  1  0
 10 40  1  0
 10 41  1  0
 13 42  1  0
 20 43  1  0
 21 44  1  0
 28 45  1  0
 29 46  1  0
 30 47  1  0
 31 48  1  0
M  CHG  1  15  -1
M  END
>  <UniqueID>  (81) 
73

>  <SMILES>  (81) 
O=c1cc(N2CCOCC2)oc2cc([N-]S(=O)(=O)c3ccc(OC(F)(F)F)cc3)ccc12

>  <Energy>  (81) 
68.1113524735249

>  <Genealogy>  (81) 
O=c1cc(N2CCOCC2)oc2cc([N-]S(=O)(=O)c3ccc(OC(F)(F)F)cc3)ccc12 (protonated)
O=c1cc(N2CCOCC2)oc2cc([N-]S(=O)(=O)c3ccc(OC(F)(F)F)cc3)ccc12 (3D coordinates assigned)
O=c1cc(N2CCOCC2)oc2cc([N-]S(=O)(=O)c3ccc(OC(F)(F)F)cc3)ccc12 (nonaromatic ring conformer: 68.1113524735249 kcal/mol)

>  <smiles>  (81) 
O=c1cc(N2CCOCC2)oc2cc(NS(=O)(=O)c3ccc(OC(F)(F)F)cc3)ccc12

>  <score_type>  (81) 
oracle

>  <origin>  (81) 
adg

>  <m_score__min__energy>  (81) 
-9.4199999999999999

>  <m_primary>  (81) 
energy

$$$$
81:0
     RDKit          3D

 54 57  0  0  0  0  0  0  0  0999 V2000
   63.4420   33.1450   46.7130 C   0  0  0  0  0  0  0  0  0  0  0  0
   62.9070   33.0200   48.0250 O   0  0  0  0  0  0  0  0  0  0  0  0
   63.2670   31.9810   48.8890 C   0  0  0  0  0  0  0  0  0  0  0  0
   64.4220   31.9450   49.3970 O   0  0  0  0  0  0  0  0  0  0  0  0
   62.2960   30.9220   49.2170 C   0  0  0  0  0  0  0  0  0  0  0  0
   62.2000   30.4050   50.5170 C   0  0  0  0  0  0  0  0  0  0  0  0
   61.2760   29.3970   50.7850 C   0  0  0  0  0  0  0  0  0  0  0  0
   60.4560   28.9120   49.7670 C   0  0  0  0  0  0  0  0  0  0  0  0
   60.5690   29.4490   48.4730 C   0  0  0  0  0  0  0  0  0  0  0  0
   59.7270   28.9720   47.3530 C   0  0  0  0  0  0  0  0  0  0  0  0
   58.3420   28.9820   47.3010 C   0  0  0  0  0  0  0  0  0  0  0  0
   57.9990   28.4410   46.0750 C   0  0  0  0  0  0  0  0  0  0  0  0
   56.6350   28.2580   45.5400 C   0  0  0  0  0  0  0  0  0  0  0  0
   56.0620   27.1450   45.6720 O   0  0  0  0  0  0  0  0  0  0  0  0
   55.9650   29.3040   44.8230 N   0  0  0  0  0  0  0  0  0  0  0  0
   56.6330   30.4040   44.1930 C   0  0  0  0  0  0  0  0  0  0  0  0
   56.7330   30.4840   42.7940 C   0  0  0  0  0  0  0  0  0  0  0  0
   57.3450   31.5880   42.1950 C   0  0  0  0  0  0  0  0  0  0  0  0
   57.8510   32.6200   42.9890 C   0  0  0  0  0  0  0  0  0  0  0  0
   57.7630   32.5460   44.3850 C   0  0  0  0  0  0  0  0  0  0  0  0
   58.3130   33.9040   45.3590 S   0  0  0  0  0  0  0  0  0  0  0  0
   57.2780   34.1870   46.4120 O   0  0  0  0  0  0  0  0  0  0  0  0
   58.4760   35.1240   44.4950 O   0  0  0  0  0  0  0  0  0  0  0  0
   59.8380   33.4830   46.1120 N   0  0  0  0  0  0  0  0  0  0  0  0
   60.3560   34.5740   46.9680 C   0  0  0  0  0  0  0  0  0  0  0  0
   60.0930   34.3340   48.4640 C   0  0  0  0  0  0  0  0  0  0  0  0
   58.8760   33.6480   48.6390 O   0  0  0  0  0  0  0  0  0  0  0  0
   58.9940   32.3150   48.1690 C   0  0  0  0  0  0  0  0  0  0  0  0
   59.7540   32.1970   46.8250 C   0  0  0  0  0  0  0  0  0  0  0  0
   57.1740   31.4230   44.9850 C   0  0  0  0  0  0  0  0  0  0  0  0
   59.1800   28.1440   45.4230 C   0  0  0  0  0  0  0  0  0  0  0  0
   60.2250   28.4630   46.2070 N   0  0  0  0  0  0  0  0  0  0  0  0
   61.4840   30.4300   48.2410 N   0  0  0  0  0  0  0  0  0  0  0  0
   64.5114   33.3949   46.7754 H   0  0  0  0  0  0  0  0  0  0  0  0
   63.3185   32.1938   46.1745 H   0  0  0  0  0  0  0  0  0  0  0  0
   62.9098   33.9430   46.1745 H   0  0  0  0  0  0  0  0  0  0  0  0
   62.8479   30.7915   51.3175 H   0  0  0  0  0  0  0  0  0  0  0  0
   61.1934   28.9834   51.8009 H   0  0  0  0  0  0  0  0  0  0  0  0
   59.7264   28.1154   49.9749 H   0  0  0  0  0  0  0  0  0  0  0  0
   57.6542   29.3467   48.0781 H   0  0  0  0  0  0  0  0  0  0  0  0
   56.3282   29.6750   42.1682 H   0  0  0  0  0  0  0  0  0  0  0  0
   57.4283   31.6445   41.0996 H   0  0  0  0  0  0  0  0  0  0  0  0
   58.3207   33.4948   42.5157 H   0  0  0  0  0  0  0  0  0  0  0  0
   61.4415   34.6585   46.8112 H   0  0  0  0  0  0  0  0  0  0  0  0
   59.8294   35.4968   46.6831 H   0  0  0  0  0  0  0  0  0  0  0  0
   60.9126   33.7335   48.8854 H   0  0  0  0  0  0  0  0  0  0  0  0
   60.0357   35.3043   48.9789 H   0  0  0  0  0  0  0  0  0  0  0  0
   59.5323   31.7257   48.9259 H   0  0  0  0  0  0  0  0  0  0  0  0
   57.9736   31.9420   47.9966 H   0  0  0  0  0  0  0  0  0  0  0  0
   60.7739   31.8376   47.0264 H   0  0  0  0  0  0  0  0  0  0  0  0
   59.1979   31.4953   46.1860 H   0  0  0  0  0  0  0  0  0  0  0  0
   57.1373   31.3432   46.0815 H   0  0  0  0  0  0  0  0  0  0  0  0
   59.2545   27.7116   44.4143 H   0  0  0  0  0  0  0  0  0  0  0  0
   61.2330   28.3400   45.9630 H   0  0  0  0  0  0  0  0  0  0  0  0
  1  2  1  0
  2  3  1  0
  3  4  2  0
  3  5  1  0
  5  6  2  0
  6  7  1  0
  7  8  2  0
  8  9  1  0
  9 10  1  0
 10 11  2  0
 11 12  1  0
 12 13  1  0
 13 14  2  0
 13 15  1  0
 15 16  1  0
 16 17  2  0
 17 18  1  0
 18 19  2  0
 19 20  1  0
 20 21  1  0
 21 22  2  0
 21 23  2  0
 21 24  1  0
 24 25  1  0
 25 26  1  0
 26 27  1  0
 27 28  1  0
 28 29  1  0
 20 30  2  0
 12 31  2  0
 31 32  1  0
  9 33  2  0
 33  5  1  0
 32 10  1  0
 30 16  1  0
 29 24  1  0
  1 34  1  0
  1 35  1  0
  1 36  1  0
  6 37  1  0
  7 38  1  0
  8 39  1  0
 11 40  1  0
 17 41  1  0
 18 42  1  0
 19 43  1  0
 25 44  1  0
 25 45  1  0
 26 46  1  0
 26 47  1  0
 28 48  1  0
 28 49  1  0
 29 50  1  0
 29 51  1  0
 30 52  1  0
 31 53  1  0
 32 54  1  0
M  CHG  1  15  -1
M  END
>  <UniqueID>  (82) 
74

>  <SMILES>  (82) 
COC(=O)c1cccc(-c2cc(C(=O)[N-]c3cccc(S(=O)(=O)N4CCOCC4)c3)c[nH]2)n1

>  <Energy>  (82) 
96.82514428818463

>  <Genealogy>  (82) 
COC(=O)c1cccc(-c2cc(C(=O)[N-]c3cccc(S(=O)(=O)N4CCOCC4)c3)c[nH]2)n1 (protonated)
COC(=O)c1cccc(-c2cc(C(=O)[N-]c3cccc(S(=O)(=O)N4CCOCC4)c3)c[nH]2)n1 (3D coordinates assigned)
COC(=O)c1cccc(-c2cc(C(=O)[N-]c3cccc(S(=O)(=O)N4CCOCC4)c3)c[nH]2)n1 (nonaromatic ring conformer: 96.82514428818463 kcal/mol)

>  <smiles>  (82) 
COC(=O)c1cccc(-c2cc(C(=O)Nc3cccc(S(=O)(=O)N4CCOCC4)c3)c[nH]2)n1

>  <score_type>  (82) 
oracle

>  <origin>  (82) 
adg

>  <m_score__min__energy>  (82) 
-11.279999999999999

>  <m_primary>  (82) 
energy

$$$$
82:0
     RDKit          3D

 45 47  0  0  0  0  0  0  0  0999 V2000
   58.6340   32.0100   49.3630 C   0  0  0  0  0  0  0  0  0  0  0  0
   58.1410   31.8770   48.0340 O   0  0  0  0  0  0  0  0  0  0  0  0
   58.3820   32.7930   46.9980 C   0  0  0  0  0  0  0  0  0  0  0  0
   59.0340   34.0220   47.2230 C   0  0  0  0  0  0  0  0  0  0  0  0
   59.2480   34.9100   46.1670 C   0  0  0  0  0  0  0  0  0  0  0  0
   58.8200   34.5850   44.8810 C   0  0  0  0  0  0  0  0  0  0  0  0
   58.1770   33.3680   44.6440 C   0  0  0  0  0  0  0  0  0  0  0  0
   57.9560   32.4620   45.7000 C   0  0  0  0  0  0  0  0  0  0  0  0
   57.3210   31.2270   45.5030 O   0  0  0  0  0  0  0  0  0  0  0  0
   56.5660   30.8750   44.3460 C   0  0  0  0  0  0  0  0  0  0  0  0
   56.6250   29.3640   44.1250 C   0  0  0  0  0  0  0  0  0  0  0  0
   55.9090   28.6590   45.1840 N   0  0  0  0  0  0  0  0  0  0  0  0
   56.2560   27.3500   45.6450 C   0  0  0  0  0  0  0  0  0  0  0  0
   55.3630   26.5610   46.0550 O   0  0  0  0  0  0  0  0  0  0  0  0
   57.6950   26.9370   45.6820 C   0  0  0  0  0  0  0  0  0  0  0  0
   58.3100   26.8130   47.4000 S   0  0  0  0  0  0  0  0  0  0  0  0
   59.3930   28.2390   47.2880 C   0  0  0  0  0  0  0  0  0  0  0  0
   59.6030   28.8780   46.0660 C   0  0  0  0  0  0  0  0  0  0  0  0
   60.4260   30.0020   46.0200 C   0  0  0  0  0  0  0  0  0  0  0  0
   61.0350   30.4550   47.1990 C   0  0  0  0  0  0  0  0  0  0  0  0
   61.8950   31.6540   47.2290 C   0  0  0  0  0  0  0  0  0  0  0  0
   63.0980   31.8060   47.8980 C   0  0  0  0  0  0  0  0  0  0  0  0
   63.5220   33.0860   47.6150 C   0  0  0  0  0  0  0  0  0  0  0  0
   62.5590   33.6370   46.7950 C   0  0  0  0  0  0  0  0  0  0  0  0
   61.6060   32.7600   46.5830 O   0  0  0  0  0  0  0  0  0  0  0  0
   60.8120   29.7750   48.3550 N   0  0  0  0  0  0  0  0  0  0  0  0
   60.0190   28.7040   48.4000 N   0  0  0  0  0  0  0  0  0  0  0  0
   57.8263   31.7921   50.0772 H   0  0  0  0  0  0  0  0  0  0  0  0
   59.4622   31.3032   49.5193 H   0  0  0  0  0  0  0  0  0  0  0  0
   58.9944   33.0375   49.5193 H   0  0  0  0  0  0  0  0  0  0  0  0
   59.3759   34.2829   48.2354 H   0  0  0  0  0  0  0  0  0  0  0  0
   59.7556   35.8685   46.3504 H   0  0  0  0  0  0  0  0  0  0  0  0
   58.9888   35.2878   44.0518 H   0  0  0  0  0  0  0  0  0  0  0  0
   57.8413   33.1155   43.6273 H   0  0  0  0  0  0  0  0  0  0  0  0
   55.5192   31.1823   44.4864 H   0  0  0  0  0  0  0  0  0  0  0  0
   56.9895   31.3857   43.4686 H   0  0  0  0  0  0  0  0  0  0  0  0
   56.1648   29.1227   43.1555 H   0  0  0  0  0  0  0  0  0  0  0  0
   57.6779   29.0457   44.1376 H   0  0  0  0  0  0  0  0  0  0  0  0
   57.7987   25.9571   45.1932 H   0  0  0  0  0  0  0  0  0  0  0  0
   58.2877   27.7002   45.1565 H   0  0  0  0  0  0  0  0  0  0  0  0
   59.1252   28.4997   45.1503 H   0  0  0  0  0  0  0  0  0  0  0  0
   60.5959   30.5280   45.0690 H   0  0  0  0  0  0  0  0  0  0  0  0
   63.6087   31.0601   48.5248 H   0  0  0  0  0  0  0  0  0  0  0  0
   64.4429   33.5709   47.9711 H   0  0  0  0  0  0  0  0  0  0  0  0
   62.5859   34.6561   46.3819 H   0  0  0  0  0  0  0  0  0  0  0  0
  1  2  1  0
  2  3  1  0
  3  4  2  0
  4  5  1  0
  5  6  2  0
  6  7  1  0
  7  8  2  0
  8  9  1  0
  9 10  1  0
 10 11  1  0
 11 12  1  0
 12 13  1  0
 13 14  2  0
 13 15  1  0
 15 16  1  0
 16 17  1  0
 17 18  2  0
 18 19  1  0
 19 20  2  0
 20 21  1  0
 21 22  2  0
 22 23  1  0
 23 24  2  0
 24 25  1  0
 20 26  1  0
 26 27  2  0
  8  3  1  0
 27 17  1  0
 25 21  1  0
  1 28  1  0
  1 29  1  0
  1 30  1  0
  4 31  1  0
  5 32  1  0
  6 33  1  0
  7 34  1  0
 10 35  1  0
 10 36  1  0
 11 37  1  0
 11 38  1  0
 15 39  1  0
 15 40  1  0
 18 41  1  0
 19 42  1  0
 22 43  1  0
 23 44  1  0
 24 45  1  0
M  CHG  1  12  -1
M  END
>  <UniqueID>  (83) 
75

>  <SMILES>  (83) 
COc1ccccc1OCC[N-]C(=O)CSc1ccc(-c2ccco2)nn1

>  <Energy>  (83) 
64.4372071096098

>  <Genealogy>  (83) 
COc1ccccc1OCC[N-]C(=O)CSc1ccc(-c2ccco2)nn1 (protonated)
COc1ccccc1OCC[N-]C(=O)CSc1ccc(-c2ccco2)nn1 (3D coordinates assigned)
COc1ccccc1OCC[N-]C(=O)CSc1ccc(-c2ccco2)nn1 (optimized conformer: 64.4372071096098 kcal/mol)

>  <smiles>  (83) 
COc1ccccc1OCCNC(=O)CSc1ccc(-c2ccco2)nn1

>  <score_type>  (83) 
oracle

>  <origin>  (83) 
adg

>  <m_score__min__energy>  (83) 
-10.32

>  <m_primary>  (83) 
energy

$$$$
83:0
     RDKit          3D

 50 54  0  0  0  0  0  0  0  0999 V2000
   57.4160   33.2410   44.4450 O   0  0  0  0  0  0  0  0  0  0  0  0
   57.7110   32.0980   44.8810 C   0  0  0  0  0  0  0  0  0  0  0  0
   58.9870   31.8570   45.3960 C   0  0  0  0  0  0  0  0  0  0  0  0
   59.3140   30.5780   45.8680 C   0  0  0  0  0  0  0  0  0  0  0  0
   60.6920   30.3530   46.4430 C   0  0  0  0  0  0  0  0  0  0  0  0
   60.5790   29.2820   47.9130 S   0  0  0  0  0  0  0  0  0  0  0  0
   60.1990   30.6540   49.0270 C   0  0  0  0  0  0  0  0  0  0  0  0
   59.0540   30.5480   49.7580 N   0  0  0  0  0  0  0  0  0  0  0  0
   58.6620   31.5230   50.6150 C   0  0  0  0  0  0  0  0  0  0  0  0
   57.4760   31.3860   51.3560 C   0  0  0  0  0  0  0  0  0  0  0  0
   57.0750   32.3950   52.2350 C   0  0  0  0  0  0  0  0  0  0  0  0
   57.8530   33.5450   52.3820 C   0  0  0  0  0  0  0  0  0  0  0  0
   59.0370   33.6890   51.6520 C   0  0  0  0  0  0  0  0  0  0  0  0
   59.4490   32.6760   50.7620 C   0  0  0  0  0  0  0  0  0  0  0  0
   60.6320   32.7780   50.0110 C   0  0  0  0  0  0  0  0  0  0  0  0
   61.3480   33.8100   50.1370 O   0  0  0  0  0  0  0  0  0  0  0  0
   61.0090   31.7660   49.1480 N   0  0  0  0  0  0  0  0  0  0  0  0
   62.2770   31.8760   48.3690 C   0  0  0  0  0  0  0  0  0  0  0  0
   63.5000   32.1230   49.2630 C   0  0  0  0  0  0  0  0  0  0  0  0
   64.3760   33.0980   48.4960 C   0  0  0  0  0  0  0  0  0  0  0  0
   63.4310   33.9120   47.6280 C   0  0  0  0  0  0  0  0  0  0  0  0
   62.2440   33.0040   47.3240 C   0  0  0  0  0  0  0  0  0  0  0  0
   58.3200   29.5700   45.8350 C   0  0  0  0  0  0  0  0  0  0  0  0
   58.5330   28.2610   46.3160 C   0  0  0  0  0  0  0  0  0  0  0  0
   57.5120   27.3100   46.2540 C   0  0  0  0  0  0  0  0  0  0  0  0
   56.2700   27.6440   45.7130 C   0  0  0  0  0  0  0  0  0  0  0  0
   55.2590   26.6920   45.6530 O   0  0  0  0  0  0  0  0  0  0  0  0
   56.0390   28.9360   45.2360 C   0  0  0  0  0  0  0  0  0  0  0  0
   57.0510   29.9010   45.2960 C   0  0  0  0  0  0  0  0  0  0  0  0
   56.8060   31.1280   44.8480 O   0  0  0  0  0  0  0  0  0  0  0  0
   59.7311   32.6663   45.4310 H   0  0  0  0  0  0  0  0  0  0  0  0
   61.3289   29.8701   45.6872 H   0  0  0  0  0  0  0  0  0  0  0  0
   61.1283   31.3209   46.7310 H   0  0  0  0  0  0  0  0  0  0  0  0
   58.4610   29.6940   49.6440 H   0  0  0  0  0  0  0  0  0  0  0  0
   56.8611   30.4809   51.2435 H   0  0  0  0  0  0  0  0  0  0  0  0
   56.1452   32.2833   52.8120 H   0  0  0  0  0  0  0  0  0  0  0  0
   57.5341   34.3391   53.0732 H   0  0  0  0  0  0  0  0  0  0  0  0
   59.6487   34.5952   51.7725 H   0  0  0  0  0  0  0  0  0  0  0  0
   62.3653   30.9024   47.8647 H   0  0  0  0  0  0  0  0  0  0  0  0
   63.1910   32.5589   50.2245 H   0  0  0  0  0  0  0  0  0  0  0  0
   64.0336   31.1883   49.4903 H   0  0  0  0  0  0  0  0  0  0  0  0
   64.9178   33.7550   49.1922 H   0  0  0  0  0  0  0  0  0  0  0  0
   65.1301   32.5737   47.8907 H   0  0  0  0  0  0  0  0  0  0  0  0
   63.0958   34.8100   48.1676 H   0  0  0  0  0  0  0  0  0  0  0  0
   63.9248   34.2489   46.7046 H   0  0  0  0  0  0  0  0  0  0  0  0
   61.3034   33.5687   47.4042 H   0  0  0  0  0  0  0  0  0  0  0  0
   62.3033   32.6010   46.3022 H   0  0  0  0  0  0  0  0  0  0  0  0
   59.5094   27.9876   46.7426 H   0  0  0  0  0  0  0  0  0  0  0  0
   57.6879   26.2927   46.6336 H   0  0  0  0  0  0  0  0  0  0  0  0
   55.0581   29.1962   44.8116 H   0  0  0  0  0  0  0  0  0  0  0  0
  1  2  2  0
  2  3  1  0
  3  4  2  0
  4  5  1  0
  5  6  1  0
  6  7  1  0
  7  8  2  0
  8  9  1  0
  9 10  2  0
 10 11  1  0
 11 12  2  0
 12 13  1  0
 13 14  2  0
 14 15  1  0
 15 16  2  0
 15 17  1  0
 17 18  1  0
 18 19  1  0
 19 20  1  0
 20 21  1  0
 21 22  1  0
  4 23  1  0
 23 24  2  0
 24 25  1  0
 25 26  2  0
 26 27  1  0
 26 28  1  0
 28 29  2  0
 29 30  1  0
 30  2  1  0
 17  7  1  0
 22 18  1  0
 29 23  1  0
 14  9  1  0
  3 31  1  0
  5 32  1  0
  5 33  1  0
  8 34  1  0
 10 35  1  0
 11 36  1  0
 12 37  1  0
 13 38  1  0
 18 39  1  0
 19 40  1  0
 19 41  1  0
 20 42  1  0
 20 43  1  0
 21 44  1  0
 21 45  1  0
 22 46  1  0
 22 47  1  0
 24 48  1  0
 25 49  1  0
 28 50  1  0
M  CHG  2   8   1  27  -1
M  END
>  <UniqueID>  (84) 
76

>  <SMILES>  (84) 
O=c1cc(CSc2[nH+]c3ccccc3c(=O)n2C2CCCC2)c2ccc([O-])cc2o1

>  <Energy>  (84) 
70.43450348901546

>  <Genealogy>  (84) 
O=c1cc(CSc2[nH+]c3ccccc3c(=O)n2C2CCCC2)c2ccc([O-])cc2o1 (protonated)
O=c1cc(CSc2[nH+]c3ccccc3c(=O)n2C2CCCC2)c2ccc([O-])cc2o1 (3D coordinates assigned)
O=c1cc(CSc2[nH+]c3ccccc3c(=O)n2C2CCCC2)c2ccc([O-])cc2o1 (nonaromatic ring conformer: 70.43450348901546 kcal/mol)

>  <smiles>  (84) 
O=c1cc(CSc2nc3ccccc3c(=O)n2C2CCCC2)c2ccc(O)cc2o1

>  <score_type>  (84) 
oracle

>  <origin>  (84) 
adg

>  <m_score__min__energy>  (84) 
-10.289999999999999

>  <m_primary>  (84) 
energy

$$$$
84:0
     RDKit          3D

 57 59  0  0  0  0  0  0  0  0999 V2000
   58.3722   34.8996   44.2046 H   0  0  0  0  0  0  0  0  0  0  0  0
   58.5180   34.5460   45.2360 C   0  0  0  0  0  0  0  0  0  0  0  0
   59.5650   35.0570   46.0080 C   0  0  0  0  0  0  0  0  0  0  0  0
   60.2415   35.8143   45.5852 H   0  0  0  0  0  0  0  0  0  0  0  0
   59.7520   34.6060   47.3160 C   0  0  0  0  0  0  0  0  0  0  0  0
   60.5804   35.0055   47.9195 H   0  0  0  0  0  0  0  0  0  0  0  0
   58.8880   33.6450   47.8650 C   0  0  0  0  0  0  0  0  0  0  0  0
   59.0830   33.1870   49.2850 C   0  0  0  0  0  0  0  0  0  0  0  0
   58.8380   34.0115   49.9707 H   0  0  0  0  0  0  0  0  0  0  0  0
   60.1309   32.8837   49.4261 H   0  0  0  0  0  0  0  0  0  0  0  0
   58.2130   32.0500   49.5660 N   0  0  0  0  0  0  0  0  0  0  0  0
   58.6840   30.8380   50.1590 C   0  0  0  0  0  0  0  0  0  0  0  0
   57.8810   30.0760   50.7610 O   0  0  0  0  0  0  0  0  0  0  0  0
   60.1520   30.5220   50.1140 C   0  0  0  0  0  0  0  0  0  0  0  0
   60.3182   29.5354   50.5712 H   0  0  0  0  0  0  0  0  0  0  0  0
   60.6884   31.3083   50.6654 H   0  0  0  0  0  0  0  0  0  0  0  0
   60.6640   30.5000   48.7330 N   0  0  0  0  0  0  0  0  0  0  0  0
   60.0710   29.6550   47.7150 C   0  0  0  0  0  0  0  0  0  0  0  0
   60.5340   28.4970   47.5290 O   0  0  0  0  0  0  0  0  0  0  0  0
   58.9530   30.1270   46.8110 C   0  0  0  0  0  0  0  0  0  0  0  0
   58.1169   30.4743   47.4357 H   0  0  0  0  0  0  0  0  0  0  0  0
   59.3510   30.9367   46.1817 H   0  0  0  0  0  0  0  0  0  0  0  0
   58.4440   29.0190   45.8790 C   0  0  0  0  0  0  0  0  0  0  0  0
   59.1386   28.9151   45.0324 H   0  0  0  0  0  0  0  0  0  0  0  0
   58.3870   28.0814   46.4515 H   0  0  0  0  0  0  0  0  0  0  0  0
   57.0760   29.3380   45.3530 C   0  0  0  0  0  0  0  0  0  0  0  0
   56.8030   30.5220   45.0170 O   0  0  0  0  0  0  0  0  0  0  0  0
   56.1050   28.2840   45.2450 N   0  0  0  0  0  0  0  0  0  0  0  0
   56.2010   27.0600   45.6760 C   0  0  0  0  0  0  0  0  0  0  0  0
   55.1320   26.3710   46.1200 N   0  0  0  0  0  0  0  0  0  0  0  0
   55.5610   25.1880   46.4570 O   0  0  0  0  0  0  0  0  0  0  0  0
   56.8530   25.0770   46.2450 C   0  0  0  0  0  0  0  0  0  0  0  0
   57.6380   23.8330   46.4920 C   0  0  0  0  0  0  0  0  0  0  0  0
   57.7393   23.6724   47.5755 H   0  0  0  0  0  0  0  0  0  0  0  0
   57.1172   22.9753   46.0413 H   0  0  0  0  0  0  0  0  0  0  0  0
   58.6364   23.9339   46.0413 H   0  0  0  0  0  0  0  0  0  0  0  0
   57.3370   26.2650   45.7280 C   0  0  0  0  0  0  0  0  0  0  0  0
   58.3660   26.5168   45.4319 H   0  0  0  0  0  0  0  0  0  0  0  0
   61.7270   31.4100   48.3660 C   0  0  0  0  0  0  0  0  0  0  0  0
   61.6520   32.1050   47.1450 C   0  0  0  0  0  0  0  0  0  0  0  0
   60.7884   31.9506   46.4814 H   0  0  0  0  0  0  0  0  0  0  0  0
   62.6650   32.9890   46.7690 C   0  0  0  0  0  0  0  0  0  0  0  0
   62.5954   33.5280   45.8126 H   0  0  0  0  0  0  0  0  0  0  0  0
   63.7660   33.1910   47.6030 C   0  0  0  0  0  0  0  0  0  0  0  0
   64.5695   33.8767   47.2961 H   0  0  0  0  0  0  0  0  0  0  0  0
   63.8480   32.5230   48.8270 C   0  0  0  0  0  0  0  0  0  0  0  0
   64.7093   32.6984   49.4883 H   0  0  0  0  0  0  0  0  0  0  0  0
   62.8340   31.6250   49.2210 C   0  0  0  0  0  0  0  0  0  0  0  0
   62.8950   30.9440   50.4480 O   0  0  0  0  0  0  0  0  0  0  0  0
   64.0720   30.7920   51.2390 C   0  0  0  0  0  0  0  0  0  0  0  0
   63.8041   30.8266   52.3053 H   0  0  0  0  0  0  0  0  0  0  0  0
   64.5448   29.8253   51.0109 H   0  0  0  0  0  0  0  0  0  0  0  0
   64.7749   31.6068   51.0109 H   0  0  0  0  0  0  0  0  0  0  0  0
   57.8360   33.1400   47.0850 C   0  0  0  0  0  0  0  0  0  0  0  0
   57.1507   32.3905   47.5075 H   0  0  0  0  0  0  0  0  0  0  0  0
   57.6570   33.5870   45.7730 C   0  0  0  0  0  0  0  0  0  0  0  0
   56.8363   33.1826   45.1623 H   0  0  0  0  0  0  0  0  0  0  0  0
  1  2  1  0
  2  3  2  0
  3  4  1  0
  3  5  1  0
  5  6  1  0
  5  7  2  0
  7  8  1  0
  8  9  1  0
  8 10  1  0
  8 11  1  0
 11 12  1  0
 12 13  2  0
 12 14  1  0
 14 15  1  0
 14 16  1  0
 14 17  1  0
 17 18  1  0
 18 19  2  0
 18 20  1  0
 20 21  1  0
 20 22  1  0
 20 23  1  0
 23 24  1  0
 23 25  1  0
 23 26  1  0
 26 27  2  0
 26 28  1  0
 28 29  2  0
 29 30  1  0
 30 31  1  0
 31 32  1  0
 32 33  1  0
 33 34  1  0
 33 35  1  0
 33 36  1  0
 32 37  2  0
 37 38  1  0
 17 39  1  0
 39 40  2  0
 40 41  1  0
 40 42  1  0
 42 43  1  0
 42 44  2  0
 44 45  1  0
 44 46  1  0
 46 47  1  0
 46 48  2  0
 48 49  1  0
 49 50  1  0
 50 51  1  0
 50 52  1  0
 50 53  1  0
  7 54  1  0
 54 55  1  0
 54 56  2  0
 56 57  1  0
 56  2  1  0
 37 29  1  0
 48 39  1  0
M  CHG  2  11  -1  30  -1
M  END
>  <UniqueID>  (85) 
77

>  <SMILES>  (85) 
COc1ccccc1N(CC(=O)[N-]Cc1ccccc1)C(=O)CCC(=O)/N=c1\cc(C)o[n-]1

>  <Energy>  (85) 
89.80160907167874

>  <Genealogy>  (85) 
COc1ccccc1N(CC(=O)[N-]Cc1ccccc1)C(=O)CCC(=O)N=c1cc(C)o[n-]1 (protonated)
COc1ccccc1N(CC(=O)[N-]Cc1ccccc1)C(=O)CCC(=O)/N=c1\cc(C)o[n-]1 (cis-trans isomerization)
COc1ccccc1N(CC(=O)[N-]Cc1ccccc1)C(=O)CCC(=O)/N=c1\cc(C)o[n-]1 (3D coordinates assigned)
COc1ccccc1N(CC(=O)[N-]Cc1ccccc1)C(=O)CCC(=O)/N=c1\cc(C)o[n-]1 (optimized conformer: 89.80160907167874 kcal/mol)

>  <smiles>  (85) 
COc1ccccc1N(CC(=O)NCc1ccccc1)C(=O)CCC(=O)N=c1cc(C)o[nH]1

>  <score_type>  (85) 
oracle

>  <origin>  (85) 
adg

>  <m_score__min__energy>  (85) 
-12.539999999999999

>  <m_primary>  (85) 
energy

$$$$
85:0
     RDKit          3D

 75 79  0  0  0  0  0  0  0  0999 V2000
   60.1220   28.4870   45.4690 C   0  0  0  0  0  0  0  0  0  0  0  0
   59.5660   29.4400   46.4970 C   0  0  0  0  0  0  0  0  0  0  0  0
   59.4070   30.7910   46.1510 C   0  0  0  0  0  0  0  0  0  0  0  0
   58.9000   31.7160   47.0680 C   0  0  0  0  0  0  0  0  0  0  0  0
   58.7070   33.0870   46.6820 N   0  0  0  0  0  0  0  0  0  0  0  0
   57.5420   33.4800   45.8790 C   0  0  0  0  0  0  0  0  0  0  0  0
   57.4830   32.6690   44.6110 C   0  0  0  0  0  0  0  0  0  0  0  0
   56.6920   31.5100   44.5440 C   0  0  0  0  0  0  0  0  0  0  0  0
   56.6060   30.7820   43.3560 C   0  0  0  0  0  0  0  0  0  0  0  0
   57.3050   31.2070   42.2220 C   0  0  0  0  0  0  0  0  0  0  0  0
   58.0950   32.3570   42.2790 C   0  0  0  0  0  0  0  0  0  0  0  0
   58.1850   33.0870   43.4680 C   0  0  0  0  0  0  0  0  0  0  0  0
   59.8320   34.3110   47.1950 S   0  0  0  0  0  0  0  0  0  0  0  0
   60.0090   35.3060   46.0840 O   0  0  0  0  0  0  0  0  0  0  0  0
   59.3120   35.0380   48.4050 O   0  0  0  0  0  0  0  0  0  0  0  0
   61.3720   33.5590   47.6010 C   0  0  0  0  0  0  0  0  0  0  0  0
   61.5070   32.8030   48.7760 C   0  0  0  0  0  0  0  0  0  0  0  0
   62.7470   32.2500   49.1160 C   0  0  0  0  0  0  0  0  0  0  0  0
   63.8560   32.4550   48.2880 C   0  0  0  0  0  0  0  0  0  0  0  0
   63.7270   33.2080   47.1180 C   0  0  0  0  0  0  0  0  0  0  0  0
   62.4870   33.7590   46.7720 C   0  0  0  0  0  0  0  0  0  0  0  0
   58.5420   31.2840   48.3520 C   0  0  0  0  0  0  0  0  0  0  0  0
   58.6770   29.9440   48.7130 C   0  0  0  0  0  0  0  0  0  0  0  0
   58.2850   29.5520   49.9900 O   0  0  0  0  0  0  0  0  0  0  0  0
   59.2000   29.0050   47.7980 C   0  0  0  0  0  0  0  0  0  0  0  0
   59.2950   27.5490   48.1970 C   0  0  0  0  0  0  0  0  0  0  0  0
   61.0200   27.1430   48.6310 S   0  0  0  0  0  0  0  0  0  0  0  0
   60.7710   27.3900   50.3940 C   0  0  0  0  0  0  0  0  0  0  0  0
   60.9950   26.2790   51.2860 S   0  0  0  0  0  0  0  0  0  0  0  0
   60.3180   28.6710   50.8900 N   0  0  0  0  0  0  0  0  0  0  0  0
   61.4160   29.4590   51.4080 C   0  0  0  0  0  0  0  0  0  0  0  0
   62.7310   28.9690   51.2970 C   0  0  0  0  0  0  0  0  0  0  0  0
   63.8100   29.7030   51.7940 C   0  0  0  0  0  0  0  0  0  0  0  0
   63.5960   30.9440   52.3930 C   0  0  0  0  0  0  0  0  0  0  0  0
   62.3040   31.4600   52.4900 C   0  0  0  0  0  0  0  0  0  0  0  0
   61.2100   30.7350   51.9970 C   0  0  0  0  0  0  0  0  0  0  0  0
   59.8990   31.3080   52.1110 N   0  0  0  0  0  0  0  0  0  0  0  0
   58.8490   30.5370   52.7990 C   0  0  0  0  0  0  0  0  0  0  0  0
   57.4680   31.1880   52.6610 C   0  0  0  0  0  0  0  0  0  0  0  0
   57.5620   32.5940   52.7490 O   0  0  0  0  0  0  0  0  0  0  0  0
   58.2230   33.0790   51.6000 C   0  0  0  0  0  0  0  0  0  0  0  0
   59.6970   32.6720   51.6040 C   0  0  0  0  0  0  0  0  0  0  0  0
   60.6135   27.6446   45.9778 H   0  0  0  0  0  0  0  0  0  0  0  0
   59.3033   28.1080   44.8397 H   0  0  0  0  0  0  0  0  0  0  0  0
   60.8548   29.0132   44.8397 H   0  0  0  0  0  0  0  0  0  0  0  0
   59.6860   31.1273   45.1415 H   0  0  0  0  0  0  0  0  0  0  0  0
   56.6251   33.3089   46.4621 H   0  0  0  0  0  0  0  0  0  0  0  0
   57.6300   34.5451   45.6186 H   0  0  0  0  0  0  0  0  0  0  0  0
   56.1373   31.1743   45.4326 H   0  0  0  0  0  0  0  0  0  0  0  0
   55.9878   29.8732   43.3119 H   0  0  0  0  0  0  0  0  0  0  0  0
   57.2326   30.6354   41.2850 H   0  0  0  0  0  0  0  0  0  0  0  0
   58.6472   32.6890   41.3874 H   0  0  0  0  0  0  0  0  0  0  0  0
   58.8081   33.9926   43.5088 H   0  0  0  0  0  0  0  0  0  0  0  0
   60.6371   32.6450   49.4304 H   0  0  0  0  0  0  0  0  0  0  0  0
   62.8497   31.6539   50.0347 H   0  0  0  0  0  0  0  0  0  0  0  0
   64.8307   32.0228   48.5584 H   0  0  0  0  0  0  0  0  0  0  0  0
   64.6001   33.3681   46.4683 H   0  0  0  0  0  0  0  0  0  0  0  0
   62.3865   34.3494   45.8493 H   0  0  0  0  0  0  0  0  0  0  0  0
   58.1510   32.0084   49.0816 H   0  0  0  0  0  0  0  0  0  0  0  0
   58.6461   27.3647   49.0659 H   0  0  0  0  0  0  0  0  0  0  0  0
   58.9725   26.9184   47.3554 H   0  0  0  0  0  0  0  0  0  0  0  0
   59.5690   28.5060   51.6000 H   0  0  0  0  0  0  0  0  0  0  0  0
   59.8820   29.2070   50.1070 H   0  0  0  0  0  0  0  0  0  0  0  0
   62.9105   27.9974   50.8135 H   0  0  0  0  0  0  0  0  0  0  0  0
   64.8309   29.3015   51.7128 H   0  0  0  0  0  0  0  0  0  0  0  0
   64.4474   31.5167   52.7895 H   0  0  0  0  0  0  0  0  0  0  0  0
   62.1421   32.4429   52.9567 H   0  0  0  0  0  0  0  0  0  0  0  0
   58.8094   29.5269   52.3652 H   0  0  0  0  0  0  0  0  0  0  0  0
   59.1011   30.5035   53.8692 H   0  0  0  0  0  0  0  0  0  0  0  0
   57.0377   30.9163   51.6858 H   0  0  0  0  0  0  0  0  0  0  0  0
   56.8264   30.8271   53.4784 H   0  0  0  0  0  0  0  0  0  0  0  0
   57.7377   32.6648   50.7039 H   0  0  0  0  0  0  0  0  0  0  0  0
   58.1623   34.1773   51.5977 H   0  0  0  0  0  0  0  0  0  0  0  0
   60.0817   32.7272   50.5749 H   0  0  0  0  0  0  0  0  0  0  0  0
   60.2340   33.3615   52.2720 H   0  0  0  0  0  0  0  0  0  0  0  0
  1  2  1  0
  2  3  2  0
  3  4  1  0
  4  5  1  0
  5  6  1  0
  6  7  1  0
  7  8  2  0
  8  9  1  0
  9 10  2  0
 10 11  1  0
 11 12  2  0
  5 13  1  0
 13 14  2  0
 13 15  2  0
 13 16  1  0
 16 17  2  0
 17 18  1  0
 18 19  2  0
 19 20  1  0
 20 21  2  0
  4 22  2  0
 22 23  1  0
 23 24  1  0
 23 25  2  0
 25 26  1  0
 26 27  1  0
 27 28  1  0
 28 29  2  0
 28 30  1  0
 30 31  1  0
 31 32  2  0
 32 33  1  0
 33 34  2  0
 34 35  1  0
 35 36  2  0
 36 37  1  0
 37 38  1  0
 38 39  1  0
 39 40  1  0
 40 41  1  0
 41 42  1  0
 25  2  1  0
 36 31  1  0
 42 37  1  0
 12  7  1  0
 21 16  1  0
  1 43  1  0
  1 44  1  0
  1 45  1  0
  3 46  1  0
  6 47  1  0
  6 48  1  0
  8 49  1  0
  9 50  1  0
 10 51  1  0
 11 52  1  0
 12 53  1  0
 17 54  1  0
 18 55  1  0
 19 56  1  0
 20 57  1  0
 21 58  1  0
 22 59  1  0
 26 60  1  0
 26 61  1  0
 30 62  1  0
 30 63  1  0
 32 64  1  0
 33 65  1  0
 34 66  1  0
 35 67  1  0
 38 68  1  0
 38 69  1  0
 39 70  1  0
 39 71  1  0
 41 72  1  0
 41 73  1  0
 42 74  1  0
 42 75  1  0
M  CHG  2  24  -1  30   1
M  END
>  <UniqueID>  (86) 
78

>  <SMILES>  (86) 
Cc1cc(N(Cc2ccccc2)S(=O)(=O)c2ccccc2)cc([O-])c1CSC(=S)[NH2+]c1ccccc1N1CCOCC1

>  <Energy>  (86) 
92.23937160746755

>  <Genealogy>  (86) 
Cc1cc(N(Cc2ccccc2)S(=O)(=O)c2ccccc2)cc([O-])c1CSC(=S)[NH2+]c1ccccc1N1CCOCC1 (protonated)
Cc1cc(N(Cc2ccccc2)S(=O)(=O)c2ccccc2)cc([O-])c1CSC(=S)[NH2+]c1ccccc1N1CCOCC1 (3D coordinates assigned)
Cc1cc(N(Cc2ccccc2)S(=O)(=O)c2ccccc2)cc([O-])c1CSC(=S)[NH2+]c1ccccc1N1CCOCC1 (nonaromatic ring conformer: 92.23937160746755 kcal/mol)

>  <smiles>  (86) 
Cc1cc(N(Cc2ccccc2)S(=O)(=O)c2ccccc2)cc(O)c1CSC(=S)Nc1ccccc1N1CCOCC1

>  <score_type>  (86) 
oracle

>  <origin>  (86) 
adg

>  <m_score__min__energy>  (86) 
-11.050000000000001

>  <m_primary>  (86) 
energy

$$$$
86:0
     RDKit          3D

 41 43  0  0  0  0  0  0  0  0999 V2000
   56.0490   30.7600   44.5130 O   0  0  0  0  0  0  0  0  0  0  0  0
   57.2770   31.0430   44.5060 C   0  0  0  0  0  0  0  0  0  0  0  0
   57.7350   32.3470   43.9360 C   0  0  0  0  0  0  0  0  0  0  0  0
   57.1170   33.7440   44.9380 S   0  0  0  0  0  0  0  0  0  0  0  0
   58.4940   33.7340   46.0890 C   0  0  0  0  0  0  0  0  0  0  0  0
   58.3040   33.3390   47.4180 C   0  0  0  0  0  0  0  0  0  0  0  0
   59.3880   33.3660   48.2990 C   0  0  0  0  0  0  0  0  0  0  0  0
   60.6440   33.7730   47.8440 C   0  0  0  0  0  0  0  0  0  0  0  0
   60.7970   34.1460   46.5060 C   0  0  0  0  0  0  0  0  0  0  0  0
   59.7290   34.1190   45.6650 N   0  0  0  0  0  0  0  0  0  0  0  0
   58.2450   30.1240   45.0290 N   0  0  0  0  0  0  0  0  0  0  0  0
   58.0200   28.7470   45.3580 C   0  0  0  0  0  0  0  0  0  0  0  0
   59.1260   27.9050   45.5200 C   0  0  0  0  0  0  0  0  0  0  0  0
   58.9500   26.5680   45.8790 C   0  0  0  0  0  0  0  0  0  0  0  0
   57.6650   26.0610   46.0830 C   0  0  0  0  0  0  0  0  0  0  0  0
   56.5450   26.8860   45.9300 C   0  0  0  0  0  0  0  0  0  0  0  0
   55.2450   26.3320   46.1830 N   0  0  0  0  0  0  0  0  0  0  0  0
   54.7040   25.1270   45.6240 C   0  0  0  0  0  0  0  0  0  0  0  0
   53.4560   24.9660   45.5560 O   0  0  0  0  0  0  0  0  0  0  0  0
   55.6120   24.0920   45.0750 C   0  0  0  0  0  0  0  0  0  0  0  0
   55.8060   23.9780   43.6840 C   0  0  0  0  0  0  0  0  0  0  0  0
   56.6650   23.0040   43.1670 C   0  0  0  0  0  0  0  0  0  0  0  0
   57.3410   22.1370   44.0280 C   0  0  0  0  0  0  0  0  0  0  0  0
   57.1570   22.2410   45.4080 C   0  0  0  0  0  0  0  0  0  0  0  0
   56.2980   23.2120   45.9320 C   0  0  0  0  0  0  0  0  0  0  0  0
   56.7280   28.2410   45.5970 C   0  0  0  0  0  0  0  0  0  0  0  0
   58.8347   32.3696   43.9248 H   0  0  0  0  0  0  0  0  0  0  0  0
   57.3403   32.4437   42.9138 H   0  0  0  0  0  0  0  0  0  0  0  0
   57.3130   33.0111   47.7649 H   0  0  0  0  0  0  0  0  0  0  0  0
   59.2524   33.0673   49.3489 H   0  0  0  0  0  0  0  0  0  0  0  0
   61.5028   33.7997   48.5308 H   0  0  0  0  0  0  0  0  0  0  0  0
   61.7824   34.4618   46.1328 H   0  0  0  0  0  0  0  0  0  0  0  0
   60.1407   28.2996   45.3633 H   0  0  0  0  0  0  0  0  0  0  0  0
   59.8248   25.9125   46.0015 H   0  0  0  0  0  0  0  0  0  0  0  0
   57.5322   25.0063   46.3658 H   0  0  0  0  0  0  0  0  0  0  0  0
   55.2782   24.6597   43.0008 H   0  0  0  0  0  0  0  0  0  0  0  0
   56.8088   22.9203   42.0797 H   0  0  0  0  0  0  0  0  0  0  0  0
   58.0181   21.3725   43.6192 H   0  0  0  0  0  0  0  0  0  0  0  0
   57.6894   21.5570   46.0852 H   0  0  0  0  0  0  0  0  0  0  0  0
   56.1578   23.2882   47.0204 H   0  0  0  0  0  0  0  0  0  0  0  0
   55.8568   28.9085   45.5230 H   0  0  0  0  0  0  0  0  0  0  0  0
  1  2  2  0
  2  3  1  0
  3  4  1  0
  4  5  1  0
  5  6  2  0
  6  7  1  0
  7  8  2  0
  8  9  1  0
  9 10  2  0
  2 11  1  0
 11 12  1  0
 12 13  2  0
 13 14  1  0
 14 15  2  0
 15 16  1  0
 16 17  1  0
 17 18  1  0
 18 19  2  0
 18 20  1  0
 20 21  2  0
 21 22  1  0
 22 23  2  0
 23 24  1  0
 24 25  2  0
 16 26  2  0
 10  5  1  0
 26 12  1  0
 25 20  1  0
  3 27  1  0
  3 28  1  0
  6 29  1  0
  7 30  1  0
  8 31  1  0
  9 32  1  0
 13 33  1  0
 14 34  1  0
 15 35  1  0
 21 36  1  0
 22 37  1  0
 23 38  1  0
 24 39  1  0
 25 40  1  0
 26 41  1  0
M  CHG  2  11  -1  17  -1
M  END
>  <UniqueID>  (87) 
79

>  <SMILES>  (87) 
O=C(CSc1ccccn1)[N-]c1cccc([N-]C(=O)c2ccccc2)c1

>  <Energy>  (87) 
45.874636156102326

>  <Genealogy>  (87) 
O=C(CSc1ccccn1)[N-]c1cccc([N-]C(=O)c2ccccc2)c1 (protonated)
O=C(CSc1ccccn1)[N-]c1cccc([N-]C(=O)c2ccccc2)c1 (3D coordinates assigned)
O=C(CSc1ccccn1)[N-]c1cccc([N-]C(=O)c2ccccc2)c1 (optimized conformer: 45.874636156102326 kcal/mol)

>  <smiles>  (87) 
O=C(CSc1ccccn1)Nc1cccc(NC(=O)c2ccccc2)c1

>  <score_type>  (87) 
oracle

>  <origin>  (87) 
adg

>  <m_score__min__energy>  (87) 
-12.220000000000001

>  <m_primary>  (87) 
energy

$$$$
87:0
     RDKit          3D

 67 70  0  0  0  0  0  0  0  0999 V2000
   56.2730   30.4740   43.0330 C   0  0  0  0  0  0  0  0  0  0  0  0
   55.9340   30.0490   44.3850 N   0  0  0  0  0  0  0  0  0  0  0  0
   56.6900   29.0860   45.1240 C   0  0  0  0  0  0  0  0  0  0  0  0
   56.1250   28.0500   45.5670 O   0  0  0  0  0  0  0  0  0  0  0  0
   58.1350   29.3030   45.3600 C   0  0  0  0  0  0  0  0  0  0  0  0
   59.0670   28.2750   45.0940 C   0  0  0  0  0  0  0  0  0  0  0  0
   58.6480   27.0410   44.4900 N   0  0  0  0  0  0  0  0  0  0  0  0
   58.3340   25.8790   45.2630 C   0  0  0  0  0  0  0  0  0  0  0  0
   57.4860   25.0520   44.8430 O   0  0  0  0  0  0  0  0  0  0  0  0
   58.9990   25.6610   46.5120 N   0  0  0  0  0  0  0  0  0  0  0  0
   59.2290   26.6530   47.5200 C   0  0  0  0  0  0  0  0  0  0  0  0
   58.2660   27.6280   47.8340 C   0  0  0  0  0  0  0  0  0  0  0  0
   58.5690   28.6530   48.7320 C   0  0  0  0  0  0  0  0  0  0  0  0
   59.8380   28.7180   49.3360 C   0  0  0  0  0  0  0  0  0  0  0  0
   60.1930   29.7510   50.2160 O   0  0  0  0  0  0  0  0  0  0  0  0
   59.3150   30.7240   50.7200 C   0  0  0  0  0  0  0  0  0  0  0  0
   59.6960   32.0650   50.6750 C   0  0  0  0  0  0  0  0  0  0  0  0
   58.8340   33.0460   51.1670 C   0  0  0  0  0  0  0  0  0  0  0  0
   57.6400   32.6930   51.7090 N   0  0  0  0  0  0  0  0  0  0  0  0
   57.2460   31.3930   51.8000 C   0  0  0  0  0  0  0  0  0  0  0  0
   55.9410   31.0630   52.4050 C   0  0  0  0  0  0  0  0  0  0  0  0
   55.8810   30.7020   53.6120 O   0  0  0  0  0  0  0  0  0  0  0  0
   54.7370   31.1500   51.6290 N   0  0  0  0  0  0  0  0  0  0  0  0
   53.4550   30.6870   52.1510 C   0  0  0  0  0  0  0  0  0  0  0  0
   58.0890   30.3800   51.3120 C   0  0  0  0  0  0  0  0  0  0  0  0
   60.7960   27.7520   49.0100 C   0  0  0  0  0  0  0  0  0  0  0  0
   60.4960   26.7290   48.1080 C   0  0  0  0  0  0  0  0  0  0  0  0
   60.4270   28.4830   45.3760 C   0  0  0  0  0  0  0  0  0  0  0  0
   60.8800   29.7210   45.8170 C   0  0  0  0  0  0  0  0  0  0  0  0
   59.9810   30.7690   46.0080 C   0  0  0  0  0  0  0  0  0  0  0  0
   60.4700   32.0360   46.3350 O   0  0  0  0  0  0  0  0  0  0  0  0
   61.6130   32.2370   47.1200 C   0  0  0  0  0  0  0  0  0  0  0  0
   62.5000   33.2580   46.7670 C   0  0  0  0  0  0  0  0  0  0  0  0
   63.6650   33.4770   47.5120 C   0  0  0  0  0  0  0  0  0  0  0  0
   63.9460   32.6730   48.6200 C   0  0  0  0  0  0  0  0  0  0  0  0
   63.0670   31.6510   48.9850 C   0  0  0  0  0  0  0  0  0  0  0  0
   61.9040   31.4310   48.2380 C   0  0  0  0  0  0  0  0  0  0  0  0
   58.6010   30.5550   45.8400 C   0  0  0  0  0  0  0  0  0  0  0  0
   57.6700   31.6080   46.1170 N   0  0  0  0  0  0  0  0  0  0  0  0
   57.9560   33.2590   45.6700 S   0  0  0  0  0  0  0  0  0  0  0  0
   58.6300   34.1460   47.0590 C   0  0  0  0  0  0  0  0  0  0  0  0
   58.9100   33.3360   44.5090 O   0  0  0  0  0  0  0  0  0  0  0  0
   56.6500   33.8940   45.2750 O   0  0  0  0  0  0  0  0  0  0  0  0
   56.9583   31.3332   43.0797 H   0  0  0  0  0  0  0  0  0  0  0  0
   56.7604   29.6448   42.4993 H   0  0  0  0  0  0  0  0  0  0  0  0
   55.3562   30.7649   42.4993 H   0  0  0  0  0  0  0  0  0  0  0  0
   57.2696   27.5830   47.3701 H   0  0  0  0  0  0  0  0  0  0  0  0
   57.8111   29.4143   48.9687 H   0  0  0  0  0  0  0  0  0  0  0  0
   60.6718   32.3481   50.2535 H   0  0  0  0  0  0  0  0  0  0  0  0
   59.1221   34.1064   51.1157 H   0  0  0  0  0  0  0  0  0  0  0  0
   54.7520   31.5800   50.6810 H   0  0  0  0  0  0  0  0  0  0  0  0
   53.4818   30.6967   53.2506 H   0  0  0  0  0  0  0  0  0  0  0  0
   52.6534   31.3524   51.7979 H   0  0  0  0  0  0  0  0  0  0  0  0
   53.2636   29.6630   51.7979 H   0  0  0  0  0  0  0  0  0  0  0  0
   57.7904   29.3244   51.3932 H   0  0  0  0  0  0  0  0  0  0  0  0
   61.7948   27.7987   49.4684 H   0  0  0  0  0  0  0  0  0  0  0  0
   61.2605   25.9785   47.8584 H   0  0  0  0  0  0  0  0  0  0  0  0
   61.1418   27.6570   45.2464 H   0  0  0  0  0  0  0  0  0  0  0  0
   61.9510   29.8741   46.0158 H   0  0  0  0  0  0  0  0  0  0  0  0
   62.2810   33.8945   45.8970 H   0  0  0  0  0  0  0  0  0  0  0  0
   64.3586   34.2813   47.2254 H   0  0  0  0  0  0  0  0  0  0  0  0
   64.8611   32.8454   49.2056 H   0  0  0  0  0  0  0  0  0  0  0  0
   63.2884   31.0198   49.8583 H   0  0  0  0  0  0  0  0  0  0  0  0
   61.2135   30.6244   48.5255 H   0  0  0  0  0  0  0  0  0  0  0  0
   58.2793   33.6845   47.9939 H   0  0  0  0  0  0  0  0  0  0  0  0
   59.7287   34.1073   47.0206 H   0  0  0  0  0  0  0  0  0  0  0  0
   58.2984   35.1941   47.0206 H   0  0  0  0  0  0  0  0  0  0  0  0
  1  2  1  0
  2  3  1  0
  3  4  2  0
  3  5  1  0
  5  6  2  0
  6  7  1  0
  7  8  1  0
  8  9  2  0
  8 10  1  0
 10 11  1  0
 11 12  2  0
 12 13  1  0
 13 14  2  0
 14 15  1  0
 15 16  1  0
 16 17  2  0
 17 18  1  0
 18 19  2  0
 19 20  1  0
 20 21  1  0
 21 22  2  0
 21 23  1  0
 23 24  1  0
 20 25  2  0
 14 26  1  0
 26 27  2  0
  6 28  1  0
 28 29  2  0
 29 30  1  0
 30 31  1  0
 31 32  1  0
 32 33  2  0
 33 34  1  0
 34 35  2  0
 35 36  1  0
 36 37  2  0
 30 38  2  0
 38 39  1  0
 39 40  1  0
 40 41  1  0
 40 42  2  0
 40 43  2  0
 38  5  1  0
 27 11  1  0
 37 32  1  0
 25 16  1  0
  1 44  1  0
  1 45  1  0
  1 46  1  0
 12 47  1  0
 13 48  1  0
 17 49  1  0
 18 50  1  0
 23 51  1  0
 24 52  1  0
 24 53  1  0
 24 54  1  0
 25 55  1  0
 26 56  1  0
 27 57  1  0
 28 58  1  0
 29 59  1  0
 33 60  1  0
 34 61  1  0
 35 62  1  0
 36 63  1  0
 37 64  1  0
 41 65  1  0
 41 66  1  0
 41 67  1  0
M  CHG  4   2  -1   7  -1  10  -1  39  -1
M  END
>  <UniqueID>  (88) 
80

>  <SMILES>  (88) 
C[N-]C(=O)c1c([N-]C(=O)[N-]c2ccc(Oc3ccnc(C(=O)NC)c3)cc2)ccc(Oc2ccccc2)c1[N-]S(C)(=O)=O

>  <Energy>  (88) 
101.63890997787558

>  <Genealogy>  (88) 
C[N-]C(=O)c1c([N-]C(=O)[N-]c2ccc(Oc3ccnc(C(=O)NC)c3)cc2)ccc(Oc2ccccc2)c1[N-]S(C)(=O)=O (protonated)
C[N-]C(=O)c1c([N-]C(=O)[N-]c2ccc(Oc3ccnc(C(=O)NC)c3)cc2)ccc(Oc2ccccc2)c1[N-]S(C)(=O)=O (3D coordinates assigned)
C[N-]C(=O)c1c([N-]C(=O)[N-]c2ccc(Oc3ccnc(C(=O)NC)c3)cc2)ccc(Oc2ccccc2)c1[N-]S(C)(=O)=O (optimized conformer: 101.63890997787558 kcal/mol)

>  <smiles>  (88) 
CNC(=O)c1cc(Oc2ccc(NC(=O)Nc3ccc(Oc4ccccc4)c(NS(C)(=O)=O)c3C(=O)NC)cc2)ccn1

>  <score_type>  (88) 
oracle

>  <origin>  (88) 
adg

>  <m_score__min__energy>  (88) 
-14.17

>  <m_primary>  (88) 
energy

$$$$
88:0
     RDKit          3D

 47 49  0  0  0  0  0  0  0  0999 V2000
   55.4520   29.3160   44.8690 N   0  0  0  0  0  0  0  0  0  0  0  0
   56.8630   29.7880   43.9890 S   0  0  0  0  0  0  0  0  0  0  0  0
   57.7240   28.5840   43.7280 O   0  0  0  0  0  0  0  0  0  0  0  0
   56.4490   30.3800   42.6710 O   0  0  0  0  0  0  0  0  0  0  0  0
   57.7730   30.9690   44.9250 C   0  0  0  0  0  0  0  0  0  0  0  0
   57.3360   32.2970   45.0200 C   0  0  0  0  0  0  0  0  0  0  0  0
   58.0550   33.2220   45.7830 C   0  0  0  0  0  0  0  0  0  0  0  0
   59.2110   32.8230   46.4760 C   0  0  0  0  0  0  0  0  0  0  0  0
   59.9740   33.8130   47.3190 C   0  0  0  0  0  0  0  0  0  0  0  0
   61.2010   33.2060   47.8840 N   0  0  0  0  0  0  0  0  0  0  0  0
   61.1290   32.3810   48.9860 C   0  0  0  0  0  0  0  0  0  0  0  0
   59.8770   32.1030   49.6350 N   0  0  0  0  0  0  0  0  0  0  0  0
   59.1790   30.8390   49.3720 C   0  0  0  0  0  0  0  0  0  0  0  0
   58.8350   30.1490   50.6960 C   0  0  0  0  0  0  0  0  0  0  0  0
   58.0950   31.0840   51.6970 C   0  0  0  0  0  0  0  0  0  0  0  0
   56.7000   30.5920   51.9890 C   0  0  0  0  0  0  0  0  0  0  0  0
   55.5910   31.4940   51.9990 N   0  0  0  0  0  0  0  0  0  0  0  0
   56.5090   29.3740   52.2500 O   0  0  0  0  0  0  0  0  0  0  0  0
   58.0510   32.5600   51.2440 C   0  0  0  0  0  0  0  0  0  0  0  0
   59.4080   33.0090   50.6940 C   0  0  0  0  0  0  0  0  0  0  0  0
   62.2910   31.8080   49.5120 C   0  0  0  0  0  0  0  0  0  0  0  0
   63.5110   32.0880   48.9090 C   0  0  0  0  0  0  0  0  0  0  0  0
   64.5720   31.5820   49.3580 O   0  0  0  0  0  0  0  0  0  0  0  0
   63.5550   32.9110   47.8360 N   0  0  0  0  0  0  0  0  0  0  0  0
   62.4300   33.4710   47.3220 C   0  0  0  0  0  0  0  0  0  0  0  0
   62.5370   34.2410   46.3290 O   0  0  0  0  0  0  0  0  0  0  0  0
   59.6560   31.4960   46.3600 C   0  0  0  0  0  0  0  0  0  0  0  0
   58.9360   30.5730   45.5970 C   0  0  0  0  0  0  0  0  0  0  0  0
   55.1590   28.3830   44.5020 H   0  0  0  0  0  0  0  0  0  0  0  0
   56.4240   32.6129   44.4924 H   0  0  0  0  0  0  0  0  0  0  0  0
   57.7146   34.2664   45.8412 H   0  0  0  0  0  0  0  0  0  0  0  0
   60.2550   34.6738   46.6945 H   0  0  0  0  0  0  0  0  0  0  0  0
   59.3286   34.1301   48.1514 H   0  0  0  0  0  0  0  0  0  0  0  0
   58.2525   31.0428   48.8152 H   0  0  0  0  0  0  0  0  0  0  0  0
   59.8315   30.1811   48.7792 H   0  0  0  0  0  0  0  0  0  0  0  0
   58.1901   29.2838   50.4828 H   0  0  0  0  0  0  0  0  0  0  0  0
   59.7833   29.8495   51.1662 H   0  0  0  0  0  0  0  0  0  0  0  0
   58.6904   31.0482   52.6212 H   0  0  0  0  0  0  0  0  0  0  0  0
   54.6320   31.1410   52.2190 H   0  0  0  0  0  0  0  0  0  0  0  0
   55.7220   32.5100   51.7980 H   0  0  0  0  0  0  0  0  0  0  0  0
   57.2899   32.6719   50.4577 H   0  0  0  0  0  0  0  0  0  0  0  0
   57.8028   33.1852   52.1144 H   0  0  0  0  0  0  0  0  0  0  0  0
   59.3101   34.0238   50.2811 H   0  0  0  0  0  0  0  0  0  0  0  0
   60.1396   32.9942   51.5153 H   0  0  0  0  0  0  0  0  0  0  0  0
   62.2400   31.1462   50.3891 H   0  0  0  0  0  0  0  0  0  0  0  0
   60.5769   31.1814   46.8729 H   0  0  0  0  0  0  0  0  0  0  0  0
   59.2839   29.5320   45.5240 H   0  0  0  0  0  0  0  0  0  0  0  0
  1  2  1  0
  2  3  2  0
  2  4  2  0
  2  5  1  0
  5  6  2  0
  6  7  1  0
  7  8  2  0
  8  9  1  0
  9 10  1  0
 10 11  1  0
 11 12  1  0
 12 13  1  0
 13 14  1  0
 14 15  1  0
 15 16  1  0
 16 17  1  0
 16 18  2  0
 15 19  1  0
 19 20  1  0
 11 21  2  0
 21 22  1  0
 22 23  2  0
 22 24  1  0
 24 25  1  0
 25 26  2  0
  8 27  1  0
 27 28  2  0
 28  5  1  0
 25 10  1  0
 20 12  1  0
  1 29  1  0
  6 30  1  0
  7 31  1  0
  9 32  1  0
  9 33  1  0
 13 34  1  0
 13 35  1  0
 14 36  1  0
 14 37  1  0
 15 38  1  0
 17 39  1  0
 17 40  1  0
 19 41  1  0
 19 42  1  0
 20 43  1  0
 20 44  1  0
 21 45  1  0
 27 46  1  0
 28 47  1  0
M  CHG  2   1  -1  24  -1
M  END
>  <UniqueID>  (89) 
81

>  <SMILES>  (89) 
[NH-]S(=O)(=O)c1ccc(Cn2c(N3CCC(C(N)=O)CC3)cc(=O)[n-]c2=O)cc1

>  <Energy>  (89) 
55.422495725533686

>  <Genealogy>  (89) 
[NH-]S(=O)(=O)c1ccc(Cn2c(N3CCC(C(N)=O)CC3)cc(=O)[n-]c2=O)cc1 (protonated)
[NH-]S(=O)(=O)c1ccc(Cn2c(N3CCC(C(N)=O)CC3)cc(=O)[n-]c2=O)cc1 (3D coordinates assigned)
[NH-]S(=O)(=O)c1ccc(Cn2c(N3CCC(C(N)=O)CC3)cc(=O)[n-]c2=O)cc1 (nonaromatic ring conformer: 55.422495725533686 kcal/mol)

>  <smiles>  (89) 
NC(=O)C1CCN(c2cc(=O)[nH]c(=O)n2Cc2ccc(S(N)(=O)=O)cc2)CC1

>  <score_type>  (89) 
oracle

>  <origin>  (89) 
adg

>  <m_score__min__energy>  (89) 
-12.02

>  <m_primary>  (89) 
energy

$$$$
89:0
     RDKit          3D

 53 56  0  0  0  0  0  0  0  0999 V2000
   56.6160   30.8210   44.5530 O   0  0  0  0  0  0  0  0  0  0  0  0
   57.6760   30.1820   44.8020 C   0  0  0  0  0  0  0  0  0  0  0  0
   58.8780   30.8960   45.1320 N   0  0  0  0  0  0  0  0  0  0  0  0
   58.8950   32.2400   45.6450 C   0  0  0  0  0  0  0  0  0  0  0  0
   58.6930   33.3150   44.7670 C   0  0  0  0  0  0  0  0  0  0  0  0
   58.7280   34.6290   45.2390 C   0  0  0  0  0  0  0  0  0  0  0  0
   58.9830   34.8850   46.5890 C   0  0  0  0  0  0  0  0  0  0  0  0
   59.2140   33.8200   47.4770 C   0  0  0  0  0  0  0  0  0  0  0  0
   59.5030   34.0340   48.8640 N   0  0  0  0  0  0  0  0  0  0  0  0
   59.3360   32.8480   50.1170 S   0  0  0  0  0  0  0  0  0  0  0  0
   58.9410   33.5160   51.4040 O   0  0  0  0  0  0  0  0  0  0  0  0
   58.2950   31.8370   49.7250 O   0  0  0  0  0  0  0  0  0  0  0  0
   60.8990   32.0190   50.3440 C   0  0  0  0  0  0  0  0  0  0  0  0
   61.8220   32.3300   49.1990 C   0  0  0  0  0  0  0  0  0  0  0  0
   62.0600   31.3710   48.2000 C   0  0  0  0  0  0  0  0  0  0  0  0
   62.9540   31.6450   47.1600 C   0  0  0  0  0  0  0  0  0  0  0  0
   63.6210   32.8720   47.1130 C   0  0  0  0  0  0  0  0  0  0  0  0
   63.3960   33.8270   48.1080 C   0  0  0  0  0  0  0  0  0  0  0  0
   62.5020   33.5580   49.1500 C   0  0  0  0  0  0  0  0  0  0  0  0
   59.1710   32.5040   46.9980 C   0  0  0  0  0  0  0  0  0  0  0  0
   57.6780   28.7050   44.6830 C   0  0  0  0  0  0  0  0  0  0  0  0
   57.7750   28.1100   43.4130 C   0  0  0  0  0  0  0  0  0  0  0  0
   57.7820   26.7200   43.2770 C   0  0  0  0  0  0  0  0  0  0  0  0
   57.6800   25.8910   44.4070 C   0  0  0  0  0  0  0  0  0  0  0  0
   57.6840   24.4130   44.2600 C   0  0  0  0  0  0  0  0  0  0  0  0
   56.7980   23.7810   43.3660 C   0  0  0  0  0  0  0  0  0  0  0  0
   56.8010   22.3880   43.2320 C   0  0  0  0  0  0  0  0  0  0  0  0
   55.9480   21.7900   42.3630 F   0  0  0  0  0  0  0  0  0  0  0  0
   57.6840   21.6140   43.9870 C   0  0  0  0  0  0  0  0  0  0  0  0
   58.5670   22.2280   44.8770 C   0  0  0  0  0  0  0  0  0  0  0  0
   59.4200   21.4740   45.6140 F   0  0  0  0  0  0  0  0  0  0  0  0
   58.5700   23.6200   45.0140 C   0  0  0  0  0  0  0  0  0  0  0  0
   57.5670   26.4830   45.6750 C   0  0  0  0  0  0  0  0  0  0  0  0
   57.5640   27.8760   45.8150 C   0  0  0  0  0  0  0  0  0  0  0  0
   57.4060   28.4030   47.0560 F   0  0  0  0  0  0  0  0  0  0  0  0
   59.7920   30.4540   44.8840 H   0  0  0  0  0  0  0  0  0  0  0  0
   58.5059   33.1220   43.7003 H   0  0  0  0  0  0  0  0  0  0  0  0
   58.5543   35.4652   44.5458 H   0  0  0  0  0  0  0  0  0  0  0  0
   59.0030   35.9213   46.9573 H   0  0  0  0  0  0  0  0  0  0  0  0
   61.3580   32.3598   51.2838 H   0  0  0  0  0  0  0  0  0  0  0  0
   60.7274   30.9331   50.3823 H   0  0  0  0  0  0  0  0  0  0  0  0
   61.5415   30.4016   48.2360 H   0  0  0  0  0  0  0  0  0  0  0  0
   63.1325   30.8930   46.3773 H   0  0  0  0  0  0  0  0  0  0  0  0
   64.3227   33.0860   46.2933 H   0  0  0  0  0  0  0  0  0  0  0  0
   63.9227   34.7920   48.0719 H   0  0  0  0  0  0  0  0  0  0  0  0
   62.3311   34.3108   49.9336 H   0  0  0  0  0  0  0  0  0  0  0  0
   59.3553   31.6678   47.6885 H   0  0  0  0  0  0  0  0  0  0  0  0
   57.8461   28.7453   42.5178 H   0  0  0  0  0  0  0  0  0  0  0  0
   57.8681   26.2704   42.2768 H   0  0  0  0  0  0  0  0  0  0  0  0
   56.0994   24.3860   42.7695 H   0  0  0  0  0  0  0  0  0  0  0  0
   57.6840   20.5192   43.8805 H   0  0  0  0  0  0  0  0  0  0  0  0
   59.2693   24.0984   45.7155 H   0  0  0  0  0  0  0  0  0  0  0  0
   57.4799   25.8459   46.5675 H   0  0  0  0  0  0  0  0  0  0  0  0
  1  2  2  0
  2  3  1  0
  3  4  1  0
  4  5  2  0
  5  6  1  0
  6  7  2  0
  7  8  1  0
  8  9  1  0
  9 10  1  0
 10 11  2  0
 10 12  2  0
 10 13  1  0
 13 14  1  0
 14 15  2  0
 15 16  1  0
 16 17  2  0
 17 18  1  0
 18 19  2  0
  8 20  2  0
  2 21  1  0
 21 22  2  0
 22 23  1  0
 23 24  2  0
 24 25  1  0
 25 26  2  0
 26 27  1  0
 27 28  1  0
 27 29  2  0
 29 30  1  0
 30 31  1  0
 30 32  2  0
 24 33  1  0
 33 34  2  0
 34 35  1  0
 20  4  1  0
 34 21  1  0
 19 14  1  0
 32 25  1  0
  3 36  1  0
  5 37  1  0
  6 38  1  0
  7 39  1  0
 13 40  1  0
 13 41  1  0
 15 42  1  0
 16 43  1  0
 17 44  1  0
 18 45  1  0
 19 46  1  0
 20 47  1  0
 22 48  1  0
 23 49  1  0
 26 50  1  0
 29 51  1  0
 32 52  1  0
 33 53  1  0
M  CHG  1   9  -1
M  END
>  <UniqueID>  (90) 
82

>  <SMILES>  (90) 
O=C(Nc1cccc([N-]S(=O)(=O)Cc2ccccc2)c1)c1ccc(-c2cc(F)cc(F)c2)cc1F

>  <Energy>  (90) 
68.40890341659198

>  <Genealogy>  (90) 
O=C(Nc1cccc([N-]S(=O)(=O)Cc2ccccc2)c1)c1ccc(-c2cc(F)cc(F)c2)cc1F (protonated)
O=C(Nc1cccc([N-]S(=O)(=O)Cc2ccccc2)c1)c1ccc(-c2cc(F)cc(F)c2)cc1F (3D coordinates assigned)
O=C(Nc1cccc([N-]S(=O)(=O)Cc2ccccc2)c1)c1ccc(-c2cc(F)cc(F)c2)cc1F (optimized conformer: 68.40890341659198 kcal/mol)

>  <smiles>  (90) 
O=C(Nc1cccc(NS(=O)(=O)Cc2ccccc2)c1)c1ccc(-c2cc(F)cc(F)c2)cc1F

>  <score_type>  (90) 
oracle

>  <origin>  (90) 
adg

>  <m_score__min__energy>  (90) 
-11.970000000000001

>  <m_primary>  (90) 
energy

$$$$
90:0
     RDKit          3D

 58 61  0  0  0  0  0  0  0  0999 V2000
   61.9797   29.5164   45.4466 H   0  0  0  0  0  0  0  0  0  0  0  0
   60.9300   29.3530   45.7320 C   0  0  0  0  0  0  0  0  0  0  0  0
   60.3070   30.3670   46.6090 C   0  0  0  0  0  0  0  0  0  0  0  0
   60.5460   31.5870   46.3930 O   0  0  0  0  0  0  0  0  0  0  0  0
   59.4360   30.0020   47.6810 N   0  0  0  0  0  0  0  0  0  0  0  0
   59.7280   29.4700   48.8370 C   0  0  0  0  0  0  0  0  0  0  0  0
   60.3160   28.2320   48.9510 C   0  0  0  0  0  0  0  0  0  0  0  0
   60.6539   27.5685   48.1413 H   0  0  0  0  0  0  0  0  0  0  0  0
   60.3860   28.0110   50.3090 C   0  0  0  0  0  0  0  0  0  0  0  0
   60.7756   27.0987   50.7843 H   0  0  0  0  0  0  0  0  0  0  0  0
   59.9040   29.0840   50.9650 N   0  0  0  0  0  0  0  0  0  0  0  0
   59.5020   29.9850   50.0780 N   0  0  0  0  0  0  0  0  0  0  0  0
   59.1790   31.3620   50.4950 C   0  0  0  0  0  0  0  0  0  0  0  0
   58.0866   31.4893   50.5174 H   0  0  0  0  0  0  0  0  0  0  0  0
   59.7460   32.3720   49.4710 C   0  0  0  0  0  0  0  0  0  0  0  0
   60.7152   32.0071   49.1003 H   0  0  0  0  0  0  0  0  0  0  0  0
   59.0359   32.4716   48.6368 H   0  0  0  0  0  0  0  0  0  0  0  0
   59.9400   33.7460   50.1270 C   0  0  0  0  0  0  0  0  0  0  0  0
   60.3020   34.4523   49.3653 H   0  0  0  0  0  0  0  0  0  0  0  0
   58.9697   34.0582   50.5405 H   0  0  0  0  0  0  0  0  0  0  0  0
   60.9180   33.7110   51.2480 N   0  0  0  0  0  0  0  0  0  0  0  0
   62.2440   34.2090   50.8200 C   0  0  0  0  0  0  0  0  0  0  0  0
   62.1901   35.2980   50.6748 H   0  0  0  0  0  0  0  0  0  0  0  0
   62.9807   33.9615   51.5985 H   0  0  0  0  0  0  0  0  0  0  0  0
   62.6710   33.5590   49.5280 C   0  0  0  0  0  0  0  0  0  0  0  0
   62.4580   34.2140   48.3020 C   0  0  0  0  0  0  0  0  0  0  0  0
   61.9966   35.2124   48.2875 H   0  0  0  0  0  0  0  0  0  0  0  0
   62.8300   33.6020   47.1020 C   0  0  0  0  0  0  0  0  0  0  0  0
   62.6621   34.1198   46.1461 H   0  0  0  0  0  0  0  0  0  0  0  0
   63.4150   32.3330   47.1150 C   0  0  0  0  0  0  0  0  0  0  0  0
   63.7074   31.8529   46.1695 H   0  0  0  0  0  0  0  0  0  0  0  0
   63.6290   31.6730   48.3290 C   0  0  0  0  0  0  0  0  0  0  0  0
   64.0917   30.6751   48.3371 H   0  0  0  0  0  0  0  0  0  0  0  0
   63.2560   32.2790   49.5330 C   0  0  0  0  0  0  0  0  0  0  0  0
   63.4580   31.6170   50.7010 F   0  0  0  0  0  0  0  0  0  0  0  0
   61.0310   32.3840   51.9120 C   0  0  0  0  0  0  0  0  0  0  0  0
   61.7735   31.7791   51.3709 H   0  0  0  0  0  0  0  0  0  0  0  0
   61.3363   32.5530   52.9552 H   0  0  0  0  0  0  0  0  0  0  0  0
   59.6970   31.6300   51.9280 C   0  0  0  0  0  0  0  0  0  0  0  0
   59.8364   30.6682   52.4432 H   0  0  0  0  0  0  0  0  0  0  0  0
   58.9559   32.2516   52.4519 H   0  0  0  0  0  0  0  0  0  0  0  0
   60.3320   28.2510   45.2520 C   0  0  0  0  0  0  0  0  0  0  0  0
   60.9452   27.5702   44.6433 H   0  0  0  0  0  0  0  0  0  0  0  0
   58.9200   27.8750   45.4720 C   0  0  0  0  0  0  0  0  0  0  0  0
   58.6180   26.6280   46.0370 C   0  0  0  0  0  0  0  0  0  0  0  0
   59.4313   25.9500   46.3351 H   0  0  0  0  0  0  0  0  0  0  0  0
   57.2870   26.2430   46.2230 C   0  0  0  0  0  0  0  0  0  0  0  0
   57.0567   25.2685   46.6783 H   0  0  0  0  0  0  0  0  0  0  0  0
   56.2470   27.0930   45.8320 C   0  0  0  0  0  0  0  0  0  0  0  0
   54.9280   26.6980   46.0240 O   0  0  0  0  0  0  0  0  0  0  0  0
   56.5300   28.3340   45.2420 C   0  0  0  0  0  0  0  0  0  0  0  0
   55.4580   29.1610   44.8680 O   0  0  0  0  0  0  0  0  0  0  0  0
   55.5060   30.1040   43.8040 C   0  0  0  0  0  0  0  0  0  0  0  0
   55.5578   31.1218   44.2181 H   0  0  0  0  0  0  0  0  0  0  0  0
   56.3956   29.9141   43.1856 H   0  0  0  0  0  0  0  0  0  0  0  0
   54.6017   30.0054   43.1856 H   0  0  0  0  0  0  0  0  0  0  0  0
   57.8730   28.7110   45.0450 C   0  0  0  0  0  0  0  0  0  0  0  0
   58.1046   29.6672   44.5531 H   0  0  0  0  0  0  0  0  0  0  0  0
  1  2  1  0
  2  3  1  0
  3  4  2  0
  3  5  1  0
  5  6  2  3
  6  7  1  0
  7  8  1  0
  7  9  2  0
  9 10  1  0
  9 11  1  0
 11 12  1  0
 12 13  1  0
 13 14  1  0
 13 15  1  0
 15 16  1  0
 15 17  1  0
 15 18  1  0
 18 19  1  0
 18 20  1  0
 18 21  1  0
 21 22  1  0
 22 23  1  0
 22 24  1  0
 22 25  1  0
 25 26  2  0
 26 27  1  0
 26 28  1  0
 28 29  1  0
 28 30  2  0
 30 31  1  0
 30 32  1  0
 32 33  1  0
 32 34  2  0
 34 35  1  0
 21 36  1  0
 36 37  1  0
 36 38  1  0
 36 39  1  0
 39 40  1  0
 39 41  1  0
  2 42  2  0
 42 43  1  0
 42 44  1  0
 44 45  2  0
 45 46  1  0
 45 47  1  0
 47 48  1  0
 47 49  2  0
 49 50  1  0
 49 51  1  0
 51 52  1  0
 52 53  1  0
 53 54  1  0
 53 55  1  0
 53 56  1  0
 51 57  2  0
 57 58  1  0
 12  6  1  0
 39 13  1  0
 57 44  1  0
 34 25  1  0
M  CHG  2  11  -1  50  -1
M  END
>  <UniqueID>  (91) 
83

>  <SMILES>  (91) 
COc1cc(/C=C\C(=O)N=c2cc[n-]n2C2CCN(Cc3ccccc3F)CC2)ccc1[O-]

>  <Energy>  (91) 
122.83143707188094

>  <Genealogy>  (91) 
COc1cc(C=CC(=O)N=c2cc[n-]n2C2CCN(Cc3ccccc3F)CC2)ccc1[O-] (protonated)
COc1cc(/C=C\C(=O)N=c2cc[n-]n2C2CCN(Cc3ccccc3F)CC2)ccc1[O-] (cis-trans isomerization)
COc1cc(/C=C\C(=O)N=c2cc[n-]n2C2CCN(Cc3ccccc3F)CC2)ccc1[O-] (3D coordinates assigned)
COc1cc(/C=C\C(=O)N=c2cc[n-]n2C2CCN(Cc3ccccc3F)CC2)ccc1[O-] (nonaromatic ring conformer: 122.83143707188094 kcal/mol)

>  <smiles>  (91) 
COc1cc(C=CC(=O)N=c2cc[nH]n2C2CCN(Cc3ccccc3F)CC2)ccc1O

>  <score_type>  (91) 
oracle

>  <origin>  (91) 
adg

>  <m_score__min__energy>  (91) 
-13.56

>  <m_primary>  (91) 
energy

$$$$
91:0
     RDKit          3D

 40 42  0  0  0  0  0  0  0  0999 V2000
   54.5270   30.3070   44.4750 H   0  0  0  0  0  0  0  0  0  0  0  0
   54.8370   29.3480   44.5640 O   0  0  0  0  0  0  0  0  0  0  0  0
   56.1520   28.9920   44.8730 C   0  0  0  0  0  0  0  0  0  0  0  0
   56.3570   27.8830   45.6220 N   0  0  0  0  0  0  0  0  0  0  0  0
   57.6010   27.4590   45.9540 C   0  0  0  0  0  0  0  0  0  0  0  0
   57.7160   26.4070   46.6390 O   0  0  0  0  0  0  0  0  0  0  0  0
   58.7060   28.1620   45.5450 N   0  0  0  0  0  0  0  0  0  0  0  0
   60.0670   27.7220   45.9270 C   0  0  0  0  0  0  0  0  0  0  0  0
   60.8063   28.3111   45.3645 H   0  0  0  0  0  0  0  0  0  0  0  0
   60.1672   26.6518   45.6931 H   0  0  0  0  0  0  0  0  0  0  0  0
   60.3050   27.9150   47.4090 C   0  0  0  0  0  0  0  0  0  0  0  0
   60.4600   26.7900   48.2400 C   0  0  0  0  0  0  0  0  0  0  0  0
   60.3930   25.7800   47.8095 H   0  0  0  0  0  0  0  0  0  0  0  0
   60.6980   26.9460   49.6060 C   0  0  0  0  0  0  0  0  0  0  0  0
   60.8187   26.0604   50.2472 H   0  0  0  0  0  0  0  0  0  0  0  0
   60.7830   28.2220   50.1590 C   0  0  0  0  0  0  0  0  0  0  0  0
   60.9727   28.3414   51.2359 H   0  0  0  0  0  0  0  0  0  0  0  0
   60.6280   29.3500   49.3500 C   0  0  0  0  0  0  0  0  0  0  0  0
   60.6960   30.3544   49.7934 H   0  0  0  0  0  0  0  0  0  0  0  0
   60.3850   29.2090   47.9690 C   0  0  0  0  0  0  0  0  0  0  0  0
   60.2160   30.3240   47.1340 O   0  0  0  0  0  0  0  0  0  0  0  0
   61.0730   31.4620   47.1190 C   0  0  0  0  0  0  0  0  0  0  0  0
   61.3001   31.7636   48.1522 H   0  0  0  0  0  0  0  0  0  0  0  0
   62.0077   31.2102   46.5966 H   0  0  0  0  0  0  0  0  0  0  0  0
   60.5728   32.2908   46.5966 H   0  0  0  0  0  0  0  0  0  0  0  0
   58.5440   29.2890   44.7760 C   0  0  0  0  0  0  0  0  0  0  0  0
   59.5540   29.9500   44.4050 O   0  0  0  0  0  0  0  0  0  0  0  0
   57.2550   29.7290   44.4120 C   0  0  0  0  0  0  0  0  0  0  0  0
   57.0550   30.9640   43.6150 C   0  0  0  0  0  0  0  0  0  0  0  0
   56.1510   31.0562   42.9951 H   0  0  0  0  0  0  0  0  0  0  0  0
   57.9380   31.9700   43.6250 C   0  0  0  0  0  0  0  0  0  0  0  0
   58.4900   32.1983   42.7013 H   0  0  0  0  0  0  0  0  0  0  0  0
   58.1990   32.7830   44.8250 C   0  0  0  0  0  0  0  0  0  0  0  0
   57.7860   32.4050   46.4160 S   0  0  0  0  0  0  0  0  0  0  0  0
   58.4220   33.7980   47.1100 C   0  0  0  0  0  0  0  0  0  0  0  0
   58.4081   34.0491   48.1809 H   0  0  0  0  0  0  0  0  0  0  0  0
   58.9680   34.5770   46.0980 C   0  0  0  0  0  0  0  0  0  0  0  0
   59.4523   35.5474   46.2816 H   0  0  0  0  0  0  0  0  0  0  0  0
   58.8450   34.0130   44.8230 C   0  0  0  0  0  0  0  0  0  0  0  0
   59.2225   34.4959   43.9096 H   0  0  0  0  0  0  0  0  0  0  0  0
  1  2  1  0
  2  3  1  0
  3  4  1  0
  4  5  1  0
  5  6  2  0
  5  7  1  0
  7  8  1  0
  8  9  1  0
  8 10  1  0
  8 11  1  0
 11 12  2  0
 12 13  1  0
 12 14  1  0
 14 15  1  0
 14 16  2  0
 16 17  1  0
 16 18  1  0
 18 19  1  0
 18 20  2  0
 20 21  1  0
 21 22  1  0
 22 23  1  0
 22 24  1  0
 22 25  1  0
  7 26  1  0
 26 27  2  0
 26 28  1  0
 28 29  1  0
 29 30  1  0
 29 31  2  0
 31 32  1  0
 31 33  1  0
 33 34  1  0
 34 35  1  0
 35 36  1  0
 35 37  2  0
 37 38  1  0
 37 39  1  0
 39 40  1  0
 28  3  2  0
 39 33  2  0
 20 11  1  0
M  CHG  1   4  -1
M  END
>  <UniqueID>  (92) 
84

>  <SMILES>  (92) 
COc1ccccc1Cn1c(=O)[n-]c(O)c(/C=C/c2cccs2)c1=O

>  <Energy>  (92) 
78.84849233321819

>  <Genealogy>  (92) 
COc1ccccc1Cn1c(=O)[n-]c(O)c(C=Cc2cccs2)c1=O (protonated)
COc1ccccc1Cn1c(=O)[n-]c(O)c(/C=C/c2cccs2)c1=O (cis-trans isomerization)
COc1ccccc1Cn1c(=O)[n-]c(O)c(/C=C/c2cccs2)c1=O (3D coordinates assigned)
COc1ccccc1Cn1c(=O)[n-]c(O)c(/C=C/c2cccs2)c1=O (optimized conformer: 78.84849233321819 kcal/mol)

>  <smiles>  (92) 
COc1ccccc1Cn1c(=O)[nH]c(O)c(C=Cc2cccs2)c1=O

>  <score_type>  (92) 
oracle

>  <origin>  (92) 
adg

>  <m_score__min__energy>  (92) 
-10.109999999999999

>  <m_primary>  (92) 
energy

$$$$
92:0
     RDKit          3D

 59 62  0  0  0  0  0  0  0  0999 V2000
   58.6660   22.2150   44.8070 C   0  0  0  0  0  0  0  0  0  0  0  0
   57.8660   22.8190   45.8180 O   0  0  0  0  0  0  0  0  0  0  0  0
   56.5810   23.3440   45.6120 C   0  0  0  0  0  0  0  0  0  0  0  0
   55.5340   22.5500   45.1010 C   0  0  0  0  0  0  0  0  0  0  0  0
   54.2690   23.0950   44.8980 C   0  0  0  0  0  0  0  0  0  0  0  0
   54.0320   24.4390   45.1790 C   0  0  0  0  0  0  0  0  0  0  0  0
   55.0530   25.2420   45.6900 C   0  0  0  0  0  0  0  0  0  0  0  0
   54.7710   26.5690   45.9960 O   0  0  0  0  0  0  0  0  0  0  0  0
   56.3370   24.7020   45.9170 C   0  0  0  0  0  0  0  0  0  0  0  0
   57.4010   25.5330   46.5360 C   0  0  0  0  0  0  0  0  0  0  0  0
   57.3800   25.7440   47.7750 O   0  0  0  0  0  0  0  0  0  0  0  0
   58.4040   26.1870   45.7480 N   0  0  0  0  0  0  0  0  0  0  0  0
   58.3690   27.4270   45.3600 C   0  0  0  0  0  0  0  0  0  0  0  0
   59.4820   28.0880   44.9800 N   0  0  0  0  0  0  0  0  0  0  0  0
   59.2030   29.3470   44.5530 C   0  0  0  0  0  0  0  0  0  0  0  0
   57.8580   29.6940   44.5940 C   0  0  0  0  0  0  0  0  0  0  0  0
   57.2890   30.9710   44.0450 C   0  0  0  0  0  0  0  0  0  0  0  0
   57.7770   32.1820   44.7940 C   0  0  0  0  0  0  0  0  0  0  0  0
   57.7810   33.4460   44.1780 C   0  0  0  0  0  0  0  0  0  0  0  0
   58.2480   34.5630   44.8730 C   0  0  0  0  0  0  0  0  0  0  0  0
   58.6920   34.4380   46.1900 C   0  0  0  0  0  0  0  0  0  0  0  0
   58.6680   33.1870   46.8230 C   0  0  0  0  0  0  0  0  0  0  0  0
   59.0680   33.0590   48.2330 C   0  0  0  0  0  0  0  0  0  0  0  0
   58.1920   32.7090   49.0720 O   0  0  0  0  0  0  0  0  0  0  0  0
   60.4130   33.3630   48.6740 N   0  0  0  0  0  0  0  0  0  0  0  0
   61.4220   33.9020   47.7480 C   0  0  0  0  0  0  0  0  0  0  0  0
   62.8150   33.3810   48.1130 C   0  0  0  0  0  0  0  0  0  0  0  0
   63.1000   33.5370   49.5470 N   0  0  0  0  0  0  0  0  0  0  0  0
   64.4520   33.3340   50.0100 C   0  0  0  0  0  0  0  0  0  0  0  0
   64.9160   33.8380   51.3410 C   0  0  0  0  0  0  0  0  0  0  0  0
   65.2730   32.7070   49.2860 O   0  0  0  0  0  0  0  0  0  0  0  0
   62.0420   34.0070   50.4530 C   0  0  0  0  0  0  0  0  0  0  0  0
   60.7050   33.3320   50.1180 C   0  0  0  0  0  0  0  0  0  0  0  0
   58.2360   32.0560   46.1150 C   0  0  0  0  0  0  0  0  0  0  0  0
   56.9800   28.3690   45.1640 S   0  0  0  0  0  0  0  0  0  0  0  0
   59.4598   21.6157   45.2768 H   0  0  0  0  0  0  0  0  0  0  0  0
   58.0370   21.5645   44.1815 H   0  0  0  0  0  0  0  0  0  0  0  0
   59.1193   22.9981   44.1815 H   0  0  0  0  0  0  0  0  0  0  0  0
   55.7179   21.4924   44.8610 H   0  0  0  0  0  0  0  0  0  0  0  0
   53.4545   22.4628   44.5147 H   0  0  0  0  0  0  0  0  0  0  0  0
   53.0360   24.8691   44.9974 H   0  0  0  0  0  0  0  0  0  0  0  0
   59.9824   30.0391   44.2015 H   0  0  0  0  0  0  0  0  0  0  0  0
   57.5844   31.0650   42.9896 H   0  0  0  0  0  0  0  0  0  0  0  0
   56.1953   30.9262   44.1535 H   0  0  0  0  0  0  0  0  0  0  0  0
   57.4154   33.5549   43.1463 H   0  0  0  0  0  0  0  0  0  0  0  0
   58.2661   35.5463   44.3802 H   0  0  0  0  0  0  0  0  0  0  0  0
   59.0610   35.3213   46.7319 H   0  0  0  0  0  0  0  0  0  0  0  0
   61.1758   33.5901   46.7223 H   0  0  0  0  0  0  0  0  0  0  0  0
   61.4217   34.9996   47.8200 H   0  0  0  0  0  0  0  0  0  0  0  0
   62.8752   32.3140   47.8524 H   0  0  0  0  0  0  0  0  0  0  0  0
   63.5567   33.9685   47.5520 H   0  0  0  0  0  0  0  0  0  0  0  0
   64.4051   33.2830   52.1416 H   0  0  0  0  0  0  0  0  0  0  0  0
   66.0027   33.6923   51.4297 H   0  0  0  0  0  0  0  0  0  0  0  0
   64.6812   34.9090   51.4297 H   0  0  0  0  0  0  0  0  0  0  0  0
   62.3196   33.7648   51.4895 H   0  0  0  0  0  0  0  0  0  0  0  0
   61.9300   35.0947   50.3335 H   0  0  0  0  0  0  0  0  0  0  0  0
   60.7445   32.2838   50.4491 H   0  0  0  0  0  0  0  0  0  0  0  0
   59.9078   33.8854   50.6360 H   0  0  0  0  0  0  0  0  0  0  0  0
   58.2568   31.0670   46.5961 H   0  0  0  0  0  0  0  0  0  0  0  0
  1  2  1  0
  2  3  1  0
  3  4  2  0
  4  5  1  0
  5  6  2  0
  6  7  1  0
  7  8  1  0
  7  9  2  0
  9 10  1  0
 10 11  2  0
 10 12  1  0
 12 13  2  3
 13 14  1  0
 14 15  1  0
 15 16  2  0
 16 17  1  0
 17 18  1  0
 18 19  2  0
 19 20  1  0
 20 21  2  0
 21 22  1  0
 22 23  1  0
 23 24  2  0
 23 25  1  0
 25 26  1  0
 26 27  1  0
 27 28  1  0
 28 29  1  0
 29 30  1  0
 29 31  2  0
 28 32  1  0
 32 33  1  0
 22 34  2  0
 16 35  1  0
  9  3  1  0
 35 13  1  0
 34 18  1  0
 33 25  1  0
  1 36  1  0
  1 37  1  0
  1 38  1  0
  4 39  1  0
  5 40  1  0
  6 41  1  0
 15 42  1  0
 17 43  1  0
 17 44  1  0
 19 45  1  0
 20 46  1  0
 21 47  1  0
 26 48  1  0
 26 49  1  0
 27 50  1  0
 27 51  1  0
 30 52  1  0
 30 53  1  0
 30 54  1  0
 32 55  1  0
 32 56  1  0
 33 57  1  0
 33 58  1  0
 34 59  1  0
M  CHG  2   8  -1  14  -1
M  END
>  <UniqueID>  (93) 
85

>  <SMILES>  (93) 
COc1cccc([O-])c1C(=O)N=c1[n-]cc(Cc2cccc(C(=O)N3CCN(C(C)=O)CC3)c2)s1

>  <Energy>  (93) 
106.42940455277751

>  <Genealogy>  (93) 
COc1cccc([O-])c1C(=O)N=c1[n-]cc(Cc2cccc(C(=O)N3CCN(C(C)=O)CC3)c2)s1 (protonated)
COc1cccc([O-])c1C(=O)N=c1[n-]cc(Cc2cccc(C(=O)N3CCN(C(C)=O)CC3)c2)s1 (3D coordinates assigned)
COc1cccc([O-])c1C(=O)N=c1[n-]cc(Cc2cccc(C(=O)N3CCN(C(C)=O)CC3)c2)s1 (nonaromatic ring conformer: 106.42940455277751 kcal/mol)

>  <smiles>  (93) 
COc1cccc(O)c1C(=O)N=c1[nH]cc(Cc2cccc(C(=O)N3CCN(C(C)=O)CC3)c2)s1

>  <score_type>  (93) 
oracle

>  <origin>  (93) 
adg

>  <m_score__min__energy>  (93) 
-14.4

>  <m_primary>  (93) 
energy

$$$$
93:0
     RDKit          3D

 39 41  0  0  0  0  0  0  0  0999 V2000
   55.1960   26.3540   45.9920 N   0  0  0  0  0  0  0  0  0  0  0  0
   56.9000   26.6430   45.9600 S   0  0  0  0  0  0  0  0  0  0  0  0
   57.5420   25.7410   44.9460 O   0  0  0  0  0  0  0  0  0  0  0  0
   57.4650   26.3460   47.3210 O   0  0  0  0  0  0  0  0  0  0  0  0
   57.2150   28.3230   45.5350 C   0  0  0  0  0  0  0  0  0  0  0  0
   58.3910   28.9490   45.9680 C   0  0  0  0  0  0  0  0  0  0  0  0
   58.6430   30.2830   45.6340 C   0  0  0  0  0  0  0  0  0  0  0  0
   57.7170   31.0100   44.8650 C   0  0  0  0  0  0  0  0  0  0  0  0
   57.9370   32.3790   44.4960 N   0  0  0  0  0  0  0  0  0  0  0  0
   57.9670   33.7220   45.5950 S   0  0  0  0  0  0  0  0  0  0  0  0
   56.7040   33.7340   46.4130 O   0  0  0  0  0  0  0  0  0  0  0  0
   58.0370   34.9990   44.8070 O   0  0  0  0  0  0  0  0  0  0  0  0
   59.3900   33.6150   46.6290 C   0  0  0  0  0  0  0  0  0  0  0  0
   59.2600   33.5310   48.0220 C   0  0  0  0  0  0  0  0  0  0  0  0
   60.3960   33.4260   48.8310 C   0  0  0  0  0  0  0  0  0  0  0  0
   61.6790   33.4060   48.2560 C   0  0  0  0  0  0  0  0  0  0  0  0
   62.8550   33.3090   49.0820 N   0  0  0  0  0  0  0  0  0  0  0  0
   64.1540   32.8120   48.6400 C   0  0  0  0  0  0  0  0  0  0  0  0
   65.1240   33.0740   49.8180 C   0  0  0  0  0  0  0  0  0  0  0  0
   64.3260   33.6550   50.8920 N   0  0  0  0  0  0  0  0  0  0  0  0
   63.0070   33.7730   50.4090 C   0  0  0  0  0  0  0  0  0  0  0  0
   62.0590   34.2060   51.1150 O   0  0  0  0  0  0  0  0  0  0  0  0
   61.8030   33.5120   46.8590 C   0  0  0  0  0  0  0  0  0  0  0  0
   60.6650   33.6080   46.0530 C   0  0  0  0  0  0  0  0  0  0  0  0
   56.5340   30.3850   44.4500 C   0  0  0  0  0  0  0  0  0  0  0  0
   56.2830   29.0500   44.7820 C   0  0  0  0  0  0  0  0  0  0  0  0
   54.7710   27.0930   46.5970 H   0  0  0  0  0  0  0  0  0  0  0  0
   59.1190   28.3888   46.5731 H   0  0  0  0  0  0  0  0  0  0  0  0
   59.5705   30.7664   45.9746 H   0  0  0  0  0  0  0  0  0  0  0  0
   58.2604   33.5477   48.4808 H   0  0  0  0  0  0  0  0  0  0  0  0
   60.2852   33.3587   49.9233 H   0  0  0  0  0  0  0  0  0  0  0  0
   64.0987   31.7355   48.4205 H   0  0  0  0  0  0  0  0  0  0  0  0
   64.4886   33.3117   47.7189 H   0  0  0  0  0  0  0  0  0  0  0  0
   65.5800   32.1302   50.1516 H   0  0  0  0  0  0  0  0  0  0  0  0
   65.9391   33.7494   49.5187 H   0  0  0  0  0  0  0  0  0  0  0  0
   62.8017   33.5194   46.3979 H   0  0  0  0  0  0  0  0  0  0  0  0
   60.7724   33.6784   44.9605 H   0  0  0  0  0  0  0  0  0  0  0  0
   55.7972   30.9484   43.8587 H   0  0  0  0  0  0  0  0  0  0  0  0
   55.3509   28.5688   44.4510 H   0  0  0  0  0  0  0  0  0  0  0  0
  1  2  1  0
  2  3  2  0
  2  4  2  0
  2  5  1  0
  5  6  2  0
  6  7  1  0
  7  8  2  0
  8  9  1  0
  9 10  1  0
 10 11  2  0
 10 12  2  0
 10 13  1  0
 13 14  2  0
 14 15  1  0
 15 16  2  0
 16 17  1  0
 17 18  1  0
 18 19  1  0
 19 20  1  0
 20 21  1  0
 21 22  2  0
 16 23  1  0
 23 24  2  0
  8 25  1  0
 25 26  2  0
 26  5  1  0
 24 13  1  0
 21 17  1  0
  1 27  1  0
  6 28  1  0
  7 29  1  0
 14 30  1  0
 15 31  1  0
 18 32  1  0
 18 33  1  0
 19 34  1  0
 19 35  1  0
 23 36  1  0
 24 37  1  0
 25 38  1  0
 26 39  1  0
M  CHG  3   1  -1   9  -1  20  -1
M  END
>  <UniqueID>  (94) 
86

>  <SMILES>  (94) 
[NH-]S(=O)(=O)c1ccc([N-]S(=O)(=O)c2ccc(N3CC[N-]C3=O)cc2)cc1

>  <Energy>  (94) 
61.31754196366781

>  <Genealogy>  (94) 
[NH-]S(=O)(=O)c1ccc([N-]S(=O)(=O)c2ccc(N3CC[N-]C3=O)cc2)cc1 (protonated)
[NH-]S(=O)(=O)c1ccc([N-]S(=O)(=O)c2ccc(N3CC[N-]C3=O)cc2)cc1 (3D coordinates assigned)
[NH-]S(=O)(=O)c1ccc([N-]S(=O)(=O)c2ccc(N3CC[N-]C3=O)cc2)cc1 (nonaromatic ring conformer: 61.31754196366781 kcal/mol)

>  <smiles>  (94) 
NS(=O)(=O)c1ccc(NS(=O)(=O)c2ccc(N3CCNC3=O)cc2)cc1

>  <score_type>  (94) 
oracle

>  <origin>  (94) 
adg

>  <m_score__min__energy>  (94) 
-13.380000000000001

>  <m_primary>  (94) 
energy

$$$$
94:0
     RDKit          3D

 42 44  0  0  0  0  0  0  0  0999 V2000
   56.5720   32.7600   44.2600 H   0  0  0  0  0  0  0  0  0  0  0  0
   57.0150   33.6150   44.5680 O   0  0  0  0  0  0  0  0  0  0  0  0
   58.1620   33.6210   45.3620 C   0  0  0  0  0  0  0  0  0  0  0  0
   58.9540   34.7730   45.3800 C   0  0  0  0  0  0  0  0  0  0  0  0
   58.6847   35.6323   44.7482 H   0  0  0  0  0  0  0  0  0  0  0  0
   60.0850   34.8380   46.1960 C   0  0  0  0  0  0  0  0  0  0  0  0
   60.7062   35.7458   46.2015 H   0  0  0  0  0  0  0  0  0  0  0  0
   60.4290   33.7550   47.0040 C   0  0  0  0  0  0  0  0  0  0  0  0
   61.3179   33.8147   47.6492 H   0  0  0  0  0  0  0  0  0  0  0  0
   59.6470   32.5880   46.9990 C   0  0  0  0  0  0  0  0  0  0  0  0
   60.0500   31.4140   47.8490 C   0  0  0  0  0  0  0  0  0  0  0  0
   59.9580   31.6821   48.9119 H   0  0  0  0  0  0  0  0  0  0  0  0
   59.3939   30.5591   47.6283 H   0  0  0  0  0  0  0  0  0  0  0  0
   61.0928   31.1423   47.6283 H   0  0  0  0  0  0  0  0  0  0  0  0
   58.5230   32.5080   46.1520 C   0  0  0  0  0  0  0  0  0  0  0  0
   57.7580   31.3000   46.1050 N   0  0  0  0  0  0  0  0  0  0  0  0
   57.2060   30.6200   44.6110 S   0  0  0  0  0  0  0  0  0  0  0  0
   57.9210   31.2810   43.4670 O   0  0  0  0  0  0  0  0  0  0  0  0
   55.7300   30.8610   44.4570 O   0  0  0  0  0  0  0  0  0  0  0  0
   57.5390   28.8910   44.5970 C   0  0  0  0  0  0  0  0  0  0  0  0
   57.7920   28.2480   43.3810 C   0  0  0  0  0  0  0  0  0  0  0  0
   57.7759   28.8225   42.4431 H   0  0  0  0  0  0  0  0  0  0  0  0
   58.0650   26.8790   43.3540 C   0  0  0  0  0  0  0  0  0  0  0  0
   58.2610   26.3777   42.3947 H   0  0  0  0  0  0  0  0  0  0  0  0
   58.0900   26.1440   44.5420 C   0  0  0  0  0  0  0  0  0  0  0  0
   58.3040   25.0654   44.5127 H   0  0  0  0  0  0  0  0  0  0  0  0
   57.8430   26.7750   45.7770 C   0  0  0  0  0  0  0  0  0  0  0  0
   57.8760   25.9990   47.0400 C   0  0  0  0  0  0  0  0  0  0  0  0
   58.8980   26.0500   47.7780 O   0  0  0  0  0  0  0  0  0  0  0  0
   56.7410   25.1970   47.4160 N   0  0  0  0  0  0  0  0  0  0  0  0
   55.9780   24.4940   46.6290 C   0  0  0  0  0  0  0  0  0  0  0  0
   56.1390   23.1450   46.5080 N   0  0  0  0  0  0  0  0  0  0  0  0
   55.3530   22.3930   45.6910 C   0  0  0  0  0  0  0  0  0  0  0  0
   55.5141   21.3072   45.6191 H   0  0  0  0  0  0  0  0  0  0  0  0
   54.3420   23.0000   44.9440 C   0  0  0  0  0  0  0  0  0  0  0  0
   53.7020   22.3981   44.2821 H   0  0  0  0  0  0  0  0  0  0  0  0
   54.1520   24.3790   45.0460 C   0  0  0  0  0  0  0  0  0  0  0  0
   53.3604   24.8712   44.4620 H   0  0  0  0  0  0  0  0  0  0  0  0
   54.9700   25.1330   45.8920 C   0  0  0  0  0  0  0  0  0  0  0  0
   54.7780   26.5080   45.9940 O   0  0  0  0  0  0  0  0  0  0  0  0
   57.5670   28.1560   45.7910 C   0  0  0  0  0  0  0  0  0  0  0  0
   57.3716   28.6629   46.7475 H   0  0  0  0  0  0  0  0  0  0  0  0
  1  2  1  0
  2  3  1  0
  3  4  2  0
  4  5  1  0
  4  6  1  0
  6  7  1  0
  6  8  2  0
  8  9  1  0
  8 10  1  0
 10 11  1  0
 11 12  1  0
 11 13  1  0
 11 14  1  0
 10 15  2  0
 15 16  1  0
 16 17  1  0
 17 18  2  0
 17 19  2  0
 17 20  1  0
 20 21  2  0
 21 22  1  0
 21 23  1  0
 23 24  1  0
 23 25  2  0
 25 26  1  0
 25 27  1  0
 27 28  1  0
 28 29  2  0
 28 30  1  0
 30 31  2  0
 31 32  1  0
 32 33  1  0
 33 34  1  0
 33 35  2  0
 35 36  1  0
 35 37  1  0
 37 38  1  0
 37 39  2  0
 39 40  1  0
 27 41  2  0
 41 42  1  0
 15  3  1  0
 41 20  1  0
 39 31  1  0
M  CHG  3  16  -1  32  -1  40  -1
M  END
>  <UniqueID>  (95) 
87

>  <SMILES>  (95) 
Cc1cccc(O)c1[N-]S(=O)(=O)c1cccc(C(=O)/N=c2\[n-]cccc2[O-])c1

>  <Energy>  (95) 
59.81747623010763

>  <Genealogy>  (95) 
Cc1cccc(O)c1[N-]S(=O)(=O)c1cccc(C(=O)N=c2[n-]cccc2[O-])c1 (protonated)
Cc1cccc(O)c1[N-]S(=O)(=O)c1cccc(C(=O)/N=c2\[n-]cccc2[O-])c1 (cis-trans isomerization)
Cc1cccc(O)c1[N-]S(=O)(=O)c1cccc(C(=O)/N=c2\[n-]cccc2[O-])c1 (3D coordinates assigned)
Cc1cccc(O)c1[N-]S(=O)(=O)c1cccc(C(=O)/N=c2\[n-]cccc2[O-])c1 (optimized conformer: 59.81747623010763 kcal/mol)

>  <smiles>  (95) 
Cc1cccc(O)c1NS(=O)(=O)c1cccc(C(=O)N=c2[nH]cccc2O)c1

>  <score_type>  (95) 
oracle

>  <origin>  (95) 
adg

>  <m_score__min__energy>  (95) 
-14.529999999999999

>  <m_primary>  (95) 
energy

$$$$
