0:0
     RDKit          3D

 53 56  0  0  1  0  0  0  0  0999 V2000
   60.1620   31.0340   47.1820 O   0  0  0  0  0  0  0  0  0  0  0  0
   59.0050   31.5640   47.0490 C   0  0  0  0  0  0  0  0  0  0  0  0
   58.5220   32.2070   48.2090 N   0  0  0  0  0  0  0  0  0  0  0  0
   59.3140   32.2330   49.4400 C   0  0  1  0  0  0  0  0  0  0  0  0
   60.1200   33.5030   49.4060 C   0  0  0  0  0  0  0  0  0  0  0  0
   61.3840   33.3450   48.6840 C   0  0  0  0  0  0  0  0  0  0  0  0
   62.4930   32.7010   49.1650 C   0  0  0  0  0  0  0  0  0  0  0  0
   63.6470   32.6010   48.4000 C   0  0  0  0  0  0  0  0  0  0  0  0
   63.7100   33.1550   47.1220 C   0  0  0  0  0  0  0  0  0  0  0  0
   62.6020   33.8020   46.6340 C   0  0  0  0  0  0  0  0  0  0  0  0
   61.4600   33.8940   47.4030 C   0  0  0  0  0  0  0  0  0  0  0  0
   58.4810   32.0880   50.6540 C   0  0  0  0  0  0  0  0  0  0  0  0
   57.4130   32.6760   50.8700 O   0  0  0  0  0  0  0  0  0  0  0  0
   58.9560   31.1900   51.6600 N   0  0  0  0  0  0  0  0  0  0  0  0
   58.1850   30.7990   52.6170 C   0  0  0  0  0  0  0  0  0  0  0  0
   57.4200   29.5150   52.5670 C   0  0  0  0  0  0  0  0  0  0  0  0
   55.9810   29.8400   52.3770 C   0  0  0  0  0  0  0  0  0  0  0  0
   54.9360   29.1270   52.8740 N   0  0  0  0  0  0  0  0  0  0  0  0
   53.7830   29.7060   52.5080 C   0  0  0  0  0  0  0  0  0  0  0  0
   52.4860   29.3180   52.7910 C   0  0  0  0  0  0  0  0  0  0  0  0
   51.4490   30.0790   52.3010 C   0  0  0  0  0  0  0  0  0  0  0  0
   51.7380   31.1980   51.5470 C   0  0  0  0  0  0  0  0  0  0  0  0
   53.0450   31.5700   51.2740 C   0  0  0  0  0  0  0  0  0  0  0  0
   54.0900   30.8160   51.7590 C   0  0  0  0  0  0  0  0  0  0  0  0
   55.4320   30.8670   51.7010 N   0  0  0  0  0  0  0  0  0  0  0  0
   58.3520   31.4500   45.7780 C   0  0  0  0  0  0  0  0  0  0  0  0
   58.1040   32.4470   44.8730 C   0  0  0  0  0  0  0  0  0  0  0  0
   58.5140   34.0960   45.2060 Cl  0  0  0  0  0  0  0  0  0  0  0  0
   57.4840   32.2010   43.6360 C   0  0  0  0  0  0  0  0  0  0  0  0
   57.0930   30.9370   43.2770 C   0  0  0  0  0  0  0  0  0  0  0  0
   57.3360   29.9260   44.1790 C   0  0  0  0  0  0  0  0  0  0  0  0
   57.9430   30.1670   45.3880 C   0  0  0  0  0  0  0  0  0  0  0  0
   58.1920   28.7770   46.4400 Cl  0  0  0  0  0  0  0  0  0  0  0  0
   57.6200   32.6850   48.2320 H   0  0  0  0  0  0  0  0  0  0  0  0
   59.9900   31.3667   49.4910 H   0  0  0  0  0  0  0  0  0  0  0  0
   59.5258   34.2849   48.9104 H   0  0  0  0  0  0  0  0  0  0  0  0
   60.3597   33.7750   50.4445 H   0  0  0  0  0  0  0  0  0  0  0  0
   62.4689   32.2570   50.1711 H   0  0  0  0  0  0  0  0  0  0  0  0
   64.5242   32.0773   48.8078 H   0  0  0  0  0  0  0  0  0  0  0  0
   64.6264   33.0754   46.5188 H   0  0  0  0  0  0  0  0  0  0  0  0
   62.6246   34.2477   45.6286 H   0  0  0  0  0  0  0  0  0  0  0  0
   60.5825   34.4161   46.9939 H   0  0  0  0  0  0  0  0  0  0  0  0
   58.0859   31.4369   53.5077 H   0  0  0  0  0  0  0  0  0  0  0  0
   57.7773   28.9008   51.7273 H   0  0  0  0  0  0  0  0  0  0  0  0
   57.5626   28.9505   53.5003 H   0  0  0  0  0  0  0  0  0  0  0  0
   52.2874   28.4203   53.3949 H   0  0  0  0  0  0  0  0  0  0  0  0
   50.4054   29.7993   52.5074 H   0  0  0  0  0  0  0  0  0  0  0  0
   50.9121   31.8088   51.1536 H   0  0  0  0  0  0  0  0  0  0  0  0
   53.2473   32.4670   50.6703 H   0  0  0  0  0  0  0  0  0  0  0  0
   55.9710   31.6000   51.2000 H   0  0  0  0  0  0  0  0  0  0  0  0
   57.3093   33.0376   42.9435 H   0  0  0  0  0  0  0  0  0  0  0  0
   56.6064   30.7394   42.3105 H   0  0  0  0  0  0  0  0  0  0  0  0
   57.0365   28.8984   43.9254 H   0  0  0  0  0  0  0  0  0  0  0  0
  1  2  2  0
  2  3  1  0
  3  4  1  0
  4  5  1  0
  5  6  1  0
  6  7  2  0
  7  8  1  0
  8  9  2  0
  9 10  1  0
 10 11  2  0
  4 12  1  0
 12 13  2  0
 12 14  1  0
 14 15  2  0
 15 16  1  0
 16 17  1  0
 17 18  2  0
 18 19  1  0
 19 20  2  0
 20 21  1  0
 21 22  2  0
 22 23  1  0
 23 24  2  0
 24 25  1  0
  2 26  1  0
 26 27  2  0
 27 28  1  0
 27 29  1  0
 29 30  2  0
 30 31  1  0
 31 32  2  0
 32 33  1  0
 11  6  1  0
 25 17  1  0
 32 26  1  0
 24 19  1  0
  3 34  1  0
  4 35  1  6
  5 36  1  0
  5 37  1  0
  7 38  1  0
  8 39  1  0
  9 40  1  0
 10 41  1  0
 11 42  1  0
 15 43  1  0
 16 44  1  0
 16 45  1  0
 20 46  1  0
 21 47  1  0
 22 48  1  0
 23 49  1  0
 25 50  1  0
 29 51  1  0
 30 52  1  0
 31 53  1  0
M  END
>  <smiles>  (1) 
O=C(NC(Cc1ccccc1)C(=O)N=CCc1nc2ccccc2[nH]1)c1c(Cl)cccc1Cl

>  <score_type>  (1) 
oracle

>  <origin>  (1) 
adg

>  <m_score__min__energy>  (1) 
-9.3599999999999994

>  <m_primary>  (1) 
energy

$$$$
1:0
     RDKit          3D

 50 52  0  0  0  0  0  0  0  0999 V2000
   61.0990   28.6180   50.2850 C   0  0  0  0  0  0  0  0  0  0  0  0
   60.9030   29.7370   49.3470 N   0  0  2  0  0  0  0  0  0  0  0  0
   61.0990   31.0480   50.0130 C   0  0  0  0  0  0  0  0  0  0  0  0
   61.9510   31.9800   49.1820 C   0  0  0  0  0  0  0  0  0  0  0  0
   62.3690   31.6080   47.8930 C   0  0  0  0  0  0  0  0  0  0  0  0
   63.1380   32.4850   47.1220 C   0  0  0  0  0  0  0  0  0  0  0  0
   63.4930   33.7370   47.6280 C   0  0  0  0  0  0  0  0  0  0  0  0
   63.0780   34.1170   48.9080 C   0  0  0  0  0  0  0  0  0  0  0  0
   62.3080   33.2440   49.6830 C   0  0  0  0  0  0  0  0  0  0  0  0
   59.5680   29.6580   48.7850 C   0  0  0  0  0  0  0  0  0  0  0  0
   58.5700   29.9410   49.5040 O   0  0  0  0  0  0  0  0  0  0  0  0
   59.3350   29.2230   47.3810 C   0  0  0  0  0  0  0  0  0  0  0  0
   60.0800   28.1550   46.8500 C   0  0  0  0  0  0  0  0  0  0  0  0
   59.8770   27.7320   45.5350 C   0  0  0  0  0  0  0  0  0  0  0  0
   58.9360   28.3740   44.7290 C   0  0  0  0  0  0  0  0  0  0  0  0
   58.1940   29.4480   45.2350 C   0  0  0  0  0  0  0  0  0  0  0  0
   56.9850   30.2550   44.2360 S   0  0  0  0  0  0  0  0  0  0  0  0
   56.9920   29.6260   42.8720 O   0  0  0  0  0  0  0  0  0  0  0  0
   55.6160   30.0780   44.8340 O   0  0  0  0  0  0  0  0  0  0  0  0
   57.3380   31.9540   44.0780 N   0  0  0  0  0  0  0  0  0  0  0  0
   56.8280   32.7170   45.2200 C   0  0  0  0  0  0  0  0  0  0  0  0
   57.9490   33.3720   45.9830 C   0  0  0  0  0  0  0  0  0  0  0  0
   58.8050   34.2880   45.3460 C   0  0  0  0  0  0  0  0  0  0  0  0
   59.8410   34.8980   46.0590 C   0  0  0  0  0  0  0  0  0  0  0  0
   60.0270   34.6030   47.4130 C   0  0  0  0  0  0  0  0  0  0  0  0
   59.1810   33.6940   48.0540 C   0  0  0  0  0  0  0  0  0  0  0  0
   58.1440   33.0810   47.3430 C   0  0  0  0  0  0  0  0  0  0  0  0
   58.3960   29.8720   46.5560 C   0  0  0  0  0  0  0  0  0  0  0  0
   61.0339   28.9899   51.3182 H   0  0  0  0  0  0  0  0  0  0  0  0
   60.3201   27.8593   50.1186 H   0  0  0  0  0  0  0  0  0  0  0  0
   62.0894   28.1692   50.1186 H   0  0  0  0  0  0  0  0  0  0  0  0
   61.6110   29.6610   48.5800 H   0  0  0  0  0  0  0  0  0  0  0  0
   60.1163   31.5147   50.1759 H   0  0  0  0  0  0  0  0  0  0  0  0
   61.6171   30.8718   50.9672 H   0  0  0  0  0  0  0  0  0  0  0  0
   62.0903   30.6235   47.4892 H   0  0  0  0  0  0  0  0  0  0  0  0
   63.4641   32.1879   46.1143 H   0  0  0  0  0  0  0  0  0  0  0  0
   64.0991   34.4244   47.0196 H   0  0  0  0  0  0  0  0  0  0  0  0
   63.3575   35.1037   49.3058 H   0  0  0  0  0  0  0  0  0  0  0  0
   61.9805   33.5475   50.6883 H   0  0  0  0  0  0  0  0  0  0  0  0
   60.8292   27.6484   47.4761 H   0  0  0  0  0  0  0  0  0  0  0  0
   60.4604   26.8904   45.1333 H   0  0  0  0  0  0  0  0  0  0  0  0
   58.7770   28.0357   43.6945 H   0  0  0  0  0  0  0  0  0  0  0  0
   56.1412   33.4944   44.8540 H   0  0  0  0  0  0  0  0  0  0  0  0
   56.3055   32.0241   45.8959 H   0  0  0  0  0  0  0  0  0  0  0  0
   58.6586   34.5255   44.2820 H   0  0  0  0  0  0  0  0  0  0  0  0
   60.5103   35.6105   45.5546 H   0  0  0  0  0  0  0  0  0  0  0  0
   60.8400   35.0869   47.9742 H   0  0  0  0  0  0  0  0  0  0  0  0
   59.3307   33.4604   49.1184 H   0  0  0  0  0  0  0  0  0  0  0  0
   57.4783   32.3679   47.8513 H   0  0  0  0  0  0  0  0  0  0  0  0
   57.8161   30.7189   46.9515 H   0  0  0  0  0  0  0  0  0  0  0  0
  1  2  1  0
  2  3  1  0
  3  4  1  0
  4  5  2  0
  5  6  1  0
  6  7  2  0
  7  8  1  0
  8  9  2  0
  2 10  1  0
 10 11  2  0
 10 12  1  0
 12 13  2  0
 13 14  1  0
 14 15  2  0
 15 16  1  0
 16 17  1  0
 17 18  2  0
 17 19  2  0
 17 20  1  0
 20 21  1  0
 21 22  1  0
 22 23  2  0
 23 24  1  0
 24 25  2  0
 25 26  1  0
 26 27  2  0
 16 28  2  0
  9  4  1  0
 28 12  1  0
 27 22  1  0
  1 29  1  0
  1 30  1  0
  1 31  1  0
  2 32  1  6
  3 33  1  0
  3 34  1  0
  5 35  1  0
  6 36  1  0
  7 37  1  0
  8 38  1  0
  9 39  1  0
 13 40  1  0
 14 41  1  0
 15 42  1  0
 21 43  1  0
 21 44  1  0
 23 45  1  0
 24 46  1  0
 25 47  1  0
 26 48  1  0
 27 49  1  0
 28 50  1  0
M  CHG  2   2   1  20  -1
M  END
>  <UniqueID>  (2) 
1

>  <SMILES>  (2) 
C[N@H+](Cc1ccccc1)C(=O)c1cccc(S(=O)(=O)[N-]Cc2ccccc2)c1

>  <Energy>  (2) 
55.601890880856715

>  <Genealogy>  (2) 
C[NH+](Cc1ccccc1)C(=O)c1cccc(S(=O)(=O)[N-]Cc2ccccc2)c1 (protonated)
C[N@H+](Cc1ccccc1)C(=O)c1cccc(S(=O)(=O)[N-]Cc2ccccc2)c1 (chirality)
C[N@H+](Cc1ccccc1)C(=O)c1cccc(S(=O)(=O)[N-]Cc2ccccc2)c1 (3D coordinates assigned)
C[N@H+](Cc1ccccc1)C(=O)c1cccc(S(=O)(=O)[N-]Cc2ccccc2)c1 (optimized conformer: 55.601890880856715 kcal/mol)

>  <smiles>  (2) 
CN(Cc1ccccc1)C(=O)c1cccc(S(=O)(=O)NCc2ccccc2)c1

>  <score_type>  (2) 
oracle

>  <origin>  (2) 
adg

>  <m_score__min__energy>  (2) 
-9.5800000000000001

>  <m_primary>  (2) 
energy

$$$$
2:0
     RDKit          3D

 62 66  0  0  0  0  0  0  0  0999 V2000
   57.2670   21.4830   43.3780 C   0  0  0  0  0  0  0  0  0  0  0  0
   56.5670   22.7190   42.8120 C   0  0  0  0  0  0  0  0  0  0  0  0
   56.9140   24.0100   43.5840 C   0  0  0  0  0  0  0  0  0  0  0  0
   56.4540   23.9850   45.0550 C   0  0  0  0  0  0  0  0  0  0  0  0
   57.3180   24.8050   45.9040 N   0  0  0  0  0  0  0  0  0  0  0  0
   58.7410   24.7450   46.0060 C   0  0  0  0  0  0  0  0  0  0  0  0
   59.4560   23.8520   45.4790 O   0  0  0  0  0  0  0  0  0  0  0  0
   59.2290   25.8810   46.7790 C   0  0  0  0  0  0  0  0  0  0  0  0
   60.5250   26.2560   47.1150 C   0  0  0  0  0  0  0  0  0  0  0  0
   60.7030   27.4410   47.8460 C   0  0  0  0  0  0  0  0  0  0  0  0
   59.5830   28.2220   48.2450 C   0  0  0  0  0  0  0  0  0  0  0  0
   59.7960   29.4730   49.0040 C   0  0  0  0  0  0  0  0  0  0  0  0
   59.5210   29.5030   50.2360 O   0  0  0  0  0  0  0  0  0  0  0  0
   60.3710   30.6400   48.4040 N   0  0  0  0  0  0  0  0  0  0  0  0
   59.7140   31.5970   47.5570 C   0  0  0  0  0  0  0  0  0  0  0  0
   59.1190   31.2140   46.3380 C   0  0  0  0  0  0  0  0  0  0  0  0
   58.4030   32.1440   45.5660 C   0  0  0  0  0  0  0  0  0  0  0  0
   57.8160   31.7630   44.2650 C   0  0  0  0  0  0  0  0  0  0  0  0
   57.9460   32.4960   43.1780 O   0  0  0  0  0  0  0  0  0  0  0  0
   57.3700   31.9390   42.1530 N   0  0  0  0  0  0  0  0  0  0  0  0
   56.8330   30.7900   42.5970 C   0  0  0  0  0  0  0  0  0  0  0  0
   56.1660   30.0040   41.8730 O   0  0  0  0  0  0  0  0  0  0  0  0
   57.0790   30.6270   43.9430 C   0  0  0  0  0  0  0  0  0  0  0  0
   56.5270   29.5780   44.8200 C   0  0  0  0  0  0  0  0  0  0  0  0
   57.3020   28.8480   45.4980 O   0  0  0  0  0  0  0  0  0  0  0  0
   55.1560   29.3400   44.8610 O   0  0  0  0  0  0  0  0  0  0  0  0
   58.3070   33.4700   46.0050 C   0  0  0  0  0  0  0  0  0  0  0  0
   58.8760   33.8550   47.2230 C   0  0  0  0  0  0  0  0  0  0  0  0
   59.5810   32.9250   48.0040 C   0  0  0  0  0  0  0  0  0  0  0  0
   60.1730   33.3350   49.2470 N   0  0  0  0  0  0  0  0  0  0  0  0
   61.5470   33.8420   49.2620 C   0  0  0  0  0  0  0  0  0  0  0  0
   62.2920   33.2460   50.4520 C   0  0  0  0  0  0  0  0  0  0  0  0
   61.5350   33.4510   51.6820 N   0  0  0  0  0  0  0  0  0  0  0  0
   60.1030   33.4360   51.6970 C   0  0  0  0  0  0  0  0  0  0  0  0
   59.4900   33.3800   52.7980 O   0  0  0  0  0  0  0  0  0  0  0  0
   59.3190   33.5520   50.4160 C   0  0  0  0  0  0  0  0  0  0  0  0
   58.2830   27.8120   47.8820 C   0  0  0  0  0  0  0  0  0  0  0  0
   58.1420   26.6360   47.1510 C   0  0  0  0  0  0  0  0  0  0  0  0
   56.9520   25.9910   46.6090 C   0  0  0  0  0  0  0  0  0  0  0  0
   55.7660   26.4050   46.7340 O   0  0  0  0  0  0  0  0  0  0  0  0
   57.2457   21.5207   44.4771 H   0  0  0  0  0  0  0  0  0  0  0  0
   56.7479   20.5770   43.0320 H   0  0  0  0  0  0  0  0  0  0  0  0
   58.3110   21.4622   43.0320 H   0  0  0  0  0  0  0  0  0  0  0  0
   56.8708   22.8450   41.7623 H   0  0  0  0  0  0  0  0  0  0  0  0
   55.4830   22.5579   42.9070 H   0  0  0  0  0  0  0  0  0  0  0  0
   58.0052   24.1470   43.5620 H   0  0  0  0  0  0  0  0  0  0  0  0
   56.3816   24.8367   43.0909 H   0  0  0  0  0  0  0  0  0  0  0  0
   55.4256   24.3710   45.1139 H   0  0  0  0  0  0  0  0  0  0  0  0
   56.5053   22.9464   45.4136 H   0  0  0  0  0  0  0  0  0  0  0  0
   61.3868   25.6412   46.8163 H   0  0  0  0  0  0  0  0  0  0  0  0
   61.7185   27.7689   48.1129 H   0  0  0  0  0  0  0  0  0  0  0  0
   59.2163   30.1759   45.9874 H   0  0  0  0  0  0  0  0  0  0  0  0
   57.7808   34.2134   45.3881 H   0  0  0  0  0  0  0  0  0  0  0  0
   58.7707   34.8930   47.5715 H   0  0  0  0  0  0  0  0  0  0  0  0
   62.0547   33.5547   48.3294 H   0  0  0  0  0  0  0  0  0  0  0  0
   61.5339   34.9386   49.3475 H   0  0  0  0  0  0  0  0  0  0  0  0
   62.4320   32.1673   50.2884 H   0  0  0  0  0  0  0  0  0  0  0  0
   63.2680   33.7443   50.5471 H   0  0  0  0  0  0  0  0  0  0  0  0
   62.0490   33.4360   52.5920 H   0  0  0  0  0  0  0  0  0  0  0  0
   58.5165   32.7996   50.4179 H   0  0  0  0  0  0  0  0  0  0  0  0
   58.9008   34.5677   50.3562 H   0  0  0  0  0  0  0  0  0  0  0  0
   57.4032   28.4065   48.1693 H   0  0  0  0  0  0  0  0  0  0  0  0
  1  2  1  0
  2  3  1  0
  3  4  1  0
  4  5  1  0
  5  6  1  0
  6  7  2  0
  6  8  1  0
  8  9  2  0
  9 10  1  0
 10 11  2  0
 11 12  1  0
 12 13  2  0
 12 14  1  0
 14 15  1  0
 15 16  2  0
 16 17  1  0
 17 18  1  0
 18 19  1  0
 19 20  1  0
 20 21  1  0
 21 22  2  0
 21 23  1  0
 23 24  1  0
 24 25  2  0
 24 26  1  0
 17 27  2  0
 27 28  1  0
 28 29  2  0
 29 30  1  0
 30 31  1  0
 31 32  1  0
 32 33  1  0
 33 34  1  0
 34 35  2  0
 34 36  1  0
 11 37  1  0
 37 38  2  0
 38 39  1  0
 39 40  2  0
 39  5  1  0
 38  8  1  0
 29 15  1  0
 36 30  1  0
 23 18  2  0
  1 41  1  0
  1 42  1  0
  1 43  1  0
  2 44  1  0
  2 45  1  0
  3 46  1  0
  3 47  1  0
  4 48  1  0
  4 49  1  0
  9 50  1  0
 10 51  1  0
 16 52  1  0
 27 53  1  0
 28 54  1  0
 31 55  1  0
 31 56  1  0
 32 57  1  0
 32 58  1  0
 33 59  1  0
 36 60  1  0
 36 61  1  0
 37 62  1  0
M  CHG  3  14  -1  20  -1  26  -1
M  END
>  <UniqueID>  (3) 
2

>  <SMILES>  (3) 
CCCCN1C(=O)c2ccc(C(=O)[N-]c3cc(-c4o[n-]c(=O)c4C(=O)[O-])ccc3N3CCNC(=O)C3)cc2C1=O

>  <Energy>  (3) 
141.5714229979887

>  <Genealogy>  (3) 
CCCCN1C(=O)c2ccc(C(=O)[N-]c3cc(-c4o[n-]c(=O)c4C(=O)[O-])ccc3N3CCNC(=O)C3)cc2C1=O (protonated)
CCCCN1C(=O)c2ccc(C(=O)[N-]c3cc(-c4o[n-]c(=O)c4C(=O)[O-])ccc3N3CCNC(=O)C3)cc2C1=O (3D coordinates assigned)
CCCCN1C(=O)c2ccc(C(=O)[N-]c3cc(-c4o[n-]c(=O)c4C(=O)[O-])ccc3N3CCNC(=O)C3)cc2C1=O (nonaromatic ring conformer: 141.5714229979887 kcal/mol)

>  <smiles>  (3) 
CCCCN1C(=O)c2ccc(C(=O)Nc3cc(-c4o[nH]c(=O)c4C(=O)O)ccc3N3CCNC(=O)C3)cc2C1=O

>  <score_type>  (3) 
oracle

>  <origin>  (3) 
adg

>  <m_score__min__energy>  (3) 
-14.390000000000001

>  <m_primary>  (3) 
energy

$$$$
3:0
     RDKit          3D

 40 42  0  0  0  0  0  0  0  0999 V2000
   56.3240   23.3200   43.1320 C   0  0  0  0  0  0  0  0  0  0  0  0
   55.8560   23.2710   44.5820 C   0  0  0  0  0  0  0  0  0  0  0  0
   56.5850   24.2420   45.3890 N   0  0  0  0  0  0  0  0  0  0  0  0
   56.0300   25.4850   45.8340 C   0  0  0  0  0  0  0  0  0  0  0  0
   54.7780   25.6290   45.8800 O   0  0  0  0  0  0  0  0  0  0  0  0
   56.9010   26.6080   46.2510 C   0  0  0  0  0  0  0  0  0  0  0  0
   57.9940   26.3280   47.0050 N   0  0  0  0  0  0  0  0  0  0  0  0
   58.8450   27.2970   47.4300 C   0  0  0  0  0  0  0  0  0  0  0  0
   59.9560   26.9360   48.1950 C   0  0  0  0  0  0  0  0  0  0  0  0
   60.8360   27.9190   48.6370 C   0  0  0  0  0  0  0  0  0  0  0  0
   60.5990   29.2580   48.3320 C   0  0  0  0  0  0  0  0  0  0  0  0
   61.5360   30.2460   48.7830 N   0  0  0  0  0  0  0  0  0  0  0  0
   61.7000   31.5700   48.2570 C   0  0  0  0  0  0  0  0  0  0  0  0
   62.7630   31.8930   47.6640 O   0  0  0  0  0  0  0  0  0  0  0  0
   60.6190   32.5070   48.2990 N   0  0  0  0  0  0  0  0  0  0  0  0
   60.0500   33.1900   47.1730 C   0  0  0  0  0  0  0  0  0  0  0  0
   60.1750   34.5830   47.0940 C   0  0  0  0  0  0  0  0  0  0  0  0
   59.6170   35.2840   46.0220 C   0  0  0  0  0  0  0  0  0  0  0  0
   58.9130   34.5990   45.0280 C   0  0  0  0  0  0  0  0  0  0  0  0
   58.7580   33.2120   45.1100 C   0  0  0  0  0  0  0  0  0  0  0  0
   57.7720   32.2790   43.7670 Br  0  0  0  0  0  0  0  0  0  0  0  0
   59.3170   32.5080   46.1840 C   0  0  0  0  0  0  0  0  0  0  0  0
   59.4860   29.5870   47.5390 C   0  0  0  0  0  0  0  0  0  0  0  0
   58.6180   28.6150   47.1050 N   0  0  0  0  0  0  0  0  0  0  0  0
   57.5240   28.9410   46.3410 C   0  0  0  0  0  0  0  0  0  0  0  0
   57.2900   30.1400   46.0240 O   0  0  0  0  0  0  0  0  0  0  0  0
   56.6450   27.9440   45.9000 C   0  0  0  0  0  0  0  0  0  0  0  0
   55.5400   28.2960   45.1300 O   0  0  0  0  0  0  0  0  0  0  0  0
   57.4177   23.4345   43.1034 H   0  0  0  0  0  0  0  0  0  0  0  0
   56.0396   22.3872   42.6232 H   0  0  0  0  0  0  0  0  0  0  0  0
   55.8525   24.1737   42.6232 H   0  0  0  0  0  0  0  0  0  0  0  0
   54.7811   23.5010   44.6230 H   0  0  0  0  0  0  0  0  0  0  0  0
   56.0449   22.2639   44.9820 H   0  0  0  0  0  0  0  0  0  0  0  0
   60.1345   25.8802   48.4468 H   0  0  0  0  0  0  0  0  0  0  0  0
   61.7203   27.6387   49.2282 H   0  0  0  0  0  0  0  0  0  0  0  0
   60.7161   35.1285   47.8812 H   0  0  0  0  0  0  0  0  0  0  0  0
   59.7319   36.3762   45.9603 H   0  0  0  0  0  0  0  0  0  0  0  0
   58.4806   35.1514   44.1807 H   0  0  0  0  0  0  0  0  0  0  0  0
   59.1827   31.4185   46.2547 H   0  0  0  0  0  0  0  0  0  0  0  0
   59.3078   30.6366   47.2624 H   0  0  0  0  0  0  0  0  0  0  0  0
  1  2  1  0
  2  3  1  0
  3  4  1  0
  4  5  2  0
  4  6  1  0
  6  7  1  0
  7  8  2  0
  8  9  1  0
  9 10  2  0
 10 11  1  0
 11 12  1  0
 12 13  1  0
 13 14  2  0
 13 15  1  0
 15 16  1  0
 16 17  2  0
 17 18  1  0
 18 19  2  0
 19 20  1  0
 20 21  1  0
 20 22  2  0
 11 23  2  0
 23 24  1  0
 24 25  1  0
 25 26  2  0
 25 27  1  0
 27 28  1  0
 27  6  2  0
 24  8  1  0
 22 16  1  0
  1 29  1  0
  1 30  1  0
  1 31  1  0
  2 32  1  0
  2 33  1  0
  9 34  1  0
 10 35  1  0
 17 36  1  0
 18 37  1  0
 19 38  1  0
 22 39  1  0
 23 40  1  0
M  CHG  4   3  -1  12  -1  15  -1  28  -1
M  END
>  <UniqueID>  (4) 
3

>  <SMILES>  (4) 
CC[N-]C(=O)c1nc2ccc([N-]C(=O)[N-]c3cccc(Br)c3)cn2c(=O)c1[O-]

>  <Energy>  (4) 
52.17823592745094

>  <Genealogy>  (4) 
CC[N-]C(=O)c1nc2ccc([N-]C(=O)[N-]c3cccc(Br)c3)cn2c(=O)c1[O-] (protonated)
CC[N-]C(=O)c1nc2ccc([N-]C(=O)[N-]c3cccc(Br)c3)cn2c(=O)c1[O-] (3D coordinates assigned)
CC[N-]C(=O)c1nc2ccc([N-]C(=O)[N-]c3cccc(Br)c3)cn2c(=O)c1[O-] (optimized conformer: 52.17823592745094 kcal/mol)

>  <smiles>  (4) 
CCNC(=O)c1nc2ccc(NC(=O)Nc3cccc(Br)c3)cn2c(=O)c1O

>  <score_type>  (4) 
oracle

>  <origin>  (4) 
adg

>  <m_score__min__energy>  (4) 
-14.039999999999999

>  <m_primary>  (4) 
energy

$$$$
4:0
     RDKit          3D

 50 53  0  0  0  0  0  0  0  0999 V2000
   59.8835   35.2017   48.4733 H   0  0  0  0  0  0  0  0  0  0  0  0
   60.2160   34.2330   48.0720 C   0  0  0  0  0  0  0  0  0  0  0  0
   61.4530   33.7070   48.4540 C   0  0  0  0  0  0  0  0  0  0  0  0
   62.0966   34.2653   49.1498 H   0  0  0  0  0  0  0  0  0  0  0  0
   61.8730   32.4710   47.9520 C   0  0  0  0  0  0  0  0  0  0  0  0
   62.8508   32.0627   48.2473 H   0  0  0  0  0  0  0  0  0  0  0  0
   61.0480   31.7480   47.0700 C   0  0  0  0  0  0  0  0  0  0  0  0
   61.4400   30.5130   46.5310 O   0  0  0  0  0  0  0  0  0  0  0  0
   60.7190   29.3150   46.6330 C   0  0  0  0  0  0  0  0  0  0  0  0
   60.6590   28.3880   45.5780 C   0  0  0  0  0  0  0  0  0  0  0  0
   61.1801   28.6001   44.6328 H   0  0  0  0  0  0  0  0  0  0  0  0
   59.9410   27.1990   45.7240 C   0  0  0  0  0  0  0  0  0  0  0  0
   59.9015   26.4801   44.8924 H   0  0  0  0  0  0  0  0  0  0  0  0
   59.2700   26.9140   46.9220 C   0  0  0  0  0  0  0  0  0  0  0  0
   58.5540   25.6740   47.0560 N   0  0  0  0  0  0  0  0  0  0  0  0
   58.3700   25.3110   48.0200 H   0  0  0  0  0  0  0  0  0  0  0  0
   58.1200   24.8730   45.9430 C   0  0  0  0  0  0  0  0  0  0  0  0
   58.8630   23.7390   45.5720 C   0  0  0  0  0  0  0  0  0  0  0  0
   59.8052   23.5107   46.0917 H   0  0  0  0  0  0  0  0  0  0  0  0
   58.4160   22.9000   44.5500 C   0  0  0  0  0  0  0  0  0  0  0  0
   59.0112   22.0204   44.2636 H   0  0  0  0  0  0  0  0  0  0  0  0
   57.2150   23.1730   43.8890 C   0  0  0  0  0  0  0  0  0  0  0  0
   56.7580   22.3100   42.8440 N   0  0  0  0  0  0  0  0  0  0  0  0
   56.5710   21.2990   43.0280 H   0  0  0  0  0  0  0  0  0  0  0  0
   56.6040   22.6750   41.8770 H   0  0  0  0  0  0  0  0  0  0  0  0
   56.4610   24.2950   44.2570 C   0  0  0  0  0  0  0  0  0  0  0  0
   55.5150   24.5084   43.7379 H   0  0  0  0  0  0  0  0  0  0  0  0
   56.9000   25.1520   45.2830 C   0  0  0  0  0  0  0  0  0  0  0  0
   56.0870   26.3490   45.6210 C   0  0  0  0  0  0  0  0  0  0  0  0
   54.8330   26.2510   45.6820 O   0  0  0  0  0  0  0  0  0  0  0  0
   56.6980   27.5910   46.0040 N   0  0  0  0  0  0  0  0  0  0  0  0
   56.6600   28.7300   45.3660 C   0  0  0  0  0  0  0  0  0  0  0  0
   57.7140   29.6670   45.4300 C   0  0  0  0  0  0  0  0  0  0  0  0
   58.6080   29.4543   46.0346 H   0  0  0  0  0  0  0  0  0  0  0  0
   57.6140   30.8650   44.7210 C   0  0  0  0  0  0  0  0  0  0  0  0
   58.4265   31.6047   44.7725 H   0  0  0  0  0  0  0  0  0  0  0  0
   56.4840   31.1230   43.9480 C   0  0  0  0  0  0  0  0  0  0  0  0
   56.3942   32.0686   43.3932 H   0  0  0  0  0  0  0  0  0  0  0  0
   55.4680   30.1700   43.8850 C   0  0  0  0  0  0  0  0  0  0  0  0
   54.5754   30.3602   43.2709 H   0  0  0  0  0  0  0  0  0  0  0  0
   55.5770   29.0050   44.5810 N   0  0  0  0  0  0  0  0  0  0  0  0
   54.7980   28.3110   44.5130 H   0  0  0  0  0  0  0  0  0  0  0  0
   59.3630   27.8260   47.9900 C   0  0  0  0  0  0  0  0  0  0  0  0
   58.8664   27.6018   48.9456 H   0  0  0  0  0  0  0  0  0  0  0  0
   60.0830   29.0150   47.8430 C   0  0  0  0  0  0  0  0  0  0  0  0
   60.1502   29.7201   48.6846 H   0  0  0  0  0  0  0  0  0  0  0  0
   59.8190   32.2940   46.6770 C   0  0  0  0  0  0  0  0  0  0  0  0
   59.1793   31.7477   45.9682 H   0  0  0  0  0  0  0  0  0  0  0  0
   59.4010   33.5300   47.1810 C   0  0  0  0  0  0  0  0  0  0  0  0
   58.4306   33.9486   46.8759 H   0  0  0  0  0  0  0  0  0  0  0  0
  1  2  1  0
  2  3  2  0
  3  4  1  0
  3  5  1  0
  5  6  1  0
  5  7  2  0
  7  8  1  0
  8  9  1  0
  9 10  2  0
 10 11  1  0
 10 12  1  0
 12 13  1  0
 12 14  2  0
 14 15  1  0
 15 16  1  0
 15 17  1  0
 17 18  2  0
 18 19  1  0
 18 20  1  0
 20 21  1  0
 20 22  2  0
 22 23  1  0
 23 24  1  0
 23 25  1  0
 22 26  1  0
 26 27  1  0
 26 28  2  0
 28 29  1  0
 29 30  2  0
 29 31  1  0
 31 32  2  0
 32 33  1  0
 33 34  1  0
 33 35  2  0
 35 36  1  0
 35 37  1  0
 37 38  1  0
 37 39  2  0
 39 40  1  0
 39 41  1  0
 41 42  1  0
 14 43  1  0
 43 44  1  0
 43 45  2  0
 45 46  1  0
  7 47  1  0
 47 48  1  0
 47 49  2  0
 49 50  1  0
 49  2  1  0
 45  9  1  0
 28 17  1  0
 41 32  1  0
M  END
>  <UniqueID>  (5) 
4

>  <SMILES>  (5) 
Nc1ccc(Nc2ccc(Oc3ccccc3)cc2)c(C(=O)/N=c2\cccc[nH]2)c1

>  <Energy>  (5) 
78.77376102739107

>  <Genealogy>  (5) 
Nc1ccc(Nc2ccc(Oc3ccccc3)cc2)c(C(=O)/N=c2\cccc[nH]2)c1 (cis-trans isomerization)
Nc1ccc(Nc2ccc(Oc3ccccc3)cc2)c(C(=O)/N=c2\cccc[nH]2)c1 (3D coordinates assigned)
Nc1ccc(Nc2ccc(Oc3ccccc3)cc2)c(C(=O)/N=c2\cccc[nH]2)c1 (optimized conformer: 78.77376102739107 kcal/mol)

>  <smiles>  (5) 
Nc1ccc(Nc2ccc(Oc3ccccc3)cc2)c(C(=O)N=c2cccc[nH]2)c1

>  <score_type>  (5) 
oracle

>  <origin>  (5) 
adg

>  <m_score__min__energy>  (5) 
-9.3599999999999994

>  <m_primary>  (5) 
energy

$$$$
5:0
     RDKit          3D

 52 54  0  0  0  0  0  0  0  0999 V2000
   60.2890   27.9800   49.2420 O   0  0  0  0  0  0  0  0  0  0  0  0
   59.7430   28.1950   48.1270 C   0  0  0  0  0  0  0  0  0  0  0  0
   58.8470   27.1460   47.5380 C   0  0  0  0  0  0  0  0  0  0  0  0
   58.4600   27.5250   46.1740 N   0  0  0  0  0  0  0  0  0  0  0  0
   59.1790   27.0620   45.1070 C   0  0  0  0  0  0  0  0  0  0  0  0
   58.8480   27.4470   43.8080 C   0  0  0  0  0  0  0  0  0  0  0  0
   57.7810   28.3210   43.6040 C   0  0  0  0  0  0  0  0  0  0  0  0
   57.0460   28.8040   44.6960 C   0  0  0  0  0  0  0  0  0  0  0  0
   55.9220   29.7480   44.4950 C   0  0  0  0  0  0  0  0  0  0  0  0
   54.7780   29.3160   44.1850 O   0  0  0  0  0  0  0  0  0  0  0  0
   56.1270   31.1530   44.6590 N   0  0  0  0  0  0  0  0  0  0  0  0
   57.2620   31.8630   44.0790 C   0  0  0  0  0  0  0  0  0  0  0  0
   58.5260   31.5980   44.9000 C   0  0  0  0  0  0  0  0  0  0  0  0
   58.8620   32.7730   45.7860 C   0  0  0  0  0  0  0  0  0  0  0  0
   59.3930   33.9510   45.2300 C   0  0  0  0  0  0  0  0  0  0  0  0
   59.6640   35.0570   46.0430 C   0  0  0  0  0  0  0  0  0  0  0  0
   59.4110   34.9940   47.4170 C   0  0  0  0  0  0  0  0  0  0  0  0
   58.8720   33.8300   47.9770 C   0  0  0  0  0  0  0  0  0  0  0  0
   58.5900   32.7250   47.1660 C   0  0  0  0  0  0  0  0  0  0  0  0
   57.4100   28.3820   45.9870 C   0  0  0  0  0  0  0  0  0  0  0  0
   59.8960   29.4600   47.4670 N   0  0  0  0  0  0  0  0  0  0  0  0
   60.7700   30.5080   47.9250 C   0  0  0  0  0  0  0  0  0  0  0  0
   60.5990   31.0320   49.2160 C   0  0  0  0  0  0  0  0  0  0  0  0
   61.4350   32.0510   49.6850 C   0  0  0  0  0  0  0  0  0  0  0  0
   62.4450   32.5640   48.8640 C   0  0  0  0  0  0  0  0  0  0  0  0
   63.5290   33.8560   49.4800 S   0  0  0  0  0  0  0  0  0  0  0  0
   64.6300   32.6970   50.3530 C   0  0  0  0  0  0  0  0  0  0  0  0
   63.8950   31.9480   51.2560 F   0  0  0  0  0  0  0  0  0  0  0  0
   65.2210   31.8500   49.4330 F   0  0  0  0  0  0  0  0  0  0  0  0
   62.6000   32.0730   47.5610 C   0  0  0  0  0  0  0  0  0  0  0  0
   61.7640   31.0540   47.0900 C   0  0  0  0  0  0  0  0  0  0  0  0
   59.3804   26.1843   47.5114 H   0  0  0  0  0  0  0  0  0  0  0  0
   57.9428   27.0540   48.1576 H   0  0  0  0  0  0  0  0  0  0  0  0
   60.0257   26.3801   45.2746 H   0  0  0  0  0  0  0  0  0  0  0  0
   59.4235   27.0646   42.9521 H   0  0  0  0  0  0  0  0  0  0  0  0
   57.5150   28.6326   42.5831 H   0  0  0  0  0  0  0  0  0  0  0  0
   57.4193   31.5156   43.0472 H   0  0  0  0  0  0  0  0  0  0  0  0
   57.0506   32.9425   44.0834 H   0  0  0  0  0  0  0  0  0  0  0  0
   58.3650   30.7098   45.5287 H   0  0  0  0  0  0  0  0  0  0  0  0
   59.3634   31.4370   44.2052 H   0  0  0  0  0  0  0  0  0  0  0  0
   59.5963   34.0029   44.1502 H   0  0  0  0  0  0  0  0  0  0  0  0
   60.0761   35.9763   45.6014 H   0  0  0  0  0  0  0  0  0  0  0  0
   59.6357   35.8594   48.0577 H   0  0  0  0  0  0  0  0  0  0  0  0
   58.6696   33.7837   49.0572 H   0  0  0  0  0  0  0  0  0  0  0  0
   58.1547   31.8167   47.6082 H   0  0  0  0  0  0  0  0  0  0  0  0
   56.8436   28.7453   46.8572 H   0  0  0  0  0  0  0  0  0  0  0  0
   59.2400   29.6810   46.6840 H   0  0  0  0  0  0  0  0  0  0  0  0
   59.8017   30.6385   49.8637 H   0  0  0  0  0  0  0  0  0  0  0  0
   61.2980   32.4496   50.7011 H   0  0  0  0  0  0  0  0  0  0  0  0
   65.4046   33.2627   50.8915 H   0  0  0  0  0  0  0  0  0  0  0  0
   63.3803   32.4892   46.9068 H   0  0  0  0  0  0  0  0  0  0  0  0
   61.8839   30.6780   46.0632 H   0  0  0  0  0  0  0  0  0  0  0  0
  1  2  2  0
  2  3  1  0
  3  4  1  0
  4  5  2  0
  5  6  1  0
  6  7  2  0
  7  8  1  0
  8  9  1  0
  9 10  2  0
  9 11  1  0
 11 12  1  0
 12 13  1  0
 13 14  1  0
 14 15  2  0
 15 16  1  0
 16 17  2  0
 17 18  1  0
 18 19  2  0
  8 20  2  0
  2 21  1  0
 21 22  1  0
 22 23  2  0
 23 24  1  0
 24 25  2  0
 25 26  1  0
 26 27  1  0
 27 28  1  0
 27 29  1  0
 25 30  1  0
 30 31  2  0
 20  4  1  0
 31 22  1  0
 19 14  1  0
  3 32  1  0
  3 33  1  0
  5 34  1  0
  6 35  1  0
  7 36  1  0
 12 37  1  0
 12 38  1  0
 13 39  1  0
 13 40  1  0
 15 41  1  0
 16 42  1  0
 17 43  1  0
 18 44  1  0
 19 45  1  0
 20 46  1  0
 21 47  1  0
 23 48  1  0
 24 49  1  0
 27 50  1  0
 30 51  1  0
 31 52  1  0
M  CHG  2   4   1  11  -1
M  END
>  <UniqueID>  (6) 
5

>  <SMILES>  (6) 
O=C(C[n+]1cccc(C(=O)[N-]CCc2ccccc2)c1)Nc1ccc(SC(F)F)cc1

>  <Energy>  (6) 
48.29989115313439

>  <Genealogy>  (6) 
O=C(C[n+]1cccc(C(=O)[N-]CCc2ccccc2)c1)Nc1ccc(SC(F)F)cc1 (protonated)
O=C(C[n+]1cccc(C(=O)[N-]CCc2ccccc2)c1)Nc1ccc(SC(F)F)cc1 (3D coordinates assigned)
O=C(C[n+]1cccc(C(=O)[N-]CCc2ccccc2)c1)Nc1ccc(SC(F)F)cc1 (optimized conformer: 48.29989115313439 kcal/mol)

>  <smiles>  (6) 
O=C(C[n+]1cccc(C(=O)NCCc2ccccc2)c1)Nc1ccc(SC(F)F)cc1

>  <score_type>  (6) 
oracle

>  <origin>  (6) 
adg

>  <m_score__min__energy>  (6) 
-8.2899999999999991

>  <m_primary>  (6) 
energy

$$$$
6:0
     RDKit          3D

 43 46  0  0  0  0  0  0  0  0999 V2000
   58.5820   30.0720   50.4210 C   0  0  0  0  0  0  0  0  0  0  0  0
   59.7580   30.4280   49.5620 C   0  0  0  0  0  0  0  0  0  0  0  0
   60.6270   29.5560   48.8970 C   0  0  0  0  0  0  0  0  0  0  0  0
   60.5680   28.0800   48.8900 C   0  0  0  0  0  0  0  0  0  0  0  0
   61.0880   27.4290   49.8330 O   0  0  0  0  0  0  0  0  0  0  0  0
   59.9990   27.3610   47.7880 N   0  0  0  0  0  0  0  0  0  0  0  0
   59.1480   27.9110   46.7730 C   0  0  0  0  0  0  0  0  0  0  0  0
   57.8120   27.4980   46.6270 C   0  0  0  0  0  0  0  0  0  0  0  0
   57.0150   28.0380   45.6140 C   0  0  0  0  0  0  0  0  0  0  0  0
   57.5470   28.9810   44.7240 C   0  0  0  0  0  0  0  0  0  0  0  0
   56.5590   29.6700   43.4400 S   0  0  0  0  0  0  0  0  0  0  0  0
   56.6500   28.8180   42.2040 O   0  0  0  0  0  0  0  0  0  0  0  0
   55.1300   29.7320   43.9020 O   0  0  0  0  0  0  0  0  0  0  0  0
   57.1400   31.2650   43.0820 N   0  0  0  0  0  0  0  0  0  0  0  0
   57.5420   32.1060   43.9840 C   0  0  0  0  0  0  0  0  0  0  0  0
   58.4390   33.0850   43.6800 N   0  0  0  0  0  0  0  0  0  0  0  0
   58.8620   33.9650   44.6250 C   0  0  0  0  0  0  0  0  0  0  0  0
   58.3760   33.8730   45.9280 C   0  0  0  0  0  0  0  0  0  0  0  0
   57.4580   32.8660   46.2240 C   0  0  0  0  0  0  0  0  0  0  0  0
   57.0590   32.0050   45.2520 N   0  0  0  0  0  0  0  0  0  0  0  0
   58.8860   29.3710   44.8510 C   0  0  0  0  0  0  0  0  0  0  0  0
   59.6840   28.8330   45.8640 C   0  0  0  0  0  0  0  0  0  0  0  0
   61.5570   30.2440   48.2580 O   0  0  0  0  0  0  0  0  0  0  0  0
   61.3380   31.5180   48.4760 C   0  0  0  0  0  0  0  0  0  0  0  0
   62.0740   32.5970   47.9940 C   0  0  0  0  0  0  0  0  0  0  0  0
   61.6600   33.8910   48.3610 C   0  0  0  0  0  0  0  0  0  0  0  0
   60.5330   34.0720   49.1940 C   0  0  0  0  0  0  0  0  0  0  0  0
   59.8090   32.9610   49.6660 C   0  0  0  0  0  0  0  0  0  0  0  0
   60.2420   31.6910   49.2810 C   0  0  0  0  0  0  0  0  0  0  0  0
   58.8631   30.1571   51.4811 H   0  0  0  0  0  0  0  0  0  0  0  0
   57.7498   30.7585   50.2061 H   0  0  0  0  0  0  0  0  0  0  0  0
   58.2702   29.0392   50.2061 H   0  0  0  0  0  0  0  0  0  0  0  0
   57.3925   26.7471   47.3127 H   0  0  0  0  0  0  0  0  0  0  0  0
   55.9661   27.7217   45.5148 H   0  0  0  0  0  0  0  0  0  0  0  0
   59.5872   34.7491   44.3619 H   0  0  0  0  0  0  0  0  0  0  0  0
   58.7086   34.5778   46.7043 H   0  0  0  0  0  0  0  0  0  0  0  0
   57.0572   32.7689   47.2438 H   0  0  0  0  0  0  0  0  0  0  0  0
   59.3115   30.1042   44.1501 H   0  0  0  0  0  0  0  0  0  0  0  0
   60.7384   29.1348   45.9484 H   0  0  0  0  0  0  0  0  0  0  0  0
   62.9505   32.4431   47.3474 H   0  0  0  0  0  0  0  0  0  0  0  0
   62.2171   34.7669   47.9972 H   0  0  0  0  0  0  0  0  0  0  0  0
   60.2193   35.0881   49.4755 H   0  0  0  0  0  0  0  0  0  0  0  0
   58.9313   33.0893   50.3165 H   0  0  0  0  0  0  0  0  0  0  0  0
  1  2  1  0
  2  3  2  0
  3  4  1  0
  4  5  2  0
  4  6  1  0
  6  7  1  0
  7  8  2  0
  8  9  1  0
  9 10  2  0
 10 11  1  0
 11 12  2  0
 11 13  2  0
 11 14  1  0
 14 15  2  3
 15 16  1  0
 16 17  2  0
 17 18  1  0
 18 19  2  0
 19 20  1  0
 10 21  1  0
 21 22  2  0
  3 23  1  0
 23 24  1  0
 24 25  2  0
 25 26  1  0
 26 27  2  0
 27 28  1  0
 28 29  2  0
 29  2  1  0
 22  7  1  0
 29 24  1  0
 20 15  1  0
  1 30  1  0
  1 31  1  0
  1 32  1  0
  8 33  1  0
  9 34  1  0
 17 35  1  0
 18 36  1  0
 19 37  1  0
 21 38  1  0
 22 39  1  0
 25 40  1  0
 26 41  1  0
 27 42  1  0
 28 43  1  0
M  CHG  2   6  -1  20  -1
M  END
>  <UniqueID>  (7) 
6

>  <SMILES>  (7) 
Cc1c(C(=O)[N-]c2ccc(S(=O)(=O)N=c3nccc[n-]3)cc2)oc2ccccc12

>  <Energy>  (7) 
91.1675140961584

>  <Genealogy>  (7) 
Cc1c(C(=O)[N-]c2ccc(S(=O)(=O)N=c3nccc[n-]3)cc2)oc2ccccc12 (protonated)
Cc1c(C(=O)[N-]c2ccc(S(=O)(=O)N=c3nccc[n-]3)cc2)oc2ccccc12 (3D coordinates assigned)
Cc1c(C(=O)[N-]c2ccc(S(=O)(=O)N=c3nccc[n-]3)cc2)oc2ccccc12 (optimized conformer: 91.1675140961584 kcal/mol)

>  <smiles>  (7) 
Cc1c(C(=O)Nc2ccc(S(=O)(=O)N=c3nccc[nH]3)cc2)oc2ccccc12

>  <score_type>  (7) 
oracle

>  <origin>  (7) 
adg

>  <m_score__min__energy>  (7) 
-11.75

>  <m_primary>  (7) 
energy

$$$$
7:0
     RDKit          3D

 40 43  0  0  0  0  0  0  0  0999 V2000
   64.0220   33.0530   47.3680 N   0  0  0  0  0  0  0  0  0  0  0  0
   64.0020   33.1260   48.7970 C   0  0  0  0  0  0  0  0  0  0  0  0
   65.0950   33.0960   49.4240 O   0  0  0  0  0  0  0  0  0  0  0  0
   62.7320   33.2550   49.5510 C   0  0  0  0  0  0  0  0  0  0  0  0
   62.7410   33.3370   50.9640 C   0  0  0  0  0  0  0  0  0  0  0  0
   61.5340   33.4360   51.6910 C   0  0  0  0  0  0  0  0  0  0  0  0
   60.2970   33.4400   51.0230 C   0  0  0  0  0  0  0  0  0  0  0  0
   60.3120   33.3460   49.6350 C   0  0  0  0  0  0  0  0  0  0  0  0
   59.2560   33.2910   48.8110 N   0  0  0  0  0  0  0  0  0  0  0  0
   59.8380   33.1720   47.5880 C   0  0  0  0  0  0  0  0  0  0  0  0
   59.0690   33.0570   46.3310 C   0  0  0  0  0  0  0  0  0  0  0  0
   59.2730   33.9610   45.2790 C   0  0  0  0  0  0  0  0  0  0  0  0
   58.5140   33.8420   44.1140 C   0  0  0  0  0  0  0  0  0  0  0  0
   57.5760   32.8640   44.0060 N   0  0  0  0  0  0  0  0  0  0  0  0
   57.3400   31.9710   45.0040 C   0  0  0  0  0  0  0  0  0  0  0  0
   56.4220   31.0620   44.8190 N   0  0  0  0  0  0  0  0  0  0  0  0
   56.5550   29.6390   44.9750 C   0  0  0  0  0  0  0  0  0  0  0  0
   55.5220   28.9230   44.8800 O   0  0  0  0  0  0  0  0  0  0  0  0
   57.8530   29.0000   45.3070 C   0  0  0  0  0  0  0  0  0  0  0  0
   58.9750   29.2100   44.4850 C   0  0  0  0  0  0  0  0  0  0  0  0
   60.2100   28.6440   44.8160 C   0  0  0  0  0  0  0  0  0  0  0  0
   60.3340   27.8560   45.9630 C   0  0  0  0  0  0  0  0  0  0  0  0
   59.2230   27.6260   46.7770 C   0  0  0  0  0  0  0  0  0  0  0  0
   57.9860   28.1910   46.4510 C   0  0  0  0  0  0  0  0  0  0  0  0
   58.1120   32.0420   46.1810 C   0  0  0  0  0  0  0  0  0  0  0  0
   61.1960   33.1400   47.6210 N   0  0  0  0  0  0  0  0  0  0  0  0
   61.4740   33.2620   48.9270 C   0  0  0  0  0  0  0  0  0  0  0  0
   63.1810   33.2840   46.7960 H   0  0  0  0  0  0  0  0  0  0  0  0
   64.9210   32.8700   46.8690 H   0  0  0  0  0  0  0  0  0  0  0  0
   63.7000   33.3235   51.5027 H   0  0  0  0  0  0  0  0  0  0  0  0
   61.5621   33.5105   52.7881 H   0  0  0  0  0  0  0  0  0  0  0  0
   59.3504   33.5148   51.5783 H   0  0  0  0  0  0  0  0  0  0  0  0
   60.0256   34.7580   45.3712 H   0  0  0  0  0  0  0  0  0  0  0  0
   58.6752   34.5416   43.2806 H   0  0  0  0  0  0  0  0  0  0  0  0
   58.8803   29.8230   43.5766 H   0  0  0  0  0  0  0  0  0  0  0  0
   61.0848   28.8193   44.1726 H   0  0  0  0  0  0  0  0  0  0  0  0
   61.3077   27.4164   46.2251 H   0  0  0  0  0  0  0  0  0  0  0  0
   59.3209   26.9996   47.6759 H   0  0  0  0  0  0  0  0  0  0  0  0
   57.1123   28.0021   47.0921 H   0  0  0  0  0  0  0  0  0  0  0  0
   57.9643   31.3021   46.9815 H   0  0  0  0  0  0  0  0  0  0  0  0
  1  2  1  0
  2  3  2  0
  2  4  1  0
  4  5  2  0
  5  6  1  0
  6  7  2  0
  7  8  1  0
  8  9  1  0
  9 10  1  0
 10 11  1  0
 11 12  1  0
 12 13  2  0
 13 14  1  0
 14 15  1  0
 15 16  2  3
 16 17  1  0
 17 18  2  0
 17 19  1  0
 19 20  2  0
 20 21  1  0
 21 22  2  0
 22 23  1  0
 23 24  2  0
 15 25  1  0
 10 26  2  0
 26 27  1  0
 27  4  1  0
 27  8  2  0
 25 11  2  0
 24 19  1  0
  1 28  1  0
  1 29  1  0
  5 30  1  0
  6 31  1  0
  7 32  1  0
 12 33  1  0
 13 34  1  0
 20 35  1  0
 21 36  1  0
 22 37  1  0
 23 38  1  0
 24 39  1  0
 25 40  1  0
M  CHG  2   9  -1  14  -1
M  END
>  <UniqueID>  (8) 
7

>  <SMILES>  (8) 
NC(=O)c1cccc2[n-]c(-c3cc[n-]c(=NC(=O)c4ccccc4)c3)nc12

>  <Energy>  (8) 
92.55373326967806

>  <Genealogy>  (8) 
NC(=O)c1cccc2[n-]c(-c3cc[n-]c(=NC(=O)c4ccccc4)c3)nc12 (protonated)
NC(=O)c1cccc2[n-]c(-c3cc[n-]c(=NC(=O)c4ccccc4)c3)nc12 (3D coordinates assigned)
NC(=O)c1cccc2[n-]c(-c3cc[n-]c(=NC(=O)c4ccccc4)c3)nc12 (optimized conformer: 92.55373326967806 kcal/mol)

>  <smiles>  (8) 
NC(=O)c1cccc2[nH]c(-c3cc[nH]c(=NC(=O)c4ccccc4)c3)nc12

>  <score_type>  (8) 
oracle

>  <origin>  (8) 
adg

>  <m_score__min__energy>  (8) 
-11.41

>  <m_primary>  (8) 
energy

$$$$
8:0
     RDKit          3D

 51 53  0  0  0  0  0  0  0  0999 V2000
   61.8990   28.8750   51.2190 C   0  0  0  0  0  0  0  0  0  0  0  0
   62.2590   30.2130   50.8960 O   0  0  0  0  0  0  0  0  0  0  0  0
   61.3560   31.2860   50.8160 C   0  0  0  0  0  0  0  0  0  0  0  0
   59.9800   31.0740   50.5920 C   0  0  0  0  0  0  0  0  0  0  0  0
   59.1000   32.1550   50.5160 C   0  0  0  0  0  0  0  0  0  0  0  0
   59.5790   33.4570   50.6400 C   0  0  0  0  0  0  0  0  0  0  0  0
   60.9390   33.6850   50.8590 C   0  0  0  0  0  0  0  0  0  0  0  0
   61.8350   32.6070   50.9780 C   0  0  0  0  0  0  0  0  0  0  0  0
   63.2980   32.8850   51.2760 C   0  0  0  0  0  0  0  0  0  0  0  0
   64.2140   32.0140   50.5090 N   0  0  0  0  0  0  0  0  0  0  0  0
   64.4970   32.4990   49.1420 C   0  0  0  0  0  0  0  0  0  0  0  0
   63.2590   32.5750   48.2790 C   0  0  0  0  0  0  0  0  0  0  0  0
   62.7210   33.8210   47.9220 C   0  0  0  0  0  0  0  0  0  0  0  0
   61.5220   33.8960   47.2080 C   0  0  0  0  0  0  0  0  0  0  0  0
   60.8490   32.7240   46.8210 C   0  0  0  0  0  0  0  0  0  0  0  0
   59.5420   32.8020   46.1260 C   0  0  0  0  0  0  0  0  0  0  0  0
   58.8370   34.0180   46.0700 C   0  0  0  0  0  0  0  0  0  0  0  0
   57.5960   34.0870   45.4350 C   0  0  0  0  0  0  0  0  0  0  0  0
   57.0440   32.9460   44.8470 C   0  0  0  0  0  0  0  0  0  0  0  0
   57.7360   31.7300   44.8870 C   0  0  0  0  0  0  0  0  0  0  0  0
   57.0450   30.2820   44.1610 S   0  0  0  0  0  0  0  0  0  0  0  0
   58.2270   28.9570   44.2520 C   0  0  0  0  0  0  0  0  0  0  0  0
   55.7940   29.8820   44.8910 O   0  0  0  0  0  0  0  0  0  0  0  0
   56.7000   30.5560   42.7240 O   0  0  0  0  0  0  0  0  0  0  0  0
   58.9790   31.6580   45.5310 C   0  0  0  0  0  0  0  0  0  0  0  0
   61.4240   31.4780   47.1250 C   0  0  0  0  0  0  0  0  0  0  0  0
   62.6230   31.4030   47.8370 C   0  0  0  0  0  0  0  0  0  0  0  0
   61.8674   28.7575   52.3123 H   0  0  0  0  0  0  0  0  0  0  0  0
   60.9083   28.6498   50.7972 H   0  0  0  0  0  0  0  0  0  0  0  0
   62.6429   28.1831   50.7972 H   0  0  0  0  0  0  0  0  0  0  0  0
   59.5972   30.0493   50.4763 H   0  0  0  0  0  0  0  0  0  0  0  0
   58.0259   31.9782   50.3578 H   0  0  0  0  0  0  0  0  0  0  0  0
   58.8848   34.3070   50.5653 H   0  0  0  0  0  0  0  0  0  0  0  0
   61.3130   34.7163   50.9392 H   0  0  0  0  0  0  0  0  0  0  0  0
   63.5153   33.9332   51.0229 H   0  0  0  0  0  0  0  0  0  0  0  0
   63.4633   32.6807   52.3442 H   0  0  0  0  0  0  0  0  0  0  0  0
   65.1260   31.9960   51.0220 H   0  0  0  0  0  0  0  0  0  0  0  0
   63.8690   31.0270   50.4880 H   0  0  0  0  0  0  0  0  0  0  0  0
   64.9399   33.5036   49.2103 H   0  0  0  0  0  0  0  0  0  0  0  0
   65.1846   31.7806   48.6717 H   0  0  0  0  0  0  0  0  0  0  0  0
   63.2465   34.7447   48.2060 H   0  0  0  0  0  0  0  0  0  0  0  0
   61.1021   34.8786   46.9471 H   0  0  0  0  0  0  0  0  0  0  0  0
   59.2666   34.9203   46.5296 H   0  0  0  0  0  0  0  0  0  0  0  0
   57.0512   35.0419   45.3974 H   0  0  0  0  0  0  0  0  0  0  0  0
   56.0635   33.0035   44.3516 H   0  0  0  0  0  0  0  0  0  0  0  0
   58.4354   28.7234   45.3065 H   0  0  0  0  0  0  0  0  0  0  0  0
   57.8182   28.0660   43.7529 H   0  0  0  0  0  0  0  0  0  0  0  0
   59.1587   29.2618   43.7529 H   0  0  0  0  0  0  0  0  0  0  0  0
   59.5182   30.7001   45.5715 H   0  0  0  0  0  0  0  0  0  0  0  0
   60.9250   30.5535   46.7991 H   0  0  0  0  0  0  0  0  0  0  0  0
   63.0714   30.4220   48.0527 H   0  0  0  0  0  0  0  0  0  0  0  0
  1  2  1  0
  2  3  1  0
  3  4  2  0
  4  5  1  0
  5  6  2  0
  6  7  1  0
  7  8  2  0
  8  9  1  0
  9 10  1  0
 10 11  1  0
 11 12  1  0
 12 13  2  0
 13 14  1  0
 14 15  2  0
 15 16  1  0
 16 17  2  0
 17 18  1  0
 18 19  2  0
 19 20  1  0
 20 21  1  0
 21 22  1  0
 21 23  2  0
 21 24  2  0
 20 25  2  0
 15 26  1  0
 26 27  2  0
  8  3  1  0
 27 12  1  0
 25 16  1  0
  1 28  1  0
  1 29  1  0
  1 30  1  0
  4 31  1  0
  5 32  1  0
  6 33  1  0
  7 34  1  0
  9 35  1  0
  9 36  1  0
 10 37  1  0
 10 38  1  0
 11 39  1  0
 11 40  1  0
 13 41  1  0
 14 42  1  0
 17 43  1  0
 18 44  1  0
 19 45  1  0
 22 46  1  0
 22 47  1  0
 22 48  1  0
 25 49  1  0
 26 50  1  0
 27 51  1  0
M  CHG  1  10   1
M  END
>  <UniqueID>  (9) 
8

>  <SMILES>  (9) 
COc1ccccc1C[NH2+]Cc1ccc(-c2cccc(S(C)(=O)=O)c2)cc1

>  <Energy>  (9) 
53.16993363725254

>  <Genealogy>  (9) 
COc1ccccc1C[NH2+]Cc1ccc(-c2cccc(S(C)(=O)=O)c2)cc1 (protonated)
COc1ccccc1C[NH2+]Cc1ccc(-c2cccc(S(C)(=O)=O)c2)cc1 (3D coordinates assigned)
COc1ccccc1C[NH2+]Cc1ccc(-c2cccc(S(C)(=O)=O)c2)cc1 (optimized conformer: 53.16993363725254 kcal/mol)

>  <smiles>  (9) 
COc1ccccc1CNCc1ccc(-c2cccc(S(C)(=O)=O)c2)cc1

>  <score_type>  (9) 
oracle

>  <origin>  (9) 
adg

>  <m_score__min__energy>  (9) 
-7.3399999999999999

>  <m_primary>  (9) 
energy

$$$$
9:0
     RDKit          3D

 43 44  0  0  0  0  0  0  0  0999 V2000
   60.3300   28.2730   49.0160 C   0  0  0  0  0  0  0  0  0  0  0  0
   60.2120   26.8690   48.4280 C   0  0  0  0  0  0  0  0  0  0  0  0
   59.1920   26.8380   47.3270 C   0  0  0  0  0  0  0  0  0  0  0  0
   58.0380   26.0540   47.4360 C   0  0  0  0  0  0  0  0  0  0  0  0
   57.1080   26.0690   46.3880 C   0  0  0  0  0  0  0  0  0  0  0  0
   55.8860   25.2380   46.4620 C   0  0  0  0  0  0  0  0  0  0  0  0
   55.8370   24.2630   47.2600 O   0  0  0  0  0  0  0  0  0  0  0  0
   54.7890   25.5330   45.6450 O   0  0  0  0  0  0  0  0  0  0  0  0
   53.8390   24.5480   45.2540 C   0  0  0  0  0  0  0  0  0  0  0  0
   57.3430   26.8590   45.2990 N   0  0  0  0  0  0  0  0  0  0  0  0
   58.4630   27.6270   45.2200 C   0  0  0  0  0  0  0  0  0  0  0  0
   58.7510   28.6550   43.7810 S   0  0  0  0  0  0  0  0  0  0  0  0
   56.9760   28.9700   43.5120 C   0  0  0  0  0  0  0  0  0  0  0  0
   56.4100   29.7170   44.6830 C   0  0  0  0  0  0  0  0  0  0  0  0
   55.1650   29.7080   44.8650 O   0  0  0  0  0  0  0  0  0  0  0  0
   57.2460   30.3650   45.6520 N   0  0  0  0  0  0  0  0  0  0  0  0
   57.7670   31.7010   45.5760 C   0  0  0  0  0  0  0  0  0  0  0  0
   57.0280   32.7310   44.9680 C   0  0  0  0  0  0  0  0  0  0  0  0
   57.5480   34.0270   44.8950 C   0  0  0  0  0  0  0  0  0  0  0  0
   58.8000   34.3110   45.4490 C   0  0  0  0  0  0  0  0  0  0  0  0
   59.5270   33.3050   46.0910 C   0  0  0  0  0  0  0  0  0  0  0  0
   59.0140   31.9970   46.1680 C   0  0  0  0  0  0  0  0  0  0  0  0
   59.8090   30.9200   46.8530 C   0  0  0  0  0  0  0  0  0  0  0  0
   59.3740   27.6120   46.2260 N   0  0  0  0  0  0  0  0  0  0  0  0
   60.3249   28.2122   50.1143 H   0  0  0  0  0  0  0  0  0  0  0  0
   61.2701   28.7340   48.6787 H   0  0  0  0  0  0  0  0  0  0  0  0
   59.4801   28.8844   48.6787 H   0  0  0  0  0  0  0  0  0  0  0  0
   61.1885   26.5636   48.0241 H   0  0  0  0  0  0  0  0  0  0  0  0
   59.8946   26.1784   49.2232 H   0  0  0  0  0  0  0  0  0  0  0  0
   57.8639   25.4363   48.3294 H   0  0  0  0  0  0  0  0  0  0  0  0
   53.3965   24.0892   46.1505 H   0  0  0  0  0  0  0  0  0  0  0  0
   53.0467   25.0203   44.6547 H   0  0  0  0  0  0  0  0  0  0  0  0
   54.3396   23.7733   44.6547 H   0  0  0  0  0  0  0  0  0  0  0  0
   56.6600   26.8850   44.5080 H   0  0  0  0  0  0  0  0  0  0  0  0
   56.8456   29.5693   42.5988 H   0  0  0  0  0  0  0  0  0  0  0  0
   56.4489   28.0106   43.4038 H   0  0  0  0  0  0  0  0  0  0  0  0
   56.0347   32.5160   44.5472 H   0  0  0  0  0  0  0  0  0  0  0  0
   56.9718   34.8235   44.4015 H   0  0  0  0  0  0  0  0  0  0  0  0
   59.2134   35.3280   45.3794 H   0  0  0  0  0  0  0  0  0  0  0  0
   60.5049   33.5367   46.5383 H   0  0  0  0  0  0  0  0  0  0  0  0
   59.7223   31.0375   47.9433 H   0  0  0  0  0  0  0  0  0  0  0  0
   59.4205   29.9339   46.5584 H   0  0  0  0  0  0  0  0  0  0  0  0
   60.8657   31.0007   46.5584 H   0  0  0  0  0  0  0  0  0  0  0  0
  1  2  1  0
  2  3  1  0
  3  4  2  0
  4  5  1  0
  5  6  1  0
  6  7  2  0
  6  8  1  0
  8  9  1  0
  5 10  2  0
 10 11  1  0
 11 12  1  0
 12 13  1  0
 13 14  1  0
 14 15  2  0
 14 16  1  0
 16 17  1  0
 17 18  2  0
 18 19  1  0
 19 20  2  0
 20 21  1  0
 21 22  2  0
 22 23  1  0
 11 24  2  0
 24  3  1  0
 22 17  1  0
  1 25  1  0
  1 26  1  0
  1 27  1  0
  2 28  1  0
  2 29  1  0
  4 30  1  0
  9 31  1  0
  9 32  1  0
  9 33  1  0
 10 34  1  0
 13 35  1  0
 13 36  1  0
 18 37  1  0
 19 38  1  0
 20 39  1  0
 21 40  1  0
 23 41  1  0
 23 42  1  0
 23 43  1  0
M  CHG  2  10   1  16  -1
M  END
>  <UniqueID>  (10) 
9

>  <SMILES>  (10) 
CCc1cc(C(=O)OC)[nH+]c(SCC(=O)[N-]c2ccccc2C)n1

>  <Energy>  (10) 
37.019379277048444

>  <Genealogy>  (10) 
CCc1cc(C(=O)OC)[nH+]c(SCC(=O)[N-]c2ccccc2C)n1 (protonated)
CCc1cc(C(=O)OC)[nH+]c(SCC(=O)[N-]c2ccccc2C)n1 (3D coordinates assigned)
CCc1cc(C(=O)OC)[nH+]c(SCC(=O)[N-]c2ccccc2C)n1 (optimized conformer: 37.019379277048444 kcal/mol)

>  <smiles>  (10) 
CCc1cc(C(=O)OC)nc(SCC(=O)Nc2ccccc2C)n1

>  <score_type>  (10) 
oracle

>  <origin>  (10) 
adg

>  <m_score__min__energy>  (10) 
-7.7000000000000002

>  <m_primary>  (10) 
energy

$$$$
10:0
     RDKit          3D

 47 50  0  0  1  0  0  0  0  0999 V2000
   56.3360   30.0320   42.6360 C   0  0  0  0  0  0  0  0  0  0  0  0
   57.0660   29.6170   43.8470 C   0  0  0  0  0  0  0  0  0  0  0  0
   57.7840   28.4350   44.0760 C   0  0  0  0  0  0  0  0  0  0  0  0
   58.2520   28.5600   45.3520 C   0  0  0  0  0  0  0  0  0  0  0  0
   59.0020   27.7430   46.1230 C   0  0  0  0  0  0  0  0  0  0  0  0
   59.4260   26.6430   45.7400 N   0  0  0  0  0  0  0  0  0  0  0  0
   58.6830   25.5050   45.4300 C   0  0  0  0  0  0  0  0  0  0  0  0
   57.3900   25.5740   44.8930 C   0  0  0  0  0  0  0  0  0  0  0  0
   56.7630   24.3850   44.5740 C   0  0  0  0  0  0  0  0  0  0  0  0
   57.3860   23.1710   44.7750 C   0  0  0  0  0  0  0  0  0  0  0  0
   56.4890   21.7280   44.3420 S   0  0  0  0  0  0  0  0  0  0  0  0
   57.3260   20.3220   44.8890 N   0  0  0  0  0  0  0  0  0  0  0  0
   55.1410   21.7080   45.0570 O   0  0  0  0  0  0  0  0  0  0  0  0
   56.2430   21.5990   42.8860 O   0  0  0  0  0  0  0  0  0  0  0  0
   58.6500   23.0920   45.3010 C   0  0  0  0  0  0  0  0  0  0  0  0
   59.3070   24.2620   45.6310 C   0  0  0  0  0  0  0  0  0  0  0  0
   59.3130   28.1480   47.3880 N   0  0  0  0  0  0  0  0  0  0  0  0
   58.9150   29.3080   47.9030 C   0  0  0  0  0  0  0  0  0  0  0  0
   59.3630   29.7260   49.5760 S   0  0  0  0  0  0  0  0  0  0  0  0
   60.2040   31.3220   49.6600 C   0  0  0  0  0  0  0  0  0  0  0  0
   59.8230   32.1530   48.4900 C   0  0  0  0  0  0  0  0  0  0  0  0
   58.5550   32.7260   48.3810 C   0  0  0  0  0  0  0  0  0  0  0  0
   58.2990   33.4840   47.2570 C   0  0  0  0  0  0  0  0  0  0  0  0
   59.2700   33.6570   46.2910 C   0  0  0  0  0  0  0  0  0  0  0  0
   58.8710   34.6420   44.8830 Cl  0  0  0  0  0  0  0  0  0  0  0  0
   60.5290   33.1020   46.3750 C   0  0  0  0  0  0  0  0  0  0  0  0
   60.7900   32.3330   47.5140 C   0  0  0  0  0  0  0  0  0  0  0  0
   62.3790   31.6150   47.6540 Cl  0  0  0  0  0  0  0  0  0  0  0  0
   58.1690   30.1110   47.1180 N   0  0  0  0  0  0  0  0  0  0  0  0
   57.8510   29.7330   45.8690 N   0  0  0  0  0  0  0  0  0  0  0  0
   57.1320   30.3780   44.9630 N   0  0  0  0  0  0  0  0  0  0  0  0
   55.4135   30.5564   42.9256 H   0  0  0  0  0  0  0  0  0  0  0  0
   56.9687   30.7055   42.0392 H   0  0  0  0  0  0  0  0  0  0  0  0
   56.0809   29.1439   42.0392 H   0  0  0  0  0  0  0  0  0  0  0  0
   57.9362   27.5948   43.3825 H   0  0  0  0  0  0  0  0  0  0  0  0
   56.8919   26.5413   44.7312 H   0  0  0  0  0  0  0  0  0  0  0  0
   55.7475   24.4069   44.1517 H   0  0  0  0  0  0  0  0  0  0  0  0
   57.0150   19.4580   44.3910 H   0  0  0  0  0  0  0  0  0  0  0  0
   58.3570   20.4680   44.8940 H   0  0  0  0  0  0  0  0  0  0  0  0
   59.1318   22.1156   45.4573 H   0  0  0  0  0  0  0  0  0  0  0  0
   60.3222   24.2203   46.0526 H   0  0  0  0  0  0  0  0  0  0  0  0
   59.8950   27.5190   47.9920 H   0  0  0  0  0  0  0  0  0  0  0  0
   59.9133   31.8398   50.5860 H   0  0  0  0  0  0  0  0  0  0  0  0
   61.2920   31.1603   49.6520 H   0  0  0  0  0  0  0  0  0  0  0  0
   57.7914   32.5793   49.1590 H   0  0  0  0  0  0  0  0  0  0  0  0
   57.3129   33.9545   47.1295 H   0  0  0  0  0  0  0  0  0  0  0  0
   61.2853   33.2551   45.5911 H   0  0  0  0  0  0  0  0  0  0  0  0
  1  2  1  0
  2  3  1  0
  3  4  2  0
  4  5  1  0
  5  6  2  0
  6  7  1  0
  7  8  2  0
  8  9  1  0
  9 10  2  0
 10 11  1  0
 11 12  1  0
 11 13  2  0
 11 14  2  0
 10 15  1  0
 15 16  2  0
  5 17  1  0
 17 18  1  0
 18 19  1  0
 19 20  1  0
 20 21  1  0
 21 22  2  0
 22 23  1  0
 23 24  2  0
 24 25  1  0
 24 26  1  0
 26 27  2  0
 27 28  1  0
 18 29  2  0
 29 30  1  0
 30 31  1  0
 31  2  2  0
 30  4  1  0
 16  7  1  0
 27 21  1  0
  1 32  1  0
  1 33  1  0
  1 34  1  0
  3 35  1  0
  8 36  1  0
  9 37  1  0
 12 38  1  0
 12 39  1  0
 15 40  1  0
 16 41  1  0
 17 42  1  0
 20 43  1  0
 20 44  1  0
 22 45  1  0
 23 46  1  0
 26 47  1  0
M  END
>  <smiles>  (11) 
Cc1cc2c(=Nc3ccc(S(N)(=O)=O)cc3)[nH]c(SCc3ccc(Cl)cc3Cl)nn2n1

>  <score_type>  (11) 
oracle

>  <origin>  (11) 
adg

>  <m_score__min__energy>  (11) 
-10.130000000000001

>  <m_primary>  (11) 
energy

$$$$
11:0
     RDKit          3D

 42 44  0  0  1  0  0  0  0  0999 V2000
   57.0150   30.9860   42.6470 C   0  0  0  0  0  0  0  0  0  0  0  0
   56.7300   30.1180   44.1660 S   0  0  0  0  0  0  0  0  0  0  0  0
   57.4830   30.8230   45.2840 O   0  0  0  0  0  0  0  0  0  0  0  0
   55.2470   30.1290   44.5030 O   0  0  0  0  0  0  0  0  0  0  0  0
   57.2170   28.4700   44.0820 N   0  0  0  0  0  0  0  0  0  0  0  0
   57.9250   27.7930   45.1040 C   0  0  0  0  0  0  0  0  0  0  0  0
   58.4160   26.5190   45.0130 C   0  0  0  0  0  0  0  0  0  0  0  0
   59.1050   25.9020   46.0560 C   0  0  0  0  0  0  0  0  0  0  0  0
   59.2660   33.5890   44.9540 C   0  0  0  0  0  0  0  0  0  0  0  0
   59.4410   33.0430   46.2200 C   0  0  0  0  0  0  0  0  0  0  0  0
   59.0090   28.6370   48.5630 N   0  0  0  0  0  0  0  0  0  0  0  0
   59.8370   29.6260   48.5070 C   0  0  0  0  0  0  0  0  0  0  0  0
   60.8020   29.6840   49.5040 C   0  0  0  0  0  0  0  0  0  0  0  0
   61.7140   30.7220   49.4940 C   0  0  0  0  0  0  0  0  0  0  0  0
   61.6500   31.6510   48.5220 N   0  0  0  0  0  0  0  0  0  0  0  0
   60.6980   31.5850   47.5470 C   0  0  0  0  0  0  0  0  0  0  0  0
   60.6960   32.5120   46.6450 N   0  0  0  0  0  0  0  0  0  0  0  0
   58.8110   27.9090   47.3550 C   0  0  0  0  0  0  0  0  0  0  0  0
   58.3750   33.0080   47.1040 C   0  0  0  0  0  0  0  0  0  0  0  0
   58.0330   34.0920   44.5820 C   0  0  0  0  0  0  0  0  0  0  0  0
   56.9590   34.0590   45.4670 C   0  0  0  0  0  0  0  0  0  0  0  0
   57.1530   33.5070   46.7360 C   0  0  0  0  0  0  0  0  0  0  0  0
   59.2980   26.6100   47.2290 C   0  0  0  0  0  0  0  0  0  0  0  0
   59.8020   30.5720   47.5500 N   0  0  0  0  0  0  0  0  0  0  0  0
   58.1330   28.4830   46.2960 C   0  0  0  0  0  0  0  0  0  0  0  0
   57.3512   32.0099   42.8673 H   0  0  0  0  0  0  0  0  0  0  0  0
   57.7887   30.4632   42.0655 H   0  0  0  0  0  0  0  0  0  0  0  0
   56.0820   31.0235   42.0655 H   0  0  0  0  0  0  0  0  0  0  0  0
   56.9940   27.8750   43.2240 H   0  0  0  0  0  0  0  0  0  0  0  0
   58.2607   25.9591   44.0790 H   0  0  0  0  0  0  0  0  0  0  0  0
   59.4865   24.8758   45.9489 H   0  0  0  0  0  0  0  0  0  0  0  0
   60.1087   33.6210   44.2477 H   0  0  0  0  0  0  0  0  0  0  0  0
   60.8398   28.9152   50.2898 H   0  0  0  0  0  0  0  0  0  0  0  0
   62.4864   30.7887   50.2744 H   0  0  0  0  0  0  0  0  0  0  0  0
   62.3530   32.4200   48.5440 H   0  0  0  0  0  0  0  0  0  0  0  0
   58.5103   32.5772   48.1070 H   0  0  0  0  0  0  0  0  0  0  0  0
   57.8996   34.5219   43.5783 H   0  0  0  0  0  0  0  0  0  0  0  0
   55.9774   34.4594   45.1733 H   0  0  0  0  0  0  0  0  0  0  0  0
   56.3150   33.4726   47.4478 H   0  0  0  0  0  0  0  0  0  0  0  0
   59.8388   26.1447   48.0663 H   0  0  0  0  0  0  0  0  0  0  0  0
   59.0930   30.5320   46.8150 H   0  0  0  0  0  0  0  0  0  0  0  0
   57.7487   29.5087   46.3969 H   0  0  0  0  0  0  0  0  0  0  0  0
  1  2  1  0
  2  3  2  0
  2  4  2  0
  2  5  1  0
  5  6  1  0
  6  7  2  0
  7  8  1  0
  8  9  2  0
  9 10  1  0
 10 11  1  0
 11 12  2  0
 12 13  1  0
 13 14  2  0
 14 15  1  0
 15 16  1  0
 16 17  2  0
 17 18  1  0
 18 19  2  0
 19 20  1  0
 20 21  2  0
 21 22  1  0
 22 23  2  0
 16 24  1  0
 10 25  2  0
 25  6  1  0
 24 12  1  0
 23 18  1  0
  1 26  1  0
  1 27  1  0
  1 28  1  0
  5 29  1  0
  7 30  1  0
  8 31  1  0
  9 32  1  0
 13 33  1  0
 14 34  1  0
 15 35  1  0
 19 36  1  0
 20 37  1  0
 21 38  1  0
 22 39  1  0
 23 40  1  0
 24 41  1  0
 25 42  1  0
M  END
>  <smiles>  (12) 
CS(=O)(=O)Nc1cccc(N=c2cc[nH]c(=Nc3ccccc3)[nH]2)c1

>  <score_type>  (12) 
oracle

>  <origin>  (12) 
adg

>  <m_score__min__energy>  (12) 
-8.7599999999999998

>  <m_primary>  (12) 
energy

$$$$
12:0
     RDKit          3D

 42 45  0  0  0  0  0  0  0  0999 V2000
   58.1280   33.6980   52.1990 N   0  0  0  0  0  0  0  0  0  0  0  0
   58.5280   32.9540   51.4090 C   0  0  0  0  0  0  0  0  0  0  0  0
   59.0270   32.0260   50.4240 C   0  0  0  0  0  0  0  0  0  0  0  0
   58.8350   30.6530   50.6250 C   0  0  0  0  0  0  0  0  0  0  0  0
   59.3200   29.7290   49.6950 C   0  0  0  0  0  0  0  0  0  0  0  0
   60.0040   30.1690   48.5520 C   0  0  0  0  0  0  0  0  0  0  0  0
   60.5590   29.1770   47.5640 C   0  0  0  0  0  0  0  0  0  0  0  0
   59.5400   28.1850   47.2160 N   0  0  0  0  0  0  0  0  0  0  0  0
   58.4140   28.3730   46.4960 C   0  0  0  0  0  0  0  0  0  0  0  0
   57.6770   27.2210   46.5370 C   0  0  0  0  0  0  0  0  0  0  0  0
   58.3160   26.2860   47.2610 N   0  0  0  0  0  0  0  0  0  0  0  0
   59.4460   26.9080   47.6620 C   0  0  0  0  0  0  0  0  0  0  0  0
   60.3080   26.3590   48.3990 O   0  0  0  0  0  0  0  0  0  0  0  0
   56.3430   27.1560   45.9530 C   0  0  0  0  0  0  0  0  0  0  0  0
   55.6040   26.1490   46.1010 O   0  0  0  0  0  0  0  0  0  0  0  0
   55.8820   28.3090   45.2390 N   0  0  0  0  0  0  0  0  0  0  0  0
   56.8170   29.3750   44.8430 C   0  0  0  0  0  0  0  0  0  0  0  0
   57.8750   29.6610   45.9380 C   0  0  0  0  0  0  0  0  0  0  0  0
   60.2000   31.5430   48.3540 C   0  0  0  0  0  0  0  0  0  0  0  0
   59.7080   32.4750   49.2760 C   0  0  0  0  0  0  0  0  0  0  0  0
   59.9790   34.2270   48.9660 S   0  0  0  0  0  0  0  0  0  0  0  0
   59.1600   34.1740   47.3710 C   0  0  0  0  0  0  0  0  0  0  0  0
   57.9270   33.5240   47.2340 C   0  0  0  0  0  0  0  0  0  0  0  0
   57.2930   33.4810   45.9880 C   0  0  0  0  0  0  0  0  0  0  0  0
   57.8880   34.0900   44.8780 C   0  0  0  0  0  0  0  0  0  0  0  0
   59.1150   34.7450   45.0140 C   0  0  0  0  0  0  0  0  0  0  0  0
   59.7500   34.7910   46.2590 C   0  0  0  0  0  0  0  0  0  0  0  0
   58.3000   30.3003   51.5190 H   0  0  0  0  0  0  0  0  0  0  0  0
   59.1647   28.6526   49.8601 H   0  0  0  0  0  0  0  0  0  0  0  0
   60.8744   29.7084   46.6540 H   0  0  0  0  0  0  0  0  0  0  0  0
   61.4199   28.6632   48.0167 H   0  0  0  0  0  0  0  0  0  0  0  0
   57.9940   25.3200   47.4950 H   0  0  0  0  0  0  0  0  0  0  0  0
   57.3343   29.0685   43.9219 H   0  0  0  0  0  0  0  0  0  0  0  0
   56.2344   30.2950   44.6874 H   0  0  0  0  0  0  0  0  0  0  0  0
   58.7015   30.2404   45.5008 H   0  0  0  0  0  0  0  0  0  0  0  0
   57.4017   30.2313   46.7508 H   0  0  0  0  0  0  0  0  0  0  0  0
   60.7459   31.8925   47.4653 H   0  0  0  0  0  0  0  0  0  0  0  0
   57.4570   33.0471   48.1067 H   0  0  0  0  0  0  0  0  0  0  0  0
   56.3259   32.9680   45.8808 H   0  0  0  0  0  0  0  0  0  0  0  0
   57.3899   34.0533   43.8979 H   0  0  0  0  0  0  0  0  0  0  0  0
   59.5816   35.2247   44.1410 H   0  0  0  0  0  0  0  0  0  0  0  0
   60.7131   35.3116   46.3659 H   0  0  0  0  0  0  0  0  0  0  0  0
  1  2  3  0
  2  3  1  0
  3  4  2  0
  4  5  1  0
  5  6  2  0
  6  7  1  0
  7  8  1  0
  8  9  1  0
  9 10  2  0
 10 11  1  0
 11 12  1  0
 12 13  2  0
 10 14  1  0
 14 15  2  0
 14 16  1  0
 16 17  1  0
 17 18  1  0
  6 19  1  0
 19 20  2  0
 20 21  1  0
 21 22  1  0
 22 23  2  0
 23 24  1  0
 24 25  2  0
 25 26  1  0
 26 27  2  0
 20  3  1  0
 27 22  1  0
 12  8  1  0
 18  9  1  0
  4 28  1  0
  5 29  1  0
  7 30  1  0
  7 31  1  0
 11 32  1  0
 17 33  1  0
 17 34  1  0
 18 35  1  0
 18 36  1  0
 19 37  1  0
 23 38  1  0
 24 39  1  0
 25 40  1  0
 26 41  1  0
 27 42  1  0
M  CHG  1  16  -1
M  END
>  <UniqueID>  (13) 
10

>  <SMILES>  (13) 
N#Cc1ccc(Cn2c3c([nH]c2=O)C(=O)[N-]CC3)cc1Sc1ccccc1

>  <Energy>  (13) 
75.4822669200651

>  <Genealogy>  (13) 
N#Cc1ccc(Cn2c3c([nH]c2=O)C(=O)[N-]CC3)cc1Sc1ccccc1 (protonated)
N#Cc1ccc(Cn2c3c([nH]c2=O)C(=O)[N-]CC3)cc1Sc1ccccc1 (3D coordinates assigned)
N#Cc1ccc(Cn2c3c([nH]c2=O)C(=O)[N-]CC3)cc1Sc1ccccc1 (nonaromatic ring conformer: 75.4822669200651 kcal/mol)

>  <smiles>  (13) 
N#Cc1ccc(Cn2c3c([nH]c2=O)C(=O)NCC3)cc1Sc1ccccc1

>  <score_type>  (13) 
oracle

>  <origin>  (13) 
adg

>  <m_score__min__energy>  (13) 
-10.710000000000001

>  <m_primary>  (13) 
energy

$$$$
13:0
     RDKit          3D

 72 75  0  0  0  0  0  0  0  0999 V2000
   56.8830   21.5060   43.0640 C   0  0  0  0  0  0  0  0  0  0  0  0
   55.8980   22.4730   43.4190 O   0  0  0  0  0  0  0  0  0  0  0  0
   56.1740   23.6730   44.0890 C   0  0  0  0  0  0  0  0  0  0  0  0
   57.2810   24.4810   43.7670 C   0  0  0  0  0  0  0  0  0  0  0  0
   57.5060   25.6750   44.4580 C   0  0  0  0  0  0  0  0  0  0  0  0
   56.6340   26.0760   45.4870 C   0  0  0  0  0  0  0  0  0  0  0  0
   56.7890   27.3360   46.1530 N   0  0  0  0  0  0  0  0  0  0  0  0
   56.9330   28.6010   45.4960 C   0  0  0  0  0  0  0  0  0  0  0  0
   55.9150   29.2840   45.2020 O   0  0  0  0  0  0  0  0  0  0  0  0
   58.2930   29.1240   45.1660 C   0  0  0  0  0  0  0  0  0  0  0  0
   58.6090   30.2100   46.0340 O   0  0  0  0  0  0  0  0  0  0  0  0
   58.4980   31.5710   45.7080 C   0  0  0  0  0  0  0  0  0  0  0  0
   57.5250   32.0500   44.8100 C   0  0  0  0  0  0  0  0  0  0  0  0
   57.3860   33.4230   44.5870 C   0  0  0  0  0  0  0  0  0  0  0  0
   58.2150   34.3270   45.2530 C   0  0  0  0  0  0  0  0  0  0  0  0
   59.2030   33.8620   46.1240 C   0  0  0  0  0  0  0  0  0  0  0  0
   59.3670   32.4850   46.3350 C   0  0  0  0  0  0  0  0  0  0  0  0
   60.4460   32.0080   47.2220 C   0  0  0  0  0  0  0  0  0  0  0  0
   61.6010   31.8370   46.7490 O   0  0  0  0  0  0  0  0  0  0  0  0
   60.1900   31.7370   48.6090 N   0  0  0  0  0  0  0  0  0  0  0  0
   60.3870   30.4120   49.1250 C   0  0  0  0  0  0  0  0  0  0  0  0
   59.8210   29.3030   48.4810 C   0  0  0  0  0  0  0  0  0  0  0  0
   60.0080   28.0170   48.9960 C   0  0  0  0  0  0  0  0  0  0  0  0
   60.7710   27.8230   50.1640 C   0  0  0  0  0  0  0  0  0  0  0  0
   60.9850   26.5540   50.7220 O   0  0  0  0  0  0  0  0  0  0  0  0
   61.2800   26.3190   52.0930 C   0  0  0  0  0  0  0  0  0  0  0  0
   61.3430   28.9320   50.7980 C   0  0  0  0  0  0  0  0  0  0  0  0
   61.1560   30.2160   50.2820 C   0  0  0  0  0  0  0  0  0  0  0  0
   59.9570   33.0620   49.7080 S   0  0  0  0  0  0  0  0  0  0  0  0
   59.2690   34.2050   49.0140 O   0  0  0  0  0  0  0  0  0  0  0  0
   61.2940   33.5500   50.1920 O   0  0  0  0  0  0  0  0  0  0  0  0
   58.9710   32.5390   51.0710 C   0  0  0  0  0  0  0  0  0  0  0  0
   59.1390   33.1340   52.3240 C   0  0  0  0  0  0  0  0  0  0  0  0
   58.3820   32.7020   53.4160 C   0  0  0  0  0  0  0  0  0  0  0  0
   57.4300   31.6770   53.2610 C   0  0  0  0  0  0  0  0  0  0  0  0
   56.6530   31.2090   54.3330 O   0  0  0  0  0  0  0  0  0  0  0  0
   57.1160   30.3040   55.3300 C   0  0  0  0  0  0  0  0  0  0  0  0
   57.2400   31.0920   51.9980 C   0  0  0  0  0  0  0  0  0  0  0  0
   56.2750   30.0820   51.8700 O   0  0  0  0  0  0  0  0  0  0  0  0
   54.8780   30.2690   52.0770 C   0  0  0  0  0  0  0  0  0  0  0  0
   58.0190   31.5250   50.9070 C   0  0  0  0  0  0  0  0  0  0  0  0
   55.5280   25.2780   45.7960 C   0  0  0  0  0  0  0  0  0  0  0  0
   55.3060   24.0810   45.1080 C   0  0  0  0  0  0  0  0  0  0  0  0
   57.3207   21.0763   43.9771 H   0  0  0  0  0  0  0  0  0  0  0  0
   56.4150   20.7068   42.4705 H   0  0  0  0  0  0  0  0  0  0  0  0
   57.6734   21.9886   42.4705 H   0  0  0  0  0  0  0  0  0  0  0  0
   57.9715   24.1715   42.9686 H   0  0  0  0  0  0  0  0  0  0  0  0
   58.3692   26.3044   44.1960 H   0  0  0  0  0  0  0  0  0  0  0  0
   59.0353   28.3228   45.2962 H   0  0  0  0  0  0  0  0  0  0  0  0
   58.3082   29.4725   44.1228 H   0  0  0  0  0  0  0  0  0  0  0  0
   56.8712   31.3406   44.2815 H   0  0  0  0  0  0  0  0  0  0  0  0
   56.6225   33.7913   43.8860 H   0  0  0  0  0  0  0  0  0  0  0  0
   58.0900   35.4079   45.0916 H   0  0  0  0  0  0  0  0  0  0  0  0
   59.8546   34.5780   46.6462 H   0  0  0  0  0  0  0  0  0  0  0  0
   59.2270   29.4454   47.5662 H   0  0  0  0  0  0  0  0  0  0  0  0
   59.5572   27.1525   48.4867 H   0  0  0  0  0  0  0  0  0  0  0  0
   60.5740   26.8814   52.7216 H   0  0  0  0  0  0  0  0  0  0  0  0
   61.1875   25.2444   52.3090 H   0  0  0  0  0  0  0  0  0  0  0  0
   62.3067   26.6494   52.3090 H   0  0  0  0  0  0  0  0  0  0  0  0
   61.9437   28.7912   51.7086 H   0  0  0  0  0  0  0  0  0  0  0  0
   61.6146   31.0795   50.7860 H   0  0  0  0  0  0  0  0  0  0  0  0
   59.8702   33.9459   52.4512 H   0  0  0  0  0  0  0  0  0  0  0  0
   58.5309   33.1656   54.4024 H   0  0  0  0  0  0  0  0  0  0  0  0
   56.9045   30.7174   56.3272 H   0  0  0  0  0  0  0  0  0  0  0  0
   56.6010   29.3386   55.2165 H   0  0  0  0  0  0  0  0  0  0  0  0
   58.2002   30.1568   55.2165 H   0  0  0  0  0  0  0  0  0  0  0  0
   54.6678   30.2971   53.1564 H   0  0  0  0  0  0  0  0  0  0  0  0
   54.5629   31.2173   51.6172 H   0  0  0  0  0  0  0  0  0  0  0  0
   54.3246   29.4369   51.6172 H   0  0  0  0  0  0  0  0  0  0  0  0
   57.8784   31.0631   49.9186 H   0  0  0  0  0  0  0  0  0  0  0  0
   54.8289   25.5936   46.5845 H   0  0  0  0  0  0  0  0  0  0  0  0
   54.4409   23.4542   45.3703 H   0  0  0  0  0  0  0  0  0  0  0  0
  1  2  1  0
  2  3  1  0
  3  4  2  0
  4  5  1  0
  5  6  2  0
  6  7  1  0
  7  8  1  0
  8  9  2  0
  8 10  1  0
 10 11  1  0
 11 12  1  0
 12 13  2  0
 13 14  1  0
 14 15  2  0
 15 16  1  0
 16 17  2  0
 17 18  1  0
 18 19  2  0
 18 20  1  0
 20 21  1  0
 21 22  2  0
 22 23  1  0
 23 24  2  0
 24 25  1  0
 25 26  1  0
 24 27  1  0
 27 28  2  0
 20 29  1  0
 29 30  2  0
 29 31  2  0
 29 32  1  0
 32 33  2  0
 33 34  1  0
 34 35  2  0
 35 36  1  0
 36 37  1  0
 35 38  1  0
 38 39  1  0
 39 40  1  0
 38 41  2  0
  6 42  1  0
 42 43  2  0
 43  3  1  0
 17 12  1  0
 28 21  1  0
 41 32  1  0
  1 44  1  0
  1 45  1  0
  1 46  1  0
  4 47  1  0
  5 48  1  0
 10 49  1  0
 10 50  1  0
 13 51  1  0
 14 52  1  0
 15 53  1  0
 16 54  1  0
 22 55  1  0
 23 56  1  0
 26 57  1  0
 26 58  1  0
 26 59  1  0
 27 60  1  0
 28 61  1  0
 33 62  1  0
 34 63  1  0
 37 64  1  0
 37 65  1  0
 37 66  1  0
 40 67  1  0
 40 68  1  0
 40 69  1  0
 41 70  1  0
 42 71  1  0
 43 72  1  0
M  CHG  1   7  -1
M  END
>  <UniqueID>  (14) 
11

>  <SMILES>  (14) 
COc1ccc([N-]C(=O)COc2ccccc2C(=O)N(c2ccc(OC)cc2)S(=O)(=O)c2ccc(OC)c(OC)c2)cc1

>  <Energy>  (14) 
87.114823330296

>  <Genealogy>  (14) 
COc1ccc([N-]C(=O)COc2ccccc2C(=O)N(c2ccc(OC)cc2)S(=O)(=O)c2ccc(OC)c(OC)c2)cc1 (protonated)
COc1ccc([N-]C(=O)COc2ccccc2C(=O)N(c2ccc(OC)cc2)S(=O)(=O)c2ccc(OC)c(OC)c2)cc1 (3D coordinates assigned)
COc1ccc([N-]C(=O)COc2ccccc2C(=O)N(c2ccc(OC)cc2)S(=O)(=O)c2ccc(OC)c(OC)c2)cc1 (optimized conformer: 87.114823330296 kcal/mol)

>  <smiles>  (14) 
COc1ccc(NC(=O)COc2ccccc2C(=O)N(c2ccc(OC)cc2)S(=O)(=O)c2ccc(OC)c(OC)c2)cc1

>  <score_type>  (14) 
oracle

>  <origin>  (14) 
adg

>  <m_score__min__energy>  (14) 
-11.289999999999999

>  <m_primary>  (14) 
energy

$$$$
14:0
     RDKit          3D

 49 51  0  0  0  0  0  0  0  0999 V2000
   61.0510   29.0600   50.1750 C   0  0  0  0  0  0  0  0  0  0  0  0
   60.8380   30.3720   49.6650 O   0  0  0  0  0  0  0  0  0  0  0  0
   60.2390   30.6670   48.4280 C   0  0  0  0  0  0  0  0  0  0  0  0
   60.7340   30.1110   47.2350 C   0  0  0  0  0  0  0  0  0  0  0  0
   60.1340   30.4010   46.0150 C   0  0  0  0  0  0  0  0  0  0  0  0
   59.0360   31.2520   45.9600 C   0  0  0  0  0  0  0  0  0  0  0  0
   58.5150   31.8280   47.1320 C   0  0  0  0  0  0  0  0  0  0  0  0
   57.4060   32.6890   47.0760 O   0  0  0  0  0  0  0  0  0  0  0  0
   57.0470   33.4900   45.9550 C   0  0  0  0  0  0  0  0  0  0  0  0
   59.1170   31.5370   48.3870 C   0  0  0  0  0  0  0  0  0  0  0  0
   58.5700   32.1320   49.6960 C   0  0  1  0  0  0  0  0  0  0  0  0
   57.9560   31.0040   50.5700 C   0  0  0  0  0  0  0  0  0  0  0  0
   57.3350   31.5730   51.8500 C   0  0  0  0  0  0  0  0  0  0  0  0
   58.3590   32.4030   52.6210 C   0  0  0  0  0  0  0  0  0  0  0  0
   58.9760   33.4050   51.6870 C   0  0  0  0  0  0  0  0  0  0  0  0
   58.9320   34.5920   51.9770 O   0  0  0  0  0  0  0  0  0  0  0  0
   59.5840   32.9330   50.4480 N   0  0  2  0  0  0  0  0  0  0  0  0
   60.1210   34.0480   49.6140 C   0  0  0  0  0  0  0  0  0  0  0  0
   61.3840   33.6570   48.8560 C   0  0  0  0  0  0  0  0  0  0  0  0
   62.4190   32.9870   49.5440 C   0  0  0  0  0  0  0  0  0  0  0  0
   62.2840   32.6610   50.8540 F   0  0  0  0  0  0  0  0  0  0  0  0
   63.5930   32.6230   48.8800 C   0  0  0  0  0  0  0  0  0  0  0  0
   63.7480   32.9000   47.5230 C   0  0  0  0  0  0  0  0  0  0  0  0
   62.7220   33.5290   46.8170 C   0  0  0  0  0  0  0  0  0  0  0  0
   61.5370   33.9010   47.4670 C   0  0  0  0  0  0  0  0  0  0  0  0
   60.4910   34.5060   46.6750 C   0  0  0  0  0  0  0  0  0  0  0  0
   59.6550   34.9910   46.0400 N   0  0  0  0  0  0  0  0  0  0  0  0
   61.0463   29.0888   51.2746 H   0  0  0  0  0  0  0  0  0  0  0  0
   60.2491   28.3948   49.8222 H   0  0  0  0  0  0  0  0  0  0  0  0
   62.0222   28.6827   49.8222 H   0  0  0  0  0  0  0  0  0  0  0  0
   61.6049   29.4398   47.2675 H   0  0  0  0  0  0  0  0  0  0  0  0
   60.5293   29.9557   45.0901 H   0  0  0  0  0  0  0  0  0  0  0  0
   58.5700   31.4770   44.9893 H   0  0  0  0  0  0  0  0  0  0  0  0
   56.6206   34.4414   46.3057 H   0  0  0  0  0  0  0  0  0  0  0  0
   57.9411   33.6910   45.3466 H   0  0  0  0  0  0  0  0  0  0  0  0
   56.3019   32.9564   45.3466 H   0  0  0  0  0  0  0  0  0  0  0  0
   57.7782   32.8477   49.4297 H   0  0  0  0  0  0  0  0  0  0  0  0
   57.1764   30.4861   49.9921 H   0  0  0  0  0  0  0  0  0  0  0  0
   58.7575   30.3053   50.8517 H   0  0  0  0  0  0  0  0  0  0  0  0
   56.4791   32.2108   51.5840 H   0  0  0  0  0  0  0  0  0  0  0  0
   57.0044   30.7381   52.4853 H   0  0  0  0  0  0  0  0  0  0  0  0
   57.8605   32.9282   53.4490 H   0  0  0  0  0  0  0  0  0  0  0  0
   59.1398   31.7451   53.0303 H   0  0  0  0  0  0  0  0  0  0  0  0
   60.3700   32.3080   50.7300 H   0  0  0  0  0  0  0  0  0  0  0  0
   59.3516   34.3460   48.8866 H   0  0  0  0  0  0  0  0  0  0  0  0
   60.3812   34.8750   50.2910 H   0  0  0  0  0  0  0  0  0  0  0  0
   64.3987   32.1155   49.4307 H   0  0  0  0  0  0  0  0  0  0  0  0
   64.6797   32.6226   47.0082 H   0  0  0  0  0  0  0  0  0  0  0  0
   62.8438   33.7343   45.7432 H   0  0  0  0  0  0  0  0  0  0  0  0
  1  2  1  0
  2  3  1  0
  3  4  2  0
  4  5  1  0
  5  6  2  0
  6  7  1  0
  7  8  1  0
  8  9  1  0
  7 10  2  0
 10 11  1  0
 11 12  1  0
 12 13  1  0
 13 14  1  0
 14 15  1  0
 15 16  2  0
 15 17  1  0
 17 18  1  0
 18 19  1  0
 19 20  2  0
 20 21  1  0
 20 22  1  0
 22 23  2  0
 23 24  1  0
 24 25  2  0
 25 26  1  0
 26 27  3  0
 10  3  1  0
 17 11  1  0
 25 19  1  0
  1 28  1  0
  1 29  1  0
  1 30  1  0
  4 31  1  0
  5 32  1  0
  6 33  1  0
  9 34  1  0
  9 35  1  0
  9 36  1  0
 11 37  1  6
 12 38  1  0
 12 39  1  0
 13 40  1  0
 13 41  1  0
 14 42  1  0
 14 43  1  0
 17 44  1  1
 18 45  1  0
 18 46  1  0
 22 47  1  0
 23 48  1  0
 24 49  1  0
M  CHG  1  17   1
M  END
>  <UniqueID>  (15) 
12

>  <SMILES>  (15) 
COc1cccc(OC)c1[C@H]1CCCC(=O)[N@@H+]1Cc1c(F)cccc1C#N

>  <Energy>  (15) 
61.06891192687343

>  <Genealogy>  (15) 
COc1cccc(OC)c1C1CCCC(=O)[NH+]1Cc1c(F)cccc1C#N (protonated)
COc1cccc(OC)c1[C@H]1CCCC(=O)[N@@H+]1Cc1c(F)cccc1C#N (chirality)
COc1cccc(OC)c1[C@H]1CCCC(=O)[N@@H+]1Cc1c(F)cccc1C#N (3D coordinates assigned)
COc1cccc(OC)c1[C@H]1CCCC(=O)[N@@H+]1Cc1c(F)cccc1C#N (nonaromatic ring conformer: 61.06891192687343 kcal/mol)

>  <smiles>  (15) 
COc1cccc(OC)c1C1CCCC(=O)N1Cc1c(F)cccc1C#N

>  <score_type>  (15) 
oracle

>  <origin>  (15) 
adg

>  <m_score__min__energy>  (15) 
-5.5800000000000001

>  <m_primary>  (15) 
energy

$$$$
15:0
     RDKit          3D

 45 47  0  0  0  0  0  0  0  0999 V2000
   54.5468   24.2754   46.1240 H   0  0  0  0  0  0  0  0  0  0  0  0
   55.4100   24.9190   45.8990 C   0  0  0  0  0  0  0  0  0  0  0  0
   55.3530   26.2750   45.9950 N   0  0  0  0  0  0  0  0  0  0  0  0
   56.5280   26.8500   45.6650 C   0  0  0  0  0  0  0  0  0  0  0  0
   56.6960   28.1390   45.6950 N   0  0  0  0  0  0  0  0  0  0  0  0
   56.2360   29.0960   44.7280 C   0  0  0  0  0  0  0  0  0  0  0  0
   55.1450   29.7110   44.8770 O   0  0  0  0  0  0  0  0  0  0  0  0
   57.0560   29.3570   43.5050 C   0  0  0  0  0  0  0  0  0  0  0  0
   56.8787   28.5582   42.7699 H   0  0  0  0  0  0  0  0  0  0  0  0
   58.1205   29.3792   43.7812 H   0  0  0  0  0  0  0  0  0  0  0  0
   56.6930   30.6130   42.9350 O   0  0  0  0  0  0  0  0  0  0  0  0
   57.5310   31.7360   42.9400 C   0  0  0  0  0  0  0  0  0  0  0  0
   57.9980   32.1810   41.8550 O   0  0  0  0  0  0  0  0  0  0  0  0
   57.8690   32.3940   44.2220 C   0  0  0  0  0  0  0  0  0  0  0  0
   57.3760   33.6810   44.5070 C   0  0  0  0  0  0  0  0  0  0  0  0
   56.7434   34.1993   43.7714 H   0  0  0  0  0  0  0  0  0  0  0  0
   57.6850   34.3040   45.7180 C   0  0  0  0  0  0  0  0  0  0  0  0
   57.2952   35.3100   45.9324 H   0  0  0  0  0  0  0  0  0  0  0  0
   58.4880   33.6530   46.6580 C   0  0  0  0  0  0  0  0  0  0  0  0
   58.7296   34.1480   47.6102 H   0  0  0  0  0  0  0  0  0  0  0  0
   58.9870   32.3690   46.3900 C   0  0  0  0  0  0  0  0  0  0  0  0
   59.9660   31.5480   47.6050 S   0  0  0  0  0  0  0  0  0  0  0  0
   60.2630   32.5190   48.7140 O   0  0  0  0  0  0  0  0  0  0  0  0
   61.2630   31.0550   47.0220 O   0  0  0  0  0  0  0  0  0  0  0  0
   59.0750   30.2010   48.2510 N   0  0  0  0  0  0  0  0  0  0  0  0
   59.6580   29.0630   48.8960 C   0  0  0  0  0  0  0  0  0  0  0  0
   59.8220   27.8330   48.2360 C   0  0  0  0  0  0  0  0  0  0  0  0
   59.5057   27.7271   47.1878 H   0  0  0  0  0  0  0  0  0  0  0  0
   60.3850   26.7450   48.9060 C   0  0  0  0  0  0  0  0  0  0  0  0
   60.5072   25.7860   48.3813 H   0  0  0  0  0  0  0  0  0  0  0  0
   60.7950   26.8630   50.2380 C   0  0  0  0  0  0  0  0  0  0  0  0
   61.3170   25.7300   50.8830 O   0  0  0  0  0  0  0  0  0  0  0  0
   62.0640   25.7670   52.0990 C   0  0  0  0  0  0  0  0  0  0  0  0
   61.3736   25.7328   52.9546 H   0  0  0  0  0  0  0  0  0  0  0  0
   62.7414   24.9013   52.1397 H   0  0  0  0  0  0  0  0  0  0  0  0
   62.6526   26.6954   52.1397 H   0  0  0  0  0  0  0  0  0  0  0  0
   60.6590   28.1040   50.8880 C   0  0  0  0  0  0  0  0  0  0  0  0
   60.9990   28.2177   51.9279 H   0  0  0  0  0  0  0  0  0  0  0  0
   60.0940   29.1920   50.2180 C   0  0  0  0  0  0  0  0  0  0  0  0
   59.9914   30.1577   50.7347 H   0  0  0  0  0  0  0  0  0  0  0  0
   58.6790   31.7430   45.1720 C   0  0  0  0  0  0  0  0  0  0  0  0
   59.0726   30.7383   44.9585 H   0  0  0  0  0  0  0  0  0  0  0  0
   57.6870   25.6940   45.2540 S   0  0  0  0  0  0  0  0  0  0  0  0
   56.6380   24.4050   45.4960 C   0  0  0  0  0  0  0  0  0  0  0  0
   56.8798   23.3406   45.3597 H   0  0  0  0  0  0  0  0  0  0  0  0
  1  2  1  0
  2  3  1  0
  3  4  1  0
  4  5  2  0
  5  6  1  0
  6  7  2  0
  6  8  1  0
  8  9  1  0
  8 10  1  0
  8 11  1  0
 11 12  1  0
 12 13  2  0
 12 14  1  0
 14 15  2  0
 15 16  1  0
 15 17  1  0
 17 18  1  0
 17 19  2  0
 19 20  1  0
 19 21  1  0
 21 22  1  0
 22 23  2  0
 22 24  2  0
 22 25  1  0
 25 26  1  0
 26 27  2  0
 27 28  1  0
 27 29  1  0
 29 30  1  0
 29 31  2  0
 31 32  1  0
 32 33  1  0
 33 34  1  0
 33 35  1  0
 33 36  1  0
 31 37  1  0
 37 38  1  0
 37 39  2  0
 39 40  1  0
 21 41  2  0
 41 42  1  0
  4 43  1  0
 43 44  1  0
 44 45  1  0
 44  2  2  0
 41 14  1  0
 39 26  1  0
M  CHG  2   3  -1  25  -1
M  END
>  <UniqueID>  (16) 
13

>  <SMILES>  (16) 
COc1ccc([N-]S(=O)(=O)c2cccc(C(=O)OCC(=O)/N=c3/[n-]ccs3)c2)cc1

>  <Energy>  (16) 
81.90822998986862

>  <Genealogy>  (16) 
COc1ccc([N-]S(=O)(=O)c2cccc(C(=O)OCC(=O)N=c3[n-]ccs3)c2)cc1 (protonated)
COc1ccc([N-]S(=O)(=O)c2cccc(C(=O)OCC(=O)/N=c3/[n-]ccs3)c2)cc1 (cis-trans isomerization)
COc1ccc([N-]S(=O)(=O)c2cccc(C(=O)OCC(=O)/N=c3/[n-]ccs3)c2)cc1 (3D coordinates assigned)
COc1ccc([N-]S(=O)(=O)c2cccc(C(=O)OCC(=O)/N=c3/[n-]ccs3)c2)cc1 (optimized conformer: 81.90822998986862 kcal/mol)

>  <smiles>  (16) 
COc1ccc(NS(=O)(=O)c2cccc(C(=O)OCC(=O)N=c3[nH]ccs3)c2)cc1

>  <score_type>  (16) 
oracle

>  <origin>  (16) 
adg

>  <m_score__min__energy>  (16) 
-12.369999999999999

>  <m_primary>  (16) 
energy

$$$$
16:0
     RDKit          3D

 39 41  0  0  0  0  0  0  0  0999 V2000
   65.2130   32.0370   50.1520 C   0  0  0  0  0  0  0  0  0  0  0  0
   64.9280   32.7960   48.9810 O   0  0  0  0  0  0  0  0  0  0  0  0
   63.6780   32.8300   48.3440 C   0  0  0  0  0  0  0  0  0  0  0  0
   63.3290   33.8340   47.4240 C   0  0  0  0  0  0  0  0  0  0  0  0
   62.0760   33.8190   46.8110 C   0  0  0  0  0  0  0  0  0  0  0  0
   61.1570   32.7990   47.0890 C   0  0  0  0  0  0  0  0  0  0  0  0
   59.8790   32.8190   46.4350 N   0  0  0  0  0  0  0  0  0  0  0  0
   58.9350   33.8900   46.5890 C   0  0  0  0  0  0  0  0  0  0  0  0
   59.1820   34.8580   47.3580 O   0  0  0  0  0  0  0  0  0  0  0  0
   57.6100   33.8290   45.8910 C   0  0  0  0  0  0  0  0  0  0  0  0
   57.8020   33.2280   44.1770 S   0  0  0  0  0  0  0  0  0  0  0  0
   57.6890   31.4930   44.6080 C   0  0  0  0  0  0  0  0  0  0  0  0
   58.7780   30.7480   44.9390 N   0  0  0  0  0  0  0  0  0  0  0  0
   58.2320   29.5530   45.2040 C   0  0  0  0  0  0  0  0  0  0  0  0
   58.8640   28.3840   45.6110 C   0  0  0  0  0  0  0  0  0  0  0  0
   58.0480   27.2590   45.8350 C   0  0  0  0  0  0  0  0  0  0  0  0
   56.6500   27.3560   45.6440 C   0  0  0  0  0  0  0  0  0  0  0  0
   56.0840   28.5340   45.2430 N   0  0  0  0  0  0  0  0  0  0  0  0
   56.8880   29.6060   45.0320 C   0  0  0  0  0  0  0  0  0  0  0  0
   56.5030   30.8290   44.6510 N   0  0  0  0  0  0  0  0  0  0  0  0
   61.4800   31.8080   48.0380 C   0  0  0  0  0  0  0  0  0  0  0  0
   60.5150   30.8430   48.3700 O   0  0  0  0  0  0  0  0  0  0  0  0
   59.2930   31.1210   49.0470 C   0  0  0  0  0  0  0  0  0  0  0  0
   62.7510   31.8270   48.6460 C   0  0  0  0  0  0  0  0  0  0  0  0
   64.9866   32.6399   51.0438 H   0  0  0  0  0  0  0  0  0  0  0  0
   64.5954   31.1268   50.1583 H   0  0  0  0  0  0  0  0  0  0  0  0
   66.2771   31.7582   50.1583 H   0  0  0  0  0  0  0  0  0  0  0  0
   64.0460   34.6338   47.1868 H   0  0  0  0  0  0  0  0  0  0  0  0
   61.8069   34.6161   46.1023 H   0  0  0  0  0  0  0  0  0  0  0  0
   59.5500   31.9350   45.9820 H   0  0  0  0  0  0  0  0  0  0  0  0
   56.9452   33.1457   46.4397 H   0  0  0  0  0  0  0  0  0  0  0  0
   57.1816   34.8417   45.8620 H   0  0  0  0  0  0  0  0  0  0  0  0
   59.9540   28.3398   45.7519 H   0  0  0  0  0  0  0  0  0  0  0  0
   58.4962   26.3076   46.1575 H   0  0  0  0  0  0  0  0  0  0  0  0
   56.0130   26.4765   45.8195 H   0  0  0  0  0  0  0  0  0  0  0  0
   59.4591   31.0832   50.1337 H   0  0  0  0  0  0  0  0  0  0  0  0
   58.9373   32.1230   48.7650 H   0  0  0  0  0  0  0  0  0  0  0  0
   58.5389   30.3715   48.7650 H   0  0  0  0  0  0  0  0  0  0  0  0
   63.0181   31.0418   49.3685 H   0  0  0  0  0  0  0  0  0  0  0  0
  1  2  1  0
  2  3  1  0
  3  4  2  0
  4  5  1  0
  5  6  2  0
  6  7  1  0
  7  8  1  0
  8  9  2  0
  8 10  1  0
 10 11  1  0
 11 12  1  0
 12 13  2  0
 13 14  1  0
 14 15  2  0
 15 16  1  0
 16 17  2  0
 17 18  1  0
 18 19  2  0
 19 20  1  0
  6 21  1  0
 21 22  1  0
 22 23  1  0
 21 24  2  0
 24  3  1  0
 20 12  1  0
 19 14  1  0
  1 25  1  0
  1 26  1  0
  1 27  1  0
  4 28  1  0
  5 29  1  0
  7 30  1  0
 10 31  1  0
 10 32  1  0
 15 33  1  0
 16 34  1  0
 17 35  1  0
 23 36  1  0
 23 37  1  0
 23 38  1  0
 24 39  1  0
M  CHG  1  20  -1
M  END
>  <UniqueID>  (17) 
14

>  <SMILES>  (17) 
COc1ccc(NC(=O)CSc2nc3cccnc3[n-]2)c(OC)c1

>  <Energy>  (17) 
75.57414439195851

>  <Genealogy>  (17) 
COc1ccc(NC(=O)CSc2nc3cccnc3[n-]2)c(OC)c1 (protonated)
COc1ccc(NC(=O)CSc2nc3cccnc3[n-]2)c(OC)c1 (3D coordinates assigned)
COc1ccc(NC(=O)CSc2nc3cccnc3[n-]2)c(OC)c1 (optimized conformer: 75.57414439195851 kcal/mol)

>  <smiles>  (17) 
COc1ccc(NC(=O)CSc2nc3cccnc3[nH]2)c(OC)c1

>  <score_type>  (17) 
oracle

>  <origin>  (17) 
adg

>  <m_score__min__energy>  (17) 
-8.2400000000000002

>  <m_primary>  (17) 
energy

$$$$
17:0
     RDKit          3D

 54 58  0  0  0  0  0  0  0  0999 V2000
   56.0390   22.0360   43.2200 O   0  0  0  0  0  0  0  0  0  0  0  0
   55.5900   22.8220   44.0990 C   0  0  0  0  0  0  0  0  0  0  0  0
   56.4560   23.2320   45.2500 C   0  0  0  0  0  0  0  0  0  0  0  0
   56.9710   24.6330   45.0580 C   0  0  0  0  0  0  0  0  0  0  0  0
   56.9870   25.5380   46.1310 C   0  0  0  0  0  0  0  0  0  0  0  0
   57.4390   26.8460   45.9440 C   0  0  0  0  0  0  0  0  0  0  0  0
   57.8560   27.2800   44.6780 C   0  0  0  0  0  0  0  0  0  0  0  0
   58.3270   28.6290   44.5120 N   0  0  0  0  0  0  0  0  0  0  0  0
   57.4610   29.7720   44.4360 C   0  0  0  0  0  0  0  0  0  0  0  0
   56.2850   29.7070   44.8860 O   0  0  0  0  0  0  0  0  0  0  0  0
   57.9430   31.0250   43.9430 N   0  0  0  0  0  0  0  0  0  0  0  0
   58.1000   32.2200   44.7210 C   0  0  0  0  0  0  0  0  0  0  0  0
   57.4080   33.4110   44.4830 C   0  0  0  0  0  0  0  0  0  0  0  0
   57.7990   34.5110   45.7030 S   0  0  0  0  0  0  0  0  0  0  0  0
   58.8120   33.4660   46.5410 C   0  0  0  0  0  0  0  0  0  0  0  0
   58.8770   32.2570   45.8840 C   0  0  0  0  0  0  0  0  0  0  0  0
   59.7640   30.8720   46.5880 S   0  0  0  0  0  0  0  0  0  0  0  0
   61.1430   31.8680   47.1950 C   0  0  0  0  0  0  0  0  0  0  0  0
   62.4290   31.3130   47.1850 C   0  0  0  0  0  0  0  0  0  0  0  0
   63.4950   31.9930   47.7810 C   0  0  0  0  0  0  0  0  0  0  0  0
   63.2810   33.2310   48.3930 C   0  0  0  0  0  0  0  0  0  0  0  0
   62.0080   33.8070   48.3870 C   0  0  0  0  0  0  0  0  0  0  0  0
   60.9330   33.1430   47.7750 C   0  0  0  0  0  0  0  0  0  0  0  0
   59.6770   33.8260   47.6180 N   0  0  0  0  0  0  0  0  0  0  0  0
   57.8470   26.3730   43.6040 C   0  0  0  0  0  0  0  0  0  0  0  0
   57.4010   25.0600   43.7920 C   0  0  0  0  0  0  0  0  0  0  0  0
   54.2700   23.3600   43.9800 N   0  0  0  0  0  0  0  0  0  0  0  0
   53.6320   24.1280   45.0400 C   0  0  0  0  0  0  0  0  0  0  0  0
   52.3800   23.4260   45.4800 C   0  0  0  0  0  0  0  0  0  0  0  0
   52.4020   22.5710   46.5960 C   0  0  0  0  0  0  0  0  0  0  0  0
   51.2260   21.9480   47.0280 C   0  0  0  0  0  0  0  0  0  0  0  0
   50.0220   22.1820   46.3560 C   0  0  0  0  0  0  0  0  0  0  0  0
   49.9910   23.0410   45.2540 C   0  0  0  0  0  0  0  0  0  0  0  0
   51.1640   23.6660   44.8190 C   0  0  0  0  0  0  0  0  0  0  0  0
   55.8671   23.1881   46.1781 H   0  0  0  0  0  0  0  0  0  0  0  0
   57.3137   22.5457   45.3083 H   0  0  0  0  0  0  0  0  0  0  0  0
   56.6417   25.2152   47.1243 H   0  0  0  0  0  0  0  0  0  0  0  0
   57.4680   27.5408   46.7963 H   0  0  0  0  0  0  0  0  0  0  0  0
   59.3560   28.8030   44.5720 H   0  0  0  0  0  0  0  0  0  0  0  0
   56.7239   33.5998   43.6425 H   0  0  0  0  0  0  0  0  0  0  0  0
   62.6008   30.3378   46.7060 H   0  0  0  0  0  0  0  0  0  0  0  0
   64.5032   31.5533   47.7683 H   0  0  0  0  0  0  0  0  0  0  0  0
   64.1171   33.7535   48.8808 H   0  0  0  0  0  0  0  0  0  0  0  0
   61.8474   34.7851   48.8639 H   0  0  0  0  0  0  0  0  0  0  0  0
   59.5180   34.7390   48.1030 H   0  0  0  0  0  0  0  0  0  0  0  0
   58.1922   26.6969   42.6111 H   0  0  0  0  0  0  0  0  0  0  0  0
   57.3874   24.3595   42.9440 H   0  0  0  0  0  0  0  0  0  0  0  0
   54.3208   24.2190   45.8928 H   0  0  0  0  0  0  0  0  0  0  0  0
   53.3788   25.1309   44.6657 H   0  0  0  0  0  0  0  0  0  0  0  0
   53.3463   22.3914   47.1309 H   0  0  0  0  0  0  0  0  0  0  0  0
   51.2485   21.2737   47.8968 H   0  0  0  0  0  0  0  0  0  0  0  0
   49.0987   21.6896   46.6951 H   0  0  0  0  0  0  0  0  0  0  0  0
   49.0427   23.2257   44.7281 H   0  0  0  0  0  0  0  0  0  0  0  0
   51.1343   24.3478   43.9563 H   0  0  0  0  0  0  0  0  0  0  0  0
  1  2  2  0
  2  3  1  0
  3  4  1  0
  4  5  2  0
  5  6  1  0
  6  7  2  0
  7  8  1  0
  8  9  1  0
  9 10  2  0
  9 11  1  0
 11 12  1  0
 12 13  2  0
 13 14  1  0
 14 15  1  0
 15 16  2  0
 16 17  1  0
 17 18  1  0
 18 19  2  0
 19 20  1  0
 20 21  2  0
 21 22  1  0
 22 23  2  0
 23 24  1  0
  7 25  1  0
 25 26  2  0
  2 27  1  0
 27 28  1  0
 28 29  1  0
 29 30  2  0
 30 31  1  0
 31 32  2  0
 32 33  1  0
 33 34  2  0
 26  4  1  0
 34 29  1  0
 16 12  1  0
 23 18  1  0
 24 15  1  0
  3 35  1  0
  3 36  1  0
  5 37  1  0
  6 38  1  0
  8 39  1  0
 13 40  1  0
 19 41  1  0
 20 42  1  0
 21 43  1  0
 22 44  1  0
 24 45  1  0
 25 46  1  0
 26 47  1  0
 28 48  1  0
 28 49  1  0
 30 50  1  0
 31 51  1  0
 32 52  1  0
 33 53  1  0
 34 54  1  0
M  CHG  2  11  -1  27  -1
M  END
>  <UniqueID>  (18) 
15

>  <SMILES>  (18) 
O=C(Cc1ccc(NC(=O)[N-]c2csc3c2Sc2ccccc2N3)cc1)[N-]Cc1ccccc1

>  <Energy>  (18) 
104.27695363590811

>  <Genealogy>  (18) 
O=C(Cc1ccc(NC(=O)[N-]c2csc3c2Sc2ccccc2N3)cc1)[N-]Cc1ccccc1 (protonated)
O=C(Cc1ccc(NC(=O)[N-]c2csc3c2Sc2ccccc2N3)cc1)[N-]Cc1ccccc1 (3D coordinates assigned)
O=C(Cc1ccc(NC(=O)[N-]c2csc3c2Sc2ccccc2N3)cc1)[N-]Cc1ccccc1 (nonaromatic ring conformer: 104.27695363590811 kcal/mol)

>  <smiles>  (18) 
O=C(Cc1ccc(NC(=O)Nc2csc3c2Sc2ccccc2N3)cc1)NCc1ccccc1

>  <score_type>  (18) 
oracle

>  <origin>  (18) 
adg

>  <m_score__min__energy>  (18) 
-12.27

>  <m_primary>  (18) 
energy

$$$$
18:0
     RDKit          3D

 34 35  0  0  0  0  0  0  0  0999 V2000
   59.5110   28.7540   48.3920 C   0  0  0  0  0  0  0  0  0  0  0  0
   58.6960   28.6120   47.1430 C   0  0  0  0  0  0  0  0  0  0  0  0
   58.4730   27.3500   46.6230 C   0  0  0  0  0  0  0  0  0  0  0  0
   57.7220   27.2170   45.4890 C   0  0  0  0  0  0  0  0  0  0  0  0
   57.4510   25.8700   44.8840 C   0  0  0  0  0  0  0  0  0  0  0  0
   57.2130   28.3270   44.9010 N   0  0  0  0  0  0  0  0  0  0  0  0
   57.4130   29.5460   45.3800 C   0  0  0  0  0  0  0  0  0  0  0  0
   56.9570   30.6420   44.8970 N   0  0  0  0  0  0  0  0  0  0  0  0
   57.0120   30.9900   43.5200 C   0  0  0  0  0  0  0  0  0  0  0  0
   56.4810   30.3510   42.5980 O   0  0  0  0  0  0  0  0  0  0  0  0
   57.7950   32.2500   43.2250 C   0  0  0  0  0  0  0  0  0  0  0  0
   57.4070   33.4960   44.4940 S   0  0  0  0  0  0  0  0  0  0  0  0
   58.5620   33.3710   45.8510 C   0  0  0  0  0  0  0  0  0  0  0  0
   58.0160   32.9820   47.0780 C   0  0  0  0  0  0  0  0  0  0  0  0
   58.7920   32.8450   48.2070 C   0  0  0  0  0  0  0  0  0  0  0  0
   60.1410   33.1090   48.0770 C   0  0  0  0  0  0  0  0  0  0  0  0
   60.6780   33.4920   46.8620 C   0  0  0  0  0  0  0  0  0  0  0  0
   62.4160   33.8150   46.7640 Cl  0  0  0  0  0  0  0  0  0  0  0  0
   59.9080   33.6320   45.7290 C   0  0  0  0  0  0  0  0  0  0  0  0
   58.1630   29.6680   46.5090 N   0  0  0  0  0  0  0  0  0  0  0  0
   58.8587   28.6403   49.2704 H   0  0  0  0  0  0  0  0  0  0  0  0
   60.2905   27.9781   48.4113 H   0  0  0  0  0  0  0  0  0  0  0  0
   59.9822   29.7478   48.4113 H   0  0  0  0  0  0  0  0  0  0  0  0
   58.8957   26.4627   47.1170 H   0  0  0  0  0  0  0  0  0  0  0  0
   57.3024   25.1313   45.6854 H   0  0  0  0  0  0  0  0  0  0  0  0
   56.5455   25.9230   44.2617 H   0  0  0  0  0  0  0  0  0  0  0  0
   58.3065   25.5687   44.2617 H   0  0  0  0  0  0  0  0  0  0  0  0
   56.6550   28.1990   44.0490 H   0  0  0  0  0  0  0  0  0  0  0  0
   58.8722   32.0280   43.2427 H   0  0  0  0  0  0  0  0  0  0  0  0
   57.5230   32.6336   42.2306 H   0  0  0  0  0  0  0  0  0  0  0  0
   56.9367   32.7798   47.1431 H   0  0  0  0  0  0  0  0  0  0  0  0
   58.3567   32.5389   49.1697 H   0  0  0  0  0  0  0  0  0  0  0  0
   60.7985   33.0131   48.9536 H   0  0  0  0  0  0  0  0  0  0  0  0
   60.3490   33.9388   44.7691 H   0  0  0  0  0  0  0  0  0  0  0  0
  1  2  1  0
  2  3  1  0
  3  4  2  0
  4  5  1  0
  4  6  1  0
  6  7  1  0
  7  8  2  3
  8  9  1  0
  9 10  2  0
  9 11  1  0
 11 12  1  0
 12 13  1  0
 13 14  2  0
 14 15  1  0
 15 16  2  0
 16 17  1  0
 17 18  1  0
 17 19  2  0
  7 20  1  0
 20  2  2  0
 19 13  1  0
  1 21  1  0
  1 22  1  0
  1 23  1  0
  3 24  1  0
  5 25  1  0
  5 26  1  0
  5 27  1  0
  6 28  1  0
 11 29  1  0
 11 30  1  0
 14 31  1  0
 15 32  1  0
 16 33  1  0
 19 34  1  0
M  END
>  <smiles>  (19) 
Cc1cc(C)[nH]c(=NC(=O)CSc2cccc(Cl)c2)n1

>  <score_type>  (19) 
oracle

>  <origin>  (19) 
adg

>  <m_score__min__energy>  (19) 
-7.6399999999999997

>  <m_primary>  (19) 
energy

$$$$
19:0
     RDKit          3D

 44 46  0  0  0  0  0  0  0  0999 V2000
   54.6490   29.3380   45.2480 H   0  0  0  0  0  0  0  0  0  0  0  0
   55.5230   28.7790   45.1230 N   0  0  0  0  0  0  0  0  0  0  0  0
   56.7480   29.8730   44.5860 S   0  0  0  0  0  0  0  0  0  0  0  0
   56.1640   31.2500   44.4380 O   0  0  0  0  0  0  0  0  0  0  0  0
   57.2670   29.4240   43.2500 O   0  0  0  0  0  0  0  0  0  0  0  0
   58.0600   29.9080   45.7600 C   0  0  0  0  0  0  0  0  0  0  0  0
   58.5730   31.1290   46.2110 C   0  0  0  0  0  0  0  0  0  0  0  0
   58.1481   32.0731   45.8392 H   0  0  0  0  0  0  0  0  0  0  0  0
   59.6220   31.1530   47.1310 C   0  0  0  0  0  0  0  0  0  0  0  0
   60.0225   32.1176   47.4763 H   0  0  0  0  0  0  0  0  0  0  0  0
   60.1710   29.9560   47.6200 C   0  0  0  0  0  0  0  0  0  0  0  0
   61.2690   29.9780   48.5490 N   0  0  0  0  0  0  0  0  0  0  0  0
   62.2390   29.8780   48.1730 H   0  0  0  0  0  0  0  0  0  0  0  0
   61.1050   30.0020   49.9750 C   0  0  0  0  0  0  0  0  0  0  0  0
   59.9660   29.8550   50.4950 O   0  0  0  0  0  0  0  0  0  0  0  0
   62.3050   30.1330   50.8630 C   0  0  0  0  0  0  0  0  0  0  0  0
   61.9769   30.4090   51.8760 H   0  0  0  0  0  0  0  0  0  0  0  0
   62.8372   29.1705   50.8847 H   0  0  0  0  0  0  0  0  0  0  0  0
   63.4360   31.4170   50.2280 S   0  0  0  0  0  0  0  0  0  0  0  0
   62.1330   32.5650   49.7980 C   0  0  0  0  0  0  0  0  0  0  0  0
   61.1660   32.9560   50.6570 N   0  0  0  0  0  0  0  0  0  0  0  0
   60.3020   33.8140   50.1200 N   0  0  0  0  0  0  0  0  0  0  0  0
   60.5840   34.1190   48.8360 C   0  0  0  0  0  0  0  0  0  0  0  0
   59.8270   34.9060   48.1300 N   0  0  0  0  0  0  0  0  0  0  0  0
   59.1420   34.5680   46.9140 C   0  0  0  0  0  0  0  0  0  0  0  0
   59.8650   34.5470   45.7130 C   0  0  0  0  0  0  0  0  0  0  0  0
   60.9313   34.8173   45.7112 H   0  0  0  0  0  0  0  0  0  0  0  0
   59.2370   34.1840   44.5170 C   0  0  0  0  0  0  0  0  0  0  0  0
   59.8055   34.1866   43.5753 H   0  0  0  0  0  0  0  0  0  0  0  0
   57.8880   33.8180   44.5170 C   0  0  0  0  0  0  0  0  0  0  0  0
   57.3926   33.5427   43.5743 H   0  0  0  0  0  0  0  0  0  0  0  0
   57.1690   33.8020   45.7150 C   0  0  0  0  0  0  0  0  0  0  0  0
   56.1102   33.5036   45.7163 H   0  0  0  0  0  0  0  0  0  0  0  0
   57.7940   34.1650   46.9130 C   0  0  0  0  0  0  0  0  0  0  0  0
   57.2298   34.1352   47.8568 H   0  0  0  0  0  0  0  0  0  0  0  0
   61.9550   33.2900   48.2900 S   0  0  0  0  0  0  0  0  0  0  0  0
   59.6750   28.7230   47.1530 C   0  0  0  0  0  0  0  0  0  0  0  0
   60.2510   27.5370   47.6400 O   0  0  0  0  0  0  0  0  0  0  0  0
   60.7370   26.4790   46.8200 C   0  0  0  0  0  0  0  0  0  0  0  0
   61.1114   25.6639   47.4568 H   0  0  0  0  0  0  0  0  0  0  0  0
   59.9213   26.1030   46.1849 H   0  0  0  0  0  0  0  0  0  0  0  0
   61.5537   26.8528   46.1849 H   0  0  0  0  0  0  0  0  0  0  0  0
   58.6170   28.7090   46.2230 C   0  0  0  0  0  0  0  0  0  0  0  0
   58.2250   27.7485   45.8573 H   0  0  0  0  0  0  0  0  0  0  0  0
  1  2  1  0
  2  3  1  0
  3  4  2  0
  3  5  2  0
  3  6  1  0
  6  7  2  0
  7  8  1  0
  7  9  1  0
  9 10  1  0
  9 11  2  0
 11 12  1  0
 12 13  1  0
 12 14  1  0
 14 15  2  0
 14 16  1  0
 16 17  1  0
 16 18  1  0
 16 19  1  0
 19 20  1  0
 20 21  2  0
 21 22  1  0
 22 23  1  0
 23 24  2  0
 24 25  1  0
 25 26  2  0
 26 27  1  0
 26 28  1  0
 28 29  1  0
 28 30  2  0
 30 31  1  0
 30 32  1  0
 32 33  1  0
 32 34  2  0
 34 35  1  0
 23 36  1  0
 11 37  1  0
 37 38  1  0
 38 39  1  0
 39 40  1  0
 39 41  1  0
 39 42  1  0
 37 43  2  0
 43 44  1  0
 43  6  1  0
 36 20  1  0
 34 25  1  0
M  CHG  2   2  -1  22  -1
M  END
>  <UniqueID>  (20) 
16

>  <SMILES>  (20) 
COc1cc(S([NH-])(=O)=O)ccc1NC(=O)CSc1n[n-]/c(=N/c2ccccc2)s1

>  <Energy>  (20) 
86.03094107669973

>  <Genealogy>  (20) 
COc1cc(S([NH-])(=O)=O)ccc1NC(=O)CSc1n[n-]c(=Nc2ccccc2)s1 (protonated)
COc1cc(S([NH-])(=O)=O)ccc1NC(=O)CSc1n[n-]/c(=N/c2ccccc2)s1 (cis-trans isomerization)
COc1cc(S([NH-])(=O)=O)ccc1NC(=O)CSc1n[n-]/c(=N/c2ccccc2)s1 (3D coordinates assigned)
COc1cc(S([NH-])(=O)=O)ccc1NC(=O)CSc1n[n-]/c(=N/c2ccccc2)s1 (optimized conformer: 86.03094107669973 kcal/mol)

>  <smiles>  (20) 
COc1cc(S(N)(=O)=O)ccc1NC(=O)CSc1n[nH]c(=Nc2ccccc2)s1

>  <score_type>  (20) 
oracle

>  <origin>  (20) 
adg

>  <m_score__min__energy>  (20) 
-11.56

>  <m_primary>  (20) 
energy

$$$$
20:0
     RDKit          3D

 53 56  0  0  0  0  0  0  0  0999 V2000
   57.3550   20.6450   46.2890 C   0  0  0  0  0  0  0  0  0  0  0  0
   57.4070   22.0040   46.7130 O   0  0  0  0  0  0  0  0  0  0  0  0
   57.4760   23.1030   45.8430 C   0  0  0  0  0  0  0  0  0  0  0  0
   56.9160   23.0800   44.5510 C   0  0  0  0  0  0  0  0  0  0  0  0
   57.0140   24.2000   43.7210 C   0  0  0  0  0  0  0  0  0  0  0  0
   57.6730   25.3560   44.1650 C   0  0  0  0  0  0  0  0  0  0  0  0
   57.7660   26.5730   43.2840 C   0  0  0  0  0  0  0  0  0  0  0  0
   58.2130   27.7270   44.0610 N   0  0  0  0  0  0  0  0  0  0  0  0
   57.3500   28.4150   44.9790 C   0  0  0  0  0  0  0  0  0  0  0  0
   56.2190   27.9330   45.2590 O   0  0  0  0  0  0  0  0  0  0  0  0
   57.7740   29.6630   45.6380 C   0  0  0  0  0  0  0  0  0  0  0  0
   57.3390   30.8820   45.2370 N   0  0  0  0  0  0  0  0  0  0  0  0
   57.9350   31.7740   46.0100 N   0  0  0  0  0  0  0  0  0  0  0  0
   57.7870   33.1210   45.9420 C   0  0  0  0  0  0  0  0  0  0  0  0
   58.5210   33.9170   46.8330 C   0  0  0  0  0  0  0  0  0  0  0  0
   59.3930   33.3070   47.7650 C   0  0  0  0  0  0  0  0  0  0  0  0
   60.1790   34.1580   48.7270 C   0  0  0  0  0  0  0  0  0  0  0  0
   61.4620   34.5800   48.1200 N   0  0  0  0  0  0  0  0  0  0  0  0
   61.6890   33.8990   46.8370 C   0  0  0  0  0  0  0  0  0  0  0  0
   62.5250   32.6510   47.1000 C   0  0  0  0  0  0  0  0  0  0  0  0
   63.0530   32.8030   48.5210 C   0  0  1  0  0  0  0  0  0  0  0  0
   64.5100   32.6730   48.5690 N   0  0  0  0  0  0  0  0  0  0  0  0
   62.6090   34.1960   48.9550 C   0  0  0  0  0  0  0  0  0  0  0  0
   59.5130   31.9010   47.7920 C   0  0  0  0  0  0  0  0  0  0  0  0
   58.7480   31.1680   46.8870 C   0  0  0  0  0  0  0  0  0  0  0  0
   58.6820   29.8060   46.6900 C   0  0  0  0  0  0  0  0  0  0  0  0
   59.6640   28.5850   47.4850 Cl  0  0  0  0  0  0  0  0  0  0  0  0
   58.2250   25.3810   45.4550 C   0  0  0  0  0  0  0  0  0  0  0  0
   58.1270   24.2600   46.2850 C   0  0  0  0  0  0  0  0  0  0  0  0
   57.3298   19.9868   47.1700 H   0  0  0  0  0  0  0  0  0  0  0  0
   56.4500   20.4838   45.6848 H   0  0  0  0  0  0  0  0  0  0  0  0
   58.2450   20.4151   45.6848 H   0  0  0  0  0  0  0  0  0  0  0  0
   56.3994   22.1769   44.1938 H   0  0  0  0  0  0  0  0  0  0  0  0
   56.5720   24.1750   42.7140 H   0  0  0  0  0  0  0  0  0  0  0  0
   58.4845   26.3806   42.4736 H   0  0  0  0  0  0  0  0  0  0  0  0
   56.7726   26.7874   42.8630 H   0  0  0  0  0  0  0  0  0  0  0  0
   59.2220   27.9890   44.0060 H   0  0  0  0  0  0  0  0  0  0  0  0
   57.1082   33.5772   45.2064 H   0  0  0  0  0  0  0  0  0  0  0  0
   58.4191   35.0120   46.8073 H   0  0  0  0  0  0  0  0  0  0  0  0
   59.5900   35.0505   48.9848 H   0  0  0  0  0  0  0  0  0  0  0  0
   60.3910   33.5683   49.6311 H   0  0  0  0  0  0  0  0  0  0  0  0
   60.7246   33.6138   46.3913 H   0  0  0  0  0  0  0  0  0  0  0  0
   62.2149   34.5681   46.1401 H   0  0  0  0  0  0  0  0  0  0  0  0
   61.9031   31.7476   47.0161 H   0  0  0  0  0  0  0  0  0  0  0  0
   63.3424   32.5478   46.3711 H   0  0  0  0  0  0  0  0  0  0  0  0
   62.6656   32.0182   49.1873 H   0  0  0  0  0  0  0  0  0  0  0  0
   64.7450   31.6550   48.5320 H   0  0  0  0  0  0  0  0  0  0  0  0
   64.9000   33.0930   47.6940 H   0  0  0  0  0  0  0  0  0  0  0  0
   62.3131   34.1818   50.0144 H   0  0  0  0  0  0  0  0  0  0  0  0
   63.4311   34.9170   48.8354 H   0  0  0  0  0  0  0  0  0  0  0  0
   60.1872   31.4011   48.5030 H   0  0  0  0  0  0  0  0  0  0  0  0
   58.7367   26.2859   45.8146 H   0  0  0  0  0  0  0  0  0  0  0  0
   58.5652   24.2879   47.2936 H   0  0  0  0  0  0  0  0  0  0  0  0
  1  2  1  0
  2  3  1  0
  3  4  2  0
  4  5  1  0
  5  6  2  0
  6  7  1  0
  7  8  1  0
  8  9  1  0
  9 10  2  0
  9 11  1  0
 11 12  2  0
 12 13  1  0
 13 14  1  0
 14 15  2  0
 15 16  1  0
 16 17  1  0
 17 18  1  0
 18 19  1  0
 19 20  1  0
 20 21  1  0
 21 22  1  0
 21 23  1  0
 16 24  2  0
 24 25  1  0
 25 26  2  0
 26 27  1  0
  6 28  1  0
 28 29  2  0
 29  3  1  0
 26 11  1  0
 25 13  1  0
 23 18  1  0
  1 30  1  0
  1 31  1  0
  1 32  1  0
  4 33  1  0
  5 34  1  0
  7 35  1  0
  7 36  1  0
  8 37  1  0
 14 38  1  0
 15 39  1  0
 17 40  1  0
 17 41  1  0
 19 42  1  0
 19 43  1  0
 20 44  1  0
 20 45  1  0
 21 46  1  1
 22 47  1  0
 22 48  1  0
 23 49  1  0
 23 50  1  0
 24 51  1  0
 28 52  1  0
 29 53  1  0
M  END
>  <UniqueID>  (21) 
17

>  <SMILES>  (21) 
COc1ccc(CNC(=O)c2nn3ccc(CN4CC[C@@H](N)C4)cc3c2Cl)cc1

>  <Energy>  (21) 
93.69456025544697

>  <Genealogy>  (21) 
COc1ccc(CNC(=O)c2nn3ccc(CN4CC[C@@H](N)C4)cc3c2Cl)cc1 (chirality)
COc1ccc(CNC(=O)c2nn3ccc(CN4CC[C@@H](N)C4)cc3c2Cl)cc1 (3D coordinates assigned)
COc1ccc(CNC(=O)c2nn3ccc(CN4CC[C@@H](N)C4)cc3c2Cl)cc1 (nonaromatic ring conformer: 93.69456025544697 kcal/mol)

>  <smiles>  (21) 
COc1ccc(CNC(=O)c2nn3ccc(CN4CCC(N)C4)cc3c2Cl)cc1

>  <score_type>  (21) 
oracle

>  <origin>  (21) 
adg

>  <m_score__min__energy>  (21) 
-8.6600000000000001

>  <m_primary>  (21) 
energy

$$$$
21:0
     RDKit          3D

 49 52  0  0  0  0  0  0  0  0999 V2000
   55.6130   29.5090   42.0200 H   0  0  0  0  0  0  0  0  0  0  0  0
   56.5270   29.6050   42.5150 N   0  0  0  0  0  0  0  0  0  0  0  0
   56.7700   30.6180   43.2800 C   0  0  0  0  0  0  0  0  0  0  0  0
   56.2410   30.7610   44.5150 N   0  0  0  0  0  0  0  0  0  0  0  0
   56.6390   31.8800   45.1160 N   0  0  0  0  0  0  0  0  0  0  0  0
   57.4790   32.6190   44.3590 C   0  0  0  0  0  0  0  0  0  0  0  0
   58.1970   34.1630   44.9020 S   0  0  0  0  0  0  0  0  0  0  0  0
   59.0600   33.3790   46.2620 C   0  0  0  0  0  0  0  0  0  0  0  0
   59.6120   34.1590   47.2830 C   0  0  0  0  0  0  0  0  0  0  0  0
   59.5168   35.2544   47.2511 H   0  0  0  0  0  0  0  0  0  0  0  0
   60.2840   33.5470   48.3430 C   0  0  0  0  0  0  0  0  0  0  0  0
   60.7131   34.1615   49.1481 H   0  0  0  0  0  0  0  0  0  0  0  0
   60.4130   32.1560   48.3840 C   0  0  0  0  0  0  0  0  0  0  0  0
   60.9403   31.6807   49.2242 H   0  0  0  0  0  0  0  0  0  0  0  0
   59.8730   31.3600   47.3580 C   0  0  0  0  0  0  0  0  0  0  0  0
   60.0230   29.8850   47.3980 C   0  0  0  0  0  0  0  0  0  0  0  0
   60.2730   29.3150   48.4950 O   0  0  0  0  0  0  0  0  0  0  0  0
   59.9440   29.1080   46.1920 N   0  0  0  0  0  0  0  0  0  0  0  0
   60.2060   29.5730   45.2930 H   0  0  0  0  0  0  0  0  0  0  0  0
   59.6630   27.6970   46.1580 C   0  0  0  0  0  0  0  0  0  0  0  0
   60.6970   26.7420   46.1460 C   0  0  0  0  0  0  0  0  0  0  0  0
   61.7466   27.0710   46.1366 H   0  0  0  0  0  0  0  0  0  0  0  0
   60.3950   25.3770   46.1460 C   0  0  0  0  0  0  0  0  0  0  0  0
   61.2072   24.6355   46.1231 H   0  0  0  0  0  0  0  0  0  0  0  0
   59.0640   24.9520   46.1750 C   0  0  0  0  0  0  0  0  0  0  0  0
   58.8304   23.8771   46.1687 H   0  0  0  0  0  0  0  0  0  0  0  0
   58.0280   25.8920   46.2120 C   0  0  0  0  0  0  0  0  0  0  0  0
   56.3440   25.3770   46.2770 S   0  0  0  0  0  0  0  0  0  0  0  0
   55.4360   26.5440   45.9970 O   0  0  0  0  0  0  0  0  0  0  0  0
   56.0580   24.8540   47.6560 O   0  0  0  0  0  0  0  0  0  0  0  0
   56.0720   24.1180   45.0990 N   0  0  0  0  0  0  0  0  0  0  0  0
   56.5270   22.8210   45.6310 C   0  0  0  0  0  0  0  0  0  0  0  0
   57.5442   22.9334   46.0342 H   0  0  0  0  0  0  0  0  0  0  0  0
   55.8340   22.5023   46.4236 H   0  0  0  0  0  0  0  0  0  0  0  0
   56.5380   21.7480   44.5230 C   0  0  0  0  0  0  0  0  0  0  0  0
   57.5802   21.5094   44.2644 H   0  0  0  0  0  0  0  0  0  0  0  0
   56.0180   20.8539   44.8974 H   0  0  0  0  0  0  0  0  0  0  0  0
   55.8680   22.2050   43.3650 O   0  0  0  0  0  0  0  0  0  0  0  0
   56.5650   23.3100   42.8160 C   0  0  0  0  0  0  0  0  0  0  0  0
   57.5451   22.9662   42.4536 H   0  0  0  0  0  0  0  0  0  0  0  0
   55.9566   23.7198   41.9963 H   0  0  0  0  0  0  0  0  0  0  0  0
   56.7840   24.4340   43.8520 C   0  0  0  0  0  0  0  0  0  0  0  0
   57.8595   24.5309   44.0617 H   0  0  0  0  0  0  0  0  0  0  0  0
   56.3952   25.3791   43.4452 H   0  0  0  0  0  0  0  0  0  0  0  0
   58.3310   27.2600   46.2020 C   0  0  0  0  0  0  0  0  0  0  0  0
   57.5162   27.9985   46.2289 H   0  0  0  0  0  0  0  0  0  0  0  0
   59.1820   31.9850   46.3030 C   0  0  0  0  0  0  0  0  0  0  0  0
   58.7347   31.3739   45.5052 H   0  0  0  0  0  0  0  0  0  0  0  0
   57.7780   31.8980   42.8630 S   0  0  0  0  0  0  0  0  0  0  0  0
  1  2  1  0
  2  3  2  0
  3  4  1  0
  4  5  1  0
  5  6  2  0
  6  7  1  0
  7  8  1  0
  8  9  2  0
  9 10  1  0
  9 11  1  0
 11 12  1  0
 11 13  2  0
 13 14  1  0
 13 15  1  0
 15 16  1  0
 16 17  2  0
 16 18  1  0
 18 19  1  0
 18 20  1  0
 20 21  2  0
 21 22  1  0
 21 23  1  0
 23 24  1  0
 23 25  2  0
 25 26  1  0
 25 27  1  0
 27 28  1  0
 28 29  2  0
 28 30  2  0
 28 31  1  0
 31 32  1  0
 32 33  1  0
 32 34  1  0
 32 35  1  0
 35 36  1  0
 35 37  1  0
 35 38  1  0
 38 39  1  0
 39 40  1  0
 39 41  1  0
 39 42  1  0
 42 43  1  0
 42 44  1  0
 27 45  2  0
 45 46  1  0
 15 47  2  0
 47 48  1  0
  6 49  1  0
 49  3  1  0
 47  8  1  0
 45 20  1  0
 42 31  1  0
M  CHG  1   4  -1
M  END
>  <UniqueID>  (22) 
18

>  <SMILES>  (22) 
[H]/N=c1\[n-]nc(Sc2cccc(C(=O)Nc3cccc(S(=O)(=O)N4CCOCC4)c3)c2)s1

>  <Energy>  (22) 
95.11234329945736

>  <Genealogy>  (22) 
N=c1[n-]nc(Sc2cccc(C(=O)Nc3cccc(S(=O)(=O)N4CCOCC4)c3)c2)s1 (protonated)
[H]/N=c1\[n-]nc(Sc2cccc(C(=O)Nc3cccc(S(=O)(=O)N4CCOCC4)c3)c2)s1 (cis-trans isomerization)
[H]/N=c1\[n-]nc(Sc2cccc(C(=O)Nc3cccc(S(=O)(=O)N4CCOCC4)c3)c2)s1 (3D coordinates assigned)
[H]/N=c1\[n-]nc(Sc2cccc(C(=O)Nc3cccc(S(=O)(=O)N4CCOCC4)c3)c2)s1 (nonaromatic ring conformer: 95.11234329945736 kcal/mol)

>  <smiles>  (22) 
N=c1[nH]nc(Sc2cccc(C(=O)Nc3cccc(S(=O)(=O)N4CCOCC4)c3)c2)s1

>  <score_type>  (22) 
oracle

>  <origin>  (22) 
adg

>  <m_score__min__energy>  (22) 
-12.75

>  <m_primary>  (22) 
energy

$$$$
22:0
     RDKit          3D

 38 39  0  0  0  0  0  0  0  0999 V2000
   59.4970   29.2320   45.4310 O   0  0  0  0  0  0  0  0  0  0  0  0
   58.5620   28.4610   45.7740 C   0  0  0  0  0  0  0  0  0  0  0  0
   58.8780   27.0970   46.2970 C   0  0  0  0  0  0  0  0  0  0  0  0
   57.7010   26.5180   46.9710 N   0  0  0  0  0  0  0  0  0  0  0  0
   57.1080   25.3930   46.2190 C   0  0  2  0  0  0  0  0  0  0  0  0
   57.7880   25.2270   44.8390 C   0  0  0  0  0  0  0  0  0  0  0  0
   57.5550   23.8940   44.2450 N   0  0  0  0  0  0  0  0  0  0  0  0
   56.5470   23.7480   43.3280 C   0  0  0  0  0  0  0  0  0  0  0  0
   56.3000   22.5130   42.7270 C   0  0  0  0  0  0  0  0  0  0  0  0
   57.0820   21.4150   43.0730 C   0  0  0  0  0  0  0  0  0  0  0  0
   58.0950   21.5600   44.0170 C   0  0  0  0  0  0  0  0  0  0  0  0
   58.3190   22.8090   44.6050 C   0  0  0  0  0  0  0  0  0  0  0  0
   59.2260   22.9180   45.4750 O   0  0  0  0  0  0  0  0  0  0  0  0
   55.6210   25.5680   46.0560 C   0  0  0  0  0  0  0  0  0  0  0  0
   55.1250   26.7230   45.9900 O   0  0  0  0  0  0  0  0  0  0  0  0
   54.7800   24.4610   46.0210 O   0  0  0  0  0  0  0  0  0  0  0  0
   57.2000   28.8780   45.6570 N   0  0  0  0  0  0  0  0  0  0  0  0
   56.6710   29.9860   44.4370 S   0  0  0  0  0  0  0  0  0  0  0  0
   55.1880   30.1870   44.5550 O   0  0  0  0  0  0  0  0  0  0  0  0
   56.9850   29.4160   43.0830 O   0  0  0  0  0  0  0  0  0  0  0  0
   57.4790   31.5270   44.6470 C   0  0  0  0  0  0  0  0  0  0  0  0
   57.8760   32.3830   43.6290 C   0  0  0  0  0  0  0  0  0  0  0  0
   58.5070   33.5390   44.1030 C   0  0  0  0  0  0  0  0  0  0  0  0
   58.6000   33.5800   45.4870 C   0  0  0  0  0  0  0  0  0  0  0  0
   59.3260   34.8690   46.4220 Cl  0  0  0  0  0  0  0  0  0  0  0  0
   57.9060   32.1910   46.1320 S   0  0  0  0  0  0  0  0  0  0  0  0
   59.1720   26.4471   45.4596 H   0  0  0  0  0  0  0  0  0  0  0  0
   59.7011   27.1755   47.0224 H   0  0  0  0  0  0  0  0  0  0  0  0
   56.9850   27.2800   47.0110 H   0  0  0  0  0  0  0  0  0  0  0  0
   57.2822   24.4771   46.8028 H   0  0  0  0  0  0  0  0  0  0  0  0
   57.3890   25.9913   44.1559 H   0  0  0  0  0  0  0  0  0  0  0  0
   58.8721   25.3398   44.9871 H   0  0  0  0  0  0  0  0  0  0  0  0
   55.9247   24.6153   43.0624 H   0  0  0  0  0  0  0  0  0  0  0  0
   55.4939   22.4082   41.9859 H   0  0  0  0  0  0  0  0  0  0  0  0
   56.9006   20.4372   42.6029 H   0  0  0  0  0  0  0  0  0  0  0  0
   58.7159   20.6968   44.2989 H   0  0  0  0  0  0  0  0  0  0  0  0
   57.7119   32.1747   42.5614 H   0  0  0  0  0  0  0  0  0  0  0  0
   58.8900   34.3336   43.4458 H   0  0  0  0  0  0  0  0  0  0  0  0
  1  2  2  0
  2  3  1  0
  3  4  1  0
  4  5  1  0
  5  6  1  0
  6  7  1  0
  7  8  1  0
  8  9  2  0
  9 10  1  0
 10 11  2  0
 11 12  1  0
 12 13  2  0
  5 14  1  0
 14 15  2  0
 14 16  1  0
  2 17  1  0
 17 18  1  0
 18 19  2  0
 18 20  2  0
 18 21  1  0
 21 22  2  0
 22 23  1  0
 23 24  2  0
 24 25  1  0
 24 26  1  0
 12  7  1  0
 26 21  1  0
  3 27  1  0
  3 28  1  0
  4 29  1  0
  5 30  1  1
  6 31  1  0
  6 32  1  0
  8 33  1  0
  9 34  1  0
 10 35  1  0
 11 36  1  0
 22 37  1  0
 23 38  1  0
M  CHG  2  16  -1  17  -1
M  END
>  <UniqueID>  (23) 
19

>  <SMILES>  (23) 
O=C(CN[C@H](Cn1ccccc1=O)C(=O)[O-])[N-]S(=O)(=O)c1ccc(Cl)s1

>  <Energy>  (23) 
68.40771209443584

>  <Genealogy>  (23) 
O=C(CNC(Cn1ccccc1=O)C(=O)[O-])[N-]S(=O)(=O)c1ccc(Cl)s1 (protonated)
O=C(CN[C@H](Cn1ccccc1=O)C(=O)[O-])[N-]S(=O)(=O)c1ccc(Cl)s1 (chirality)
O=C(CN[C@H](Cn1ccccc1=O)C(=O)[O-])[N-]S(=O)(=O)c1ccc(Cl)s1 (3D coordinates assigned)
O=C(CN[C@H](Cn1ccccc1=O)C(=O)[O-])[N-]S(=O)(=O)c1ccc(Cl)s1 (optimized conformer: 68.40771209443584 kcal/mol)

>  <smiles>  (23) 
O=C(CNC(Cn1ccccc1=O)C(=O)O)NS(=O)(=O)c1ccc(Cl)s1

>  <score_type>  (23) 
oracle

>  <origin>  (23) 
adg

>  <m_score__min__energy>  (23) 
-12.93

>  <m_primary>  (23) 
energy

$$$$
23:0
     RDKit          3D

 74 79  0  0  0  0  0  0  0  0999 V2000
   67.3010   31.2800   52.8280 C   0  0  0  0  0  0  0  0  0  0  0  0
   67.6940   32.6780   52.5770 N   0  0  0  0  0  0  0  0  0  0  0  0
   68.2610   32.8530   51.2220 C   0  0  0  0  0  0  0  0  0  0  0  0
   67.1990   32.6530   50.1260 C   0  0  0  0  0  0  0  0  0  0  0  0
   65.9100   33.2140   50.5440 N   0  0  0  0  0  0  0  0  0  0  0  0
   64.6950   32.8070   49.8850 C   0  0  0  0  0  0  0  0  0  0  0  0
   64.2590   33.4650   48.7270 C   0  0  0  0  0  0  0  0  0  0  0  0
   63.0850   33.0640   48.0870 C   0  0  0  0  0  0  0  0  0  0  0  0
   62.3110   32.0160   48.6010 C   0  0  0  0  0  0  0  0  0  0  0  0
   62.7540   31.3340   49.7510 C   0  0  0  0  0  0  0  0  0  0  0  0
   63.9450   31.7280   50.3780 C   0  0  0  0  0  0  0  0  0  0  0  0
   62.0120   30.2370   50.2930 N   0  0  0  0  0  0  0  0  0  0  0  0
   60.6350   30.4230   50.6260 C   0  0  0  0  0  0  0  0  0  0  0  0
   60.2170   30.1660   51.9410 C   0  0  0  0  0  0  0  0  0  0  0  0
   58.8950   30.4240   52.3420 C   0  0  0  0  0  0  0  0  0  0  0  0
   58.4550   30.1750   53.7360 C   0  0  0  0  0  0  0  0  0  0  0  0
   58.8150   30.9670   54.6510 O   0  0  0  0  0  0  0  0  0  0  0  0
   57.6380   29.0430   54.0650 N   0  0  0  0  0  0  0  0  0  0  0  0
   57.0070   28.9120   55.3790 C   0  0  0  0  0  0  0  0  0  0  0  0
   55.7730   29.8150   55.5030 C   0  0  0  0  0  0  0  0  0  0  0  0
   54.9870   29.8520   54.2160 C   0  0  0  0  0  0  0  0  0  0  0  0
   55.3020   30.8000   53.2260 C   0  0  0  0  0  0  0  0  0  0  0  0
   54.6010   30.8150   52.0150 C   0  0  0  0  0  0  0  0  0  0  0  0
   53.5880   29.8800   51.7820 C   0  0  0  0  0  0  0  0  0  0  0  0
   53.2710   28.9310   52.7580 C   0  0  0  0  0  0  0  0  0  0  0  0
   53.9680   28.9150   53.9720 C   0  0  0  0  0  0  0  0  0  0  0  0
   57.9860   30.9160   51.3950 C   0  0  0  0  0  0  0  0  0  0  0  0
   58.3900   31.1480   50.0790 C   0  0  0  0  0  0  0  0  0  0  0  0
   59.7120   30.8890   49.6720 C   0  0  0  0  0  0  0  0  0  0  0  0
   60.0690   31.0340   48.2300 C   0  0  0  0  0  0  0  0  0  0  0  0
   59.0930   30.6260   47.1870 C   0  0  0  0  0  0  0  0  0  0  0  0
   58.5690   31.5740   46.2910 C   0  0  0  0  0  0  0  0  0  0  0  0
   57.6530   31.1930   45.3070 C   0  0  0  0  0  0  0  0  0  0  0  0
   57.2480   29.8520   45.1920 C   0  0  0  0  0  0  0  0  0  0  0  0
   56.2750   29.4450   44.1540 C   0  0  0  0  0  0  0  0  0  0  0  0
   55.1360   29.0130   44.4770 O   0  0  0  0  0  0  0  0  0  0  0  0
   56.6050   29.5330   42.8060 O   0  0  0  0  0  0  0  0  0  0  0  0
   57.7810   28.9020   46.0770 C   0  0  0  0  0  0  0  0  0  0  0  0
   58.6980   29.2830   47.0610 C   0  0  0  0  0  0  0  0  0  0  0  0
   61.1860   31.5750   47.8320 N   0  0  0  0  0  0  0  0  0  0  0  0
   65.8920   34.1960   51.6320 C   0  0  0  0  0  0  0  0  0  0  0  0
   66.5900   33.6260   52.8800 C   0  0  0  0  0  0  0  0  0  0  0  0
   67.2510   31.1022   53.9124 H   0  0  0  0  0  0  0  0  0  0  0  0
   66.3147   31.0902   52.3795 H   0  0  0  0  0  0  0  0  0  0  0  0
   68.0440   30.6041   52.3795 H   0  0  0  0  0  0  0  0  0  0  0  0
   68.6727   33.8695   51.1372 H   0  0  0  0  0  0  0  0  0  0  0  0
   69.0452   32.0948   51.0797 H   0  0  0  0  0  0  0  0  0  0  0  0
   67.5305   33.1565   49.2059 H   0  0  0  0  0  0  0  0  0  0  0  0
   67.0740   31.5748   49.9475 H   0  0  0  0  0  0  0  0  0  0  0  0
   64.8452   34.3022   48.3201 H   0  0  0  0  0  0  0  0  0  0  0  0
   62.7641   33.5770   47.1684 H   0  0  0  0  0  0  0  0  0  0  0  0
   64.2958   31.1844   51.2676 H   0  0  0  0  0  0  0  0  0  0  0  0
   62.5450   29.5170   50.8320 H   0  0  0  0  0  0  0  0  0  0  0  0
   60.9342   29.7569   52.6679 H   0  0  0  0  0  0  0  0  0  0  0  0
   57.5240   28.2760   53.3640 H   0  0  0  0  0  0  0  0  0  0  0  0
   56.7004   27.8658   55.5255 H   0  0  0  0  0  0  0  0  0  0  0  0
   57.7362   29.2173   56.1439 H   0  0  0  0  0  0  0  0  0  0  0  0
   55.1271   29.4302   56.3060 H   0  0  0  0  0  0  0  0  0  0  0  0
   56.1125   30.8361   55.7310 H   0  0  0  0  0  0  0  0  0  0  0  0
   56.1028   31.5327   53.4044 H   0  0  0  0  0  0  0  0  0  0  0  0
   54.8470   31.5624   51.2464 H   0  0  0  0  0  0  0  0  0  0  0  0
   53.0394   29.8912   50.8287 H   0  0  0  0  0  0  0  0  0  0  0  0
   52.4736   28.1965   52.5721 H   0  0  0  0  0  0  0  0  0  0  0  0
   53.7173   28.1663   54.7379 H   0  0  0  0  0  0  0  0  0  0  0  0
   56.9466   31.1208   51.6911 H   0  0  0  0  0  0  0  0  0  0  0  0
   57.6648   31.5387   49.3500 H   0  0  0  0  0  0  0  0  0  0  0  0
   58.8830   32.6256   46.3652 H   0  0  0  0  0  0  0  0  0  0  0  0
   57.2461   31.9476   44.6178 H   0  0  0  0  0  0  0  0  0  0  0  0
   57.4746   27.8487   45.9957 H   0  0  0  0  0  0  0  0  0  0  0  0
   59.1137   28.5258   47.7420 H   0  0  0  0  0  0  0  0  0  0  0  0
   66.4167   35.1066   51.3072 H   0  0  0  0  0  0  0  0  0  0  0  0
   64.8473   34.4314   51.8833 H   0  0  0  0  0  0  0  0  0  0  0  0
   67.0040   34.4653   53.4581 H   0  0  0  0  0  0  0  0  0  0  0  0
   65.8298   33.0602   53.4385 H   0  0  0  0  0  0  0  0  0  0  0  0
  1  2  1  0
  2  3  1  0
  3  4  1  0
  4  5  1  0
  5  6  1  0
  6  7  2  0
  7  8  1  0
  8  9  2  0
  9 10  1  0
 10 11  2  0
 10 12  1  0
 12 13  1  0
 13 14  2  0
 14 15  1  0
 15 16  1  0
 16 17  2  0
 16 18  1  0
 18 19  1  0
 19 20  1  0
 20 21  1  0
 21 22  2  0
 22 23  1  0
 23 24  2  0
 24 25  1  0
 25 26  2  0
 15 27  2  0
 27 28  1  0
 28 29  2  0
 29 30  1  0
 30 31  1  0
 31 32  2  0
 32 33  1  0
 33 34  2  0
 34 35  1  0
 35 36  2  0
 35 37  1  0
 34 38  1  0
 38 39  2  0
 30 40  2  0
  5 41  1  0
 41 42  1  0
 42  2  1  0
 11  6  1  0
 29 13  1  0
 39 31  1  0
 40  9  1  0
 26 21  1  0
  1 43  1  0
  1 44  1  0
  1 45  1  0
  3 46  1  0
  3 47  1  0
  4 48  1  0
  4 49  1  0
  7 50  1  0
  8 51  1  0
 11 52  1  0
 12 53  1  0
 14 54  1  0
 18 55  1  0
 19 56  1  0
 19 57  1  0
 20 58  1  0
 20 59  1  0
 22 60  1  0
 23 61  1  0
 24 62  1  0
 25 63  1  0
 26 64  1  0
 27 65  1  0
 28 66  1  0
 32 67  1  0
 33 68  1  0
 38 69  1  0
 39 70  1  0
 41 71  1  0
 41 72  1  0
 42 73  1  0
 42 74  1  0
M  CHG  1  37  -1
M  END
>  <UniqueID>  (24) 
20

>  <SMILES>  (24) 
CN1CCN(c2ccc3c(c2)Nc2cc(C(=O)NCCc4ccccc4)ccc2C(c2ccc(C(=O)[O-])cc2)=N3)CC1

>  <Energy>  (24) 
115.82360723936962

>  <Genealogy>  (24) 
CN1CCN(c2ccc3c(c2)Nc2cc(C(=O)NCCc4ccccc4)ccc2C(c2ccc(C(=O)[O-])cc2)=N3)CC1 (protonated)
CN1CCN(c2ccc3c(c2)Nc2cc(C(=O)NCCc4ccccc4)ccc2C(c2ccc(C(=O)[O-])cc2)=N3)CC1 (3D coordinates assigned)
CN1CCN(c2ccc3c(c2)Nc2cc(C(=O)NCCc4ccccc4)ccc2C(c2ccc(C(=O)[O-])cc2)=N3)CC1 (nonaromatic ring conformer: 115.82360723936962 kcal/mol)

>  <smiles>  (24) 
CN1CCN(c2ccc3c(c2)Nc2cc(C(=O)NCCc4ccccc4)ccc2C(c2ccc(C(=O)O)cc2)=N3)CC1

>  <score_type>  (24) 
oracle

>  <origin>  (24) 
adg

>  <m_score__min__energy>  (24) 
-11.039999999999999

>  <m_primary>  (24) 
energy

$$$$
24:0
     RDKit          3D

 32 33  0  0  0  0  0  0  0  0999 V2000
   56.2900   30.4790   43.6770 C   0  0  0  0  0  0  0  0  0  0  0  0
   56.2230   29.6940   44.8640 O   0  0  0  0  0  0  0  0  0  0  0  0
   57.0950   28.6370   45.1640 C   0  0  0  0  0  0  0  0  0  0  0  0
   56.6400   27.3950   45.6440 C   0  0  0  0  0  0  0  0  0  0  0  0
   57.5500   26.3720   45.9290 C   0  0  0  0  0  0  0  0  0  0  0  0
   58.9260   26.5730   45.7350 C   0  0  0  0  0  0  0  0  0  0  0  0
   59.9130   25.4860   46.0620 C   0  0  0  0  0  0  0  0  0  0  0  0
   59.2180   24.2250   46.2920 N   0  0  0  0  0  0  0  0  0  0  0  0
   59.3740   23.0690   45.4620 C   0  0  0  0  0  0  0  0  0  0  0  0
   60.4050   22.3500   45.5760 O   0  0  0  0  0  0  0  0  0  0  0  0
   58.3270   22.7170   44.4750 C   0  0  0  0  0  0  0  0  0  0  0  0
   57.3960   23.6830   44.0520 C   0  0  0  0  0  0  0  0  0  0  0  0
   56.4150   23.3350   43.1230 C   0  0  0  0  0  0  0  0  0  0  0  0
   56.3640   22.0360   42.6200 C   0  0  0  0  0  0  0  0  0  0  0  0
   57.3000   21.0980   43.0570 C   0  0  0  0  0  0  0  0  0  0  0  0
   58.2530   21.4500   43.9640 N   0  0  0  0  0  0  0  0  0  0  0  0
   59.3790   27.8130   45.2620 C   0  0  0  0  0  0  0  0  0  0  0  0
   58.4690   28.8350   44.9770 C   0  0  0  0  0  0  0  0  0  0  0  0
   56.3807   31.5420   43.9450 H   0  0  0  0  0  0  0  0  0  0  0  0
   57.1654   30.1742   43.0847 H   0  0  0  0  0  0  0  0  0  0  0  0
   55.3756   30.3269   43.0847 H   0  0  0  0  0  0  0  0  0  0  0  0
   55.5634   27.2279   45.7958 H   0  0  0  0  0  0  0  0  0  0  0  0
   57.1860   25.4052   46.3070 H   0  0  0  0  0  0  0  0  0  0  0  0
   60.6131   25.3667   45.2220 H   0  0  0  0  0  0  0  0  0  0  0  0
   60.4625   25.7636   46.9736 H   0  0  0  0  0  0  0  0  0  0  0  0
   57.4412   24.7069   44.4514 H   0  0  0  0  0  0  0  0  0  0  0  0
   55.6829   24.0846   42.7880 H   0  0  0  0  0  0  0  0  0  0  0  0
   55.5943   21.7535   41.8866 H   0  0  0  0  0  0  0  0  0  0  0  0
   57.2680   20.0699   42.6673 H   0  0  0  0  0  0  0  0  0  0  0  0
   58.9340   20.7170   44.2650 H   0  0  0  0  0  0  0  0  0  0  0  0
   60.4559   27.9822   45.1145 H   0  0  0  0  0  0  0  0  0  0  0  0
   58.8348   29.8026   44.6028 H   0  0  0  0  0  0  0  0  0  0  0  0
  1  2  1  0
  2  3  1  0
  3  4  2  0
  4  5  1  0
  5  6  2  0
  6  7  1  0
  7  8  1  0
  8  9  1  0
  9 10  2  0
  9 11  1  0
 11 12  2  0
 12 13  1  0
 13 14  2  0
 14 15  1  0
 15 16  2  0
  6 17  1  0
 17 18  2  0
 18  3  1  0
 16 11  1  0
  1 19  1  0
  1 20  1  0
  1 21  1  0
  4 22  1  0
  5 23  1  0
  7 24  1  0
  7 25  1  0
 12 26  1  0
 13 27  1  0
 14 28  1  0
 15 29  1  0
 16 30  1  0
 17 31  1  0
 18 32  1  0
M  CHG  2   8  -1  16   1
M  END
>  <UniqueID>  (25) 
21

>  <SMILES>  (25) 
COc1ccc(C[N-]C(=O)c2cccc[nH+]2)cc1

>  <Energy>  (25) 
30.162411650173702

>  <Genealogy>  (25) 
COc1ccc(C[N-]C(=O)c2cccc[nH+]2)cc1 (protonated)
COc1ccc(C[N-]C(=O)c2cccc[nH+]2)cc1 (3D coordinates assigned)
COc1ccc(C[N-]C(=O)c2cccc[nH+]2)cc1 (optimized conformer: 30.162411650173702 kcal/mol)

>  <smiles>  (25) 
COc1ccc(CNC(=O)c2ccccn2)cc1

>  <score_type>  (25) 
oracle

>  <origin>  (25) 
adg

>  <m_score__min__energy>  (25) 
-6.6500000000000004

>  <m_primary>  (25) 
energy

$$$$
25:0
     RDKit          3D

 37 39  0  0  0  0  0  0  0  0999 V2000
   55.1490   29.2220   44.8300 O   0  0  0  0  0  0  0  0  0  0  0  0
   56.3120   29.6950   44.9050 C   0  0  0  0  0  0  0  0  0  0  0  0
   57.3310   28.9600   45.5150 C   0  0  0  0  0  0  0  0  0  0  0  0
   58.6150   29.5150   45.5720 C   0  0  0  0  0  0  0  0  0  0  0  0
   59.7270   28.7770   46.2690 C   0  0  0  0  0  0  0  0  0  0  0  0
   60.4710   29.6650   47.2340 C   0  0  0  0  0  0  0  0  0  0  0  0
   60.3200   29.4870   48.6190 C   0  0  0  0  0  0  0  0  0  0  0  0
   61.0520   30.2750   49.5140 C   0  0  0  0  0  0  0  0  0  0  0  0
   61.9430   31.2400   49.0320 C   0  0  0  0  0  0  0  0  0  0  0  0
   62.1030   31.4180   47.6540 C   0  0  0  0  0  0  0  0  0  0  0  0
   61.3710   30.6330   46.7570 C   0  0  0  0  0  0  0  0  0  0  0  0
   58.8260   30.7590   45.0620 N   0  0  0  0  0  0  0  0  0  0  0  0
   57.8220   31.4600   44.4750 C   0  0  0  0  0  0  0  0  0  0  0  0
   58.1460   33.0870   43.8030 S   0  0  0  0  0  0  0  0  0  0  0  0
   57.3720   33.9840   45.1940 C   0  0  0  0  0  0  0  0  0  0  0  0
   58.1890   33.8380   46.4500 C   0  0  0  0  0  0  0  0  0  0  0  0
   57.8430   32.8690   47.4060 C   0  0  0  0  0  0  0  0  0  0  0  0
   58.5870   32.7440   48.5830 C   0  0  0  0  0  0  0  0  0  0  0  0
   59.6800   33.5830   48.8130 C   0  0  0  0  0  0  0  0  0  0  0  0
   60.0280   34.5540   47.8680 C   0  0  0  0  0  0  0  0  0  0  0  0
   59.2850   34.6840   46.6910 C   0  0  0  0  0  0  0  0  0  0  0  0
   56.5750   30.9260   44.3950 N   0  0  0  0  0  0  0  0  0  0  0  0
   57.1290   27.9664   45.9415 H   0  0  0  0  0  0  0  0  0  0  0  0
   59.2985   27.9291   46.8235 H   0  0  0  0  0  0  0  0  0  0  0  0
   60.4388   28.4312   45.5049 H   0  0  0  0  0  0  0  0  0  0  0  0
   59.6241   28.7257   49.0013 H   0  0  0  0  0  0  0  0  0  0  0  0
   60.9268   30.1356   50.5979 H   0  0  0  0  0  0  0  0  0  0  0  0
   62.5177   31.8588   49.7369 H   0  0  0  0  0  0  0  0  0  0  0  0
   62.8048   32.1757   47.2754 H   0  0  0  0  0  0  0  0  0  0  0  0
   61.5004   30.7740   45.6738 H   0  0  0  0  0  0  0  0  0  0  0  0
   57.2955   35.0507   44.9364 H   0  0  0  0  0  0  0  0  0  0  0  0
   56.3735   33.5589   45.3735 H   0  0  0  0  0  0  0  0  0  0  0  0
   56.9835   32.2060   47.2280 H   0  0  0  0  0  0  0  0  0  0  0  0
   58.3114   31.9840   49.3289 H   0  0  0  0  0  0  0  0  0  0  0  0
   60.2672   33.4801   49.7375 H   0  0  0  0  0  0  0  0  0  0  0  0
   60.8872   35.2159   48.0513 H   0  0  0  0  0  0  0  0  0  0  0  0
   59.5590   35.4507   45.9514 H   0  0  0  0  0  0  0  0  0  0  0  0
  1  2  2  0
  2  3  1  0
  3  4  2  0
  4  5  1  0
  5  6  1  0
  6  7  2  0
  7  8  1  0
  8  9  2  0
  9 10  1  0
 10 11  2  0
  4 12  1  0
 12 13  1  0
 13 14  1  0
 14 15  1  0
 15 16  1  0
 16 17  2  0
 17 18  1  0
 18 19  2  0
 19 20  1  0
 20 21  2  0
 13 22  2  0
 22  2  1  0
 11  6  1  0
 21 16  1  0
  3 23  1  0
  5 24  1  0
  5 25  1  0
  7 26  1  0
  8 27  1  0
  9 28  1  0
 10 29  1  0
 11 30  1  0
 15 31  1  0
 15 32  1  0
 17 33  1  0
 18 34  1  0
 19 35  1  0
 20 36  1  0
 21 37  1  0
M  CHG  1  12  -1
M  END
>  <UniqueID>  (26) 
22

>  <SMILES>  (26) 
O=c1cc(Cc2ccccc2)[n-]c(SCc2ccccc2)n1

>  <Energy>  (26) 
33.15371757752111

>  <Genealogy>  (26) 
O=c1cc(Cc2ccccc2)[n-]c(SCc2ccccc2)n1 (protonated)
O=c1cc(Cc2ccccc2)[n-]c(SCc2ccccc2)n1 (3D coordinates assigned)
O=c1cc(Cc2ccccc2)[n-]c(SCc2ccccc2)n1 (optimized conformer: 33.15371757752111 kcal/mol)

>  <smiles>  (26) 
O=c1cc(Cc2ccccc2)[nH]c(SCc2ccccc2)n1

>  <score_type>  (26) 
oracle

>  <origin>  (26) 
adg

>  <m_score__min__energy>  (26) 
-9.1899999999999995

>  <m_primary>  (26) 
energy

$$$$
26:0
     RDKit          3D

 35 37  0  0  0  0  0  0  0  0999 V2000
   55.2000   30.0880   45.6720 H   0  0  0  0  0  0  0  0  0  0  0  0
   55.6250   29.2990   45.2030 O   0  0  0  0  0  0  0  0  0  0  0  0
   57.0060   29.1060   45.1320 C   0  0  0  0  0  0  0  0  0  0  0  0
   57.5030   27.8150   45.3560 C   0  0  0  0  0  0  0  0  0  0  0  0
   56.8103   27.0025   45.6209 H   0  0  0  0  0  0  0  0  0  0  0  0
   58.8690   27.5510   45.2460 C   0  0  0  0  0  0  0  0  0  0  0  0
   59.2482   26.5336   45.4222 H   0  0  0  0  0  0  0  0  0  0  0  0
   59.7530   28.5760   44.9130 C   0  0  0  0  0  0  0  0  0  0  0  0
   60.8281   28.3641   44.8169 H   0  0  0  0  0  0  0  0  0  0  0  0
   59.2760   29.8720   44.7010 C   0  0  0  0  0  0  0  0  0  0  0  0
   59.9799   30.6764   44.4412 H   0  0  0  0  0  0  0  0  0  0  0  0
   57.9030   30.1570   44.8170 C   0  0  0  0  0  0  0  0  0  0  0  0
   57.4430   31.5520   44.6440 C   0  0  0  0  0  0  0  0  0  0  0  0
   56.2450   31.8460   44.9060 O   0  0  0  0  0  0  0  0  0  0  0  0
   58.3840   32.5990   44.1880 C   0  0  0  0  0  0  0  0  0  0  0  0
   58.9344   32.4463   43.2479 H   0  0  0  0  0  0  0  0  0  0  0  0
   58.5880   33.7270   44.8820 C   0  0  0  0  0  0  0  0  0  0  0  0
   58.0820   34.6430   44.5431 H   0  0  0  0  0  0  0  0  0  0  0  0
   59.4570   33.8110   46.0810 C   0  0  0  0  0  0  0  0  0  0  0  0
   58.8770   34.1820   47.3050 C   0  0  0  0  0  0  0  0  0  0  0  0
   57.7990   34.3955   47.3531 H   0  0  0  0  0  0  0  0  0  0  0  0
   59.6530   34.2830   48.4620 C   0  0  0  0  0  0  0  0  0  0  0  0
   59.1815   34.5657   49.4148 H   0  0  0  0  0  0  0  0  0  0  0  0
   61.0280   34.0260   48.4140 C   0  0  0  0  0  0  0  0  0  0  0  0
   61.8170   34.1260   49.5720 C   0  0  0  0  0  0  0  0  0  0  0  0
   61.3532   34.4022   50.5304 H   0  0  0  0  0  0  0  0  0  0  0  0
   63.1910   33.8750   49.5080 C   0  0  0  0  0  0  0  0  0  0  0  0
   63.8054   33.9535   50.4170 H   0  0  0  0  0  0  0  0  0  0  0  0
   63.7860   33.5250   48.2940 C   0  0  0  0  0  0  0  0  0  0  0  0
   64.8678   33.3304   48.2501 H   0  0  0  0  0  0  0  0  0  0  0  0
   63.0120   33.4210   47.1340 C   0  0  0  0  0  0  0  0  0  0  0  0
   63.4862   33.1451   46.1806 H   0  0  0  0  0  0  0  0  0  0  0  0
   61.6310   33.6680   47.1840 C   0  0  0  0  0  0  0  0  0  0  0  0
   60.8450   33.5690   46.0260 C   0  0  0  0  0  0  0  0  0  0  0  0
   61.3150   33.3007   45.0683 H   0  0  0  0  0  0  0  0  0  0  0  0
  1  2  1  0
  2  3  1  0
  3  4  2  0
  4  5  1  0
  4  6  1  0
  6  7  1  0
  6  8  2  0
  8  9  1  0
  8 10  1  0
 10 11  1  0
 10 12  2  0
 12 13  1  0
 13 14  2  0
 13 15  1  0
 15 16  1  0
 15 17  2  0
 17 18  1  0
 17 19  1  0
 19 20  2  0
 20 21  1  0
 20 22  1  0
 22 23  1  0
 22 24  2  0
 24 25  1  0
 25 26  1  0
 25 27  2  0
 27 28  1  0
 27 29  1  0
 29 30  1  0
 29 31  2  0
 31 32  1  0
 31 33  1  0
 33 34  2  0
 34 35  1  0
 12  3  1  0
 34 19  1  0
 33 24  1  0
M  END
>  <UniqueID>  (27) 
23

>  <SMILES>  (27) 
O=C(/C=C/c1ccc2ccccc2c1)c1ccccc1O

>  <Energy>  (27) 
48.94216079931571

>  <Genealogy>  (27) 
O=C(/C=C/c1ccc2ccccc2c1)c1ccccc1O (cis-trans isomerization)
O=C(/C=C/c1ccc2ccccc2c1)c1ccccc1O (3D coordinates assigned)
O=C(/C=C/c1ccc2ccccc2c1)c1ccccc1O (optimized conformer: 48.94216079931571 kcal/mol)

>  <smiles>  (27) 
O=C(C=Cc1ccc2ccccc2c1)c1ccccc1O

>  <score_type>  (27) 
oracle

>  <origin>  (27) 
adg

>  <m_score__min__energy>  (27) 
-9.9399999999999995

>  <m_primary>  (27) 
energy

$$$$
27:0
     RDKit          3D

 51 53  0  0  0  0  0  0  0  0999 V2000
   67.9500   26.7980   49.7630 C   0  0  0  0  0  0  0  0  0  0  0  0
   67.6540   27.9260   50.7530 C   0  0  0  0  0  0  0  0  0  0  0  0
   68.8200   28.1970   51.7230 C   0  0  0  0  0  0  0  0  0  0  0  0
   68.3770   28.4890   53.1670 C   0  0  0  0  0  0  0  0  0  0  0  0
   68.7930   29.8500   53.6330 C   0  0  0  0  0  0  0  0  0  0  0  0
   69.3030   29.9910   54.7790 O   0  0  0  0  0  0  0  0  0  0  0  0
   68.6590   30.9660   52.7450 N   0  0  0  0  0  0  0  0  0  0  0  0
   67.4600   31.4140   52.0970 C   0  0  0  0  0  0  0  0  0  0  0  0
   66.1840   31.1750   52.6350 C   0  0  0  0  0  0  0  0  0  0  0  0
   65.0390   31.5940   51.9500 C   0  0  0  0  0  0  0  0  0  0  0  0
   65.1470   32.2440   50.7080 C   0  0  0  0  0  0  0  0  0  0  0  0
   63.9420   32.6810   49.9640 C   0  0  0  0  0  0  0  0  0  0  0  0
   63.0320   33.3010   50.5790 O   0  0  0  0  0  0  0  0  0  0  0  0
   63.8280   32.4540   48.5480 N   0  0  0  0  0  0  0  0  0  0  0  0
   62.6200   32.6390   47.7960 C   0  0  0  0  0  0  0  0  0  0  0  0
   62.1270   33.8470   47.3550 C   0  0  0  0  0  0  0  0  0  0  0  0
   60.9920   33.6260   46.6660 N   0  0  0  0  0  0  0  0  0  0  0  0
   60.7630   32.3190   46.6470 N   0  0  0  0  0  0  0  0  0  0  0  0
   59.6190   31.7250   45.9940 C   0  0  0  0  0  0  0  0  0  0  0  0
   59.5260   30.3340   45.7900 C   0  0  0  0  0  0  0  0  0  0  0  0
   58.4020   29.7780   45.1670 C   0  0  0  0  0  0  0  0  0  0  0  0
   57.3450   30.5980   44.7330 C   0  0  0  0  0  0  0  0  0  0  0  0
   56.1530   30.0070   44.0840 C   0  0  0  0  0  0  0  0  0  0  0  0
   55.1500   29.3580   44.8640 N   0  0  0  0  0  0  0  0  0  0  0  0
   56.0120   30.0710   42.8350 O   0  0  0  0  0  0  0  0  0  0  0  0
   57.4400   31.9850   44.9300 C   0  0  0  0  0  0  0  0  0  0  0  0
   58.5620   32.5400   45.5520 C   0  0  0  0  0  0  0  0  0  0  0  0
   61.7460   31.6820   47.3240 C   0  0  0  0  0  0  0  0  0  0  0  0
   66.4270   32.4750   50.1730 C   0  0  0  0  0  0  0  0  0  0  0  0
   67.5690   32.0530   50.8570 C   0  0  0  0  0  0  0  0  0  0  0  0
   68.1913   25.8784   50.3163 H   0  0  0  0  0  0  0  0  0  0  0  0
   67.0670   26.6243   49.1304 H   0  0  0  0  0  0  0  0  0  0  0  0
   68.8045   27.0802   49.1304 H   0  0  0  0  0  0  0  0  0  0  0  0
   67.4492   28.8457   50.1854 H   0  0  0  0  0  0  0  0  0  0  0  0
   66.7889   27.6150   51.3571 H   0  0  0  0  0  0  0  0  0  0  0  0
   69.4738   27.3124   51.7338 H   0  0  0  0  0  0  0  0  0  0  0  0
   69.3340   29.0988   51.3590 H   0  0  0  0  0  0  0  0  0  0  0  0
   67.2806   28.4183   53.2202 H   0  0  0  0  0  0  0  0  0  0  0  0
   68.8635   27.7500   53.8206 H   0  0  0  0  0  0  0  0  0  0  0  0
   66.0853   30.6558   53.5997 H   0  0  0  0  0  0  0  0  0  0  0  0
   64.0456   31.4135   52.3866 H   0  0  0  0  0  0  0  0  0  0  0  0
   64.6880   32.2000   48.0100 H   0  0  0  0  0  0  0  0  0  0  0  0
   62.5853   34.8305   47.5360 H   0  0  0  0  0  0  0  0  0  0  0  0
   60.3441   29.6786   46.1233 H   0  0  0  0  0  0  0  0  0  0  0  0
   58.3452   28.6899   45.0156 H   0  0  0  0  0  0  0  0  0  0  0  0
   54.1610   29.3170   44.5420 H   0  0  0  0  0  0  0  0  0  0  0  0
   56.6241   32.6407   44.5918 H   0  0  0  0  0  0  0  0  0  0  0  0
   58.6188   33.6288   45.6976 H   0  0  0  0  0  0  0  0  0  0  0  0
   61.8327   30.5954   47.4716 H   0  0  0  0  0  0  0  0  0  0  0  0
   66.5294   32.9924   49.2077 H   0  0  0  0  0  0  0  0  0  0  0  0
   68.5626   32.2244   50.4173 H   0  0  0  0  0  0  0  0  0  0  0  0
  1  2  1  0
  2  3  1  0
  3  4  1  0
  4  5  1  0
  5  6  2  0
  5  7  1  0
  7  8  1  0
  8  9  2  0
  9 10  1  0
 10 11  2  0
 11 12  1  0
 12 13  2  0
 12 14  1  0
 14 15  1  0
 15 16  1  0
 16 17  2  0
 17 18  1  0
 18 19  1  0
 19 20  2  0
 20 21  1  0
 21 22  2  0
 22 23  1  0
 23 24  1  0
 23 25  2  0
 22 26  1  0
 26 27  2  0
 18 28  1  0
 11 29  1  0
 29 30  2  0
 30  8  1  0
 28 15  2  0
 27 19  1  0
  1 31  1  0
  1 32  1  0
  1 33  1  0
  2 34  1  0
  2 35  1  0
  3 36  1  0
  3 37  1  0
  4 38  1  0
  4 39  1  0
  9 40  1  0
 10 41  1  0
 14 42  1  0
 16 43  1  0
 20 44  1  0
 21 45  1  0
 24 46  1  0
 26 47  1  0
 27 48  1  0
 28 49  1  0
 29 50  1  0
 30 51  1  0
M  CHG  2   7  -1  24  -1
M  END
>  <UniqueID>  (28) 
24

>  <SMILES>  (28) 
CCCCC(=O)[N-]c1ccc(C(=O)Nc2cnn(-c3ccc(C([NH-])=O)cc3)c2)cc1

>  <Energy>  (28) 
89.18614722198814

>  <Genealogy>  (28) 
CCCCC(=O)[N-]c1ccc(C(=O)Nc2cnn(-c3ccc(C([NH-])=O)cc3)c2)cc1 (protonated)
CCCCC(=O)[N-]c1ccc(C(=O)Nc2cnn(-c3ccc(C([NH-])=O)cc3)c2)cc1 (3D coordinates assigned)
CCCCC(=O)[N-]c1ccc(C(=O)Nc2cnn(-c3ccc(C([NH-])=O)cc3)c2)cc1 (optimized conformer: 89.18614722198814 kcal/mol)

>  <smiles>  (28) 
CCCCC(=O)Nc1ccc(C(=O)Nc2cnn(-c3ccc(C(N)=O)cc3)c2)cc1

>  <score_type>  (28) 
oracle

>  <origin>  (28) 
adg

>  <m_score__min__energy>  (28) 
-10.449999999999999

>  <m_primary>  (28) 
energy

$$$$
28:0
     RDKit          3D

 42 46  0  0  0  0  0  0  0  0999 V2000
   63.3130   30.6700   50.7490 Cl  0  0  0  0  0  0  0  0  0  0  0  0
   62.5080   31.9840   49.9130 C   0  0  0  0  0  0  0  0  0  0  0  0
   62.7960   33.3280   50.2560 C   0  0  0  0  0  0  0  0  0  0  0  0
   62.1730   34.3610   49.6110 N   0  0  0  0  0  0  0  0  0  0  0  0
   61.2750   34.0830   48.6350 C   0  0  0  0  0  0  0  0  0  0  0  0
   60.5950   34.9610   47.9250 O   0  0  0  0  0  0  0  0  0  0  0  0
   59.8440   34.2580   47.1000 C   0  0  0  0  0  0  0  0  0  0  0  0
   58.9460   34.7400   46.1550 C   0  0  0  0  0  0  0  0  0  0  0  0
   58.2390   33.8050   45.3760 C   0  0  0  0  0  0  0  0  0  0  0  0
   58.4400   32.4070   45.5420 C   0  0  0  0  0  0  0  0  0  0  0  0
   57.6690   31.4510   44.7080 C   0  0  0  0  0  0  0  0  0  0  0  0
   57.3740   31.7170   43.3590 C   0  0  0  0  0  0  0  0  0  0  0  0
   56.6420   30.7880   42.6200 C   0  0  0  0  0  0  0  0  0  0  0  0
   56.2030   29.6070   43.2180 C   0  0  0  0  0  0  0  0  0  0  0  0
   56.4990   29.3690   44.5710 C   0  0  0  0  0  0  0  0  0  0  0  0
   56.0850   28.2070   45.2420 O   0  0  0  0  0  0  0  0  0  0  0  0
   56.9300   27.1050   45.5840 C   0  0  2  0  0  0  0  0  0  0  0  0
   57.4230   27.2260   47.0120 C   0  0  0  0  0  0  0  0  0  0  0  0
   58.7480   27.9710   46.9110 C   0  0  0  0  0  0  0  0  0  0  0  0
   59.1600   28.0030   45.5050 N   0  0  0  0  0  0  0  0  0  0  0  0
   58.2060   27.1770   44.7670 C   0  0  0  0  0  0  0  0  0  0  0  0
   57.2170   30.2920   45.2660 N   0  0  0  0  0  0  0  0  0  0  0  0
   59.3580   31.9500   46.5210 C   0  0  0  0  0  0  0  0  0  0  0  0
   60.0390   32.9040   47.2730 C   0  0  0  0  0  0  0  0  0  0  0  0
   60.9700   32.7920   48.2750 C   0  0  0  0  0  0  0  0  0  0  0  0
   61.5720   31.7060   48.8990 C   0  0  0  0  0  0  0  0  0  0  0  0
   63.5277   33.5430   51.0487 H   0  0  0  0  0  0  0  0  0  0  0  0
   58.7923   35.8208   46.0199 H   0  0  0  0  0  0  0  0  0  0  0  0
   57.5183   34.1619   44.6255 H   0  0  0  0  0  0  0  0  0  0  0  0
   57.7180   32.6508   42.8902 H   0  0  0  0  0  0  0  0  0  0  0  0
   56.4104   30.9872   41.5633 H   0  0  0  0  0  0  0  0  0  0  0  0
   55.6308   28.8692   42.6364 H   0  0  0  0  0  0  0  0  0  0  0  0
   56.3432   26.1898   45.4163 H   0  0  0  0  0  0  0  0  0  0  0  0
   56.7054   27.7947   47.6217 H   0  0  0  0  0  0  0  0  0  0  0  0
   57.5374   26.2438   47.4938 H   0  0  0  0  0  0  0  0  0  0  0  0
   58.6250   28.9983   47.2847 H   0  0  0  0  0  0  0  0  0  0  0  0
   59.5129   27.4614   47.5154 H   0  0  0  0  0  0  0  0  0  0  0  0
   59.0670   28.9870   45.1590 H   0  0  0  0  0  0  0  0  0  0  0  0
   57.9980   27.6301   43.7865 H   0  0  0  0  0  0  0  0  0  0  0  0
   58.6154   26.1694   44.6022 H   0  0  0  0  0  0  0  0  0  0  0  0
   59.5271   30.8750   46.6816 H   0  0  0  0  0  0  0  0  0  0  0  0
   61.3274   30.6725   48.6126 H   0  0  0  0  0  0  0  0  0  0  0  0
  1  2  1  0
  2  3  2  0
  3  4  1  0
  4  5  2  0
  5  6  1  0
  6  7  1  0
  7  8  2  0
  8  9  1  0
  9 10  2  0
 10 11  1  0
 11 12  2  0
 12 13  1  0
 13 14  2  0
 14 15  1  0
 15 16  1  0
 16 17  1  0
 17 18  1  0
 18 19  1  0
 19 20  1  0
 20 21  1  0
 15 22  2  0
 10 23  1  0
 23 24  2  0
 24 25  1  0
 25 26  2  0
 26  2  1  0
 25  5  1  0
 24  7  1  0
 22 11  1  0
 21 17  1  0
  3 27  1  0
  8 28  1  0
  9 29  1  0
 12 30  1  0
 13 31  1  0
 14 32  1  0
 17 33  1  1
 18 34  1  0
 18 35  1  0
 19 36  1  0
 19 37  1  0
 20 38  1  0
 21 39  1  0
 21 40  1  0
 23 41  1  0
 26 42  1  0
M  END
>  <UniqueID>  (29) 
25

>  <SMILES>  (29) 
Clc1cnc2oc3ccc(-c4cccc(O[C@@H]5CCNC5)n4)cc3c2c1

>  <Energy>  (29) 
96.38134910453813

>  <Genealogy>  (29) 
Clc1cnc2oc3ccc(-c4cccc(O[C@@H]5CCNC5)n4)cc3c2c1 (chirality)
Clc1cnc2oc3ccc(-c4cccc(O[C@@H]5CCNC5)n4)cc3c2c1 (3D coordinates assigned)
Clc1cnc2oc3ccc(-c4cccc(O[C@@H]5CCNC5)n4)cc3c2c1 (nonaromatic ring conformer: 96.38134910453813 kcal/mol)

>  <smiles>  (29) 
Clc1cnc2oc3ccc(-c4cccc(OC5CCNC5)n4)cc3c2c1

>  <score_type>  (29) 
oracle

>  <origin>  (29) 
adg

>  <m_score__min__energy>  (29) 
-9.1799999999999997

>  <m_primary>  (29) 
energy

$$$$
29:0
     RDKit          3D

 48 50  0  0  0  0  0  0  0  0999 V2000
   62.9670   33.9150   46.3530 C   0  0  0  0  0  0  0  0  0  0  0  0
   63.7640   33.0570   47.3310 C   0  0  0  0  0  0  0  0  0  0  0  0
   63.0190   32.9030   48.6350 C   0  0  0  0  0  0  0  0  0  0  0  0
   63.0850   33.8040   49.4600 O   0  0  0  0  0  0  0  0  0  0  0  0
   62.2490   31.7010   48.9180 N   0  0  0  0  0  0  0  0  0  0  0  0
   61.1040   32.0150   49.8080 C   0  0  0  0  0  0  0  0  0  0  0  0
   59.9220   32.6550   49.0590 C   0  0  0  0  0  0  0  0  0  0  0  0
   59.6510   31.9560   47.7970 N   0  0  0  0  0  0  0  0  0  0  0  0
   58.9910   32.6470   46.7230 C   0  0  0  0  0  0  0  0  0  0  0  0
   59.3120   33.9890   46.4700 C   0  0  0  0  0  0  0  0  0  0  0  0
   58.7630   34.6530   45.3700 C   0  0  0  0  0  0  0  0  0  0  0  0
   57.9040   33.9800   44.5030 C   0  0  0  0  0  0  0  0  0  0  0  0
   57.5870   32.6450   44.7410 C   0  0  0  0  0  0  0  0  0  0  0  0
   58.1030   31.9770   45.8590 C   0  0  0  0  0  0  0  0  0  0  0  0
   57.7610   30.6000   46.0560 N   0  0  0  0  0  0  0  0  0  0  0  0
   56.9950   29.7730   45.1650 C   0  0  0  0  0  0  0  0  0  0  0  0
   55.9460   30.2590   44.6590 O   0  0  0  0  0  0  0  0  0  0  0  0
   57.3650   28.3780   44.8180 C   0  0  0  0  0  0  0  0  0  0  0  0
   57.9450   27.8980   43.6430 C   0  0  0  0  0  0  0  0  0  0  0  0
   58.1450   26.5080   43.6380 C   0  0  0  0  0  0  0  0  0  0  0  0
   57.7290   25.8920   44.8060 C   0  0  0  0  0  0  0  0  0  0  0  0
   57.8610   24.4390   45.1180 C   0  0  0  0  0  0  0  0  0  0  0  0
   57.1340   27.0670   45.8520 S   0  0  0  0  0  0  0  0  0  0  0  0
   60.3790   30.7220   47.5080 C   0  0  0  0  0  0  0  0  0  0  0  0
   61.8870   30.9710   47.6640 C   0  0  0  0  0  0  0  0  0  0  0  0
   62.3230   34.6083   46.9140 H   0  0  0  0  0  0  0  0  0  0  0  0
   63.6597   34.4889   45.7200 H   0  0  0  0  0  0  0  0  0  0  0  0
   62.3436   33.2664   45.7200 H   0  0  0  0  0  0  0  0  0  0  0  0
   63.9277   32.0631   46.8890 H   0  0  0  0  0  0  0  0  0  0  0  0
   64.7273   33.5494   47.5299 H   0  0  0  0  0  0  0  0  0  0  0  0
   62.8680   31.0560   49.4700 H   0  0  0  0  0  0  0  0  0  0  0  0
   60.7584   31.0823   50.2777 H   0  0  0  0  0  0  0  0  0  0  0  0
   61.4554   32.7430   50.5540 H   0  0  0  0  0  0  0  0  0  0  0  0
   59.0259   32.6069   49.6952 H   0  0  0  0  0  0  0  0  0  0  0  0
   60.1799   33.6995   48.8298 H   0  0  0  0  0  0  0  0  0  0  0  0
   60.0005   34.5221   47.1421 H   0  0  0  0  0  0  0  0  0  0  0  0
   59.0094   35.7095   45.1878 H   0  0  0  0  0  0  0  0  0  0  0  0
   57.4778   34.5017   43.6334 H   0  0  0  0  0  0  0  0  0  0  0  0
   56.9250   32.1098   44.0443 H   0  0  0  0  0  0  0  0  0  0  0  0
   58.2199   28.5480   42.7992 H   0  0  0  0  0  0  0  0  0  0  0  0
   58.5878   25.9633   42.7911 H   0  0  0  0  0  0  0  0  0  0  0  0
   57.8738   24.2979   46.2088 H   0  0  0  0  0  0  0  0  0  0  0  0
   57.0088   23.8927   44.6876 H   0  0  0  0  0  0  0  0  0  0  0  0
   58.7977   24.0552   44.6876 H   0  0  0  0  0  0  0  0  0  0  0  0
   60.0623   29.9361   48.2095 H   0  0  0  0  0  0  0  0  0  0  0  0
   60.1641   30.4011   46.4780 H   0  0  0  0  0  0  0  0  0  0  0  0
   62.4011   29.9985   47.6675 H   0  0  0  0  0  0  0  0  0  0  0  0
   62.1969   31.6064   46.8212 H   0  0  0  0  0  0  0  0  0  0  0  0
  1  2  1  0
  2  3  1  0
  3  4  2  0
  3  5  1  0
  5  6  1  0
  6  7  1  0
  7  8  1  0
  8  9  1  0
  9 10  2  0
 10 11  1  0
 11 12  2  0
 12 13  1  0
 13 14  2  0
 14 15  1  0
 15 16  1  0
 16 17  2  0
 16 18  1  0
 18 19  2  0
 19 20  1  0
 20 21  2  0
 21 22  1  0
 21 23  1  0
  8 24  1  0
 24 25  1  0
 25  5  1  0
 14  9  1  0
 23 18  1  0
  1 26  1  0
  1 27  1  0
  1 28  1  0
  2 29  1  0
  2 30  1  0
  5 31  1  0
  6 32  1  0
  6 33  1  0
  7 34  1  0
  7 35  1  0
 10 36  1  0
 11 37  1  0
 12 38  1  0
 13 39  1  0
 19 40  1  0
 20 41  1  0
 22 42  1  0
 22 43  1  0
 22 44  1  0
 24 45  1  0
 24 46  1  0
 25 47  1  0
 25 48  1  0
M  CHG  2   5   1  15  -1
M  END
>  <UniqueID>  (30) 
26

>  <SMILES>  (30) 
CCC(=O)[NH+]1CCN(c2ccccc2[N-]C(=O)c2ccc(C)s2)CC1

>  <Energy>  (30) 
94.5746459557167

>  <Genealogy>  (30) 
CCC(=O)[NH+]1CCN(c2ccccc2[N-]C(=O)c2ccc(C)s2)CC1 (protonated)
CCC(=O)[NH+]1CCN(c2ccccc2[N-]C(=O)c2ccc(C)s2)CC1 (3D coordinates assigned)
CCC(=O)[NH+]1CCN(c2ccccc2[N-]C(=O)c2ccc(C)s2)CC1 (nonaromatic ring conformer: 94.5746459557167 kcal/mol)

>  <smiles>  (30) 
CCC(=O)N1CCN(c2ccccc2NC(=O)c2ccc(C)s2)CC1

>  <score_type>  (30) 
oracle

>  <origin>  (30) 
adg

>  <m_score__min__energy>  (30) 
-8.1699999999999999

>  <m_primary>  (30) 
energy

$$$$
30:0
     RDKit          3D

 45 46  0  0  0  0  0  0  0  0999 V2000
   59.5940   34.7690   47.1310 C   0  0  0  0  0  0  0  0  0  0  0  0
   59.1380   34.7440   45.6780 C   0  0  0  0  0  0  0  0  0  0  0  0
   57.5600   33.9240   45.4990 S   0  0  0  0  0  0  0  0  0  0  0  0
   56.5860   34.8840   44.8720 O   0  0  0  0  0  0  0  0  0  0  0  0
   57.0370   33.5370   46.8540 O   0  0  0  0  0  0  0  0  0  0  0  0
   57.6970   32.5070   44.5010 N   0  0  0  0  0  0  0  0  0  0  0  0
   57.9720   32.6700   43.0750 C   0  0  0  0  0  0  0  0  0  0  0  0
   57.9830   31.2500   45.1310 C   0  0  0  0  0  0  0  0  0  0  0  0
   59.0430   31.1580   46.0450 C   0  0  0  0  0  0  0  0  0  0  0  0
   59.2860   29.9650   46.7270 C   0  0  0  0  0  0  0  0  0  0  0  0
   58.4640   28.8560   46.5120 C   0  0  0  0  0  0  0  0  0  0  0  0
   57.3910   28.9330   45.6100 C   0  0  0  0  0  0  0  0  0  0  0  0
   56.5670   27.7860   45.3490 N   0  0  0  0  0  0  0  0  0  0  0  0
   56.5020   26.6420   46.2170 C   0  0  0  0  0  0  0  0  0  0  0  0
   57.3480   26.4880   47.1350 O   0  0  0  0  0  0  0  0  0  0  0  0
   55.4990   25.6360   46.0290 N   0  0  0  0  0  0  0  0  0  0  0  0
   55.6990   24.3640   45.3970 C   0  0  0  0  0  0  0  0  0  0  0  0
   55.2950   23.1640   46.0100 C   0  0  0  0  0  0  0  0  0  0  0  0
   55.5170   21.9390   45.3720 C   0  0  0  0  0  0  0  0  0  0  0  0
   56.1630   21.9010   44.1330 C   0  0  0  0  0  0  0  0  0  0  0  0
   56.5960   23.0880   43.5350 C   0  0  0  0  0  0  0  0  0  0  0  0
   56.3730   24.3150   44.1690 C   0  0  0  0  0  0  0  0  0  0  0  0
   57.1690   30.1240   44.8940 C   0  0  0  0  0  0  0  0  0  0  0  0
   56.1230   30.1760   43.9690 O   0  0  0  0  0  0  0  0  0  0  0  0
   56.2690   29.6900   42.6410 C   0  0  0  0  0  0  0  0  0  0  0  0
   58.7159   34.7209   47.7918 H   0  0  0  0  0  0  0  0  0  0  0  0
   60.2469   33.9053   47.3253 H   0  0  0  0  0  0  0  0  0  0  0  0
   60.1486   35.6989   47.3253 H   0  0  0  0  0  0  0  0  0  0  0  0
   59.0464   35.7782   45.3146 H   0  0  0  0  0  0  0  0  0  0  0  0
   59.8841   34.1870   45.0923 H   0  0  0  0  0  0  0  0  0  0  0  0
   58.9115   33.2269   42.9441 H   0  0  0  0  0  0  0  0  0  0  0  0
   58.0637   31.6803   42.6038 H   0  0  0  0  0  0  0  0  0  0  0  0
   57.1478   33.2255   42.6038 H   0  0  0  0  0  0  0  0  0  0  0  0
   59.6867   32.0316   46.2253 H   0  0  0  0  0  0  0  0  0  0  0  0
   60.1256   29.8977   47.4345 H   0  0  0  0  0  0  0  0  0  0  0  0
   58.6585   27.9177   47.0522 H   0  0  0  0  0  0  0  0  0  0  0  0
   55.9010   27.8420   44.5470 H   0  0  0  0  0  0  0  0  0  0  0  0
   54.8032   23.1890   46.9936 H   0  0  0  0  0  0  0  0  0  0  0  0
   55.1827   21.0043   45.8460 H   0  0  0  0  0  0  0  0  0  0  0  0
   56.3305   20.9378   43.6289 H   0  0  0  0  0  0  0  0  0  0  0  0
   57.1128   23.0573   42.5645 H   0  0  0  0  0  0  0  0  0  0  0  0
   56.7281   25.2453   43.7018 H   0  0  0  0  0  0  0  0  0  0  0  0
   56.5854   28.6368   42.6687 H   0  0  0  0  0  0  0  0  0  0  0  0
   55.3071   29.7702   42.1134 H   0  0  0  0  0  0  0  0  0  0  0  0
   57.0275   30.2870   42.1134 H   0  0  0  0  0  0  0  0  0  0  0  0
  1  2  1  0
  2  3  1  0
  3  4  2  0
  3  5  2  0
  3  6  1  0
  6  7  1  0
  6  8  1  0
  8  9  2  0
  9 10  1  0
 10 11  2  0
 11 12  1  0
 12 13  1  0
 13 14  1  0
 14 15  2  0
 14 16  1  0
 16 17  1  0
 17 18  2  0
 18 19  1  0
 19 20  2  0
 20 21  1  0
 21 22  2  0
 12 23  2  0
 23 24  1  0
 24 25  1  0
 23  8  1  0
 22 17  1  0
  1 26  1  0
  1 27  1  0
  1 28  1  0
  2 29  1  0
  2 30  1  0
  7 31  1  0
  7 32  1  0
  7 33  1  0
  9 34  1  0
 10 35  1  0
 11 36  1  0
 13 37  1  0
 18 38  1  0
 19 39  1  0
 20 40  1  0
 21 41  1  0
 22 42  1  0
 25 43  1  0
 25 44  1  0
 25 45  1  0
M  CHG  1  16  -1
M  END
>  <UniqueID>  (31) 
27

>  <SMILES>  (31) 
CCS(=O)(=O)N(C)c1cccc(NC(=O)[N-]c2ccccc2)c1OC

>  <Energy>  (31) 
56.91463541406432

>  <Genealogy>  (31) 
CCS(=O)(=O)N(C)c1cccc(NC(=O)[N-]c2ccccc2)c1OC (protonated)
CCS(=O)(=O)N(C)c1cccc(NC(=O)[N-]c2ccccc2)c1OC (3D coordinates assigned)
CCS(=O)(=O)N(C)c1cccc(NC(=O)[N-]c2ccccc2)c1OC (optimized conformer: 56.91463541406432 kcal/mol)

>  <smiles>  (31) 
CCS(=O)(=O)N(C)c1cccc(NC(=O)Nc2ccccc2)c1OC

>  <score_type>  (31) 
oracle

>  <origin>  (31) 
adg

>  <m_score__min__energy>  (31) 
-10.119999999999999

>  <m_primary>  (31) 
energy

$$$$
31:0
     RDKit          3D

 50 51  0  0  0  0  0  0  0  0999 V2000
   59.1795   25.2697   46.2644 H   0  0  0  0  0  0  0  0  0  0  0  0
   58.4790   26.0830   46.0240 C   0  0  0  0  0  0  0  0  0  0  0  0
   58.9640   27.3090   45.5650 C   0  0  0  0  0  0  0  0  0  0  0  0
   60.0467   27.4598   45.4422 H   0  0  0  0  0  0  0  0  0  0  0  0
   58.0760   28.3460   45.2610 C   0  0  0  0  0  0  0  0  0  0  0  0
   58.4631   29.3119   44.9043 H   0  0  0  0  0  0  0  0  0  0  0  0
   56.6860   28.1580   45.4100 C   0  0  0  0  0  0  0  0  0  0  0  0
   55.7490   29.1620   45.1050 O   0  0  0  0  0  0  0  0  0  0  0  0
   55.6020   29.7890   43.8310 C   0  0  0  0  0  0  0  0  0  0  0  0
   54.6206   30.2835   43.7830 H   0  0  0  0  0  0  0  0  0  0  0  0
   55.6811   29.0208   43.0476 H   0  0  0  0  0  0  0  0  0  0  0  0
   56.7050   30.8350   43.6100 C   0  0  0  0  0  0  0  0  0  0  0  0
   56.3610   31.5499   42.8481 H   0  0  0  0  0  0  0  0  0  0  0  0
   57.6086   30.2943   43.2920 H   0  0  0  0  0  0  0  0  0  0  0  0
   57.0650   31.6150   44.8840 C   0  0  0  0  0  0  0  0  0  0  0  0
   58.0752   31.3150   45.1992 H   0  0  0  0  0  0  0  0  0  0  0  0
   56.2973   31.3718   45.6333 H   0  0  0  0  0  0  0  0  0  0  0  0
   57.0470   33.1430   44.7090 C   0  0  0  0  0  0  0  0  0  0  0  0
   56.0518   33.5205   44.9867 H   0  0  0  0  0  0  0  0  0  0  0  0
   57.2785   33.3672   43.6573 H   0  0  0  0  0  0  0  0  0  0  0  0
   58.0240   33.7840   45.5200 O   0  0  0  0  0  0  0  0  0  0  0  0
   59.2930   33.2610   45.6420 N   0  0  0  0  0  0  0  0  0  0  0  0
   59.8640   33.0660   46.7930 C   0  0  0  0  0  0  0  0  0  0  0  0
   59.8290   31.7070   47.3840 C   0  0  0  0  0  0  0  0  0  0  0  0
   60.5900   30.6610   46.8410 C   0  0  0  0  0  0  0  0  0  0  0  0
   61.2336   30.8493   45.9691 H   0  0  0  0  0  0  0  0  0  0  0  0
   60.5360   29.3820   47.4000 C   0  0  0  0  0  0  0  0  0  0  0  0
   61.1423   28.5716   46.9692 H   0  0  0  0  0  0  0  0  0  0  0  0
   59.7110   29.1230   48.5110 C   0  0  0  0  0  0  0  0  0  0  0  0
   59.6260   27.8480   49.0950 O   0  0  0  0  0  0  0  0  0  0  0  0
   60.7480   27.0460   49.4440 C   0  0  0  0  0  0  0  0  0  0  0  0
   60.8302   26.9872   50.5393 H   0  0  0  0  0  0  0  0  0  0  0  0
   60.6184   26.0346   49.0313 H   0  0  0  0  0  0  0  0  0  0  0  0
   61.6630   27.4960   49.0313 H   0  0  0  0  0  0  0  0  0  0  0  0
   58.9420   30.1600   49.0600 C   0  0  0  0  0  0  0  0  0  0  0  0
   58.1160   29.8720   50.1590 O   0  0  0  0  0  0  0  0  0  0  0  0
   58.1360   30.5830   51.3940 C   0  0  0  0  0  0  0  0  0  0  0  0
   58.1159   29.8676   52.2293 H   0  0  0  0  0  0  0  0  0  0  0  0
   59.0516   31.1898   51.4529 H   0  0  0  0  0  0  0  0  0  0  0  0
   57.2560   31.2404   51.4529 H   0  0  0  0  0  0  0  0  0  0  0  0
   59.0110   31.4500   48.4990 C   0  0  0  0  0  0  0  0  0  0  0  0
   58.4183   32.2661   48.9380 H   0  0  0  0  0  0  0  0  0  0  0  0
   60.5340   34.2040   47.5190 C   0  0  0  0  0  0  0  0  0  0  0  0
   60.4435   34.0503   48.6045 H   0  0  0  0  0  0  0  0  0  0  0  0
   61.5977   34.2405   47.2412 H   0  0  0  0  0  0  0  0  0  0  0  0
   60.0498   35.1518   47.2412 H   0  0  0  0  0  0  0  0  0  0  0  0
   56.2100   26.9210   45.8720 C   0  0  0  0  0  0  0  0  0  0  0  0
   54.8450   26.7150   46.0270 O   0  0  0  0  0  0  0  0  0  0  0  0
   57.1050   25.8890   46.1780 C   0  0  0  0  0  0  0  0  0  0  0  0
   56.7247   24.9227   46.5407 H   0  0  0  0  0  0  0  0  0  0  0  0
  1  2  1  0
  2  3  2  0
  3  4  1  0
  3  5  1  0
  5  6  1  0
  5  7  2  0
  7  8  1  0
  8  9  1  0
  9 10  1  0
  9 11  1  0
  9 12  1  0
 12 13  1  0
 12 14  1  0
 12 15  1  0
 15 16  1  0
 15 17  1  0
 15 18  1  0
 18 19  1  0
 18 20  1  0
 18 21  1  0
 21 22  1  0
 22 23  2  0
 23 24  1  0
 24 25  2  0
 25 26  1  0
 25 27  1  0
 27 28  1  0
 27 29  2  0
 29 30  1  0
 30 31  1  0
 31 32  1  0
 31 33  1  0
 31 34  1  0
 29 35  1  0
 35 36  1  0
 36 37  1  0
 37 38  1  0
 37 39  1  0
 37 40  1  0
 35 41  2  0
 41 42  1  0
 23 43  1  0
 43 44  1  0
 43 45  1  0
 43 46  1  0
  7 47  1  0
 47 48  1  0
 47 49  2  0
 49 50  1  0
 49  2  1  0
 41 24  1  0
M  CHG  1  48  -1
M  END
>  <UniqueID>  (32) 
28

>  <SMILES>  (32) 
COc1ccc(/C(C)=N/OCCCCOc2ccccc2[O-])cc1OC

>  <Energy>  (32) 
43.440431847503206

>  <Genealogy>  (32) 
COc1ccc(C(C)=NOCCCCOc2ccccc2[O-])cc1OC (protonated)
COc1ccc(/C(C)=N/OCCCCOc2ccccc2[O-])cc1OC (cis-trans isomerization)
COc1ccc(/C(C)=N/OCCCCOc2ccccc2[O-])cc1OC (3D coordinates assigned)
COc1ccc(/C(C)=N/OCCCCOc2ccccc2[O-])cc1OC (optimized conformer: 43.440431847503206 kcal/mol)

>  <smiles>  (32) 
COc1ccc(C(C)=NOCCCCOc2ccccc2O)cc1OC

>  <score_type>  (32) 
oracle

>  <origin>  (32) 
adg

>  <m_score__min__energy>  (32) 
-11.109999999999999

>  <m_primary>  (32) 
energy

$$$$
32:0
     RDKit          3D

 27 28  0  0  0  0  0  0  0  0999 V2000
   62.3129   34.2875   47.0562 H   0  0  0  0  0  0  0  0  0  0  0  0
   61.2410   34.0590   47.1500 C   0  0  0  0  0  0  0  0  0  0  0  0
   60.4270   34.0480   46.0130 C   0  0  0  0  0  0  0  0  0  0  0  0
   60.8668   34.2490   45.0250 H   0  0  0  0  0  0  0  0  0  0  0  0
   59.0510   33.7820   46.1230 C   0  0  0  0  0  0  0  0  0  0  0  0
   58.2050   33.7280   44.8720 C   0  0  0  0  0  0  0  0  0  0  0  0
   58.5811   34.4746   44.1570 H   0  0  0  0  0  0  0  0  0  0  0  0
   57.1638   33.9382   45.1579 H   0  0  0  0  0  0  0  0  0  0  0  0
   58.2410   32.4100   44.2400 N   0  0  0  0  0  0  0  0  0  0  0  0
   57.7600   31.2600   44.6300 C   0  0  0  0  0  0  0  0  0  0  0  0
   56.4760   30.9270   44.3880 N   0  0  0  0  0  0  0  0  0  0  0  0
   55.7500   31.4940   43.8940 H   0  0  0  0  0  0  0  0  0  0  0  0
   56.3300   29.7050   44.9190 C   0  0  0  0  0  0  0  0  0  0  0  0
   55.1470   28.9770   44.8930 O   0  0  0  0  0  0  0  0  0  0  0  0
   57.5130   29.2960   45.4820 C   0  0  0  0  0  0  0  0  0  0  0  0
   57.6880   28.3362   45.9902 H   0  0  0  0  0  0  0  0  0  0  0  0
   58.4250   30.2760   45.3040 N   0  0  0  0  0  0  0  0  0  0  0  0
   59.7940   30.2120   45.8090 C   0  0  0  0  0  0  0  0  0  0  0  0
   59.7795   30.2127   46.9089 H   0  0  0  0  0  0  0  0  0  0  0  0
   60.2748   29.2904   45.4492 H   0  0  0  0  0  0  0  0  0  0  0  0
   60.3587   31.0847   45.4492 H   0  0  0  0  0  0  0  0  0  0  0  0
   58.5150   33.4640   47.3880 C   0  0  0  0  0  0  0  0  0  0  0  0
   57.2080   33.1260   47.5280 F   0  0  0  0  0  0  0  0  0  0  0  0
   59.3350   33.4770   48.5220 C   0  0  0  0  0  0  0  0  0  0  0  0
   58.9079   33.2478   49.5094 H   0  0  0  0  0  0  0  0  0  0  0  0
   60.6940   33.7800   48.4050 C   0  0  0  0  0  0  0  0  0  0  0  0
   61.8070   33.7950   49.9570 Br  0  0  0  0  0  0  0  0  0  0  0  0
  1  2  1  0
  2  3  2  0
  3  4  1  0
  3  5  1  0
  5  6  1  0
  6  7  1  0
  6  8  1  0
  6  9  1  0
  9 10  2  0
 10 11  1  0
 11 12  1  0
 11 13  1  0
 13 14  1  0
 13 15  2  0
 15 16  1  0
 15 17  1  0
 17 18  1  0
 18 19  1  0
 18 20  1  0
 18 21  1  0
  5 22  2  0
 22 23  1  0
 22 24  1  0
 24 25  1  0
 24 26  2  0
 26 27  1  0
 26  2  1  0
 17 10  1  0
M  CHG  1  14  -1
M  END
>  <UniqueID>  (33) 
29

>  <SMILES>  (33) 
Cn1cc([O-])[nH]/c1=N/Cc1ccc(Br)cc1F

>  <Energy>  (33) 
66.56417526869743

>  <Genealogy>  (33) 
Cn1cc([O-])[nH]c1=NCc1ccc(Br)cc1F (protonated)
Cn1cc([O-])[nH]/c1=N/Cc1ccc(Br)cc1F (cis-trans isomerization)
Cn1cc([O-])[nH]/c1=N/Cc1ccc(Br)cc1F (3D coordinates assigned)
Cn1cc([O-])[nH]/c1=N/Cc1ccc(Br)cc1F (optimized conformer: 66.56417526869743 kcal/mol)

>  <smiles>  (33) 
Cn1cc(O)[nH]c1=NCc1ccc(Br)cc1F

>  <score_type>  (33) 
oracle

>  <origin>  (33) 
adg

>  <m_score__min__energy>  (33) 
-9.7899999999999991

>  <m_primary>  (33) 
energy

$$$$
33:0
     RDKit          3D

 41 43  0  0  0  0  0  0  0  0999 V2000
   55.6452   25.4472   46.4885 H   0  0  0  0  0  0  0  0  0  0  0  0
   56.3480   26.2460   46.2090 C   0  0  0  0  0  0  0  0  0  0  0  0
   55.8850   27.3880   45.6360 N   0  0  0  0  0  0  0  0  0  0  0  0
   57.4880   31.6100   44.6790 C   0  0  0  0  0  0  0  0  0  0  0  0
   57.6720   31.6640   45.9730 N   0  0  0  0  0  0  0  0  0  0  0  0
   58.0980   28.2790   45.5040 C   0  0  0  0  0  0  0  0  0  0  0  0
   58.5910   27.1100   46.0890 C   0  0  0  0  0  0  0  0  0  0  0  0
   59.6702   26.9978   46.2701 H   0  0  0  0  0  0  0  0  0  0  0  0
   57.2010   31.6480   41.9010 C   0  0  0  0  0  0  0  0  0  0  0  0
   57.1121   31.6701   40.8048 H   0  0  0  0  0  0  0  0  0  0  0  0
   57.8090   32.6990   42.5770 C   0  0  0  0  0  0  0  0  0  0  0  0
   58.1957   33.5614   42.0142 H   0  0  0  0  0  0  0  0  0  0  0  0
   57.9280   32.6660   43.9320 N   0  0  0  0  0  0  0  0  0  0  0  0
   58.3880   33.4760   44.4040 H   0  0  0  0  0  0  0  0  0  0  0  0
   56.7120   28.4040   45.2660 C   0  0  0  0  0  0  0  0  0  0  0  0
   56.1820   29.4810   44.7570 N   0  0  0  0  0  0  0  0  0  0  0  0
   58.6900   32.3630   46.7010 C   0  0  0  0  0  0  0  0  0  0  0  0
   58.4140   33.6230   47.2380 C   0  0  0  0  0  0  0  0  0  0  0  0
   57.4155   34.0665   47.1103 H   0  0  0  0  0  0  0  0  0  0  0  0
   59.4010   34.3210   47.9360 C   0  0  0  0  0  0  0  0  0  0  0  0
   59.1713   35.3051   48.3706 H   0  0  0  0  0  0  0  0  0  0  0  0
   60.6900   33.7720   48.0870 C   0  0  0  0  0  0  0  0  0  0  0  0
   61.7040   34.4380   48.7920 O   0  0  0  0  0  0  0  0  0  0  0  0
   62.2140   34.0230   50.0550 C   0  0  0  0  0  0  0  0  0  0  0  0
   61.6318   34.4967   50.8591 H   0  0  0  0  0  0  0  0  0  0  0  0
   62.1352   32.9292   50.1408 H   0  0  0  0  0  0  0  0  0  0  0  0
   63.2690   34.3225   50.1408 H   0  0  0  0  0  0  0  0  0  0  0  0
   60.9820   32.5220   47.5180 C   0  0  0  0  0  0  0  0  0  0  0  0
   62.2750   32.0010   47.6820 O   0  0  0  0  0  0  0  0  0  0  0  0
   63.4530   32.5750   47.1250 C   0  0  0  0  0  0  0  0  0  0  0  0
   64.1211   32.9005   47.9360 H   0  0  0  0  0  0  0  0  0  0  0  0
   63.9674   31.8266   46.5043 H   0  0  0  0  0  0  0  0  0  0  0  0
   63.1806   33.4414   46.5043 H   0  0  0  0  0  0  0  0  0  0  0  0
   59.9810   31.8290   46.8100 C   0  0  0  0  0  0  0  0  0  0  0  0
   60.2141   30.8624   46.3396 H   0  0  0  0  0  0  0  0  0  0  0  0
   56.8500   30.5190   44.0200 C   0  0  0  0  0  0  0  0  0  0  0  0
   58.7836   29.0948   45.2313 H   0  0  0  0  0  0  0  0  0  0  0  0
   56.7060   30.5680   42.6240 C   0  0  0  0  0  0  0  0  0  0  0  0
   56.1979   29.7460   42.0984 H   0  0  0  0  0  0  0  0  0  0  0  0
   57.7140   26.0860   46.4430 C   0  0  0  0  0  0  0  0  0  0  0  0
   58.0949   25.1617   46.9019 H   0  0  0  0  0  0  0  0  0  0  0  0
  1  2  1  0
  2  3  1  0
  3  4  1  0
  4  5  2  0
  5  6  1  0
  6  7  2  0
  7  8  1  0
  7  9  1  0
  9 10  1  0
  9 11  2  0
 11 12  1  0
 11 13  1  0
 13 14  1  0
 13 15  1  0
 15 16  2  0
 16 17  1  0
 17 18  2  0
 18 19  1  0
 18 20  1  0
 20 21  1  0
 20 22  2  0
 22 23  1  0
 23 24  1  0
 24 25  1  0
 24 26  1  0
 24 27  1  0
 22 28  1  0
 28 29  1  0
 29 30  1  0
 30 31  1  0
 30 32  1  0
 30 33  1  0
 28 34  2  0
 34 35  1  0
  4 36  1  0
 36 37  1  0
 36 38  2  0
 38 39  1  0
 38 40  1  0
 40 41  1  0
 40  2  2  0
 15  6  1  0
 34 17  1  0
M  CHG  1   3  -1
M  END
>  <UniqueID>  (34) 
30

>  <SMILES>  (34) 
COc1ccc(/N=c2/[nH]cccc2/N=c2\cccc[n-]2)cc1OC

>  <Energy>  (34) 
64.1942848668862

>  <Genealogy>  (34) 
COc1ccc(N=c2[nH]cccc2N=c2cccc[n-]2)cc1OC (protonated)
COc1ccc(/N=c2/[nH]cccc2/N=c2\cccc[n-]2)cc1OC (cis-trans isomerization)
COc1ccc(/N=c2/[nH]cccc2/N=c2\cccc[n-]2)cc1OC (3D coordinates assigned)
COc1ccc(/N=c2/[nH]cccc2/N=c2\cccc[n-]2)cc1OC (optimized conformer: 64.1942848668862 kcal/mol)

>  <smiles>  (34) 
COc1ccc(N=c2[nH]cccc2N=c2cccc[nH]2)cc1OC

>  <score_type>  (34) 
oracle

>  <origin>  (34) 
adg

>  <m_score__min__energy>  (34) 
-8.8200000000000003

>  <m_primary>  (34) 
energy

$$$$
34:0
     RDKit          3D

 51 53  0  0  0  0  0  0  0  0999 V2000
   57.3880   31.8410   53.1980 C   0  0  0  0  0  0  0  0  0  0  0  0
   58.0980   32.9420   52.4150 C   0  0  0  0  0  0  0  0  0  0  0  0
   58.1870   32.6110   51.0280 O   0  0  0  0  0  0  0  0  0  0  0  0
   59.3350   32.7300   50.2230 C   0  0  0  0  0  0  0  0  0  0  0  0
   59.7760   33.9720   49.7250 C   0  0  0  0  0  0  0  0  0  0  0  0
   60.9260   34.0510   48.9360 C   0  0  0  0  0  0  0  0  0  0  0  0
   61.6450   32.8950   48.6280 C   0  0  0  0  0  0  0  0  0  0  0  0
   63.2160   33.0070   47.5460 Br  0  0  0  0  0  0  0  0  0  0  0  0
   61.2130   31.6550   49.1050 C   0  0  0  0  0  0  0  0  0  0  0  0
   60.0590   31.5640   49.8980 C   0  0  0  0  0  0  0  0  0  0  0  0
   59.5080   29.9870   50.4670 S   0  0  0  0  0  0  0  0  0  0  0  0
   58.0340   30.0150   50.7600 O   0  0  0  0  0  0  0  0  0  0  0  0
   60.2380   29.6520   51.7370 O   0  0  0  0  0  0  0  0  0  0  0  0
   59.8040   28.8030   49.2320 N   0  0  0  0  0  0  0  0  0  0  0  0
   59.4560   28.9560   47.8520 C   0  0  0  0  0  0  0  0  0  0  0  0
   58.1790   28.5690   47.4340 C   0  0  0  0  0  0  0  0  0  0  0  0
   57.7780   28.7660   46.1100 C   0  0  0  0  0  0  0  0  0  0  0  0
   58.6640   29.3320   45.1760 C   0  0  0  0  0  0  0  0  0  0  0  0
   58.2660   29.5860   43.8200 N   0  0  0  0  0  0  0  0  0  0  0  0
   56.9040   30.5800   43.4080 S   0  0  0  0  0  0  0  0  0  0  0  0
   56.2680   30.0420   42.1580 O   0  0  0  0  0  0  0  0  0  0  0  0
   55.8940   30.5440   44.5200 O   0  0  0  0  0  0  0  0  0  0  0  0
   57.4570   32.2510   43.0960 C   0  0  0  0  0  0  0  0  0  0  0  0
   57.8520   32.9260   44.3790 C   0  0  0  0  0  0  0  0  0  0  0  0
   58.9510   33.8010   44.4110 C   0  0  0  0  0  0  0  0  0  0  0  0
   59.3000   34.4470   45.6000 C   0  0  0  0  0  0  0  0  0  0  0  0
   58.5540   34.2290   46.7630 C   0  0  0  0  0  0  0  0  0  0  0  0
   57.4530   33.3680   46.7350 C   0  0  0  0  0  0  0  0  0  0  0  0
   57.0990   32.7210   45.5480 C   0  0  0  0  0  0  0  0  0  0  0  0
   59.9690   29.6500   45.5820 C   0  0  0  0  0  0  0  0  0  0  0  0
   60.3640   29.4640   46.9100 C   0  0  0  0  0  0  0  0  0  0  0  0
   57.5058   32.0236   54.2763 H   0  0  0  0  0  0  0  0  0  0  0  0
   56.3184   31.8397   52.9410 H   0  0  0  0  0  0  0  0  0  0  0  0
   57.8281   30.8662   52.9410 H   0  0  0  0  0  0  0  0  0  0  0  0
   57.5356   33.8809   52.5249 H   0  0  0  0  0  0  0  0  0  0  0  0
   59.1171   33.0529   52.8139 H   0  0  0  0  0  0  0  0  0  0  0  0
   59.2106   34.8861   49.9592 H   0  0  0  0  0  0  0  0  0  0  0  0
   61.2656   35.0261   48.5567 H   0  0  0  0  0  0  0  0  0  0  0  0
   61.7803   30.7456   48.8577 H   0  0  0  0  0  0  0  0  0  0  0  0
   57.4857   28.1066   48.1520 H   0  0  0  0  0  0  0  0  0  0  0  0
   56.7640   28.4768   45.7967 H   0  0  0  0  0  0  0  0  0  0  0  0
   58.9180   29.3310   43.0450 H   0  0  0  0  0  0  0  0  0  0  0  0
   58.3242   32.2244   42.4197 H   0  0  0  0  0  0  0  0  0  0  0  0
   56.6332   32.8170   42.6367 H   0  0  0  0  0  0  0  0  0  0  0  0
   59.5381   33.9779   43.4978 H   0  0  0  0  0  0  0  0  0  0  0  0
   60.1633   35.1284   45.6214 H   0  0  0  0  0  0  0  0  0  0  0  0
   58.8335   34.7347   47.6990 H   0  0  0  0  0  0  0  0  0  0  0  0
   56.8643   33.1995   47.6488 H   0  0  0  0  0  0  0  0  0  0  0  0
   56.2282   32.0491   45.5285 H   0  0  0  0  0  0  0  0  0  0  0  0
   60.6866   30.0486   44.8498 H   0  0  0  0  0  0  0  0  0  0  0  0
   61.3895   29.7165   47.2176 H   0  0  0  0  0  0  0  0  0  0  0  0
  1  2  1  0
  2  3  1  0
  3  4  1  0
  4  5  2  0
  5  6  1  0
  6  7  2  0
  7  8  1  0
  7  9  1  0
  9 10  2  0
 10 11  1  0
 11 12  2  0
 11 13  2  0
 11 14  1  0
 14 15  1  0
 15 16  2  0
 16 17  1  0
 17 18  2  0
 18 19  1  0
 19 20  1  0
 20 21  2  0
 20 22  2  0
 20 23  1  0
 23 24  1  0
 24 25  2  0
 25 26  1  0
 26 27  2  0
 27 28  1  0
 28 29  2  0
 18 30  1  0
 30 31  2  0
 10  4  1  0
 31 15  1  0
 29 24  1  0
  1 32  1  0
  1 33  1  0
  1 34  1  0
  2 35  1  0
  2 36  1  0
  5 37  1  0
  6 38  1  0
  9 39  1  0
 16 40  1  0
 17 41  1  0
 19 42  1  0
 23 43  1  0
 23 44  1  0
 25 45  1  0
 26 46  1  0
 27 47  1  0
 28 48  1  0
 29 49  1  0
 30 50  1  0
 31 51  1  0
M  CHG  1  14  -1
M  END
>  <UniqueID>  (35) 
31

>  <SMILES>  (35) 
CCOc1ccc(Br)cc1S(=O)(=O)[N-]c1ccc(NS(=O)(=O)Cc2ccccc2)cc1

>  <Energy>  (35) 
54.677439169394425

>  <Genealogy>  (35) 
CCOc1ccc(Br)cc1S(=O)(=O)[N-]c1ccc(NS(=O)(=O)Cc2ccccc2)cc1 (protonated)
CCOc1ccc(Br)cc1S(=O)(=O)[N-]c1ccc(NS(=O)(=O)Cc2ccccc2)cc1 (3D coordinates assigned)
CCOc1ccc(Br)cc1S(=O)(=O)[N-]c1ccc(NS(=O)(=O)Cc2ccccc2)cc1 (optimized conformer: 54.677439169394425 kcal/mol)

>  <smiles>  (35) 
CCOc1ccc(Br)cc1S(=O)(=O)Nc1ccc(NS(=O)(=O)Cc2ccccc2)cc1

>  <score_type>  (35) 
oracle

>  <origin>  (35) 
adg

>  <m_score__min__energy>  (35) 
-10.59

>  <m_primary>  (35) 
energy

$$$$
35:0
     RDKit          3D

 38 39  0  0  0  0  0  0  0  0999 V2000
   56.3430   29.7430   42.8220 C   0  0  0  0  0  0  0  0  0  0  0  0
   55.8410   30.0240   44.2360 C   0  0  0  0  0  0  0  0  0  0  0  0
   55.5210   28.8060   44.9110 O   0  0  0  0  0  0  0  0  0  0  0  0
   56.4430   27.9610   45.5550 C   0  0  0  0  0  0  0  0  0  0  0  0
   57.7880   28.3260   45.7670 C   0  0  0  0  0  0  0  0  0  0  0  0
   58.6750   27.4470   46.4200 C   0  0  0  0  0  0  0  0  0  0  0  0
   60.0980   27.8620   46.7270 C   0  0  2  0  0  0  0  0  0  0  0  0
   60.8810   26.6680   47.2670 C   0  0  0  0  0  0  0  0  0  0  0  0
   60.1430   28.9470   47.7080 N   0  0  0  0  0  0  0  0  0  0  0  0
   59.6180   30.2690   47.5350 C   0  0  0  0  0  0  0  0  0  0  0  0
   58.5060   30.5450   48.0520 O   0  0  0  0  0  0  0  0  0  0  0  0
   60.3200   31.3200   46.7190 C   0  0  0  0  0  0  0  0  0  0  0  0
   59.3400   32.2880   46.1320 C   0  0  0  0  0  0  0  0  0  0  0  0
   58.4140   32.0080   45.1290 C   0  0  0  0  0  0  0  0  0  0  0  0
   57.5310   33.0640   44.8810 C   0  0  0  0  0  0  0  0  0  0  0  0
   57.7360   34.1710   45.6980 C   0  0  0  0  0  0  0  0  0  0  0  0
   59.0110   33.8210   46.7410 S   0  0  0  0  0  0  0  0  0  0  0  0
   58.2000   26.2080   46.8750 C   0  0  0  0  0  0  0  0  0  0  0  0
   56.8710   25.8410   46.6670 C   0  0  0  0  0  0  0  0  0  0  0  0
   55.9960   26.7110   46.0050 C   0  0  0  0  0  0  0  0  0  0  0  0
   54.6740   26.3340   45.8040 O   0  0  0  0  0  0  0  0  0  0  0  0
   57.3018   29.2063   42.8732 H   0  0  0  0  0  0  0  0  0  0  0  0
   55.6058   29.1264   42.2869 H   0  0  0  0  0  0  0  0  0  0  0  0
   56.4832   30.6938   42.2869 H   0  0  0  0  0  0  0  0  0  0  0  0
   56.6243   30.5532   44.7985 H   0  0  0  0  0  0  0  0  0  0  0  0
   54.9328   30.6414   44.1721 H   0  0  0  0  0  0  0  0  0  0  0  0
   58.1483   29.3056   45.4197 H   0  0  0  0  0  0  0  0  0  0  0  0
   60.5499   28.2210   45.7906 H   0  0  0  0  0  0  0  0  0  0  0  0
   60.8679   26.6880   48.3667 H   0  0  0  0  0  0  0  0  0  0  0  0
   60.4186   25.7353   46.9117 H   0  0  0  0  0  0  0  0  0  0  0  0
   61.9207   26.7203   46.9117 H   0  0  0  0  0  0  0  0  0  0  0  0
   61.0227   31.8669   47.3649 H   0  0  0  0  0  0  0  0  0  0  0  0
   60.8574   30.8242   45.8972 H   0  0  0  0  0  0  0  0  0  0  0  0
   58.3808   31.0517   44.5864 H   0  0  0  0  0  0  0  0  0  0  0  0
   56.7467   33.0229   44.1108 H   0  0  0  0  0  0  0  0  0  0  0  0
   57.1651   35.1108   45.6680 H   0  0  0  0  0  0  0  0  0  0  0  0
   58.8806   25.5212   47.3995 H   0  0  0  0  0  0  0  0  0  0  0  0
   56.5090   24.8655   47.0239 H   0  0  0  0  0  0  0  0  0  0  0  0
  1  2  1  0
  2  3  1  0
  3  4  1  0
  4  5  2  0
  5  6  1  0
  6  7  1  0
  7  8  1  0
  7  9  1  0
  9 10  1  0
 10 11  2  0
 10 12  1  0
 12 13  1  0
 13 14  2  0
 14 15  1  0
 15 16  2  0
 16 17  1  0
  6 18  2  0
 18 19  1  0
 19 20  2  0
 20 21  1  0
 20  4  1  0
 17 13  1  0
  1 22  1  0
  1 23  1  0
  1 24  1  0
  2 25  1  0
  2 26  1  0
  5 27  1  0
  7 28  1  6
  8 29  1  0
  8 30  1  0
  8 31  1  0
 12 32  1  0
 12 33  1  0
 14 34  1  0
 15 35  1  0
 16 36  1  0
 18 37  1  0
 19 38  1  0
M  CHG  2   9  -1  21  -1
M  END
>  <UniqueID>  (36) 
32

>  <SMILES>  (36) 
CCOc1cc([C@H](C)[N-]C(=O)Cc2cccs2)ccc1[O-]

>  <Energy>  (36) 
54.169328843842976

>  <Genealogy>  (36) 
CCOc1cc(C(C)[N-]C(=O)Cc2cccs2)ccc1[O-] (protonated)
CCOc1cc([C@H](C)[N-]C(=O)Cc2cccs2)ccc1[O-] (chirality)
CCOc1cc([C@H](C)[N-]C(=O)Cc2cccs2)ccc1[O-] (3D coordinates assigned)
CCOc1cc([C@H](C)[N-]C(=O)Cc2cccs2)ccc1[O-] (optimized conformer: 54.169328843842976 kcal/mol)

>  <smiles>  (36) 
CCOc1cc(C(C)NC(=O)Cc2cccs2)ccc1O

>  <score_type>  (36) 
oracle

>  <origin>  (36) 
adg

>  <m_score__min__energy>  (36) 
-11.65

>  <m_primary>  (36) 
energy

$$$$
36:0
     RDKit          3D

 33 34  0  0  0  0  0  0  0  0999 V2000
   59.1146   25.5459   46.7396 H   0  0  0  0  0  0  0  0  0  0  0  0
   58.4160   26.3410   46.4400 C   0  0  0  0  0  0  0  0  0  0  0  0
   58.8370   27.8880   45.9270 S   0  0  0  0  0  0  0  0  0  0  0  0
   57.2330   28.3670   45.7100 C   0  0  0  0  0  0  0  0  0  0  0  0
   56.8170   29.5340   45.3110 N   0  0  0  0  0  0  0  0  0  0  0  0
   55.9430   29.8240   44.2100 C   0  0  0  0  0  0  0  0  0  0  0  0
   54.7740   29.3540   44.1600 O   0  0  0  0  0  0  0  0  0  0  0  0
   56.4200   30.6670   43.1590 N   0  0  0  0  0  0  0  0  0  0  0  0
   57.7790   31.1960   43.0950 C   0  0  0  0  0  0  0  0  0  0  0  0
   58.3599   30.7953   43.9388 H   0  0  0  0  0  0  0  0  0  0  0  0
   58.2258   30.8922   42.1368 H   0  0  0  0  0  0  0  0  0  0  0  0
   57.7830   32.7290   43.1680 C   0  0  0  0  0  0  0  0  0  0  0  0
   58.5170   33.1195   42.4477 H   0  0  0  0  0  0  0  0  0  0  0  0
   56.7714   33.0891   42.9294 H   0  0  0  0  0  0  0  0  0  0  0  0
   58.1450   33.2140   44.5480 C   0  0  0  0  0  0  0  0  0  0  0  0
   59.1600   34.1710   44.7180 C   0  0  0  0  0  0  0  0  0  0  0  0
   59.7089   34.5487   43.8427 H   0  0  0  0  0  0  0  0  0  0  0  0
   59.4750   34.6450   45.9950 C   0  0  0  0  0  0  0  0  0  0  0  0
   60.2739   35.3903   46.1229 H   0  0  0  0  0  0  0  0  0  0  0  0
   58.7760   34.1730   47.1090 C   0  0  0  0  0  0  0  0  0  0  0  0
   59.0267   34.5451   48.1133 H   0  0  0  0  0  0  0  0  0  0  0  0
   57.7580   33.2280   46.9480 C   0  0  0  0  0  0  0  0  0  0  0  0
   57.2062   32.8594   47.8253 H   0  0  0  0  0  0  0  0  0  0  0  0
   57.4410   32.7510   45.6710 C   0  0  0  0  0  0  0  0  0  0  0  0
   56.6372   32.0105   45.5467 H   0  0  0  0  0  0  0  0  0  0  0  0
   56.3740   27.3740   46.0230 N   0  0  0  0  0  0  0  0  0  0  0  0
   57.0270   26.2460   46.4180 C   0  0  0  0  0  0  0  0  0  0  0  0
   56.2850   25.0250   46.8690 C   0  0  0  0  0  0  0  0  0  0  0  0
   56.9669   24.1620   46.8545 H   0  0  0  0  0  0  0  0  0  0  0  0
   55.9082   25.1961   47.8882 H   0  0  0  0  0  0  0  0  0  0  0  0
   55.1530   24.7560   45.9890 N   0  0  0  0  0  0  0  0  0  0  0  0
   55.2920   24.1370   44.8860 C   0  0  0  0  0  0  0  0  0  0  0  0
   55.4700   23.3470   43.4930 S   0  0  0  0  0  0  0  0  0  0  0  0
  1  2  1  0
  2  3  1  0
  3  4  1  0
  4  5  2  0
  5  6  1  0
  6  7  2  0
  6  8  1  0
  8  9  1  0
  9 10  1  0
  9 11  1  0
  9 12  1  0
 12 13  1  0
 12 14  1  0
 12 15  1  0
 15 16  2  0
 16 17  1  0
 16 18  1  0
 18 19  1  0
 18 20  2  0
 20 21  1  0
 20 22  1  0
 22 23  1  0
 22 24  2  0
 24 25  1  0
  4 26  1  0
 26 27  1  0
 27 28  1  0
 28 29  1  0
 28 30  1  0
 28 31  1  0
 31 32  2  0
 32 33  2  0
 27  2  2  0
 24 15  1  0
M  CHG  2   8  -1  26  -1
M  END
>  <UniqueID>  (37) 
33

>  <SMILES>  (37) 
O=C(/N=c1/[n-]c(CN=C=S)cs1)[N-]CCc1ccccc1

>  <Energy>  (37) 
58.99410184918794

>  <Genealogy>  (37) 
O=C(N=c1[n-]c(CN=C=S)cs1)[N-]CCc1ccccc1 (protonated)
O=C(/N=c1/[n-]c(CN=C=S)cs1)[N-]CCc1ccccc1 (cis-trans isomerization)
O=C(/N=c1/[n-]c(CN=C=S)cs1)[N-]CCc1ccccc1 (3D coordinates assigned)
O=C(/N=c1/[n-]c(CN=C=S)cs1)[N-]CCc1ccccc1 (optimized conformer: 58.99410184918794 kcal/mol)

>  <smiles>  (37) 
O=C(N=c1[nH]c(CN=C=S)cs1)NCCc1ccccc1

>  <score_type>  (37) 
oracle

>  <origin>  (37) 
adg

>  <m_score__min__energy>  (37) 
-9.9199999999999999

>  <m_primary>  (37) 
energy

$$$$
37:0
     RDKit          3D

 42 44  0  0  0  0  0  0  0  0999 V2000
   60.9131   27.7342   47.6743 H   0  0  0  0  0  0  0  0  0  0  0  0
   60.2510   27.9660   46.8270 C   0  0  0  0  0  0  0  0  0  0  0  0
   58.9000   28.0450   46.9590 N   0  0  0  0  0  0  0  0  0  0  0  0
   58.3000   28.3300   45.7840 C   0  0  0  0  0  0  0  0  0  0  0  0
   57.0130   28.4850   45.6850 N   0  0  0  0  0  0  0  0  0  0  0  0
   56.3490   29.5020   44.9210 C   0  0  0  0  0  0  0  0  0  0  0  0
   55.1330   29.3420   44.6360 O   0  0  0  0  0  0  0  0  0  0  0  0
   57.0700   30.6910   44.4040 C   0  0  0  0  0  0  0  0  0  0  0  0
   57.2090   30.9000   43.0210 C   0  0  0  0  0  0  0  0  0  0  0  0
   56.7899   30.1705   42.3123 H   0  0  0  0  0  0  0  0  0  0  0  0
   57.8770   32.0300   42.5420 C   0  0  0  0  0  0  0  0  0  0  0  0
   57.9856   32.1841   41.4583 H   0  0  0  0  0  0  0  0  0  0  0  0
   58.4070   32.9640   43.4340 C   0  0  0  0  0  0  0  0  0  0  0  0
   58.9321   33.8519   43.0519 H   0  0  0  0  0  0  0  0  0  0  0  0
   58.2710   32.7720   44.8160 C   0  0  0  0  0  0  0  0  0  0  0  0
   58.9060   33.9590   45.9530 S   0  0  0  0  0  0  0  0  0  0  0  0
   57.7770   34.5970   46.7130 O   0  0  0  0  0  0  0  0  0  0  0  0
   59.6280   35.0270   45.1800 O   0  0  0  0  0  0  0  0  0  0  0  0
   60.0120   33.1850   47.0630 N   0  0  0  0  0  0  0  0  0  0  0  0
   60.5010   31.9150   46.4860 C   0  0  0  0  0  0  0  0  0  0  0  0
   61.3129   32.1309   45.7759 H   0  0  0  0  0  0  0  0  0  0  0  0
   59.6651   31.4167   45.9733 H   0  0  0  0  0  0  0  0  0  0  0  0
   61.0280   30.9840   47.5830 C   0  0  0  0  0  0  0  0  0  0  0  0
   61.8141   31.5058   48.1484 H   0  0  0  0  0  0  0  0  0  0  0  0
   61.4280   30.0772   47.1058 H   0  0  0  0  0  0  0  0  0  0  0  0
   59.9460   30.5830   48.5170 N   0  0  0  0  0  0  0  0  0  0  0  0
   59.4960   29.7190   48.1300 H   0  0  0  0  0  0  0  0  0  0  0  0
   60.5140   30.2180   49.8270 C   0  0  0  0  0  0  0  0  0  0  0  0
   59.8798   30.6256   50.6280 H   0  0  0  0  0  0  0  0  0  0  0  0
   60.5575   29.1224   49.9154 H   0  0  0  0  0  0  0  0  0  0  0  0
   61.5286   30.6336   49.9154 H   0  0  0  0  0  0  0  0  0  0  0  0
   58.8810   31.6120   48.6640 C   0  0  0  0  0  0  0  0  0  0  0  0
   58.4796   31.5619   49.6869 H   0  0  0  0  0  0  0  0  0  0  0  0
   58.1029   31.3998   47.9160 H   0  0  0  0  0  0  0  0  0  0  0  0
   59.4050   33.0370   48.4070 C   0  0  0  0  0  0  0  0  0  0  0  0
   60.1651   33.2754   49.1655 H   0  0  0  0  0  0  0  0  0  0  0  0
   58.5475   33.7236   48.4638 H   0  0  0  0  0  0  0  0  0  0  0  0
   57.5940   31.6420   45.2960 C   0  0  0  0  0  0  0  0  0  0  0  0
   57.4720   31.4987   46.3798 H   0  0  0  0  0  0  0  0  0  0  0  0
   59.4250   28.5170   44.5390 S   0  0  0  0  0  0  0  0  0  0  0  0
   60.7360   28.1990   45.5450 C   0  0  0  0  0  0  0  0  0  0  0  0
   61.7930   28.1790   45.2411 H   0  0  0  0  0  0  0  0  0  0  0  0
  1  2  1  0
  2  3  1  0
  3  4  1  0
  4  5  2  0
  5  6  1  0
  6  7  2  0
  6  8  1  0
  8  9  2  0
  9 10  1  0
  9 11  1  0
 11 12  1  0
 11 13  2  0
 13 14  1  0
 13 15  1  0
 15 16  1  0
 16 17  2  0
 16 18  2  0
 16 19  1  0
 19 20  1  0
 20 21  1  0
 20 22  1  0
 20 23  1  0
 23 24  1  0
 23 25  1  0
 23 26  1  0
 26 27  1  0
 26 28  1  0
 28 29  1  0
 28 30  1  0
 28 31  1  0
 26 32  1  0
 32 33  1  0
 32 34  1  0
 32 35  1  0
 35 36  1  0
 35 37  1  0
 15 38  2  0
 38 39  1  0
  4 40  1  0
 40 41  1  0
 41 42  1  0
 41  2  2  0
 38  8  1  0
 35 19  1  0
M  CHG  2   3  -1  26   1
M  END
>  <UniqueID>  (38) 
34

>  <SMILES>  (38) 
C[NH+]1CCN(S(=O)(=O)c2cccc(C(=O)/N=c3/[n-]ccs3)c2)CC1

>  <Energy>  (38) 
92.25371344724539

>  <Genealogy>  (38) 
C[NH+]1CCN(S(=O)(=O)c2cccc(C(=O)N=c3[n-]ccs3)c2)CC1 (protonated)
C[NH+]1CCN(S(=O)(=O)c2cccc(C(=O)/N=c3/[n-]ccs3)c2)CC1 (cis-trans isomerization)
C[NH+]1CCN(S(=O)(=O)c2cccc(C(=O)/N=c3/[n-]ccs3)c2)CC1 (3D coordinates assigned)
C[NH+]1CCN(S(=O)(=O)c2cccc(C(=O)/N=c3/[n-]ccs3)c2)CC1 (nonaromatic ring conformer: 92.25371344724539 kcal/mol)

>  <smiles>  (38) 
CN1CCN(S(=O)(=O)c2cccc(C(=O)N=c3[nH]ccs3)c2)CC1

>  <score_type>  (38) 
oracle

>  <origin>  (38) 
adg

>  <m_score__min__energy>  (38) 
-9.2899999999999991

>  <m_primary>  (38) 
energy

$$$$
38:0
     RDKit          3D

 66 68  0  0  0  0  0  0  0  0999 V2000
   57.0100   34.2300   44.8880 C   0  0  0  0  0  0  0  0  0  0  0  0
   57.9050   33.0980   44.9920 N   0  0  0  0  0  0  0  0  0  0  0  0
   57.6420   31.9680   44.1200 C   0  0  0  0  0  0  0  0  0  0  0  0
   59.0060   33.0420   45.8880 C   0  0  0  0  0  0  0  0  0  0  0  0
   59.5420   31.8550   46.3370 C   0  0  0  0  0  0  0  0  0  0  0  0
   60.6090   31.8270   47.2100 C   0  0  0  0  0  0  0  0  0  0  0  0
   61.2030   32.9820   47.6890 C   0  0  0  0  0  0  0  0  0  0  0  0
   62.3000   33.0390   48.5960 C   0  0  0  0  0  0  0  0  0  0  0  0
   62.1180   33.1210   49.9600 C   0  0  0  0  0  0  0  0  0  0  0  0
   60.8430   33.1910   50.6490 C   0  0  0  0  0  0  0  0  0  0  0  0
   60.5210   31.9850   51.4900 C   0  0  0  0  0  0  0  0  0  0  0  0
   59.1280   31.5230   51.4170 C   0  0  0  0  0  0  0  0  0  0  0  0
   58.4450   31.3660   50.3940 O   0  0  0  0  0  0  0  0  0  0  0  0
   58.4850   31.2190   52.6700 N   0  0  0  0  0  0  0  0  0  0  0  0
   57.1440   30.7740   52.5960 C   0  0  0  0  0  0  0  0  0  0  0  0
   56.7550   29.5160   52.9850 C   0  0  0  0  0  0  0  0  0  0  0  0
   55.4150   29.1280   52.8910 C   0  0  0  0  0  0  0  0  0  0  0  0
   54.4100   29.9280   52.4260 C   0  0  0  0  0  0  0  0  0  0  0  0
   53.0430   29.6070   52.3700 N   0  0  0  0  0  0  0  0  0  0  0  0
   52.3860   29.3610   53.6960 C   0  0  0  0  0  0  0  0  0  0  0  0
   52.0830   30.6230   54.4160 C   0  0  0  0  0  0  0  0  0  0  0  0
   50.6570   31.4880   53.8740 Cl  0  0  0  0  0  0  0  0  0  0  0  0
   52.1450   29.4320   51.2860 C   0  0  0  0  0  0  0  0  0  0  0  0
   52.0850   30.3440   50.1330 C   0  0  0  0  0  0  0  0  0  0  0  0
   51.4160   31.9550   50.4840 Cl  0  0  0  0  0  0  0  0  0  0  0  0
   54.8280   31.2140   52.0310 C   0  0  0  0  0  0  0  0  0  0  0  0
   56.1590   31.6050   52.1230 C   0  0  0  0  0  0  0  0  0  0  0  0
   63.2650   33.1610   50.7020 N   0  0  0  0  0  0  0  0  0  0  0  0
   64.4850   33.1230   50.1430 C   0  0  0  0  0  0  0  0  0  0  0  0
   65.5400   33.1630   50.8840 N   0  0  0  0  0  0  0  0  0  0  0  0
   64.6880   33.0420   48.8140 N   0  0  0  0  0  0  0  0  0  0  0  0
   63.5890   33.0010   48.0420 C   0  0  0  0  0  0  0  0  0  0  0  0
   63.7330   32.9250   46.7630 N   0  0  0  0  0  0  0  0  0  0  0  0
   60.6590   34.1750   47.2340 C   0  0  0  0  0  0  0  0  0  0  0  0
   59.5830   34.2030   46.3520 C   0  0  0  0  0  0  0  0  0  0  0  0
   56.7369   34.5754   45.8961 H   0  0  0  0  0  0  0  0  0  0  0  0
   57.5108   35.0447   44.3444 H   0  0  0  0  0  0  0  0  0  0  0  0
   56.1018   33.9306   44.3444 H   0  0  0  0  0  0  0  0  0  0  0  0
   57.4343   31.0756   44.7287 H   0  0  0  0  0  0  0  0  0  0  0  0
   56.7714   32.1896   43.4852 H   0  0  0  0  0  0  0  0  0  0  0  0
   58.5209   31.7824   43.4852 H   0  0  0  0  0  0  0  0  0  0  0  0
   59.1079   30.9056   45.9904 H   0  0  0  0  0  0  0  0  0  0  0  0
   61.0018   30.8530   47.5372 H   0  0  0  0  0  0  0  0  0  0  0  0
   60.8549   34.0740   51.3049 H   0  0  0  0  0  0  0  0  0  0  0  0
   60.0687   33.2446   49.8695 H   0  0  0  0  0  0  0  0  0  0  0  0
   61.1705   31.1595   51.1633 H   0  0  0  0  0  0  0  0  0  0  0  0
   60.6866   32.2890   52.5341 H   0  0  0  0  0  0  0  0  0  0  0  0
   58.9910   31.3250   53.5770 H   0  0  0  0  0  0  0  0  0  0  0  0
   57.5026   28.8086   53.3732 H   0  0  0  0  0  0  0  0  0  0  0  0
   55.1522   28.1096   53.2133 H   0  0  0  0  0  0  0  0  0  0  0  0
   51.4462   28.8142   53.5293 H   0  0  0  0  0  0  0  0  0  0  0  0
   53.0844   28.7790   54.3153 H   0  0  0  0  0  0  0  0  0  0  0  0
   51.9461   30.3799   55.4800 H   0  0  0  0  0  0  0  0  0  0  0  0
   52.9325   31.2925   54.2155 H   0  0  0  0  0  0  0  0  0  0  0  0
   52.3618   28.4361   50.8722 H   0  0  0  0  0  0  0  0  0  0  0  0
   51.1778   29.6306   51.7708 H   0  0  0  0  0  0  0  0  0  0  0  0
   53.1070   30.4752   49.7479 H   0  0  0  0  0  0  0  0  0  0  0  0
   51.4019   29.8784   49.4074 H   0  0  0  0  0  0  0  0  0  0  0  0
   54.0846   31.9248   51.6410 H   0  0  0  0  0  0  0  0  0  0  0  0
   56.4339   32.6212   51.8039 H   0  0  0  0  0  0  0  0  0  0  0  0
   63.2440   33.2340   51.7480 H   0  0  0  0  0  0  0  0  0  0  0  0
   65.5710   33.5720   51.8200 H   0  0  0  0  0  0  0  0  0  0  0  0
   65.6520   33.0150   48.4210 H   0  0  0  0  0  0  0  0  0  0  0  0
   64.5050   32.3790   46.3300 H   0  0  0  0  0  0  0  0  0  0  0  0
   61.0907   35.1256   47.5805 H   0  0  0  0  0  0  0  0  0  0  0  0
   59.1851   35.1728   46.0185 H   0  0  0  0  0  0  0  0  0  0  0  0
  1  2  1  0
  2  3  1  0
  2  4  1  0
  4  5  2  0
  5  6  1  0
  6  7  2  0
  7  8  1  0
  8  9  2  0
  9 10  1  0
 10 11  1  0
 11 12  1  0
 12 13  2  0
 12 14  1  0
 14 15  1  0
 15 16  2  0
 16 17  1  0
 17 18  2  0
 18 19  1  0
 19 20  1  0
 20 21  1  0
 21 22  1  0
 19 23  1  0
 23 24  1  0
 24 25  1  0
 18 26  1  0
 26 27  2  0
  9 28  1  0
 28 29  1  0
 29 30  2  3
 29 31  1  0
 31 32  1  0
 32 33  2  3
  7 34  1  0
 34 35  2  0
 35  4  1  0
 32  8  1  0
 27 15  1  0
  1 36  1  0
  1 37  1  0
  1 38  1  0
  3 39  1  0
  3 40  1  0
  3 41  1  0
  5 42  1  0
  6 43  1  0
 10 44  1  0
 10 45  1  0
 11 46  1  0
 11 47  1  0
 14 48  1  0
 16 49  1  0
 17 50  1  0
 20 51  1  0
 20 52  1  0
 21 53  1  0
 21 54  1  0
 23 55  1  0
 23 56  1  0
 24 57  1  0
 24 58  1  0
 26 59  1  0
 27 60  1  0
 28 61  1  0
 30 62  1  0
 31 63  1  0
 33 64  1  0
 34 65  1  0
 35 66  1  0
M  END
>  <smiles>  (39) 
CN(C)c1ccc(-c2c(CCC(=O)Nc3ccc(N(CCCl)CCCl)cc3)[nH]c(=N)[nH]c2=N)cc1

>  <score_type>  (39) 
oracle

>  <origin>  (39) 
adg

>  <m_score__min__energy>  (39) 
-7.9900000000000002

>  <m_primary>  (39) 
energy

$$$$
39:0
     RDKit          3D

 50 52  0  0  0  0  0  0  0  0999 V2000
   59.3740   31.8970   48.0380 C   0  0  0  0  0  0  0  0  0  0  0  0
   59.1230   32.8530   46.9040 C   0  0  0  0  0  0  0  0  0  0  0  0
   59.8160   34.0740   46.8600 C   0  0  0  0  0  0  0  0  0  0  0  0
   59.5660   34.9910   45.8370 C   0  0  0  0  0  0  0  0  0  0  0  0
   58.6270   34.7000   44.8480 C   0  0  0  0  0  0  0  0  0  0  0  0
   57.9220   33.4960   44.8880 C   0  0  0  0  0  0  0  0  0  0  0  0
   58.1490   32.5680   45.9230 C   0  0  0  0  0  0  0  0  0  0  0  0
   57.4070   31.3430   46.0070 N   0  0  0  0  0  0  0  0  0  0  0  0
   57.1760   30.2120   44.7140 S   0  0  0  0  0  0  0  0  0  0  0  0
   55.7010   30.0290   44.4830 O   0  0  0  0  0  0  0  0  0  0  0  0
   57.8170   30.7270   43.4580 O   0  0  0  0  0  0  0  0  0  0  0  0
   57.9100   28.6600   45.1500 C   0  0  0  0  0  0  0  0  0  0  0  0
   57.0910   27.5210   45.2250 C   0  0  0  0  0  0  0  0  0  0  0  0
   57.6160   26.2770   45.5950 C   0  0  0  0  0  0  0  0  0  0  0  0
   56.7400   25.1400   45.6720 N   0  0  0  0  0  0  0  0  0  0  0  0
   55.3340   25.2320   45.9490 C   0  0  0  0  0  0  0  0  0  0  0  0
   54.8020   26.3410   46.2350 O   0  0  0  0  0  0  0  0  0  0  0  0
   54.4660   24.0190   45.8150 C   0  0  0  0  0  0  0  0  0  0  0  0
   55.1460   22.6360   46.7950 S   0  0  0  0  0  0  0  0  0  0  0  0
   56.4040   22.2070   45.5970 C   0  0  0  0  0  0  0  0  0  0  0  0
   56.0540   21.6060   44.4280 N   0  0  0  0  0  0  0  0  0  0  0  0
   56.9930   21.2750   43.5050 C   0  0  0  0  0  0  0  0  0  0  0  0
   56.6480   20.7090   42.4330 O   0  0  0  0  0  0  0  0  0  0  0  0
   58.3390   21.5580   43.7500 C   0  0  0  0  0  0  0  0  0  0  0  0
   58.6830   22.1690   44.9610 C   0  0  0  0  0  0  0  0  0  0  0  0
   60.0470   22.4650   45.2640 N   0  0  0  0  0  0  0  0  0  0  0  0
   57.7110   22.4740   45.8600 N   0  0  0  0  0  0  0  0  0  0  0  0
   58.9880   26.1600   45.8490 C   0  0  0  0  0  0  0  0  0  0  0  0
   59.8160   27.2800   45.7720 C   0  0  0  0  0  0  0  0  0  0  0  0
   59.2960   28.5350   45.4160 C   0  0  0  0  0  0  0  0  0  0  0  0
   60.2260   29.7190   45.3750 C   0  0  0  0  0  0  0  0  0  0  0  0
   59.2366   32.4202   48.9958 H   0  0  0  0  0  0  0  0  0  0  0  0
   58.6657   31.0578   47.9737 H   0  0  0  0  0  0  0  0  0  0  0  0
   60.4032   31.5140   47.9737 H   0  0  0  0  0  0  0  0  0  0  0  0
   60.5597   34.3091   47.6356 H   0  0  0  0  0  0  0  0  0  0  0  0
   60.1115   35.9459   45.8112 H   0  0  0  0  0  0  0  0  0  0  0  0
   58.4419   35.4192   44.0365 H   0  0  0  0  0  0  0  0  0  0  0  0
   57.1832   33.2701   44.1050 H   0  0  0  0  0  0  0  0  0  0  0  0
   56.0201   27.6080   44.9892 H   0  0  0  0  0  0  0  0  0  0  0  0
   57.1020   24.2220   45.3290 H   0  0  0  0  0  0  0  0  0  0  0  0
   53.4544   24.2558   46.1762 H   0  0  0  0  0  0  0  0  0  0  0  0
   54.4302   23.7218   44.7565 H   0  0  0  0  0  0  0  0  0  0  0  0
   59.1109   21.3062   43.0078 H   0  0  0  0  0  0  0  0  0  0  0  0
   60.8100   22.2090   44.5990 H   0  0  0  0  0  0  0  0  0  0  0  0
   60.2920   22.9750   46.1420 H   0  0  0  0  0  0  0  0  0  0  0  0
   59.4148   25.1805   46.1104 H   0  0  0  0  0  0  0  0  0  0  0  0
   60.8889   27.1790   45.9927 H   0  0  0  0  0  0  0  0  0  0  0  0
   60.4698   30.0294   46.4017 H   0  0  0  0  0  0  0  0  0  0  0  0
   61.1500   29.4414   44.8467 H   0  0  0  0  0  0  0  0  0  0  0  0
   59.7374   30.5509   44.8467 H   0  0  0  0  0  0  0  0  0  0  0  0
  1  2  1  0
  2  3  2  0
  3  4  1  0
  4  5  2  0
  5  6  1  0
  6  7  2  0
  7  8  1  0
  8  9  1  0
  9 10  2  0
  9 11  2  0
  9 12  1  0
 12 13  2  0
 13 14  1  0
 14 15  1  0
 15 16  1  0
 16 17  2  0
 16 18  1  0
 18 19  1  0
 19 20  1  0
 20 21  2  0
 21 22  1  0
 22 23  2  0
 22 24  1  0
 24 25  2  0
 25 26  1  0
 25 27  1  0
 14 28  2  0
 28 29  1  0
 29 30  2  0
 30 31  1  0
  7  2  1  0
 30 12  1  0
 27 20  1  0
  1 32  1  0
  1 33  1  0
  1 34  1  0
  3 35  1  0
  4 36  1  0
  5 37  1  0
  6 38  1  0
 13 39  1  0
 15 40  1  0
 18 41  1  0
 18 42  1  0
 24 43  1  0
 26 44  1  0
 26 45  1  0
 28 46  1  0
 29 47  1  0
 31 48  1  0
 31 49  1  0
 31 50  1  0
M  CHG  2   8  -1  27  -1
M  END
>  <UniqueID>  (40) 
35

>  <SMILES>  (40) 
Cc1ccccc1[N-]S(=O)(=O)c1cc(NC(=O)CSc2nc(=O)cc(N)[n-]2)ccc1C

>  <Energy>  (40) 
55.912873357431934

>  <Genealogy>  (40) 
Cc1ccccc1[N-]S(=O)(=O)c1cc(NC(=O)CSc2nc(=O)cc(N)[n-]2)ccc1C (protonated)
Cc1ccccc1[N-]S(=O)(=O)c1cc(NC(=O)CSc2nc(=O)cc(N)[n-]2)ccc1C (3D coordinates assigned)
Cc1ccccc1[N-]S(=O)(=O)c1cc(NC(=O)CSc2nc(=O)cc(N)[n-]2)ccc1C (optimized conformer: 55.912873357431934 kcal/mol)

>  <smiles>  (40) 
Cc1ccccc1NS(=O)(=O)c1cc(NC(=O)CSc2nc(=O)cc(N)[nH]2)ccc1C

>  <score_type>  (40) 
oracle

>  <origin>  (40) 
adg

>  <m_score__min__energy>  (40) 
-12.85

>  <m_primary>  (40) 
energy

$$$$
40:0
     RDKit          3D

 67 71  0  0  1  0  0  0  0  0999 V2000
   57.9610   28.0940   43.8720 C   0  0  0  0  0  0  0  0  0  0  0  0
   58.6190   28.2330   45.1780 C   0  0  0  0  0  0  0  0  0  0  0  0
   59.6210   27.3460   45.5080 C   0  0  0  0  0  0  0  0  0  0  0  0
   60.2510   27.4590   46.7300 C   0  0  0  0  0  0  0  0  0  0  0  0
   59.9360   28.4220   47.6630 C   0  0  0  0  0  0  0  0  0  0  0  0
   60.6230   28.5190   48.9610 C   0  0  0  0  0  0  0  0  0  0  0  0
   61.0660   27.5140   49.5700 O   0  0  0  0  0  0  0  0  0  0  0  0
   60.7560   29.8390   49.4900 N   0  0  0  0  0  0  0  0  0  0  0  0
   61.5470   30.6420   48.8670 C   0  0  0  0  0  0  0  0  0  0  0  0
   62.5320   31.3420   49.3590 N   0  0  0  0  0  0  0  0  0  0  0  0
   63.2530   32.1180   48.5910 C   0  0  0  0  0  0  0  0  0  0  0  0
   64.4080   32.9500   49.1370 C   0  0  0  0  0  0  0  0  0  0  0  0
   64.5980   32.7130   50.5440 N   0  0  0  0  0  0  0  0  0  0  0  0
   65.9790   32.4200   50.8740 C   0  0  0  0  0  0  0  0  0  0  0  0
   64.0510   33.7550   51.3840 C   0  0  0  0  0  0  0  0  0  0  0  0
   62.9510   32.1840   47.2590 C   0  0  0  0  0  0  0  0  0  0  0  0
   61.4840   31.0050   47.1060 S   0  0  0  0  0  0  0  0  0  0  0  0
   58.9280   29.3130   47.3300 C   0  0  0  0  0  0  0  0  0  0  0  0
   58.2930   29.2080   46.1100 C   0  0  0  0  0  0  0  0  0  0  0  0
   57.2400   30.1050   45.7170 N   0  0  0  0  0  0  0  0  0  0  0  0
   57.5860   31.2620   45.2170 C   0  0  0  0  0  0  0  0  0  0  0  0
   57.4190   31.5670   43.9220 N   0  0  0  0  0  0  0  0  0  0  0  0
   57.7680   32.7440   43.3750 C   0  0  0  0  0  0  0  0  0  0  0  0
   58.3190   33.6750   44.1730 N   0  0  0  0  0  0  0  0  0  0  0  0
   58.5340   33.4710   45.5030 C   0  0  0  0  0  0  0  0  0  0  0  0
   59.1030   34.4540   46.2850 C   0  0  0  0  0  0  0  0  0  0  0  0
   59.2880   34.1770   47.6090 N   0  0  0  0  0  0  0  0  0  0  0  0
   58.9150   32.9660   48.1100 C   0  0  0  0  0  0  0  0  0  0  0  0
   59.1390   32.7420   49.5050 N   0  0  0  0  0  0  0  0  0  0  0  0
   58.4310   31.6900   50.1630 C   0  0  0  0  0  0  0  0  0  0  0  0
   58.8110   31.5730   51.6120 C   0  0  0  0  0  0  0  0  0  0  0  0
   58.7660   32.8770   52.2180 N   0  0  0  0  0  0  0  0  0  0  0  0
   57.4280   33.3920   52.3650 C   0  0  0  0  0  0  0  0  0  0  0  0
   59.6850   33.8220   51.6610 C   0  0  0  0  0  0  0  0  0  0  0  0
   60.0600   33.5470   50.2420 C   0  0  0  0  0  0  0  0  0  0  0  0
   58.3600   32.0170   47.3310 N   0  0  0  0  0  0  0  0  0  0  0  0
   58.1550   32.2330   46.0230 C   0  0  0  0  0  0  0  0  0  0  0  0
   56.8946   27.8687   44.0208 H   0  0  0  0  0  0  0  0  0  0  0  0
   58.0622   29.0333   43.3086 H   0  0  0  0  0  0  0  0  0  0  0  0
   58.4334   27.2758   43.3086 H   0  0  0  0  0  0  0  0  0  0  0  0
   59.9158   26.5548   44.8030 H   0  0  0  0  0  0  0  0  0  0  0  0
   61.0483   26.7410   46.9725 H   0  0  0  0  0  0  0  0  0  0  0  0
   62.7530   31.2720   50.4280 H   0  0  0  0  0  0  0  0  0  0  0  0
   65.3296   32.6814   48.5998 H   0  0  0  0  0  0  0  0  0  0  0  0
   64.1714   34.0143   48.9909 H   0  0  0  0  0  0  0  0  0  0  0  0
   66.0973   32.3949   51.9673 H   0  0  0  0  0  0  0  0  0  0  0  0
   66.2573   31.4428   50.4525 H   0  0  0  0  0  0  0  0  0  0  0  0
   66.6301   33.2000   50.4525 H   0  0  0  0  0  0  0  0  0  0  0  0
   64.1923   33.4858   52.4411 H   0  0  0  0  0  0  0  0  0  0  0  0
   64.5675   34.7034   51.1750 H   0  0  0  0  0  0  0  0  0  0  0  0
   62.9770   33.8685   51.1750 H   0  0  0  0  0  0  0  0  0  0  0  0
   63.4408   32.7765   46.4723 H   0  0  0  0  0  0  0  0  0  0  0  0
   58.6348   30.1026   48.0375 H   0  0  0  0  0  0  0  0  0  0  0  0
   56.9900   30.8300   43.3190 H   0  0  0  0  0  0  0  0  0  0  0  0
   57.6073   32.9400   42.3046 H   0  0  0  0  0  0  0  0  0  0  0  0
   59.3967   35.4244   45.8583 H   0  0  0  0  0  0  0  0  0  0  0  0
   57.3518   31.8918   50.0945 H   0  0  0  0  0  0  0  0  0  0  0  0
   58.6924   30.7437   49.6668 H   0  0  0  0  0  0  0  0  0  0  0  0
   58.1045   30.9040   52.1251 H   0  0  0  0  0  0  0  0  0  0  0  0
   59.8272   31.1605   51.6961 H   0  0  0  0  0  0  0  0  0  0  0  0
   57.1863   33.4850   53.4341 H   0  0  0  0  0  0  0  0  0  0  0  0
   57.3609   34.3802   51.8866 H   0  0  0  0  0  0  0  0  0  0  0  0
   56.7156   32.7038   51.8866 H   0  0  0  0  0  0  0  0  0  0  0  0
   59.2252   34.8201   51.7092 H   0  0  0  0  0  0  0  0  0  0  0  0
   60.6098   33.7501   52.2522 H   0  0  0  0  0  0  0  0  0  0  0  0
   60.1552   34.5127   49.7239 H   0  0  0  0  0  0  0  0  0  0  0  0
   60.9960   32.9708   50.2845 H   0  0  0  0  0  0  0  0  0  0  0  0
  1  2  1  0
  2  3  2  0
  3  4  1  0
  4  5  2  0
  5  6  1  0
  6  7  2  0
  6  8  1  0
  8  9  2  0
  9 10  1  0
 10 11  1  0
 11 12  1  0
 12 13  1  0
 13 14  1  0
 13 15  1  0
 11 16  2  0
 16 17  1  0
  5 18  1  0
 18 19  2  0
 19 20  1  0
 20 21  2  0
 21 22  1  0
 22 23  1  0
 23 24  2  0
 24 25  1  0
 25 26  2  0
 26 27  1  0
 27 28  2  0
 28 29  1  0
 29 30  1  0
 30 31  1  0
 31 32  1  0
 32 33  1  0
 32 34  1  0
 34 35  1  0
 28 36  1  0
 36 37  2  0
 19  2  1  0
 37 21  1  0
 17  9  1  0
 37 25  1  0
 35 29  1  0
  1 38  1  0
  1 39  1  0
  1 40  1  0
  3 41  1  0
  4 42  1  0
 10 43  1  0
 12 44  1  0
 12 45  1  0
 14 46  1  0
 14 47  1  0
 14 48  1  0
 15 49  1  0
 15 50  1  0
 15 51  1  0
 16 52  1  0
 18 53  1  0
 22 54  1  0
 23 55  1  0
 26 56  1  0
 30 57  1  0
 30 58  1  0
 31 59  1  0
 31 60  1  0
 33 61  1  0
 33 62  1  0
 33 63  1  0
 34 64  1  0
 34 65  1  0
 35 66  1  0
 35 67  1  0
M  END
>  <smiles>  (41) 
Cc1ccc(C(=O)N=c2[nH]c(CN(C)C)cs2)cc1N=c1[nH]cnc2cnc(N3CCN(C)CC3)nc12

>  <score_type>  (41) 
oracle

>  <origin>  (41) 
adg

>  <m_score__min__energy>  (41) 
-9.4100000000000001

>  <m_primary>  (41) 
energy

$$$$
41:0
     RDKit          3D

 62 66  0  0  0  0  0  0  0  0999 V2000
   55.8762   31.2915   43.8504 H   0  0  0  0  0  0  0  0  0  0  0  0
   55.4830   30.3520   44.2660 C   0  0  0  0  0  0  0  0  0  0  0  0
   54.3973   30.1791   44.3037 H   0  0  0  0  0  0  0  0  0  0  0  0
   56.3240   29.4210   44.7250 C   0  0  0  0  0  0  0  0  0  0  0  0
   55.8780   28.2560   45.2420 N   0  0  0  0  0  0  0  0  0  0  0  0
   56.9120   27.5870   45.7290 N   0  0  0  0  0  0  0  0  0  0  0  0
   56.8010   26.2630   46.2840 C   0  0  0  0  0  0  0  0  0  0  0  0
   57.6810   25.8640   47.3060 C   0  0  0  0  0  0  0  0  0  0  0  0
   58.4662   26.5540   47.6486 H   0  0  0  0  0  0  0  0  0  0  0  0
   57.5680   24.6010   47.8900 C   0  0  0  0  0  0  0  0  0  0  0  0
   58.2559   24.3042   48.6954 H   0  0  0  0  0  0  0  0  0  0  0  0
   56.5840   23.7160   47.4530 C   0  0  0  0  0  0  0  0  0  0  0  0
   56.4870   22.7260   47.9225 H   0  0  0  0  0  0  0  0  0  0  0  0
   55.7210   24.0860   46.4190 C   0  0  0  0  0  0  0  0  0  0  0  0
   54.9537   23.3813   46.0660 H   0  0  0  0  0  0  0  0  0  0  0  0
   55.8300   25.3490   45.8320 C   0  0  0  0  0  0  0  0  0  0  0  0
   55.1533   25.6311   45.0119 H   0  0  0  0  0  0  0  0  0  0  0  0
   58.0320   28.3090   45.5130 C   0  0  0  0  0  0  0  0  0  0  0  0
   59.1980   27.9220   45.8010 O   0  0  0  0  0  0  0  0  0  0  0  0
   57.7190   29.4860   44.8540 C   0  0  0  0  0  0  0  0  0  0  0  0
   58.6170   30.3990   44.4330 C   0  0  0  0  0  0  0  0  0  0  0  0
   59.4299   30.0490   43.7797 H   0  0  0  0  0  0  0  0  0  0  0  0
   58.5920   31.8270   44.7810 C   0  0  0  0  0  0  0  0  0  0  0  0
   58.1300   32.8620   43.9740 C   0  0  0  0  0  0  0  0  0  0  0  0
   57.7855   32.7439   42.9360 H   0  0  0  0  0  0  0  0  0  0  0  0
   58.1650   34.0340   44.6480 N   0  0  0  0  0  0  0  0  0  0  0  0
   57.8790   34.9710   44.2840 H   0  0  0  0  0  0  0  0  0  0  0  0
   58.6180   33.7420   45.8800 C   0  0  0  0  0  0  0  0  0  0  0  0
   58.8150   34.6260   46.9390 C   0  0  0  0  0  0  0  0  0  0  0  0
   58.6182   35.7021   46.8240 H   0  0  0  0  0  0  0  0  0  0  0  0
   59.2740   34.0980   48.1610 C   0  0  0  0  0  0  0  0  0  0  0  0
   59.4672   34.7737   49.0072 H   0  0  0  0  0  0  0  0  0  0  0  0
   59.4890   32.7100   48.3120 C   0  0  0  0  0  0  0  0  0  0  0  0
   59.9360   32.2210   49.5420 O   0  0  0  0  0  0  0  0  0  0  0  0
   59.7790   32.9320   50.7730 C   0  0  0  0  0  0  0  0  0  0  0  0
   59.1392   33.8112   50.6063 H   0  0  0  0  0  0  0  0  0  0  0  0
   59.3150   32.2670   51.5163 H   0  0  0  0  0  0  0  0  0  0  0  0
   61.1400   33.3890   51.2920 C   0  0  0  0  0  0  0  0  0  0  0  0
   60.9882   34.1798   52.0414 H   0  0  0  0  0  0  0  0  0  0  0  0
   61.6477   32.5187   51.7334 H   0  0  0  0  0  0  0  0  0  0  0  0
   62.0240   33.9360   50.1650 C   0  0  0  0  0  0  0  0  0  0  0  0
   61.4130   34.1018   49.2654 H   0  0  0  0  0  0  0  0  0  0  0  0
   62.4750   34.8892   50.4779 H   0  0  0  0  0  0  0  0  0  0  0  0
   63.0920   32.9540   49.8650 N   0  0  0  0  0  0  0  0  0  0  0  0
   62.6100   31.6280   49.4000 C   0  0  0  0  0  0  0  0  0  0  0  0
   63.2267   30.8498   49.8733 H   0  0  0  0  0  0  0  0  0  0  0  0
   61.5494   31.5566   49.6830 H   0  0  0  0  0  0  0  0  0  0  0  0
   62.6790   31.4390   47.8710 C   0  0  0  0  0  0  0  0  0  0  0  0
   63.6349   30.9599   47.6128 H   0  0  0  0  0  0  0  0  0  0  0  0
   61.8304   30.8110   47.5621 H   0  0  0  0  0  0  0  0  0  0  0  0
   62.5790   32.7750   47.1370 C   0  0  0  0  0  0  0  0  0  0  0  0
   62.6291   32.5954   46.0529 H   0  0  0  0  0  0  0  0  0  0  0  0
   61.6242   33.2523   47.4026 H   0  0  0  0  0  0  0  0  0  0  0  0
   63.7270   33.7100   47.5460 C   0  0  0  0  0  0  0  0  0  0  0  0
   64.5896   33.5145   46.8920 H   0  0  0  0  0  0  0  0  0  0  0  0
   63.3645   34.7436   47.4450 H   0  0  0  0  0  0  0  0  0  0  0  0
   64.1660   33.5120   49.0150 C   0  0  0  0  0  0  0  0  0  0  0  0
   65.0237   32.8235   49.0355 H   0  0  0  0  0  0  0  0  0  0  0  0
   64.4266   34.5016   49.4185 H   0  0  0  0  0  0  0  0  0  0  0  0
   59.2780   31.8420   47.2180 C   0  0  0  0  0  0  0  0  0  0  0  0
   59.4344   30.7576   47.3165 H   0  0  0  0  0  0  0  0  0  0  0  0
   58.8650   32.4020   46.0080 C   0  0  0  0  0  0  0  0  0  0  0  0
  1  2  1  0
  2  3  1  0
  2  4  2  0
  4  5  1  0
  5  6  1  0
  6  7  1  0
  7  8  2  0
  8  9  1  0
  8 10  1  0
 10 11  1  0
 10 12  2  0
 12 13  1  0
 12 14  1  0
 14 15  1  0
 14 16  2  0
 16 17  1  0
  6 18  1  0
 18 19  2  0
 18 20  1  0
 20 21  2  0
 21 22  1  0
 21 23  1  0
 23 24  2  0
 24 25  1  0
 24 26  1  0
 26 27  1  0
 26 28  1  0
 28 29  2  0
 29 30  1  0
 29 31  1  0
 31 32  1  0
 31 33  2  0
 33 34  1  0
 34 35  1  0
 35 36  1  0
 35 37  1  0
 35 38  1  0
 38 39  1  0
 38 40  1  0
 38 41  1  0
 41 42  1  0
 41 43  1  0
 41 44  1  0
 44 45  1  0
 45 46  1  0
 45 47  1  0
 45 48  1  0
 48 49  1  0
 48 50  1  0
 48 51  1  0
 51 52  1  0
 51 53  1  0
 51 54  1  0
 54 55  1  0
 54 56  1  0
 54 57  1  0
 57 58  1  0
 57 59  1  0
 33 60  1  0
 60 61  1  0
 60 62  2  0
 20  4  1  0
 62 23  1  0
 16  7  1  0
 62 28  1  0
 57 44  1  0
M  CHG  1   5  -1
M  END
>  <UniqueID>  (42) 
36

>  <SMILES>  (42) 
C=c1[n-]n(-c2ccccc2)c(=O)/c1=C/c1c[nH]c2ccc(OCCCN3CCCCC3)cc12

>  <Energy>  (42) 
156.60222547550475

>  <Genealogy>  (42) 
C=c1[n-]n(-c2ccccc2)c(=O)c1=Cc1c[nH]c2ccc(OCCCN3CCCCC3)cc12 (protonated)
C=c1[n-]n(-c2ccccc2)c(=O)/c1=C/c1c[nH]c2ccc(OCCCN3CCCCC3)cc12 (cis-trans isomerization)
C=c1[n-]n(-c2ccccc2)c(=O)/c1=C/c1c[nH]c2ccc(OCCCN3CCCCC3)cc12 (3D coordinates assigned)
C=c1[n-]n(-c2ccccc2)c(=O)/c1=C/c1c[nH]c2ccc(OCCCN3CCCCC3)cc12 (nonaromatic ring conformer: 156.60222547550475 kcal/mol)

>  <smiles>  (42) 
C=c1[nH]n(-c2ccccc2)c(=O)c1=Cc1c[nH]c2ccc(OCCCN3CCCCC3)cc12

>  <score_type>  (42) 
oracle

>  <origin>  (42) 
adg

>  <m_score__min__energy>  (42) 
-10.49

>  <m_primary>  (42) 
energy

$$$$
42:0
     RDKit          3D

 37 39  0  0  0  0  0  0  0  0999 V2000
   58.4300   27.2510   43.5410 C   0  0  0  0  0  0  0  0  0  0  0  0
   58.5590   28.5030   44.3070 N   0  0  1  0  0  0  0  0  0  0  0  0
   57.4210   28.6640   45.2500 C   0  0  0  0  0  0  0  0  0  0  0  0
   56.3590   29.5990   44.7130 C   0  0  0  0  0  0  0  0  0  0  0  0
   55.1420   29.3340   44.8900 O   0  0  0  0  0  0  0  0  0  0  0  0
   56.7000   30.8150   44.0330 N   0  0  0  0  0  0  0  0  0  0  0  0
   57.4260   31.9250   44.5800 C   0  0  0  0  0  0  0  0  0  0  0  0
   58.1450   32.7700   43.7010 C   0  0  0  0  0  0  0  0  0  0  0  0
   58.8900   33.8540   44.1990 C   0  0  0  0  0  0  0  0  0  0  0  0
   58.9080   34.0500   45.5760 C   0  0  0  0  0  0  0  0  0  0  0  0
   58.2420   33.2310   46.4270 C   0  0  0  0  0  0  0  0  0  0  0  0
   57.4930   32.1490   45.9750 C   0  0  0  0  0  0  0  0  0  0  0  0
   58.4480   33.6500   47.7280 O   0  0  0  0  0  0  0  0  0  0  0  0
   59.2940   34.8090   47.6900 C   0  0  0  0  0  0  0  0  0  0  0  0
   59.5650   35.0280   46.2980 O   0  0  0  0  0  0  0  0  0  0  0  0
   60.0860   28.4870   45.1620 S   0  0  0  0  0  0  0  0  0  0  0  0
   61.1960   28.9130   44.2410 O   0  0  0  0  0  0  0  0  0  0  0  0
   60.3940   27.1100   45.6780 O   0  0  0  0  0  0  0  0  0  0  0  0
   60.0120   29.5890   46.5260 C   0  0  0  0  0  0  0  0  0  0  0  0
   60.8490   30.6760   46.7260 C   0  0  0  0  0  0  0  0  0  0  0  0
   60.5800   31.3600   47.9170 C   0  0  0  0  0  0  0  0  0  0  0  0
   59.5380   30.8000   48.6440 C   0  0  0  0  0  0  0  0  0  0  0  0
   58.8790   31.4340   50.3160 Br  0  0  0  0  0  0  0  0  0  0  0  0
   58.9450   29.4600   47.8190 S   0  0  0  0  0  0  0  0  0  0  0  0
   58.3426   26.4031   44.2363 H   0  0  0  0  0  0  0  0  0  0  0  0
   57.5321   27.2996   42.9074 H   0  0  0  0  0  0  0  0  0  0  0  0
   59.3189   27.1155   42.9074 H   0  0  0  0  0  0  0  0  0  0  0  0
   58.5800   29.2890   43.6150 H   0  0  0  0  0  0  0  0  0  0  0  0
   56.9671   27.6781   45.4284 H   0  0  0  0  0  0  0  0  0  0  0  0
   57.8137   29.0994   46.1807 H   0  0  0  0  0  0  0  0  0  0  0  0
   58.1208   32.5770   42.6183 H   0  0  0  0  0  0  0  0  0  0  0  0
   59.4400   34.5244   43.5222 H   0  0  0  0  0  0  0  0  0  0  0  0
   56.9690   31.4880   46.6810 H   0  0  0  0  0  0  0  0  0  0  0  0
   58.7783   35.6781   48.1245 H   0  0  0  0  0  0  0  0  0  0  0  0
   60.2163   34.6655   48.2720 H   0  0  0  0  0  0  0  0  0  0  0  0
   61.6416   30.9701   46.0222 H   0  0  0  0  0  0  0  0  0  0  0  0
   61.1372   32.2504   48.2438 H   0  0  0  0  0  0  0  0  0  0  0  0
  1  2  1  0
  2  3  1  0
  3  4  1  0
  4  5  2  0
  4  6  1  0
  6  7  1  0
  7  8  2  0
  8  9  1  0
  9 10  2  0
 10 11  1  0
 11 12  2  0
 11 13  1  0
 13 14  1  0
 14 15  1  0
  2 16  1  0
 16 17  2  0
 16 18  2  0
 16 19  1  0
 19 20  2  0
 20 21  1  0
 21 22  2  0
 22 23  1  0
 22 24  1  0
 12  7  1  0
 24 19  1  0
 15 10  1  0
  1 25  1  0
  1 26  1  0
  1 27  1  0
  2 28  1  6
  3 29  1  0
  3 30  1  0
  8 31  1  0
  9 32  1  0
 12 33  1  0
 14 34  1  0
 14 35  1  0
 20 36  1  0
 21 37  1  0
M  CHG  2   2   1   6  -1
M  END
>  <UniqueID>  (43) 
37

>  <SMILES>  (43) 
C[N@@H+](CC(=O)[N-]c1ccc2c(c1)OCO2)S(=O)(=O)c1ccc(Br)s1

>  <Energy>  (43) 
99.35202748643674

>  <Genealogy>  (43) 
C[NH+](CC(=O)[N-]c1ccc2c(c1)OCO2)S(=O)(=O)c1ccc(Br)s1 (protonated)
C[N@@H+](CC(=O)[N-]c1ccc2c(c1)OCO2)S(=O)(=O)c1ccc(Br)s1 (chirality)
C[N@@H+](CC(=O)[N-]c1ccc2c(c1)OCO2)S(=O)(=O)c1ccc(Br)s1 (3D coordinates assigned)
C[N@@H+](CC(=O)[N-]c1ccc2c(c1)OCO2)S(=O)(=O)c1ccc(Br)s1 (nonaromatic ring conformer: 99.35202748643674 kcal/mol)

>  <smiles>  (43) 
CN(CC(=O)Nc1ccc2c(c1)OCO2)S(=O)(=O)c1ccc(Br)s1

>  <score_type>  (43) 
oracle

>  <origin>  (43) 
adg

>  <m_score__min__energy>  (43) 
-9.1099999999999994

>  <m_primary>  (43) 
energy

$$$$
43:0
     RDKit          3D

 45 47  0  0  0  0  0  0  0  0999 V2000
   54.5540   31.1950   52.0050 C   0  0  0  0  0  0  0  0  0  0  0  0
   55.3110   30.1280   52.6640 N   0  0  0  0  0  0  0  0  0  0  0  0
   54.6060   29.1840   53.5320 C   0  0  0  0  0  0  0  0  0  0  0  0
   56.7220   29.9570   52.4350 C   0  0  0  0  0  0  0  0  0  0  0  0
   57.2010   28.7900   52.3810 O   0  0  0  0  0  0  0  0  0  0  0  0
   57.6340   31.1140   52.2760 C   0  0  0  0  0  0  0  0  0  0  0  0
   58.3190   31.6460   53.3810 C   0  0  0  0  0  0  0  0  0  0  0  0
   59.1710   32.7400   53.2240 C   0  0  0  0  0  0  0  0  0  0  0  0
   59.3660   33.3020   51.9600 C   0  0  0  0  0  0  0  0  0  0  0  0
   58.7250   32.7610   50.8370 C   0  0  0  0  0  0  0  0  0  0  0  0
   58.9290   33.3680   49.5500 N   0  0  0  0  0  0  0  0  0  0  0  0
   59.0790   32.6240   48.3290 C   0  0  0  0  0  0  0  0  0  0  0  0
   59.2900   31.3810   48.3630 O   0  0  0  0  0  0  0  0  0  0  0  0
   59.0540   33.3200   47.0240 C   0  0  0  0  0  0  0  0  0  0  0  0
   59.5460   34.6330   46.9550 C   0  0  0  0  0  0  0  0  0  0  0  0
   59.5840   35.3010   45.7300 C   0  0  0  0  0  0  0  0  0  0  0  0
   60.0320   36.4750   45.6650 O   0  0  0  0  0  0  0  0  0  0  0  0
   59.1430   34.6860   44.6040 N   0  0  0  0  0  0  0  0  0  0  0  0
   58.6490   33.4200   44.6230 C   0  0  0  0  0  0  0  0  0  0  0  0
   58.1950   32.8410   43.4330 C   0  0  0  0  0  0  0  0  0  0  0  0
   57.6610   31.5520   43.4380 C   0  0  0  0  0  0  0  0  0  0  0  0
   57.5740   30.8290   44.6340 C   0  0  0  0  0  0  0  0  0  0  0  0
   56.8650   29.2160   44.6410 S   0  0  0  0  0  0  0  0  0  0  0  0
   55.1480   29.3410   44.7850 N   0  0  0  0  0  0  0  0  0  0  0  0
   57.4090   28.4280   45.7990 O   0  0  0  0  0  0  0  0  0  0  0  0
   57.2110   28.5000   43.3660 O   0  0  0  0  0  0  0  0  0  0  0  0
   58.0210   31.4040   45.8310 C   0  0  0  0  0  0  0  0  0  0  0  0
   58.5830   32.6980   45.8400 C   0  0  0  0  0  0  0  0  0  0  0  0
   57.8480   31.6730   51.0050 C   0  0  0  0  0  0  0  0  0  0  0  0
   54.0946   31.8426   52.7663 H   0  0  0  0  0  0  0  0  0  0  0  0
   55.2320   31.7915   51.3769 H   0  0  0  0  0  0  0  0  0  0  0  0
   53.7670   30.7521   51.3769 H   0  0  0  0  0  0  0  0  0  0  0  0
   54.7974   29.4403   54.5844 H   0  0  0  0  0  0  0  0  0  0  0  0
   53.5257   29.2385   53.3320 H   0  0  0  0  0  0  0  0  0  0  0  0
   54.9649   28.1636   53.3320 H   0  0  0  0  0  0  0  0  0  0  0  0
   58.1830   31.1975   54.3762 H   0  0  0  0  0  0  0  0  0  0  0  0
   59.6903   33.1608   54.0976 H   0  0  0  0  0  0  0  0  0  0  0  0
   60.0264   34.1742   51.8453 H   0  0  0  0  0  0  0  0  0  0  0  0
   59.0170   34.4080   49.5120 H   0  0  0  0  0  0  0  0  0  0  0  0
   59.9017   35.1355   47.8666 H   0  0  0  0  0  0  0  0  0  0  0  0
   58.2593   33.4040   42.4902 H   0  0  0  0  0  0  0  0  0  0  0  0
   57.3070   31.1020   42.4988 H   0  0  0  0  0  0  0  0  0  0  0  0
   54.7350   28.6710   44.0990 H   0  0  0  0  0  0  0  0  0  0  0  0
   57.9329   30.8414   46.7722 H   0  0  0  0  0  0  0  0  0  0  0  0
   57.3247   31.2560   50.1319 H   0  0  0  0  0  0  0  0  0  0  0  0
  1  2  1  0
  2  3  1  0
  2  4  1  0
  4  5  2  0
  4  6  1  0
  6  7  2  0
  7  8  1  0
  8  9  2  0
  9 10  1  0
 10 11  1  0
 11 12  1  0
 12 13  2  0
 12 14  1  0
 14 15  2  0
 15 16  1  0
 16 17  2  0
 16 18  1  0
 18 19  1  0
 19 20  2  0
 20 21  1  0
 21 22  2  0
 22 23  1  0
 23 24  1  0
 23 25  2  0
 23 26  2  0
 22 27  1  0
 27 28  2  0
 10 29  2  0
 29  6  1  0
 28 14  1  0
 28 19  1  0
  1 30  1  0
  1 31  1  0
  1 32  1  0
  3 33  1  0
  3 34  1  0
  3 35  1  0
  7 36  1  0
  8 37  1  0
  9 38  1  0
 11 39  1  0
 15 40  1  0
 20 41  1  0
 21 42  1  0
 24 43  1  0
 27 44  1  0
 29 45  1  0
M  CHG  2  18  -1  24  -1
M  END
>  <UniqueID>  (44) 
38

>  <SMILES>  (44) 
CN(C)C(=O)c1cccc(NC(=O)c2cc(=O)[n-]c3ccc(S([NH-])(=O)=O)cc23)c1

>  <Energy>  (44) 
64.06374808245171

>  <Genealogy>  (44) 
CN(C)C(=O)c1cccc(NC(=O)c2cc(=O)[n-]c3ccc(S([NH-])(=O)=O)cc23)c1 (protonated)
CN(C)C(=O)c1cccc(NC(=O)c2cc(=O)[n-]c3ccc(S([NH-])(=O)=O)cc23)c1 (3D coordinates assigned)
CN(C)C(=O)c1cccc(NC(=O)c2cc(=O)[n-]c3ccc(S([NH-])(=O)=O)cc23)c1 (optimized conformer: 64.06374808245171 kcal/mol)

>  <smiles>  (44) 
CN(C)C(=O)c1cccc(NC(=O)c2cc(=O)[nH]c3ccc(S(N)(=O)=O)cc23)c1

>  <score_type>  (44) 
oracle

>  <origin>  (44) 
adg

>  <m_score__min__energy>  (44) 
-12.51

>  <m_primary>  (44) 
energy

$$$$
44:0
     RDKit          3D

 31 32  0  0  1  0  0  0  0  0999 V2000
   54.5740   24.2050   46.6200 O   0  0  0  0  0  0  0  0  0  0  0  0
   55.8190   24.6180   46.2680 N   0  0  0  0  0  0  0  0  0  0  0  0
   57.9060   26.9280   44.6400 C   0  0  0  0  0  0  0  0  0  0  0  0
   55.0770   26.7310   46.0740 O   0  0  0  0  0  0  0  0  0  0  0  0
   56.1230   25.8540   45.9510 C   0  0  0  0  0  0  0  0  0  0  0  0
   57.4690   26.0840   45.5240 C   0  0  0  0  0  0  0  0  0  0  0  0
   58.0550   28.3470   44.7580 C   0  0  0  0  0  0  0  0  0  0  0  0
   59.1690   28.8070   45.4430 C   0  0  0  0  0  0  0  0  0  0  0  0
   59.3600   30.1190   45.6890 C   0  0  0  0  0  0  0  0  0  0  0  0
   58.4770   31.1000   45.2870 C   0  0  0  0  0  0  0  0  0  0  0  0
   58.7510   32.5010   45.5900 C   0  0  0  0  0  0  0  0  0  0  0  0
   58.6110   33.4560   44.5980 C   0  0  0  0  0  0  0  0  0  0  0  0
   58.8820   34.7880   44.9230 C   0  0  0  0  0  0  0  0  0  0  0  0
   59.2750   35.1030   46.2100 C   0  0  0  0  0  0  0  0  0  0  0  0
   59.4180   34.1640   47.2080 C   0  0  0  0  0  0  0  0  0  0  0  0
   59.1500   32.8470   46.8810 C   0  0  0  0  0  0  0  0  0  0  0  0
   57.3590   30.6740   44.6070 C   0  0  0  0  0  0  0  0  0  0  0  0
   57.1640   29.3140   44.3540 C   0  0  0  0  0  0  0  0  0  0  0  0
   53.7710   24.8190   46.7490 H   0  0  0  0  0  0  0  0  0  0  0  0
   54.3440   26.6940   46.7790 H   0  0  0  0  0  0  0  0  0  0  0  0
   58.2359   25.4627   46.0097 H   0  0  0  0  0  0  0  0  0  0  0  0
   58.2008   26.4959   43.6723 H   0  0  0  0  0  0  0  0  0  0  0  0
   59.9175   28.0820   45.7954 H   0  0  0  0  0  0  0  0  0  0  0  0
   60.2643   30.4221   46.2371 H   0  0  0  0  0  0  0  0  0  0  0  0
   58.2954   33.1746   43.5825 H   0  0  0  0  0  0  0  0  0  0  0  0
   58.7836   35.5770   44.1628 H   0  0  0  0  0  0  0  0  0  0  0  0
   59.4841   36.1561   46.4495 H   0  0  0  0  0  0  0  0  0  0  0  0
   59.7322   34.4498   48.2227 H   0  0  0  0  0  0  0  0  0  0  0  0
   59.2526   32.0643   47.6471 H   0  0  0  0  0  0  0  0  0  0  0  0
   56.6157   31.4075   44.2612 H   0  0  0  0  0  0  0  0  0  0  0  0
   56.2603   29.0035   43.8090 H   0  0  0  0  0  0  0  0  0  0  0  0
  1  2  1  0
  2  3  2  0
  3  4  1  0
  3  5  1  0
  5  6  2  0
  6  7  1  0
  7  8  2  0
  8  9  1  0
  9 10  2  0
 10 11  1  0
 11 12  2  0
 12 13  1  0
 13 14  2  0
 14 15  1  0
 15 16  2  0
 10 17  1  0
 17 18  2  0
 18  7  1  0
 16 11  1  0
  1 19  1  0
  4 20  1  0
  5 21  1  0
  6 22  1  0
  8 23  1  0
  9 24  1  0
 12 25  1  0
 13 26  1  0
 14 27  1  0
 15 28  1  0
 16 29  1  0
 17 30  1  0
 18 31  1  0
M  END
>  <smiles>  (45) 
ON=C(O)C=Cc1ccc(-c2ccccc2)cc1

>  <score_type>  (45) 
oracle

>  <origin>  (45) 
adg

>  <m_score__min__energy>  (45) 
-8.5399999999999991

>  <m_primary>  (45) 
energy

$$$$
45:0
     RDKit          3D

 40 41  0  0  0  0  0  0  0  0999 V2000
   55.5240   28.8750   44.8640 O   0  0  0  0  0  0  0  0  0  0  0  0
   56.5020   29.6640   44.7740 C   0  0  0  0  0  0  0  0  0  0  0  0
   57.8960   29.1020   44.6650 C   0  0  0  0  0  0  0  0  0  0  0  0
   57.9520   27.7530   43.9320 C   0  0  0  0  0  0  0  0  0  0  0  0
   57.9440   26.5200   44.8540 C   0  0  0  0  0  0  0  0  0  0  0  0
   57.1310   26.7060   46.1610 C   0  0  0  0  0  0  0  0  0  0  0  0
   55.8870   25.8470   46.2490 C   0  0  0  0  0  0  0  0  0  0  0  0
   54.7610   26.3390   45.9690 O   0  0  0  0  0  0  0  0  0  0  0  0
   55.9190   24.5450   46.8490 N   0  0  0  0  0  0  0  0  0  0  0  0
   55.9580   23.2810   46.1770 C   0  0  0  0  0  0  0  0  0  0  0  0
   56.7000   23.1030   44.9990 C   0  0  0  0  0  0  0  0  0  0  0  0
   56.6650   21.8820   44.3200 C   0  0  0  0  0  0  0  0  0  0  0  0
   55.8770   20.8340   44.8040 C   0  0  0  0  0  0  0  0  0  0  0  0
   55.8400   19.6520   44.1430 F   0  0  0  0  0  0  0  0  0  0  0  0
   55.1150   21.0120   45.9620 C   0  0  0  0  0  0  0  0  0  0  0  0
   55.1450   22.2370   46.6400 C   0  0  0  0  0  0  0  0  0  0  0  0
   54.3870   22.4040   47.7530 F   0  0  0  0  0  0  0  0  0  0  0  0
   56.2490   31.0770   44.7580 N   0  0  0  0  0  0  0  0  0  0  0  0
   57.1500   32.1050   45.1900 C   0  0  0  0  0  0  0  0  0  0  0  0
   57.4070   33.2400   44.3990 C   0  0  0  0  0  0  0  0  0  0  0  0
   58.2620   34.2430   44.8640 C   0  0  0  0  0  0  0  0  0  0  0  0
   58.8830   34.1120   46.1100 C   0  0  0  0  0  0  0  0  0  0  0  0
   59.9300   35.3850   46.7070 Cl  0  0  0  0  0  0  0  0  0  0  0  0
   58.6680   32.9640   46.8790 C   0  0  0  0  0  0  0  0  0  0  0  0
   57.8160   31.9590   46.4140 C   0  0  0  0  0  0  0  0  0  0  0  0
   58.5212   29.8229   44.1178 H   0  0  0  0  0  0  0  0  0  0  0  0
   58.2594   28.9315   45.6891 H   0  0  0  0  0  0  0  0  0  0  0  0
   57.0792   27.6884   43.2657 H   0  0  0  0  0  0  0  0  0  0  0  0
   58.9103   27.7317   43.3924 H   0  0  0  0  0  0  0  0  0  0  0  0
   57.5118   25.6758   44.2966 H   0  0  0  0  0  0  0  0  0  0  0  0
   58.9875   26.3445   45.1544 H   0  0  0  0  0  0  0  0  0  0  0  0
   57.7831   26.4559   47.0108 H   0  0  0  0  0  0  0  0  0  0  0  0
   56.7926   27.7526   46.1751 H   0  0  0  0  0  0  0  0  0  0  0  0
   57.3124   23.9290   44.6081 H   0  0  0  0  0  0  0  0  0  0  0  0
   57.2582   21.7456   43.4038 H   0  0  0  0  0  0  0  0  0  0  0  0
   54.4912   20.1892   46.3412 H   0  0  0  0  0  0  0  0  0  0  0  0
   56.9333   33.3382   43.4111 H   0  0  0  0  0  0  0  0  0  0  0  0
   58.4466   35.1363   44.2492 H   0  0  0  0  0  0  0  0  0  0  0  0
   59.1703   32.8521   47.8512 H   0  0  0  0  0  0  0  0  0  0  0  0
   57.6673   31.0480   47.0123 H   0  0  0  0  0  0  0  0  0  0  0  0
  1  2  2  0
  2  3  1  0
  3  4  1  0
  4  5  1  0
  5  6  1  0
  6  7  1  0
  7  8  2  0
  7  9  1  0
  9 10  1  0
 10 11  2  0
 11 12  1  0
 12 13  2  0
 13 14  1  0
 13 15  1  0
 15 16  2  0
 16 17  1  0
  2 18  1  0
 18 19  1  0
 19 20  2  0
 20 21  1  0
 21 22  2  0
 22 23  1  0
 22 24  1  0
 24 25  2  0
 16 10  1  0
 25 19  1  0
  3 26  1  0
  3 27  1  0
  4 28  1  0
  4 29  1  0
  5 30  1  0
  5 31  1  0
  6 32  1  0
  6 33  1  0
 11 34  1  0
 12 35  1  0
 15 36  1  0
 20 37  1  0
 21 38  1  0
 24 39  1  0
 25 40  1  0
M  CHG  2   9  -1  18  -1
M  END
>  <UniqueID>  (46) 
39

>  <SMILES>  (46) 
O=C(CCCCC(=O)[N-]c1ccc(F)cc1F)[N-]c1ccc(Cl)cc1

>  <Energy>  (46) 
45.88278483009264

>  <Genealogy>  (46) 
O=C(CCCCC(=O)[N-]c1ccc(F)cc1F)[N-]c1ccc(Cl)cc1 (protonated)
O=C(CCCCC(=O)[N-]c1ccc(F)cc1F)[N-]c1ccc(Cl)cc1 (3D coordinates assigned)
O=C(CCCCC(=O)[N-]c1ccc(F)cc1F)[N-]c1ccc(Cl)cc1 (optimized conformer: 45.88278483009264 kcal/mol)

>  <smiles>  (46) 
O=C(CCCCC(=O)Nc1ccc(F)cc1F)Nc1ccc(Cl)cc1

>  <score_type>  (46) 
oracle

>  <origin>  (46) 
adg

>  <m_score__min__energy>  (46) 
-11.1

>  <m_primary>  (46) 
energy

$$$$
46:0
     RDKit          3D

 27 29  0  0  0  0  0  0  0  0999 V2000
   59.6319   35.6851   46.8967 H   0  0  0  0  0  0  0  0  0  0  0  0
   59.4390   34.6180   46.7120 C   0  0  0  0  0  0  0  0  0  0  0  0
   60.3430   33.6580   47.1620 C   0  0  0  0  0  0  0  0  0  0  0  0
   61.2532   33.9605   47.7005 H   0  0  0  0  0  0  0  0  0  0  0  0
   60.0810   32.3090   46.9220 C   0  0  0  0  0  0  0  0  0  0  0  0
   60.7869   31.5424   47.2742 H   0  0  0  0  0  0  0  0  0  0  0  0
   58.9540   31.9380   46.2530 N   0  0  0  0  0  0  0  0  0  0  0  0
   58.7880   30.9190   46.0880 H   0  0  0  0  0  0  0  0  0  0  0  0
   58.0510   32.8540   45.7960 C   0  0  0  0  0  0  0  0  0  0  0  0
   56.9940   32.4270   45.1580 N   0  0  0  0  0  0  0  0  0  0  0  0
   56.9560   31.4840   44.0390 C   0  0  0  0  0  0  0  0  0  0  0  0
   57.8374   31.6452   43.4009 H   0  0  0  0  0  0  0  0  0  0  0  0
   56.0331   31.6534   43.4650 H   0  0  0  0  0  0  0  0  0  0  0  0
   56.9610   30.0730   44.5360 C   0  0  0  0  0  0  0  0  0  0  0  0
   58.1110   29.3720   44.7430 N   0  0  0  0  0  0  0  0  0  0  0  0
   57.6480   28.1960   45.1860 C   0  0  0  0  0  0  0  0  0  0  0  0
   58.3640   27.0670   45.5600 C   0  0  0  0  0  0  0  0  0  0  0  0
   59.4629   27.0417   45.5189 H   0  0  0  0  0  0  0  0  0  0  0  0
   57.6170   25.9570   45.9940 C   0  0  0  0  0  0  0  0  0  0  0  0
   58.1246   25.0320   46.3050 H   0  0  0  0  0  0  0  0  0  0  0  0
   56.2040   26.0440   46.0260 C   0  0  0  0  0  0  0  0  0  0  0  0
   55.5230   25.0580   46.4110 O   0  0  0  0  0  0  0  0  0  0  0  0
   55.5840   27.1700   45.6490 O   0  0  0  0  0  0  0  0  0  0  0  0
   56.2940   28.2120   45.2410 C   0  0  0  0  0  0  0  0  0  0  0  0
   55.8190   29.3970   44.8370 N   0  0  0  0  0  0  0  0  0  0  0  0
   58.2890   34.2250   46.0270 C   0  0  0  0  0  0  0  0  0  0  0  0
   57.5726   34.9793   45.6694 H   0  0  0  0  0  0  0  0  0  0  0  0
  1  2  1  0
  2  3  1  0
  3  4  1  0
  3  5  2  0
  5  6  1  0
  5  7  1  0
  7  8  1  0
  7  9  1  0
  9 10  2  0
 10 11  1  0
 11 12  1  0
 11 13  1  0
 11 14  1  0
 14 15  2  0
 15 16  1  0
 16 17  1  0
 17 18  1  0
 17 19  2  0
 19 20  1  0
 19 21  1  0
 21 22  2  0
 21 23  1  0
 23 24  1  0
 24 25  1  0
  9 26  1  0
 26 27  1  0
 26  2  2  0
 25 14  1  0
 24 16  2  0
M  CHG  1  25  -1
M  END
>  <UniqueID>  (47) 
40

>  <SMILES>  (47) 
O=c1ccc2nc(C/N=c3\cccc[nH]3)[n-]c2o1

>  <Energy>  (47) 
68.79113232021464

>  <Genealogy>  (47) 
O=c1ccc2nc(CN=c3cccc[nH]3)[n-]c2o1 (protonated)
O=c1ccc2nc(C/N=c3\cccc[nH]3)[n-]c2o1 (cis-trans isomerization)
O=c1ccc2nc(C/N=c3\cccc[nH]3)[n-]c2o1 (3D coordinates assigned)
O=c1ccc2nc(C/N=c3\cccc[nH]3)[n-]c2o1 (optimized conformer: 68.79113232021464 kcal/mol)

>  <smiles>  (47) 
O=c1ccc2nc(CN=c3cccc[nH]3)[nH]c2o1

>  <score_type>  (47) 
oracle

>  <origin>  (47) 
adg

>  <m_score__min__energy>  (47) 
-8.2799999999999994

>  <m_primary>  (47) 
energy

$$$$
47:0
     RDKit          3D

 60 63  0  0  0  0  0  0  0  0999 V2000
   55.1390   26.4150   45.9790 N   0  0  0  0  0  0  0  0  0  0  0  0
   56.2390   25.6230   46.4200 C   0  0  0  0  0  0  0  0  0  0  0  0
   56.2000   25.0830   47.5570 O   0  0  0  0  0  0  0  0  0  0  0  0
   57.4670   25.4730   45.5630 C   0  0  2  0  0  0  0  0  0  0  0  0
   58.1570   24.1180   45.8050 C   0  0  0  0  0  0  0  0  0  0  0  0
   57.6260   23.0180   44.9150 C   0  0  0  0  0  0  0  0  0  0  0  0
   57.1420   23.3140   43.6290 C   0  0  0  0  0  0  0  0  0  0  0  0
   56.6210   22.2980   42.8210 C   0  0  0  0  0  0  0  0  0  0  0  0
   56.5860   20.9820   43.2880 C   0  0  0  0  0  0  0  0  0  0  0  0
   57.0670   20.6780   44.5650 C   0  0  0  0  0  0  0  0  0  0  0  0
   57.5800   21.6930   45.3790 C   0  0  0  0  0  0  0  0  0  0  0  0
   58.4100   26.5640   45.8020 N   0  0  0  0  0  0  0  0  0  0  0  0
   58.5700   27.6940   44.9400 C   0  0  0  0  0  0  0  0  0  0  0  0
   58.9700   27.5430   43.7550 O   0  0  0  0  0  0  0  0  0  0  0  0
   58.2370   29.0670   45.4600 C   0  0  2  0  0  0  0  0  0  0  0  0
   58.5190   29.1770   46.9660 C   0  0  0  0  0  0  0  0  0  0  0  0
   59.5740   30.2020   47.2680 C   0  0  0  0  0  0  0  0  0  0  0  0
   60.7840   30.3660   46.6010 C   0  0  0  0  0  0  0  0  0  0  0  0
   61.4690   31.4120   47.1130 N   0  0  0  0  0  0  0  0  0  0  0  0
   60.7020   31.9120   48.0960 C   0  0  0  0  0  0  0  0  0  0  0  0
   60.9900   32.9970   48.9220 C   0  0  0  0  0  0  0  0  0  0  0  0
   60.0410   33.3510   49.8980 C   0  0  0  0  0  0  0  0  0  0  0  0
   58.8370   32.6230   50.0230 C   0  0  0  0  0  0  0  0  0  0  0  0
   58.5740   31.5310   49.1750 C   0  0  0  0  0  0  0  0  0  0  0  0
   59.5350   31.2030   48.2200 C   0  0  0  0  0  0  0  0  0  0  0  0
   56.8290   29.3630   45.2130 N   0  0  0  0  0  0  0  0  0  0  0  0
   56.3820   30.4820   44.4400 C   0  0  0  0  0  0  0  0  0  0  0  0
   55.1610   30.7880   44.4030 O   0  0  0  0  0  0  0  0  0  0  0  0
   57.3830   31.3240   43.7150 C   0  0  0  0  0  0  0  0  0  0  0  0
   57.8040   32.4790   44.5790 C   0  0  0  0  0  0  0  0  0  0  0  0
   58.6940   33.4480   44.0850 C   0  0  0  0  0  0  0  0  0  0  0  0
   59.1120   34.5020   44.9030 C   0  0  0  0  0  0  0  0  0  0  0  0
   58.6550   34.5880   46.2220 C   0  0  0  0  0  0  0  0  0  0  0  0
   57.7820   33.6200   46.7240 C   0  0  0  0  0  0  0  0  0  0  0  0
   57.3590   32.5660   45.9090 C   0  0  0  0  0  0  0  0  0  0  0  0
   55.1580   27.4560   46.0630 H   0  0  0  0  0  0  0  0  0  0  0  0
   57.1400   25.5131   44.5135 H   0  0  0  0  0  0  0  0  0  0  0  0
   59.2341   24.2340   45.6143 H   0  0  0  0  0  0  0  0  0  0  0  0
   57.9536   23.8263   46.8459 H   0  0  0  0  0  0  0  0  0  0  0  0
   57.1731   24.3486   43.2566 H   0  0  0  0  0  0  0  0  0  0  0  0
   56.2386   22.5355   41.8173 H   0  0  0  0  0  0  0  0  0  0  0  0
   56.1793   20.1836   42.6500 H   0  0  0  0  0  0  0  0  0  0  0  0
   57.0420   19.6405   44.9295 H   0  0  0  0  0  0  0  0  0  0  0  0
   57.9491   21.4526   46.3870 H   0  0  0  0  0  0  0  0  0  0  0  0
   58.8731   29.7917   44.9306 H   0  0  0  0  0  0  0  0  0  0  0  0
   57.5898   29.4615   47.4813 H   0  0  0  0  0  0  0  0  0  0  0  0
   58.8849   28.2002   47.3151 H   0  0  0  0  0  0  0  0  0  0  0  0
   61.1340   29.7326   45.7726 H   0  0  0  0  0  0  0  0  0  0  0  0
   62.4020   31.7610   46.8000 H   0  0  0  0  0  0  0  0  0  0  0  0
   61.9296   33.5587   48.8141 H   0  0  0  0  0  0  0  0  0  0  0  0
   60.2378   34.2005   50.5685 H   0  0  0  0  0  0  0  0  0  0  0  0
   58.1006   32.9113   50.7876 H   0  0  0  0  0  0  0  0  0  0  0  0
   57.6408   30.9553   49.2629 H   0  0  0  0  0  0  0  0  0  0  0  0
   58.2638   30.7126   43.4694 H   0  0  0  0  0  0  0  0  0  0  0  0
   56.9284   31.7108   42.7910 H   0  0  0  0  0  0  0  0  0  0  0  0
   59.0630   33.3769   43.0512 H   0  0  0  0  0  0  0  0  0  0  0  0
   59.8006   35.2639   44.5090 H   0  0  0  0  0  0  0  0  0  0  0  0
   58.9832   35.4184   46.8644 H   0  0  0  0  0  0  0  0  0  0  0  0
   57.4266   33.6872   47.7628 H   0  0  0  0  0  0  0  0  0  0  0  0
   56.6759   31.8027   46.3099 H   0  0  0  0  0  0  0  0  0  0  0  0
  1  2  1  0
  2  3  2  0
  2  4  1  0
  4  5  1  0
  5  6  1  0
  6  7  2  0
  7  8  1  0
  8  9  2  0
  9 10  1  0
 10 11  2  0
  4 12  1  0
 12 13  1  0
 13 14  2  0
 13 15  1  0
 15 16  1  0
 16 17  1  0
 17 18  2  0
 18 19  1  0
 19 20  1  0
 20 21  2  0
 21 22  1  0
 22 23  2  0
 23 24  1  0
 24 25  2  0
 15 26  1  0
 26 27  1  0
 27 28  2  0
 27 29  1  0
 29 30  1  0
 30 31  2  0
 31 32  1  0
 32 33  2  0
 33 34  1  0
 34 35  2  0
 11  6  1  0
 25 17  1  0
 35 30  1  0
 25 20  1  0
  1 36  1  0
  4 37  1  6
  5 38  1  0
  5 39  1  0
  7 40  1  0
  8 41  1  0
  9 42  1  0
 10 43  1  0
 11 44  1  0
 15 45  1  6
 16 46  1  0
 16 47  1  0
 18 48  1  0
 19 49  1  0
 21 50  1  0
 22 51  1  0
 23 52  1  0
 24 53  1  0
 29 54  1  0
 29 55  1  0
 31 56  1  0
 32 57  1  0
 33 58  1  0
 34 59  1  0
 35 60  1  0
M  CHG  3   1  -1  12  -1  26  -1
M  END
>  <UniqueID>  (48) 
41

>  <SMILES>  (48) 
[NH-]C(=O)[C@H](Cc1ccccc1)[N-]C(=O)[C@H](Cc1c[nH]c2ccccc12)[N-]C(=O)Cc1ccccc1

>  <Energy>  (48) 
79.76278867531828

>  <Genealogy>  (48) 
[NH-]C(=O)C(Cc1ccccc1)[N-]C(=O)C(Cc1c[nH]c2ccccc12)[N-]C(=O)Cc1ccccc1 (protonated)
[NH-]C(=O)[C@H](Cc1ccccc1)[N-]C(=O)[C@H](Cc1c[nH]c2ccccc12)[N-]C(=O)Cc1ccccc1 (chirality)
[NH-]C(=O)[C@H](Cc1ccccc1)[N-]C(=O)[C@H](Cc1c[nH]c2ccccc12)[N-]C(=O)Cc1ccccc1 (3D coordinates assigned)
[NH-]C(=O)[C@H](Cc1ccccc1)[N-]C(=O)[C@H](Cc1c[nH]c2ccccc12)[N-]C(=O)Cc1ccccc1 (optimized conformer: 79.76278867531828 kcal/mol)

>  <smiles>  (48) 
NC(=O)C(Cc1ccccc1)NC(=O)C(Cc1c[nH]c2ccccc12)NC(=O)Cc1ccccc1

>  <score_type>  (48) 
oracle

>  <origin>  (48) 
adg

>  <m_score__min__energy>  (48) 
-15.460000000000001

>  <m_primary>  (48) 
energy

$$$$
48:0
     RDKit          3D

 66 69  0  0  0  0  0  0  0  0999 V2000
   60.7980   25.6460   51.5570 C   0  0  0  0  0  0  0  0  0  0  0  0
   61.3720   26.3600   50.4810 O   0  0  0  0  0  0  0  0  0  0  0  0
   60.6120   27.2550   49.7380 C   0  0  0  0  0  0  0  0  0  0  0  0
   60.5100   27.0470   48.3980 C   0  0  0  0  0  0  0  0  0  0  0  0
   59.7530   27.9310   47.6280 C   0  0  0  0  0  0  0  0  0  0  0  0
   59.6830   27.6700   46.1890 C   0  0  0  0  0  0  0  0  0  0  0  0
   58.4460   28.2670   45.6430 C   0  0  0  0  0  0  0  0  0  0  0  0
   58.5230   29.4760   44.9550 C   0  0  0  0  0  0  0  0  0  0  0  0
   57.4450   30.0790   44.4280 N   0  0  0  0  0  0  0  0  0  0  0  0
   56.2360   29.5060   44.5590 C   0  0  0  0  0  0  0  0  0  0  0  0
   55.2130   30.1100   44.0410 N   0  0  0  0  0  0  0  0  0  0  0  0
   56.1150   28.3340   45.2180 N   0  0  0  0  0  0  0  0  0  0  0  0
   57.1950   27.7120   45.7570 C   0  0  0  0  0  0  0  0  0  0  0  0
   57.0330   26.6140   46.3710 N   0  0  0  0  0  0  0  0  0  0  0  0
   59.1240   28.9930   48.2250 C   0  0  0  0  0  0  0  0  0  0  0  0
   59.2560   29.1640   49.5860 C   0  0  0  0  0  0  0  0  0  0  0  0
   59.9890   28.3260   50.3960 C   0  0  0  0  0  0  0  0  0  0  0  0
   60.1640   28.4260   51.7240 O   0  0  0  0  0  0  0  0  0  0  0  0
   60.6570   29.3810   52.5690 C   0  0  0  0  0  0  0  0  0  0  0  0
   61.3900   30.5090   51.9460 C   0  0  0  0  0  0  0  0  0  0  0  0
   61.0470   31.8320   52.1050 C   0  0  0  0  0  0  0  0  0  0  0  0
   61.7410   32.8770   51.5370 C   0  0  0  0  0  0  0  0  0  0  0  0
   62.8440   32.6290   50.7610 C   0  0  0  0  0  0  0  0  0  0  0  0
   63.7160   33.9770   50.0460 S   0  0  0  0  0  0  0  0  0  0  0  0
   63.0070   35.2420   50.4380 O   0  0  0  0  0  0  0  0  0  0  0  0
   65.0740   34.0070   50.6870 O   0  0  0  0  0  0  0  0  0  0  0  0
   63.9140   33.7810   48.3160 C   0  0  0  0  0  0  0  0  0  0  0  0
   62.5930   33.6600   47.6700 C   0  0  0  0  0  0  0  0  0  0  0  0
   62.5300   33.0970   46.5260 O   0  0  0  0  0  0  0  0  0  0  0  0
   61.3760   34.1240   48.2300 N   0  0  0  0  0  0  0  0  0  0  0  0
   60.1650   33.9320   47.4710 C   0  0  0  0  0  0  0  0  0  0  0  0
   59.8900   34.7230   46.3760 C   0  0  0  0  0  0  0  0  0  0  0  0
   58.7110   34.4950   45.6870 C   0  0  0  0  0  0  0  0  0  0  0  0
   57.8210   33.5040   46.0720 C   0  0  0  0  0  0  0  0  0  0  0  0
   58.0940   32.6990   47.1790 C   0  0  0  0  0  0  0  0  0  0  0  0
   59.2690   32.9400   47.8510 C   0  0  0  0  0  0  0  0  0  0  0  0
   63.2260   31.3140   50.5740 C   0  0  0  0  0  0  0  0  0  0  0  0
   62.5120   30.2630   51.1580 C   0  0  0  0  0  0  0  0  0  0  0  0
   62.9730   28.9920   50.9120 O   0  0  0  0  0  0  0  0  0  0  0  0
   61.1438   26.0762   52.5085 H   0  0  0  0  0  0  0  0  0  0  0  0
   59.7017   25.7158   51.5000 H   0  0  0  0  0  0  0  0  0  0  0  0
   61.1017   24.5903   51.5000 H   0  0  0  0  0  0  0  0  0  0  0  0
   61.0179   26.1925   47.9269 H   0  0  0  0  0  0  0  0  0  0  0  0
   60.5568   28.1164   45.6918 H   0  0  0  0  0  0  0  0  0  0  0  0
   59.6772   26.5844   46.0116 H   0  0  0  0  0  0  0  0  0  0  0  0
   59.5060   29.9558   44.8388 H   0  0  0  0  0  0  0  0  0  0  0  0
   57.5800   30.9930   43.9200 H   0  0  0  0  0  0  0  0  0  0  0  0
   54.5680   30.5950   44.6930 H   0  0  0  0  0  0  0  0  0  0  0  0
   55.1490   27.9170   45.3000 H   0  0  0  0  0  0  0  0  0  0  0  0
   56.9220   26.5030   47.3960 H   0  0  0  0  0  0  0  0  0  0  0  0
   58.5246   29.6961   47.6281 H   0  0  0  0  0  0  0  0  0  0  0  0
   58.7461   30.0198   50.0524 H   0  0  0  0  0  0  0  0  0  0  0  0
   59.8077   29.8030   53.1264 H   0  0  0  0  0  0  0  0  0  0  0  0
   61.4016   28.8606   53.1893 H   0  0  0  0  0  0  0  0  0  0  0  0
   60.1674   32.0687   52.7216 H   0  0  0  0  0  0  0  0  0  0  0  0
   61.4100   33.9123   51.7060 H   0  0  0  0  0  0  0  0  0  0  0  0
   64.4409   34.6560   47.9077 H   0  0  0  0  0  0  0  0  0  0  0  0
   64.4982   32.8700   48.1192 H   0  0  0  0  0  0  0  0  0  0  0  0
   61.3730   34.5890   49.1610 H   0  0  0  0  0  0  0  0  0  0  0  0
   60.5872   35.5125   46.0588 H   0  0  0  0  0  0  0  0  0  0  0  0
   58.4741   35.1165   44.8109 H   0  0  0  0  0  0  0  0  0  0  0  0
   56.8933   33.3512   45.5010 H   0  0  0  0  0  0  0  0  0  0  0  0
   57.4005   31.9076   47.4993 H   0  0  0  0  0  0  0  0  0  0  0  0
   59.5103   32.3207   48.7275 H   0  0  0  0  0  0  0  0  0  0  0  0
   64.1072   31.0902   49.9549 H   0  0  0  0  0  0  0  0  0  0  0  0
   62.3920   28.1670   51.0570 H   0  0  0  0  0  0  0  0  0  0  0  0
  1  2  1  0
  2  3  1  0
  3  4  2  0
  4  5  1  0
  5  6  1  0
  6  7  1  0
  7  8  2  0
  8  9  1  0
  9 10  1  0
 10 11  2  3
 10 12  1  0
 12 13  1  0
 13 14  2  3
  5 15  2  0
 15 16  1  0
 16 17  2  0
 17 18  1  0
 18 19  1  0
 19 20  1  0
 20 21  2  0
 21 22  1  0
 22 23  2  0
 23 24  1  0
 24 25  2  0
 24 26  2  0
 24 27  1  0
 27 28  1  0
 28 29  2  0
 28 30  1  0
 30 31  1  0
 31 32  2  0
 32 33  1  0
 33 34  2  0
 34 35  1  0
 35 36  2  0
 23 37  1  0
 37 38  2  0
 38 39  1  0
 17  3  1  0
 38 20  1  0
 13  7  1  0
 36 31  1  0
  1 40  1  0
  1 41  1  0
  1 42  1  0
  4 43  1  0
  6 44  1  0
  6 45  1  0
  8 46  1  0
  9 47  1  0
 11 48  1  0
 12 49  1  0
 14 50  1  0
 15 51  1  0
 16 52  1  0
 19 53  1  0
 19 54  1  0
 21 55  1  0
 22 56  1  0
 27 57  1  0
 27 58  1  0
 30 59  1  0
 32 60  1  0
 33 61  1  0
 34 62  1  0
 35 63  1  0
 36 64  1  0
 37 65  1  0
 39 66  1  0
M  END
>  <smiles>  (49) 
COc1cc(Cc2c[nH]c(=N)[nH]c2=N)ccc1OCc1ccc(S(=O)(=O)CC(=O)Nc2ccccc2)cc1O

>  <score_type>  (49) 
oracle

>  <origin>  (49) 
adg

>  <m_score__min__energy>  (49) 
-9.8399999999999999

>  <m_primary>  (49) 
energy

$$$$
49:0
     RDKit          3D

 54 57  0  0  0  0  0  0  0  0999 V2000
   60.4780   33.4800   52.5770 C   0  0  0  0  0  0  0  0  0  0  0  0
   59.9790   32.0640   52.4930 C   0  0  0  0  0  0  0  0  0  0  0  0
   58.6640   31.7740   52.8950 C   0  0  0  0  0  0  0  0  0  0  0  0
   58.1720   30.4560   52.8550 C   0  0  0  0  0  0  0  0  0  0  0  0
   56.7880   30.1410   53.2820 C   0  0  0  0  0  0  0  0  0  0  0  0
   56.0510   31.0700   53.7180 O   0  0  0  0  0  0  0  0  0  0  0  0
   56.2800   28.7980   53.2320 N   0  0  0  0  0  0  0  0  0  0  0  0
   54.9080   28.4680   53.6090 C   0  0  0  0  0  0  0  0  0  0  0  0
   53.9500   29.4520   52.9950 C   0  0  0  0  0  0  0  0  0  0  0  0
   53.0000   30.1000   53.7980 C   0  0  0  0  0  0  0  0  0  0  0  0
   52.1230   31.0350   53.2400 C   0  0  0  0  0  0  0  0  0  0  0  0
   52.1830   31.3400   51.8690 C   0  0  0  0  0  0  0  0  0  0  0  0
   51.2560   32.3320   51.2810 C   0  0  0  0  0  0  0  0  0  0  0  0
   50.6540   33.1610   52.0140 O   0  0  0  0  0  0  0  0  0  0  0  0
   51.0370   32.3620   49.9080 O   0  0  0  0  0  0  0  0  0  0  0  0
   53.1400   30.6910   51.0680 C   0  0  0  0  0  0  0  0  0  0  0  0
   54.0160   29.7560   51.6270 C   0  0  0  0  0  0  0  0  0  0  0  0
   59.0240   29.4250   52.4250 C   0  0  0  0  0  0  0  0  0  0  0  0
   60.3240   29.7090   52.0070 C   0  0  0  0  0  0  0  0  0  0  0  0
   60.8000   31.0230   52.0070 C   0  0  0  0  0  0  0  0  0  0  0  0
   62.1000   31.2640   51.5460 O   0  0  0  0  0  0  0  0  0  0  0  0
   62.4020   31.8850   50.3260 C   0  0  0  0  0  0  0  0  0  0  0  0
   63.7320   31.9850   49.8420 C   0  0  0  0  0  0  0  0  0  0  0  0
   63.9990   32.6160   48.6170 C   0  0  0  0  0  0  0  0  0  0  0  0
   62.9300   33.1470   47.8960 C   0  0  0  0  0  0  0  0  0  0  0  0
   61.6480   33.0640   48.3620 C   0  0  0  0  0  0  0  0  0  0  0  0
   61.3500   32.4420   49.5770 C   0  0  0  0  0  0  0  0  0  0  0  0
   60.7380   33.6700   47.4640 N   0  0  0  0  0  0  0  0  0  0  0  0
   59.2930   33.7570   47.6410 C   0  0  0  0  0  0  0  0  0  0  0  0
   61.4770   34.1930   46.3170 C   0  0  0  0  0  0  0  0  0  0  0  0
   62.9670   33.8560   46.5850 C   0  0  0  0  0  0  0  0  0  0  0  0
   60.5804   33.7706   53.6330 H   0  0  0  0  0  0  0  0  0  0  0  0
   61.4564   33.5541   52.0797 H   0  0  0  0  0  0  0  0  0  0  0  0
   59.7622   34.1511   52.0797 H   0  0  0  0  0  0  0  0  0  0  0  0
   58.0112   32.5871   53.2452 H   0  0  0  0  0  0  0  0  0  0  0  0
   56.9200   28.0060   53.0010 H   0  0  0  0  0  0  0  0  0  0  0  0
   54.6668   27.4555   53.2531 H   0  0  0  0  0  0  0  0  0  0  0  0
   54.8159   28.5127   54.7042 H   0  0  0  0  0  0  0  0  0  0  0  0
   52.9446   29.8713   54.8725 H   0  0  0  0  0  0  0  0  0  0  0  0
   51.3804   31.5358   53.8786 H   0  0  0  0  0  0  0  0  0  0  0  0
   53.1995   30.9209   49.9939 H   0  0  0  0  0  0  0  0  0  0  0  0
   54.7611   29.2559   50.9908 H   0  0  0  0  0  0  0  0  0  0  0  0
   58.6631   28.3859   52.4179 H   0  0  0  0  0  0  0  0  0  0  0  0
   60.9805   28.8914   51.6744 H   0  0  0  0  0  0  0  0  0  0  0  0
   64.5603   31.5648   50.4314 H   0  0  0  0  0  0  0  0  0  0  0  0
   65.0277   32.6899   48.2346 H   0  0  0  0  0  0  0  0  0  0  0  0
   60.3132   32.3890   49.9406 H   0  0  0  0  0  0  0  0  0  0  0  0
   59.0553   33.7713   48.7149 H   0  0  0  0  0  0  0  0  0  0  0  0
   58.9209   34.6792   47.1708 H   0  0  0  0  0  0  0  0  0  0  0  0
   58.8129   32.8861   47.1708 H   0  0  0  0  0  0  0  0  0  0  0  0
   61.1360   33.7104   45.3892 H   0  0  0  0  0  0  0  0  0  0  0  0
   61.3223   35.2752   46.1950 H   0  0  0  0  0  0  0  0  0  0  0  0
   63.3713   33.2044   45.7963 H   0  0  0  0  0  0  0  0  0  0  0  0
   63.6135   34.7459   46.5959 H   0  0  0  0  0  0  0  0  0  0  0  0
  1  2  1  0
  2  3  2  0
  3  4  1  0
  4  5  1  0
  5  6  2  0
  5  7  1  0
  7  8  1  0
  8  9  1  0
  9 10  2  0
 10 11  1  0
 11 12  2  0
 12 13  1  0
 13 14  2  0
 13 15  1  0
 12 16  1  0
 16 17  2  0
  4 18  2  0
 18 19  1  0
 19 20  2  0
 20 21  1  0
 21 22  1  0
 22 23  2  0
 23 24  1  0
 24 25  2  0
 25 26  1  0
 26 27  2  0
 26 28  1  0
 28 29  1  0
 28 30  1  0
 30 31  1  0
 20  2  1  0
 27 22  1  0
 17  9  1  0
 31 25  1  0
  1 32  1  0
  1 33  1  0
  1 34  1  0
  3 35  1  0
  7 36  1  0
  8 37  1  0
  8 38  1  0
 10 39  1  0
 11 40  1  0
 16 41  1  0
 17 42  1  0
 18 43  1  0
 19 44  1  0
 23 45  1  0
 24 46  1  0
 27 47  1  0
 29 48  1  0
 29 49  1  0
 29 50  1  0
 30 51  1  0
 30 52  1  0
 31 53  1  0
 31 54  1  0
M  CHG  1  15  -1
M  END
>  <UniqueID>  (50) 
42

>  <SMILES>  (50) 
Cc1cc(C(=O)NCc2ccc(C(=O)[O-])cc2)ccc1Oc1ccc2c(c1)N(C)CC2

>  <Energy>  (50) 
78.54586318058435

>  <Genealogy>  (50) 
Cc1cc(C(=O)NCc2ccc(C(=O)[O-])cc2)ccc1Oc1ccc2c(c1)N(C)CC2 (protonated)
Cc1cc(C(=O)NCc2ccc(C(=O)[O-])cc2)ccc1Oc1ccc2c(c1)N(C)CC2 (3D coordinates assigned)
Cc1cc(C(=O)NCc2ccc(C(=O)[O-])cc2)ccc1Oc1ccc2c(c1)N(C)CC2 (nonaromatic ring conformer: 78.54586318058435 kcal/mol)

>  <smiles>  (50) 
Cc1cc(C(=O)NCc2ccc(C(=O)O)cc2)ccc1Oc1ccc2c(c1)N(C)CC2

>  <score_type>  (50) 
oracle

>  <origin>  (50) 
adg

>  <m_score__min__energy>  (50) 
-11.619999999999999

>  <m_primary>  (50) 
energy

$$$$
50:0
     RDKit          3D

 51 54  0  0  1  0  0  0  0  0999 V2000
   56.7910   20.8320   43.0060 C   0  0  0  0  0  0  0  0  0  0  0  0
   56.2680   22.1140   43.2840 O   0  0  0  0  0  0  0  0  0  0  0  0
   56.9880   22.9390   44.1350 C   0  0  0  0  0  0  0  0  0  0  0  0
   58.2220   22.4700   44.5540 C   0  0  0  0  0  0  0  0  0  0  0  0
   58.9680   23.2820   45.4110 C   0  0  0  0  0  0  0  0  0  0  0  0
   58.5040   24.5160   45.8340 C   0  0  0  0  0  0  0  0  0  0  0  0
   59.2700   25.2950   46.6850 O   0  0  0  0  0  0  0  0  0  0  0  0
   60.4620   25.9450   46.3680 C   0  0  0  0  0  0  0  0  0  0  0  0
   57.2580   24.9860   45.4080 C   0  0  0  0  0  0  0  0  0  0  0  0
   56.8310   26.2950   45.8940 C   0  0  0  0  0  0  0  0  0  0  0  0
   57.0220   27.3390   44.9130 N   0  0  0  0  0  0  0  0  0  0  0  0
   57.5360   28.5890   45.3620 C   0  0  0  0  0  0  0  0  0  0  0  0
   58.5490   28.5390   46.2530 C   0  0  0  0  0  0  0  0  0  0  0  0
   59.0670   29.7710   46.6910 C   0  0  0  0  0  0  0  0  0  0  0  0
   58.5200   30.9130   46.1940 C   0  0  0  0  0  0  0  0  0  0  0  0
   58.9870   32.1450   46.5830 C   0  0  0  0  0  0  0  0  0  0  0  0
   59.9280   32.2320   47.3850 N   0  0  0  0  0  0  0  0  0  0  0  0
   61.2430   32.6320   47.3420 C   0  0  0  0  0  0  0  0  0  0  0  0
   61.7820   33.4740   46.3410 C   0  0  0  0  0  0  0  0  0  0  0  0
   63.0660   33.9360   46.3960 C   0  0  0  0  0  0  0  0  0  0  0  0
   63.8640   33.5630   47.4740 C   0  0  0  0  0  0  0  0  0  0  0  0
   63.3600   32.7420   48.4610 C   0  0  0  0  0  0  0  0  0  0  0  0
   64.4670   32.2490   49.9160 Br  0  0  0  0  0  0  0  0  0  0  0  0
   62.0710   32.2600   48.4340 C   0  0  0  0  0  0  0  0  0  0  0  0
   58.4350   33.2610   46.0810 N   0  0  0  0  0  0  0  0  0  0  0  0
   57.4260   33.2680   45.1950 C   0  0  0  0  0  0  0  0  0  0  0  0
   56.9560   32.0690   44.8020 N   0  0  0  0  0  0  0  0  0  0  0  0
   57.4870   30.9300   45.2860 C   0  0  0  0  0  0  0  0  0  0  0  0
   56.9810   29.7410   44.8580 C   0  0  0  0  0  0  0  0  0  0  0  0
   56.5360   24.1720   44.5620 C   0  0  0  0  0  0  0  0  0  0  0  0
   57.0039   20.3101   43.9506 H   0  0  0  0  0  0  0  0  0  0  0  0
   56.0566   20.2544   42.4254 H   0  0  0  0  0  0  0  0  0  0  0  0
   57.7198   20.9329   42.4254 H   0  0  0  0  0  0  0  0  0  0  0  0
   58.6013   21.4919   44.2232 H   0  0  0  0  0  0  0  0  0  0  0  0
   59.9508   22.9317   45.7594 H   0  0  0  0  0  0  0  0  0  0  0  0
   60.9825   26.2288   47.2946 H   0  0  0  0  0  0  0  0  0  0  0  0
   61.1020   25.2710   45.7797 H   0  0  0  0  0  0  0  0  0  0  0  0
   60.2420   26.8480   45.7797 H   0  0  0  0  0  0  0  0  0  0  0  0
   55.7628   26.2443   46.1518 H   0  0  0  0  0  0  0  0  0  0  0  0
   57.4473   26.5433   46.7706 H   0  0  0  0  0  0  0  0  0  0  0  0
   56.7750   27.1210   43.9330 H   0  0  0  0  0  0  0  0  0  0  0  0
   58.9495   27.5819   46.6184 H   0  0  0  0  0  0  0  0  0  0  0  0
   59.8929   29.8101   47.4165 H   0  0  0  0  0  0  0  0  0  0  0  0
   61.1469   33.7658   45.4916 H   0  0  0  0  0  0  0  0  0  0  0  0
   63.4616   34.5896   45.6046 H   0  0  0  0  0  0  0  0  0  0  0  0
   64.9008   33.9246   47.5389 H   0  0  0  0  0  0  0  0  0  0  0  0
   61.6937   31.6063   49.2342 H   0  0  0  0  0  0  0  0  0  0  0  0
   58.7900   34.2040   46.3760 H   0  0  0  0  0  0  0  0  0  0  0  0
   57.0039   34.2076   44.8090 H   0  0  0  0  0  0  0  0  0  0  0  0
   56.1550   29.7034   44.1325 H   0  0  0  0  0  0  0  0  0  0  0  0
   55.5538   24.5208   44.2105 H   0  0  0  0  0  0  0  0  0  0  0  0
  1  2  1  0
  2  3  1  0
  3  4  2  0
  4  5  1  0
  5  6  2  0
  6  7  1  0
  7  8  1  0
  6  9  1  0
  9 10  1  0
 10 11  1  0
 11 12  1  0
 12 13  2  0
 13 14  1  0
 14 15  2  0
 15 16  1  0
 16 17  2  0
 17 18  1  0
 18 19  2  0
 19 20  1  0
 20 21  2  0
 21 22  1  0
 22 23  1  0
 22 24  2  0
 16 25  1  0
 25 26  1  0
 26 27  2  0
 27 28  1  0
 28 29  2  0
  9 30  2  0
 30  3  1  0
 29 12  1  0
 28 15  1  0
 24 18  1  0
  1 31  1  0
  1 32  1  0
  1 33  1  0
  4 34  1  0
  5 35  1  0
  8 36  1  0
  8 37  1  0
  8 38  1  0
 10 39  1  0
 10 40  1  0
 11 41  1  0
 13 42  1  0
 14 43  1  0
 19 44  1  0
 20 45  1  0
 21 46  1  0
 24 47  1  0
 25 48  1  0
 26 49  1  0
 29 50  1  0
 30 51  1  0
M  END
>  <smiles>  (51) 
COc1ccc(OC)c(CNc2ccc3c(=Nc4cccc(Br)c4)[nH]cnc3c2)c1

>  <score_type>  (51) 
oracle

>  <origin>  (51) 
adg

>  <m_score__min__energy>  (51) 
-9.3800000000000008

>  <m_primary>  (51) 
energy

$$$$
51:0
     RDKit          3D

 41 43  0  0  0  0  0  0  0  0999 V2000
   59.8410   31.1640   48.5490 C   0  0  0  0  0  0  0  0  0  0  0  0
   60.3330   32.3940   47.7520 C   0  0  1  0  0  0  0  0  0  0  0  0
   59.3930   32.7570   46.5890 C   0  0  0  0  0  0  0  0  0  0  0  0
   58.5020   31.7830   46.0870 C   0  0  0  0  0  0  0  0  0  0  0  0
   57.5940   32.0840   45.0580 C   0  0  0  0  0  0  0  0  0  0  0  0
   56.6430   31.1170   44.5860 N   0  0  0  0  0  0  0  0  0  0  0  0
   56.6120   29.7200   44.9120 C   0  0  0  0  0  0  0  0  0  0  0  0
   55.5040   29.1210   44.9030 O   0  0  0  0  0  0  0  0  0  0  0  0
   57.8280   28.9640   45.2800 C   0  0  0  0  0  0  0  0  0  0  0  0
   58.9950   29.0270   44.4980 C   0  0  0  0  0  0  0  0  0  0  0  0
   60.1100   28.2730   44.8690 C   0  0  0  0  0  0  0  0  0  0  0  0
   60.0620   27.4800   46.0150 C   0  0  0  0  0  0  0  0  0  0  0  0
   61.1390   26.7420   46.3830 F   0  0  0  0  0  0  0  0  0  0  0  0
   58.8970   27.4600   46.7840 C   0  0  0  0  0  0  0  0  0  0  0  0
   57.8180   28.1960   46.4040 N   0  0  0  0  0  0  0  0  0  0  0  0
   57.6500   33.3340   44.4420 C   0  0  0  0  0  0  0  0  0  0  0  0
   58.5830   34.2820   44.8600 C   0  0  0  0  0  0  0  0  0  0  0  0
   59.4560   34.0020   45.9160 C   0  0  0  0  0  0  0  0  0  0  0  0
   60.3740   34.9440   46.2390 F   0  0  0  0  0  0  0  0  0  0  0  0
   60.4550   33.6200   48.6910 C   0  0  0  0  0  0  0  0  0  0  0  0
   61.5010   33.4280   49.6250 O   0  0  0  0  0  0  0  0  0  0  0  0
   62.7540   33.5210   48.9720 C   0  0  0  0  0  0  0  0  0  0  0  0
   62.8630   32.5270   47.8470 C   0  0  0  0  0  0  0  0  0  0  0  0
   64.0250   32.1750   47.3860 N   0  0  0  0  0  0  0  0  0  0  0  0
   61.6630   32.0460   47.2270 N   0  0  0  0  0  0  0  0  0  0  0  0
   59.9229   31.3687   49.6267 H   0  0  0  0  0  0  0  0  0  0  0  0
   58.7911   30.9576   48.2937 H   0  0  0  0  0  0  0  0  0  0  0  0
   60.4589   30.2905   48.2937 H   0  0  0  0  0  0  0  0  0  0  0  0
   58.5193   30.7679   46.5103 H   0  0  0  0  0  0  0  0  0  0  0  0
   59.0291   29.6645   43.6022 H   0  0  0  0  0  0  0  0  0  0  0  0
   61.0245   28.3045   44.2585 H   0  0  0  0  0  0  0  0  0  0  0  0
   58.8516   26.8489   47.6975 H   0  0  0  0  0  0  0  0  0  0  0  0
   56.9554   33.5729   43.6232 H   0  0  0  0  0  0  0  0  0  0  0  0
   58.6328   35.2580   44.3551 H   0  0  0  0  0  0  0  0  0  0  0  0
   60.6668   34.5165   48.0898 H   0  0  0  0  0  0  0  0  0  0  0  0
   59.5087   33.7443   49.2378 H   0  0  0  0  0  0  0  0  0  0  0  0
   62.8708   34.5362   48.5650 H   0  0  0  0  0  0  0  0  0  0  0  0
   63.5435   33.3009   49.7056 H   0  0  0  0  0  0  0  0  0  0  0  0
   64.4850   31.2950   47.7090 H   0  0  0  0  0  0  0  0  0  0  0  0
   64.5240   32.7620   46.6810 H   0  0  0  0  0  0  0  0  0  0  0  0
   61.7340   31.3220   46.4750 H   0  0  0  0  0  0  0  0  0  0  0  0
  2  1  1  1
  2  3  1  0
  3  4  2  0
  4  5  1  0
  5  6  1  0
  6  7  1  0
  7  8  2  0
  7  9  1  0
  9 10  2  0
 10 11  1  0
 11 12  2  0
 12 13  1  0
 12 14  1  0
 14 15  2  0
  5 16  2  0
 16 17  1  0
 17 18  2  0
 18 19  1  0
  2 20  1  0
 20 21  1  0
 21 22  1  0
 22 23  1  0
 23 24  2  0
 23 25  1  0
 25  2  1  0
 18  3  1  0
 15  9  1  0
  1 26  1  0
  1 27  1  0
  1 28  1  0
  4 29  1  0
 10 30  1  0
 11 31  1  0
 14 32  1  0
 16 33  1  0
 17 34  1  0
 20 35  1  0
 20 36  1  0
 22 37  1  0
 22 38  1  0
 24 39  1  0
 24 40  1  0
 25 41  1  0
M  CHG  2   6  -1  24   1
M  END
>  <UniqueID>  (52) 
43

>  <SMILES>  (52) 
C[C@@]1(c2cc([N-]C(=O)c3ccc(F)cn3)ccc2F)COCC(=[NH2+])N1

>  <Energy>  (52) 
55.16489810819026

>  <Genealogy>  (52) 
CC1(c2cc([N-]C(=O)c3ccc(F)cn3)ccc2F)COCC(=[NH2+])N1 (protonated)
C[C@@]1(c2cc([N-]C(=O)c3ccc(F)cn3)ccc2F)COCC(=[NH2+])N1 (chirality)
C[C@@]1(c2cc([N-]C(=O)c3ccc(F)cn3)ccc2F)COCC(=[NH2+])N1 (3D coordinates assigned)
C[C@@]1(c2cc([N-]C(=O)c3ccc(F)cn3)ccc2F)COCC(=[NH2+])N1 (nonaromatic ring conformer: 55.16489810819026 kcal/mol)

>  <smiles>  (52) 
CC1(c2cc(NC(=O)c3ccc(F)cn3)ccc2F)COCC(=N)N1

>  <score_type>  (52) 
oracle

>  <origin>  (52) 
adg

>  <m_score__min__energy>  (52) 
-8.4399999999999995

>  <m_primary>  (52) 
energy

$$$$
52:0
     RDKit          3D

 60 63  0  0  0  0  0  0  0  0999 V2000
   63.5210   33.4380   46.7340 C   0  0  0  0  0  0  0  0  0  0  0  0
   62.1680   33.8360   46.9280 O   0  0  0  0  0  0  0  0  0  0  0  0
   61.4600   33.7030   48.1340 C   0  0  0  0  0  0  0  0  0  0  0  0
   62.1160   33.7020   49.3810 C   0  0  0  0  0  0  0  0  0  0  0  0
   61.3870   33.5960   50.5670 C   0  0  0  0  0  0  0  0  0  0  0  0
   59.9890   33.5010   50.5320 C   0  0  0  0  0  0  0  0  0  0  0  0
   59.2120   33.3450   51.8050 C   0  0  0  0  0  0  0  0  0  0  0  0
   59.3310   33.4780   49.2950 C   0  0  0  0  0  0  0  0  0  0  0  0
   60.0540   33.5810   48.0950 C   0  0  0  0  0  0  0  0  0  0  0  0
   59.3320   33.5480   46.8020 C   0  0  0  0  0  0  0  0  0  0  0  0
   58.6800   32.3730   46.3910 C   0  0  0  0  0  0  0  0  0  0  0  0
   57.9980   32.3240   45.1650 C   0  0  0  0  0  0  0  0  0  0  0  0
   57.3320   31.0450   44.7180 C   0  0  0  0  0  0  0  0  0  0  0  0
   58.3020   30.0500   44.2290 N   0  0  0  0  0  0  0  0  0  0  0  0
   59.3520   29.7320   45.2100 C   0  0  0  0  0  0  0  0  0  0  0  0
   59.0200   28.4810   45.9820 C   0  0  0  0  0  0  0  0  0  0  0  0
   59.9640   27.9050   46.8460 C   0  0  0  0  0  0  0  0  0  0  0  0
   59.6550   26.7360   47.5460 C   0  0  0  0  0  0  0  0  0  0  0  0
   58.4100   26.1250   47.3780 C   0  0  0  0  0  0  0  0  0  0  0  0
   57.4580   26.6800   46.5070 C   0  0  0  0  0  0  0  0  0  0  0  0
   56.1540   26.0090   46.3010 C   0  0  0  0  0  0  0  0  0  0  0  0
   55.1460   26.6960   45.9920 O   0  0  0  0  0  0  0  0  0  0  0  0
   56.0090   24.5840   46.4030 N   0  0  0  0  0  0  0  0  0  0  0  0
   56.6310   23.6110   45.5500 C   0  0  0  0  0  0  0  0  0  0  0  0
   57.9630   23.2510   45.7880 C   0  0  0  0  0  0  0  0  0  0  0  0
   58.5920   22.2990   44.9790 C   0  0  0  0  0  0  0  0  0  0  0  0
   57.9000   21.7140   43.9160 C   0  0  0  0  0  0  0  0  0  0  0  0
   56.5790   22.0880   43.6530 C   0  0  0  0  0  0  0  0  0  0  0  0
   55.8950   21.5180   42.5860 O   0  0  0  0  0  0  0  0  0  0  0  0
   55.9460   23.0390   44.4610 C   0  0  0  0  0  0  0  0  0  0  0  0
   57.7610   27.8780   45.8370 C   0  0  0  0  0  0  0  0  0  0  0  0
   57.9640   33.4660   44.3500 C   0  0  0  0  0  0  0  0  0  0  0  0
   58.6020   34.6390   44.7550 C   0  0  0  0  0  0  0  0  0  0  0  0
   59.2840   34.6860   45.9740 C   0  0  0  0  0  0  0  0  0  0  0  0
   59.9210   35.8300   46.3330 F   0  0  0  0  0  0  0  0  0  0  0  0
   64.0051   33.2956   47.7115 H   0  0  0  0  0  0  0  0  0  0  0  0
   63.5482   32.4938   46.1703 H   0  0  0  0  0  0  0  0  0  0  0  0
   64.0552   34.2171   46.1703 H   0  0  0  0  0  0  0  0  0  0  0  0
   63.2121   33.7855   49.4204 H   0  0  0  0  0  0  0  0  0  0  0  0
   61.9123   33.5870   51.5335 H   0  0  0  0  0  0  0  0  0  0  0  0
   59.8852   33.4802   52.6644 H   0  0  0  0  0  0  0  0  0  0  0  0
   58.4136   34.1008   51.8422 H   0  0  0  0  0  0  0  0  0  0  0  0
   58.7672   32.3396   51.8422 H   0  0  0  0  0  0  0  0  0  0  0  0
   58.2360   33.3782   49.2633 H   0  0  0  0  0  0  0  0  0  0  0  0
   58.7043   31.4826   47.0365 H   0  0  0  0  0  0  0  0  0  0  0  0
   56.7837   30.6155   45.5694 H   0  0  0  0  0  0  0  0  0  0  0  0
   56.6550   31.2912   43.8867 H   0  0  0  0  0  0  0  0  0  0  0  0
   57.7950   29.1660   43.9890 H   0  0  0  0  0  0  0  0  0  0  0  0
   60.3044   29.5837   44.6800 H   0  0  0  0  0  0  0  0  0  0  0  0
   59.4279   30.5683   45.9205 H   0  0  0  0  0  0  0  0  0  0  0  0
   60.9503   28.3753   46.9725 H   0  0  0  0  0  0  0  0  0  0  0  0
   60.3941   26.2955   48.2313 H   0  0  0  0  0  0  0  0  0  0  0  0
   58.1738   25.2039   47.9310 H   0  0  0  0  0  0  0  0  0  0  0  0
   58.5173   23.7190   46.6149 H   0  0  0  0  0  0  0  0  0  0  0  0
   59.6342   22.0103   45.1804 H   0  0  0  0  0  0  0  0  0  0  0  0
   58.3942   20.9595   43.2863 H   0  0  0  0  0  0  0  0  0  0  0  0
   54.9105   23.3405   44.2448 H   0  0  0  0  0  0  0  0  0  0  0  0
   57.0035   28.3477   45.1924 H   0  0  0  0  0  0  0  0  0  0  0  0
   57.4320   33.4363   43.3876 H   0  0  0  0  0  0  0  0  0  0  0  0
   58.5680   35.5308   44.1119 H   0  0  0  0  0  0  0  0  0  0  0  0
  1  2  1  0
  2  3  1  0
  3  4  2  0
  4  5  1  0
  5  6  2  0
  6  7  1  0
  6  8  1  0
  8  9  2  0
  9 10  1  0
 10 11  2  0
 11 12  1  0
 12 13  1  0
 13 14  1  0
 14 15  1  0
 15 16  1  0
 16 17  2  0
 17 18  1  0
 18 19  2  0
 19 20  1  0
 20 21  1  0
 21 22  2  0
 21 23  1  0
 23 24  1  0
 24 25  2  0
 25 26  1  0
 26 27  2  0
 27 28  1  0
 28 29  1  0
 28 30  2  0
 20 31  2  0
 12 32  2  0
 32 33  1  0
 33 34  2  0
 34 35  1  0
  9  3  1  0
 34 10  1  0
 31 16  1  0
 30 24  1  0
  1 36  1  0
  1 37  1  0
  1 38  1  0
  4 39  1  0
  5 40  1  0
  7 41  1  0
  7 42  1  0
  7 43  1  0
  8 44  1  0
 11 45  1  0
 13 46  1  0
 13 47  1  0
 14 48  1  0
 15 49  1  0
 15 50  1  0
 17 51  1  0
 18 52  1  0
 19 53  1  0
 25 54  1  0
 26 55  1  0
 27 56  1  0
 30 57  1  0
 31 58  1  0
 32 59  1  0
 33 60  1  0
M  CHG  2  23  -1  29  -1
M  END
>  <UniqueID>  (53) 
44

>  <SMILES>  (53) 
COc1ccc(C)cc1-c1cc(CNCc2cccc(C(=O)[N-]c3cccc([O-])c3)c2)ccc1F

>  <Energy>  (53) 
74.37529728241236

>  <Genealogy>  (53) 
COc1ccc(C)cc1-c1cc(CNCc2cccc(C(=O)[N-]c3cccc([O-])c3)c2)ccc1F (protonated)
COc1ccc(C)cc1-c1cc(CNCc2cccc(C(=O)[N-]c3cccc([O-])c3)c2)ccc1F (3D coordinates assigned)
COc1ccc(C)cc1-c1cc(CNCc2cccc(C(=O)[N-]c3cccc([O-])c3)c2)ccc1F (optimized conformer: 74.37529728241236 kcal/mol)

>  <smiles>  (53) 
COc1ccc(C)cc1-c1cc(CNCc2cccc(C(=O)Nc3cccc(O)c3)c2)ccc1F

>  <score_type>  (53) 
oracle

>  <origin>  (53) 
adg

>  <m_score__min__energy>  (53) 
-14.76

>  <m_primary>  (53) 
energy

$$$$
53:0
     RDKit          3D

 47 49  0  0  0  0  0  0  0  0999 V2000
   60.2400   30.1780   48.6370 C   0  0  0  0  0  0  0  0  0  0  0  0
   61.4090   31.1380   48.8550 C   0  0  0  0  0  0  0  0  0  0  0  0
   61.4290   32.2050   47.8290 N   0  0  0  0  0  0  0  0  0  0  0  0
   62.7740   32.3550   47.2110 C   0  0  0  0  0  0  0  0  0  0  0  0
   62.9810   33.8000   46.7690 C   0  0  0  0  0  0  0  0  0  0  0  0
   60.9460   33.4840   48.4010 C   0  0  0  0  0  0  0  0  0  0  0  0
   59.4240   33.6050   48.2600 C   0  0  0  0  0  0  0  0  0  0  0  0
   59.0480   33.7280   46.8530 N   0  0  0  0  0  0  0  0  0  0  0  0
   59.0980   34.8610   46.1560 N   0  0  0  0  0  0  0  0  0  0  0  0
   58.7440   34.5890   44.8740 C   0  0  0  0  0  0  0  0  0  0  0  0
   58.4770   33.2380   44.7800 C   0  0  0  0  0  0  0  0  0  0  0  0
   58.1070   32.3910   43.7480 C   0  0  0  0  0  0  0  0  0  0  0  0
   57.9160   32.8200   42.5810 O   0  0  0  0  0  0  0  0  0  0  0  0
   57.9580   31.0650   44.0370 N   0  0  0  0  0  0  0  0  0  0  0  0
   58.1640   30.5710   45.3060 C   0  0  0  0  0  0  0  0  0  0  0  0
   58.0130   29.1170   45.5890 C   0  0  0  0  0  0  0  0  0  0  0  0
   59.1330   28.3850   46.0290 C   0  0  0  0  0  0  0  0  0  0  0  0
   59.0350   27.0180   46.2950 C   0  0  0  0  0  0  0  0  0  0  0  0
   57.8200   26.3610   46.1280 C   0  0  0  0  0  0  0  0  0  0  0  0
   56.6960   27.0650   45.6980 C   0  0  0  0  0  0  0  0  0  0  0  0
   56.7730   28.4470   45.4280 C   0  0  0  0  0  0  0  0  0  0  0  0
   55.6400   29.1710   45.0170 O   0  0  0  0  0  0  0  0  0  0  0  0
   55.4560   29.7250   43.7190 C   0  0  0  0  0  0  0  0  0  0  0  0
   58.5350   31.4260   46.3110 N   0  0  0  0  0  0  0  0  0  0  0  0
   58.6780   32.7410   46.0220 C   0  0  0  0  0  0  0  0  0  0  0  0
   59.8452   29.8538   49.6112 H   0  0  0  0  0  0  0  0  0  0  0  0
   59.4467   30.6887   48.0715 H   0  0  0  0  0  0  0  0  0  0  0  0
   60.5867   29.3005   48.0715 H   0  0  0  0  0  0  0  0  0  0  0  0
   61.3132   31.5989   49.8492 H   0  0  0  0  0  0  0  0  0  0  0  0
   62.3457   30.5664   48.7789 H   0  0  0  0  0  0  0  0  0  0  0  0
   63.5460   32.0838   47.9461 H   0  0  0  0  0  0  0  0  0  0  0  0
   62.8473   31.6932   46.3354 H   0  0  0  0  0  0  0  0  0  0  0  0
   63.0734   34.4449   47.6553 H   0  0  0  0  0  0  0  0  0  0  0  0
   63.8985   33.8713   46.1664 H   0  0  0  0  0  0  0  0  0  0  0  0
   62.1204   34.1260   46.1664 H   0  0  0  0  0  0  0  0  0  0  0  0
   61.2136   33.5258   49.4671 H   0  0  0  0  0  0  0  0  0  0  0  0
   61.4172   34.3142   47.8544 H   0  0  0  0  0  0  0  0  0  0  0  0
   58.9488   32.7084   48.6845 H   0  0  0  0  0  0  0  0  0  0  0  0
   59.0874   34.5036   48.7978 H   0  0  0  0  0  0  0  0  0  0  0  0
   58.6809   35.3183   44.0530 H   0  0  0  0  0  0  0  0  0  0  0  0
   60.0971   28.8969   46.1648 H   0  0  0  0  0  0  0  0  0  0  0  0
   59.9191   26.4599   46.6369 H   0  0  0  0  0  0  0  0  0  0  0  0
   57.7460   25.2833   46.3358 H   0  0  0  0  0  0  0  0  0  0  0  0
   55.7397   26.5372   45.5681 H   0  0  0  0  0  0  0  0  0  0  0  0
   55.1105   30.7654   43.8100 H   0  0  0  0  0  0  0  0  0  0  0  0
   56.4100   29.7020   43.1719 H   0  0  0  0  0  0  0  0  0  0  0  0
   54.7053   29.1358   43.1719 H   0  0  0  0  0  0  0  0  0  0  0  0
  1  2  1  0
  2  3  1  0
  3  4  1  0
  4  5  1  0
  3  6  1  0
  6  7  1  0
  7  8  1  0
  8  9  1  0
  9 10  2  0
 10 11  1  0
 11 12  1  0
 12 13  2  0
 12 14  1  0
 14 15  2  0
 15 16  1  0
 16 17  2  0
 17 18  1  0
 18 19  2  0
 19 20  1  0
 20 21  2  0
 21 22  1  0
 22 23  1  0
 15 24  1  0
 24 25  1  0
 25  8  1  0
 25 11  2  0
 21 16  1  0
  1 26  1  0
  1 27  1  0
  1 28  1  0
  2 29  1  0
  2 30  1  0
  4 31  1  0
  4 32  1  0
  5 33  1  0
  5 34  1  0
  5 35  1  0
  6 36  1  0
  6 37  1  0
  7 38  1  0
  7 39  1  0
 10 40  1  0
 17 41  1  0
 18 42  1  0
 19 43  1  0
 20 44  1  0
 23 45  1  0
 23 46  1  0
 23 47  1  0
M  CHG  1  24  -1
M  END
>  <UniqueID>  (54) 
45

>  <SMILES>  (54) 
CCN(CC)CCn1ncc2c(=O)nc(-c3ccccc3OC)[n-]c21

>  <Energy>  (54) 
91.05646762768586

>  <Genealogy>  (54) 
CCN(CC)CCn1ncc2c(=O)nc(-c3ccccc3OC)[n-]c21 (protonated)
CCN(CC)CCn1ncc2c(=O)nc(-c3ccccc3OC)[n-]c21 (3D coordinates assigned)
CCN(CC)CCn1ncc2c(=O)nc(-c3ccccc3OC)[n-]c21 (optimized conformer: 91.05646762768586 kcal/mol)

>  <smiles>  (54) 
CCN(CC)CCn1ncc2c(=O)nc(-c3ccccc3OC)[nH]c21

>  <score_type>  (54) 
oracle

>  <origin>  (54) 
adg

>  <m_score__min__energy>  (54) 
-8.5099999999999998

>  <m_primary>  (54) 
energy

$$$$
54:0
     RDKit          3D

 37 38  0  0  0  0  0  0  0  0999 V2000
   56.8490   33.3560   46.4030 N   0  0  0  0  0  0  0  0  0  0  0  0
   58.2700   33.5420   46.4040 C   0  0  0  0  0  0  0  0  0  0  0  0
   59.0690   32.8050   45.4800 N   0  0  0  0  0  0  0  0  0  0  0  0
   58.8560   34.3680   47.2210 N   0  0  0  0  0  0  0  0  0  0  0  0
   59.9560   33.9310   48.4910 S   0  0  0  0  0  0  0  0  0  0  0  0
   59.4050   34.4120   49.8030 O   0  0  0  0  0  0  0  0  0  0  0  0
   61.2820   34.5980   48.2460 O   0  0  0  0  0  0  0  0  0  0  0  0
   60.1420   32.1810   48.5630 C   0  0  0  0  0  0  0  0  0  0  0  0
   61.3400   31.5780   48.1570 C   0  0  0  0  0  0  0  0  0  0  0  0
   61.4810   30.1880   48.2120 C   0  0  0  0  0  0  0  0  0  0  0  0
   60.4300   29.3870   48.6780 C   0  0  0  0  0  0  0  0  0  0  0  0
   60.6090   27.9670   48.7210 N   0  0  0  0  0  0  0  0  0  0  0  0
   60.3380   27.2200   47.7270 N   0  0  0  0  0  0  0  0  0  0  0  0
   59.0060   27.0850   47.2120 C   0  0  0  0  0  0  0  0  0  0  0  0
   58.2180   25.9600   47.5070 C   0  0  0  0  0  0  0  0  0  0  0  0
   56.9310   25.8460   46.9830 C   0  0  0  0  0  0  0  0  0  0  0  0
   56.4100   26.8530   46.1670 C   0  0  0  0  0  0  0  0  0  0  0  0
   55.1320   26.6980   45.6420 O   0  0  0  0  0  0  0  0  0  0  0  0
   57.1760   27.9990   45.8780 C   0  0  0  0  0  0  0  0  0  0  0  0
   56.5230   29.2790   44.8420 S   0  0  0  0  0  0  0  0  0  0  0  0
   56.8600   29.0050   43.4030 O   0  0  0  0  0  0  0  0  0  0  0  0
   57.1140   30.6100   45.2170 O   0  0  0  0  0  0  0  0  0  0  0  0
   54.8560   29.3420   45.0230 O   0  0  0  0  0  0  0  0  0  0  0  0
   58.4850   28.0980   46.3930 C   0  0  0  0  0  0  0  0  0  0  0  0
   59.2800   29.1990   46.0870 O   0  0  0  0  0  0  0  0  0  0  0  0
   59.2310   29.9950   49.0910 C   0  0  0  0  0  0  0  0  0  0  0  0
   59.0900   31.3840   49.0350 C   0  0  0  0  0  0  0  0  0  0  0  0
   56.2130   33.8530   47.0610 H   0  0  0  0  0  0  0  0  0  0  0  0
   56.4150   32.6920   45.7240 H   0  0  0  0  0  0  0  0  0  0  0  0
   60.1070   32.9250   45.4600 H   0  0  0  0  0  0  0  0  0  0  0  0
   58.6270   32.1370   44.8100 H   0  0  0  0  0  0  0  0  0  0  0  0
   62.1717   32.1998   47.7941 H   0  0  0  0  0  0  0  0  0  0  0  0
   62.4224   29.7206   47.8876 H   0  0  0  0  0  0  0  0  0  0  0  0
   58.6181   25.1656   48.1542 H   0  0  0  0  0  0  0  0  0  0  0  0
   56.3229   24.9588   47.2133 H   0  0  0  0  0  0  0  0  0  0  0  0
   58.4008   29.3746   49.4596 H   0  0  0  0  0  0  0  0  0  0  0  0
   58.1506   31.8534   49.3623 H   0  0  0  0  0  0  0  0  0  0  0  0
  1  2  1  0
  2  3  1  0
  2  4  2  3
  4  5  1  0
  5  6  2  0
  5  7  2  0
  5  8  1  0
  8  9  2  0
  9 10  1  0
 10 11  2  0
 11 12  1  0
 12 13  2  3
 13 14  1  0
 14 15  2  0
 15 16  1  0
 16 17  2  0
 17 18  1  0
 17 19  1  0
 19 20  1  0
 20 21  2  0
 20 22  2  0
 20 23  1  0
 19 24  2  0
 24 25  1  0
 11 26  1  0
 26 27  2  0
 27  8  1  0
 24 14  1  0
  1 28  1  0
  1 29  1  0
  3 30  1  0
  3 31  1  0
  9 32  1  0
 10 33  1  0
 15 34  1  0
 16 35  1  0
 26 36  1  0
 27 37  1  0
M  CHG  3  18  -1  23  -1  25  -1
M  END
>  <UniqueID>  (55) 
46

>  <SMILES>  (55) 
NC(N)=NS(=O)(=O)c1ccc(N=Nc2ccc([O-])c(S(=O)(=O)[O-])c2[O-])cc1

>  <Energy>  (55) 
42.892389415235534

>  <Genealogy>  (55) 
NC(N)=NS(=O)(=O)c1ccc(N=Nc2ccc([O-])c(S(=O)(=O)[O-])c2[O-])cc1 (protonated)
NC(N)=NS(=O)(=O)c1ccc(N=Nc2ccc([O-])c(S(=O)(=O)[O-])c2[O-])cc1 (3D coordinates assigned)
NC(N)=NS(=O)(=O)c1ccc(N=Nc2ccc([O-])c(S(=O)(=O)[O-])c2[O-])cc1 (optimized conformer: 42.892389415235534 kcal/mol)

>  <smiles>  (55) 
NC(N)=NS(=O)(=O)c1ccc(N=Nc2ccc(O)c(S(=O)(=O)O)c2O)cc1

>  <score_type>  (55) 
oracle

>  <origin>  (55) 
adg

>  <m_score__min__energy>  (55) 
-16.309999999999999

>  <m_primary>  (55) 
energy

$$$$
55:0
     RDKit          3D

 36 38  0  0  0  0  0  0  0  0999 V2000
   59.8788   26.0020   46.0201 H   0  0  0  0  0  0  0  0  0  0  0  0
   59.1640   26.6920   45.5480 C   0  0  0  0  0  0  0  0  0  0  0  0
   59.5420   28.1620   44.8160 S   0  0  0  0  0  0  0  0  0  0  0  0
   57.9490   28.4900   44.4050 C   0  0  0  0  0  0  0  0  0  0  0  0
   57.5770   29.5780   43.7950 N   0  0  0  0  0  0  0  0  0  0  0  0
   57.0030   30.7330   44.4220 C   0  0  0  0  0  0  0  0  0  0  0  0
   55.7550   30.8920   44.3800 O   0  0  0  0  0  0  0  0  0  0  0  0
   57.8260   31.6950   45.1790 C   0  0  0  0  0  0  0  0  0  0  0  0
   57.3830   33.2990   45.4970 S   0  0  0  0  0  0  0  0  0  0  0  0
   58.7690   33.6640   46.3700 C   0  0  0  0  0  0  0  0  0  0  0  0
   59.1140   34.8690   46.9760 C   0  0  0  0  0  0  0  0  0  0  0  0
   58.4483   35.7426   46.9156 H   0  0  0  0  0  0  0  0  0  0  0  0
   60.3340   34.9390   47.6660 C   0  0  0  0  0  0  0  0  0  0  0  0
   60.6279   35.8766   48.1605 H   0  0  0  0  0  0  0  0  0  0  0  0
   61.1890   33.8140   47.7310 C   0  0  0  0  0  0  0  0  0  0  0  0
   62.4800   33.8910   48.5020 C   0  0  0  0  0  0  0  0  0  0  0  0
   62.4275   33.2087   49.3633 H   0  0  0  0  0  0  0  0  0  0  0  0
   62.6267   34.9263   48.8436 H   0  0  0  0  0  0  0  0  0  0  0  0
   63.6590   33.4940   47.6200 C   0  0  0  0  0  0  0  0  0  0  0  0
   64.5109   33.2071   48.2540 H   0  0  0  0  0  0  0  0  0  0  0  0
   63.3716   32.6431   46.9849 H   0  0  0  0  0  0  0  0  0  0  0  0
   63.9449   34.3454   46.9849 H   0  0  0  0  0  0  0  0  0  0  0  0
   60.8040   32.6030   47.1170 C   0  0  0  0  0  0  0  0  0  0  0  0
   61.4524   31.7164   47.1761 H   0  0  0  0  0  0  0  0  0  0  0  0
   59.5870   32.5470   46.4330 C   0  0  0  0  0  0  0  0  0  0  0  0
   59.0640   31.4310   45.7730 C   0  0  0  0  0  0  0  0  0  0  0  0
   59.5695   30.4551   45.7263 H   0  0  0  0  0  0  0  0  0  0  0  0
   57.1140   27.5120   44.8280 N   0  0  0  0  0  0  0  0  0  0  0  0
   56.0750   27.5280   44.7310 H   0  0  0  0  0  0  0  0  0  0  0  0
   57.7850   26.5040   45.4500 C   0  0  0  0  0  0  0  0  0  0  0  0
   57.0780   25.3250   46.0460 C   0  0  0  0  0  0  0  0  0  0  0  0
   57.3336   24.4198   45.4757 H   0  0  0  0  0  0  0  0  0  0  0  0
   57.3923   25.2053   47.0933 H   0  0  0  0  0  0  0  0  0  0  0  0
   55.6000   25.5410   45.9970 C   0  0  0  0  0  0  0  0  0  0  0  0
   55.1290   26.7090   46.0030 O   0  0  0  0  0  0  0  0  0  0  0  0
   54.7380   24.4510   45.9950 O   0  0  0  0  0  0  0  0  0  0  0  0
  1  2  1  0
  2  3  1  0
  3  4  1  0
  4  5  2  0
  5  6  1  0
  6  7  2  0
  6  8  1  0
  8  9  1  0
  9 10  1  0
 10 11  2  0
 11 12  1  0
 11 13  1  0
 13 14  1  0
 13 15  2  0
 15 16  1  0
 16 17  1  0
 16 18  1  0
 16 19  1  0
 19 20  1  0
 19 21  1  0
 19 22  1  0
 15 23  1  0
 23 24  1  0
 23 25  2  0
 25 26  1  0
 26 27  1  0
  4 28  1  0
 28 29  1  0
 28 30  1  0
 30 31  1  0
 31 32  1  0
 31 33  1  0
 31 34  1  0
 34 35  2  0
 34 36  1  0
 30  2  2  0
 26  8  2  0
 25 10  1  0
M  CHG  1  36  -1
M  END
>  <UniqueID>  (56) 
47

>  <SMILES>  (56) 
CCc1ccc2sc(C(=O)/N=c3\[nH]c(CC(=O)[O-])cs3)cc2c1

>  <Energy>  (56) 
99.03925198894541

>  <Genealogy>  (56) 
CCc1ccc2sc(C(=O)N=c3[nH]c(CC(=O)[O-])cs3)cc2c1 (protonated)
CCc1ccc2sc(C(=O)/N=c3\[nH]c(CC(=O)[O-])cs3)cc2c1 (cis-trans isomerization)
CCc1ccc2sc(C(=O)/N=c3\[nH]c(CC(=O)[O-])cs3)cc2c1 (3D coordinates assigned)
CCc1ccc2sc(C(=O)/N=c3\[nH]c(CC(=O)[O-])cs3)cc2c1 (optimized conformer: 99.03925198894541 kcal/mol)

>  <smiles>  (56) 
CCc1ccc2sc(C(=O)N=c3[nH]c(CC(=O)O)cs3)cc2c1

>  <score_type>  (56) 
oracle

>  <origin>  (56) 
adg

>  <m_score__min__energy>  (56) 
-11.6

>  <m_primary>  (56) 
energy

$$$$
56:0
     RDKit          3D

 38 39  0  0  0  0  0  0  0  0999 V2000
   55.2759   24.4651   46.8063 H   0  0  0  0  0  0  0  0  0  0  0  0
   55.9610   25.2530   46.4600 C   0  0  0  0  0  0  0  0  0  0  0  0
   55.4670   26.4530   46.0510 N   0  0  0  0  0  0  0  0  0  0  0  0
   56.2780   27.4590   45.6140 C   0  0  0  0  0  0  0  0  0  0  0  0
   55.7930   28.6030   45.2240 N   0  0  0  0  0  0  0  0  0  0  0  0
   56.4530   29.6080   44.4390 C   0  0  0  0  0  0  0  0  0  0  0  0
   55.8110   30.1660   43.5100 O   0  0  0  0  0  0  0  0  0  0  0  0
   57.7980   30.0130   44.7330 N   0  0  0  0  0  0  0  0  0  0  0  0
   58.2300   31.2900   45.2320 C   0  0  0  0  0  0  0  0  0  0  0  0
   57.6110   32.4800   44.8150 C   0  0  0  0  0  0  0  0  0  0  0  0
   56.7730   32.4398   44.1036 H   0  0  0  0  0  0  0  0  0  0  0  0
   58.0520   33.7120   45.2970 C   0  0  0  0  0  0  0  0  0  0  0  0
   57.5650   34.6378   44.9569 H   0  0  0  0  0  0  0  0  0  0  0  0
   59.1060   33.7780   46.2070 C   0  0  0  0  0  0  0  0  0  0  0  0
   59.6720   35.3580   46.7310 Cl  0  0  0  0  0  0  0  0  0  0  0  0
   59.7390   32.5980   46.6370 C   0  0  0  0  0  0  0  0  0  0  0  0
   60.7840   32.6550   47.5670 O   0  0  0  0  0  0  0  0  0  0  0  0
   62.1520   32.4630   47.2050 C   0  0  0  0  0  0  0  0  0  0  0  0
   62.2198   31.7248   46.3923 H   0  0  0  0  0  0  0  0  0  0  0  0
   62.9190   31.9490   48.4210 C   0  0  0  0  0  0  0  0  0  0  0  0
   62.4170   32.2854   49.3402 H   0  0  0  0  0  0  0  0  0  0  0  0
   62.9463   30.8495   48.3995 H   0  0  0  0  0  0  0  0  0  0  0  0
   63.9463   32.3418   48.3995 H   0  0  0  0  0  0  0  0  0  0  0  0
   62.7570   33.7760   46.7030 C   0  0  0  0  0  0  0  0  0  0  0  0
   63.0443   34.3996   47.5624 H   0  0  0  0  0  0  0  0  0  0  0  0
   63.6465   33.5602   46.0929 H   0  0  0  0  0  0  0  0  0  0  0  0
   62.0151   34.3120   46.0929 H   0  0  0  0  0  0  0  0  0  0  0  0
   59.3330   31.3510   46.1110 C   0  0  0  0  0  0  0  0  0  0  0  0
   60.0200   30.0810   46.5480 C   0  0  0  0  0  0  0  0  0  0  0  0
   60.0440   30.0366   47.6468 H   0  0  0  0  0  0  0  0  0  0  0  0
   59.4685   29.2129   46.1579 H   0  0  0  0  0  0  0  0  0  0  0  0
   61.0484   30.0675   46.1579 H   0  0  0  0  0  0  0  0  0  0  0  0
   57.6650   27.2590   45.5830 C   0  0  0  0  0  0  0  0  0  0  0  0
   58.3332   28.0605   45.2349 H   0  0  0  0  0  0  0  0  0  0  0  0
   58.1920   26.0330   45.9980 C   0  0  0  0  0  0  0  0  0  0  0  0
   59.2789   25.8652   45.9762 H   0  0  0  0  0  0  0  0  0  0  0  0
   57.3380   25.0220   46.4400 C   0  0  0  0  0  0  0  0  0  0  0  0
   57.7447   24.0543   46.7689 H   0  0  0  0  0  0  0  0  0  0  0  0
  1  2  1  0
  2  3  1  0
  3  4  1  0
  4  5  2  0
  5  6  1  0
  6  7  2  0
  6  8  1  0
  8  9  1  0
  9 10  2  0
 10 11  1  0
 10 12  1  0
 12 13  1  0
 12 14  2  0
 14 15  1  0
 14 16  1  0
 16 17  1  0
 17 18  1  0
 18 19  1  0
 18 20  1  0
 20 21  1  0
 20 22  1  0
 20 23  1  0
 18 24  1  0
 24 25  1  0
 24 26  1  0
 24 27  1  0
 16 28  2  0
 28 29  1  0
 29 30  1  0
 29 31  1  0
 29 32  1  0
  4 33  1  0
 33 34  1  0
 33 35  2  0
 35 36  1  0
 35 37  1  0
 37 38  1  0
 37  2  2  0
 28  9  1  0
M  CHG  2   3  -1   8  -1
M  END
>  <UniqueID>  (57) 
48

>  <SMILES>  (57) 
Cc1c([N-]C(=O)/N=c2/cccc[n-]2)ccc(Cl)c1OC(C)C

>  <Energy>  (57) 
46.979852962234716

>  <Genealogy>  (57) 
Cc1c([N-]C(=O)N=c2cccc[n-]2)ccc(Cl)c1OC(C)C (protonated)
Cc1c([N-]C(=O)/N=c2/cccc[n-]2)ccc(Cl)c1OC(C)C (cis-trans isomerization)
Cc1c([N-]C(=O)/N=c2/cccc[n-]2)ccc(Cl)c1OC(C)C (3D coordinates assigned)
Cc1c([N-]C(=O)/N=c2/cccc[n-]2)ccc(Cl)c1OC(C)C (optimized conformer: 46.979852962234716 kcal/mol)

>  <smiles>  (57) 
Cc1c(NC(=O)N=c2cccc[nH]2)ccc(Cl)c1OC(C)C

>  <score_type>  (57) 
oracle

>  <origin>  (57) 
adg

>  <m_score__min__energy>  (57) 
-10.279999999999999

>  <m_primary>  (57) 
energy

$$$$
57:0
     RDKit          3D

 49 51  0  0  0  0  0  0  0  0999 V2000
   55.3351   31.2954   44.0358 H   0  0  0  0  0  0  0  0  0  0  0  0
   55.9200   30.4600   44.4480 C   0  0  0  0  0  0  0  0  0  0  0  0
   55.3670   29.2530   44.7440 N   0  0  0  0  0  0  0  0  0  0  0  0
   56.2800   28.3810   45.2270 C   0  0  0  0  0  0  0  0  0  0  0  0
   55.9360   27.1930   45.6330 N   0  0  0  0  0  0  0  0  0  0  0  0
   56.6500   26.2790   46.4830 C   0  0  0  0  0  0  0  0  0  0  0  0
   56.0160   25.3150   46.9870 O   0  0  0  0  0  0  0  0  0  0  0  0
   58.1170   26.4000   46.7730 C   0  0  0  0  0  0  0  0  0  0  0  0
   58.2757   26.4131   47.8614 H   0  0  0  0  0  0  0  0  0  0  0  0
   58.6493   25.5427   46.3351 H   0  0  0  0  0  0  0  0  0  0  0  0
   58.5016   27.3329   46.3351 H   0  0  0  0  0  0  0  0  0  0  0  0
   57.8160   29.0780   45.3130 S   0  0  0  0  0  0  0  0  0  0  0  0
   57.2860   30.5550   44.7080 C   0  0  0  0  0  0  0  0  0  0  0  0
   58.1350   31.7720   44.5020 C   0  0  0  0  0  0  0  0  0  0  0  0
   59.1003   31.4706   44.0692 H   0  0  0  0  0  0  0  0  0  0  0  0
   57.6113   32.4592   43.8212 H   0  0  0  0  0  0  0  0  0  0  0  0
   58.3720   32.4600   45.7820 N   0  0  0  0  0  0  0  0  0  0  0  0
   58.0540   33.8600   45.9480 C   0  0  0  0  0  0  0  0  0  0  0  0
   56.9520   34.2990   45.5200 O   0  0  0  0  0  0  0  0  0  0  0  0
   58.9380   34.7870   46.7380 C   0  0  0  0  0  0  0  0  0  0  0  0
   58.5472   35.8127   46.6656 H   0  0  0  0  0  0  0  0  0  0  0  0
   58.9497   34.4654   47.7899 H   0  0  0  0  0  0  0  0  0  0  0  0
   60.3700   34.7480   46.1830 C   0  0  0  0  0  0  0  0  0  0  0  0
   60.3819   34.1405   45.2661 H   0  0  0  0  0  0  0  0  0  0  0  0
   60.6875   35.7798   45.9720 H   0  0  0  0  0  0  0  0  0  0  0  0
   61.3300   34.1510   47.1790 C   0  0  0  0  0  0  0  0  0  0  0  0
   61.0400   34.1930   48.5540 C   0  0  0  0  0  0  0  0  0  0  0  0
   60.1104   34.6661   48.9032 H   0  0  0  0  0  0  0  0  0  0  0  0
   61.9280   33.6360   49.4800 C   0  0  0  0  0  0  0  0  0  0  0  0
   61.6938   33.6715   50.5542 H   0  0  0  0  0  0  0  0  0  0  0  0
   63.1110   33.0350   49.0450 C   0  0  0  0  0  0  0  0  0  0  0  0
   63.8100   32.6023   49.7758 H   0  0  0  0  0  0  0  0  0  0  0  0
   63.4060   32.9840   47.6780 C   0  0  0  0  0  0  0  0  0  0  0  0
   64.3373   32.5101   47.3343 H   0  0  0  0  0  0  0  0  0  0  0  0
   62.5180   33.5350   46.7480 C   0  0  0  0  0  0  0  0  0  0  0  0
   62.7505   33.4860   45.6740 H   0  0  0  0  0  0  0  0  0  0  0  0
   59.0520   31.7690   46.8500 C   0  0  0  0  0  0  0  0  0  0  0  0
   60.1930   30.9970   46.5740 C   0  0  0  0  0  0  0  0  0  0  0  0
   60.5906   30.9581   45.5491 H   0  0  0  0  0  0  0  0  0  0  0  0
   60.8260   30.2790   47.5900 C   0  0  0  0  0  0  0  0  0  0  0  0
   61.7165   29.6757   47.3597 H   0  0  0  0  0  0  0  0  0  0  0  0
   60.3330   30.3220   48.9050 C   0  0  0  0  0  0  0  0  0  0  0  0
   60.9910   29.5510   49.9830 C   0  0  0  0  0  0  0  0  0  0  0  0
   60.5100   28.4530   50.3720 O   0  0  0  0  0  0  0  0  0  0  0  0
   62.1470   30.0370   50.5900 O   0  0  0  0  0  0  0  0  0  0  0  0
   59.2040   31.1080   49.1830 C   0  0  0  0  0  0  0  0  0  0  0  0
   58.8142   31.1584   50.2104 H   0  0  0  0  0  0  0  0  0  0  0  0
   58.5710   31.8270   48.1660 C   0  0  0  0  0  0  0  0  0  0  0  0
   57.6896   32.4426   48.3991 H   0  0  0  0  0  0  0  0  0  0  0  0
  1  2  1  0
  2  3  1  0
  3  4  1  0
  4  5  2  0
  5  6  1  0
  6  7  2  0
  6  8  1  0
  8  9  1  0
  8 10  1  0
  8 11  1  0
  4 12  1  0
 12 13  1  0
 13 14  1  0
 14 15  1  0
 14 16  1  0
 14 17  1  0
 17 18  1  0
 18 19  2  0
 18 20  1  0
 20 21  1  0
 20 22  1  0
 20 23  1  0
 23 24  1  0
 23 25  1  0
 23 26  1  0
 26 27  2  0
 27 28  1  0
 27 29  1  0
 29 30  1  0
 29 31  2  0
 31 32  1  0
 31 33  1  0
 33 34  1  0
 33 35  2  0
 35 36  1  0
 17 37  1  0
 37 38  2  0
 38 39  1  0
 38 40  1  0
 40 41  1  0
 40 42  2  0
 42 43  1  0
 43 44  2  0
 43 45  1  0
 42 46  1  0
 46 47  1  0
 46 48  2  0
 48 49  1  0
 13  2  2  0
 35 26  1  0
 48 37  1  0
M  CHG  2   3  -1  45  -1
M  END
>  <UniqueID>  (58) 
49

>  <SMILES>  (58) 
CC(=O)/N=c1/[n-]cc(CN(C(=O)CCc2ccccc2)c2ccc(C(=O)[O-])cc2)s1

>  <Energy>  (58) 
86.14908424942178

>  <Genealogy>  (58) 
CC(=O)N=c1[n-]cc(CN(C(=O)CCc2ccccc2)c2ccc(C(=O)[O-])cc2)s1 (protonated)
CC(=O)/N=c1/[n-]cc(CN(C(=O)CCc2ccccc2)c2ccc(C(=O)[O-])cc2)s1 (cis-trans isomerization)
CC(=O)/N=c1/[n-]cc(CN(C(=O)CCc2ccccc2)c2ccc(C(=O)[O-])cc2)s1 (3D coordinates assigned)
CC(=O)/N=c1/[n-]cc(CN(C(=O)CCc2ccccc2)c2ccc(C(=O)[O-])cc2)s1 (optimized conformer: 86.14908424942178 kcal/mol)

>  <smiles>  (58) 
CC(=O)N=c1[nH]cc(CN(C(=O)CCc2ccccc2)c2ccc(C(=O)O)cc2)s1

>  <score_type>  (58) 
oracle

>  <origin>  (58) 
adg

>  <m_score__min__energy>  (58) 
-11.51

>  <m_primary>  (58) 
energy

$$$$
58:0
     RDKit          3D

 34 35  0  0  0  0  0  0  0  0999 V2000
   59.7320   35.4220   47.0900 C   0  0  0  0  0  0  0  0  0  0  0  0
   59.0820   34.3200   46.3060 C   0  0  0  0  0  0  0  0  0  0  0  0
   58.8570   34.4700   44.9290 C   0  0  0  0  0  0  0  0  0  0  0  0
   58.2870   33.4280   44.1910 C   0  0  0  0  0  0  0  0  0  0  0  0
   57.9510   32.2210   44.8180 C   0  0  0  0  0  0  0  0  0  0  0  0
   57.2490   30.9090   43.8780 S   0  0  0  0  0  0  0  0  0  0  0  0
   57.0070   31.3950   42.4760 O   0  0  0  0  0  0  0  0  0  0  0  0
   55.9410   30.4660   44.4730 O   0  0  0  0  0  0  0  0  0  0  0  0
   58.3390   29.5580   43.8360 N   0  0  0  0  0  0  0  0  0  0  0  0
   58.4620   28.5920   44.8940 C   0  0  0  0  0  0  0  0  0  0  0  0
   59.5430   28.6080   45.7970 C   0  0  0  0  0  0  0  0  0  0  0  0
   59.6300   27.6530   46.8110 C   0  0  0  0  0  0  0  0  0  0  0  0
   58.6440   26.6720   46.9410 C   0  0  0  0  0  0  0  0  0  0  0  0
   57.5640   26.6410   46.0510 C   0  0  0  0  0  0  0  0  0  0  0  0
   56.3100   25.4170   46.2200 S   0  0  0  0  0  0  0  0  0  0  0  0
   54.7610   26.1360   45.9570 N   0  0  0  0  0  0  0  0  0  0  0  0
   56.3570   24.8240   47.6000 O   0  0  0  0  0  0  0  0  0  0  0  0
   56.5320   24.3200   45.2160 O   0  0  0  0  0  0  0  0  0  0  0  0
   57.4720   27.6050   45.0380 C   0  0  0  0  0  0  0  0  0  0  0  0
   58.1870   32.0650   46.1910 C   0  0  0  0  0  0  0  0  0  0  0  0
   58.7560   33.1060   46.9290 C   0  0  0  0  0  0  0  0  0  0  0  0
   59.6155   35.2246   48.1659 H   0  0  0  0  0  0  0  0  0  0  0  0
   60.8021   35.4684   46.8394 H   0  0  0  0  0  0  0  0  0  0  0  0
   59.2549   36.3809   46.8394 H   0  0  0  0  0  0  0  0  0  0  0  0
   59.1300   35.4107   44.4284 H   0  0  0  0  0  0  0  0  0  0  0  0
   58.1018   33.5564   43.1143 H   0  0  0  0  0  0  0  0  0  0  0  0
   58.9900   29.5040   43.0210 H   0  0  0  0  0  0  0  0  0  0  0  0
   60.3231   29.3777   45.7024 H   0  0  0  0  0  0  0  0  0  0  0  0
   60.4785   27.6728   47.5107 H   0  0  0  0  0  0  0  0  0  0  0  0
   58.7163   25.9232   47.7435 H   0  0  0  0  0  0  0  0  0  0  0  0
   54.7750   27.0700   46.4250 H   0  0  0  0  0  0  0  0  0  0  0  0
   56.6155   27.5889   44.3480 H   0  0  0  0  0  0  0  0  0  0  0  0
   57.9234   31.1202   46.6888 H   0  0  0  0  0  0  0  0  0  0  0  0
   58.9493   32.9731   48.0037 H   0  0  0  0  0  0  0  0  0  0  0  0
  1  2  1  0
  2  3  2  0
  3  4  1  0
  4  5  2  0
  5  6  1  0
  6  7  2  0
  6  8  2  0
  6  9  1  0
  9 10  1  0
 10 11  2  0
 11 12  1  0
 12 13  2  0
 13 14  1  0
 14 15  1  0
 15 16  1  0
 15 17  2  0
 15 18  2  0
 14 19  2  0
  5 20  1  0
 20 21  2  0
 21  2  1  0
 19 10  1  0
  1 22  1  0
  1 23  1  0
  1 24  1  0
  3 25  1  0
  4 26  1  0
  9 27  1  0
 11 28  1  0
 12 29  1  0
 13 30  1  0
 16 31  1  0
 19 32  1  0
 20 33  1  0
 21 34  1  0
M  CHG  1  16  -1
M  END
>  <UniqueID>  (59) 
50

>  <SMILES>  (59) 
Cc1ccc(S(=O)(=O)Nc2cccc(S([NH-])(=O)=O)c2)cc1

>  <Energy>  (59) 
35.91723674181451

>  <Genealogy>  (59) 
Cc1ccc(S(=O)(=O)Nc2cccc(S([NH-])(=O)=O)c2)cc1 (protonated)
Cc1ccc(S(=O)(=O)Nc2cccc(S([NH-])(=O)=O)c2)cc1 (3D coordinates assigned)
Cc1ccc(S(=O)(=O)Nc2cccc(S([NH-])(=O)=O)c2)cc1 (optimized conformer: 35.91723674181451 kcal/mol)

>  <smiles>  (59) 
Cc1ccc(S(=O)(=O)Nc2cccc(S(N)(=O)=O)c2)cc1

>  <score_type>  (59) 
oracle

>  <origin>  (59) 
adg

>  <m_score__min__energy>  (59) 
-12.48

>  <m_primary>  (59) 
energy

$$$$
59:0
     RDKit          3D

 45 47  0  0  0  0  0  0  0  0999 V2000
   55.0070   26.3930   46.0010 N   0  0  0  0  0  0  0  0  0  0  0  0
   56.0750   25.5110   46.3410 C   0  0  0  0  0  0  0  0  0  0  0  0
   55.8230   24.2920   46.5440 O   0  0  0  0  0  0  0  0  0  0  0  0
   57.4630   26.0160   46.4530 C   0  0  0  0  0  0  0  0  0  0  0  0
   58.4190   25.7060   45.4680 C   0  0  0  0  0  0  0  0  0  0  0  0
   59.7270   26.1820   45.5770 C   0  0  0  0  0  0  0  0  0  0  0  0
   60.1000   26.9710   46.6660 C   0  0  0  0  0  0  0  0  0  0  0  0
   59.1670   27.2810   47.6660 C   0  0  0  0  0  0  0  0  0  0  0  0
   59.5650   28.1530   48.8290 C   0  0  0  0  0  0  0  0  0  0  0  0
   59.7350   29.5490   48.4060 N   0  0  0  0  0  0  0  0  0  0  0  0
   60.6760   30.3980   48.8700 C   0  0  0  0  0  0  0  0  0  0  0  0
   61.6180   30.0590   49.8370 O   0  0  0  0  0  0  0  0  0  0  0  0
   60.5790   31.6310   48.2630 C   0  0  0  0  0  0  0  0  0  0  0  0
   59.5310   31.5260   47.3690 C   0  0  0  0  0  0  0  0  0  0  0  0
   59.0670   32.6140   46.4890 C   0  0  0  0  0  0  0  0  0  0  0  0
   57.7040   32.7050   46.1680 C   0  0  0  0  0  0  0  0  0  0  0  0
   57.2450   33.7190   45.3200 C   0  0  0  0  0  0  0  0  0  0  0  0
   58.1430   34.6520   44.7970 C   0  0  0  0  0  0  0  0  0  0  0  0
   59.4990   34.5810   45.1280 C   0  0  0  0  0  0  0  0  0  0  0  0
   59.9640   33.5710   45.9790 C   0  0  0  0  0  0  0  0  0  0  0  0
   61.3080   33.5450   46.3320 O   0  0  0  0  0  0  0  0  0  0  0  0
   59.0080   30.2390   47.4910 C   0  0  0  0  0  0  0  0  0  0  0  0
   57.7890   29.7040   46.7700 C   0  0  0  0  0  0  0  0  0  0  0  0
   57.9400   29.7170   45.2410 C   0  0  0  0  0  0  0  0  0  0  0  0
   56.6190   29.8170   44.5410 C   0  0  0  0  0  0  0  0  0  0  0  0
   56.5400   30.3670   43.4100 O   0  0  0  0  0  0  0  0  0  0  0  0
   55.4750   29.3050   45.1390 O   0  0  0  0  0  0  0  0  0  0  0  0
   57.8490   26.8100   47.5500 C   0  0  0  0  0  0  0  0  0  0  0  0
   55.1410   27.4280   46.0070 H   0  0  0  0  0  0  0  0  0  0  0  0
   58.1338   25.0845   44.6064 H   0  0  0  0  0  0  0  0  0  0  0  0
   60.4665   25.9341   44.8013 H   0  0  0  0  0  0  0  0  0  0  0  0
   61.1296   27.3511   46.7402 H   0  0  0  0  0  0  0  0  0  0  0  0
   58.7821   28.1036   49.6001 H   0  0  0  0  0  0  0  0  0  0  0  0
   60.5229   27.7887   49.2285 H   0  0  0  0  0  0  0  0  0  0  0  0
   62.2810   30.7440   50.1800 H   0  0  0  0  0  0  0  0  0  0  0  0
   61.2057   32.5152   48.4511 H   0  0  0  0  0  0  0  0  0  0  0  0
   56.9933   31.9761   46.5848 H   0  0  0  0  0  0  0  0  0  0  0  0
   56.1767   33.7813   45.0653 H   0  0  0  0  0  0  0  0  0  0  0  0
   57.7826   35.4437   44.1237 H   0  0  0  0  0  0  0  0  0  0  0  0
   60.2029   35.3207   44.7188 H   0  0  0  0  0  0  0  0  0  0  0  0
   57.6160   28.6678   47.0960 H   0  0  0  0  0  0  0  0  0  0  0  0
   56.9437   30.3612   47.0220 H   0  0  0  0  0  0  0  0  0  0  0  0
   58.5590   30.5798   44.9538 H   0  0  0  0  0  0  0  0  0  0  0  0
   58.4096   28.7687   44.9407 H   0  0  0  0  0  0  0  0  0  0  0  0
   57.1103   27.0641   48.3244 H   0  0  0  0  0  0  0  0  0  0  0  0
  1  2  1  0
  2  3  2  0
  2  4  1  0
  4  5  2  0
  5  6  1  0
  6  7  2  0
  7  8  1  0
  8  9  1  0
  9 10  1  0
 10 11  1  0
 11 12  1  0
 11 13  2  0
 13 14  1  0
 14 15  1  0
 15 16  2  0
 16 17  1  0
 17 18  2  0
 18 19  1  0
 19 20  2  0
 20 21  1  0
 14 22  2  0
 22 23  1  0
 23 24  1  0
 24 25  1  0
 25 26  2  0
 25 27  1  0
  8 28  2  0
 28  4  1  0
 22 10  1  0
 20 15  1  0
  1 29  1  0
  5 30  1  0
  6 31  1  0
  7 32  1  0
  9 33  1  0
  9 34  1  0
 12 35  1  0
 13 36  1  0
 16 37  1  0
 17 38  1  0
 18 39  1  0
 19 40  1  0
 23 41  1  0
 23 42  1  0
 24 43  1  0
 24 44  1  0
 28 45  1  0
M  CHG  3   1  -1  21  -1  27  -1
M  END
>  <UniqueID>  (60) 
51

>  <SMILES>  (60) 
[NH-]C(=O)c1cccc(Cn2c(O)cc(-c3ccccc3[O-])c2CCC(=O)[O-])c1

>  <Energy>  (60) 
75.39312844547929

>  <Genealogy>  (60) 
[NH-]C(=O)c1cccc(Cn2c(O)cc(-c3ccccc3[O-])c2CCC(=O)[O-])c1 (protonated)
[NH-]C(=O)c1cccc(Cn2c(O)cc(-c3ccccc3[O-])c2CCC(=O)[O-])c1 (3D coordinates assigned)
[NH-]C(=O)c1cccc(Cn2c(O)cc(-c3ccccc3[O-])c2CCC(=O)[O-])c1 (optimized conformer: 75.39312844547929 kcal/mol)

>  <smiles>  (60) 
NC(=O)c1cccc(Cn2c(O)cc(-c3ccccc3O)c2CCC(=O)O)c1

>  <score_type>  (60) 
oracle

>  <origin>  (60) 
adg

>  <m_score__min__energy>  (60) 
-15.09

>  <m_primary>  (60) 
energy

$$$$
60:0
     RDKit          3D

 52 54  0  0  0  0  0  0  0  0999 V2000
   51.0350   29.8710   47.9830 C   0  0  0  0  0  0  0  0  0  0  0  0
   51.3480   30.4670   49.2360 O   0  0  0  0  0  0  0  0  0  0  0  0
   50.9910   31.7810   49.5560 C   0  0  0  0  0  0  0  0  0  0  0  0
   50.3130   32.4750   48.7520 O   0  0  0  0  0  0  0  0  0  0  0  0
   51.3850   32.3470   50.8070 N   0  0  0  0  0  0  0  0  0  0  0  0
   52.0960   31.5950   51.8340 C   0  0  0  0  0  0  0  0  0  0  0  0
   53.5410   31.3420   51.4050 C   0  0  0  0  0  0  0  0  0  0  0  0
   54.4340   30.3410   52.5900 S   0  0  0  0  0  0  0  0  0  0  0  0
   54.7020   28.9670   52.0400 O   0  0  0  0  0  0  0  0  0  0  0  0
   53.5650   30.1890   53.8050 O   0  0  0  0  0  0  0  0  0  0  0  0
   55.9130   31.1160   53.0850 N   0  0  0  0  0  0  0  0  0  0  0  0
   56.8920   31.5470   52.3420 C   0  0  0  0  0  0  0  0  0  0  0  0
   57.4080   30.8150   51.2560 C   0  0  0  0  0  0  0  0  0  0  0  0
   58.4790   31.3300   50.5050 C   0  0  0  0  0  0  0  0  0  0  0  0
   59.0160   30.5890   49.3370 C   0  0  0  0  0  0  0  0  0  0  0  0
   59.6590   29.5210   49.5250 O   0  0  0  0  0  0  0  0  0  0  0  0
   58.8640   31.0840   47.9550 C   0  0  0  0  0  0  0  0  0  0  0  0
   59.0090   32.4040   47.5460 C   0  0  0  0  0  0  0  0  0  0  0  0
   58.7550   32.5220   46.2170 N   0  0  0  0  0  0  0  0  0  0  0  0
   58.7050   33.7780   45.4520 C   0  0  0  0  0  0  0  0  0  0  0  0
   57.2500   34.1840   45.2070 C   0  0  0  0  0  0  0  0  0  0  0  0
   59.4760   34.8920   46.1690 C   0  0  0  0  0  0  0  0  0  0  0  0
   58.4370   31.2790   45.7880 C   0  0  0  0  0  0  0  0  0  0  0  0
   58.0660   30.8700   44.5030 C   0  0  0  0  0  0  0  0  0  0  0  0
   57.7990   29.5030   44.3110 C   0  0  0  0  0  0  0  0  0  0  0  0
   57.9070   28.6200   45.3520 N   0  0  0  0  0  0  0  0  0  0  0  0
   58.2610   29.0230   46.6070 C   0  0  0  0  0  0  0  0  0  0  0  0
   58.5120   30.3780   46.8190 C   0  0  0  0  0  0  0  0  0  0  0  0
   59.0000   32.5870   50.8430 C   0  0  0  0  0  0  0  0  0  0  0  0
   58.4620   33.2890   51.9210 C   0  0  0  0  0  0  0  0  0  0  0  0
   57.4350   32.7590   52.6360 N   0  0  0  0  0  0  0  0  0  0  0  0
   50.5295   28.9085   48.1508 H   0  0  0  0  0  0  0  0  0  0  0  0
   50.3715   30.5394   47.4146 H   0  0  0  0  0  0  0  0  0  0  0  0
   51.9619   29.7042   47.4146 H   0  0  0  0  0  0  0  0  0  0  0  0
   52.0917   32.1694   52.7721 H   0  0  0  0  0  0  0  0  0  0  0  0
   51.5929   30.6279   51.9806 H   0  0  0  0  0  0  0  0  0  0  0  0
   53.5367   30.8231   50.4351 H   0  0  0  0  0  0  0  0  0  0  0  0
   54.0478   32.3159   51.3363 H   0  0  0  0  0  0  0  0  0  0  0  0
   56.9728   29.8391   50.9948 H   0  0  0  0  0  0  0  0  0  0  0  0
   59.2903   33.2374   48.2066 H   0  0  0  0  0  0  0  0  0  0  0  0
   59.1915   33.6151   44.4790 H   0  0  0  0  0  0  0  0  0  0  0  0
   56.7415   34.3259   46.1720 H   0  0  0  0  0  0  0  0  0  0  0  0
   57.2227   35.1241   44.6364 H   0  0  0  0  0  0  0  0  0  0  0  0
   56.7399   33.3939   44.6364 H   0  0  0  0  0  0  0  0  0  0  0  0
   59.3844   34.7596   47.2571 H   0  0  0  0  0  0  0  0  0  0  0  0
   60.5370   34.8468   45.8822 H   0  0  0  0  0  0  0  0  0  0  0  0
   59.0600   35.8691   45.8822 H   0  0  0  0  0  0  0  0  0  0  0  0
   57.9862   31.5897   43.6749 H   0  0  0  0  0  0  0  0  0  0  0  0
   57.5009   29.1399   43.3164 H   0  0  0  0  0  0  0  0  0  0  0  0
   58.3461   28.2978   47.4297 H   0  0  0  0  0  0  0  0  0  0  0  0
   59.8285   33.0170   50.2610 H   0  0  0  0  0  0  0  0  0  0  0  0
   58.8697   34.2737   52.1932 H   0  0  0  0  0  0  0  0  0  0  0  0
  1  2  1  0
  2  3  1  0
  3  4  2  0
  3  5  1  0
  5  6  1  0
  6  7  1  0
  7  8  1  0
  8  9  2  0
  8 10  2  0
  8 11  1  0
 11 12  2  3
 12 13  1  0
 13 14  2  0
 14 15  1  0
 15 16  2  0
 15 17  1  0
 17 18  2  0
 18 19  1  0
 19 20  1  0
 20 21  1  0
 20 22  1  0
 19 23  1  0
 23 24  2  0
 24 25  1  0
 25 26  2  0
 26 27  1  0
 27 28  2  0
 14 29  1  0
 29 30  2  0
 30 31  1  0
 31 12  1  0
 28 17  1  0
 28 23  1  0
  1 32  1  0
  1 33  1  0
  1 34  1  0
  6 35  1  0
  6 36  1  0
  7 37  1  0
  7 38  1  0
 13 39  1  0
 18 40  1  0
 20 41  1  0
 21 42  1  0
 21 43  1  0
 21 44  1  0
 22 45  1  0
 22 46  1  0
 22 47  1  0
 24 48  1  0
 25 49  1  0
 27 50  1  0
 29 51  1  0
 30 52  1  0
M  CHG  2   5  -1  31  -1
M  END
>  <UniqueID>  (61) 
52

>  <SMILES>  (61) 
COC(=O)[N-]CCS(=O)(=O)N=c1cc(C(=O)c2cn(C(C)C)c3ccncc23)cc[n-]1

>  <Energy>  (61) 
86.3780198880288

>  <Genealogy>  (61) 
COC(=O)[N-]CCS(=O)(=O)N=c1cc(C(=O)c2cn(C(C)C)c3ccncc23)cc[n-]1 (protonated)
COC(=O)[N-]CCS(=O)(=O)N=c1cc(C(=O)c2cn(C(C)C)c3ccncc23)cc[n-]1 (3D coordinates assigned)
COC(=O)[N-]CCS(=O)(=O)N=c1cc(C(=O)c2cn(C(C)C)c3ccncc23)cc[n-]1 (optimized conformer: 86.3780198880288 kcal/mol)

>  <smiles>  (61) 
COC(=O)NCCS(=O)(=O)N=c1cc(C(=O)c2cn(C(C)C)c3ccncc23)cc[nH]1

>  <score_type>  (61) 
oracle

>  <origin>  (61) 
adg

>  <m_score__min__energy>  (61) 
-12.44

>  <m_primary>  (61) 
energy

$$$$
61:0
     RDKit          3D

 31 33  0  0  0  0  0  0  0  0999 V2000
   59.8496   35.7694   47.1405 H   0  0  0  0  0  0  0  0  0  0  0  0
   59.4170   34.9700   46.5210 C   0  0  0  0  0  0  0  0  0  0  0  0
   59.2800   35.0000   44.8360 S   0  0  0  0  0  0  0  0  0  0  0  0
   58.5560   33.4910   44.7140 C   0  0  0  0  0  0  0  0  0  0  0  0
   58.1390   32.8230   43.5680 C   0  0  0  0  0  0  0  0  0  0  0  0
   58.2638   33.2760   42.5734 H   0  0  0  0  0  0  0  0  0  0  0  0
   57.5550   31.5560   43.7140 C   0  0  0  0  0  0  0  0  0  0  0  0
   57.2185   31.0069   42.8222 H   0  0  0  0  0  0  0  0  0  0  0  0
   57.3930   30.9740   44.9980 C   0  0  0  0  0  0  0  0  0  0  0  0
   56.7780   29.6330   45.1400 C   0  0  0  0  0  0  0  0  0  0  0  0
   55.5440   29.4870   44.9230 O   0  0  0  0  0  0  0  0  0  0  0  0
   57.5660   28.5310   45.6160 N   0  0  0  0  0  0  0  0  0  0  0  0
   57.2550   27.2650   45.6610 C   0  0  0  0  0  0  0  0  0  0  0  0
   58.2960   26.3290   45.7090 C   0  0  0  0  0  0  0  0  0  0  0  0
   59.3424   26.6681   45.7135 H   0  0  0  0  0  0  0  0  0  0  0  0
   58.0030   24.9670   45.7510 C   0  0  0  0  0  0  0  0  0  0  0  0
   58.8174   24.2289   45.7951 H   0  0  0  0  0  0  0  0  0  0  0  0
   56.6770   24.5430   45.7370 C   0  0  0  0  0  0  0  0  0  0  0  0
   56.4380   23.4698   45.7697 H   0  0  0  0  0  0  0  0  0  0  0  0
   55.6500   25.4930   45.6810 C   0  0  0  0  0  0  0  0  0  0  0  0
   54.2200   25.0440   45.6000 C   0  0  0  0  0  0  0  0  0  0  0  0
   53.8173   24.9176   46.6158 H   0  0  0  0  0  0  0  0  0  0  0  0
   53.6283   25.7996   45.0624 H   0  0  0  0  0  0  0  0  0  0  0  0
   54.1664   24.0858   45.0624 H   0  0  0  0  0  0  0  0  0  0  0  0
   55.9560   26.8240   45.6210 N   0  0  0  0  0  0  0  0  0  0  0  0
   55.1660   27.4930   45.4990 H   0  0  0  0  0  0  0  0  0  0  0  0
   57.8320   31.6840   46.1400 C   0  0  0  0  0  0  0  0  0  0  0  0
   57.7176   31.2492   47.1439 H   0  0  0  0  0  0  0  0  0  0  0  0
   58.4130   32.9450   45.9770 C   0  0  0  0  0  0  0  0  0  0  0  0
   58.8940   33.7700   46.9990 C   0  0  0  0  0  0  0  0  0  0  0  0
   58.8628   33.5006   48.0651 H   0  0  0  0  0  0  0  0  0  0  0  0
  1  2  1  0
  2  3  1  0
  3  4  1  0
  4  5  2  0
  5  6  1  0
  5  7  1  0
  7  8  1  0
  7  9  2  0
  9 10  1  0
 10 11  2  0
 10 12  1  0
 12 13  2  0
 13 14  1  0
 14 15  1  0
 14 16  2  0
 16 17  1  0
 16 18  1  0
 18 19  1  0
 18 20  2  0
 20 21  1  0
 21 22  1  0
 21 23  1  0
 21 24  1  0
 20 25  1  0
 25 26  1  0
  9 27  1  0
 27 28  1  0
 27 29  2  0
 29 30  1  0
 30 31  1  0
 30  2  2  0
 29  4  1  0
 25 13  1  0
M  END
>  <UniqueID>  (62) 
53

>  <SMILES>  (62) 
Cc1ccc/c(=N/C(=O)c2ccc3sccc3c2)[nH]1

>  <Energy>  (62) 
71.74353346399043

>  <Genealogy>  (62) 
Cc1ccc/c(=N/C(=O)c2ccc3sccc3c2)[nH]1 (cis-trans isomerization)
Cc1ccc/c(=N/C(=O)c2ccc3sccc3c2)[nH]1 (3D coordinates assigned)
Cc1ccc/c(=N/C(=O)c2ccc3sccc3c2)[nH]1 (optimized conformer: 71.74353346399043 kcal/mol)

>  <smiles>  (62) 
Cc1cccc(=NC(=O)c2ccc3sccc3c2)[nH]1

>  <score_type>  (62) 
oracle

>  <origin>  (62) 
adg

>  <m_score__min__energy>  (62) 
-7.7599999999999998

>  <m_primary>  (62) 
energy

$$$$
62:0
     RDKit          3D

 44 46  0  0  0  0  0  0  0  0999 V2000
   60.0280   32.0540   47.2660 C   0  0  0  0  0  0  0  0  0  0  0  0
   58.7220   31.4850   47.1960 O   0  0  0  0  0  0  0  0  0  0  0  0
   58.2710   30.6230   46.1840 C   0  0  0  0  0  0  0  0  0  0  0  0
   58.3850   29.2260   46.3230 C   0  0  0  0  0  0  0  0  0  0  0  0
   57.9290   28.3620   45.3210 C   0  0  0  0  0  0  0  0  0  0  0  0
   58.0920   26.8740   45.4700 C   0  0  0  0  0  0  0  0  0  0  0  0
   56.7540   26.2100   45.4800 C   0  0  0  0  0  0  0  0  0  0  0  0
   55.6490   26.7630   46.0290 N   0  0  0  0  0  0  0  0  0  0  0  0
   54.5810   25.9690   45.9820 N   0  0  0  0  0  0  0  0  0  0  0  0
   54.8320   24.7790   45.3990 C   0  0  0  0  0  0  0  0  0  0  0  0
   53.9220   23.8570   45.2840 N   0  0  0  0  0  0  0  0  0  0  0  0
   53.8400   22.6640   46.0790 C   0  0  0  0  0  0  0  0  0  0  0  0
   52.9440   21.8210   45.8100 O   0  0  0  0  0  0  0  0  0  0  0  0
   54.8200   22.3680   47.1510 C   0  0  0  0  0  0  0  0  0  0  0  0
   54.4190   22.3140   48.4930 C   0  0  0  0  0  0  0  0  0  0  0  0
   55.3550   22.0240   49.4850 C   0  0  0  0  0  0  0  0  0  0  0  0
   56.6790   21.7830   49.1110 C   0  0  0  0  0  0  0  0  0  0  0  0
   57.5420   21.5200   49.9890 O   0  0  0  0  0  0  0  0  0  0  0  0
   57.0330   21.8260   47.8310 O   0  0  0  0  0  0  0  0  0  0  0  0
   56.1680   22.1000   46.8570 C   0  0  0  0  0  0  0  0  0  0  0  0
   56.4490   24.6490   44.9220 S   0  0  0  0  0  0  0  0  0  0  0  0
   57.3770   28.8950   44.1510 C   0  0  0  0  0  0  0  0  0  0  0  0
   57.2520   30.2860   43.9890 C   0  0  0  0  0  0  0  0  0  0  0  0
   56.6940   30.8480   42.8280 O   0  0  0  0  0  0  0  0  0  0  0  0
   57.3810   31.7320   41.9460 C   0  0  0  0  0  0  0  0  0  0  0  0
   57.6920   31.1550   45.0020 C   0  0  0  0  0  0  0  0  0  0  0  0
   57.5260   32.5340   44.7670 O   0  0  0  0  0  0  0  0  0  0  0  0
   57.1730   33.5230   45.7280 C   0  0  0  0  0  0  0  0  0  0  0  0
   60.3171   32.1799   48.3198 H   0  0  0  0  0  0  0  0  0  0  0  0
   60.7458   31.3871   46.7661 H   0  0  0  0  0  0  0  0  0  0  0  0
   60.0283   33.0338   46.7661 H   0  0  0  0  0  0  0  0  0  0  0  0
   58.8395   28.8077   47.2332 H   0  0  0  0  0  0  0  0  0  0  0  0
   58.6842   26.4866   44.6278 H   0  0  0  0  0  0  0  0  0  0  0  0
   58.6069   26.6612   46.4185 H   0  0  0  0  0  0  0  0  0  0  0  0
   53.3689   22.4999   48.7628 H   0  0  0  0  0  0  0  0  0  0  0  0
   55.0561   21.9857   50.5429 H   0  0  0  0  0  0  0  0  0  0  0  0
   56.5115   22.1168   45.8121 H   0  0  0  0  0  0  0  0  0  0  0  0
   57.0380   28.2201   43.3512 H   0  0  0  0  0  0  0  0  0  0  0  0
   57.9516   32.4662   42.5338 H   0  0  0  0  0  0  0  0  0  0  0  0
   58.0700   31.1549   41.3118 H   0  0  0  0  0  0  0  0  0  0  0  0
   56.6517   32.2572   41.3118 H   0  0  0  0  0  0  0  0  0  0  0  0
   57.3174   33.1183   46.7406 H   0  0  0  0  0  0  0  0  0  0  0  0
   57.8103   34.4094   45.5930 H   0  0  0  0  0  0  0  0  0  0  0  0
   56.1185   33.8055   45.5930 H   0  0  0  0  0  0  0  0  0  0  0  0
  1  2  1  0
  2  3  1  0
  3  4  2  0
  4  5  1  0
  5  6  1  0
  6  7  1  0
  7  8  2  0
  8  9  1  0
  9 10  1  0
 10 11  2  3
 11 12  1  0
 12 13  2  0
 12 14  1  0
 14 15  1  0
 15 16  2  0
 16 17  1  0
 17 18  2  0
 17 19  1  0
 19 20  1  0
 10 21  1  0
  5 22  2  0
 22 23  1  0
 23 24  1  0
 24 25  1  0
 23 26  2  0
 26 27  1  0
 27 28  1  0
 26  3  1  0
 21  7  1  0
 20 14  2  0
  1 29  1  0
  1 30  1  0
  1 31  1  0
  4 32  1  0
  6 33  1  0
  6 34  1  0
 15 35  1  0
 16 36  1  0
 20 37  1  0
 22 38  1  0
 25 39  1  0
 25 40  1  0
 25 41  1  0
 28 42  1  0
 28 43  1  0
 28 44  1  0
M  CHG  1   9  -1
M  END
>  <UniqueID>  (63) 
54

>  <SMILES>  (63) 
COc1cc(Cc2n[n-]c(=NC(=O)c3ccc(=O)oc3)s2)cc(OC)c1OC

>  <Energy>  (63) 
90.07504676443752

>  <Genealogy>  (63) 
COc1cc(Cc2n[n-]c(=NC(=O)c3ccc(=O)oc3)s2)cc(OC)c1OC (protonated)
COc1cc(Cc2n[n-]c(=NC(=O)c3ccc(=O)oc3)s2)cc(OC)c1OC (3D coordinates assigned)
COc1cc(Cc2n[n-]c(=NC(=O)c3ccc(=O)oc3)s2)cc(OC)c1OC (optimized conformer: 90.07504676443752 kcal/mol)

>  <smiles>  (63) 
COc1cc(Cc2n[nH]c(=NC(=O)c3ccc(=O)oc3)s2)cc(OC)c1OC

>  <score_type>  (63) 
oracle

>  <origin>  (63) 
adg

>  <m_score__min__energy>  (63) 
-9.8599999999999994

>  <m_primary>  (63) 
energy

$$$$
63:0
     RDKit          3D

 37 39  0  0  0  0  0  0  0  0999 V2000
   56.3790   27.0870   45.7100 O   0  0  0  0  0  0  0  0  0  0  0  0
   56.6340   28.2910   45.4400 C   0  0  0  0  0  0  0  0  0  0  0  0
   55.5730   29.1110   44.9320 N   0  0  0  0  0  0  0  0  0  0  0  0
   55.5060   29.7200   43.6100 C   0  0  0  0  0  0  0  0  0  0  0  0
   56.4660   30.8740   43.5490 C   0  0  0  0  0  0  0  0  0  0  0  0
   57.0540   31.2380   42.3290 C   0  0  0  0  0  0  0  0  0  0  0  0
   57.9840   32.2770   42.2790 C   0  0  0  0  0  0  0  0  0  0  0  0
   58.3370   32.9610   43.4460 C   0  0  0  0  0  0  0  0  0  0  0  0
   57.7500   32.6180   44.6760 C   0  0  0  0  0  0  0  0  0  0  0  0
   58.1730   33.3140   45.9450 C   0  0  0  0  0  0  0  0  0  0  0  0
   57.7080   34.6170   45.9660 F   0  0  0  0  0  0  0  0  0  0  0  0
   57.6560   32.6340   47.0310 F   0  0  0  0  0  0  0  0  0  0  0  0
   59.5530   33.3470   46.0490 F   0  0  0  0  0  0  0  0  0  0  0  0
   56.8350   31.5510   44.7220 C   0  0  0  0  0  0  0  0  0  0  0  0
   57.9970   28.7920   45.7100 C   0  0  0  0  0  0  0  0  0  0  0  0
   59.1870   28.3720   45.1480 C   0  0  0  0  0  0  0  0  0  0  0  0
   60.1520   29.0510   45.7140 O   0  0  0  0  0  0  0  0  0  0  0  0
   59.6030   29.8510   46.6000 C   0  0  0  0  0  0  0  0  0  0  0  0
   60.3710   30.7810   47.4520 C   0  0  0  0  0  0  0  0  0  0  0  0
   61.6930   31.1210   47.1140 C   0  0  0  0  0  0  0  0  0  0  0  0
   62.4230   32.0010   47.9190 C   0  0  0  0  0  0  0  0  0  0  0  0
   61.8430   32.5480   49.0660 C   0  0  0  0  0  0  0  0  0  0  0  0
   60.5310   32.2170   49.4100 C   0  0  0  0  0  0  0  0  0  0  0  0
   59.7960   31.3360   48.6090 C   0  0  0  0  0  0  0  0  0  0  0  0
   58.2600   29.7240   46.6480 N   0  0  0  0  0  0  0  0  0  0  0  0
   55.7772   28.9750   42.8475 H   0  0  0  0  0  0  0  0  0  0  0  0
   54.4838   30.0789   43.4196 H   0  0  0  0  0  0  0  0  0  0  0  0
   56.7810   30.7023   41.4079 H   0  0  0  0  0  0  0  0  0  0  0  0
   58.4407   32.5587   41.3187 H   0  0  0  0  0  0  0  0  0  0  0  0
   59.0785   33.7723   43.4013 H   0  0  0  0  0  0  0  0  0  0  0  0
   56.4043   31.2440   45.6865 H   0  0  0  0  0  0  0  0  0  0  0  0
   59.3024   27.6062   44.3669 H   0  0  0  0  0  0  0  0  0  0  0  0
   62.1550   30.6927   46.2122 H   0  0  0  0  0  0  0  0  0  0  0  0
   63.4565   32.2631   47.6484 H   0  0  0  0  0  0  0  0  0  0  0  0
   62.4198   33.2393   49.6980 H   0  0  0  0  0  0  0  0  0  0  0  0
   60.0743   32.6496   50.3124 H   0  0  0  0  0  0  0  0  0  0  0  0
   58.7635   31.0764   48.8857 H   0  0  0  0  0  0  0  0  0  0  0  0
  1  2  2  0
  2  3  1  0
  3  4  1  0
  4  5  1  0
  5  6  2  0
  6  7  1  0
  7  8  2  0
  8  9  1  0
  9 10  1  0
 10 11  1  0
 10 12  1  0
 10 13  1  0
  9 14  2  0
  2 15  1  0
 15 16  2  0
 16 17  1  0
 17 18  1  0
 18 19  1  0
 19 20  2  0
 20 21  1  0
 21 22  2  0
 22 23  1  0
 23 24  2  0
 18 25  2  0
 14  5  1  0
 25 15  1  0
 24 19  1  0
  4 26  1  0
  4 27  1  0
  6 28  1  0
  7 29  1  0
  8 30  1  0
 14 31  1  0
 16 32  1  0
 20 33  1  0
 21 34  1  0
 22 35  1  0
 23 36  1  0
 24 37  1  0
M  CHG  1   3  -1
M  END
>  <UniqueID>  (64) 
55

>  <SMILES>  (64) 
O=C([N-]Cc1cccc(C(F)(F)F)c1)c1coc(-c2ccccc2)n1

>  <Energy>  (64) 
71.34134121433723

>  <Genealogy>  (64) 
O=C([N-]Cc1cccc(C(F)(F)F)c1)c1coc(-c2ccccc2)n1 (protonated)
O=C([N-]Cc1cccc(C(F)(F)F)c1)c1coc(-c2ccccc2)n1 (3D coordinates assigned)
O=C([N-]Cc1cccc(C(F)(F)F)c1)c1coc(-c2ccccc2)n1 (optimized conformer: 71.34134121433723 kcal/mol)

>  <smiles>  (64) 
O=C(NCc1cccc(C(F)(F)F)c1)c1coc(-c2ccccc2)n1

>  <score_type>  (64) 
oracle

>  <origin>  (64) 
adg

>  <m_score__min__energy>  (64) 
-9.4600000000000009

>  <m_primary>  (64) 
energy

$$$$
64:0
     RDKit          3D

 48 50  0  0  0  0  0  0  0  0999 V2000
   59.6500   33.8640   48.9120 C   0  0  0  0  0  0  0  0  0  0  0  0
   59.1750   33.9410   47.4930 C   0  0  0  0  0  0  0  0  0  0  0  0
   59.6490   34.9560   46.6500 C   0  0  0  0  0  0  0  0  0  0  0  0
   59.2520   35.0010   45.3140 C   0  0  0  0  0  0  0  0  0  0  0  0
   58.3570   34.0510   44.8140 C   0  0  0  0  0  0  0  0  0  0  0  0
   57.8720   33.0290   45.6490 C   0  0  0  0  0  0  0  0  0  0  0  0
   56.9360   32.0460   45.1870 N   0  0  0  0  0  0  0  0  0  0  0  0
   57.2550   30.8130   44.0140 S   0  0  0  0  0  0  0  0  0  0  0  0
   58.3520   31.2570   43.0900 O   0  0  0  0  0  0  0  0  0  0  0  0
   56.0170   30.5870   43.1950 O   0  0  0  0  0  0  0  0  0  0  0  0
   57.6810   29.3130   44.8310 C   0  0  0  0  0  0  0  0  0  0  0  0
   57.8540   28.1460   44.0800 C   0  0  0  0  0  0  0  0  0  0  0  0
   58.1770   26.9430   44.7110 C   0  0  0  0  0  0  0  0  0  0  0  0
   58.3220   26.8850   46.1020 C   0  0  0  0  0  0  0  0  0  0  0  0
   58.6480   25.6480   46.6820 O   0  0  0  0  0  0  0  0  0  0  0  0
   57.7190   24.6450   47.0830 C   0  0  0  0  0  0  0  0  0  0  0  0
   56.5240   24.6020   46.1700 C   0  0  0  0  0  0  0  0  0  0  0  0
   55.6000   25.4370   46.3700 O   0  0  0  0  0  0  0  0  0  0  0  0
   56.4190   23.6630   45.0760 N   0  0  0  0  0  0  0  0  0  0  0  0
   57.3750   22.5540   44.9330 C   0  0  0  0  0  0  0  0  0  0  0  0
   57.3970   22.0320   43.4920 C   0  0  0  0  0  0  0  0  0  0  0  0
   56.0880   21.7800   43.0220 O   0  0  0  0  0  0  0  0  0  0  0  0
   55.3780   22.9990   42.9400 C   0  0  0  0  0  0  0  0  0  0  0  0
   55.1490   23.5810   44.3340 C   0  0  0  0  0  0  0  0  0  0  0  0
   58.1370   28.0570   46.8590 C   0  0  0  0  0  0  0  0  0  0  0  0
   57.8280   29.2660   46.2230 C   0  0  0  0  0  0  0  0  0  0  0  0
   58.2980   32.9720   46.9800 C   0  0  0  0  0  0  0  0  0  0  0  0
   58.7967   34.0023   49.5923 H   0  0  0  0  0  0  0  0  0  0  0  0
   60.1073   32.8800   49.0927 H   0  0  0  0  0  0  0  0  0  0  0  0
   60.3947   34.6531   49.0927 H   0  0  0  0  0  0  0  0  0  0  0  0
   60.3363   35.7193   47.0437 H   0  0  0  0  0  0  0  0  0  0  0  0
   59.6444   35.7866   44.6516 H   0  0  0  0  0  0  0  0  0  0  0  0
   58.0312   34.1030   43.7646 H   0  0  0  0  0  0  0  0  0  0  0  0
   57.7350   28.1759   42.9869 H   0  0  0  0  0  0  0  0  0  0  0  0
   58.3187   26.0329   44.1097 H   0  0  0  0  0  0  0  0  0  0  0  0
   58.2196   23.6657   47.0625 H   0  0  0  0  0  0  0  0  0  0  0  0
   57.3690   24.8854   48.0977 H   0  0  0  0  0  0  0  0  0  0  0  0
   58.3807   22.9086   45.2028 H   0  0  0  0  0  0  0  0  0  0  0  0
   57.0646   21.7349   45.5984 H   0  0  0  0  0  0  0  0  0  0  0  0
   57.8726   22.7837   42.8448 H   0  0  0  0  0  0  0  0  0  0  0  0
   57.9634   21.0893   43.4705 H   0  0  0  0  0  0  0  0  0  0  0  0
   55.9576   23.7156   42.3395 H   0  0  0  0  0  0  0  0  0  0  0  0
   54.4020   22.8107   42.4689 H   0  0  0  0  0  0  0  0  0  0  0  0
   54.7200   24.5894   44.2389 H   0  0  0  0  0  0  0  0  0  0  0  0
   54.4586   22.9244   44.8837 H   0  0  0  0  0  0  0  0  0  0  0  0
   58.2354   28.0233   47.9541 H   0  0  0  0  0  0  0  0  0  0  0  0
   57.7003   30.1818   46.8189 H   0  0  0  0  0  0  0  0  0  0  0  0
   57.9424   32.1600   47.6313 H   0  0  0  0  0  0  0  0  0  0  0  0
  1  2  1  0
  2  3  2  0
  3  4  1  0
  4  5  2  0
  5  6  1  0
  6  7  1  0
  7  8  1  0
  8  9  2  0
  8 10  2  0
  8 11  1  0
 11 12  2  0
 12 13  1  0
 13 14  2  0
 14 15  1  0
 15 16  1  0
 16 17  1  0
 17 18  2  0
 17 19  1  0
 19 20  1  0
 20 21  1  0
 21 22  1  0
 22 23  1  0
 23 24  1  0
 14 25  1  0
 25 26  2  0
  6 27  2  0
 27  2  1  0
 26 11  1  0
 24 19  1  0
  1 28  1  0
  1 29  1  0
  1 30  1  0
  3 31  1  0
  4 32  1  0
  5 33  1  0
 12 34  1  0
 13 35  1  0
 16 36  1  0
 16 37  1  0
 20 38  1  0
 20 39  1  0
 21 40  1  0
 21 41  1  0
 23 42  1  0
 23 43  1  0
 24 44  1  0
 24 45  1  0
 25 46  1  0
 26 47  1  0
 27 48  1  0
M  CHG  1   7  -1
M  END
>  <UniqueID>  (65) 
56

>  <SMILES>  (65) 
Cc1cccc([N-]S(=O)(=O)c2ccc(OCC(=O)N3CCOCC3)cc2)c1

>  <Energy>  (65) 
53.811609653713276

>  <Genealogy>  (65) 
Cc1cccc([N-]S(=O)(=O)c2ccc(OCC(=O)N3CCOCC3)cc2)c1 (protonated)
Cc1cccc([N-]S(=O)(=O)c2ccc(OCC(=O)N3CCOCC3)cc2)c1 (3D coordinates assigned)
Cc1cccc([N-]S(=O)(=O)c2ccc(OCC(=O)N3CCOCC3)cc2)c1 (nonaromatic ring conformer: 53.811609653713276 kcal/mol)

>  <smiles>  (65) 
Cc1cccc(NS(=O)(=O)c2ccc(OCC(=O)N3CCOCC3)cc2)c1

>  <score_type>  (65) 
oracle

>  <origin>  (65) 
adg

>  <m_score__min__energy>  (65) 
-10.140000000000001

>  <m_primary>  (65) 
energy

$$$$
65:0
     RDKit          3D

 62 65  0  0  0  0  0  0  0  0999 V2000
   57.7130   31.8340   52.1380 C   0  0  0  0  0  0  0  0  0  0  0  0
   58.0090   33.0540   51.4930 O   0  0  0  0  0  0  0  0  0  0  0  0
   59.2780   33.5310   51.8990 C   0  0  0  0  0  0  0  0  0  0  0  0
   60.3760   32.4720   51.6800 C   0  0  0  0  0  0  0  0  0  0  0  0
   60.4020   32.0000   50.2850 N   0  0  0  0  0  0  0  0  0  0  0  0
   60.5510   30.5850   50.0100 C   0  0  0  0  0  0  0  0  0  0  0  0
   60.9040   29.8040   50.9350 O   0  0  0  0  0  0  0  0  0  0  0  0
   60.2610   30.0080   48.6780 C   0  0  0  0  0  0  0  0  0  0  0  0
   61.0220   30.3610   47.5530 C   0  0  0  0  0  0  0  0  0  0  0  0
   60.7300   29.8100   46.3020 C   0  0  0  0  0  0  0  0  0  0  0  0
   59.6880   28.8820   46.1560 C   0  0  0  0  0  0  0  0  0  0  0  0
   59.4290   28.3140   44.8590 N   0  0  0  0  0  0  0  0  0  0  0  0
   57.9270   27.5660   44.4180 S   0  0  0  0  0  0  0  0  0  0  0  0
   56.8100   28.1750   45.2180 O   0  0  0  0  0  0  0  0  0  0  0  0
   57.6660   27.7980   42.9570 O   0  0  0  0  0  0  0  0  0  0  0  0
   58.0140   25.8390   44.7110 C   0  0  0  0  0  0  0  0  0  0  0  0
   57.4000   24.8540   43.9550 C   0  0  0  0  0  0  0  0  0  0  0  0
   57.6360   23.5650   44.4460 C   0  0  0  0  0  0  0  0  0  0  0  0
   58.4330   23.5390   45.5840 C   0  0  0  0  0  0  0  0  0  0  0  0
   58.8440   25.1210   45.9830 S   0  0  0  0  0  0  0  0  0  0  0  0
   58.9270   28.5300   47.2850 C   0  0  0  0  0  0  0  0  0  0  0  0
   59.2180   29.0820   48.5350 C   0  0  0  0  0  0  0  0  0  0  0  0
   60.2450   32.9550   49.2130 C   0  0  0  0  0  0  0  0  0  0  0  0
   59.0290   33.0800   48.5040 C   0  0  0  0  0  0  0  0  0  0  0  0
   57.8810   32.3260   48.9380 N   0  0  0  0  0  0  0  0  0  0  0  0
   58.9510   33.9360   47.4210 N   0  0  0  0  0  0  0  0  0  0  0  0
   57.7180   34.0230   46.6080 C   0  0  0  0  0  0  0  0  0  0  0  0
   57.7820   33.0850   45.4250 C   0  0  0  0  0  0  0  0  0  0  0  0
   58.1050   33.5730   44.1460 C   0  0  0  0  0  0  0  0  0  0  0  0
   58.1360   32.7100   43.0490 C   0  0  0  0  0  0  0  0  0  0  0  0
   57.8390   31.3540   43.2150 C   0  0  0  0  0  0  0  0  0  0  0  0
   57.5040   30.8610   44.4770 C   0  0  0  0  0  0  0  0  0  0  0  0
   57.4660   31.7240   45.5770 C   0  0  0  0  0  0  0  0  0  0  0  0
   60.0480   34.6880   47.0720 C   0  0  0  0  0  0  0  0  0  0  0  0
   60.0050   35.4860   46.0960 O   0  0  0  0  0  0  0  0  0  0  0  0
   61.2050   34.5800   47.7650 N   0  0  0  0  0  0  0  0  0  0  0  0
   61.3330   33.7340   48.8100 C   0  0  0  0  0  0  0  0  0  0  0  0
   62.4450   33.6390   49.3940 O   0  0  0  0  0  0  0  0  0  0  0  0
   57.7479   31.9776   53.2280 H   0  0  0  0  0  0  0  0  0  0  0  0
   56.7074   31.4985   51.8443 H   0  0  0  0  0  0  0  0  0  0  0  0
   58.4531   31.0750   51.8443 H   0  0  0  0  0  0  0  0  0  0  0  0
   59.5260   34.4292   51.3144 H   0  0  0  0  0  0  0  0  0  0  0  0
   59.2319   33.7633   52.9732 H   0  0  0  0  0  0  0  0  0  0  0  0
   61.3528   32.9141   51.9257 H   0  0  0  0  0  0  0  0  0  0  0  0
   60.1598   31.6119   52.3308 H   0  0  0  0  0  0  0  0  0  0  0  0
   61.8525   31.0749   47.6562 H   0  0  0  0  0  0  0  0  0  0  0  0
   61.3226   30.1067   45.4240 H   0  0  0  0  0  0  0  0  0  0  0  0
   60.2120   28.2450   44.1710 H   0  0  0  0  0  0  0  0  0  0  0  0
   56.7912   25.0629   43.0630 H   0  0  0  0  0  0  0  0  0  0  0  0
   57.2290   22.6579   43.9755 H   0  0  0  0  0  0  0  0  0  0  0  0
   58.7428   22.6366   46.1315 H   0  0  0  0  0  0  0  0  0  0  0  0
   58.0971   27.8153   47.1832 H   0  0  0  0  0  0  0  0  0  0  0  0
   58.6246   28.7880   49.4133 H   0  0  0  0  0  0  0  0  0  0  0  0
   57.1140   32.7320   49.5150 H   0  0  0  0  0  0  0  0  0  0  0  0
   57.7740   31.3160   48.7040 H   0  0  0  0  0  0  0  0  0  0  0  0
   56.8546   33.7539   47.2341 H   0  0  0  0  0  0  0  0  0  0  0  0
   57.6168   35.0525   46.2339 H   0  0  0  0  0  0  0  0  0  0  0  0
   58.3344   34.6401   44.0094 H   0  0  0  0  0  0  0  0  0  0  0  0
   58.3945   33.0976   42.0525 H   0  0  0  0  0  0  0  0  0  0  0  0
   57.8694   30.6750   42.3501 H   0  0  0  0  0  0  0  0  0  0  0  0
   57.2699   29.7940   44.6065 H   0  0  0  0  0  0  0  0  0  0  0  0
   57.1870   31.3350   46.5674 H   0  0  0  0  0  0  0  0  0  0  0  0
  1  2  1  0
  2  3  1  0
  3  4  1  0
  4  5  1  0
  5  6  1  0
  6  7  2  0
  6  8  1  0
  8  9  2  0
  9 10  1  0
 10 11  2  0
 11 12  1  0
 12 13  1  0
 13 14  2  0
 13 15  2  0
 13 16  1  0
 16 17  2  0
 17 18  1  0
 18 19  2  0
 19 20  1  0
 11 21  1  0
 21 22  2  0
  5 23  1  0
 23 24  2  0
 24 25  1  0
 24 26  1  0
 26 27  1  0
 27 28  1  0
 28 29  2  0
 29 30  1  0
 30 31  2  0
 31 32  1  0
 32 33  2  0
 26 34  1  0
 34 35  2  0
 34 36  1  0
 36 37  1  0
 37 38  2  0
 22  8  1  0
 37 23  1  0
 20 16  1  0
 33 28  1  0
  1 39  1  0
  1 40  1  0
  1 41  1  0
  3 42  1  0
  3 43  1  0
  4 44  1  0
  4 45  1  0
  9 46  1  0
 10 47  1  0
 12 48  1  0
 17 49  1  0
 18 50  1  0
 19 51  1  0
 21 52  1  0
 22 53  1  0
 25 54  1  0
 25 55  1  0
 27 56  1  0
 27 57  1  0
 29 58  1  0
 30 59  1  0
 31 60  1  0
 32 61  1  0
 33 62  1  0
M  CHG  1  36  -1
M  END
>  <UniqueID>  (66) 
57

>  <SMILES>  (66) 
COCCN(C(=O)c1ccc(NS(=O)(=O)c2cccs2)cc1)c1c(N)n(Cc2ccccc2)c(=O)[n-]c1=O

>  <Energy>  (66) 
109.87753466195974

>  <Genealogy>  (66) 
COCCN(C(=O)c1ccc(NS(=O)(=O)c2cccs2)cc1)c1c(N)n(Cc2ccccc2)c(=O)[n-]c1=O (protonated)
COCCN(C(=O)c1ccc(NS(=O)(=O)c2cccs2)cc1)c1c(N)n(Cc2ccccc2)c(=O)[n-]c1=O (3D coordinates assigned)
COCCN(C(=O)c1ccc(NS(=O)(=O)c2cccs2)cc1)c1c(N)n(Cc2ccccc2)c(=O)[n-]c1=O (optimized conformer: 109.87753466195974 kcal/mol)

>  <smiles>  (66) 
COCCN(C(=O)c1ccc(NS(=O)(=O)c2cccs2)cc1)c1c(N)n(Cc2ccccc2)c(=O)[nH]c1=O

>  <score_type>  (66) 
oracle

>  <origin>  (66) 
adg

>  <m_score__min__energy>  (66) 
-10.609999999999999

>  <m_primary>  (66) 
energy

$$$$
66:0
     RDKit          3D

 75 78  0  0  0  0  0  0  0  0999 V2000
   54.0430   23.9580   45.2850 C   0  0  0  0  0  0  0  0  0  0  0  0
   55.2540   24.3430   44.6480 O   0  0  0  0  0  0  0  0  0  0  0  0
   56.3190   24.9870   45.2950 C   0  0  0  0  0  0  0  0  0  0  0  0
   57.6330   24.4720   45.2760 C   0  0  0  0  0  0  0  0  0  0  0  0
   58.6670   25.1470   45.9310 C   0  0  0  0  0  0  0  0  0  0  0  0
   58.4130   26.3620   46.5850 C   0  0  0  0  0  0  0  0  0  0  0  0
   59.4880   27.0710   47.3020 C   0  0  0  0  0  0  0  0  0  0  0  0
   60.4280   26.3720   47.7720 O   0  0  0  0  0  0  0  0  0  0  0  0
   59.5050   28.5130   47.4700 N   0  0  0  0  0  0  0  0  0  0  0  0
   60.4990   29.3150   46.7280 C   0  0  0  0  0  0  0  0  0  0  0  0
   60.0560   30.7800   46.5780 C   0  0  0  0  0  0  0  0  0  0  0  0
   60.7640   31.6490   47.5490 N   0  0  0  0  0  0  0  0  0  0  0  0
   59.9510   32.7960   48.0170 C   0  0  0  0  0  0  0  0  0  0  0  0
   59.1140   33.4310   46.9230 C   0  0  0  0  0  0  0  0  0  0  0  0
   57.7560   33.1020   46.7790 C   0  0  0  0  0  0  0  0  0  0  0  0
   56.9920   33.6700   45.7560 C   0  0  0  0  0  0  0  0  0  0  0  0
   57.5750   34.5810   44.8720 C   0  0  0  0  0  0  0  0  0  0  0  0
   58.9160   34.9420   45.0230 C   0  0  0  0  0  0  0  0  0  0  0  0
   59.6820   34.3770   46.0490 C   0  0  0  0  0  0  0  0  0  0  0  0
   62.1220   32.0410   47.1090 C   0  0  0  0  0  0  0  0  0  0  0  0
   63.0640   32.1160   48.2810 C   0  0  0  0  0  0  0  0  0  0  0  0
   64.1030   33.0580   48.2880 C   0  0  0  0  0  0  0  0  0  0  0  0
   64.9590   33.1600   49.3890 C   0  0  0  0  0  0  0  0  0  0  0  0
   64.7810   32.3340   50.5100 C   0  0  0  0  0  0  0  0  0  0  0  0
   65.6670   32.4830   51.6340 N   0  0  0  0  0  0  0  0  0  0  0  0
   67.2630   33.1610   51.5450 S   0  0  0  0  0  0  0  0  0  0  0  0
   67.2430   34.8420   52.1250 C   0  0  0  0  0  0  0  0  0  0  0  0
   68.1840   32.3590   52.4210 O   0  0  0  0  0  0  0  0  0  0  0  0
   67.7770   33.1080   50.1350 O   0  0  0  0  0  0  0  0  0  0  0  0
   63.7480   31.3780   50.4930 C   0  0  0  0  0  0  0  0  0  0  0  0
   62.8960   31.2730   49.3890 C   0  0  0  0  0  0  0  0  0  0  0  0
   58.5370   29.2150   48.3390 C   0  0  0  0  0  0  0  0  0  0  0  0
   59.1840   29.6710   49.6200 C   0  0  0  0  0  0  0  0  0  0  0  0
   58.7030   30.8080   50.2960 C   0  0  0  0  0  0  0  0  0  0  0  0
   59.3210   31.2400   51.4760 C   0  0  0  0  0  0  0  0  0  0  0  0
   60.4150   30.5390   51.9940 C   0  0  0  0  0  0  0  0  0  0  0  0
   61.2020   31.0970   53.4610 Cl  0  0  0  0  0  0  0  0  0  0  0  0
   60.8890   29.3990   51.3350 C   0  0  0  0  0  0  0  0  0  0  0  0
   60.2730   28.9640   50.1580 C   0  0  0  0  0  0  0  0  0  0  0  0
   57.0990   26.8590   46.6370 C   0  0  0  0  0  0  0  0  0  0  0  0
   56.0620   26.1830   45.9840 C   0  0  0  0  0  0  0  0  0  0  0  0
   54.7700   26.7060   46.0170 O   0  0  0  0  0  0  0  0  0  0  0  0
   54.1735   23.9995   46.3764 H   0  0  0  0  0  0  0  0  0  0  0  0
   53.2370   24.6442   44.9858 H   0  0  0  0  0  0  0  0  0  0  0  0
   53.7813   22.9324   44.9858 H   0  0  0  0  0  0  0  0  0  0  0  0
   57.8446   23.5336   44.7424 H   0  0  0  0  0  0  0  0  0  0  0  0
   59.6826   24.7245   45.9337 H   0  0  0  0  0  0  0  0  0  0  0  0
   61.4556   29.2863   47.2703 H   0  0  0  0  0  0  0  0  0  0  0  0
   60.6015   28.8847   45.7209 H   0  0  0  0  0  0  0  0  0  0  0  0
   60.2820   31.1219   45.5572 H   0  0  0  0  0  0  0  0  0  0  0  0
   58.9753   30.8422   46.7736 H   0  0  0  0  0  0  0  0  0  0  0  0
   59.2764   32.4436   48.8112 H   0  0  0  0  0  0  0  0  0  0  0  0
   60.6518   33.5644   48.3753 H   0  0  0  0  0  0  0  0  0  0  0  0
   57.2900   32.3913   47.4774 H   0  0  0  0  0  0  0  0  0  0  0  0
   55.9313   33.3997   45.6468 H   0  0  0  0  0  0  0  0  0  0  0  0
   56.9777   35.0145   44.0563 H   0  0  0  0  0  0  0  0  0  0  0  0
   59.3701   35.6706   44.3353 H   0  0  0  0  0  0  0  0  0  0  0  0
   60.7339   34.6739   46.1731 H   0  0  0  0  0  0  0  0  0  0  0  0
   62.4975   31.2963   46.3918 H   0  0  0  0  0  0  0  0  0  0  0  0
   62.0667   33.0333   46.6376 H   0  0  0  0  0  0  0  0  0  0  0  0
   64.2455   33.7209   47.4218 H   0  0  0  0  0  0  0  0  0  0  0  0
   65.7786   33.8935   49.3766 H   0  0  0  0  0  0  0  0  0  0  0  0
   65.3680   32.1180   52.5660 H   0  0  0  0  0  0  0  0  0  0  0  0
   67.2429   34.8504   53.2250 H   0  0  0  0  0  0  0  0  0  0  0  0
   68.1349   35.3684   51.7544 H   0  0  0  0  0  0  0  0  0  0  0  0
   66.3388   35.3470   51.7544 H   0  0  0  0  0  0  0  0  0  0  0  0
   63.6098   30.7084   51.3547 H   0  0  0  0  0  0  0  0  0  0  0  0
   62.0895   30.5249   49.3898 H   0  0  0  0  0  0  0  0  0  0  0  0
   58.1448   30.0921   47.8034 H   0  0  0  0  0  0  0  0  0  0  0  0
   57.7244   28.5170   48.5891 H   0  0  0  0  0  0  0  0  0  0  0  0
   57.8390   31.3589   49.8961 H   0  0  0  0  0  0  0  0  0  0  0  0
   58.9451   32.1330   51.9969 H   0  0  0  0  0  0  0  0  0  0  0  0
   61.7469   28.8449   51.7435 H   0  0  0  0  0  0  0  0  0  0  0  0
   60.6433   28.0618   49.6492 H   0  0  0  0  0  0  0  0  0  0  0  0
   56.8849   27.7834   47.1935 H   0  0  0  0  0  0  0  0  0  0  0  0
  1  2  1  0
  2  3  1  0
  3  4  2  0
  4  5  1  0
  5  6  2  0
  6  7  1  0
  7  8  2  0
  7  9  1  0
  9 10  1  0
 10 11  1  0
 11 12  1  0
 12 13  1  0
 13 14  1  0
 14 15  2  0
 15 16  1  0
 16 17  2  0
 17 18  1  0
 18 19  2  0
 12 20  1  0
 20 21  1  0
 21 22  2  0
 22 23  1  0
 23 24  2  0
 24 25  1  0
 25 26  1  0
 26 27  1  0
 26 28  2  0
 26 29  2  0
 24 30  1  0
 30 31  2  0
  9 32  1  0
 32 33  1  0
 33 34  2  0
 34 35  1  0
 35 36  2  0
 36 37  1  0
 36 38  1  0
 38 39  2  0
  6 40  1  0
 40 41  2  0
 41 42  1  0
 41  3  1  0
 19 14  1  0
 31 21  1  0
 39 33  1  0
  1 43  1  0
  1 44  1  0
  1 45  1  0
  4 46  1  0
  5 47  1  0
 10 48  1  0
 10 49  1  0
 11 50  1  0
 11 51  1  0
 13 52  1  0
 13 53  1  0
 15 54  1  0
 16 55  1  0
 17 56  1  0
 18 57  1  0
 19 58  1  0
 20 59  1  0
 20 60  1  0
 22 61  1  0
 23 62  1  0
 25 63  1  0
 27 64  1  0
 27 65  1  0
 27 66  1  0
 30 67  1  0
 31 68  1  0
 32 69  1  0
 32 70  1  0
 34 71  1  0
 35 72  1  0
 38 73  1  0
 39 74  1  0
 40 75  1  0
M  CHG  1  42  -1
M  END
>  <UniqueID>  (67) 
58

>  <SMILES>  (67) 
COc1ccc(C(=O)N(CCN(Cc2ccccc2)Cc2ccc(NS(C)(=O)=O)cc2)Cc2ccc(Cl)cc2)cc1[O-]

>  <Energy>  (67) 
83.22105357644885

>  <Genealogy>  (67) 
COc1ccc(C(=O)N(CCN(Cc2ccccc2)Cc2ccc(NS(C)(=O)=O)cc2)Cc2ccc(Cl)cc2)cc1[O-] (protonated)
COc1ccc(C(=O)N(CCN(Cc2ccccc2)Cc2ccc(NS(C)(=O)=O)cc2)Cc2ccc(Cl)cc2)cc1[O-] (3D coordinates assigned)
COc1ccc(C(=O)N(CCN(Cc2ccccc2)Cc2ccc(NS(C)(=O)=O)cc2)Cc2ccc(Cl)cc2)cc1[O-] (optimized conformer: 83.22105357644885 kcal/mol)

>  <smiles>  (67) 
COc1ccc(C(=O)N(CCN(Cc2ccccc2)Cc2ccc(NS(C)(=O)=O)cc2)Cc2ccc(Cl)cc2)cc1O

>  <score_type>  (67) 
oracle

>  <origin>  (67) 
adg

>  <m_score__min__energy>  (67) 
-13.6

>  <m_primary>  (67) 
energy

$$$$
67:0
     RDKit          3D

 45 47  0  0  0  0  0  0  0  0999 V2000
   57.9700   31.1900   43.9850 C   0  0  0  0  0  0  0  0  0  0  0  0
   57.0030   30.5250   44.8730 N   0  0  0  0  0  0  0  0  0  0  0  0
   55.9130   29.9010   44.1060 C   0  0  0  0  0  0  0  0  0  0  0  0
   57.6450   29.5990   45.8320 C   0  0  0  0  0  0  0  0  0  0  0  0
   59.0070   30.0850   46.3690 C   0  0  0  0  0  0  0  0  0  0  0  0
   58.9690   30.4500   47.8680 C   0  0  0  0  0  0  0  0  0  0  0  0
   59.3010   31.8600   48.1790 N   0  0  0  0  0  0  0  0  0  0  0  0
   58.9300   32.8340   47.1910 C   0  0  0  0  0  0  0  0  0  0  0  0
   57.5740   33.0570   46.9020 C   0  0  0  0  0  0  0  0  0  0  0  0
   57.2050   33.9350   45.8800 C   0  0  0  0  0  0  0  0  0  0  0  0
   58.1870   34.5870   45.1320 C   0  0  0  0  0  0  0  0  0  0  0  0
   59.5400   34.3610   45.4020 C   0  0  0  0  0  0  0  0  0  0  0  0
   59.9170   33.4690   46.4200 C   0  0  0  0  0  0  0  0  0  0  0  0
   61.3600   33.2910   46.7760 C   0  0  0  0  0  0  0  0  0  0  0  0
   61.6370   34.2190   48.3050 S   0  0  0  0  0  0  0  0  0  0  0  0
   61.0930   32.9850   49.5160 C   0  0  0  0  0  0  0  0  0  0  0  0
   61.8620   32.9250   50.6840 C   0  0  0  0  0  0  0  0  0  0  0  0
   61.3890   32.2700   51.8160 C   0  0  0  0  0  0  0  0  0  0  0  0
   60.1130   31.7180   51.8180 C   0  0  0  0  0  0  0  0  0  0  0  0
   59.3260   31.7390   50.6570 C   0  0  0  0  0  0  0  0  0  0  0  0
   57.9870   31.2220   50.7120 N   0  0  0  0  0  0  0  0  0  0  0  0
   57.0180   32.0010   50.8210 O   0  0  0  0  0  0  0  0  0  0  0  0
   57.7700   29.8700   50.8420 O   0  0  0  0  0  0  0  0  0  0  0  0
   59.8610   32.2700   49.4530 C   0  0  0  0  0  0  0  0  0  0  0  0
   58.7265   31.7103   44.5908 H   0  0  0  0  0  0  0  0  0  0  0  0
   58.4620   30.4383   43.3502 H   0  0  0  0  0  0  0  0  0  0  0  0
   57.4442   31.9184   43.3502 H   0  0  0  0  0  0  0  0  0  0  0  0
   55.1723   29.4770   44.8000 H   0  0  0  0  0  0  0  0  0  0  0  0
   55.4297   30.6593   43.4723 H   0  0  0  0  0  0  0  0  0  0  0  0
   56.3222   29.1003   43.4723 H   0  0  0  0  0  0  0  0  0  0  0  0
   56.9662   29.4633   46.6869 H   0  0  0  0  0  0  0  0  0  0  0  0
   57.8373   28.6636   45.2860 H   0  0  0  0  0  0  0  0  0  0  0  0
   59.7475   29.2850   46.2217 H   0  0  0  0  0  0  0  0  0  0  0  0
   59.2724   30.9974   45.8149 H   0  0  0  0  0  0  0  0  0  0  0  0
   57.9547   30.2479   48.2425 H   0  0  0  0  0  0  0  0  0  0  0  0
   59.7442   29.8382   48.3525 H   0  0  0  0  0  0  0  0  0  0  0  0
   56.7981   32.5375   47.4835 H   0  0  0  0  0  0  0  0  0  0  0  0
   56.1410   34.1126   45.6647 H   0  0  0  0  0  0  0  0  0  0  0  0
   57.8957   35.2798   44.3288 H   0  0  0  0  0  0  0  0  0  0  0  0
   60.3111   34.8827   44.8161 H   0  0  0  0  0  0  0  0  0  0  0  0
   61.5829   32.2254   46.9337 H   0  0  0  0  0  0  0  0  0  0  0  0
   62.0141   33.6534   45.9693 H   0  0  0  0  0  0  0  0  0  0  0  0
   62.8530   33.4019   50.7068 H   0  0  0  0  0  0  0  0  0  0  0  0
   62.0247   32.1887   52.7100 H   0  0  0  0  0  0  0  0  0  0  0  0
   59.7175   31.2612   52.7372 H   0  0  0  0  0  0  0  0  0  0  0  0
  1  2  1  0
  2  3  1  0
  2  4  1  0
  4  5  1  0
  5  6  1  0
  6  7  1  0
  7  8  1  0
  8  9  2  0
  9 10  1  0
 10 11  2  0
 11 12  1  0
 12 13  2  0
 13 14  1  0
 14 15  1  0
 15 16  1  0
 16 17  2  0
 17 18  1  0
 18 19  2  0
 19 20  1  0
 20 21  1  0
 21 22  2  0
 21 23  1  0
 20 24  2  0
 24  7  1  0
 13  8  1  0
 24 16  1  0
  1 25  1  0
  1 26  1  0
  1 27  1  0
  3 28  1  0
  3 29  1  0
  3 30  1  0
  4 31  1  0
  4 32  1  0
  5 33  1  0
  5 34  1  0
  6 35  1  0
  6 36  1  0
  9 37  1  0
 10 38  1  0
 11 39  1  0
 12 40  1  0
 14 41  1  0
 14 42  1  0
 17 43  1  0
 18 44  1  0
 19 45  1  0
M  CHG  2  21   1  23  -1
M  END
>  <UniqueID>  (68) 
59

>  <SMILES>  (68) 
CN(C)CCCN1c2ccccc2CSc2cccc([N+](=O)[O-])c21

>  <Energy>  (68) 
80.08877873382431

>  <Genealogy>  (68) 
CN(C)CCCN1c2ccccc2CSc2cccc([N+](=O)[O-])c21 (3D coordinates assigned)
CN(C)CCCN1c2ccccc2CSc2cccc([N+](=O)[O-])c21 (nonaromatic ring conformer: 80.08877873382431 kcal/mol)

>  <smiles>  (68) 
CN(C)CCCN1c2ccccc2CSc2cccc([N+](=O)[O-])c21

>  <score_type>  (68) 
oracle

>  <origin>  (68) 
adg

>  <m_score__min__energy>  (68) 
-7.25

>  <m_primary>  (68) 
energy

$$$$
68:0
     RDKit          3D

 29 30  0  0  0  0  0  0  0  0999 V2000
   64.4490   33.4620   48.5500 N   0  0  0  0  0  0  0  0  0  0  0  0
   63.2880   33.4960   47.9850 C   0  0  0  0  0  0  0  0  0  0  0  0
   63.0470   32.9650   46.7700 N   0  0  0  0  0  0  0  0  0  0  0  0
   61.7800   33.1120   46.3860 N   0  0  0  0  0  0  0  0  0  0  0  0
   61.0190   33.7700   47.2910 C   0  0  0  0  0  0  0  0  0  0  0  0
   59.5540   34.0020   47.1230 C   0  0  0  0  0  0  0  0  0  0  0  0
   58.8230   32.6980   47.1930 C   0  0  0  0  0  0  0  0  0  0  0  0
   57.5730   32.6970   47.3520 O   0  0  0  0  0  0  0  0  0  0  0  0
   59.5480   31.4630   47.0790 N   0  0  0  0  0  0  0  0  0  0  0  0
   58.9290   30.1830   46.8630 C   0  0  0  0  0  0  0  0  0  0  0  0
   59.1840   29.0920   47.7120 C   0  0  0  0  0  0  0  0  0  0  0  0
   58.5500   27.8650   47.4960 C   0  0  0  0  0  0  0  0  0  0  0  0
   57.6480   27.7140   46.4350 C   0  0  0  0  0  0  0  0  0  0  0  0
   56.8390   26.1720   46.1740 S   0  0  0  0  0  0  0  0  0  0  0  0
   55.1420   26.4340   45.9900 N   0  0  0  0  0  0  0  0  0  0  0  0
   57.3810   25.5160   44.9350 O   0  0  0  0  0  0  0  0  0  0  0  0
   57.0840   25.2640   47.3460 O   0  0  0  0  0  0  0  0  0  0  0  0
   57.3680   28.8070   45.6050 C   0  0  0  0  0  0  0  0  0  0  0  0
   58.0010   30.0350   45.8210 C   0  0  0  0  0  0  0  0  0  0  0  0
   61.9100   34.1890   48.6630 S   0  0  0  0  0  0  0  0  0  0  0  0
   65.2830   33.0820   48.0510 H   0  0  0  0  0  0  0  0  0  0  0  0
   59.1951   34.6653   47.9238 H   0  0  0  0  0  0  0  0  0  0  0  0
   59.3701   34.4694   46.1444 H   0  0  0  0  0  0  0  0  0  0  0  0
   60.5820   31.4900   47.2290 H   0  0  0  0  0  0  0  0  0  0  0  0
   59.8864   29.2044   48.5511 H   0  0  0  0  0  0  0  0  0  0  0  0
   58.7602   27.0149   48.1617 H   0  0  0  0  0  0  0  0  0  0  0  0
   54.8470   27.0740   46.7610 H   0  0  0  0  0  0  0  0  0  0  0  0
   56.6478   28.6990   44.7806 H   0  0  0  0  0  0  0  0  0  0  0  0
   57.7699   30.8908   45.1696 H   0  0  0  0  0  0  0  0  0  0  0  0
  1  2  2  3
  2  3  1  0
  3  4  1  0
  4  5  2  0
  5  6  1  0
  6  7  1  0
  7  8  2  0
  7  9  1  0
  9 10  1  0
 10 11  2  0
 11 12  1  0
 12 13  2  0
 13 14  1  0
 14 15  1  0
 14 16  2  0
 14 17  2  0
 13 18  1  0
 18 19  2  0
  5 20  1  0
 20  2  1  0
 19 10  1  0
  1 21  1  0
  6 22  1  0
  6 23  1  0
  9 24  1  0
 11 25  1  0
 12 26  1  0
 15 27  1  0
 18 28  1  0
 19 29  1  0
M  CHG  2   3  -1  15  -1
M  END
>  <UniqueID>  (69) 
60

>  <SMILES>  (69) 
N=c1[n-]nc(CC(=O)Nc2ccc(S([NH-])(=O)=O)cc2)s1

>  <Energy>  (69) 
63.6263594768106

>  <Genealogy>  (69) 
N=c1[n-]nc(CC(=O)Nc2ccc(S([NH-])(=O)=O)cc2)s1 (protonated)
N=c1[n-]nc(CC(=O)Nc2ccc(S([NH-])(=O)=O)cc2)s1 (3D coordinates assigned)
N=c1[n-]nc(CC(=O)Nc2ccc(S([NH-])(=O)=O)cc2)s1 (optimized conformer: 63.6263594768106 kcal/mol)

>  <smiles>  (69) 
N=c1[nH]nc(CC(=O)Nc2ccc(S(N)(=O)=O)cc2)s1

>  <score_type>  (69) 
oracle

>  <origin>  (69) 
adg

>  <m_score__min__energy>  (69) 
-10.140000000000001

>  <m_primary>  (69) 
energy

$$$$
69:0
     RDKit          3D

 82 85  0  0  0  0  0  0  0  0999 V2000
   56.9790   34.4890   45.2540 C   0  0  0  0  0  0  0  0  0  0  0  0
   58.4640   34.5790   44.9150 C   0  0  0  0  0  0  0  0  0  0  0  0
   58.8980   33.3530   44.2350 N   0  0  0  0  0  0  0  0  0  0  0  0
   57.7910   32.7680   43.4680 C   0  0  0  0  0  0  0  0  0  0  0  0
   58.1160   31.3260   43.0520 C   0  0  0  0  0  0  0  0  0  0  0  0
   57.3560   30.3310   43.8300 N   0  0  0  0  0  0  0  0  0  0  0  0
   55.9560   30.0360   43.5190 C   0  0  0  0  0  0  0  0  0  0  0  0
   58.1020   29.3680   44.6020 C   0  0  0  0  0  0  0  0  0  0  0  0
   58.1850   28.0390   44.1480 C   0  0  0  0  0  0  0  0  0  0  0  0
   58.8670   27.0830   44.8910 C   0  0  0  0  0  0  0  0  0  0  0  0
   59.4750   27.4320   46.0930 C   0  0  0  0  0  0  0  0  0  0  0  0
   59.4090   28.7490   46.5820 C   0  0  0  0  0  0  0  0  0  0  0  0
   60.0580   29.0890   47.8280 N   0  0  0  0  0  0  0  0  0  0  0  0
   60.3740   28.1350   48.8580 C   0  0  0  0  0  0  0  0  0  0  0  0
   60.4790   26.9120   48.5710 O   0  0  0  0  0  0  0  0  0  0  0  0
   60.6660   28.5650   50.1930 N   0  0  0  0  0  0  0  0  0  0  0  0
   61.3670   29.7640   50.5480 C   0  0  0  0  0  0  0  0  0  0  0  0
   62.0140   30.5580   49.5800 C   0  0  0  0  0  0  0  0  0  0  0  0
   62.6580   31.7420   49.9540 C   0  0  0  0  0  0  0  0  0  0  0  0
   62.6310   32.1680   51.2870 C   0  0  0  0  0  0  0  0  0  0  0  0
   63.2810   33.3050   51.6490 F   0  0  0  0  0  0  0  0  0  0  0  0
   61.9720   31.3990   52.2490 C   0  0  0  0  0  0  0  0  0  0  0  0
   61.3370   30.2040   51.8810 C   0  0  0  0  0  0  0  0  0  0  0  0
   58.7080   29.7340   45.8310 C   0  0  0  0  0  0  0  0  0  0  0  0
   58.6240   31.1410   46.3030 C   0  0  0  0  0  0  0  0  0  0  0  0
   57.5470   31.7940   46.1420 O   0  0  0  0  0  0  0  0  0  0  0  0
   59.7640   31.8330   46.8440 N   0  0  0  0  0  0  0  0  0  0  0  0
   59.8150   33.0740   47.6350 C   0  0  2  0  0  0  0  0  0  0  0  0
   61.1840   33.8030   47.6170 C   0  0  0  0  0  0  0  0  0  0  0  0
   62.2700   33.1160   46.7930 C   0  0  0  0  0  0  0  0  0  0  0  0
   59.3810   32.7580   49.0550 C   0  0  0  0  0  0  0  0  0  0  0  0
   58.7130   31.5590   49.3470 C   0  0  0  0  0  0  0  0  0  0  0  0
   58.2900   31.2880   50.6560 C   0  0  0  0  0  0  0  0  0  0  0  0
   58.5190   32.2220   51.6870 C   0  0  0  0  0  0  0  0  0  0  0  0
   58.0920   32.0150   53.0080 O   0  0  0  0  0  0  0  0  0  0  0  0
   57.7700   30.7540   53.5710 C   0  0  0  0  0  0  0  0  0  0  0  0
   56.3930   30.3540   53.1190 C   0  0  0  0  0  0  0  0  0  0  0  0
   55.9230   29.0530   53.3600 C   0  0  0  0  0  0  0  0  0  0  0  0
   54.6540   28.6620   52.9100 C   0  0  0  0  0  0  0  0  0  0  0  0
   53.8550   29.5600   52.1940 C   0  0  0  0  0  0  0  0  0  0  0  0
   54.3250   30.8460   51.9290 C   0  0  0  0  0  0  0  0  0  0  0  0
   55.5950   31.2440   52.3800 C   0  0  0  0  0  0  0  0  0  0  0  0
   59.1850   33.4110   51.3940 C   0  0  0  0  0  0  0  0  0  0  0  0
   59.6100   33.6800   50.0950 C   0  0  0  0  0  0  0  0  0  0  0  0
   56.8521   34.4813   46.3466 H   0  0  0  0  0  0  0  0  0  0  0  0
   56.4528   35.3569   44.8299 H   0  0  0  0  0  0  0  0  0  0  0  0
   56.5615   33.5639   44.8299 H   0  0  0  0  0  0  0  0  0  0  0  0
   58.6355   35.4421   44.2549 H   0  0  0  0  0  0  0  0  0  0  0  0
   59.0401   34.7002   45.8442 H   0  0  0  0  0  0  0  0  0  0  0  0
   59.1860   32.6620   44.9700 H   0  0  0  0  0  0  0  0  0  0  0  0
   56.8829   32.7680   44.0888 H   0  0  0  0  0  0  0  0  0  0  0  0
   57.6352   33.3695   42.5603 H   0  0  0  0  0  0  0  0  0  0  0  0
   57.8720   31.2024   41.9865 H   0  0  0  0  0  0  0  0  0  0  0  0
   59.1856   31.1551   43.2435 H   0  0  0  0  0  0  0  0  0  0  0  0
   55.3898   29.9167   44.4545 H   0  0  0  0  0  0  0  0  0  0  0  0
   55.5280   30.8637   42.9344 H   0  0  0  0  0  0  0  0  0  0  0  0
   55.8984   29.1060   42.9344 H   0  0  0  0  0  0  0  0  0  0  0  0
   57.7070   27.7548   43.1989 H   0  0  0  0  0  0  0  0  0  0  0  0
   58.9264   26.0465   44.5276 H   0  0  0  0  0  0  0  0  0  0  0  0
   60.0153   26.6665   46.6693 H   0  0  0  0  0  0  0  0  0  0  0  0
   60.3570   30.0670   47.9930 H   0  0  0  0  0  0  0  0  0  0  0  0
   62.0125   30.2452   48.5254 H   0  0  0  0  0  0  0  0  0  0  0  0
   63.1875   32.3404   49.1979 H   0  0  0  0  0  0  0  0  0  0  0  0
   61.9511   31.7314   53.2974 H   0  0  0  0  0  0  0  0  0  0  0  0
   60.8120   29.6075   52.6416 H   0  0  0  0  0  0  0  0  0  0  0  0
   59.1250   33.7872   47.1604 H   0  0  0  0  0  0  0  0  0  0  0  0
   61.0286   34.8107   47.2042 H   0  0  0  0  0  0  0  0  0  0  0  0
   61.5435   33.8075   48.6566 H   0  0  0  0  0  0  0  0  0  0  0  0
   63.0039   32.6517   47.4681 H   0  0  0  0  0  0  0  0  0  0  0  0
   61.8142   32.3416   46.1586 H   0  0  0  0  0  0  0  0  0  0  0  0
   62.7745   33.8596   46.1586 H   0  0  0  0  0  0  0  0  0  0  0  0
   58.5206   30.8295   48.5465 H   0  0  0  0  0  0  0  0  0  0  0  0
   57.7765   30.3413   50.8798 H   0  0  0  0  0  0  0  0  0  0  0  0
   58.5008   30.0031   53.2362 H   0  0  0  0  0  0  0  0  0  0  0  0
   57.7968   30.8191   54.6687 H   0  0  0  0  0  0  0  0  0  0  0  0
   56.5544   28.3360   53.9053 H   0  0  0  0  0  0  0  0  0  0  0  0
   54.2858   27.6470   53.1203 H   0  0  0  0  0  0  0  0  0  0  0  0
   52.8594   29.2527   51.8413 H   0  0  0  0  0  0  0  0  0  0  0  0
   53.6986   31.5522   51.3642 H   0  0  0  0  0  0  0  0  0  0  0  0
   55.9655   32.2548   52.1540 H   0  0  0  0  0  0  0  0  0  0  0  0
   59.3762   34.1416   52.1938 H   0  0  0  0  0  0  0  0  0  0  0  0
   60.1310   34.6243   49.8786 H   0  0  0  0  0  0  0  0  0  0  0  0
  1  2  1  0
  2  3  1  0
  3  4  1  0
  4  5  1  0
  5  6  1  0
  6  7  1  0
  6  8  1  0
  8  9  2  0
  9 10  1  0
 10 11  2  0
 11 12  1  0
 12 13  1  0
 13 14  1  0
 14 15  2  0
 14 16  1  0
 16 17  1  0
 17 18  2  0
 18 19  1  0
 19 20  2  0
 20 21  1  0
 20 22  1  0
 22 23  2  0
 12 24  2  0
 24 25  1  0
 25 26  2  0
 25 27  1  0
 27 28  1  0
 28 29  1  0
 29 30  1  0
 28 31  1  0
 31 32  2  0
 32 33  1  0
 33 34  2  0
 34 35  1  0
 35 36  1  0
 36 37  1  0
 37 38  2  0
 38 39  1  0
 39 40  2  0
 40 41  1  0
 41 42  2  0
 34 43  1  0
 43 44  2  0
 24  8  1  0
 44 31  1  0
 23 17  1  0
 42 37  1  0
  1 45  1  0
  1 46  1  0
  1 47  1  0
  2 48  1  0
  2 49  1  0
  3 50  1  0
  4 51  1  0
  4 52  1  0
  5 53  1  0
  5 54  1  0
  7 55  1  0
  7 56  1  0
  7 57  1  0
  9 58  1  0
 10 59  1  0
 11 60  1  0
 13 61  1  0
 18 62  1  0
 19 63  1  0
 22 64  1  0
 23 65  1  0
 28 66  1  6
 29 67  1  0
 29 68  1  0
 30 69  1  0
 30 70  1  0
 30 71  1  0
 32 72  1  0
 33 73  1  0
 36 74  1  0
 36 75  1  0
 38 76  1  0
 39 77  1  0
 40 78  1  0
 41 79  1  0
 42 80  1  0
 43 81  1  0
 44 82  1  0
M  CHG  2  16  -1  27  -1
M  END
>  <UniqueID>  (70) 
61

>  <SMILES>  (70) 
CCNCCN(C)c1cccc(NC(=O)[N-]c2ccc(F)cc2)c1C(=O)[N-][C@H](CC)c1ccc(OCc2ccccc2)cc1

>  <Energy>  (70) 
103.72142773986339

>  <Genealogy>  (70) 
CCNCCN(C)c1cccc(NC(=O)[N-]c2ccc(F)cc2)c1C(=O)[N-]C(CC)c1ccc(OCc2ccccc2)cc1 (protonated)
CCNCCN(C)c1cccc(NC(=O)[N-]c2ccc(F)cc2)c1C(=O)[N-][C@H](CC)c1ccc(OCc2ccccc2)cc1 (chirality)
CCNCCN(C)c1cccc(NC(=O)[N-]c2ccc(F)cc2)c1C(=O)[N-][C@H](CC)c1ccc(OCc2ccccc2)cc1 (3D coordinates assigned)
CCNCCN(C)c1cccc(NC(=O)[N-]c2ccc(F)cc2)c1C(=O)[N-][C@H](CC)c1ccc(OCc2ccccc2)cc1 (optimized conformer: 103.72142773986339 kcal/mol)

>  <smiles>  (70) 
CCNCCN(C)c1cccc(NC(=O)Nc2ccc(F)cc2)c1C(=O)NC(CC)c1ccc(OCc2ccccc2)cc1

>  <score_type>  (70) 
oracle

>  <origin>  (70) 
adg

>  <m_score__min__energy>  (70) 
-12.289999999999999

>  <m_primary>  (70) 
energy

$$$$
70:0
     RDKit          3D

 45 47  0  0  0  0  0  0  0  0999 V2000
   57.7780   26.1170   45.6230 O   0  0  0  0  0  0  0  0  0  0  0  0
   56.6450   26.4130   46.0880 C   0  0  0  0  0  0  0  0  0  0  0  0
   56.0410   25.5450   47.0510 N   0  0  0  0  0  0  0  0  0  0  0  0
   56.1830   24.0930   47.0270 C   0  0  0  0  0  0  0  0  0  0  0  0
   56.3300   23.6020   45.6120 C   0  0  0  0  0  0  0  0  0  0  0  0
   55.3150   23.8280   44.6660 C   0  0  0  0  0  0  0  0  0  0  0  0
   55.4490   23.3430   43.3610 C   0  0  0  0  0  0  0  0  0  0  0  0
   56.5930   22.6320   42.9910 C   0  0  0  0  0  0  0  0  0  0  0  0
   57.6070   22.4030   43.9270 C   0  0  0  0  0  0  0  0  0  0  0  0
   57.4760   22.8830   45.2330 C   0  0  0  0  0  0  0  0  0  0  0  0
   55.9450   27.5740   45.6240 N   0  0  0  0  0  0  0  0  0  0  0  0
   56.5260   28.7390   45.0220 C   0  0  0  0  0  0  0  0  0  0  0  0
   57.8820   29.0680   45.1910 C   0  0  0  0  0  0  0  0  0  0  0  0
   58.4070   30.2210   44.5980 C   0  0  0  0  0  0  0  0  0  0  0  0
   57.5830   31.0580   43.8320 C   0  0  0  0  0  0  0  0  0  0  0  0
   58.1340   32.2550   43.1710 C   0  0  0  0  0  0  0  0  0  0  0  0
   58.2030   32.2840   41.9140 O   0  0  0  0  0  0  0  0  0  0  0  0
   58.6360   33.3730   43.9180 N   0  0  0  0  0  0  0  0  0  0  0  0
   57.8890   34.1310   44.9210 C   0  0  0  0  0  0  0  0  0  0  0  0
   58.4830   33.9370   46.2920 C   0  0  0  0  0  0  0  0  0  0  0  0
   59.4800   34.8090   46.7590 C   0  0  0  0  0  0  0  0  0  0  0  0
   60.0560   34.6120   48.0180 C   0  0  0  0  0  0  0  0  0  0  0  0
   59.6400   33.5450   48.8200 C   0  0  0  0  0  0  0  0  0  0  0  0
   58.6440   32.6770   48.3660 C   0  0  0  0  0  0  0  0  0  0  0  0
   58.0630   32.8730   47.1100 C   0  0  0  0  0  0  0  0  0  0  0  0
   56.2200   30.7580   43.7070 C   0  0  0  0  0  0  0  0  0  0  0  0
   55.6970   29.6050   44.2990 C   0  0  0  0  0  0  0  0  0  0  0  0
   57.0746   23.8067   47.6041 H   0  0  0  0  0  0  0  0  0  0  0  0
   55.2837   23.6398   47.4696 H   0  0  0  0  0  0  0  0  0  0  0  0
   54.4127   24.3879   44.9530 H   0  0  0  0  0  0  0  0  0  0  0  0
   54.6518   23.5218   42.6245 H   0  0  0  0  0  0  0  0  0  0  0  0
   56.6965   22.2523   41.9638 H   0  0  0  0  0  0  0  0  0  0  0  0
   58.5085   21.8445   43.6348 H   0  0  0  0  0  0  0  0  0  0  0  0
   58.2736   22.6971   45.9674 H   0  0  0  0  0  0  0  0  0  0  0  0
   58.5330   28.4161   45.7920 H   0  0  0  0  0  0  0  0  0  0  0  0
   59.4695   30.4719   44.7330 H   0  0  0  0  0  0  0  0  0  0  0  0
   57.9207   35.1997   44.6624 H   0  0  0  0  0  0  0  0  0  0  0  0
   56.8500   33.7700   44.9332 H   0  0  0  0  0  0  0  0  0  0  0  0
   59.8092   35.6505   46.1318 H   0  0  0  0  0  0  0  0  0  0  0  0
   60.8374   35.2975   48.3778 H   0  0  0  0  0  0  0  0  0  0  0  0
   60.0969   33.3890   49.8084 H   0  0  0  0  0  0  0  0  0  0  0  0
   58.3166   31.8382   48.9978 H   0  0  0  0  0  0  0  0  0  0  0  0
   57.2735   32.1918   46.7597 H   0  0  0  0  0  0  0  0  0  0  0  0
   55.5597   31.4319   43.1413 H   0  0  0  0  0  0  0  0  0  0  0  0
   54.6260   29.3763   44.1961 H   0  0  0  0  0  0  0  0  0  0  0  0
  1  2  2  0
  2  3  1  0
  3  4  1  0
  4  5  1  0
  5  6  2  0
  6  7  1  0
  7  8  2  0
  8  9  1  0
  9 10  2  0
  2 11  1  0
 11 12  1  0
 12 13  2  0
 13 14  1  0
 14 15  2  0
 15 16  1  0
 16 17  2  0
 16 18  1  0
 18 19  1  0
 19 20  1  0
 20 21  2  0
 21 22  1  0
 22 23  2  0
 23 24  1  0
 24 25  2  0
 15 26  1  0
 26 27  2  0
 10  5  1  0
 27 12  1  0
 25 20  1  0
  4 28  1  0
  4 29  1  0
  6 30  1  0
  7 31  1  0
  8 32  1  0
  9 33  1  0
 10 34  1  0
 13 35  1  0
 14 36  1  0
 19 37  1  0
 19 38  1  0
 21 39  1  0
 22 40  1  0
 23 41  1  0
 24 42  1  0
 25 43  1  0
 26 44  1  0
 27 45  1  0
M  CHG  3   3  -1  11  -1  18  -1
M  END
>  <UniqueID>  (71) 
62

>  <SMILES>  (71) 
O=C([N-]Cc1ccccc1)[N-]c1ccc(C(=O)[N-]Cc2ccccc2)cc1

>  <Energy>  (71) 
49.72167344434225

>  <Genealogy>  (71) 
O=C([N-]Cc1ccccc1)[N-]c1ccc(C(=O)[N-]Cc2ccccc2)cc1 (protonated)
O=C([N-]Cc1ccccc1)[N-]c1ccc(C(=O)[N-]Cc2ccccc2)cc1 (3D coordinates assigned)
O=C([N-]Cc1ccccc1)[N-]c1ccc(C(=O)[N-]Cc2ccccc2)cc1 (optimized conformer: 49.72167344434225 kcal/mol)

>  <smiles>  (71) 
O=C(NCc1ccccc1)Nc1ccc(C(=O)NCc2ccccc2)cc1

>  <score_type>  (71) 
oracle

>  <origin>  (71) 
adg

>  <m_score__min__energy>  (71) 
-12.949999999999999

>  <m_primary>  (71) 
energy

$$$$
71:0
     RDKit          3D

 34 36  0  0  0  0  0  0  0  0999 V2000
   58.8780   32.1600   48.5500 F   0  0  0  0  0  0  0  0  0  0  0  0
   60.2020   32.3040   48.2810 C   0  0  0  0  0  0  0  0  0  0  0  0
   61.1460   31.7950   49.1780 C   0  0  0  0  0  0  0  0  0  0  0  0
   62.5120   31.9360   48.9140 C   0  0  0  0  0  0  0  0  0  0  0  0
   62.9350   32.5770   47.7460 C   0  0  0  0  0  0  0  0  0  0  0  0
   61.9950   33.0870   46.8460 C   0  0  0  0  0  0  0  0  0  0  0  0
   60.6240   32.9740   47.1210 C   0  0  0  0  0  0  0  0  0  0  0  0
   59.6340   33.4970   46.1680 C   0  0  0  0  0  0  0  0  0  0  0  0
   59.6530   34.7860   45.7660 N   0  0  0  0  0  0  0  0  0  0  0  0
   58.6230   34.8820   44.9050 C   0  0  0  0  0  0  0  0  0  0  0  0
   58.0010   33.6600   44.7940 C   0  0  0  0  0  0  0  0  0  0  0  0
   58.6430   32.7770   45.5800 N   0  0  0  0  0  0  0  0  0  0  0  0
   58.2310   31.3730   45.7620 C   0  0  2  0  0  0  0  0  0  0  0  0
   59.4200   30.4070   45.5680 C   0  0  0  0  0  0  0  0  0  0  0  0
   58.9690   29.0230   45.0730 C   0  0  0  0  0  0  0  0  0  0  0  0
   57.5770   28.6670   45.6190 C   0  0  0  0  0  0  0  0  0  0  0  0
   56.5330   29.6310   45.2070 N   0  0  0  0  0  0  0  0  0  0  0  0
   57.0370   30.9770   44.8730 C   0  0  0  0  0  0  0  0  0  0  0  0
   60.8136   31.2828   50.0929 H   0  0  0  0  0  0  0  0  0  0  0  0
   63.2533   31.5427   49.6251 H   0  0  0  0  0  0  0  0  0  0  0  0
   64.0096   32.6802   47.5348 H   0  0  0  0  0  0  0  0  0  0  0  0
   62.3308   33.5778   45.9206 H   0  0  0  0  0  0  0  0  0  0  0  0
   58.3245   35.7968   44.3721 H   0  0  0  0  0  0  0  0  0  0  0  0
   57.1243   33.4412   44.1667 H   0  0  0  0  0  0  0  0  0  0  0  0
   57.8855   31.2854   46.8027 H   0  0  0  0  0  0  0  0  0  0  0  0
   60.1110   30.8395   44.8294 H   0  0  0  0  0  0  0  0  0  0  0  0
   59.9095   30.2736   46.5440 H   0  0  0  0  0  0  0  0  0  0  0  0
   58.9331   29.0287   43.9736 H   0  0  0  0  0  0  0  0  0  0  0  0
   59.6879   28.2719   45.4322 H   0  0  0  0  0  0  0  0  0  0  0  0
   57.2993   27.6692   45.2484 H   0  0  0  0  0  0  0  0  0  0  0  0
   57.6364   28.6940   46.7171 H   0  0  0  0  0  0  0  0  0  0  0  0
   55.8430   29.7200   45.9910 H   0  0  0  0  0  0  0  0  0  0  0  0
   57.3568   30.9873   43.8206 H   0  0  0  0  0  0  0  0  0  0  0  0
   56.2260   31.7001   45.0446 H   0  0  0  0  0  0  0  0  0  0  0  0
  1  2  1  0
  2  3  2  0
  3  4  1  0
  4  5  2  0
  5  6  1  0
  6  7  2  0
  7  8  1  0
  8  9  2  0
  9 10  1  0
 10 11  2  0
 11 12  1  0
 12 13  1  0
 13 14  1  0
 14 15  1  0
 15 16  1  0
 16 17  1  0
 17 18  1  0
  7  2  1  0
 12  8  1  0
 18 13  1  0
  3 19  1  0
  4 20  1  0
  5 21  1  0
  6 22  1  0
 10 23  1  0
 11 24  1  0
 13 25  1  1
 14 26  1  0
 14 27  1  0
 15 28  1  0
 15 29  1  0
 16 30  1  0
 16 31  1  0
 17 32  1  0
 18 33  1  0
 18 34  1  0
M  END
>  <UniqueID>  (72) 
63

>  <SMILES>  (72) 
Fc1ccccc1-c1nccn1[C@@H]1CCCNC1

>  <Energy>  (72) 
79.32500793078539

>  <Genealogy>  (72) 
Fc1ccccc1-c1nccn1[C@@H]1CCCNC1 (chirality)
Fc1ccccc1-c1nccn1[C@@H]1CCCNC1 (3D coordinates assigned)
Fc1ccccc1-c1nccn1[C@@H]1CCCNC1 (nonaromatic ring conformer: 79.32500793078539 kcal/mol)

>  <smiles>  (72) 
Fc1ccccc1-c1nccn1C1CCCNC1

>  <score_type>  (72) 
oracle

>  <origin>  (72) 
adg

>  <m_score__min__energy>  (72) 
-6.4000000000000004

>  <m_primary>  (72) 
energy

$$$$
72:0
     RDKit          3D

 45 47  0  0  0  0  0  0  0  0999 V2000
   54.3392   23.2602   43.4947 H   0  0  0  0  0  0  0  0  0  0  0  0
   55.3570   23.2880   43.9110 C   0  0  0  0  0  0  0  0  0  0  0  0
   56.3980   22.6490   43.2430 C   0  0  0  0  0  0  0  0  0  0  0  0
   56.2013   22.1174   42.3003 H   0  0  0  0  0  0  0  0  0  0  0  0
   57.6910   22.6820   43.7680 C   0  0  0  0  0  0  0  0  0  0  0  0
   58.5067   22.1707   43.2358 H   0  0  0  0  0  0  0  0  0  0  0  0
   57.9640   23.3620   44.9710 C   0  0  0  0  0  0  0  0  0  0  0  0
   59.3160   23.3810   45.4790 N   0  0  0  0  0  0  0  0  0  0  0  0
   60.0150   22.3480   45.5010 O   0  0  0  0  0  0  0  0  0  0  0  0
   59.8500   24.5440   45.9860 O   0  0  0  0  0  0  0  0  0  0  0  0
   56.9020   24.0130   45.6520 C   0  0  0  0  0  0  0  0  0  0  0  0
   57.1650   24.6820   46.8610 O   0  0  0  0  0  0  0  0  0  0  0  0
   57.2350   26.0970   47.0360 C   0  0  0  0  0  0  0  0  0  0  0  0
   58.2848   26.4184   46.9683 H   0  0  0  0  0  0  0  0  0  0  0  0
   56.8220   26.3538   48.0227 H   0  0  0  0  0  0  0  0  0  0  0  0
   56.4370   26.7970   45.9810 C   0  0  0  0  0  0  0  0  0  0  0  0
   55.1810   26.7170   46.0010 O   0  0  0  0  0  0  0  0  0  0  0  0
   57.1080   27.5980   45.0000 N   0  0  0  0  0  0  0  0  0  0  0  0
   57.3560   29.0090   45.0680 C   0  0  0  0  0  0  0  0  0  0  0  0
   58.1390   29.5820   46.0870 C   0  0  0  0  0  0  0  0  0  0  0  0
   58.5968   28.9396   46.8537 H   0  0  0  0  0  0  0  0  0  0  0  0
   58.3370   30.9660   46.1280 C   0  0  0  0  0  0  0  0  0  0  0  0
   58.9603   31.4068   46.9199 H   0  0  0  0  0  0  0  0  0  0  0  0
   57.7450   31.7930   45.1650 C   0  0  0  0  0  0  0  0  0  0  0  0
   57.9920   33.5350   45.2280 S   0  0  0  0  0  0  0  0  0  0  0  0
   56.7060   34.2660   44.9620 O   0  0  0  0  0  0  0  0  0  0  0  0
   58.9960   33.9190   44.1800 O   0  0  0  0  0  0  0  0  0  0  0  0
   58.5990   33.9990   46.7890 N   0  0  0  0  0  0  0  0  0  0  0  0
   59.8380   33.9330   47.1850 C   0  0  0  0  0  0  0  0  0  0  0  0
   60.1190   34.1610   48.5380 C   0  0  0  0  0  0  0  0  0  0  0  0
   59.3034   34.3857   49.2410 H   0  0  0  0  0  0  0  0  0  0  0  0
   61.4380   34.1020   48.9910 C   0  0  0  0  0  0  0  0  0  0  0  0
   61.6656   34.2799   50.0524 H   0  0  0  0  0  0  0  0  0  0  0  0
   62.4650   33.8170   48.0940 C   0  0  0  0  0  0  0  0  0  0  0  0
   63.5080   33.7697   48.4403 H   0  0  0  0  0  0  0  0  0  0  0  0
   62.1570   33.5920   46.7510 C   0  0  0  0  0  0  0  0  0  0  0  0
   62.9612   33.3652   46.0356 H   0  0  0  0  0  0  0  0  0  0  0  0
   60.8650   33.6520   46.3220 N   0  0  0  0  0  0  0  0  0  0  0  0
   60.6940   33.4710   45.3100 H   0  0  0  0  0  0  0  0  0  0  0  0
   56.9500   31.2260   44.1610 C   0  0  0  0  0  0  0  0  0  0  0  0
   56.4817   31.8706   43.4026 H   0  0  0  0  0  0  0  0  0  0  0  0
   56.7500   29.8430   44.1200 C   0  0  0  0  0  0  0  0  0  0  0  0
   56.1120   29.4066   43.3374 H   0  0  0  0  0  0  0  0  0  0  0  0
   55.6010   23.9630   45.1060 C   0  0  0  0  0  0  0  0  0  0  0  0
   54.7716   24.4617   45.6288 H   0  0  0  0  0  0  0  0  0  0  0  0
  1  2  1  0
  2  3  2  0
  3  4  1  0
  3  5  1  0
  5  6  1  0
  5  7  2  0
  7  8  1  0
  8  9  2  0
  8 10  1  0
  7 11  1  0
 11 12  1  0
 12 13  1  0
 13 14  1  0
 13 15  1  0
 13 16  1  0
 16 17  2  0
 16 18  1  0
 18 19  1  0
 19 20  2  0
 20 21  1  0
 20 22  1  0
 22 23  1  0
 22 24  2  0
 24 25  1  0
 25 26  2  0
 25 27  2  0
 25 28  1  0
 28 29  2  0
 29 30  1  0
 30 31  1  0
 30 32  2  0
 32 33  1  0
 32 34  1  0
 34 35  1  0
 34 36  2  0
 36 37  1  0
 36 38  1  0
 38 39  1  0
 24 40  1  0
 40 41  1  0
 40 42  2  0
 42 43  1  0
 11 44  2  0
 44 45  1  0
 44  2  1  0
 42 19  1  0
 38 29  1  0
M  CHG  3   8   1  10  -1  18  -1
M  END
>  <UniqueID>  (73) 
64

>  <SMILES>  (73) 
O=C(COc1ccccc1[N+](=O)[O-])[N-]c1ccc(S(=O)(=O)/N=c2/cccc[nH]2)cc1

>  <Energy>  (73) 
58.70199496871158

>  <Genealogy>  (73) 
O=C(COc1ccccc1[N+](=O)[O-])[N-]c1ccc(S(=O)(=O)N=c2cccc[nH]2)cc1 (protonated)
O=C(COc1ccccc1[N+](=O)[O-])[N-]c1ccc(S(=O)(=O)/N=c2/cccc[nH]2)cc1 (cis-trans isomerization)
O=C(COc1ccccc1[N+](=O)[O-])[N-]c1ccc(S(=O)(=O)/N=c2/cccc[nH]2)cc1 (3D coordinates assigned)
O=C(COc1ccccc1[N+](=O)[O-])[N-]c1ccc(S(=O)(=O)/N=c2/cccc[nH]2)cc1 (optimized conformer: 58.70199496871158 kcal/mol)

>  <smiles>  (73) 
O=C(COc1ccccc1[N+](=O)[O-])Nc1ccc(S(=O)(=O)N=c2cccc[nH]2)cc1

>  <score_type>  (73) 
oracle

>  <origin>  (73) 
adg

>  <m_score__min__energy>  (73) 
-11

>  <m_primary>  (73) 
energy

$$$$
73:0
     RDKit          3D

 41 45  0  0  0  0  0  0  0  0999 V2000
   59.9650   28.7480   49.8130 C   0  0  0  0  0  0  0  0  0  0  0  0
   59.5330   29.3530   48.5560 N   0  0  0  0  0  0  0  0  0  0  0  0
   59.2930   30.6760   48.4020 C   0  0  0  0  0  0  0  0  0  0  0  0
   58.9380   30.9570   47.0910 C   0  0  0  0  0  0  0  0  0  0  0  0
   58.5710   32.2770   46.5470 C   0  0  0  0  0  0  0  0  0  0  0  0
   58.9860   33.4830   46.9800 C   0  0  0  0  0  0  0  0  0  0  0  0
   60.0300   33.7390   47.9920 C   0  0  0  0  0  0  0  0  0  0  0  0
   59.8450   34.1160   49.3220 C   0  0  0  0  0  0  0  0  0  0  0  0
   61.0320   34.1880   49.9640 N   0  0  0  0  0  0  0  0  0  0  0  0
   61.9650   33.8480   49.0580 C   0  0  0  0  0  0  0  0  0  0  0  0
   63.3430   33.7700   49.2580 C   0  0  0  0  0  0  0  0  0  0  0  0
   64.1440   33.3880   48.1670 C   0  0  0  0  0  0  0  0  0  0  0  0
   63.5580   33.0960   46.9160 C   0  0  0  0  0  0  0  0  0  0  0  0
   62.1640   33.1830   46.7440 C   0  0  0  0  0  0  0  0  0  0  0  0
   61.3930   33.5600   47.8450 C   0  0  0  0  0  0  0  0  0  0  0  0
   58.3160   34.5240   46.3260 O   0  0  0  0  0  0  0  0  0  0  0  0
   57.4350   33.9450   45.4300 C   0  0  0  0  0  0  0  0  0  0  0  0
   56.6590   34.5830   44.6710 O   0  0  0  0  0  0  0  0  0  0  0  0
   57.5520   32.5130   45.5300 C   0  0  0  0  0  0  0  0  0  0  0  0
   56.8670   31.6520   44.9170 O   0  0  0  0  0  0  0  0  0  0  0  0
   58.9570   29.7460   46.4310 C   0  0  0  0  0  0  0  0  0  0  0  0
   58.7300   29.4580   45.0850 C   0  0  0  0  0  0  0  0  0  0  0  0
   58.8560   28.1290   44.6640 C   0  0  0  0  0  0  0  0  0  0  0  0
   58.6460   27.8110   43.3630 F   0  0  0  0  0  0  0  0  0  0  0  0
   59.2050   27.1220   45.5830 C   0  0  0  0  0  0  0  0  0  0  0  0
   59.4350   27.4220   46.9390 C   0  0  0  0  0  0  0  0  0  0  0  0
   59.7530   26.3640   47.7920 O   0  0  0  0  0  0  0  0  0  0  0  0
   59.3180   28.7750   47.3440 C   0  0  0  0  0  0  0  0  0  0  0  0
   59.5547   29.3226   50.6565 H   0  0  0  0  0  0  0  0  0  0  0  0
   59.6019   27.7109   49.8646 H   0  0  0  0  0  0  0  0  0  0  0  0
   61.0638   28.7548   49.8646 H   0  0  0  0  0  0  0  0  0  0  0  0
   59.3689   31.4242   49.2048 H   0  0  0  0  0  0  0  0  0  0  0  0
   58.8690   34.3255   49.7840 H   0  0  0  0  0  0  0  0  0  0  0  0
   61.1860   34.4390   50.9650 H   0  0  0  0  0  0  0  0  0  0  0  0
   63.7888   33.9997   50.2370 H   0  0  0  0  0  0  0  0  0  0  0  0
   65.2348   33.3162   48.2891 H   0  0  0  0  0  0  0  0  0  0  0  0
   64.1953   32.7985   46.0702 H   0  0  0  0  0  0  0  0  0  0  0  0
   61.6969   32.9611   45.7732 H   0  0  0  0  0  0  0  0  0  0  0  0
   58.4596   30.2530   44.3745 H   0  0  0  0  0  0  0  0  0  0  0  0
   59.2997   26.0825   45.2358 H   0  0  0  0  0  0  0  0  0  0  0  0
   60.1180   26.4670   48.7240 H   0  0  0  0  0  0  0  0  0  0  0  0
  1  2  1  0
  2  3  1  0
  3  4  2  0
  4  5  1  0
  5  6  2  0
  6  7  1  0
  7  8  2  0
  8  9  1  0
  9 10  1  0
 10 11  2  0
 11 12  1  0
 12 13  2  0
 13 14  1  0
 14 15  2  0
  6 16  1  0
 16 17  1  0
 17 18  2  0
 17 19  1  0
 19 20  2  0
  4 21  1  0
 21 22  2  0
 22 23  1  0
 23 24  1  0
 23 25  2  0
 25 26  1  0
 26 27  1  0
 26 28  2  0
 28  2  1  0
 19  5  1  0
 28 21  1  0
 15  7  1  0
 15 10  1  0
  1 29  1  0
  1 30  1  0
  1 31  1  0
  3 32  1  0
  8 33  1  0
  9 34  1  0
 11 35  1  0
 12 36  1  0
 13 37  1  0
 14 38  1  0
 22 39  1  0
 25 40  1  0
 27 41  1  0
M  END
>  <UniqueID>  (74) 
65

>  <SMILES>  (74) 
Cn1cc(C2=C(c3c[nH]c4ccccc34)OC(=O)C2=O)c2cc(F)cc(O)c21

>  <Energy>  (74) 
153.91268789704466

>  <Genealogy>  (74) 
Cn1cc(C2=C(c3c[nH]c4ccccc34)OC(=O)C2=O)c2cc(F)cc(O)c21 (3D coordinates assigned)
Cn1cc(C2=C(c3c[nH]c4ccccc34)OC(=O)C2=O)c2cc(F)cc(O)c21 (nonaromatic ring conformer: 153.91268789704466 kcal/mol)

>  <smiles>  (74) 
Cn1cc(C2=C(c3c[nH]c4ccccc34)OC(=O)C2=O)c2cc(F)cc(O)c21

>  <score_type>  (74) 
oracle

>  <origin>  (74) 
adg

>  <m_score__min__energy>  (74) 
-8.2599999999999998

>  <m_primary>  (74) 
energy

$$$$
74:0
     RDKit          3D

 24 25  0  0  0  0  0  0  0  0999 V2000
   57.0180   31.3150   43.5620 C   0  0  0  0  0  0  0  0  0  0  0  0
   56.9590   30.8750   44.9140 O   0  0  0  0  0  0  0  0  0  0  0  0
   57.6150   29.7360   45.4080 C   0  0  0  0  0  0  0  0  0  0  0  0
   58.9890   29.7380   45.7120 C   0  0  0  0  0  0  0  0  0  0  0  0
   59.6040   28.5800   46.1880 C   0  0  0  0  0  0  0  0  0  0  0  0
   58.8600   27.4150   46.3760 C   0  0  0  0  0  0  0  0  0  0  0  0
   57.4840   27.3950   46.1000 C   0  0  0  0  0  0  0  0  0  0  0  0
   56.7230   26.1420   46.3190 C   0  0  0  0  0  0  0  0  0  0  0  0
   57.2940   25.0440   46.9800 C   0  0  0  0  0  0  0  0  0  0  0  0
   56.5300   23.8860   47.1370 C   0  0  0  0  0  0  0  0  0  0  0  0
   57.0110   22.8850   47.7280 O   0  0  0  0  0  0  0  0  0  0  0  0
   55.2650   23.8370   46.6430 N   0  0  0  0  0  0  0  0  0  0  0  0
   54.7290   24.9010   45.9920 C   0  0  0  0  0  0  0  0  0  0  0  0
   53.5580   24.8340   45.5370 O   0  0  0  0  0  0  0  0  0  0  0  0
   55.4570   26.0370   45.8310 N   0  0  0  0  0  0  0  0  0  0  0  0
   56.8690   28.5620   45.5940 C   0  0  0  0  0  0  0  0  0  0  0  0
   55.5210   28.5580   45.2470 O   0  0  0  0  0  0  0  0  0  0  0  0
   57.1642   32.4050   43.5372 H   0  0  0  0  0  0  0  0  0  0  0  0
   57.8579   30.8207   43.0519 H   0  0  0  0  0  0  0  0  0  0  0  0
   56.0775   31.0594   43.0519 H   0  0  0  0  0  0  0  0  0  0  0  0
   59.5798   30.6555   45.5739 H   0  0  0  0  0  0  0  0  0  0  0  0
   60.6801   28.5855   46.4161 H   0  0  0  0  0  0  0  0  0  0  0  0
   59.3559   26.5045   46.7436 H   0  0  0  0  0  0  0  0  0  0  0  0
   58.3226   25.0945   47.3666 H   0  0  0  0  0  0  0  0  0  0  0  0
  1  2  1  0
  2  3  1  0
  3  4  2  0
  4  5  1  0
  5  6  2  0
  6  7  1  0
  7  8  1  0
  8  9  2  0
  9 10  1  0
 10 11  2  0
 10 12  1  0
 12 13  1  0
 13 14  2  0
 13 15  1  0
  7 16  2  0
 16 17  1  0
 16  3  1  0
 15  8  1  0
  1 18  1  0
  1 19  1  0
  1 20  1  0
  4 21  1  0
  5 22  1  0
  6 23  1  0
  9 24  1  0
M  CHG  3  12  -1  15  -1  17  -1
M  END
>  <UniqueID>  (75) 
66

>  <SMILES>  (75) 
COc1cccc(-c2cc(=O)[n-]c(=O)[n-]2)c1[O-]

>  <Energy>  (75) 
31.71250099018788

>  <Genealogy>  (75) 
COc1cccc(-c2cc(=O)[n-]c(=O)[n-]2)c1[O-] (protonated)
COc1cccc(-c2cc(=O)[n-]c(=O)[n-]2)c1[O-] (3D coordinates assigned)
COc1cccc(-c2cc(=O)[n-]c(=O)[n-]2)c1[O-] (optimized conformer: 31.71250099018788 kcal/mol)

>  <smiles>  (75) 
COc1cccc(-c2cc(=O)[nH]c(=O)[nH]2)c1O

>  <score_type>  (75) 
oracle

>  <origin>  (75) 
adg

>  <m_score__min__energy>  (75) 
-13.800000000000001

>  <m_primary>  (75) 
energy

$$$$
75:0
     RDKit          3D

 55 57  0  0  0  0  0  0  0  0999 V2000
   59.6930   33.4940   53.0340 C   0  0  0  0  0  0  0  0  0  0  0  0
   58.5300   33.8530   52.1140 C   0  0  0  0  0  0  0  0  0  0  0  0
   58.0780   32.7020   51.4030 O   0  0  0  0  0  0  0  0  0  0  0  0
   57.4330   31.5820   51.9610 C   0  0  0  0  0  0  0  0  0  0  0  0
   56.0850   31.6300   52.3730 C   0  0  0  0  0  0  0  0  0  0  0  0
   55.4560   30.4880   52.8710 C   0  0  0  0  0  0  0  0  0  0  0  0
   56.1550   29.2850   52.9600 C   0  0  0  0  0  0  0  0  0  0  0  0
   57.4920   29.2230   52.5630 C   0  0  0  0  0  0  0  0  0  0  0  0
   58.1480   30.3670   52.0780 C   0  0  0  0  0  0  0  0  0  0  0  0
   59.5730   30.2710   51.6890 C   0  0  0  0  0  0  0  0  0  0  0  0
   60.3420   29.5110   52.3400 O   0  0  0  0  0  0  0  0  0  0  0  0
   60.0930   31.0570   50.6050 N   0  0  0  0  0  0  0  0  0  0  0  0
   61.4300   30.8580   50.0480 C   0  0  0  0  0  0  0  0  0  0  0  0
   62.2220   32.1710   50.0590 C   0  0  0  0  0  0  0  0  0  0  0  0
   61.5080   33.4270   48.9810 S   0  0  0  0  0  0  0  0  0  0  0  0
   62.3960   34.6350   49.0780 O   0  0  0  0  0  0  0  0  0  0  0  0
   60.1520   33.8120   49.5080 O   0  0  0  0  0  0  0  0  0  0  0  0
   61.3910   33.0070   47.2760 N   0  0  0  0  0  0  0  0  0  0  0  0
   60.7530   31.7140   46.9720 C   0  0  0  0  0  0  0  0  0  0  0  0
   59.2170   31.7930   46.9270 C   0  0  0  0  0  0  0  0  0  0  0  0
   58.7750   32.9590   46.1560 N   0  0  0  0  0  0  0  0  0  0  0  0
   57.4890   32.9370   45.5130 C   0  0  0  0  0  0  0  0  0  0  0  0
   56.6600   33.8610   45.7370 O   0  0  0  0  0  0  0  0  0  0  0  0
   57.1360   31.8650   44.5670 C   0  0  0  0  0  0  0  0  0  0  0  0
   57.5650   31.7660   43.2580 C   0  0  0  0  0  0  0  0  0  0  0  0
   56.9990   30.6090   42.7680 C   0  0  0  0  0  0  0  0  0  0  0  0
   56.2670   30.0710   43.8060 C   0  0  0  0  0  0  0  0  0  0  0  0
   56.3690   30.8400   44.8650 O   0  0  0  0  0  0  0  0  0  0  0  0
   59.4010   34.2490   46.4500 C   0  0  0  0  0  0  0  0  0  0  0  0
   60.9220   34.1040   46.4120 C   0  0  0  0  0  0  0  0  0  0  0  0
   59.3750   33.5922   54.0824 H   0  0  0  0  0  0  0  0  0  0  0  0
   60.0064   32.4573   52.8414 H   0  0  0  0  0  0  0  0  0  0  0  0
   60.5362   34.1737   52.8414 H   0  0  0  0  0  0  0  0  0  0  0  0
   57.7020   34.2533   52.7175 H   0  0  0  0  0  0  0  0  0  0  0  0
   58.8713   34.6063   51.3887 H   0  0  0  0  0  0  0  0  0  0  0  0
   55.5254   32.5743   52.3013 H   0  0  0  0  0  0  0  0  0  0  0  0
   54.4057   30.5372   53.1942 H   0  0  0  0  0  0  0  0  0  0  0  0
   55.6529   28.3844   53.3431 H   0  0  0  0  0  0  0  0  0  0  0  0
   58.0369   28.2698   52.6305 H   0  0  0  0  0  0  0  0  0  0  0  0
   59.5470   31.8870   50.2820 H   0  0  0  0  0  0  0  0  0  0  0  0
   61.9644   30.1087   50.6505 H   0  0  0  0  0  0  0  0  0  0  0  0
   61.3324   30.5122   49.0083 H   0  0  0  0  0  0  0  0  0  0  0  0
   62.2419   32.5607   51.0875 H   0  0  0  0  0  0  0  0  0  0  0  0
   63.2332   31.9508   49.6862 H   0  0  0  0  0  0  0  0  0  0  0  0
   61.1143   31.3673   45.9926 H   0  0  0  0  0  0  0  0  0  0  0  0
   61.0215   31.0183   47.7807 H   0  0  0  0  0  0  0  0  0  0  0  0
   58.8231   30.8800   46.4566 H   0  0  0  0  0  0  0  0  0  0  0  0
   58.8399   31.8888   47.9559 H   0  0  0  0  0  0  0  0  0  0  0  0
   58.2215   32.4649   42.7190 H   0  0  0  0  0  0  0  0  0  0  0  0
   57.1088   30.1975   41.7538 H   0  0  0  0  0  0  0  0  0  0  0  0
   55.6857   29.1386   43.7542 H   0  0  0  0  0  0  0  0  0  0  0  0
   59.0853   34.9882   45.6991 H   0  0  0  0  0  0  0  0  0  0  0  0
   59.0919   34.5842   47.4510 H   0  0  0  0  0  0  0  0  0  0  0  0
   61.2340   33.8998   45.3771 H   0  0  0  0  0  0  0  0  0  0  0  0
   61.3631   35.0414   46.7816 H   0  0  0  0  0  0  0  0  0  0  0  0
  1  2  1  0
  2  3  1  0
  3  4  1  0
  4  5  2  0
  5  6  1  0
  6  7  2  0
  7  8  1  0
  8  9  2  0
  9 10  1  0
 10 11  2  0
 10 12  1  0
 12 13  1  0
 13 14  1  0
 14 15  1  0
 15 16  2  0
 15 17  2  0
 15 18  1  0
 18 19  1  0
 19 20  1  0
 20 21  1  0
 21 22  1  0
 22 23  2  0
 22 24  1  0
 24 25  2  0
 25 26  1  0
 26 27  2  0
 27 28  1  0
 21 29  1  0
 29 30  1  0
  9  4  1  0
 30 18  1  0
 28 24  1  0
  1 31  1  0
  1 32  1  0
  1 33  1  0
  2 34  1  0
  2 35  1  0
  5 36  1  0
  6 37  1  0
  7 38  1  0
  8 39  1  0
 12 40  1  0
 13 41  1  0
 13 42  1  0
 14 43  1  0
 14 44  1  0
 19 45  1  0
 19 46  1  0
 20 47  1  0
 20 48  1  0
 25 49  1  0
 26 50  1  0
 27 51  1  0
 29 52  1  0
 29 53  1  0
 30 54  1  0
 30 55  1  0
M  END
>  <UniqueID>  (76) 
67

>  <SMILES>  (76) 
CCOc1ccccc1C(=O)NCCS(=O)(=O)N1CCN(C(=O)c2ccco2)CC1

>  <Energy>  (76) 
86.6903357277513

>  <Genealogy>  (76) 
CCOc1ccccc1C(=O)NCCS(=O)(=O)N1CCN(C(=O)c2ccco2)CC1 (3D coordinates assigned)
CCOc1ccccc1C(=O)NCCS(=O)(=O)N1CCN(C(=O)c2ccco2)CC1 (nonaromatic ring conformer: 86.6903357277513 kcal/mol)

>  <smiles>  (76) 
CCOc1ccccc1C(=O)NCCS(=O)(=O)N1CCN(C(=O)c2ccco2)CC1

>  <score_type>  (76) 
oracle

>  <origin>  (76) 
adg

>  <m_score__min__energy>  (76) 
-8.5

>  <m_primary>  (76) 
energy

$$$$
76:0
     RDKit          3D

 38 41  0  0  0  0  0  0  0  0999 V2000
   64.9720   32.8660   47.5860 H   0  0  0  0  0  0  0  0  0  0  0  0
   64.3180   33.1260   48.3140 O   0  0  0  0  0  0  0  0  0  0  0  0
   63.0040   33.4850   48.0170 C   0  0  0  0  0  0  0  0  0  0  0  0
   62.5790   33.5090   46.6870 C   0  0  0  0  0  0  0  0  0  0  0  0
   63.2811   33.2446   45.8825 H   0  0  0  0  0  0  0  0  0  0  0  0
   61.2640   33.8680   46.3740 C   0  0  0  0  0  0  0  0  0  0  0  0
   60.9411   33.8933   45.3228 H   0  0  0  0  0  0  0  0  0  0  0  0
   60.3510   34.1970   47.3920 C   0  0  0  0  0  0  0  0  0  0  0  0
   58.9700   34.5800   47.0090 C   0  0  0  0  0  0  0  0  0  0  0  0
   58.3730   35.1571   47.7304 H   0  0  0  0  0  0  0  0  0  0  0  0
   58.4080   34.2630   45.8340 C   0  0  0  0  0  0  0  0  0  0  0  0
   58.3063   35.0417   45.0637 H   0  0  0  0  0  0  0  0  0  0  0  0
   57.9230   32.9040   45.5440 C   0  0  0  0  0  0  0  0  0  0  0  0
   56.6800   32.6140   45.1090 N   0  0  0  0  0  0  0  0  0  0  0  0
   56.6680   31.3230   44.9790 O   0  0  0  0  0  0  0  0  0  0  0  0
   57.8350   30.8300   45.3210 C   0  0  0  0  0  0  0  0  0  0  0  0
   58.1730   29.3890   45.2480 C   0  0  0  0  0  0  0  0  0  0  0  0
   57.7980   28.6990   44.0820 C   0  0  0  0  0  0  0  0  0  0  0  0
   57.2184   29.2211   43.3064 H   0  0  0  0  0  0  0  0  0  0  0  0
   58.1490   27.3650   43.8940 C   0  0  0  0  0  0  0  0  0  0  0  0
   57.8494   26.8447   42.9723 H   0  0  0  0  0  0  0  0  0  0  0  0
   58.8780   26.6860   44.8680 C   0  0  0  0  0  0  0  0  0  0  0  0
   59.1688   25.6380   44.7035 H   0  0  0  0  0  0  0  0  0  0  0  0
   59.2420   27.3330   46.0560 C   0  0  0  0  0  0  0  0  0  0  0  0
   59.9520   26.6290   47.0420 C   0  0  0  0  0  0  0  0  0  0  0  0
   60.2477   25.5847   46.8632 H   0  0  0  0  0  0  0  0  0  0  0  0
   60.2840   27.2480   48.2470 C   0  0  0  0  0  0  0  0  0  0  0  0
   60.8503   26.6952   49.0110 H   0  0  0  0  0  0  0  0  0  0  0  0
   59.8990   28.5660   48.4840 C   0  0  0  0  0  0  0  0  0  0  0  0
   60.1509   29.0451   49.4416 H   0  0  0  0  0  0  0  0  0  0  0  0
   59.1950   29.2830   47.5130 C   0  0  0  0  0  0  0  0  0  0  0  0
   58.8853   30.3183   47.7187 H   0  0  0  0  0  0  0  0  0  0  0  0
   58.8770   28.6920   46.2700 C   0  0  0  0  0  0  0  0  0  0  0  0
   58.6900   31.8040   45.6860 N   0  0  0  0  0  0  0  0  0  0  0  0
   60.7920   34.1840   48.7310 C   0  0  0  0  0  0  0  0  0  0  0  0
   60.0968   34.4576   49.5383 H   0  0  0  0  0  0  0  0  0  0  0  0
   62.1090   33.8250   49.0390 C   0  0  0  0  0  0  0  0  0  0  0  0
   62.4423   33.8098   50.0872 H   0  0  0  0  0  0  0  0  0  0  0  0
  1  2  1  0
  2  3  1  0
  3  4  2  0
  4  5  1  0
  4  6  1  0
  6  7  1  0
  6  8  2  0
  8  9  1  0
  9 10  1  0
  9 11  2  0
 11 12  1  0
 11 13  1  0
 13 14  2  0
 14 15  1  0
 15 16  1  0
 16 17  1  0
 17 18  2  0
 18 19  1  0
 18 20  1  0
 20 21  1  0
 20 22  2  0
 22 23  1  0
 22 24  1  0
 24 25  2  0
 25 26  1  0
 25 27  1  0
 27 28  1  0
 27 29  2  0
 29 30  1  0
 29 31  1  0
 31 32  1  0
 31 33  2  0
 16 34  2  0
  8 35  1  0
 35 36  1  0
 35 37  2  0
 37 38  1  0
 37  3  1  0
 34 13  1  0
 33 17  1  0
 33 24  1  0
M  END
>  <UniqueID>  (77) 
68

>  <SMILES>  (77) 
Oc1ccc(/C=C/c2noc(-c3cccc4ccccc34)n2)cc1

>  <Energy>  (77) 
86.71298511041434

>  <Genealogy>  (77) 
Oc1ccc(/C=C/c2noc(-c3cccc4ccccc34)n2)cc1 (cis-trans isomerization)
Oc1ccc(/C=C/c2noc(-c3cccc4ccccc34)n2)cc1 (3D coordinates assigned)
Oc1ccc(/C=C/c2noc(-c3cccc4ccccc34)n2)cc1 (optimized conformer: 86.71298511041434 kcal/mol)

>  <smiles>  (77) 
Oc1ccc(C=Cc2noc(-c3cccc4ccccc34)n2)cc1

>  <score_type>  (77) 
oracle

>  <origin>  (77) 
adg

>  <m_score__min__energy>  (77) 
-9.4299999999999997

>  <m_primary>  (77) 
energy

$$$$
77:0
     RDKit          3D

 48 49  0  0  0  0  0  0  0  0999 V2000
   58.4250   24.8177   45.8775 H   0  0  0  0  0  0  0  0  0  0  0  0
   57.9130   25.7730   45.6900 C   0  0  0  0  0  0  0  0  0  0  0  0
   56.5290   25.8820   45.8730 C   0  0  0  0  0  0  0  0  0  0  0  0
   55.7310   24.7100   46.3490 C   0  0  0  0  0  0  0  0  0  0  0  0
   55.7211   24.6955   47.4489 H   0  0  0  0  0  0  0  0  0  0  0  0
   54.7001   24.7917   45.9741 H   0  0  0  0  0  0  0  0  0  0  0  0
   56.1849   23.7808   45.9741 H   0  0  0  0  0  0  0  0  0  0  0  0
   55.9130   27.0740   45.6550 N   0  0  0  0  0  0  0  0  0  0  0  0
   56.5970   28.1850   45.2560 C   0  0  0  0  0  0  0  0  0  0  0  0
   55.9830   29.3130   45.0430 N   0  0  0  0  0  0  0  0  0  0  0  0
   56.5060   30.4370   44.3170 C   0  0  0  0  0  0  0  0  0  0  0  0
   56.2730   30.5170   43.0820 O   0  0  0  0  0  0  0  0  0  0  0  0
   57.3530   31.4710   44.9600 C   0  0  0  0  0  0  0  0  0  0  0  0
   57.3580   32.7930   44.4830 C   0  0  0  0  0  0  0  0  0  0  0  0
   56.7275   33.0670   43.6243 H   0  0  0  0  0  0  0  0  0  0  0  0
   58.1600   33.7620   45.0940 C   0  0  0  0  0  0  0  0  0  0  0  0
   58.1576   34.7937   44.7125 H   0  0  0  0  0  0  0  0  0  0  0  0
   58.9670   33.4260   46.1900 C   0  0  0  0  0  0  0  0  0  0  0  0
   59.8050   34.4440   46.8510 C   0  0  0  0  0  0  0  0  0  0  0  0
   60.5450   35.1770   46.1450 O   0  0  0  0  0  0  0  0  0  0  0  0
   59.7910   34.6440   48.2710 N   0  0  0  0  0  0  0  0  0  0  0  0
   60.3690   33.7530   49.2740 C   0  0  0  0  0  0  0  0  0  0  0  0
   59.6883   33.7008   50.1365 H   0  0  0  0  0  0  0  0  0  0  0  0
   60.5035   32.7641   48.8114 H   0  0  0  0  0  0  0  0  0  0  0  0
   61.7450   34.2410   49.7570 C   0  0  0  0  0  0  0  0  0  0  0  0
   61.7263   35.3401   49.7980 H   0  0  0  0  0  0  0  0  0  0  0  0
   61.9160   33.7806   50.7413 H   0  0  0  0  0  0  0  0  0  0  0  0
   62.9220   33.8100   48.8550 C   0  0  0  0  0  0  0  0  0  0  0  0
   63.6009   34.6682   48.7430 H   0  0  0  0  0  0  0  0  0  0  0  0
   63.3948   32.9483   49.3490 H   0  0  0  0  0  0  0  0  0  0  0  0
   62.5250   33.3530   47.4990 N   0  0  0  0  0  0  0  0  0  0  0  0
   61.5360   33.6280   47.3060 H   0  0  0  0  0  0  0  0  0  0  0  0
   62.5830   31.8820   47.4400 C   0  0  0  0  0  0  0  0  0  0  0  0
   62.5991   31.4744   48.4616 H   0  0  0  0  0  0  0  0  0  0  0  0
   61.6992   31.5013   46.9072 H   0  0  0  0  0  0  0  0  0  0  0  0
   63.4941   31.5720   46.9072 H   0  0  0  0  0  0  0  0  0  0  0  0
   63.3950   33.9190   46.4510 C   0  0  0  0  0  0  0  0  0  0  0  0
   64.2289   34.4615   46.9203 H   0  0  0  0  0  0  0  0  0  0  0  0
   63.7922   33.1059   45.8256 H   0  0  0  0  0  0  0  0  0  0  0  0
   62.8127   34.6116   45.8256 H   0  0  0  0  0  0  0  0  0  0  0  0
   58.9300   32.1170   46.6940 C   0  0  0  0  0  0  0  0  0  0  0  0
   59.5338   31.8527   47.5747 H   0  0  0  0  0  0  0  0  0  0  0  0
   58.1300   31.1470   46.0830 C   0  0  0  0  0  0  0  0  0  0  0  0
   58.1093   30.1233   46.4849 H   0  0  0  0  0  0  0  0  0  0  0  0
   57.9780   28.1020   45.0440 C   0  0  0  0  0  0  0  0  0  0  0  0
   58.5408   28.9841   44.7045 H   0  0  0  0  0  0  0  0  0  0  0  0
   58.6360   26.8900   45.2670 C   0  0  0  0  0  0  0  0  0  0  0  0
   59.7221   26.8158   45.1096 H   0  0  0  0  0  0  0  0  0  0  0  0
  1  2  1  0
  2  3  2  0
  3  4  1  0
  4  5  1  0
  4  6  1  0
  4  7  1  0
  3  8  1  0
  8  9  1  0
  9 10  2  0
 10 11  1  0
 11 12  2  0
 11 13  1  0
 13 14  2  0
 14 15  1  0
 14 16  1  0
 16 17  1  0
 16 18  2  0
 18 19  1  0
 19 20  2  0
 19 21  1  0
 21 22  1  0
 22 23  1  0
 22 24  1  0
 22 25  1  0
 25 26  1  0
 25 27  1  0
 25 28  1  0
 28 29  1  0
 28 30  1  0
 28 31  1  0
 31 32  1  0
 31 33  1  0
 33 34  1  0
 33 35  1  0
 33 36  1  0
 31 37  1  0
 37 38  1  0
 37 39  1  0
 37 40  1  0
 18 41  1  0
 41 42  1  0
 41 43  2  0
 43 44  1  0
  9 45  1  0
 45 46  1  0
 45 47  2  0
 47 48  1  0
 47  2  1  0
 43 13  1  0
M  CHG  3   8  -1  21  -1  31   1
M  END
>  <UniqueID>  (78) 
69

>  <SMILES>  (78) 
Cc1ccc/c(=N/C(=O)c2ccc(C(=O)[N-]CCC[NH+](C)C)cc2)[n-]1

>  <Energy>  (78) 
56.59809971998708

>  <Genealogy>  (78) 
Cc1cccc(=NC(=O)c2ccc(C(=O)[N-]CCC[NH+](C)C)cc2)[n-]1 (protonated)
Cc1ccc/c(=N/C(=O)c2ccc(C(=O)[N-]CCC[NH+](C)C)cc2)[n-]1 (cis-trans isomerization)
Cc1ccc/c(=N/C(=O)c2ccc(C(=O)[N-]CCC[NH+](C)C)cc2)[n-]1 (3D coordinates assigned)
Cc1ccc/c(=N/C(=O)c2ccc(C(=O)[N-]CCC[NH+](C)C)cc2)[n-]1 (optimized conformer: 56.59809971998708 kcal/mol)

>  <smiles>  (78) 
Cc1cccc(=NC(=O)c2ccc(C(=O)NCCCN(C)C)cc2)[nH]1

>  <score_type>  (78) 
oracle

>  <origin>  (78) 
adg

>  <m_score__min__energy>  (78) 
-8.7200000000000006

>  <m_primary>  (78) 
energy

$$$$
78:0
     RDKit          3D

 37 39  0  0  0  0  0  0  0  0999 V2000
   54.3930   26.0120   45.9840 N   0  0  0  0  0  0  0  0  0  0  0  0
   55.6730   26.1940   45.9710 C   0  0  0  0  0  0  0  0  0  0  0  0
   56.1750   27.4560   45.9280 N   0  0  0  0  0  0  0  0  0  0  0  0
   57.5160   27.6860   45.9100 C   0  0  0  0  0  0  0  0  0  0  0  0
   58.0240   29.0790   45.8800 C   0  0  0  0  0  0  0  0  0  0  0  0
   58.9280   29.5070   46.8710 C   0  0  0  0  0  0  0  0  0  0  0  0
   59.4080   30.8270   46.8880 C   0  0  0  0  0  0  0  0  0  0  0  0
   60.3460   31.2700   47.8830 N   0  0  0  0  0  0  0  0  0  0  0  0
   61.4140   32.1990   47.6210 C   0  0  0  0  0  0  0  0  0  0  0  0
   61.6820   32.5380   46.4360 O   0  0  0  0  0  0  0  0  0  0  0  0
   62.2380   32.7300   48.7310 C   0  0  0  0  0  0  0  0  0  0  0  0
   63.5710   32.3050   48.8680 C   0  0  0  0  0  0  0  0  0  0  0  0
   64.3860   32.8000   49.9020 C   0  0  0  0  0  0  0  0  0  0  0  0
   65.7530   32.3630   50.0350 N   0  0  0  0  0  0  0  0  0  0  0  0
   66.6970   33.1210   49.7310 O   0  0  0  0  0  0  0  0  0  0  0  0
   66.0400   31.0990   50.4980 O   0  0  0  0  0  0  0  0  0  0  0  0
   63.8510   33.7340   50.8020 C   0  0  0  0  0  0  0  0  0  0  0  0
   62.5300   34.1630   50.6740 C   0  0  0  0  0  0  0  0  0  0  0  0
   61.7190   33.6710   49.6460 C   0  0  0  0  0  0  0  0  0  0  0  0
   60.0460   34.2170   49.5780 Cl  0  0  0  0  0  0  0  0  0  0  0  0
   59.0110   31.7110   45.8780 C   0  0  0  0  0  0  0  0  0  0  0  0
   58.1180   31.2990   44.8880 C   0  0  0  0  0  0  0  0  0  0  0  0
   57.6170   29.9940   44.8830 C   0  0  0  0  0  0  0  0  0  0  0  0
   56.5430   29.5290   43.5670 Cl  0  0  0  0  0  0  0  0  0  0  0  0
   58.3970   26.5960   45.9440 C   0  0  0  0  0  0  0  0  0  0  0  0
   57.8640   25.3070   45.9880 C   0  0  0  0  0  0  0  0  0  0  0  0
   58.6290   24.3070   46.0160 O   0  0  0  0  0  0  0  0  0  0  0  0
   56.5180   25.1290   46.0010 N   0  0  0  0  0  0  0  0  0  0  0  0
   53.7460   26.7110   46.4130 H   0  0  0  0  0  0  0  0  0  0  0  0
   59.2629   28.7980   47.6424 H   0  0  0  0  0  0  0  0  0  0  0  0
   60.2700   30.8500   48.8370 H   0  0  0  0  0  0  0  0  0  0  0  0
   63.9827   31.5745   48.1560 H   0  0  0  0  0  0  0  0  0  0  0  0
   64.4778   34.1307   51.6143 H   0  0  0  0  0  0  0  0  0  0  0  0
   62.1225   34.8944   51.3875 H   0  0  0  0  0  0  0  0  0  0  0  0
   59.4057   32.7377   45.8646 H   0  0  0  0  0  0  0  0  0  0  0  0
   57.8060   32.0065   44.1056 H   0  0  0  0  0  0  0  0  0  0  0  0
   59.4856   26.7535   45.9362 H   0  0  0  0  0  0  0  0  0  0  0  0
  1  2  2  3
  2  3  1  0
  3  4  1  0
  4  5  1  0
  5  6  2  0
  6  7  1  0
  7  8  1  0
  8  9  1  0
  9 10  2  0
  9 11  1  0
 11 12  2  0
 12 13  1  0
 13 14  1  0
 14 15  2  0
 14 16  1  0
 13 17  2  0
 17 18  1  0
 18 19  2  0
 19 20  1  0
  7 21  2  0
 21 22  1  0
 22 23  2  0
 23 24  1  0
  4 25  2  0
 25 26  1  0
 26 27  2  0
 26 28  1  0
 28  2  1  0
 23  5  1  0
 19 11  1  0
  1 29  1  0
  6 30  1  0
  8 31  1  0
 12 32  1  0
 17 33  1  0
 18 34  1  0
 21 35  1  0
 22 36  1  0
 25 37  1  0
M  CHG  4   3  -1  14   1  16  -1  28  -1
M  END
>  <UniqueID>  (79) 
70

>  <SMILES>  (79) 
N=c1[n-]c(-c2cc(NC(=O)c3cc([N+](=O)[O-])ccc3Cl)ccc2Cl)cc(=O)[n-]1

>  <Energy>  (79) 
57.891043205218054

>  <Genealogy>  (79) 
N=c1[n-]c(-c2cc(NC(=O)c3cc([N+](=O)[O-])ccc3Cl)ccc2Cl)cc(=O)[n-]1 (protonated)
N=c1[n-]c(-c2cc(NC(=O)c3cc([N+](=O)[O-])ccc3Cl)ccc2Cl)cc(=O)[n-]1 (3D coordinates assigned)
N=c1[n-]c(-c2cc(NC(=O)c3cc([N+](=O)[O-])ccc3Cl)ccc2Cl)cc(=O)[n-]1 (optimized conformer: 57.891043205218054 kcal/mol)

>  <smiles>  (79) 
N=c1[nH]c(-c2cc(NC(=O)c3cc([N+](=O)[O-])ccc3Cl)ccc2Cl)cc(=O)[nH]1

>  <score_type>  (79) 
oracle

>  <origin>  (79) 
adg

>  <m_score__min__energy>  (79) 
-13.26

>  <m_primary>  (79) 
energy

$$$$
79:0
     RDKit          3D

 59 61  0  0  0  0  0  0  0  0999 V2000
   60.0190   29.2240   48.3950 C   0  0  0  0  0  0  0  0  0  0  0  0
   58.8950   30.2520   48.2750 C   0  0  0  0  0  0  0  0  0  0  0  0
   58.9750   31.2910   49.3690 C   0  0  0  0  0  0  0  0  0  0  0  0
   58.7170   30.8990   50.6970 C   0  0  0  0  0  0  0  0  0  0  0  0
   58.7470   31.8320   51.7340 C   0  0  0  0  0  0  0  0  0  0  0  0
   59.0260   33.1710   51.4630 C   0  0  0  0  0  0  0  0  0  0  0  0
   59.2710   33.5820   50.1530 C   0  0  0  0  0  0  0  0  0  0  0  0
   59.2430   32.6560   49.0960 C   0  0  0  0  0  0  0  0  0  0  0  0
   59.4700   33.1270   47.7580 N   0  0  0  0  0  0  0  0  0  0  0  0
   58.5560   34.1130   47.1700 C   0  0  0  0  0  0  0  0  0  0  0  0
   57.8850   33.5510   45.9540 C   0  0  0  0  0  0  0  0  0  0  0  0
   56.6420   33.6990   45.8100 O   0  0  0  0  0  0  0  0  0  0  0  0
   58.6430   32.8110   44.9850 N   0  0  0  0  0  0  0  0  0  0  0  0
   58.0460   32.2940   43.7530 C   0  0  0  0  0  0  0  0  0  0  0  0
   56.9830   31.2360   44.0660 C   0  0  0  0  0  0  0  0  0  0  0  0
   57.6100   29.9700   44.5930 C   0  0  0  0  0  0  0  0  0  0  0  0
   59.0000   29.7770   44.5060 C   0  0  0  0  0  0  0  0  0  0  0  0
   59.5750   28.5900   44.9700 C   0  0  0  0  0  0  0  0  0  0  0  0
   58.7700   27.5870   45.5150 C   0  0  0  0  0  0  0  0  0  0  0  0
   57.3860   27.7660   45.5920 C   0  0  0  0  0  0  0  0  0  0  0  0
   56.8070   28.9500   45.1270 C   0  0  0  0  0  0  0  0  0  0  0  0
   61.0120   32.8430   47.0100 S   0  0  0  0  0  0  0  0  0  0  0  0
   61.0270   31.4700   46.3980 O   0  0  0  0  0  0  0  0  0  0  0  0
   61.2440   33.8480   45.9160 O   0  0  0  0  0  0  0  0  0  0  0  0
   62.2960   32.9740   48.2100 C   0  0  0  0  0  0  0  0  0  0  0  0
   63.2750   31.9750   48.3030 C   0  0  0  0  0  0  0  0  0  0  0  0
   64.2770   32.0590   49.2740 C   0  0  0  0  0  0  0  0  0  0  0  0
   64.3080   33.1400   50.1670 C   0  0  0  0  0  0  0  0  0  0  0  0
   65.4030   33.2500   51.1870 C   0  0  0  0  0  0  0  0  0  0  0  0
   63.3440   34.1520   50.0560 C   0  0  0  0  0  0  0  0  0  0  0  0
   62.3420   34.0680   49.0860 C   0  0  0  0  0  0  0  0  0  0  0  0
   60.2286   29.0323   49.4577 H   0  0  0  0  0  0  0  0  0  0  0  0
   59.7126   28.2871   47.9069 H   0  0  0  0  0  0  0  0  0  0  0  0
   60.9249   29.6126   47.9069 H   0  0  0  0  0  0  0  0  0  0  0  0
   58.9724   30.7539   47.2992 H   0  0  0  0  0  0  0  0  0  0  0  0
   57.9341   29.7250   48.3695 H   0  0  0  0  0  0  0  0  0  0  0  0
   58.4894   29.8459   50.9190 H   0  0  0  0  0  0  0  0  0  0  0  0
   58.5502   31.5106   52.7674 H   0  0  0  0  0  0  0  0  0  0  0  0
   59.0529   33.9037   52.2830 H   0  0  0  0  0  0  0  0  0  0  0  0
   59.4881   34.6402   49.9452 H   0  0  0  0  0  0  0  0  0  0  0  0
   57.7908   34.3843   47.9122 H   0  0  0  0  0  0  0  0  0  0  0  0
   59.1341   35.0018   46.8770 H   0  0  0  0  0  0  0  0  0  0  0  0
   59.6500   32.6040   45.1710 H   0  0  0  0  0  0  0  0  0  0  0  0
   57.5780   33.1238   43.2032 H   0  0  0  0  0  0  0  0  0  0  0  0
   58.8370   31.8301   43.1455 H   0  0  0  0  0  0  0  0  0  0  0  0
   56.2915   31.6354   44.8225 H   0  0  0  0  0  0  0  0  0  0  0  0
   56.4460   30.9970   43.1362 H   0  0  0  0  0  0  0  0  0  0  0  0
   59.6367   30.5619   44.0718 H   0  0  0  0  0  0  0  0  0  0  0  0
   60.6636   28.4457   44.9057 H   0  0  0  0  0  0  0  0  0  0  0  0
   59.2254   26.6560   45.8837 H   0  0  0  0  0  0  0  0  0  0  0  0
   56.7522   26.9747   46.0188 H   0  0  0  0  0  0  0  0  0  0  0  0
   55.7164   29.0832   45.1798 H   0  0  0  0  0  0  0  0  0  0  0  0
   63.2546   31.1217   47.6092 H   0  0  0  0  0  0  0  0  0  0  0  0
   65.0446   31.2737   49.3380 H   0  0  0  0  0  0  0  0  0  0  0  0
   64.9691   33.2064   52.1969 H   0  0  0  0  0  0  0  0  0  0  0  0
   66.1111   32.4185   51.0559 H   0  0  0  0  0  0  0  0  0  0  0  0
   65.9315   34.2058   51.0559 H   0  0  0  0  0  0  0  0  0  0  0  0
   63.3767   35.0162   50.7358 H   0  0  0  0  0  0  0  0  0  0  0  0
   61.5860   34.8634   49.0091 H   0  0  0  0  0  0  0  0  0  0  0  0
  1  2  1  0
  2  3  1  0
  3  4  2  0
  4  5  1  0
  5  6  2  0
  6  7  1  0
  7  8  2  0
  8  9  1  0
  9 10  1  0
 10 11  1  0
 11 12  2  0
 11 13  1  0
 13 14  1  0
 14 15  1  0
 15 16  1  0
 16 17  2  0
 17 18  1  0
 18 19  2  0
 19 20  1  0
 20 21  2  0
  9 22  1  0
 22 23  2  0
 22 24  2  0
 22 25  1  0
 25 26  2  0
 26 27  1  0
 27 28  2  0
 28 29  1  0
 28 30  1  0
 30 31  2  0
  8  3  1  0
 21 16  1  0
 31 25  1  0
  1 32  1  0
  1 33  1  0
  1 34  1  0
  2 35  1  0
  2 36  1  0
  4 37  1  0
  5 38  1  0
  6 39  1  0
  7 40  1  0
 10 41  1  0
 10 42  1  0
 13 43  1  0
 14 44  1  0
 14 45  1  0
 15 46  1  0
 15 47  1  0
 17 48  1  0
 18 49  1  0
 19 50  1  0
 20 51  1  0
 21 52  1  0
 26 53  1  0
 27 54  1  0
 29 55  1  0
 29 56  1  0
 29 57  1  0
 30 58  1  0
 31 59  1  0
M  END
>  <UniqueID>  (80) 
71

>  <SMILES>  (80) 
CCc1ccccc1N(CC(=O)NCCc1ccccc1)S(=O)(=O)c1ccc(C)cc1

>  <Energy>  (80) 
53.93154800069583

>  <Genealogy>  (80) 
CCc1ccccc1N(CC(=O)NCCc1ccccc1)S(=O)(=O)c1ccc(C)cc1 (3D coordinates assigned)
CCc1ccccc1N(CC(=O)NCCc1ccccc1)S(=O)(=O)c1ccc(C)cc1 (optimized conformer: 53.93154800069583 kcal/mol)

>  <smiles>  (80) 
CCc1ccccc1N(CC(=O)NCCc1ccccc1)S(=O)(=O)c1ccc(C)cc1

>  <score_type>  (80) 
oracle

>  <origin>  (80) 
adg

>  <m_score__min__energy>  (80) 
-10.08

>  <m_primary>  (80) 
energy

$$$$
80:0
     RDKit          3D

 63 67  0  0  0  0  0  0  0  0999 V2000
   54.4550   19.6830   46.8970 O   0  0  0  0  0  0  0  0  0  0  0  0
   55.3850   20.0380   47.6660 C   0  0  0  0  0  0  0  0  0  0  0  0
   56.8030   19.6590   47.3110 C   0  0  0  0  0  0  0  0  0  0  0  0
   56.9900   19.4680   45.7960 C   0  0  0  0  0  0  0  0  0  0  0  0
   57.2580   20.7690   45.0830 C   0  0  0  0  0  0  0  0  0  0  0  0
   58.2960   21.6170   45.5090 C   0  0  0  0  0  0  0  0  0  0  0  0
   58.5300   22.8290   44.8500 C   0  0  0  0  0  0  0  0  0  0  0  0
   57.7350   23.2000   43.7640 C   0  0  0  0  0  0  0  0  0  0  0  0
   56.7000   22.3640   43.3360 C   0  0  0  0  0  0  0  0  0  0  0  0
   56.4580   21.1550   43.9960 C   0  0  0  0  0  0  0  0  0  0  0  0
   55.0410   20.7540   48.8640 N   0  0  0  0  0  0  0  0  0  0  0  0
   55.2110   22.1820   49.1180 C   0  0  0  0  0  0  0  0  0  0  0  0
   56.6550   22.5940   48.9920 C   0  0  0  0  0  0  0  0  0  0  0  0
   57.3940   22.5870   50.0100 O   0  0  0  0  0  0  0  0  0  0  0  0
   57.1890   23.1050   47.7650 N   0  0  0  0  0  0  0  0  0  0  0  0
   56.8170   24.3410   47.1460 C   0  0  0  0  0  0  0  0  0  0  0  0
   57.6420   25.4590   47.3280 C   0  0  0  0  0  0  0  0  0  0  0  0
   57.3340   26.6810   46.7060 C   0  0  0  0  0  0  0  0  0  0  0  0
   58.1410   27.8190   46.8750 C   0  0  0  0  0  0  0  0  0  0  0  0
   59.2820   27.7540   47.6740 O   0  0  0  0  0  0  0  0  0  0  0  0
   57.8060   29.0220   46.2200 C   0  0  0  0  0  0  0  0  0  0  0  0
   58.6570   30.2260   46.3770 C   0  0  0  0  0  0  0  0  0  0  0  0
   58.0930   31.5090   46.3050 C   0  0  0  0  0  0  0  0  0  0  0  0
   58.8930   32.6410   46.4780 C   0  0  0  0  0  0  0  0  0  0  0  0
   60.2610   32.5030   46.7150 C   0  0  0  0  0  0  0  0  0  0  0  0
   60.8470   31.2330   46.7640 C   0  0  0  0  0  0  0  0  0  0  0  0
   62.2240   31.1330   47.0150 O   0  0  0  0  0  0  0  0  0  0  0  0
   62.9050   31.7590   48.0690 C   0  0  0  0  0  0  0  0  0  0  0  0
   63.7650   32.8540   47.8580 C   0  0  0  0  0  0  0  0  0  0  0  0
   64.4150   33.4590   48.9410 C   0  0  0  0  0  0  0  0  0  0  0  0
   64.2000   32.9850   50.2380 C   0  0  0  0  0  0  0  0  0  0  0  0
   63.3310   31.9110   50.4560 C   0  0  0  0  0  0  0  0  0  0  0  0
   62.6830   31.3040   49.3760 C   0  0  0  0  0  0  0  0  0  0  0  0
   60.0350   30.0940   46.6150 C   0  0  0  0  0  0  0  0  0  0  0  0
   56.6570   29.0510   45.4030 C   0  0  0  0  0  0  0  0  0  0  0  0
   56.3160   30.1110   44.8110 O   0  0  0  0  0  0  0  0  0  0  0  0
   55.8950   27.9380   45.2560 N   0  0  0  0  0  0  0  0  0  0  0  0
   56.1960   26.7680   45.8770 C   0  0  0  0  0  0  0  0  0  0  0  0
   55.3850   25.6470   45.6800 C   0  0  0  0  0  0  0  0  0  0  0  0
   55.6930   24.4320   46.3010 C   0  0  0  0  0  0  0  0  0  0  0  0
   54.6950   23.0270   45.9430 Cl  0  0  0  0  0  0  0  0  0  0  0  0
   57.4794   20.4558   47.6540 H   0  0  0  0  0  0  0  0  0  0  0  0
   57.0308   18.7020   47.8033 H   0  0  0  0  0  0  0  0  0  0  0  0
   57.8402   18.7907   45.6273 H   0  0  0  0  0  0  0  0  0  0  0  0
   56.0562   19.0497   45.3922 H   0  0  0  0  0  0  0  0  0  0  0  0
   58.9258   21.3266   46.3628 H   0  0  0  0  0  0  0  0  0  0  0  0
   59.3414   23.4903   45.1881 H   0  0  0  0  0  0  0  0  0  0  0  0
   57.9234   24.1512   43.2447 H   0  0  0  0  0  0  0  0  0  0  0  0
   56.0753   22.6572   42.4794 H   0  0  0  0  0  0  0  0  0  0  0  0
   55.6370   20.5036   43.6618 H   0  0  0  0  0  0  0  0  0  0  0  0
   54.6121   22.7489   48.3900 H   0  0  0  0  0  0  0  0  0  0  0  0
   54.8787   22.3932   50.1451 H   0  0  0  0  0  0  0  0  0  0  0  0
   58.5372   25.3795   47.9623 H   0  0  0  0  0  0  0  0  0  0  0  0
   57.0163   31.6238   46.1115 H   0  0  0  0  0  0  0  0  0  0  0  0
   58.4433   33.6436   46.4273 H   0  0  0  0  0  0  0  0  0  0  0  0
   60.8829   33.3980   46.8643 H   0  0  0  0  0  0  0  0  0  0  0  0
   63.9268   33.2355   46.8390 H   0  0  0  0  0  0  0  0  0  0  0  0
   65.0946   34.3071   48.7708 H   0  0  0  0  0  0  0  0  0  0  0  0
   64.7146   33.4569   51.0880 H   0  0  0  0  0  0  0  0  0  0  0  0
   63.1572   31.5435   51.4781 H   0  0  0  0  0  0  0  0  0  0  0  0
   61.9948   30.4643   49.5531 H   0  0  0  0  0  0  0  0  0  0  0  0
   60.4829   29.0918   46.6855 H   0  0  0  0  0  0  0  0  0  0  0  0
   54.4988   25.7206   45.0325 H   0  0  0  0  0  0  0  0  0  0  0  0
  1  2  2  0
  2  3  1  0
  3  4  1  0
  4  5  1  0
  5  6  2  0
  6  7  1  0
  7  8  2  0
  8  9  1  0
  9 10  2  0
  2 11  1  0
 11 12  1  0
 12 13  1  0
 13 14  2  0
 13 15  1  0
 15 16  1  0
 16 17  2  0
 17 18  1  0
 18 19  1  0
 19 20  1  0
 19 21  2  0
 21 22  1  0
 22 23  2  0
 23 24  1  0
 24 25  2  0
 25 26  1  0
 26 27  1  0
 27 28  1  0
 28 29  2  0
 29 30  1  0
 30 31  2  0
 31 32  1  0
 32 33  2  0
 26 34  2  0
 21 35  1  0
 35 36  2  0
 35 37  1  0
 37 38  1  0
 38 39  1  0
 39 40  2  0
 40 41  1  0
 10  5  1  0
 40 16  1  0
 38 18  2  0
 34 22  1  0
 33 28  1  0
  3 42  1  0
  3 43  1  0
  4 44  1  0
  4 45  1  0
  6 46  1  0
  7 47  1  0
  8 48  1  0
  9 49  1  0
 10 50  1  0
 12 51  1  0
 12 52  1  0
 17 53  1  0
 23 54  1  0
 24 55  1  0
 25 56  1  0
 29 57  1  0
 30 58  1  0
 31 59  1  0
 32 60  1  0
 33 61  1  0
 34 62  1  0
 39 63  1  0
M  CHG  4  11  -1  15  -1  20  -1  37  -1
M  END
>  <UniqueID>  (81) 
72

>  <SMILES>  (81) 
O=C(CCc1ccccc1)[N-]CC(=O)[N-]c1cc2c([O-])c(-c3cccc(Oc4ccccc4)c3)c(=O)[n-]c2cc1Cl

>  <Energy>  (81) 
94.15298536288314

>  <Genealogy>  (81) 
O=C(CCc1ccccc1)[N-]CC(=O)[N-]c1cc2c([O-])c(-c3cccc(Oc4ccccc4)c3)c(=O)[n-]c2cc1Cl (protonated)
O=C(CCc1ccccc1)[N-]CC(=O)[N-]c1cc2c([O-])c(-c3cccc(Oc4ccccc4)c3)c(=O)[n-]c2cc1Cl (3D coordinates assigned)
O=C(CCc1ccccc1)[N-]CC(=O)[N-]c1cc2c([O-])c(-c3cccc(Oc4ccccc4)c3)c(=O)[n-]c2cc1Cl (optimized conformer: 94.15298536288314 kcal/mol)

>  <smiles>  (81) 
O=C(CCc1ccccc1)NCC(=O)Nc1cc2c(O)c(-c3cccc(Oc4ccccc4)c3)c(=O)[nH]c2cc1Cl

>  <score_type>  (81) 
oracle

>  <origin>  (81) 
adg

>  <m_score__min__energy>  (81) 
-18.09

>  <m_primary>  (81) 
energy

$$$$
81:0
     RDKit          3D

 36 38  0  0  0  0  0  0  0  0999 V2000
   52.6632   24.8735   44.9256 H   0  0  0  0  0  0  0  0  0  0  0  0
   53.6890   24.8260   45.3200 C   0  0  0  0  0  0  0  0  0  0  0  0
   54.3430   25.9020   45.8060 N   0  0  0  0  0  0  0  0  0  0  0  0
   55.5320   25.4040   46.1870 C   0  0  0  0  0  0  0  0  0  0  0  0
   56.6500   26.2320   46.7420 C   0  0  0  0  0  0  0  0  0  0  0  0
   57.4623   25.5651   47.0668 H   0  0  0  0  0  0  0  0  0  0  0  0
   56.2613   26.8151   47.5899 H   0  0  0  0  0  0  0  0  0  0  0  0
   57.1950   27.2080   45.6950 C   0  0  0  0  0  0  0  0  0  0  0  0
   57.5732   26.6364   44.8347 H   0  0  0  0  0  0  0  0  0  0  0  0
   58.0019   27.7969   46.1556 H   0  0  0  0  0  0  0  0  0  0  0  0
   56.1540   28.1300   45.2350 N   0  0  0  0  0  0  0  0  0  0  0  0
   55.1580   27.8870   45.4390 H   0  0  0  0  0  0  0  0  0  0  0  0
   56.4490   29.3570   44.5530 C   0  0  0  0  0  0  0  0  0  0  0  0
   56.8530   30.4550   45.2480 N   0  0  0  0  0  0  0  0  0  0  0  0
   57.1450   31.6250   44.6210 C   0  0  0  0  0  0  0  0  0  0  0  0
   57.5080   32.6520   45.3320 N   0  0  0  0  0  0  0  0  0  0  0  0
   58.8160   32.9160   45.8650 C   0  0  0  0  0  0  0  0  0  0  0  0
   59.2890   34.2350   45.8660 C   0  0  0  0  0  0  0  0  0  0  0  0
   58.6687   35.0371   45.4396 H   0  0  0  0  0  0  0  0  0  0  0  0
   60.5420   34.5400   46.4040 C   0  0  0  0  0  0  0  0  0  0  0  0
   60.9110   35.5761   46.3839 H   0  0  0  0  0  0  0  0  0  0  0  0
   61.3290   33.5280   46.9690 C   0  0  0  0  0  0  0  0  0  0  0  0
   62.6180   33.8420   47.5260 C   0  0  0  0  0  0  0  0  0  0  0  0
   63.6550   34.0950   47.9750 N   0  0  0  0  0  0  0  0  0  0  0  0
   60.8500   32.2120   47.0020 C   0  0  0  0  0  0  0  0  0  0  0  0
   61.4614   31.4168   47.4535 H   0  0  0  0  0  0  0  0  0  0  0  0
   59.5980   31.9070   46.4630 C   0  0  0  0  0  0  0  0  0  0  0  0
   59.2205   30.8747   46.5054 H   0  0  0  0  0  0  0  0  0  0  0  0
   57.0110   31.7110   43.2680 N   0  0  0  0  0  0  0  0  0  0  0  0
   56.6080   30.6440   42.5330 C   0  0  0  0  0  0  0  0  0  0  0  0
   56.5110   30.7329   41.4409 H   0  0  0  0  0  0  0  0  0  0  0  0
   56.3170   29.4350   43.1630 C   0  0  0  0  0  0  0  0  0  0  0  0
   55.9907   28.5615   42.5795 H   0  0  0  0  0  0  0  0  0  0  0  0
   55.5800   24.0580   45.9100 C   0  0  0  0  0  0  0  0  0  0  0  0
   56.4356   23.3946   46.1045 H   0  0  0  0  0  0  0  0  0  0  0  0
   54.4110   23.6860   45.3630 N   0  0  0  0  0  0  0  0  0  0  0  0
  1  2  1  0
  2  3  2  0
  3  4  1  0
  4  5  1  0
  5  6  1  0
  5  7  1  0
  5  8  1  0
  8  9  1  0
  8 10  1  0
  8 11  1  0
 11 12  1  0
 11 13  1  0
 13 14  2  0
 14 15  1  0
 15 16  2  0
 16 17  1  0
 17 18  2  0
 18 19  1  0
 18 20  1  0
 20 21  1  0
 20 22  2  0
 22 23  1  0
 23 24  3  0
 22 25  1  0
 25 26  1  0
 25 27  2  0
 27 28  1  0
 15 29  1  0
 29 30  1  0
 30 31  1  0
 30 32  2  0
 32 33  1  0
  4 34  2  0
 34 35  1  0
 34 36  1  0
 36  2  1  0
 32 13  1  0
 27 17  1  0
M  CHG  2  29  -1  36  -1
M  END
>  <UniqueID>  (82) 
73

>  <SMILES>  (82) 
N#Cc1ccc(/N=c2/nc(NCCc3c[n-]cn3)cc[n-]2)cc1

>  <Energy>  (82) 
66.86329308676281

>  <Genealogy>  (82) 
N#Cc1ccc(N=c2nc(NCCc3c[n-]cn3)cc[n-]2)cc1 (protonated)
N#Cc1ccc(/N=c2/nc(NCCc3c[n-]cn3)cc[n-]2)cc1 (cis-trans isomerization)
N#Cc1ccc(/N=c2/nc(NCCc3c[n-]cn3)cc[n-]2)cc1 (3D coordinates assigned)
N#Cc1ccc(/N=c2/nc(NCCc3c[n-]cn3)cc[n-]2)cc1 (optimized conformer: 66.86329308676281 kcal/mol)

>  <smiles>  (82) 
N#Cc1ccc(N=c2nc(NCCc3c[nH]cn3)cc[nH]2)cc1

>  <score_type>  (82) 
oracle

>  <origin>  (82) 
adg

>  <m_score__min__energy>  (82) 
-11.19

>  <m_primary>  (82) 
energy

$$$$
82:0
     RDKit          3D

 41 43  0  0  0  0  0  0  0  0999 V2000
   56.8710   29.1870   42.8900 N   0  0  0  0  0  0  0  0  0  0  0  0
   56.6760   29.7540   44.5110 S   0  0  0  0  0  0  0  0  0  0  0  0
   56.3680   31.2250   44.4940 O   0  0  0  0  0  0  0  0  0  0  0  0
   55.5290   29.0310   45.1600 O   0  0  0  0  0  0  0  0  0  0  0  0
   58.1560   29.4630   45.4210 C   0  0  0  0  0  0  0  0  0  0  0  0
   59.3780   29.3180   44.7510 C   0  0  0  0  0  0  0  0  0  0  0  0
   60.5460   29.0600   45.4720 C   0  0  0  0  0  0  0  0  0  0  0  0
   60.5030   28.9530   46.8640 C   0  0  0  0  0  0  0  0  0  0  0  0
   59.2860   29.1180   47.5480 C   0  0  0  0  0  0  0  0  0  0  0  0
   59.1980   28.9800   48.9730 N   0  0  0  0  0  0  0  0  0  0  0  0
   58.8980   30.0180   49.9150 C   0  0  0  0  0  0  0  0  0  0  0  0
   57.7760   30.0140   50.4870 O   0  0  0  0  0  0  0  0  0  0  0  0
   59.8650   31.1270   50.2120 C   0  0  0  0  0  0  0  0  0  0  0  0
   60.6750   31.3750   49.0660 O   0  0  0  0  0  0  0  0  0  0  0  0
   60.3180   32.2340   48.0160 C   0  0  0  0  0  0  0  0  0  0  0  0
   61.2770   32.9760   47.2820 C   0  0  0  0  0  0  0  0  0  0  0  0
   60.8700   33.8230   46.2400 C   0  0  0  0  0  0  0  0  0  0  0  0
   59.5110   33.9210   45.9420 C   0  0  0  0  0  0  0  0  0  0  0  0
   58.5790   33.2070   46.6480 C   0  0  0  0  0  0  0  0  0  0  0  0
   58.9570   32.3560   47.6900 C   0  0  0  0  0  0  0  0  0  0  0  0
   57.2020   33.4590   46.1680 C   0  0  0  0  0  0  0  0  0  0  0  0
   57.3850   34.4670   45.0180 C   0  0  0  0  0  0  0  0  0  0  0  0
   58.8940   34.7550   44.8870 C   0  0  0  0  0  0  0  0  0  0  0  0
   58.1130   29.3460   46.8170 C   0  0  0  0  0  0  0  0  0  0  0  0
   57.8750   29.3280   42.6370 H   0  0  0  0  0  0  0  0  0  0  0  0
   56.7060   28.1560   42.9050 H   0  0  0  0  0  0  0  0  0  0  0  0
   59.4175   29.4075   43.6554 H   0  0  0  0  0  0  0  0  0  0  0  0
   61.5025   28.9407   44.9421 H   0  0  0  0  0  0  0  0  0  0  0  0
   61.4238   28.7391   47.4265 H   0  0  0  0  0  0  0  0  0  0  0  0
   59.3075   32.0393   50.4706 H   0  0  0  0  0  0  0  0  0  0  0  0
   60.5067   30.8356   51.0566 H   0  0  0  0  0  0  0  0  0  0  0  0
   62.3449   32.8875   47.5303 H   0  0  0  0  0  0  0  0  0  0  0  0
   61.6108   34.4004   45.6674 H   0  0  0  0  0  0  0  0  0  0  0  0
   58.1979   31.7884   48.2483 H   0  0  0  0  0  0  0  0  0  0  0  0
   56.7392   32.5301   45.8034 H   0  0  0  0  0  0  0  0  0  0  0  0
   56.5407   33.8380   46.9611 H   0  0  0  0  0  0  0  0  0  0  0  0
   57.0018   34.0394   44.0797 H   0  0  0  0  0  0  0  0  0  0  0  0
   56.8310   35.3945   45.2251 H   0  0  0  0  0  0  0  0  0  0  0  0
   59.2627   34.4633   43.8925 H   0  0  0  0  0  0  0  0  0  0  0  0
   59.1322   35.8231   44.9986 H   0  0  0  0  0  0  0  0  0  0  0  0
   57.1507   29.4339   47.3427 H   0  0  0  0  0  0  0  0  0  0  0  0
  1  2  1  0
  2  3  2  0
  2  4  2  0
  2  5  1  0
  5  6  2  0
  6  7  1  0
  7  8  2  0
  8  9  1  0
  9 10  1  0
 10 11  1  0
 11 12  2  0
 11 13  1  0
 13 14  1  0
 14 15  1  0
 15 16  2  0
 16 17  1  0
 17 18  2  0
 18 19  1  0
 19 20  2  0
 19 21  1  0
 21 22  1  0
 22 23  1  0
  9 24  2  0
 24  5  1  0
 20 15  1  0
 23 18  1  0
  1 25  1  0
  1 26  1  0
  6 27  1  0
  7 28  1  0
  8 29  1  0
 13 30  1  0
 13 31  1  0
 16 32  1  0
 17 33  1  0
 20 34  1  0
 21 35  1  0
 21 36  1  0
 22 37  1  0
 22 38  1  0
 23 39  1  0
 23 40  1  0
 24 41  1  0
M  CHG  1  10  -1
M  END
>  <UniqueID>  (83) 
74

>  <SMILES>  (83) 
NS(=O)(=O)c1cccc([N-]C(=O)COc2ccc3c(c2)CCC3)c1

>  <Energy>  (83) 
51.782307104172645

>  <Genealogy>  (83) 
NS(=O)(=O)c1cccc([N-]C(=O)COc2ccc3c(c2)CCC3)c1 (protonated)
NS(=O)(=O)c1cccc([N-]C(=O)COc2ccc3c(c2)CCC3)c1 (3D coordinates assigned)
NS(=O)(=O)c1cccc([N-]C(=O)COc2ccc3c(c2)CCC3)c1 (nonaromatic ring conformer: 51.782307104172645 kcal/mol)

>  <smiles>  (83) 
NS(=O)(=O)c1cccc(NC(=O)COc2ccc3c(c2)CCC3)c1

>  <score_type>  (83) 
oracle

>  <origin>  (83) 
adg

>  <m_score__min__energy>  (83) 
-10.99

>  <m_primary>  (83) 
energy

$$$$
83:0
     RDKit          3D

 33 32  0  0  0  0  0  0  0  0999 V2000
   56.9880   32.3260   45.0030 C   0  0  0  0  0  0  0  0  0  0  0  0
   57.1130   30.9150   44.3800 C   0  0  0  0  0  0  0  0  0  0  0  0
   57.7510   31.0650   42.9800 C   0  0  0  0  0  0  0  0  0  0  0  0
   55.6900   30.3140   44.1800 C   0  0  0  0  0  0  0  0  0  0  0  0
   55.4230   29.2790   45.0910 O   0  0  0  0  0  0  0  0  0  0  0  0
   58.0060   29.9440   45.2410 C   0  0  1  0  0  0  0  0  0  0  0  0
   57.4950   29.7280   46.5350 O   0  0  0  0  0  0  0  0  0  0  0  0
   58.3320   28.6240   44.5740 C   0  0  0  0  0  0  0  0  0  0  0  0
   59.3430   28.5540   43.8220 O   0  0  0  0  0  0  0  0  0  0  0  0
   57.5150   27.4590   44.7740 N   0  0  0  0  0  0  0  0  0  0  0  0
   57.7910   26.2120   44.0620 C   0  0  0  0  0  0  0  0  0  0  0  0
   57.1670   25.0020   44.7680 C   0  0  0  0  0  0  0  0  0  0  0  0
   56.3520   25.4470   46.3000 S   0  0  0  0  0  0  0  0  0  0  0  0
   54.9110   26.3500   45.9830 N   0  0  0  0  0  0  0  0  0  0  0  0
   57.2760   26.2620   47.1600 O   0  0  0  0  0  0  0  0  0  0  0  0
   55.9860   24.1880   47.0350 O   0  0  0  0  0  0  0  0  0  0  0  0
   56.9952   32.2444   46.0999 H   0  0  0  0  0  0  0  0  0  0  0  0
   57.8346   32.9475   44.6759 H   0  0  0  0  0  0  0  0  0  0  0  0
   56.0453   32.7890   44.6759 H   0  0  0  0  0  0  0  0  0  0  0  0
   58.8167   31.3155   43.0876 H   0  0  0  0  0  0  0  0  0  0  0  0
   57.6507   30.1188   42.4281 H   0  0  0  0  0  0  0  0  0  0  0  0
   57.2396   31.8674   42.4281 H   0  0  0  0  0  0  0  0  0  0  0  0
   54.9450   31.1111   44.3198 H   0  0  0  0  0  0  0  0  0  0  0  0
   55.6381   29.8944   43.1645 H   0  0  0  0  0  0  0  0  0  0  0  0
   55.5500   29.6520   46.0030 H   0  0  0  0  0  0  0  0  0  0  0  0
   58.9577   30.4882   45.3314 H   0  0  0  0  0  0  0  0  0  0  0  0
   57.0010   28.8720   46.5420 H   0  0  0  0  0  0  0  0  0  0  0  0
   56.7130   27.5050   45.4390 H   0  0  0  0  0  0  0  0  0  0  0  0
   57.3769   26.2835   43.0454 H   0  0  0  0  0  0  0  0  0  0  0  0
   58.8812   26.0676   44.0361 H   0  0  0  0  0  0  0  0  0  0  0  0
   56.4273   24.5437   44.0951 H   0  0  0  0  0  0  0  0  0  0  0  0
   57.9795   24.3020   45.0126 H   0  0  0  0  0  0  0  0  0  0  0  0
   55.1650   27.3630   46.0260 H   0  0  0  0  0  0  0  0  0  0  0  0
  1  2  1  0
  2  3  1  0
  2  4  1  0
  4  5  1  0
  2  6  1  0
  6  7  1  0
  6  8  1  0
  8  9  2  0
  8 10  1  0
 10 11  1  0
 11 12  1  0
 12 13  1  0
 13 14  1  0
 13 15  2  0
 13 16  2  0
  1 17  1  0
  1 18  1  0
  1 19  1  0
  3 20  1  0
  3 21  1  0
  3 22  1  0
  4 23  1  0
  4 24  1  0
  5 25  1  0
  6 26  1  1
  7 27  1  0
 10 28  1  0
 11 29  1  0
 11 30  1  0
 12 31  1  0
 12 32  1  0
 14 33  1  0
M  CHG  1  14  -1
M  END
>  <UniqueID>  (84) 
75

>  <SMILES>  (84) 
CC(C)(CO)[C@@H](O)C(=O)NCCS([NH-])(=O)=O

>  <Energy>  (84) 
20.631494196351422

>  <Genealogy>  (84) 
CC(C)(CO)C(O)C(=O)NCCS([NH-])(=O)=O (protonated)
CC(C)(CO)[C@@H](O)C(=O)NCCS([NH-])(=O)=O (chirality)
CC(C)(CO)[C@@H](O)C(=O)NCCS([NH-])(=O)=O (3D coordinates assigned)
CC(C)(CO)[C@@H](O)C(=O)NCCS([NH-])(=O)=O (optimized conformer: 20.631494196351422 kcal/mol)

>  <smiles>  (84) 
CC(C)(CO)C(O)C(=O)NCCS(N)(=O)=O

>  <score_type>  (84) 
oracle

>  <origin>  (84) 
adg

>  <m_score__min__energy>  (84) 
-9.1400000000000006

>  <m_primary>  (84) 
energy

$$$$
84:0
     RDKit          3D

 56 58  0  0  0  0  0  0  0  0999 V2000
   58.9230   34.4020   44.8850 C   0  0  0  0  0  0  0  0  0  0  0  0
   58.4030   33.7560   46.1670 C   0  0  0  0  0  0  0  0  0  0  0  0
   57.8220   32.3880   45.9150 C   0  0  0  0  0  0  0  0  0  0  0  0
   56.7860   32.2810   45.2040 O   0  0  0  0  0  0  0  0  0  0  0  0
   58.4860   31.1610   46.4270 C   0  0  0  0  0  0  0  0  0  0  0  0
   58.8820   31.0880   47.7750 C   0  0  0  0  0  0  0  0  0  0  0  0
   59.5250   29.9540   48.2690 C   0  0  0  0  0  0  0  0  0  0  0  0
   59.7770   28.8630   47.4320 C   0  0  0  0  0  0  0  0  0  0  0  0
   60.5070   27.6600   47.9540 C   0  0  0  0  0  0  0  0  0  0  0  0
   59.4050   28.9300   46.0820 C   0  0  0  0  0  0  0  0  0  0  0  0
   58.7550   30.0690   45.5690 C   0  0  0  0  0  0  0  0  0  0  0  0
   58.3520   30.1460   44.2220 O   0  0  0  0  0  0  0  0  0  0  0  0
   57.1950   29.5230   43.6630 C   0  0  0  0  0  0  0  0  0  0  0  0
   56.2500   29.0930   44.7410 C   0  0  0  0  0  0  0  0  0  0  0  0
   55.1530   29.6970   44.8840 O   0  0  0  0  0  0  0  0  0  0  0  0
   56.6160   28.0160   45.6120 N   0  0  0  0  0  0  0  0  0  0  0  0
   56.7190   26.6280   45.2610 C   0  0  0  0  0  0  0  0  0  0  0  0
   55.8280   25.7210   45.8470 C   0  0  0  0  0  0  0  0  0  0  0  0
   55.8960   24.3600   45.5350 C   0  0  0  0  0  0  0  0  0  0  0  0
   56.8670   23.8900   44.6420 C   0  0  0  0  0  0  0  0  0  0  0  0
   56.9270   22.1820   44.2160 S   0  0  0  0  0  0  0  0  0  0  0  0
   55.9080   21.9270   43.1410 O   0  0  0  0  0  0  0  0  0  0  0  0
   58.2860   21.8060   43.6920 O   0  0  0  0  0  0  0  0  0  0  0  0
   56.5450   21.1880   45.5900 N   0  0  0  0  0  0  0  0  0  0  0  0
   56.1080   21.5280   46.7720 C   0  0  0  0  0  0  0  0  0  0  0  0
   57.0130   21.5670   47.7870 N   0  0  0  0  0  0  0  0  0  0  0  0
   56.6680   21.8950   49.0580 C   0  0  0  0  0  0  0  0  0  0  0  0
   55.3430   22.2030   49.3450 C   0  0  0  0  0  0  0  0  0  0  0  0
   54.4240   22.1750   48.3490 N   0  0  0  0  0  0  0  0  0  0  0  0
   54.7560   21.8510   47.0670 C   0  0  0  0  0  0  0  0  0  0  0  0
   53.7650   21.8490   46.0840 O   0  0  0  0  0  0  0  0  0  0  0  0
   52.7590   22.8510   45.9880 C   0  0  0  0  0  0  0  0  0  0  0  0
   57.7850   24.7880   44.0820 C   0  0  0  0  0  0  0  0  0  0  0  0
   57.7160   26.1490   44.3920 C   0  0  0  0  0  0  0  0  0  0  0  0
   59.5939   35.2355   45.1404 H   0  0  0  0  0  0  0  0  0  0  0  0
   59.4745   33.6548   44.2955 H   0  0  0  0  0  0  0  0  0  0  0  0
   58.0752   34.7812   44.2955 H   0  0  0  0  0  0  0  0  0  0  0  0
   59.2352   33.6625   46.8803 H   0  0  0  0  0  0  0  0  0  0  0  0
   57.6037   34.3956   46.5695 H   0  0  0  0  0  0  0  0  0  0  0  0
   58.6819   31.9356   48.4470 H   0  0  0  0  0  0  0  0  0  0  0  0
   59.8359   29.9175   49.3235 H   0  0  0  0  0  0  0  0  0  0  0  0
   60.4982   27.6745   49.0539 H   0  0  0  0  0  0  0  0  0  0  0  0
   60.0111   26.7460   47.5954 H   0  0  0  0  0  0  0  0  0  0  0  0
   61.5467   27.6779   47.5954 H   0  0  0  0  0  0  0  0  0  0  0  0
   59.6235   28.0827   45.4155 H   0  0  0  0  0  0  0  0  0  0  0  0
   56.6851   30.2378   43.0004 H   0  0  0  0  0  0  0  0  0  0  0  0
   57.5116   28.6348   43.0966 H   0  0  0  0  0  0  0  0  0  0  0  0
   55.0696   26.0816   46.5575 H   0  0  0  0  0  0  0  0  0  0  0  0
   55.1848   23.6563   45.9922 H   0  0  0  0  0  0  0  0  0  0  0  0
   57.4285   21.9169   49.8524 H   0  0  0  0  0  0  0  0  0  0  0  0
   55.0434   22.4668   50.3700 H   0  0  0  0  0  0  0  0  0  0  0  0
   52.4502   23.1585   46.9980 H   0  0  0  0  0  0  0  0  0  0  0  0
   53.1584   23.7208   45.4459 H   0  0  0  0  0  0  0  0  0  0  0  0
   51.8908   22.4481   45.4459 H   0  0  0  0  0  0  0  0  0  0  0  0
   58.5626   24.4207   43.3961 H   0  0  0  0  0  0  0  0  0  0  0  0
   58.4440   26.8482   43.9548 H   0  0  0  0  0  0  0  0  0  0  0  0
  1  2  1  0
  2  3  1  0
  3  4  2  0
  3  5  1  0
  5  6  2  0
  6  7  1  0
  7  8  2  0
  8  9  1  0
  8 10  1  0
 10 11  2  0
 11 12  1  0
 12 13  1  0
 13 14  1  0
 14 15  2  0
 14 16  1  0
 16 17  1  0
 17 18  2  0
 18 19  1  0
 19 20  2  0
 20 21  1  0
 21 22  2  0
 21 23  2  0
 21 24  1  0
 24 25  2  3
 25 26  1  0
 26 27  1  0
 27 28  2  0
 28 29  1  0
 29 30  2  0
 30 31  1  0
 31 32  1  0
 20 33  1  0
 33 34  2  0
 11  5  1  0
 34 17  1  0
 30 25  1  0
  1 35  1  0
  1 36  1  0
  1 37  1  0
  2 38  1  0
  2 39  1  0
  6 40  1  0
  7 41  1  0
  9 42  1  0
  9 43  1  0
  9 44  1  0
 10 45  1  0
 13 46  1  0
 13 47  1  0
 18 48  1  0
 19 49  1  0
 27 50  1  0
 28 51  1  0
 32 52  1  0
 32 53  1  0
 32 54  1  0
 33 55  1  0
 34 56  1  0
M  CHG  2  16  -1  26  -1
M  END
>  <UniqueID>  (85) 
76

>  <SMILES>  (85) 
CCC(=O)c1ccc(C)cc1OCC(=O)[N-]c1ccc(S(=O)(=O)N=c2[n-]ccnc2OC)cc1

>  <Energy>  (85) 
69.35233903432164

>  <Genealogy>  (85) 
CCC(=O)c1ccc(C)cc1OCC(=O)[N-]c1ccc(S(=O)(=O)N=c2[n-]ccnc2OC)cc1 (protonated)
CCC(=O)c1ccc(C)cc1OCC(=O)[N-]c1ccc(S(=O)(=O)N=c2[n-]ccnc2OC)cc1 (3D coordinates assigned)
CCC(=O)c1ccc(C)cc1OCC(=O)[N-]c1ccc(S(=O)(=O)N=c2[n-]ccnc2OC)cc1 (optimized conformer: 69.35233903432164 kcal/mol)

>  <smiles>  (85) 
CCC(=O)c1ccc(C)cc1OCC(=O)Nc1ccc(S(=O)(=O)N=c2[nH]ccnc2OC)cc1

>  <score_type>  (85) 
oracle

>  <origin>  (85) 
adg

>  <m_score__min__energy>  (85) 
-11.07

>  <m_primary>  (85) 
energy

$$$$
85:0
     RDKit          3D

 15 15  0  0  0  0  0  0  0  0999 V2000
   52.5840   28.2060   53.4610 C   0  0  0  0  0  0  0  0  0  0  0  0
   52.8170   29.0050   52.2620 N   0  0  0  0  0  0  0  0  0  0  0  0
   52.1770   30.2660   52.0080 C   0  0  0  0  0  0  0  0  0  0  0  0
   51.9020   30.7090   50.7030 C   0  0  0  0  0  0  0  0  0  0  0  0
   51.2780   31.9470   50.5360 C   0  0  0  0  0  0  0  0  0  0  0  0
   51.0170   32.3740   49.3810 O   0  0  0  0  0  0  0  0  0  0  0  0
   50.9510   32.6940   51.6210 N   0  0  0  0  0  0  0  0  0  0  0  0
   51.2220   32.2540   52.8770 C   0  0  0  0  0  0  0  0  0  0  0  0
   50.9110   32.9600   53.8710 O   0  0  0  0  0  0  0  0  0  0  0  0
   51.8290   31.0530   53.0610 N   0  0  0  0  0  0  0  0  0  0  0  0
   52.7640   28.8232   54.3536 H   0  0  0  0  0  0  0  0  0  0  0  0
   51.5440   27.8478   53.4665 H   0  0  0  0  0  0  0  0  0  0  0  0
   53.2684   27.3449   53.4665 H   0  0  0  0  0  0  0  0  0  0  0  0
   53.4900   28.6380   51.5510 H   0  0  0  0  0  0  0  0  0  0  0  0
   52.1724   30.0939   49.8320 H   0  0  0  0  0  0  0  0  0  0  0  0
  1  2  1  0
  2  3  1  0
  3  4  2  0
  4  5  1  0
  5  6  2  0
  5  7  1  0
  7  8  1  0
  8  9  2  0
  8 10  1  0
 10  3  1  0
  1 11  1  0
  1 12  1  0
  1 13  1  0
  2 14  1  0
  4 15  1  0
M  CHG  2   7  -1  10  -1
M  END
>  <UniqueID>  (86) 
77

>  <SMILES>  (86) 
CNc1cc(=O)[n-]c(=O)[n-]1

>  <Energy>  (86) 
12.90614078072301

>  <Genealogy>  (86) 
CNc1cc(=O)[n-]c(=O)[n-]1 (protonated)
CNc1cc(=O)[n-]c(=O)[n-]1 (3D coordinates assigned)
CNc1cc(=O)[n-]c(=O)[n-]1 (optimized conformer: 12.90614078072301 kcal/mol)

>  <smiles>  (86) 
CNc1cc(=O)[nH]c(=O)[nH]1

>  <score_type>  (86) 
oracle

>  <origin>  (86) 
adg

>  <m_score__min__energy>  (86) 
-9.9299999999999997

>  <m_primary>  (86) 
energy

$$$$
86:0
     RDKit          3D

 38 40  0  0  1  0  0  0  0  0999 V2000
   59.8990   22.9610   45.2280 N   0  0  0  0  0  0  0  0  0  0  0  0
   58.6560   22.6460   44.6150 C   0  0  0  0  0  0  0  0  0  0  0  0
   58.4510   21.4690   44.0120 N   0  0  0  0  0  0  0  0  0  0  0  0
   57.2400   21.2140   43.4370 C   0  0  0  0  0  0  0  0  0  0  0  0
   56.2500   22.1210   43.4630 N   0  0  0  0  0  0  0  0  0  0  0  0
   56.4360   23.3100   44.0640 C   0  0  0  0  0  0  0  0  0  0  0  0
   55.4490   24.1480   44.0680 N   0  0  0  0  0  0  0  0  0  0  0  0
   54.7270   24.4310   45.2780 C   0  0  0  0  0  0  0  0  0  0  0  0
   54.7720   25.5530   45.8450 O   0  0  0  0  0  0  0  0  0  0  0  0
   53.9100   23.3440   45.8540 C   0  0  0  0  0  0  0  0  0  0  0  0
   54.0520   22.7470   47.0900 C   0  0  0  0  0  0  0  0  0  0  0  0
   53.0690   21.7720   47.2230 C   0  0  0  0  0  0  0  0  0  0  0  0
   52.3640   21.8260   46.0370 C   0  0  0  0  0  0  0  0  0  0  0  0
   52.8900   22.7540   45.2740 O   0  0  0  0  0  0  0  0  0  0  0  0
   57.6520   23.5870   44.6520 C   0  0  0  0  0  0  0  0  0  0  0  0
   57.8480   24.8800   45.3070 C   0  0  0  0  0  0  0  0  0  0  0  0
   58.2670   24.8900   46.6220 C   0  0  0  0  0  0  0  0  0  0  0  0
   58.4700   26.0920   47.2850 C   0  0  0  0  0  0  0  0  0  0  0  0
   58.2570   27.3040   46.6480 C   0  0  0  0  0  0  0  0  0  0  0  0
   58.5200   28.8150   47.5100 Cl  0  0  0  0  0  0  0  0  0  0  0  0
   57.8370   27.2920   45.3290 C   0  0  0  0  0  0  0  0  0  0  0  0
   57.5760   28.8190   44.5340 S   0  0  0  0  0  0  0  0  0  0  0  0
   57.0960   28.6060   42.8910 N   0  0  0  0  0  0  0  0  0  0  0  0
   58.8500   29.6140   44.5410 O   0  0  0  0  0  0  0  0  0  0  0  0
   56.4670   29.5720   45.2350 O   0  0  0  0  0  0  0  0  0  0  0  0
   57.6320   26.0860   44.6590 C   0  0  0  0  0  0  0  0  0  0  0  0
   59.9920   23.6360   45.9920 H   0  0  0  0  0  0  0  0  0  0  0  0
   60.7620   22.4800   44.8850 H   0  0  0  0  0  0  0  0  0  0  0  0
   59.1910   20.7340   43.9670 H   0  0  0  0  0  0  0  0  0  0  0  0
   57.0714   20.2461   42.9423 H   0  0  0  0  0  0  0  0  0  0  0  0
   54.8135   22.9994   47.8425 H   0  0  0  0  0  0  0  0  0  0  0  0
   52.8927   21.1067   48.0811 H   0  0  0  0  0  0  0  0  0  0  0  0
   51.5024   21.1943   45.7751 H   0  0  0  0  0  0  0  0  0  0  0  0
   58.4410   23.9395   47.1476 H   0  0  0  0  0  0  0  0  0  0  0  0
   58.8053   26.0825   48.3326 H   0  0  0  0  0  0  0  0  0  0  0  0
   56.7100   27.6740   42.6780 H   0  0  0  0  0  0  0  0  0  0  0  0
   57.7260   29.0250   42.2040 H   0  0  0  0  0  0  0  0  0  0  0  0
   57.2973   26.0920   43.6112 H   0  0  0  0  0  0  0  0  0  0  0  0
  1  2  1  0
  2  3  1  0
  3  4  1  0
  4  5  2  0
  5  6  1  0
  6  7  2  0
  7  8  1  0
  8  9  2  0
  8 10  1  0
 10 11  2  0
 11 12  1  0
 12 13  2  0
 13 14  1  0
  6 15  1  0
 15 16  1  0
 16 17  2  0
 17 18  1  0
 18 19  2  0
 19 20  1  0
 19 21  1  0
 21 22  1  0
 22 23  1  0
 22 24  2  0
 22 25  2  0
 21 26  2  0
 15  2  2  0
 26 16  1  0
 14 10  1  0
  1 27  1  0
  1 28  1  0
  3 29  1  0
  4 30  1  0
 11 31  1  0
 12 32  1  0
 13 33  1  0
 17 34  1  0
 18 35  1  0
 23 36  1  0
 23 37  1  0
 26 38  1  0
M  END
>  <smiles>  (87) 
Nc1[nH]cnc(=NC(=O)c2ccco2)c1-c1ccc(Cl)c(S(N)(=O)=O)c1

>  <score_type>  (87) 
oracle

>  <origin>  (87) 
adg

>  <m_score__min__energy>  (87) 
-8.7400000000000002

>  <m_primary>  (87) 
energy

$$$$
87:0
     RDKit          3D

 47 49  0  0  0  0  0  0  0  0999 V2000
   63.3170   33.8760   46.0850 C   0  0  0  0  0  0  0  0  0  0  0  0
   62.9790   32.8360   47.4900 S   0  0  0  0  0  0  0  0  0  0  0  0
   63.7740   33.3350   48.6620 O   0  0  0  0  0  0  0  0  0  0  0  0
   63.3820   31.4160   47.2030 O   0  0  0  0  0  0  0  0  0  0  0  0
   61.2930   32.9070   47.8910 N   0  0  0  0  0  0  0  0  0  0  0  0
   60.2150   33.1400   46.9720 C   0  0  0  0  0  0  0  0  0  0  0  0
   60.0460   34.3750   46.3200 C   0  0  0  0  0  0  0  0  0  0  0  0
   58.9960   34.5580   45.4190 C   0  0  0  0  0  0  0  0  0  0  0  0
   58.1000   33.5200   45.1640 C   0  0  0  0  0  0  0  0  0  0  0  0
   58.2380   32.2920   45.8230 C   0  0  0  0  0  0  0  0  0  0  0  0
   57.3290   31.2160   45.5570 N   0  0  0  0  0  0  0  0  0  0  0  0
   57.6590   29.9980   44.8800 C   0  0  0  0  0  0  0  0  0  0  0  0
   58.8370   29.8420   44.4630 O   0  0  0  0  0  0  0  0  0  0  0  0
   56.6920   28.8390   44.8270 C   0  0  0  0  0  0  0  0  0  0  0  0
   57.2710   27.5910   45.4560 C   0  0  0  0  0  0  0  0  0  0  0  0
   58.6680   27.4320   45.5130 C   0  0  0  0  0  0  0  0  0  0  0  0
   59.2280   26.2810   46.0750 C   0  0  0  0  0  0  0  0  0  0  0  0
   58.4010   25.2800   46.5900 C   0  0  0  0  0  0  0  0  0  0  0  0
   57.0140   25.4300   46.5480 C   0  0  0  0  0  0  0  0  0  0  0  0
   56.4440   26.5800   45.9880 C   0  0  0  0  0  0  0  0  0  0  0  0
   55.0600   26.7100   45.9790 O   0  0  0  0  0  0  0  0  0  0  0  0
   59.3110   32.0930   46.7090 C   0  0  0  0  0  0  0  0  0  0  0  0
   59.4640   30.8340   47.3720 N   0  0  0  0  0  0  0  0  0  0  0  0
   58.6030   30.3990   48.4530 C   0  0  0  0  0  0  0  0  0  0  0  0
   58.9980   28.9520   48.7210 C   0  0  0  0  0  0  0  0  0  0  0  0
   60.3550   28.7530   48.0450 C   0  0  0  0  0  0  0  0  0  0  0  0
   60.4710   29.8590   47.0040 C   0  0  0  0  0  0  0  0  0  0  0  0
   63.6396   34.8685   46.4326 H   0  0  0  0  0  0  0  0  0  0  0  0
   64.1143   33.4234   45.4771 H   0  0  0  0  0  0  0  0  0  0  0  0
   62.4060   33.9786   45.4771 H   0  0  0  0  0  0  0  0  0  0  0  0
   60.7447   35.2004   46.5213 H   0  0  0  0  0  0  0  0  0  0  0  0
   58.8746   35.5245   44.9080 H   0  0  0  0  0  0  0  0  0  0  0  0
   57.2823   33.6664   44.4429 H   0  0  0  0  0  0  0  0  0  0  0  0
   55.7747   29.1164   45.3670 H   0  0  0  0  0  0  0  0  0  0  0  0
   56.4798   28.6206   43.7700 H   0  0  0  0  0  0  0  0  0  0  0  0
   59.3240   28.2189   45.1125 H   0  0  0  0  0  0  0  0  0  0  0  0
   60.3211   26.1635   46.1117 H   0  0  0  0  0  0  0  0  0  0  0  0
   58.8430   24.3733   47.0288 H   0  0  0  0  0  0  0  0  0  0  0  0
   56.3655   24.6411   46.9567 H   0  0  0  0  0  0  0  0  0  0  0  0
   58.7671   31.0159   49.3489 H   0  0  0  0  0  0  0  0  0  0  0  0
   57.5382   30.4931   48.1937 H   0  0  0  0  0  0  0  0  0  0  0  0
   59.0802   28.7725   49.8031 H   0  0  0  0  0  0  0  0  0  0  0  0
   58.2465   28.2503   48.3300 H   0  0  0  0  0  0  0  0  0  0  0  0
   61.1659   28.8365   48.7835 H   0  0  0  0  0  0  0  0  0  0  0  0
   60.4342   27.7568   47.5853 H   0  0  0  0  0  0  0  0  0  0  0  0
   61.4736   30.3108   47.0312 H   0  0  0  0  0  0  0  0  0  0  0  0
   60.3219   29.4794   45.9824 H   0  0  0  0  0  0  0  0  0  0  0  0
  1  2  1  0
  2  3  2  0
  2  4  2  0
  2  5  1  0
  5  6  1  0
  6  7  2  0
  7  8  1  0
  8  9  2  0
  9 10  1  0
 10 11  1  0
 11 12  1  0
 12 13  2  0
 12 14  1  0
 14 15  1  0
 15 16  2  0
 16 17  1  0
 17 18  2  0
 18 19  1  0
 19 20  2  0
 20 21  1  0
 10 22  2  0
 22 23  1  0
 23 24  1  0
 24 25  1  0
 25 26  1  0
 26 27  1  0
 22  6  1  0
 27 23  1  0
 20 15  1  0
  1 28  1  0
  1 29  1  0
  1 30  1  0
  7 31  1  0
  8 32  1  0
  9 33  1  0
 14 34  1  0
 14 35  1  0
 16 36  1  0
 17 37  1  0
 18 38  1  0
 19 39  1  0
 24 40  1  0
 24 41  1  0
 25 42  1  0
 25 43  1  0
 26 44  1  0
 26 45  1  0
 27 46  1  0
 27 47  1  0
M  CHG  3   5  -1  11  -1  21  -1
M  END
>  <UniqueID>  (88) 
78

>  <SMILES>  (88) 
CS(=O)(=O)[N-]c1cccc([N-]C(=O)Cc2ccccc2[O-])c1N1CCCC1

>  <Energy>  (88) 
59.245643396745834

>  <Genealogy>  (88) 
CS(=O)(=O)[N-]c1cccc([N-]C(=O)Cc2ccccc2[O-])c1N1CCCC1 (protonated)
CS(=O)(=O)[N-]c1cccc([N-]C(=O)Cc2ccccc2[O-])c1N1CCCC1 (3D coordinates assigned)
CS(=O)(=O)[N-]c1cccc([N-]C(=O)Cc2ccccc2[O-])c1N1CCCC1 (nonaromatic ring conformer: 59.245643396745834 kcal/mol)

>  <smiles>  (88) 
CS(=O)(=O)Nc1cccc(NC(=O)Cc2ccccc2O)c1N1CCCC1

>  <score_type>  (88) 
oracle

>  <origin>  (88) 
adg

>  <m_score__min__energy>  (88) 
-14.44

>  <m_primary>  (88) 
energy

$$$$
88:0
     RDKit          3D

 23 24  0  0  0  0  0  0  0  0999 V2000
   59.8830   35.5250   47.0349 H   0  0  0  0  0  0  0  0  0  0  0  0
   59.2820   34.7290   46.5710 C   0  0  0  0  0  0  0  0  0  0  0  0
   58.6280   33.7890   47.3730 C   0  0  0  0  0  0  0  0  0  0  0  0
   58.7156   33.8452   48.4681 H   0  0  0  0  0  0  0  0  0  0  0  0
   57.8630   32.7780   46.7850 C   0  0  0  0  0  0  0  0  0  0  0  0
   57.3492   32.0412   47.4199 H   0  0  0  0  0  0  0  0  0  0  0  0
   57.7470   32.6980   45.3910 C   0  0  0  0  0  0  0  0  0  0  0  0
   56.9560   31.6480   44.8200 N   0  0  0  0  0  0  0  0  0  0  0  0
   57.4800   30.6060   44.3110 N   0  0  0  0  0  0  0  0  0  0  0  0
   57.5500   29.3490   45.0030 C   0  0  0  0  0  0  0  0  0  0  0  0
   56.4150   28.5590   45.2800 C   0  0  0  0  0  0  0  0  0  0  0  0
   55.1440   28.9670   44.8900 O   0  0  0  0  0  0  0  0  0  0  0  0
   56.5580   27.3780   45.9400 N   0  0  0  0  0  0  0  0  0  0  0  0
   55.7110   26.7980   46.1410 H   0  0  0  0  0  0  0  0  0  0  0  0
   57.7820   26.9410   46.3380 C   0  0  0  0  0  0  0  0  0  0  0  0
   57.8960   25.8460   46.9480 O   0  0  0  0  0  0  0  0  0  0  0  0
   58.8860   27.6860   46.0810 N   0  0  0  0  0  0  0  0  0  0  0  0
   58.7970   28.8720   45.4260 C   0  0  0  0  0  0  0  0  0  0  0  0
   59.8440   29.5370   45.2040 O   0  0  0  0  0  0  0  0  0  0  0  0
   58.4080   33.6460   44.5880 C   0  0  0  0  0  0  0  0  0  0  0  0
   58.3236   33.5918   43.4926 H   0  0  0  0  0  0  0  0  0  0  0  0
   59.1720   34.6570   45.1800 C   0  0  0  0  0  0  0  0  0  0  0  0
   59.6871   35.3966   44.5494 H   0  0  0  0  0  0  0  0  0  0  0  0
  1  2  1  0
  2  3  2  0
  3  4  1  0
  3  5  1  0
  5  6  1  0
  5  7  2  0
  7  8  1  0
  8  9  2  0
  9 10  1  0
 10 11  2  0
 11 12  1  0
 11 13  1  0
 13 14  1  0
 13 15  1  0
 15 16  2  0
 15 17  1  0
 17 18  1  0
 18 19  2  0
  7 20  1  0
 20 21  1  0
 20 22  2  0
 22 23  1  0
 22  2  1  0
 18 10  1  0
M  CHG  2  12  -1  17  -1
M  END
>  <UniqueID>  (89) 
79

>  <SMILES>  (89) 
O=c1[n-]c(=O)c(/N=N/c2ccccc2)c([O-])[nH]1

>  <Energy>  (89) 
26.88775590554141

>  <Genealogy>  (89) 
O=c1[n-]c(=O)c(N=Nc2ccccc2)c([O-])[nH]1 (protonated)
O=c1[n-]c(=O)c(/N=N/c2ccccc2)c([O-])[nH]1 (cis-trans isomerization)
O=c1[n-]c(=O)c(/N=N/c2ccccc2)c([O-])[nH]1 (3D coordinates assigned)
O=c1[n-]c(=O)c(/N=N/c2ccccc2)c([O-])[nH]1 (optimized conformer: 26.88775590554141 kcal/mol)

>  <smiles>  (89) 
O=c1[nH]c(O)c(N=Nc2ccccc2)c(=O)[nH]1

>  <score_type>  (89) 
oracle

>  <origin>  (89) 
adg

>  <m_score__min__energy>  (89) 
-11.699999999999999

>  <m_primary>  (89) 
energy

$$$$
89:0
     RDKit          3D

 34 36  0  0  0  0  0  0  0  0999 V2000
   59.2720   28.8840   52.1370 O   0  0  0  0  0  0  0  0  0  0  0  0
   58.9480   28.1800   53.1330 C   0  0  0  0  0  0  0  0  0  0  0  0
   59.9320   27.3860   53.8040 N   0  0  0  0  0  0  0  0  0  0  0  0
   61.0870   26.7950   53.1930 C   0  0  0  0  0  0  0  0  0  0  0  0
   62.2650   27.5510   53.1120 C   0  0  0  0  0  0  0  0  0  0  0  0
   63.4090   27.0180   52.5120 C   0  0  0  0  0  0  0  0  0  0  0  0
   63.3800   25.7300   51.9690 C   0  0  0  0  0  0  0  0  0  0  0  0
   64.4880   25.2160   51.3840 F   0  0  0  0  0  0  0  0  0  0  0  0
   62.2010   24.9810   52.0170 C   0  0  0  0  0  0  0  0  0  0  0  0
   61.0530   25.5090   52.6170 C   0  0  0  0  0  0  0  0  0  0  0  0
   59.9040   24.7880   52.5790 F   0  0  0  0  0  0  0  0  0  0  0  0
   57.5780   28.0940   53.5460 N   0  0  0  0  0  0  0  0  0  0  0  0
   56.5410   28.9800   53.0920 C   0  0  0  0  0  0  0  0  0  0  0  0
   56.8940   30.2010   52.4990 C   0  0  0  0  0  0  0  0  0  0  0  0
   55.9110   31.0750   52.0320 C   0  0  0  0  0  0  0  0  0  0  0  0
   54.5590   30.7330   52.1370 C   0  0  0  0  0  0  0  0  0  0  0  0
   53.6100   31.5910   51.6780 N   0  0  0  0  0  0  0  0  0  0  0  0
   52.2820   31.3080   51.7470 C   0  0  0  0  0  0  0  0  0  0  0  0
   51.3060   32.2830   51.2320 C   0  0  0  0  0  0  0  0  0  0  0  0
   51.4040   32.7100   50.0520 O   0  0  0  0  0  0  0  0  0  0  0  0
   50.2680   32.7400   52.0360 O   0  0  0  0  0  0  0  0  0  0  0  0
   51.8630   30.0920   52.3050 C   0  0  0  0  0  0  0  0  0  0  0  0
   52.8090   29.1830   52.7890 C   0  0  0  0  0  0  0  0  0  0  0  0
   52.2270   27.6710   53.4840 Cl  0  0  0  0  0  0  0  0  0  0  0  0
   54.1820   29.4970   52.7100 C   0  0  0  0  0  0  0  0  0  0  0  0
   55.1830   28.6230   53.1770 C   0  0  0  0  0  0  0  0  0  0  0  0
   62.2889   28.5708   53.5236 H   0  0  0  0  0  0  0  0  0  0  0  0
   64.3334   27.6125   52.4669 H   0  0  0  0  0  0  0  0  0  0  0  0
   62.1757   23.9715   51.5809 H   0  0  0  0  0  0  0  0  0  0  0  0
   57.3100   27.2910   54.1590 H   0  0  0  0  0  0  0  0  0  0  0  0
   57.9555   30.4724   52.4010 H   0  0  0  0  0  0  0  0  0  0  0  0
   56.2005   32.0353   51.5802 H   0  0  0  0  0  0  0  0  0  0  0  0
   50.7908   29.8531   52.3620 H   0  0  0  0  0  0  0  0  0  0  0  0
   54.9004   27.6530   53.6119 H   0  0  0  0  0  0  0  0  0  0  0  0
  1  2  2  0
  2  3  1  0
  3  4  1  0
  4  5  2  0
  5  6  1  0
  6  7  2  0
  7  8  1  0
  7  9  1  0
  9 10  2  0
 10 11  1  0
  2 12  1  0
 12 13  1  0
 13 14  2  0
 14 15  1  0
 15 16  2  0
 16 17  1  0
 17 18  2  0
 18 19  1  0
 19 20  2  0
 19 21  1  0
 18 22  1  0
 22 23  2  0
 23 24  1  0
 23 25  1  0
 25 26  2  0
 10  4  1  0
 26 13  1  0
 25 16  1  0
  5 27  1  0
  6 28  1  0
  9 29  1  0
 12 30  1  0
 14 31  1  0
 15 32  1  0
 22 33  1  0
 26 34  1  0
M  CHG  2   3  -1  21  -1
M  END
>  <UniqueID>  (90) 
80

>  <SMILES>  (90) 
O=C([N-]c1ccc(F)cc1F)Nc1ccc2nc(C(=O)[O-])cc(Cl)c2c1

>  <Energy>  (90) 
49.5477301056785

>  <Genealogy>  (90) 
O=C([N-]c1ccc(F)cc1F)Nc1ccc2nc(C(=O)[O-])cc(Cl)c2c1 (protonated)
O=C([N-]c1ccc(F)cc1F)Nc1ccc2nc(C(=O)[O-])cc(Cl)c2c1 (3D coordinates assigned)
O=C([N-]c1ccc(F)cc1F)Nc1ccc2nc(C(=O)[O-])cc(Cl)c2c1 (optimized conformer: 49.5477301056785 kcal/mol)

>  <smiles>  (90) 
O=C(Nc1ccc2nc(C(=O)O)cc(Cl)c2c1)Nc1ccc(F)cc1F

>  <score_type>  (90) 
oracle

>  <origin>  (90) 
adg

>  <m_score__min__energy>  (90) 
-10.550000000000001

>  <m_primary>  (90) 
energy

$$$$
90:0
     RDKit          3D

 69 73  0  0  0  0  0  0  0  0999 V2000
   55.3430   29.6990   43.7390 C   0  0  0  0  0  0  0  0  0  0  0  0
   56.1380   30.9400   44.1400 C   0  0  0  0  0  0  0  0  0  0  0  0
   57.6470   30.7030   44.0040 C   0  0  0  0  0  0  0  0  0  0  0  0
   58.2920   30.7380   45.3300 N   0  0  0  0  0  0  0  0  0  0  0  0
   58.1750   29.6560   46.1750 C   0  0  0  0  0  0  0  0  0  0  0  0
   57.5230   28.6280   45.8410 O   0  0  0  0  0  0  0  0  0  0  0  0
   58.7940   29.7180   47.4100 C   0  0  0  0  0  0  0  0  0  0  0  0
   58.8440   28.7880   48.3750 N   0  0  0  0  0  0  0  0  0  0  0  0
   59.6020   29.3980   49.3270 C   0  0  0  0  0  0  0  0  0  0  0  0
   59.9520   28.7360   50.5970 C   0  0  0  0  0  0  0  0  0  0  0  0
   60.7870   27.6350   50.7000 C   0  0  0  0  0  0  0  0  0  0  0  0
   60.9800   27.3210   51.9960 N   0  0  0  0  0  0  0  0  0  0  0  0
   61.7360   26.1840   52.5010 C   0  0  0  0  0  0  0  0  0  0  0  0
   60.2720   28.1910   52.7380 C   0  0  0  0  0  0  0  0  0  0  0  0
   59.6210   29.0860   51.9060 C   0  0  0  0  0  0  0  0  0  0  0  0
   58.7770   30.1650   52.3560 N   0  0  0  0  0  0  0  0  0  0  0  0
   58.4300   30.2450   53.7790 C   0  0  0  0  0  0  0  0  0  0  0  0
   57.0070   29.7160   53.9870 C   0  0  0  0  0  0  0  0  0  0  0  0
   56.1080   30.1800   52.9210 N   0  0  0  0  0  0  0  0  0  0  0  0
   54.8180   29.5680   52.7650 C   0  0  0  0  0  0  0  0  0  0  0  0
   54.7230   28.3100   52.8000 O   0  0  0  0  0  0  0  0  0  0  0  0
   53.6040   30.3850   52.5630 C   0  0  0  0  0  0  0  0  0  0  0  0
   53.2990   30.9050   51.2920 C   0  0  0  0  0  0  0  0  0  0  0  0
   52.1660   31.7080   51.1110 C   0  0  0  0  0  0  0  0  0  0  0  0
   51.3190   31.9810   52.1910 C   0  0  0  0  0  0  0  0  0  0  0  0
   50.2020   32.7890   52.0130 O   0  0  0  0  0  0  0  0  0  0  0  0
   51.6000   31.4400   53.4500 C   0  0  0  0  0  0  0  0  0  0  0  0
   52.7410   30.6580   53.6390 C   0  0  0  0  0  0  0  0  0  0  0  0
   56.5490   31.2310   51.9930 C   0  0  0  0  0  0  0  0  0  0  0  0
   57.9200   30.8770   51.3870 C   0  0  0  0  0  0  0  0  0  0  0  0
   60.0140   30.6470   48.9950 N   0  0  0  0  0  0  0  0  0  0  0  0
   59.4750   30.8170   47.7790 C   0  0  0  0  0  0  0  0  0  0  0  0
   59.5650   31.9220   46.9920 N   0  0  0  0  0  0  0  0  0  0  0  0
   60.2950   33.1110   47.4660 C   0  0  0  0  0  0  0  0  0  0  0  0
   59.3350   34.2910   47.6480 C   0  0  0  0  0  0  0  0  0  0  0  0
   59.5780   35.3630   46.5900 C   0  0  0  0  0  0  0  0  0  0  0  0
   58.9740   31.8740   45.7460 C   0  0  0  0  0  0  0  0  0  0  0  0
   59.0520   32.8740   44.9770 O   0  0  0  0  0  0  0  0  0  0  0  0
   55.0053   29.1718   44.6434 H   0  0  0  0  0  0  0  0  0  0  0  0
   54.4693   30.0002   43.1424 H   0  0  0  0  0  0  0  0  0  0  0  0
   55.9819   29.0312   43.1424 H   0  0  0  0  0  0  0  0  0  0  0  0
   55.8468   31.7778   43.4894 H   0  0  0  0  0  0  0  0  0  0  0  0
   55.9160   31.1694   45.1927 H   0  0  0  0  0  0  0  0  0  0  0  0
   57.8198   29.7197   43.5422 H   0  0  0  0  0  0  0  0  0  0  0  0
   58.0785   31.4956   43.3751 H   0  0  0  0  0  0  0  0  0  0  0  0
   61.2278   27.0962   49.8483 H   0  0  0  0  0  0  0  0  0  0  0  0
   61.7272   26.1972   53.6009 H   0  0  0  0  0  0  0  0  0  0  0  0
   61.2781   25.2505   52.1418 H   0  0  0  0  0  0  0  0  0  0  0  0
   62.7739   26.2451   52.1418 H   0  0  0  0  0  0  0  0  0  0  0  0
   60.2184   28.1915   53.8367 H   0  0  0  0  0  0  0  0  0  0  0  0
   59.1364   29.6374   54.3636 H   0  0  0  0  0  0  0  0  0  0  0  0
   58.4849   31.2919   54.1120 H   0  0  0  0  0  0  0  0  0  0  0  0
   57.0289   28.6162   53.9849 H   0  0  0  0  0  0  0  0  0  0  0  0
   56.6314   30.0939   54.9494 H   0  0  0  0  0  0  0  0  0  0  0  0
   53.9531   30.6800   50.4367 H   0  0  0  0  0  0  0  0  0  0  0  0
   51.9415   32.1249   50.1181 H   0  0  0  0  0  0  0  0  0  0  0  0
   50.9202   31.6312   54.2934 H   0  0  0  0  0  0  0  0  0  0  0  0
   52.9664   30.2527   54.6365 H   0  0  0  0  0  0  0  0  0  0  0  0
   55.8109   31.3319   51.1836 H   0  0  0  0  0  0  0  0  0  0  0  0
   56.6387   32.1779   52.5456 H   0  0  0  0  0  0  0  0  0  0  0  0
   57.7660   30.2344   50.5076 H   0  0  0  0  0  0  0  0  0  0  0  0
   58.4237   31.8139   51.1068 H   0  0  0  0  0  0  0  0  0  0  0  0
   60.7740   32.8818   48.4293 H   0  0  0  0  0  0  0  0  0  0  0  0
   61.0563   33.3827   46.7199 H   0  0  0  0  0  0  0  0  0  0  0  0
   58.2999   33.9289   47.5619 H   0  0  0  0  0  0  0  0  0  0  0  0
   59.5079   34.7330   48.6403 H   0  0  0  0  0  0  0  0  0  0  0  0
   59.7954   36.3220   47.0829 H   0  0  0  0  0  0  0  0  0  0  0  0
   60.4328   35.0714   45.9621 H   0  0  0  0  0  0  0  0  0  0  0  0
   58.6810   35.4685   45.9621 H   0  0  0  0  0  0  0  0  0  0  0  0
  1  2  1  0
  2  3  1  0
  3  4  1  0
  4  5  1  0
  5  6  2  0
  5  7  1  0
  7  8  1  0
  8  9  1  0
  9 10  1  0
 10 11  2  0
 11 12  1  0
 12 13  1  0
 12 14  1  0
 14 15  2  0
 15 16  1  0
 16 17  1  0
 17 18  1  0
 18 19  1  0
 19 20  1  0
 20 21  2  0
 20 22  1  0
 22 23  2  0
 23 24  1  0
 24 25  2  0
 25 26  1  0
 25 27  1  0
 27 28  2  0
 19 29  1  0
 29 30  1  0
  9 31  2  0
 31 32  1  0
 32 33  1  0
 33 34  1  0
 34 35  1  0
 35 36  1  0
 33 37  1  0
 37 38  2  0
 37  4  1  0
 32  7  2  0
 15 10  1  0
 30 16  1  0
 28 22  1  0
  1 39  1  0
  1 40  1  0
  1 41  1  0
  2 42  1  0
  2 43  1  0
  3 44  1  0
  3 45  1  0
 11 46  1  0
 13 47  1  0
 13 48  1  0
 13 49  1  0
 14 50  1  0
 17 51  1  0
 17 52  1  0
 18 53  1  0
 18 54  1  0
 23 55  1  0
 24 56  1  0
 27 57  1  0
 28 58  1  0
 29 59  1  0
 29 60  1  0
 30 61  1  0
 30 62  1  0
 34 63  1  0
 34 64  1  0
 35 65  1  0
 35 66  1  0
 36 67  1  0
 36 68  1  0
 36 69  1  0
M  CHG  2   8  -1  26  -1
M  END
>  <UniqueID>  (91) 
81

>  <SMILES>  (91) 
CCCn1c(=O)c2[n-]c(-c3cn(C)cc3N3CCN(C(=O)c4ccc([O-])cc4)CC3)nc2n(CCC)c1=O

>  <Energy>  (91) 
144.35285230483598

>  <Genealogy>  (91) 
CCCn1c(=O)c2[n-]c(-c3cn(C)cc3N3CCN(C(=O)c4ccc([O-])cc4)CC3)nc2n(CCC)c1=O (protonated)
CCCn1c(=O)c2[n-]c(-c3cn(C)cc3N3CCN(C(=O)c4ccc([O-])cc4)CC3)nc2n(CCC)c1=O (3D coordinates assigned)
CCCn1c(=O)c2[n-]c(-c3cn(C)cc3N3CCN(C(=O)c4ccc([O-])cc4)CC3)nc2n(CCC)c1=O (nonaromatic ring conformer: 144.35285230483598 kcal/mol)

>  <smiles>  (91) 
CCCn1c(=O)c2[nH]c(-c3cn(C)cc3N3CCN(C(=O)c4ccc(O)cc4)CC3)nc2n(CCC)c1=O

>  <score_type>  (91) 
oracle

>  <origin>  (91) 
adg

>  <m_score__min__energy>  (91) 
-15.199999999999999

>  <m_primary>  (91) 
energy

$$$$
91:0
     RDKit          3D

 38 41  0  0  0  0  0  0  0  0999 V2000
   57.1020   32.4170   52.1370 C   0  0  0  0  0  0  0  0  0  0  0  0
   56.4020   31.2060   52.1700 C   0  0  0  0  0  0  0  0  0  0  0  0
   56.9450   30.0920   51.6060 N   0  0  0  0  0  0  0  0  0  0  0  0
   58.1600   30.1230   50.9870 C   0  0  0  0  0  0  0  0  0  0  0  0
   58.8800   31.3260   50.8970 C   0  0  0  0  0  0  0  0  0  0  0  0
   60.1790   31.4020   50.1320 C   0  0  0  0  0  0  0  0  0  0  0  0
   59.9770   31.9820   48.7960 N   0  0  0  0  0  0  0  0  0  0  0  0
   58.5830   32.0810   48.3200 C   0  0  0  0  0  0  0  0  0  0  0  0
   58.4550   32.4200   46.8510 C   0  0  0  0  0  0  0  0  0  0  0  0
   57.9390   31.4800   45.9390 C   0  0  0  0  0  0  0  0  0  0  0  0
   57.8260   31.8010   44.5800 C   0  0  0  0  0  0  0  0  0  0  0  0
   58.2310   33.0580   44.1190 C   0  0  0  0  0  0  0  0  0  0  0  0
   58.7580   33.9970   45.0140 C   0  0  0  0  0  0  0  0  0  0  0  0
   58.8610   33.6840   46.3780 C   0  0  0  0  0  0  0  0  0  0  0  0
   59.6780   34.8150   47.4990 S   0  0  0  0  0  0  0  0  0  0  0  0
   61.1290   33.7610   47.4560 C   0  0  0  0  0  0  0  0  0  0  0  0
   62.2520   34.1990   46.7420 C   0  0  0  0  0  0  0  0  0  0  0  0
   63.3850   33.3930   46.6440 C   0  0  0  0  0  0  0  0  0  0  0  0
   63.3990   32.1360   47.2480 C   0  0  0  0  0  0  0  0  0  0  0  0
   62.2800   31.6820   47.9510 C   0  0  0  0  0  0  0  0  0  0  0  0
   61.1270   32.4810   48.0620 C   0  0  0  0  0  0  0  0  0  0  0  0
   58.3590   32.4690   51.5220 C   0  0  0  0  0  0  0  0  0  0  0  0
   56.6686   33.3207   52.5904 H   0  0  0  0  0  0  0  0  0  0  0  0
   55.4141   31.1540   52.6510 H   0  0  0  0  0  0  0  0  0  0  0  0
   58.5783   29.2014   50.5561 H   0  0  0  0  0  0  0  0  0  0  0  0
   60.8887   32.0290   50.6917 H   0  0  0  0  0  0  0  0  0  0  0  0
   60.5727   30.3818   50.0126 H   0  0  0  0  0  0  0  0  0  0  0  0
   58.0883   31.1144   48.4959 H   0  0  0  0  0  0  0  0  0  0  0  0
   58.1148   32.9053   48.8780 H   0  0  0  0  0  0  0  0  0  0  0  0
   57.6229   30.4884   46.2952 H   0  0  0  0  0  0  0  0  0  0  0  0
   57.4179   31.0629   43.8739 H   0  0  0  0  0  0  0  0  0  0  0  0
   58.1354   33.3090   43.0523 H   0  0  0  0  0  0  0  0  0  0  0  0
   59.0911   34.9794   44.6481 H   0  0  0  0  0  0  0  0  0  0  0  0
   62.2395   35.1855   46.2555 H   0  0  0  0  0  0  0  0  0  0  0  0
   64.2671   33.7480   46.0909 H   0  0  0  0  0  0  0  0  0  0  0  0
   64.2934   31.5003   47.1708 H   0  0  0  0  0  0  0  0  0  0  0  0
   62.3006   30.6886   48.4230 H   0  0  0  0  0  0  0  0  0  0  0  0
   58.9372   33.4048   51.5289 H   0  0  0  0  0  0  0  0  0  0  0  0
  1  2  2  0
  2  3  1  0
  3  4  2  0
  4  5  1  0
  5  6  1  0
  6  7  1  0
  7  8  1  0
  8  9  1  0
  9 10  2  0
 10 11  1  0
 11 12  2  0
 12 13  1  0
 13 14  2  0
 14 15  1  0
 15 16  1  0
 16 17  2  0
 17 18  1  0
 18 19  2  0
 19 20  1  0
 20 21  2  0
  5 22  2  0
 22  1  1  0
 21  7  1  0
 14  9  1  0
 21 16  1  0
  1 23  1  0
  2 24  1  0
  4 25  1  0
  6 26  1  0
  6 27  1  0
  8 28  1  0
  8 29  1  0
 10 30  1  0
 11 31  1  0
 12 32  1  0
 13 33  1  0
 17 34  1  0
 18 35  1  0
 19 36  1  0
 20 37  1  0
 22 38  1  0
M  END
>  <UniqueID>  (92) 
82

>  <SMILES>  (92) 
c1cncc(CN2Cc3ccccc3Sc3ccccc32)c1

>  <Energy>  (92) 
52.78407533480612

>  <Genealogy>  (92) 
c1cncc(CN2Cc3ccccc3Sc3ccccc32)c1 (3D coordinates assigned)
c1cncc(CN2Cc3ccccc3Sc3ccccc32)c1 (nonaromatic ring conformer: 52.78407533480612 kcal/mol)

>  <smiles>  (92) 
c1cncc(CN2Cc3ccccc3Sc3ccccc32)c1

>  <score_type>  (92) 
oracle

>  <origin>  (92) 
adg

>  <m_score__min__energy>  (92) 
-7.8200000000000003

>  <m_primary>  (92) 
energy

$$$$
