0:0
     RDKit          3D

 40 42  0  0  0  0  0  0  0  0999 V2000
   56.8120   34.5420   45.5920 O   0  0  0  0  0  0  0  0  0  0  0  0
   57.8560   34.1910   44.9820 C   0  0  0  0  0  0  0  0  0  0  0  0
   59.1610   34.8680   45.3180 C   0  0  0  0  0  0  0  0  0  0  0  0
   59.8870   34.1510   46.4290 C   0  0  0  0  0  0  0  0  0  0  0  0
   61.2620   33.8860   46.3200 C   0  0  0  0  0  0  0  0  0  0  0  0
   61.9450   33.2650   47.3710 C   0  0  0  0  0  0  0  0  0  0  0  0
   61.2630   32.9060   48.5360 C   0  0  0  0  0  0  0  0  0  0  0  0
   59.8910   33.1560   48.6490 C   0  0  0  0  0  0  0  0  0  0  0  0
   58.9600   32.6860   50.2480 Br  0  0  0  0  0  0  0  0  0  0  0  0
   59.2030   33.7640   47.5950 C   0  0  0  0  0  0  0  0  0  0  0  0
   57.7670   33.1250   44.0250 N   0  0  0  0  0  0  0  0  0  0  0  0
   57.8450   31.7290   44.3330 C   0  0  0  0  0  0  0  0  0  0  0  0
   58.7520   31.2480   45.2890 C   0  0  0  0  0  0  0  0  0  0  0  0
   58.7830   29.8860   45.6050 C   0  0  0  0  0  0  0  0  0  0  0  0
   57.9140   28.9940   44.9610 C   0  0  0  0  0  0  0  0  0  0  0  0
   57.9380   27.2780   45.3530 S   0  0  0  0  0  0  0  0  0  0  0  0
   59.2610   26.9400   45.9810 O   0  0  0  0  0  0  0  0  0  0  0  0
   57.7720   26.4460   44.1120 O   0  0  0  0  0  0  0  0  0  0  0  0
   56.6650   26.9120   46.4730 N   0  0  0  0  0  0  0  0  0  0  0  0
   55.8950   25.8720   46.3750 C   0  0  0  0  0  0  0  0  0  0  0  0
   56.2740   24.7050   46.9590 N   0  0  0  0  0  0  0  0  0  0  0  0
   55.4930   23.5960   46.8820 C   0  0  0  0  0  0  0  0  0  0  0  0
   54.2810   23.6450   46.1940 C   0  0  0  0  0  0  0  0  0  0  0  0
   53.9050   24.8480   45.5990 C   0  0  0  0  0  0  0  0  0  0  0  0
   54.7140   25.9340   45.6990 N   0  0  0  0  0  0  0  0  0  0  0  0
   57.0390   29.4700   43.9760 C   0  0  0  0  0  0  0  0  0  0  0  0
   57.0120   30.8310   43.6570 C   0  0  0  0  0  0  0  0  0  0  0  0
   59.7993   34.8779   44.4222 H   0  0  0  0  0  0  0  0  0  0  0  0
   58.9414   35.8920   45.6544 H   0  0  0  0  0  0  0  0  0  0  0  0
   61.8036   34.1678   45.4050 H   0  0  0  0  0  0  0  0  0  0  0  0
   63.0217   33.0589   47.2798 H   0  0  0  0  0  0  0  0  0  0  0  0
   61.8047   32.4267   49.3647 H   0  0  0  0  0  0  0  0  0  0  0  0
   58.1205   33.9407   47.6782 H   0  0  0  0  0  0  0  0  0  0  0  0
   59.4404   31.9437   45.7912 H   0  0  0  0  0  0  0  0  0  0  0  0
   59.4907   29.5138   46.3604 H   0  0  0  0  0  0  0  0  0  0  0  0
   55.8163   22.6605   47.3618 H   0  0  0  0  0  0  0  0  0  0  0  0
   53.6374   22.7558   46.1226 H   0  0  0  0  0  0  0  0  0  0  0  0
   52.9547   24.9176   45.0494 H   0  0  0  0  0  0  0  0  0  0  0  0
   56.3710   28.7707   43.4518 H   0  0  0  0  0  0  0  0  0  0  0  0
   56.3337   31.1968   42.8721 H   0  0  0  0  0  0  0  0  0  0  0  0
  1  2  2  0
  2  3  1  0
  3  4  1  0
  4  5  2  0
  5  6  1  0
  6  7  2  0
  7  8  1  0
  8  9  1  0
  8 10  2  0
  2 11  1  0
 11 12  1  0
 12 13  2  0
 13 14  1  0
 14 15  2  0
 15 16  1  0
 16 17  2  0
 16 18  2  0
 16 19  1  0
 19 20  2  3
 20 21  1  0
 21 22  2  0
 22 23  1  0
 23 24  2  0
 24 25  1  0
 15 26  1  0
 26 27  2  0
 10  4  1  0
 27 12  1  0
 25 20  1  0
  3 28  1  0
  3 29  1  0
  5 30  1  0
  6 31  1  0
  7 32  1  0
 10 33  1  0
 13 34  1  0
 14 35  1  0
 22 36  1  0
 23 37  1  0
 24 38  1  0
 26 39  1  0
 27 40  1  0
M  CHG  2  11  -1  25  -1
M  END
>  <UniqueID>  (1) 
1

>  <SMILES>  (1) 
O=C(Cc1cccc(Br)c1)[N-]c1ccc(S(=O)(=O)N=c2nccc[n-]2)cc1

>  <Energy>  (1) 
48.56604417301158

>  <Genealogy>  (1) 
O=C(Cc1cccc(Br)c1)[N-]c1ccc(S(=O)(=O)N=c2nccc[n-]2)cc1 (protonated)
O=C(Cc1cccc(Br)c1)[N-]c1ccc(S(=O)(=O)N=c2nccc[n-]2)cc1 (3D coordinates assigned)
O=C(Cc1cccc(Br)c1)[N-]c1ccc(S(=O)(=O)N=c2nccc[n-]2)cc1 (optimized conformer: 48.56604417301158 kcal/mol)

>  <smiles>  (1) 
O=C(Cc1cccc(Br)c1)Nc1ccc(S(=O)(=O)N=c2nccc[nH]2)cc1

>  <score_type>  (1) 
oracle

>  <origin>  (1) 
adg

>  <m_score__min__energy>  (1) 
-11.720000000000001

>  <m_primary>  (1) 
energy

$$$$
1:0
     RDKit          3D

 45 48  0  0  0  0  0  0  0  0999 V2000
   58.7260   29.8580   44.2900 C   0  0  0  0  0  0  0  0  0  0  0  0
   58.5670   29.8150   45.6220 C   0  0  0  0  0  0  0  0  0  0  0  0
   58.4890   28.6740   46.4380 C   0  0  0  0  0  0  0  0  0  0  0  0
   58.3670   27.3690   46.1280 C   0  0  0  0  0  0  0  0  0  0  0  0
   57.1070   26.6140   46.0530 C   0  0  0  0  0  0  0  0  0  0  0  0
   56.9690   25.3570   46.5090 N   0  0  0  0  0  0  0  0  0  0  0  0
   55.6470   25.1170   46.3680 C   0  0  0  0  0  0  0  0  0  0  0  0
   55.1210   24.0160   46.6790 O   0  0  0  0  0  0  0  0  0  0  0  0
   54.9310   26.1510   45.8800 N   0  0  0  0  0  0  0  0  0  0  0  0
   55.8670   27.0980   45.7000 C   0  0  0  0  0  0  0  0  0  0  0  0
   55.5870   28.3800   45.2480 O   0  0  0  0  0  0  0  0  0  0  0  0
   58.5270   29.1310   47.7470 C   0  0  0  0  0  0  0  0  0  0  0  0
   58.5690   30.5090   47.6890 C   0  0  0  0  0  0  0  0  0  0  0  0
   58.5300   31.4220   48.8750 C   0  0  0  0  0  0  0  0  0  0  0  0
   58.5710   30.9210   46.4040 N   0  0  0  0  0  0  0  0  0  0  0  0
   58.5900   32.2930   45.9690 C   0  0  0  0  0  0  0  0  0  0  0  0
   57.4930   32.7800   45.2460 C   0  0  0  0  0  0  0  0  0  0  0  0
   57.4580   34.1080   44.8210 C   0  0  0  0  0  0  0  0  0  0  0  0
   58.5190   34.9620   45.1160 C   0  0  0  0  0  0  0  0  0  0  0  0
   59.6210   34.4910   45.8330 C   0  0  0  0  0  0  0  0  0  0  0  0
   59.6810   33.1530   46.2690 C   0  0  0  0  0  0  0  0  0  0  0  0
   60.8780   32.6770   47.0170 C   0  0  0  0  0  0  0  0  0  0  0  0
   61.6160   33.4580   47.8350 N   0  0  0  0  0  0  0  0  0  0  0  0
   62.6600   32.7960   48.4000 C   0  0  0  0  0  0  0  0  0  0  0  0
   63.5950   33.4850   49.2990 C   0  0  0  0  0  0  0  0  0  0  0  0
   63.1730   34.3500   50.1140 O   0  0  0  0  0  0  0  0  0  0  0  0
   64.9530   33.1580   49.2450 O   0  0  0  0  0  0  0  0  0  0  0  0
   65.5710   32.2800   50.1770 C   0  0  0  0  0  0  0  0  0  0  0  0
   62.7710   31.4560   48.0410 C   0  0  0  0  0  0  0  0  0  0  0  0
   61.5120   31.1140   46.9800 S   0  0  0  0  0  0  0  0  0  0  0  0
   58.7712   30.8276   43.7725 H   0  0  0  0  0  0  0  0  0  0  0  0
   58.8111   28.9236   43.7158 H   0  0  0  0  0  0  0  0  0  0  0  0
   59.2939   26.8178   45.9112 H   0  0  0  0  0  0  0  0  0  0  0  0
   58.5242   28.5132   48.6571 H   0  0  0  0  0  0  0  0  0  0  0  0
   58.5555   30.8248   49.7984 H   0  0  0  0  0  0  0  0  0  0  0  0
   59.4002   32.0943   48.8490 H   0  0  0  0  0  0  0  0  0  0  0  0
   57.6056   32.0176   48.8490 H   0  0  0  0  0  0  0  0  0  0  0  0
   56.6528   32.1097   45.0117 H   0  0  0  0  0  0  0  0  0  0  0  0
   56.5930   34.4812   44.2530 H   0  0  0  0  0  0  0  0  0  0  0  0
   58.4884   36.0100   44.7832 H   0  0  0  0  0  0  0  0  0  0  0  0
   60.4530   35.1738   46.0602 H   0  0  0  0  0  0  0  0  0  0  0  0
   65.3391   32.6095   51.2005 H   0  0  0  0  0  0  0  0  0  0  0  0
   65.1916   31.2586   50.0258 H   0  0  0  0  0  0  0  0  0  0  0  0
   66.6605   32.2926   50.0258 H   0  0  0  0  0  0  0  0  0  0  0  0
   63.5406   30.7505   48.3875 H   0  0  0  0  0  0  0  0  0  0  0  0
  1  2  2  0
  2  3  1  0
  3  4  2  3
  4  5  1  0
  5  6  1  0
  6  7  1  0
  7  8  2  0
  7  9  1  0
  9 10  1  0
 10 11  1  0
  3 12  1  0
 12 13  2  0
 13 14  1  0
 13 15  1  0
 15 16  1  0
 16 17  2  0
 17 18  1  0
 18 19  2  0
 19 20  1  0
 20 21  2  0
 21 22  1  0
 22 23  2  0
 23 24  1  0
 24 25  1  0
 25 26  2  0
 25 27  1  0
 27 28  1  0
 24 29  2  0
 29 30  1  0
 15  2  1  0
 21 16  1  0
 30 22  1  0
 10  5  2  0
  1 31  1  0
  1 32  1  0
  4 33  1  0
 12 34  1  0
 14 35  1  0
 14 36  1  0
 14 37  1  0
 17 38  1  0
 18 39  1  0
 19 40  1  0
 20 41  1  0
 28 42  1  0
 28 43  1  0
 28 44  1  0
 29 45  1  0
M  CHG  3   6  -1   9  -1  11  -1
M  END
>  <UniqueID>  (2) 
2

>  <SMILES>  (2) 
C=c1c(=Cc2[n-]c(=O)[n-]c2[O-])cc(C)n1-c1ccccc1-c1nc(C(=O)OC)cs1

>  <Energy>  (2) 
150.83249932860005

>  <Genealogy>  (2) 
C=c1c(=Cc2[n-]c(=O)[n-]c2[O-])cc(C)n1-c1ccccc1-c1nc(C(=O)OC)cs1 (protonated)
C=c1c(=Cc2[n-]c(=O)[n-]c2[O-])cc(C)n1-c1ccccc1-c1nc(C(=O)OC)cs1 (3D coordinates assigned)
C=c1c(=Cc2[n-]c(=O)[n-]c2[O-])cc(C)n1-c1ccccc1-c1nc(C(=O)OC)cs1 (optimized conformer: 150.83249932860005 kcal/mol)

>  <smiles>  (2) 
C=c1c(=Cc2[nH]c(=O)[nH]c2O)cc(C)n1-c1ccccc1-c1nc(C(=O)OC)cs1

>  <score_type>  (2) 
oracle

>  <origin>  (2) 
adg

>  <m_score__min__energy>  (2) 
-16.739999999999998

>  <m_primary>  (2) 
energy

$$$$
2:0
     RDKit          3D

 49 52  0  0  0  0  0  0  0  0999 V2000
   58.1160   32.2740   45.5860 H   0  0  0  0  0  0  0  0  0  0  0  0
   58.6880   32.5960   46.3580 O   0  0  0  0  0  0  0  0  0  0  0  0
   58.8500   31.8100   47.4930 C   0  0  0  0  0  0  0  0  0  0  0  0
   59.0360   32.3010   48.7290 N   0  0  0  0  0  0  0  0  0  0  0  0
   59.1600   31.1870   49.4850 C   0  0  0  0  0  0  0  0  0  0  0  0
   59.3280   31.2290   50.9690 C   0  0  0  0  0  0  0  0  0  0  0  0
   59.5381   32.2621   51.2829 H   0  0  0  0  0  0  0  0  0  0  0  0
   60.1642   30.5749   51.2569 H   0  0  0  0  0  0  0  0  0  0  0  0
   58.0720   30.7500   51.6410 C   0  0  0  0  0  0  0  0  0  0  0  0
   58.1460   29.8110   52.7010 C   0  0  0  0  0  0  0  0  0  0  0  0
   59.1244   29.4122   53.0073 H   0  0  0  0  0  0  0  0  0  0  0  0
   56.9820   29.3840   53.3650 C   0  0  0  0  0  0  0  0  0  0  0  0
   57.0316   28.6504   54.1832 H   0  0  0  0  0  0  0  0  0  0  0  0
   55.7650   29.9200   52.9530 C   0  0  0  0  0  0  0  0  0  0  0  0
   54.4850   29.6910   53.4080 C   0  0  0  0  0  0  0  0  0  0  0  0
   54.1711   29.0105   54.2132 H   0  0  0  0  0  0  0  0  0  0  0  0
   53.6760   30.5100   52.6250 C   0  0  0  0  0  0  0  0  0  0  0  0
   52.1810   30.5710   52.7010 C   0  0  0  0  0  0  0  0  0  0  0  0
   51.8828   31.4831   53.2388 H   0  0  0  0  0  0  0  0  0  0  0  0
   51.8152   29.6804   53.2330 H   0  0  0  0  0  0  0  0  0  0  0  0
   51.5740   30.5930   51.2980 C   0  0  0  0  0  0  0  0  0  0  0  0
   50.7436   29.8731   51.2515 H   0  0  0  0  0  0  0  0  0  0  0  0
   52.3522   30.3219   50.5694 H   0  0  0  0  0  0  0  0  0  0  0  0
   51.0600   31.9590   50.9710 C   0  0  0  0  0  0  0  0  0  0  0  0
   51.0160   32.8500   51.8600 O   0  0  0  0  0  0  0  0  0  0  0  0
   50.6760   32.2640   49.6710 O   0  0  0  0  0  0  0  0  0  0  0  0
   54.4110   31.2000   51.7210 N   0  0  0  0  0  0  0  0  0  0  0  0
   54.0580   31.8700   51.0000 H   0  0  0  0  0  0  0  0  0  0  0  0
   55.6840   30.8340   51.9360 C   0  0  0  0  0  0  0  0  0  0  0  0
   56.8190   31.2770   51.2580 C   0  0  0  0  0  0  0  0  0  0  0  0
   56.7406   32.0164   50.4474 H   0  0  0  0  0  0  0  0  0  0  0  0
   59.0470   30.0310   48.7920 N   0  0  0  0  0  0  0  0  0  0  0  0
   58.8470   30.4380   47.5260 C   0  0  0  0  0  0  0  0  0  0  0  0
   58.7100   29.5150   46.3570 C   0  0  0  0  0  0  0  0  0  0  0  0
   59.5530   29.6730   45.6683 H   0  0  0  0  0  0  0  0  0  0  0  0
   58.7101   28.4758   46.7177 H   0  0  0  0  0  0  0  0  0  0  0  0
   57.4270   29.7820   45.6370 C   0  0  0  0  0  0  0  0  0  0  0  0
   57.1960   30.9380   45.1930 O   0  0  0  0  0  0  0  0  0  0  0  0
   56.4250   28.7510   45.5910 N   0  0  0  0  0  0  0  0  0  0  0  0
   56.5790   27.4550   45.5760 C   0  0  0  0  0  0  0  0  0  0  0  0
   55.5310   26.6820   45.9710 N   0  0  0  0  0  0  0  0  0  0  0  0
   55.5970   25.3240   46.0030 C   0  0  0  0  0  0  0  0  0  0  0  0
   54.7230   24.7387   46.3249 H   0  0  0  0  0  0  0  0  0  0  0  0
   56.7720   24.6730   45.6280 C   0  0  0  0  0  0  0  0  0  0  0  0
   56.8296   23.5746   45.6447 H   0  0  0  0  0  0  0  0  0  0  0  0
   57.8720   25.4310   45.2320 C   0  0  0  0  0  0  0  0  0  0  0  0
   58.8068   24.9310   44.9387 H   0  0  0  0  0  0  0  0  0  0  0  0
   57.7890   26.8260   45.2070 C   0  0  0  0  0  0  0  0  0  0  0  0
   58.6576   27.4285   44.9029 H   0  0  0  0  0  0  0  0  0  0  0  0
  1  2  1  0
  2  3  1  0
  3  4  1  0
  4  5  2  0
  5  6  1  0
  6  7  1  0
  6  8  1  0
  6  9  1  0
  9 10  2  0
 10 11  1  0
 10 12  1  0
 12 13  1  0
 12 14  2  0
 14 15  1  0
 15 16  1  0
 15 17  2  0
 17 18  1  0
 18 19  1  0
 18 20  1  0
 18 21  1  0
 21 22  1  0
 21 23  1  0
 21 24  1  0
 24 25  2  0
 24 26  1  0
 17 27  1  0
 27 28  1  0
 27 29  1  0
 29 30  2  0
 30 31  1  0
  5 32  1  0
 32 33  1  0
 33 34  1  0
 34 35  1  0
 34 36  1  0
 34 37  1  0
 37 38  2  0
 37 39  1  0
 39 40  2  0
 40 41  1  0
 41 42  1  0
 42 43  1  0
 42 44  2  0
 44 45  1  0
 44 46  1  0
 46 47  1  0
 46 48  2  0
 48 49  1  0
 33  3  2  0
 48 40  1  0
 30  9  1  0
 29 14  1  0
M  CHG  3  26  -1  32  -1  41  -1
M  END
>  <UniqueID>  (3) 
3

>  <SMILES>  (3) 
O=C([O-])CCc1cc2ccc(Cc3nc(O)c(CC(=O)/N=c4\cccc[n-]4)[n-]3)cc2[nH]1

>  <Energy>  (3) 
112.46076370892752

>  <Genealogy>  (3) 
O=C([O-])CCc1cc2ccc(Cc3nc(O)c(CC(=O)N=c4cccc[n-]4)[n-]3)cc2[nH]1 (protonated)
O=C([O-])CCc1cc2ccc(Cc3nc(O)c(CC(=O)/N=c4\cccc[n-]4)[n-]3)cc2[nH]1 (cis-trans isomerization)
O=C([O-])CCc1cc2ccc(Cc3nc(O)c(CC(=O)/N=c4\cccc[n-]4)[n-]3)cc2[nH]1 (3D coordinates assigned)
O=C([O-])CCc1cc2ccc(Cc3nc(O)c(CC(=O)/N=c4\cccc[n-]4)[n-]3)cc2[nH]1 (optimized conformer: 112.46076370892752 kcal/mol)

>  <smiles>  (3) 
O=C(O)CCc1cc2ccc(Cc3nc(O)c(CC(=O)N=c4cccc[nH]4)[nH]3)cc2[nH]1

>  <score_type>  (3) 
oracle

>  <origin>  (3) 
adg

>  <m_score__min__energy>  (3) 
-14.9

>  <m_primary>  (3) 
energy

$$$$
3:0
     RDKit          3D

 50 53  0  0  0  0  0  0  0  0999 V2000
   57.0624   29.3421   43.3572 H   0  0  0  0  0  0  0  0  0  0  0  0
   57.5700   30.0480   44.0310 C   0  0  0  0  0  0  0  0  0  0  0  0
   57.5983   31.1197   43.7848 H   0  0  0  0  0  0  0  0  0  0  0  0
   58.1530   29.6030   45.1500 C   0  0  0  0  0  0  0  0  0  0  0  0
   58.2230   28.2840   45.6010 C   0  0  0  0  0  0  0  0  0  0  0  0
   57.6780   27.1950   45.0280 C   0  0  0  0  0  0  0  0  0  0  0  0
   57.6287   27.1592   43.9297 H   0  0  0  0  0  0  0  0  0  0  0  0
   57.1430   26.0470   45.7830 C   0  0  0  0  0  0  0  0  0  0  0  0
   57.9140   25.0550   46.2610 N   0  0  0  0  0  0  0  0  0  0  0  0
   57.0420   24.2790   46.9410 C   0  0  0  0  0  0  0  0  0  0  0  0
   57.3910   23.2240   47.5310 O   0  0  0  0  0  0  0  0  0  0  0  0
   55.7680   24.7280   46.9470 N   0  0  0  0  0  0  0  0  0  0  0  0
   55.8500   25.8550   46.2200 C   0  0  0  0  0  0  0  0  0  0  0  0
   54.7750   26.7090   46.0060 O   0  0  0  0  0  0  0  0  0  0  0  0
   58.9240   28.3250   46.7990 C   0  0  0  0  0  0  0  0  0  0  0  0
   59.1563   27.4730   47.4548 H   0  0  0  0  0  0  0  0  0  0  0  0
   59.2730   29.6480   47.0060 C   0  0  0  0  0  0  0  0  0  0  0  0
   60.0270   30.1890   48.1570 C   0  0  0  0  0  0  0  0  0  0  0  0
   59.5750   29.9740   49.3140 O   0  0  0  0  0  0  0  0  0  0  0  0
   61.2270   30.9790   47.9940 N   0  0  0  0  0  0  0  0  0  0  0  0
   62.0930   31.2390   49.1470 C   0  0  0  0  0  0  0  0  0  0  0  0
   61.8605   30.5248   49.9506 H   0  0  0  0  0  0  0  0  0  0  0  0
   63.1465   31.1230   48.8526 H   0  0  0  0  0  0  0  0  0  0  0  0
   61.8510   32.6660   49.6440 C   0  0  0  0  0  0  0  0  0  0  0  0
   60.8872   32.6937   50.1735 H   0  0  0  0  0  0  0  0  0  0  0  0
   62.6907   32.9307   50.3034 H   0  0  0  0  0  0  0  0  0  0  0  0
   61.8150   33.7150   48.4940 C   0  0  0  0  0  0  0  0  0  0  0  0
   62.6418   34.4074   48.7108 H   0  0  0  0  0  0  0  0  0  0  0  0
   60.5370   34.5980   48.5060 C   0  0  0  0  0  0  0  0  0  0  0  0
   60.0200   34.4353   49.4632 H   0  0  0  0  0  0  0  0  0  0  0  0
   60.8800   35.6332   48.3621 H   0  0  0  0  0  0  0  0  0  0  0  0
   59.5540   34.3230   47.3910 C   0  0  0  0  0  0  0  0  0  0  0  0
   58.4460   33.4830   47.5970 C   0  0  0  0  0  0  0  0  0  0  0  0
   58.2816   33.0275   48.5847 H   0  0  0  0  0  0  0  0  0  0  0  0
   57.5520   33.2230   46.5550 C   0  0  0  0  0  0  0  0  0  0  0  0
   56.6933   32.5560   46.7218 H   0  0  0  0  0  0  0  0  0  0  0  0
   57.7470   33.8090   45.3010 C   0  0  0  0  0  0  0  0  0  0  0  0
   57.0498   33.5931   44.4780 H   0  0  0  0  0  0  0  0  0  0  0  0
   58.8280   34.6690   45.0940 C   0  0  0  0  0  0  0  0  0  0  0  0
   58.9775   35.1360   44.1094 H   0  0  0  0  0  0  0  0  0  0  0  0
   59.7200   34.9370   46.1360 C   0  0  0  0  0  0  0  0  0  0  0  0
   60.5569   35.6322   45.9740 H   0  0  0  0  0  0  0  0  0  0  0  0
   62.1560   33.1250   47.1000 C   0  0  0  0  0  0  0  0  0  0  0  0
   61.8673   33.8599   46.3341 H   0  0  0  0  0  0  0  0  0  0  0  0
   63.2354   32.9133   47.1013 H   0  0  0  0  0  0  0  0  0  0  0  0
   61.4420   31.7920   46.7860 C   0  0  0  0  0  0  0  0  0  0  0  0
   60.4661   32.0119   46.3286 H   0  0  0  0  0  0  0  0  0  0  0  0
   62.0841   31.2177   46.1020 H   0  0  0  0  0  0  0  0  0  0  0  0
   58.7890   30.4190   46.0130 N   0  0  0  0  0  0  0  0  0  0  0  0
   58.8980   31.4550   45.9250 H   0  0  0  0  0  0  0  0  0  0  0  0
  1  2  1  0
  2  3  1  0
  2  4  2  0
  4  5  1  0
  5  6  2  0
  6  7  1  0
  6  8  1  0
  8  9  1  0
  9 10  1  0
 10 11  2  0
 10 12  1  0
 12 13  1  0
 13 14  1  0
  5 15  1  0
 15 16  1  0
 15 17  2  0
 17 18  1  0
 18 19  2  0
 18 20  1  0
 20 21  1  0
 21 22  1  0
 21 23  1  0
 21 24  1  0
 24 25  1  0
 24 26  1  0
 24 27  1  0
 27 28  1  0
 27 29  1  0
 29 30  1  0
 29 31  1  0
 29 32  1  0
 32 33  2  0
 33 34  1  0
 33 35  1  0
 35 36  1  0
 35 37  2  0
 37 38  1  0
 37 39  1  0
 39 40  1  0
 39 41  2  0
 41 42  1  0
 27 43  1  0
 43 44  1  0
 43 45  1  0
 43 46  1  0
 46 47  1  0
 46 48  1  0
 17 49  1  0
 49 50  1  0
 49  4  1  0
 13  8  2  0
 46 20  1  0
 41 32  1  0
M  CHG  3   9  -1  12  -1  14  -1
M  END
>  <UniqueID>  (4) 
4

>  <SMILES>  (4) 
C=c1[nH]c(C(=O)N2CCC(Cc3ccccc3)CC2)c/c1=C\c1[n-]c(=O)[n-]c1[O-]

>  <Energy>  (4) 
121.49138854928728

>  <Genealogy>  (4) 
C=c1[nH]c(C(=O)N2CCC(Cc3ccccc3)CC2)cc1=Cc1[n-]c(=O)[n-]c1[O-] (protonated)
C=c1[nH]c(C(=O)N2CCC(Cc3ccccc3)CC2)c/c1=C\c1[n-]c(=O)[n-]c1[O-] (cis-trans isomerization)
C=c1[nH]c(C(=O)N2CCC(Cc3ccccc3)CC2)c/c1=C\c1[n-]c(=O)[n-]c1[O-] (3D coordinates assigned)
C=c1[nH]c(C(=O)N2CCC(Cc3ccccc3)CC2)c/c1=C\c1[n-]c(=O)[n-]c1[O-] (nonaromatic ring conformer: 121.49138854928728 kcal/mol)

>  <smiles>  (4) 
C=c1[nH]c(C(=O)N2CCC(Cc3ccccc3)CC2)cc1=Cc1[nH]c(=O)[nH]c1O

>  <score_type>  (4) 
oracle

>  <origin>  (4) 
adg

>  <m_score__min__energy>  (4) 
-18.140000000000001

>  <m_primary>  (4) 
energy

$$$$
4:0
     RDKit          3D

 61 64  0  0  0  0  0  0  0  0999 V2000
   57.0140   28.2750   44.6570 C   0  0  0  0  0  0  0  0  0  0  0  0
   57.7710   27.4230   45.3660 C   0  0  0  0  0  0  0  0  0  0  0  0
   57.8120   26.0230   45.2500 C   0  0  0  0  0  0  0  0  0  0  0  0
   57.0170   25.1640   44.5830 C   0  0  0  0  0  0  0  0  0  0  0  0
   55.7360   24.6240   45.0670 C   0  0  0  0  0  0  0  0  0  0  0  0
   55.2890   23.3770   44.8220 N   0  0  0  0  0  0  0  0  0  0  0  0
   54.0270   23.3970   45.3040 C   0  0  0  0  0  0  0  0  0  0  0  0
   53.2740   22.3900   45.2750 O   0  0  0  0  0  0  0  0  0  0  0  0
   53.6310   24.5860   45.8060 N   0  0  0  0  0  0  0  0  0  0  0  0
   54.7200   25.3530   45.6350 C   0  0  0  0  0  0  0  0  0  0  0  0
   54.7800   26.6980   45.9830 O   0  0  0  0  0  0  0  0  0  0  0  0
   58.8840   25.6030   46.0220 C   0  0  0  0  0  0  0  0  0  0  0  0
   59.4070   26.7270   46.6280 C   0  0  0  0  0  0  0  0  0  0  0  0
   60.5890   26.7340   47.5480 C   0  0  0  0  0  0  0  0  0  0  0  0
   58.7300   27.8290   46.2380 N   0  0  0  0  0  0  0  0  0  0  0  0
   59.0570   29.1770   46.6100 C   0  0  0  0  0  0  0  0  0  0  0  0
   59.3130   29.4930   47.9500 C   0  0  0  0  0  0  0  0  0  0  0  0
   59.6490   30.8000   48.3140 C   0  0  0  0  0  0  0  0  0  0  0  0
   59.7230   31.8130   47.3410 C   0  0  0  0  0  0  0  0  0  0  0  0
   60.0960   33.1940   47.7320 C   0  0  0  0  0  0  0  0  0  0  0  0
   59.2580   34.1250   47.5810 O   0  0  0  0  0  0  0  0  0  0  0  0
   61.3840   33.4940   48.3030 N   0  0  0  0  0  0  0  0  0  0  0  0
   62.5940   33.4670   47.4780 C   0  0  0  0  0  0  0  0  0  0  0  0
   61.4870   33.8970   49.7110 C   0  0  0  0  0  0  0  0  0  0  0  0
   61.5310   32.6690   50.6320 C   0  0  0  0  0  0  0  0  0  0  0  0
   60.4130   32.6940   51.6000 N   0  0  0  0  0  0  0  0  0  0  0  0
   59.1900   33.3370   51.0390 C   0  0  0  0  0  0  0  0  0  0  0  0
   58.1070   32.3480   50.5910 C   0  0  0  0  0  0  0  0  0  0  0  0
   57.5440   31.4300   52.0060 S   0  0  0  0  0  0  0  0  0  0  0  0
   57.0580   30.0720   51.5840 O   0  0  0  0  0  0  0  0  0  0  0  0
   56.4420   32.1710   52.7110 O   0  0  0  0  0  0  0  0  0  0  0  0
   58.9570   31.2800   53.0750 C   0  0  0  0  0  0  0  0  0  0  0  0
   60.2230   31.3580   52.2200 C   0  0  0  0  0  0  0  0  0  0  0  0
   59.4770   31.4860   45.9950 C   0  0  0  0  0  0  0  0  0  0  0  0
   59.1490   30.1770   45.6340 C   0  0  0  0  0  0  0  0  0  0  0  0
   57.0773   29.3565   44.8478 H   0  0  0  0  0  0  0  0  0  0  0  0
   56.3303   27.8918   43.8852 H   0  0  0  0  0  0  0  0  0  0  0  0
   57.3551   24.8372   43.5886 H   0  0  0  0  0  0  0  0  0  0  0  0
   59.2482   24.5708   46.1308 H   0  0  0  0  0  0  0  0  0  0  0  0
   60.2414   26.7319   48.5916 H   0  0  0  0  0  0  0  0  0  0  0  0
   61.2022   25.8395   47.3640 H   0  0  0  0  0  0  0  0  0  0  0  0
   61.1915   27.6357   47.3640 H   0  0  0  0  0  0  0  0  0  0  0  0
   59.2494   28.7094   48.7193 H   0  0  0  0  0  0  0  0  0  0  0  0
   59.8568   31.0378   49.3677 H   0  0  0  0  0  0  0  0  0  0  0  0
   63.4809   33.4472   48.1284 H   0  0  0  0  0  0  0  0  0  0  0  0
   62.5849   32.5688   46.8430 H   0  0  0  0  0  0  0  0  0  0  0  0
   62.6249   34.3647   46.8430 H   0  0  0  0  0  0  0  0  0  0  0  0
   62.4062   34.4848   49.8508 H   0  0  0  0  0  0  0  0  0  0  0  0
   60.6027   34.4980   49.9695 H   0  0  0  0  0  0  0  0  0  0  0  0
   61.4574   31.7576   50.0205 H   0  0  0  0  0  0  0  0  0  0  0  0
   62.4789   32.6824   51.1900 H   0  0  0  0  0  0  0  0  0  0  0  0
   58.7602   33.9924   51.8109 H   0  0  0  0  0  0  0  0  0  0  0  0
   59.5066   33.8864   50.1402 H   0  0  0  0  0  0  0  0  0  0  0  0
   57.2638   32.8991   50.1490 H   0  0  0  0  0  0  0  0  0  0  0  0
   58.5197   31.6586   49.8397 H   0  0  0  0  0  0  0  0  0  0  0  0
   58.9547   32.0983   53.8101 H   0  0  0  0  0  0  0  0  0  0  0  0
   58.9233   30.3205   53.6118 H   0  0  0  0  0  0  0  0  0  0  0  0
   61.0924   31.1387   52.8573 H   0  0  0  0  0  0  0  0  0  0  0  0
   60.1207   30.6250   51.4062 H   0  0  0  0  0  0  0  0  0  0  0  0
   59.5433   32.2659   45.2221 H   0  0  0  0  0  0  0  0  0  0  0  0
   58.9621   29.9306   44.5784 H   0  0  0  0  0  0  0  0  0  0  0  0
  1  2  2  0
  2  3  1  0
  3  4  2  3
  4  5  1  0
  5  6  1  0
  6  7  1  0
  7  8  2  0
  7  9  1  0
  9 10  1  0
 10 11  1  0
  3 12  1  0
 12 13  2  0
 13 14  1  0
 13 15  1  0
 15 16  1  0
 16 17  2  0
 17 18  1  0
 18 19  2  0
 19 20  1  0
 20 21  2  0
 20 22  1  0
 22 23  1  0
 22 24  1  0
 24 25  1  0
 25 26  1  0
 26 27  1  0
 27 28  1  0
 28 29  1  0
 29 30  2  0
 29 31  2  0
 29 32  1  0
 32 33  1  0
 19 34  1  0
 34 35  2  0
 15  2  1  0
 35 16  1  0
 10  5  2  0
 33 26  1  0
  1 36  1  0
  1 37  1  0
  4 38  1  0
 12 39  1  0
 14 40  1  0
 14 41  1  0
 14 42  1  0
 17 43  1  0
 18 44  1  0
 23 45  1  0
 23 46  1  0
 23 47  1  0
 24 48  1  0
 24 49  1  0
 25 50  1  0
 25 51  1  0
 27 52  1  0
 27 53  1  0
 28 54  1  0
 28 55  1  0
 32 56  1  0
 32 57  1  0
 33 58  1  0
 33 59  1  0
 34 60  1  0
 35 61  1  0
M  CHG  3   6  -1   9  -1  11  -1
M  END
>  <UniqueID>  (5) 
5

>  <SMILES>  (5) 
C=c1c(=Cc2[n-]c(=O)[n-]c2[O-])cc(C)n1-c1ccc(C(=O)N(C)CCN2CCS(=O)(=O)CC2)cc1

>  <Energy>  (5) 
141.43606159322735

>  <Genealogy>  (5) 
C=c1c(=Cc2[n-]c(=O)[n-]c2[O-])cc(C)n1-c1ccc(C(=O)N(C)CCN2CCS(=O)(=O)CC2)cc1 (protonated)
C=c1c(=Cc2[n-]c(=O)[n-]c2[O-])cc(C)n1-c1ccc(C(=O)N(C)CCN2CCS(=O)(=O)CC2)cc1 (3D coordinates assigned)
C=c1c(=Cc2[n-]c(=O)[n-]c2[O-])cc(C)n1-c1ccc(C(=O)N(C)CCN2CCS(=O)(=O)CC2)cc1 (nonaromatic ring conformer: 141.43606159322735 kcal/mol)

>  <smiles>  (5) 
C=c1c(=Cc2[nH]c(=O)[nH]c2O)cc(C)n1-c1ccc(C(=O)N(C)CCN2CCS(=O)(=O)CC2)cc1

>  <score_type>  (5) 
oracle

>  <origin>  (5) 
adg

>  <m_score__min__energy>  (5) 
-16.989999999999998

>  <m_primary>  (5) 
energy

$$$$
5:0
     RDKit          3D

 62 65  0  0  1  0  0  0  0  0999 V2000
   59.2640   33.4670   48.8330 C   0  0  0  0  0  0  0  0  0  0  0  0
   58.8850   33.6330   47.4270 C   0  0  0  0  0  0  0  0  0  0  0  0
   58.0760   32.8190   46.6940 C   0  0  0  0  0  0  0  0  0  0  0  0
   57.7880   33.0540   45.3710 C   0  0  0  0  0  0  0  0  0  0  0  0
   57.0190   32.3040   44.6660 N   0  0  0  0  0  0  0  0  0  0  0  0
   57.4030   31.8700   43.3530 C   0  0  0  0  0  0  0  0  0  0  0  0
   57.9010   32.7690   42.6250 O   0  0  0  0  0  0  0  0  0  0  0  0
   57.1860   30.4800   43.0110 C   0  0  0  0  0  0  0  0  0  0  0  0
   57.7980   29.4610   43.7870 N   0  0  0  0  0  0  0  0  0  0  0  0
   57.2690   29.0800   45.0260 C   0  0  0  0  0  0  0  0  0  0  0  0
   56.2360   29.7020   45.4520 O   0  0  0  0  0  0  0  0  0  0  0  0
   57.7690   28.0250   45.8920 C   0  0  0  0  0  0  0  0  0  0  0  0
   57.1230   26.7800   45.7020 C   0  0  0  0  0  0  0  0  0  0  0  0
   57.4770   25.6660   46.4130 C   0  0  0  0  0  0  0  0  0  0  0  0
   56.7270   24.1070   46.2320 S   0  0  0  0  0  0  0  0  0  0  0  0
   55.2430   24.2370   46.3890 O   0  0  0  0  0  0  0  0  0  0  0  0
   57.2060   23.1250   47.2620 O   0  0  0  0  0  0  0  0  0  0  0  0
   57.1020   23.4230   44.6780 N   0  0  0  0  0  0  0  0  0  0  0  0
   57.1560   21.9510   44.7980 C   0  0  0  0  0  0  0  0  0  0  0  0
   57.3410   21.5910   43.3220 C   0  0  0  0  0  0  0  0  0  0  0  0
   56.3120   22.5430   42.7030 C   0  0  0  0  0  0  0  0  0  0  0  0
   55.9160   23.5020   43.8030 C   0  0  0  0  0  0  0  0  0  0  0  0
   58.5000   25.8050   47.3300 C   0  0  0  0  0  0  0  0  0  0  0  0
   59.1520   27.0090   47.5400 C   0  0  0  0  0  0  0  0  0  0  0  0
   58.7780   28.1460   46.8060 C   0  0  0  0  0  0  0  0  0  0  0  0
   59.4330   29.3430   47.0900 N   0  0  0  0  0  0  0  0  0  0  0  0
   60.0190   30.2850   46.1200 C   0  0  0  0  0  0  0  0  0  0  0  0
   61.4160   30.3790   46.7400 C   0  0  0  0  0  0  0  0  0  0  0  0
   61.0130   30.7690   48.1430 C   0  0  0  0  0  0  0  0  0  0  0  0
   59.7550   29.9620   48.3690 C   0  0  0  0  0  0  0  0  0  0  0  0
   58.3350   34.1450   44.7780 N   0  0  0  0  0  0  0  0  0  0  0  0
   59.1340   34.9640   45.4800 C   0  0  0  0  0  0  0  0  0  0  0  0
   59.6020   35.9570   44.8560 O   0  0  0  0  0  0  0  0  0  0  0  0
   59.4060   34.7170   46.7750 N   0  0  0  0  0  0  0  0  0  0  0  0
   58.4475   33.8246   49.4775 H   0  0  0  0  0  0  0  0  0  0  0  0
   59.4541   32.4032   49.0384 H   0  0  0  0  0  0  0  0  0  0  0  0
   60.1748   34.0486   49.0384 H   0  0  0  0  0  0  0  0  0  0  0  0
   57.6348   31.9369   47.1810 H   0  0  0  0  0  0  0  0  0  0  0  0
   56.1007   30.3063   43.0553 H   0  0  0  0  0  0  0  0  0  0  0  0
   57.6702   30.3794   42.0284 H   0  0  0  0  0  0  0  0  0  0  0  0
   58.6800   28.9410   43.4770 H   0  0  0  0  0  0  0  0  0  0  0  0
   56.3130   26.7060   44.9614 H   0  0  0  0  0  0  0  0  0  0  0  0
   58.0061   21.6191   45.4122 H   0  0  0  0  0  0  0  0  0  0  0  0
   56.2891   21.4867   45.2908 H   0  0  0  0  0  0  0  0  0  0  0  0
   58.3616   21.8047   42.9716 H   0  0  0  0  0  0  0  0  0  0  0  0
   57.2039   20.5274   43.0771 H   0  0  0  0  0  0  0  0  0  0  0  0
   56.7575   23.0915   41.8600 H   0  0  0  0  0  0  0  0  0  0  0  0
   55.4410   21.9960   42.3128 H   0  0  0  0  0  0  0  0  0  0  0  0
   55.7647   24.5209   43.4169 H   0  0  0  0  0  0  0  0  0  0  0  0
   54.9657   23.2577   44.3003 H   0  0  0  0  0  0  0  0  0  0  0  0
   58.8088   24.9266   47.9158 H   0  0  0  0  0  0  0  0  0  0  0  0
   59.9621   27.0743   48.2812 H   0  0  0  0  0  0  0  0  0  0  0  0
   60.0417   29.8738   45.1000 H   0  0  0  0  0  0  0  0  0  0  0  0
   59.4839   31.2364   45.9842 H   0  0  0  0  0  0  0  0  0  0  0  0
   61.9466   29.4158   46.7139 H   0  0  0  0  0  0  0  0  0  0  0  0
   62.1167   31.0618   46.2372 H   0  0  0  0  0  0  0  0  0  0  0  0
   61.7934   30.4972   48.8690 H   0  0  0  0  0  0  0  0  0  0  0  0
   60.8630   31.8516   48.2670 H   0  0  0  0  0  0  0  0  0  0  0  0
   59.9295   29.1900   49.1329 H   0  0  0  0  0  0  0  0  0  0  0  0
   58.9305   30.5969   48.7255 H   0  0  0  0  0  0  0  0  0  0  0  0
   58.1030   34.3160   43.7560 H   0  0  0  0  0  0  0  0  0  0  0  0
   60.0430   35.3930   47.2910 H   0  0  0  0  0  0  0  0  0  0  0  0
  1  2  1  0
  2  3  2  0
  3  4  1  0
  4  5  2  0
  5  6  1  0
  6  7  2  0
  6  8  1  0
  8  9  1  0
  9 10  1  0
 10 11  2  0
 10 12  1  0
 12 13  2  0
 13 14  1  0
 14 15  1  0
 15 16  2  0
 15 17  2  0
 15 18  1  0
 18 19  1  0
 19 20  1  0
 20 21  1  0
 21 22  1  0
 14 23  2  0
 23 24  1  0
 24 25  2  0
 25 26  1  0
 26 27  1  0
 27 28  1  0
 28 29  1  0
 29 30  1  0
  4 31  1  0
 31 32  1  0
 32 33  2  0
 32 34  1  0
 34  2  1  0
 25 12  1  0
 30 26  1  0
 22 18  1  0
  1 35  1  0
  1 36  1  0
  1 37  1  0
  3 38  1  0
  8 39  1  0
  8 40  1  0
  9 41  1  0
 13 42  1  0
 19 43  1  0
 19 44  1  0
 20 45  1  0
 20 46  1  0
 21 47  1  0
 21 48  1  0
 22 49  1  0
 22 50  1  0
 23 51  1  0
 24 52  1  0
 27 53  1  0
 27 54  1  0
 28 55  1  0
 28 56  1  0
 29 57  1  0
 29 58  1  0
 30 59  1  0
 30 60  1  0
 31 61  1  0
 34 62  1  0
M  END
>  <smiles>  (6) 
Cc1cc(=NC(=O)CNC(=O)c2cc(S(=O)(=O)N3CCCC3)ccc2N2CCCC2)[nH]c(=O)[nH]1

>  <score_type>  (6) 
oracle

>  <origin>  (6) 
adg

>  <m_score__min__energy>  (6) 
-10.4

>  <m_primary>  (6) 
energy

$$$$
6:0
     RDKit          3D

 56 59  0  0  0  0  0  0  0  0999 V2000
   57.0740   22.8940   44.6050 O   0  0  0  0  0  0  0  0  0  0  0  0
   57.1400   24.0760   45.0310 C   0  0  0  0  0  0  0  0  0  0  0  0
   56.0020   24.7680   45.2870 N   0  0  0  0  0  0  0  0  0  0  0  0
   56.0460   26.0460   45.7450 C   0  0  0  0  0  0  0  0  0  0  0  0
   54.8570   26.7150   46.0120 O   0  0  0  0  0  0  0  0  0  0  0  0
   57.2860   26.6770   45.9570 C   0  0  0  0  0  0  0  0  0  0  0  0
   57.3520   28.1140   46.4370 C   0  0  0  0  0  0  0  0  0  0  0  0
   57.4160   29.1670   45.3380 C   0  0  0  0  0  0  0  0  0  0  0  0
   56.7250   28.9750   44.1210 C   0  0  0  0  0  0  0  0  0  0  0  0
   56.7600   29.9370   43.1130 C   0  0  0  0  0  0  0  0  0  0  0  0
   57.4540   31.1310   43.3050 C   0  0  0  0  0  0  0  0  0  0  0  0
   57.4890   32.1020   42.3060 O   0  0  0  0  0  0  0  0  0  0  0  0
   58.1070   31.3640   44.5130 C   0  0  0  0  0  0  0  0  0  0  0  0
   58.1020   30.4030   45.5420 C   0  0  0  0  0  0  0  0  0  0  0  0
   58.7660   30.7760   46.8570 C   0  0  0  0  0  0  0  0  0  0  0  0
   58.5810   32.2590   47.2360 C   0  0  0  0  0  0  0  0  0  0  0  0
   59.6170   33.2060   46.6040 C   0  0  0  0  0  0  0  0  0  0  0  0
   60.8860   33.2560   47.3610 N   0  0  0  0  0  0  0  0  0  0  0  0
   61.9700   33.7970   46.5150 C   0  0  0  0  0  0  0  0  0  0  0  0
   63.3200   33.5060   47.1800 C   0  0  0  0  0  0  0  0  0  0  0  0
   63.1880   33.5250   48.6400 N   0  0  0  0  0  0  0  0  0  0  0  0
   64.1260   32.7880   49.4460 C   0  0  0  0  0  0  0  0  0  0  0  0
   63.7120   31.6960   50.2280 C   0  0  0  0  0  0  0  0  0  0  0  0
   64.6590   30.9840   50.9670 C   0  0  0  0  0  0  0  0  0  0  0  0
   66.0030   31.3550   50.9160 C   0  0  0  0  0  0  0  0  0  0  0  0
   66.3840   32.4310   50.1150 C   0  0  0  0  0  0  0  0  0  0  0  0
   65.4490   33.1130   49.4020 N   0  0  0  0  0  0  0  0  0  0  0  0
   62.1430   34.3720   49.2310 C   0  0  0  0  0  0  0  0  0  0  0  0
   60.7670   34.0400   48.6150 C   0  0  0  0  0  0  0  0  0  0  0  0
   58.4510   25.9310   45.6890 C   0  0  0  0  0  0  0  0  0  0  0  0
   59.5930   26.4290   45.8690 O   0  0  0  0  0  0  0  0  0  0  0  0
   58.3490   24.6550   45.2350 N   0  0  0  0  0  0  0  0  0  0  0  0
   56.4559   28.3107   47.0439 H   0  0  0  0  0  0  0  0  0  0  0  0
   58.2939   28.2035   46.9981 H   0  0  0  0  0  0  0  0  0  0  0  0
   56.1494   28.0505   43.9662 H   0  0  0  0  0  0  0  0  0  0  0  0
   56.2381   29.7535   42.1623 H   0  0  0  0  0  0  0  0  0  0  0  0
   56.6690   32.6480   42.0690 H   0  0  0  0  0  0  0  0  0  0  0  0
   58.6362   32.3161   44.6659 H   0  0  0  0  0  0  0  0  0  0  0  0
   58.3327   30.1553   47.6551 H   0  0  0  0  0  0  0  0  0  0  0  0
   59.8457   30.6033   46.7367 H   0  0  0  0  0  0  0  0  0  0  0  0
   57.5795   32.5761   46.9096 H   0  0  0  0  0  0  0  0  0  0  0  0
   58.7152   32.3258   48.3257 H   0  0  0  0  0  0  0  0  0  0  0  0
   59.8311   32.8605   45.5818 H   0  0  0  0  0  0  0  0  0  0  0  0
   59.1873   34.2186   46.6115 H   0  0  0  0  0  0  0  0  0  0  0  0
   61.9371   33.3195   45.5246 H   0  0  0  0  0  0  0  0  0  0  0  0
   61.8414   34.8833   46.3987 H   0  0  0  0  0  0  0  0  0  0  0  0
   63.6742   32.5145   46.8614 H   0  0  0  0  0  0  0  0  0  0  0  0
   64.0398   34.2810   46.8778 H   0  0  0  0  0  0  0  0  0  0  0  0
   62.6516   31.4049   50.2576 H   0  0  0  0  0  0  0  0  0  0  0  0
   64.3459   30.1320   51.5883 H   0  0  0  0  0  0  0  0  0  0  0  0
   66.7541   30.8045   51.5015 H   0  0  0  0  0  0  0  0  0  0  0  0
   67.4417   32.7280   50.0601 H   0  0  0  0  0  0  0  0  0  0  0  0
   62.1057   34.1970   50.3163 H   0  0  0  0  0  0  0  0  0  0  0  0
   62.3803   35.4262   49.0254 H   0  0  0  0  0  0  0  0  0  0  0  0
   60.1849   33.4562   49.3433 H   0  0  0  0  0  0  0  0  0  0  0  0
   60.2690   34.9902   48.3719 H   0  0  0  0  0  0  0  0  0  0  0  0
  1  2  2  0
  2  3  1  0
  3  4  1  0
  4  5  1  0
  4  6  2  0
  6  7  1  0
  7  8  1  0
  8  9  2  0
  9 10  1  0
 10 11  2  0
 11 12  1  0
 11 13  1  0
 13 14  2  0
 14 15  1  0
 15 16  1  0
 16 17  1  0
 17 18  1  0
 18 19  1  0
 19 20  1  0
 20 21  1  0
 21 22  1  0
 22 23  2  0
 23 24  1  0
 24 25  2  0
 25 26  1  0
 26 27  2  0
 21 28  1  0
 28 29  1  0
  6 30  1  0
 30 31  2  0
 30 32  1  0
 32  2  1  0
 14  8  1  0
 29 18  1  0
 27 22  1  0
  7 33  1  0
  7 34  1  0
  9 35  1  0
 10 36  1  0
 12 37  1  0
 13 38  1  0
 15 39  1  0
 15 40  1  0
 16 41  1  0
 16 42  1  0
 17 43  1  0
 17 44  1  0
 19 45  1  0
 19 46  1  0
 20 47  1  0
 20 48  1  0
 23 49  1  0
 24 50  1  0
 25 51  1  0
 26 52  1  0
 28 53  1  0
 28 54  1  0
 29 55  1  0
 29 56  1  0
M  CHG  3   3  -1   5  -1  32  -1
M  END
>  <UniqueID>  (7) 
6

>  <SMILES>  (7) 
O=c1[n-]c([O-])c(Cc2ccc(O)cc2CCCN2CCN(c3ccccn3)CC2)c(=O)[n-]1

>  <Energy>  (7) 
71.65666726574287

>  <Genealogy>  (7) 
O=c1[n-]c([O-])c(Cc2ccc(O)cc2CCCN2CCN(c3ccccn3)CC2)c(=O)[n-]1 (protonated)
O=c1[n-]c([O-])c(Cc2ccc(O)cc2CCCN2CCN(c3ccccn3)CC2)c(=O)[n-]1 (3D coordinates assigned)
O=c1[n-]c([O-])c(Cc2ccc(O)cc2CCCN2CCN(c3ccccn3)CC2)c(=O)[n-]1 (nonaromatic ring conformer: 71.65666726574287 kcal/mol)

>  <smiles>  (7) 
O=c1[nH]c(O)c(Cc2ccc(O)cc2CCCN2CCN(c3ccccn3)CC2)c(=O)[nH]1

>  <score_type>  (7) 
oracle

>  <origin>  (7) 
adg

>  <m_score__min__energy>  (7) 
-16.170000000000002

>  <m_primary>  (7) 
energy

$$$$
7:0
     RDKit          3D

 51 54  0  0  0  0  0  0  0  0999 V2000
   55.3400   30.0910   45.6050 H   0  0  0  0  0  0  0  0  0  0  0  0
   55.5390   29.1690   45.2430 O   0  0  0  0  0  0  0  0  0  0  0  0
   56.8080   28.5900   45.2990 C   0  0  0  0  0  0  0  0  0  0  0  0
   56.8770   27.2250   45.5980 C   0  0  0  0  0  0  0  0  0  0  0  0
   55.9578   26.6210   45.6105 H   0  0  0  0  0  0  0  0  0  0  0  0
   58.1030   26.6260   45.8800 C   0  0  0  0  0  0  0  0  0  0  0  0
   58.1567   25.5532   46.1172 H   0  0  0  0  0  0  0  0  0  0  0  0
   59.2590   27.4010   45.8580 C   0  0  0  0  0  0  0  0  0  0  0  0
   60.2266   26.9543   46.1304 H   0  0  0  0  0  0  0  0  0  0  0  0
   59.1910   28.7090   45.5000 N   0  0  0  0  0  0  0  0  0  0  0  0
   58.0220   29.3250   45.1700 C   0  0  0  0  0  0  0  0  0  0  0  0
   58.0960   30.5510   44.7300 N   0  0  0  0  0  0  0  0  0  0  0  0
   57.4290   31.7300   45.2020 C   0  0  0  0  0  0  0  0  0  0  0  0
   56.2330   31.9510   44.8640 O   0  0  0  0  0  0  0  0  0  0  0  0
   58.1730   32.7390   45.9920 C   0  0  0  0  0  0  0  0  0  0  0  0
   58.5090   33.9830   45.4280 C   0  0  0  0  0  0  0  0  0  0  0  0
   58.2200   34.2088   44.3910 H   0  0  0  0  0  0  0  0  0  0  0  0
   59.2070   34.9330   46.1760 C   0  0  0  0  0  0  0  0  0  0  0  0
   59.4649   35.9029   45.7258 H   0  0  0  0  0  0  0  0  0  0  0  0
   59.5790   34.6570   47.4930 C   0  0  0  0  0  0  0  0  0  0  0  0
   60.1230   35.4131   48.0781 H   0  0  0  0  0  0  0  0  0  0  0  0
   59.2620   33.4190   48.0740 C   0  0  0  0  0  0  0  0  0  0  0  0
   59.6450   33.1390   49.5090 C   0  0  0  0  0  0  0  0  0  0  0  0
   59.1661   33.8848   50.1604 H   0  0  0  0  0  0  0  0  0  0  0  0
   60.7402   33.1957   49.5950 H   0  0  0  0  0  0  0  0  0  0  0  0
   59.2110   31.7850   49.9240 N   0  0  0  0  0  0  0  0  0  0  0  0
   59.8470   30.6450   49.4730 C   0  0  0  0  0  0  0  0  0  0  0  0
   60.9950   30.6910   48.4930 C   0  0  0  0  0  0  0  0  0  0  0  0
   61.9462   30.7291   49.0441 H   0  0  0  0  0  0  0  0  0  0  0  0
   60.9735   29.7913   47.8605 H   0  0  0  0  0  0  0  0  0  0  0  0
   60.9015   31.5861   47.8605 H   0  0  0  0  0  0  0  0  0  0  0  0
   59.4040   29.3900   49.9160 C   0  0  0  0  0  0  0  0  0  0  0  0
   59.8967   28.4748   49.5559 H   0  0  0  0  0  0  0  0  0  0  0  0
   58.3710   29.3040   50.7860 N   0  0  0  0  0  0  0  0  0  0  0  0
   57.7380   30.4120   51.2470 C   0  0  0  0  0  0  0  0  0  0  0  0
   56.7470   30.3100   52.0870 N   0  0  0  0  0  0  0  0  0  0  0  0
   55.4810   31.0320   51.9820 C   0  0  0  0  0  0  0  0  0  0  0  0
   55.3883   31.7279   52.8288 H   0  0  0  0  0  0  0  0  0  0  0  0
   55.4634   31.5896   51.0340 H   0  0  0  0  0  0  0  0  0  0  0  0
   54.3050   30.0460   52.0050 C   0  0  0  0  0  0  0  0  0  0  0  0
   54.9080   29.1679   52.2794 H   0  0  0  0  0  0  0  0  0  0  0  0
   52.9890   30.6590   52.4590 C   0  0  0  0  0  0  0  0  0  0  0  0
   52.2951   30.0735   53.0800 H   0  0  0  0  0  0  0  0  0  0  0  0
   52.7031   31.5728   53.0004 H   0  0  0  0  0  0  0  0  0  0  0  0
   53.1910   30.2960   50.9980 C   0  0  0  0  0  0  0  0  0  0  0  0
   52.6437   29.4475   50.5614 H   0  0  0  0  0  0  0  0  0  0  0  0
   53.1122   30.8378   50.0440 H   0  0  0  0  0  0  0  0  0  0  0  0
   58.1610   31.6750   50.8070 C   0  0  0  0  0  0  0  0  0  0  0  0
   57.5690   32.7080   51.2320 O   0  0  0  0  0  0  0  0  0  0  0  0
   58.5460   32.4720   47.3220 C   0  0  0  0  0  0  0  0  0  0  0  0
   58.2736   31.5093   47.7793 H   0  0  0  0  0  0  0  0  0  0  0  0
  1  2  1  0
  2  3  1  0
  3  4  2  0
  4  5  1  0
  4  6  1  0
  6  7  1  0
  6  8  2  0
  8  9  1  0
  8 10  1  0
 10 11  1  0
 11 12  2  3
 12 13  1  0
 13 14  2  0
 13 15  1  0
 15 16  2  0
 16 17  1  0
 16 18  1  0
 18 19  1  0
 18 20  2  0
 20 21  1  0
 20 22  1  0
 22 23  1  0
 23 24  1  0
 23 25  1  0
 23 26  1  0
 26 27  1  0
 27 28  1  0
 28 29  1  0
 28 30  1  0
 28 31  1  0
 27 32  2  0
 32 33  1  0
 32 34  1  0
 34 35  1  0
 35 36  2  0
 36 37  1  0
 37 38  1  0
 37 39  1  0
 37 40  1  0
 40 41  1  0
 40 42  1  0
 42 43  1  0
 42 44  1  0
 42 45  1  0
 45 46  1  0
 45 47  1  0
 35 48  1  0
 48 49  2  0
 22 50  2  0
 50 51  1  0
 11  3  1  0
 50 15  1  0
 48 26  1  0
 45 40  1  0
M  CHG  2  10  -1  34  -1
M  END
>  <UniqueID>  (8) 
7

>  <SMILES>  (8) 
Cc1c[n-]/c(=N\CC2CC2)c(=O)n1Cc1cccc(C(=O)N=c2[n-]cccc2O)c1

>  <Energy>  (8) 
341.00354229583917

>  <Genealogy>  (8) 
Cc1c[n-]c(=NCC2CC2)c(=O)n1Cc1cccc(C(=O)N=c2[n-]cccc2O)c1 (protonated)
Cc1c[n-]/c(=N\CC2CC2)c(=O)n1Cc1cccc(C(=O)N=c2[n-]cccc2O)c1 (cis-trans isomerization)
Cc1c[n-]/c(=N\CC2CC2)c(=O)n1Cc1cccc(C(=O)N=c2[n-]cccc2O)c1 (3D coordinates assigned)
Cc1c[n-]/c(=N\CC2CC2)c(=O)n1Cc1cccc(C(=O)N=c2[n-]cccc2O)c1 (nonaromatic ring conformer: 341.00354229583917 kcal/mol)

>  <smiles>  (8) 
Cc1c[nH]c(=NCC2CC2)c(=O)n1Cc1cccc(C(=O)N=c2[nH]cccc2O)c1

>  <score_type>  (8) 
oracle

>  <origin>  (8) 
adg

>  <m_score__min__energy>  (8) 
-11.56

>  <m_primary>  (8) 
energy

$$$$
8:0
     RDKit          3D

 64 67  0  0  0  0  0  0  0  0999 V2000
   53.1590   22.1380   46.9880 C   0  0  0  0  0  0  0  0  0  0  0  0
   53.2480   22.5260   45.6220 O   0  0  0  0  0  0  0  0  0  0  0  0
   54.1020   23.5410   45.1790 C   0  0  0  0  0  0  0  0  0  0  0  0
   54.3950   24.5070   45.9330 O   0  0  0  0  0  0  0  0  0  0  0  0
   54.6700   23.4790   43.8720 N   0  0  0  0  0  0  0  0  0  0  0  0
   56.0910   22.5510   43.5260 S   0  0  0  0  0  0  0  0  0  0  0  0
   55.8970   21.8650   42.2030 O   0  0  0  0  0  0  0  0  0  0  0  0
   57.2730   23.4720   43.4230 O   0  0  0  0  0  0  0  0  0  0  0  0
   56.3930   21.3540   44.7990 C   0  0  0  0  0  0  0  0  0  0  0  0
   55.9320   20.0410   44.6040 C   0  0  0  0  0  0  0  0  0  0  0  0
   56.0850   19.0770   45.6020 C   0  0  0  0  0  0  0  0  0  0  0  0
   56.7010   19.4110   46.8070 C   0  0  0  0  0  0  0  0  0  0  0  0
   57.1740   20.7070   47.0140 C   0  0  0  0  0  0  0  0  0  0  0  0
   57.0390   21.6860   46.0160 C   0  0  0  0  0  0  0  0  0  0  0  0
   57.5880   23.0320   46.2790 C   0  0  0  0  0  0  0  0  0  0  0  0
   56.9170   23.9190   47.1330 C   0  0  0  0  0  0  0  0  0  0  0  0
   57.4270   25.1980   47.3640 C   0  0  0  0  0  0  0  0  0  0  0  0
   58.6090   25.6170   46.7320 C   0  0  0  0  0  0  0  0  0  0  0  0
   59.1590   26.9670   46.9850 C   0  0  0  0  0  0  0  0  0  0  0  0
   60.0910   27.1040   47.8260 O   0  0  0  0  0  0  0  0  0  0  0  0
   58.6460   28.1280   46.3020 N   0  0  0  0  0  0  0  0  0  0  0  0
   58.2200   28.0570   44.9000 C   0  0  0  0  0  0  0  0  0  0  0  0
   58.7250   29.2880   44.1310 C   0  0  0  0  0  0  0  0  0  0  0  0
   58.5260   30.5810   44.8440 N   0  0  0  0  0  0  0  0  0  0  0  0
   57.8360   31.5840   44.0030 C   0  0  0  0  0  0  0  0  0  0  0  0
   57.0460   32.5770   44.8670 C   0  0  0  0  0  0  0  0  0  0  0  0
   57.9660   33.5280   45.5860 C   0  0  0  0  0  0  0  0  0  0  0  0
   58.1220   33.4420   46.9790 C   0  0  0  0  0  0  0  0  0  0  0  0
   59.0030   34.3000   47.6440 C   0  0  0  0  0  0  0  0  0  0  0  0
   59.7410   35.2420   46.9230 C   0  0  0  0  0  0  0  0  0  0  0  0
   59.5990   35.3260   45.5360 C   0  0  0  0  0  0  0  0  0  0  0  0
   58.7180   34.4710   44.8680 C   0  0  0  0  0  0  0  0  0  0  0  0
   57.8620   30.4580   46.1580 C   0  0  0  0  0  0  0  0  0  0  0  0
   58.5630   29.4040   47.0170 C   0  0  0  0  0  0  0  0  0  0  0  0
   59.2830   24.7260   45.8800 C   0  0  0  0  0  0  0  0  0  0  0  0
   58.7680   23.4480   45.6450 C   0  0  0  0  0  0  0  0  0  0  0  0
   53.3587   23.0085   47.6302 H   0  0  0  0  0  0  0  0  0  0  0  0
   52.1493   21.7536   47.1949 H   0  0  0  0  0  0  0  0  0  0  0  0
   53.9002   21.3520   47.1949 H   0  0  0  0  0  0  0  0  0  0  0  0
   55.4456   19.7700   43.6553 H   0  0  0  0  0  0  0  0  0  0  0  0
   55.7191   18.0528   45.4373 H   0  0  0  0  0  0  0  0  0  0  0  0
   56.8142   18.6521   47.5952 H   0  0  0  0  0  0  0  0  0  0  0  0
   57.6573   20.9646   47.9680 H   0  0  0  0  0  0  0  0  0  0  0  0
   55.9837   23.6054   47.6236 H   0  0  0  0  0  0  0  0  0  0  0  0
   56.8996   25.8818   48.0454 H   0  0  0  0  0  0  0  0  0  0  0  0
   58.6322   27.1466   44.4403 H   0  0  0  0  0  0  0  0  0  0  0  0
   57.1210   28.0329   44.8587 H   0  0  0  0  0  0  0  0  0  0  0  0
   59.8014   29.1598   43.9443 H   0  0  0  0  0  0  0  0  0  0  0  0
   58.1341   29.3449   43.2050 H   0  0  0  0  0  0  0  0  0  0  0  0
   58.5839   32.1353   43.4141 H   0  0  0  0  0  0  0  0  0  0  0  0
   57.1324   31.0602   43.3392 H   0  0  0  0  0  0  0  0  0  0  0  0
   56.3679   33.1538   44.2209 H   0  0  0  0  0  0  0  0  0  0  0  0
   56.4777   32.0087   45.6180 H   0  0  0  0  0  0  0  0  0  0  0  0
   57.5486   32.6964   47.5493 H   0  0  0  0  0  0  0  0  0  0  0  0
   59.1152   34.2333   48.7362 H   0  0  0  0  0  0  0  0  0  0  0  0
   60.4334   35.9171   47.4473 H   0  0  0  0  0  0  0  0  0  0  0  0
   60.1817   36.0665   44.9684 H   0  0  0  0  0  0  0  0  0  0  0  0
   58.6135   34.5374   43.7750 H   0  0  0  0  0  0  0  0  0  0  0  0
   57.8990   31.4286   46.6744 H   0  0  0  0  0  0  0  0  0  0  0  0
   56.8174   30.1511   46.0010 H   0  0  0  0  0  0  0  0  0  0  0  0
   59.5790   29.7506   47.2570 H   0  0  0  0  0  0  0  0  0  0  0  0
   57.9834   29.2562   47.9401 H   0  0  0  0  0  0  0  0  0  0  0  0
   60.2207   25.0357   45.3955 H   0  0  0  0  0  0  0  0  0  0  0  0
   59.2908   22.7650   44.9593 H   0  0  0  0  0  0  0  0  0  0  0  0
  1  2  1  0
  2  3  1  0
  3  4  2  0
  3  5  1  0
  5  6  1  0
  6  7  2  0
  6  8  2  0
  6  9  1  0
  9 10  2  0
 10 11  1  0
 11 12  2  0
 12 13  1  0
 13 14  2  0
 14 15  1  0
 15 16  2  0
 16 17  1  0
 17 18  2  0
 18 19  1  0
 19 20  2  0
 19 21  1  0
 21 22  1  0
 22 23  1  0
 23 24  1  0
 24 25  1  0
 25 26  1  0
 26 27  1  0
 27 28  2  0
 28 29  1  0
 29 30  2  0
 30 31  1  0
 31 32  2  0
 24 33  1  0
 33 34  1  0
 18 35  1  0
 35 36  2  0
 14  9  1  0
 36 15  1  0
 34 21  1  0
 32 27  1  0
  1 37  1  0
  1 38  1  0
  1 39  1  0
 10 40  1  0
 11 41  1  0
 12 42  1  0
 13 43  1  0
 16 44  1  0
 17 45  1  0
 22 46  1  0
 22 47  1  0
 23 48  1  0
 23 49  1  0
 25 50  1  0
 25 51  1  0
 26 52  1  0
 26 53  1  0
 28 54  1  0
 29 55  1  0
 30 56  1  0
 31 57  1  0
 32 58  1  0
 33 59  1  0
 33 60  1  0
 34 61  1  0
 34 62  1  0
 35 63  1  0
 36 64  1  0
M  CHG  1   5  -1
M  END
>  <UniqueID>  (9) 
8

>  <SMILES>  (9) 
COC(=O)[N-]S(=O)(=O)c1ccccc1-c1ccc(C(=O)N2CCN(CCc3ccccc3)CC2)cc1

>  <Energy>  (9) 
82.32366191132552

>  <Genealogy>  (9) 
COC(=O)[N-]S(=O)(=O)c1ccccc1-c1ccc(C(=O)N2CCN(CCc3ccccc3)CC2)cc1 (protonated)
COC(=O)[N-]S(=O)(=O)c1ccccc1-c1ccc(C(=O)N2CCN(CCc3ccccc3)CC2)cc1 (3D coordinates assigned)
COC(=O)[N-]S(=O)(=O)c1ccccc1-c1ccc(C(=O)N2CCN(CCc3ccccc3)CC2)cc1 (nonaromatic ring conformer: 82.32366191132552 kcal/mol)

>  <smiles>  (9) 
COC(=O)NS(=O)(=O)c1ccccc1-c1ccc(C(=O)N2CCN(CCc3ccccc3)CC2)cc1

>  <score_type>  (9) 
oracle

>  <origin>  (9) 
adg

>  <m_score__min__energy>  (9) 
-11.49

>  <m_primary>  (9) 
energy

$$$$
9:0
     RDKit          3D

 60 64  0  0  0  0  0  0  0  0999 V2000
   58.8400   29.3410   51.5750 C   0  0  0  0  0  0  0  0  0  0  0  0
   57.7230   29.9400   52.3010 N   0  0  0  0  0  0  0  0  0  0  0  0
   56.5310   29.3660   52.3490 N   0  0  0  0  0  0  0  0  0  0  0  0
   55.6980   30.1830   53.0260 C   0  0  0  0  0  0  0  0  0  0  0  0
   54.2750   29.8960   53.2750 C   0  0  0  0  0  0  0  0  0  0  0  0
   53.8900   29.6760   54.4520 O   0  0  0  0  0  0  0  0  0  0  0  0
   53.3250   29.8100   52.2090 N   0  0  0  0  0  0  0  0  0  0  0  0
   52.5050   30.8880   51.7380 C   0  0  0  0  0  0  0  0  0  0  0  0
   51.8510   31.8350   52.5040 C   0  0  0  0  0  0  0  0  0  0  0  0
   51.0980   32.6300   51.7160 N   0  0  0  0  0  0  0  0  0  0  0  0
   51.2750   32.1610   50.4670 C   0  0  0  0  0  0  0  0  0  0  0  0
   50.6490   32.7110   49.3520 O   0  0  0  0  0  0  0  0  0  0  0  0
   52.1270   31.0780   50.4330 C   0  0  0  0  0  0  0  0  0  0  0  0
   56.3790   31.3130   53.4390 C   0  0  0  0  0  0  0  0  0  0  0  0
   57.6570   31.1260   52.9630 C   0  0  0  0  0  0  0  0  0  0  0  0
   58.6090   32.0030   53.1050 N   0  0  0  0  0  0  0  0  0  0  0  0
   59.6860   32.2630   52.2010 C   0  0  0  0  0  0  0  0  0  0  0  0
   60.8580   32.3540   52.6540 O   0  0  0  0  0  0  0  0  0  0  0  0
   59.4090   32.4680   50.7560 C   0  0  0  0  0  0  0  0  0  0  0  0
   58.1100   32.2410   50.2700 C   0  0  0  0  0  0  0  0  0  0  0  0
   57.8180   32.3680   48.9090 C   0  0  0  0  0  0  0  0  0  0  0  0
   58.8240   32.7080   47.9970 C   0  0  0  0  0  0  0  0  0  0  0  0
   58.5230   32.8290   46.5480 C   0  0  0  0  0  0  0  0  0  0  0  0
   58.1250   31.7030   45.8050 C   0  0  0  0  0  0  0  0  0  0  0  0
   57.8180   31.8260   44.4460 C   0  0  0  0  0  0  0  0  0  0  0  0
   57.9040   33.0750   43.8190 C   0  0  0  0  0  0  0  0  0  0  0  0
   58.3140   34.1940   44.5430 C   0  0  0  0  0  0  0  0  0  0  0  0
   58.6200   34.0770   45.9010 C   0  0  0  0  0  0  0  0  0  0  0  0
   60.1220   32.9370   48.4730 C   0  0  0  0  0  0  0  0  0  0  0  0
   60.4190   32.8490   49.8390 C   0  0  0  0  0  0  0  0  0  0  0  0
   61.7730   33.0710   50.2550 N   0  0  0  0  0  0  0  0  0  0  0  0
   62.9380   32.9830   49.3600 C   0  0  0  0  0  0  0  0  0  0  0  0
   62.9310   31.6710   48.5900 C   0  0  0  0  0  0  0  0  0  0  0  0
   63.6850   31.9390   47.2920 C   0  0  0  0  0  0  0  0  0  0  0  0
   63.7930   33.4550   47.1440 C   0  0  0  0  0  0  0  0  0  0  0  0
   62.9830   34.0600   48.2800 C   0  0  0  0  0  0  0  0  0  0  0  0
   59.5747   28.9470   52.2927 H   0  0  0  0  0  0  0  0  0  0  0  0
   58.4688   28.5209   50.9428 H   0  0  0  0  0  0  0  0  0  0  0  0
   59.3177   30.1040   50.9428 H   0  0  0  0  0  0  0  0  0  0  0  0
   51.9327   31.9269   53.5971 H   0  0  0  0  0  0  0  0  0  0  0  0
   52.4358   30.4945   49.5531 H   0  0  0  0  0  0  0  0  0  0  0  0
   55.9894   32.1652   54.0152 H   0  0  0  0  0  0  0  0  0  0  0  0
   57.3109   31.9591   50.9714 H   0  0  0  0  0  0  0  0  0  0  0  0
   56.7911   32.1997   48.5523 H   0  0  0  0  0  0  0  0  0  0  0  0
   58.0548   30.7208   46.2952 H   0  0  0  0  0  0  0  0  0  0  0  0
   57.5090   30.9415   43.8697 H   0  0  0  0  0  0  0  0  0  0  0  0
   57.6478   33.1736   42.7538 H   0  0  0  0  0  0  0  0  0  0  0  0
   58.3966   35.1707   44.0438 H   0  0  0  0  0  0  0  0  0  0  0  0
   58.9384   34.9640   46.4684 H   0  0  0  0  0  0  0  0  0  0  0  0
   60.9217   33.1903   47.7614 H   0  0  0  0  0  0  0  0  0  0  0  0
   61.9310   33.3720   51.2460 H   0  0  0  0  0  0  0  0  0  0  0  0
   63.7969   33.0915   50.0386 H   0  0  0  0  0  0  0  0  0  0  0  0
   63.4368   30.8851   49.1701 H   0  0  0  0  0  0  0  0  0  0  0  0
   61.9053   31.3247   48.3950 H   0  0  0  0  0  0  0  0  0  0  0  0
   64.6887   31.4914   47.3387 H   0  0  0  0  0  0  0  0  0  0  0  0
   63.1583   31.4970   46.4333 H   0  0  0  0  0  0  0  0  0  0  0  0
   64.8444   33.7698   47.2177 H   0  0  0  0  0  0  0  0  0  0  0  0
   63.4145   33.7866   46.1658 H   0  0  0  0  0  0  0  0  0  0  0  0
   63.4728   34.9681   48.6615 H   0  0  0  0  0  0  0  0  0  0  0  0
   61.9751   34.3556   47.9531 H   0  0  0  0  0  0  0  0  0  0  0  0
  1  2  1  0
  2  3  1  0
  3  4  1  0
  4  5  1  0
  5  6  2  0
  5  7  1  0
  7  8  1  0
  8  9  2  0
  9 10  1  0
 10 11  1  0
 11 12  1  0
 11 13  2  0
  4 14  2  0
 14 15  1  0
 15 16  2  3
 16 17  1  0
 17 18  2  0
 17 19  1  0
 19 20  2  0
 20 21  1  0
 21 22  2  0
 22 23  1  0
 23 24  2  0
 24 25  1  0
 25 26  2  0
 26 27  1  0
 27 28  2  0
 22 29  1  0
 29 30  2  0
 30 31  1  0
 31 32  1  0
 32 33  1  0
 33 34  1  0
 34 35  1  0
 35 36  1  0
 15  2  1  0
 30 19  1  0
 36 32  1  0
 13  8  1  0
 28 23  1  0
  1 37  1  0
  1 38  1  0
  1 39  1  0
  9 40  1  0
 13 41  1  0
 14 42  1  0
 20 43  1  0
 21 44  1  0
 24 45  1  0
 25 46  1  0
 26 47  1  0
 27 48  1  0
 28 49  1  0
 29 50  1  0
 31 51  1  0
 32 52  1  0
 33 53  1  0
 33 54  1  0
 34 55  1  0
 34 56  1  0
 35 57  1  0
 35 58  1  0
 36 59  1  0
 36 60  1  0
M  CHG  4   3  -1   7  -1  10  -1  12  -1
M  END
>  <UniqueID>  (10) 
9

>  <SMILES>  (10) 
Cn1[n-]c(C(=O)[N-]c2c[n-]c([O-])c2)cc1=NC(=O)c1ccc(-c2ccccc2)cc1NC1CCCC1

>  <Energy>  (10) 
154.50589532128663

>  <Genealogy>  (10) 
Cn1[n-]c(C(=O)[N-]c2c[n-]c([O-])c2)cc1=NC(=O)c1ccc(-c2ccccc2)cc1NC1CCCC1 (protonated)
Cn1[n-]c(C(=O)[N-]c2c[n-]c([O-])c2)cc1=NC(=O)c1ccc(-c2ccccc2)cc1NC1CCCC1 (3D coordinates assigned)
Cn1[n-]c(C(=O)[N-]c2c[n-]c([O-])c2)cc1=NC(=O)c1ccc(-c2ccccc2)cc1NC1CCCC1 (nonaromatic ring conformer: 154.50589532128663 kcal/mol)

>  <smiles>  (10) 
Cn1[nH]c(C(=O)Nc2c[nH]c(O)c2)cc1=NC(=O)c1ccc(-c2ccccc2)cc1NC1CCCC1

>  <score_type>  (10) 
oracle

>  <origin>  (10) 
adg

>  <m_score__min__energy>  (10) 
-19.469999999999999

>  <m_primary>  (10) 
energy

$$$$
10:0
     RDKit          3D

 62 66  0  0  0  0  0  0  0  0999 V2000
   60.0180   32.6590   52.4110 N   0  0  0  0  0  0  0  0  0  0  0  0
   60.0150   31.7420   51.7020 C   0  0  0  0  0  0  0  0  0  0  0  0
   60.0230   30.6050   50.8170 C   0  0  0  0  0  0  0  0  0  0  0  0
   59.3190   30.6570   49.6070 C   0  0  0  0  0  0  0  0  0  0  0  0
   59.3250   29.5620   48.7430 C   0  0  0  0  0  0  0  0  0  0  0  0
   60.0020   28.3790   49.0980 C   0  0  0  0  0  0  0  0  0  0  0  0
   59.9950   27.1980   48.2710 N   0  0  0  0  0  0  0  0  0  0  0  0
   59.1820   26.9240   47.2900 C   0  0  0  0  0  0  0  0  0  0  0  0
   58.8160   27.8740   46.3860 N   0  0  0  0  0  0  0  0  0  0  0  0
   57.9350   27.6110   45.3820 C   0  0  0  0  0  0  0  0  0  0  0  0
   57.5920   28.5970   44.4440 O   0  0  0  0  0  0  0  0  0  0  0  0
   57.7060   29.9790   44.6580 C   0  0  0  0  0  0  0  0  0  0  0  0
   57.5010   30.9230   43.6290 C   0  0  0  0  0  0  0  0  0  0  0  0
   57.5600   32.2920   43.9070 C   0  0  0  0  0  0  0  0  0  0  0  0
   57.8780   32.7380   45.2020 C   0  0  0  0  0  0  0  0  0  0  0  0
   57.8590   34.2100   45.5220 C   0  0  0  0  0  0  0  0  0  0  0  0
   59.2590   34.7050   45.8070 C   0  0  0  0  0  0  0  0  0  0  0  0
   59.6430   35.7400   45.2720 O   0  0  0  0  0  0  0  0  0  0  0  0
   60.1410   33.9750   46.6990 N   0  0  0  0  0  0  0  0  0  0  0  0
   59.9230   34.4090   48.0950 C   0  0  0  0  0  0  0  0  0  0  0  0
   60.9970   33.8850   49.0780 C   0  0  0  0  0  0  0  0  0  0  0  0
   61.9920   33.0080   48.4460 N   0  0  0  0  0  0  0  0  0  0  0  0
   62.7090   32.0660   49.2500 C   0  0  0  0  0  0  0  0  0  0  0  0
   62.5920   30.8320   49.0130 O   0  0  0  0  0  0  0  0  0  0  0  0
   63.6820   32.5460   50.2880 C   0  0  0  0  0  0  0  0  0  0  0  0
   64.9420   31.7030   50.4540 C   0  0  0  0  0  0  0  0  0  0  0  0
   65.0150   33.0430   49.7370 C   0  0  0  0  0  0  0  0  0  0  0  0
   62.4440   33.1990   47.0640 C   0  0  0  0  0  0  0  0  0  0  0  0
   61.5490   34.1810   46.3120 C   0  0  0  0  0  0  0  0  0  0  0  0
   58.1420   31.7940   46.2100 C   0  0  0  0  0  0  0  0  0  0  0  0
   58.0640   30.4250   45.9390 C   0  0  0  0  0  0  0  0  0  0  0  0
   57.3940   26.3290   45.2690 C   0  0  0  0  0  0  0  0  0  0  0  0
   57.7690   25.3630   46.2090 C   0  0  0  0  0  0  0  0  0  0  0  0
   58.6490   25.6790   47.1980 N   0  0  0  0  0  0  0  0  0  0  0  0
   60.7330   28.3500   50.2910 C   0  0  0  0  0  0  0  0  0  0  0  0
   60.7390   29.4520   51.1520 C   0  0  0  0  0  0  0  0  0  0  0  0
   58.7594   31.5648   49.3372 H   0  0  0  0  0  0  0  0  0  0  0  0
   58.7982   29.6227   47.7793 H   0  0  0  0  0  0  0  0  0  0  0  0
   57.2940   30.5804   42.6044 H   0  0  0  0  0  0  0  0  0  0  0  0
   57.3570   33.0225   43.1100 H   0  0  0  0  0  0  0  0  0  0  0  0
   57.4468   34.7621   44.6645 H   0  0  0  0  0  0  0  0  0  0  0  0
   57.2342   34.3738   46.4124 H   0  0  0  0  0  0  0  0  0  0  0  0
   59.9270   32.9490   46.6320 H   0  0  0  0  0  0  0  0  0  0  0  0
   59.9316   35.5086   48.1233 H   0  0  0  0  0  0  0  0  0  0  0  0
   58.9576   33.9915   48.4171 H   0  0  0  0  0  0  0  0  0  0  0  0
   61.5209   34.7484   49.5140 H   0  0  0  0  0  0  0  0  0  0  0  0
   60.4747   33.2862   49.8387 H   0  0  0  0  0  0  0  0  0  0  0  0
   62.9183   32.9429   50.9730 H   0  0  0  0  0  0  0  0  0  0  0  0
   65.3980   31.5859   51.4481 H   0  0  0  0  0  0  0  0  0  0  0  0
   65.2250   30.6703   50.2021 H   0  0  0  0  0  0  0  0  0  0  0  0
   65.5236   33.8943   50.2130 H   0  0  0  0  0  0  0  0  0  0  0  0
   65.3724   33.3796   48.7526 H   0  0  0  0  0  0  0  0  0  0  0  0
   63.4723   33.5894   47.0752 H   0  0  0  0  0  0  0  0  0  0  0  0
   62.3988   32.2279   46.5493 H   0  0  0  0  0  0  0  0  0  0  0  0
   61.8483   35.2102   46.5594 H   0  0  0  0  0  0  0  0  0  0  0  0
   61.6555   34.0124   45.2302 H   0  0  0  0  0  0  0  0  0  0  0  0
   58.4121   32.1356   47.2201 H   0  0  0  0  0  0  0  0  0  0  0  0
   58.2839   29.6954   46.7323 H   0  0  0  0  0  0  0  0  0  0  0  0
   56.6897   26.0842   44.4602 H   0  0  0  0  0  0  0  0  0  0  0  0
   57.3521   24.3469   46.1487 H   0  0  0  0  0  0  0  0  0  0  0  0
   61.3091   27.4507   50.5543 H   0  0  0  0  0  0  0  0  0  0  0  0
   61.3072   29.4115   52.0930 H   0  0  0  0  0  0  0  0  0  0  0  0
  1  2  3  0
  2  3  1  0
  3  4  2  0
  4  5  1  0
  5  6  2  0
  6  7  1  0
  7  8  2  3
  8  9  1  0
  9 10  2  0
 10 11  1  0
 11 12  1  0
 12 13  2  0
 13 14  1  0
 14 15  2  0
 15 16  1  0
 16 17  1  0
 17 18  2  0
 17 19  1  0
 19 20  1  0
 20 21  1  0
 21 22  1  0
 22 23  1  0
 23 24  2  0
 23 25  1  0
 25 26  1  0
 26 27  1  0
 22 28  1  0
 28 29  1  0
 15 30  1  0
 30 31  2  0
 10 32  1  0
 32 33  2  0
 33 34  1  0
  6 35  1  0
 35 36  2  0
 36  3  1  0
 34  8  1  0
 31 12  1  0
 29 19  1  0
 27 25  1  0
  4 37  1  0
  5 38  1  0
 13 39  1  0
 14 40  1  0
 16 41  1  0
 16 42  1  0
 19 43  1  0
 20 44  1  0
 20 45  1  0
 21 46  1  0
 21 47  1  0
 25 48  1  0
 26 49  1  0
 26 50  1  0
 27 51  1  0
 27 52  1  0
 28 53  1  0
 28 54  1  0
 29 55  1  0
 29 56  1  0
 30 57  1  0
 31 58  1  0
 32 59  1  0
 33 60  1  0
 35 61  1  0
 36 62  1  0
M  CHG  2  19   1  34  -1
M  END
>  <UniqueID>  (11) 
10

>  <SMILES>  (11) 
N#Cc1ccc(N=c2nc(Oc3ccc(CC(=O)[NH+]4CCN(C(=O)C5CC5)CC4)cc3)cc[n-]2)cc1

>  <Energy>  (11) 
349.5756703433878

>  <Genealogy>  (11) 
N#Cc1ccc(N=c2nc(Oc3ccc(CC(=O)[NH+]4CCN(C(=O)C5CC5)CC4)cc3)cc[n-]2)cc1 (protonated)
N#Cc1ccc(N=c2nc(Oc3ccc(CC(=O)[NH+]4CCN(C(=O)C5CC5)CC4)cc3)cc[n-]2)cc1 (3D coordinates assigned)
N#Cc1ccc(N=c2nc(Oc3ccc(CC(=O)[NH+]4CCN(C(=O)C5CC5)CC4)cc3)cc[n-]2)cc1 (nonaromatic ring conformer: 349.5756703433878 kcal/mol)

>  <smiles>  (11) 
N#Cc1ccc(N=c2nc(Oc3ccc(CC(=O)N4CCN(C(=O)C5CC5)CC4)cc3)cc[nH]2)cc1

>  <score_type>  (11) 
oracle

>  <origin>  (11) 
adg

>  <m_score__min__energy>  (11) 
-9.3200000000000003

>  <m_primary>  (11) 
energy

$$$$
11:0
     RDKit          3D

 49 52  0  0  0  0  0  0  0  0999 V2000
   59.9440   34.5920   49.2020 C   0  0  0  0  0  0  0  0  0  0  0  0
   59.4270   33.7800   48.0430 C   0  0  0  0  0  0  0  0  0  0  0  0
   58.7030   34.4320   47.0300 C   0  0  0  0  0  0  0  0  0  0  0  0
   58.2090   33.7190   45.9390 C   0  0  0  0  0  0  0  0  0  0  0  0
   58.4390   32.3490   45.8370 C   0  0  0  0  0  0  0  0  0  0  0  0
   59.1550   31.6720   46.8330 C   0  0  0  0  0  0  0  0  0  0  0  0
   59.4060   30.2690   46.6710 N   0  0  0  0  0  0  0  0  0  0  0  0
   58.3710   29.2940   47.0270 C   0  0  0  0  0  0  0  0  0  0  0  0
   59.0160   27.9660   47.4430 C   0  0  0  0  0  0  0  0  0  0  0  0
   59.9470   27.4230   46.4180 N   0  0  0  0  0  0  0  0  0  0  0  0
   59.2960   26.4260   45.5440 C   0  0  0  0  0  0  0  0  0  0  0  0
   57.8750   26.1890   45.9730 C   0  0  0  0  0  0  0  0  0  0  0  0
   57.4980   25.0820   46.6380 N   0  0  0  0  0  0  0  0  0  0  0  0
   56.1560   25.1870   46.6940 C   0  0  0  0  0  0  0  0  0  0  0  0
   55.4290   24.3260   47.2540 O   0  0  0  0  0  0  0  0  0  0  0  0
   55.6540   26.2840   46.0940 N   0  0  0  0  0  0  0  0  0  0  0  0
   56.7460   26.9260   45.6400 C   0  0  0  0  0  0  0  0  0  0  0  0
   56.6680   28.1920   44.8910 C   0  0  0  0  0  0  0  0  0  0  0  0
   57.6020   28.6150   43.9640 C   0  0  0  0  0  0  0  0  0  0  0  0
   57.1230   29.8000   43.4440 C   0  0  0  0  0  0  0  0  0  0  0  0
   55.9120   30.0390   44.0600 C   0  0  0  0  0  0  0  0  0  0  0  0
   55.6350   29.0560   44.9340 N   0  0  0  0  0  0  0  0  0  0  0  0
   60.6430   28.4550   45.6050 C   0  0  0  0  0  0  0  0  0  0  0  0
   60.7490   29.8040   46.3220 C   0  0  0  0  0  0  0  0  0  0  0  0
   59.6240   32.3760   47.9690 C   0  0  0  0  0  0  0  0  0  0  0  0
   60.3560   31.6400   49.0680 C   0  0  0  0  0  0  0  0  0  0  0  0
   59.6413   34.1166   50.1467 H   0  0  0  0  0  0  0  0  0  0  0  0
   61.0417   34.6437   49.1528 H   0  0  0  0  0  0  0  0  0  0  0  0
   59.5265   35.6085   49.1528 H   0  0  0  0  0  0  0  0  0  0  0  0
   58.5246   35.5152   47.0989 H   0  0  0  0  0  0  0  0  0  0  0  0
   57.6364   34.2392   45.1570 H   0  0  0  0  0  0  0  0  0  0  0  0
   58.0556   31.7944   44.9679 H   0  0  0  0  0  0  0  0  0  0  0  0
   57.7745   29.6863   47.8639 H   0  0  0  0  0  0  0  0  0  0  0  0
   57.7245   29.1214   46.1539 H   0  0  0  0  0  0  0  0  0  0  0  0
   59.5769   28.1263   48.3756 H   0  0  0  0  0  0  0  0  0  0  0  0
   58.2053   27.2335   47.5706 H   0  0  0  0  0  0  0  0  0  0  0  0
   59.3034   26.7950   44.5077 H   0  0  0  0  0  0  0  0  0  0  0  0
   59.8495   25.4781   45.6162 H   0  0  0  0  0  0  0  0  0  0  0  0
   58.5402   28.1080   43.6945 H   0  0  0  0  0  0  0  0  0  0  0  0
   57.6113   30.4307   42.6865 H   0  0  0  0  0  0  0  0  0  0  0  0
   55.2666   30.9080   43.8643 H   0  0  0  0  0  0  0  0  0  0  0  0
   54.7520   28.9640   45.4820 H   0  0  0  0  0  0  0  0  0  0  0  0
   61.6580   28.0973   45.3774 H   0  0  0  0  0  0  0  0  0  0  0  0
   60.0508   28.6114   44.6913 H   0  0  0  0  0  0  0  0  0  0  0  0
   61.3480   29.6883   47.2374 H   0  0  0  0  0  0  0  0  0  0  0  0
   61.2344   30.5372   45.6611 H   0  0  0  0  0  0  0  0  0  0  0  0
   60.0019   31.9961   50.0467 H   0  0  0  0  0  0  0  0  0  0  0  0
   60.1626   30.5608   48.9785 H   0  0  0  0  0  0  0  0  0  0  0  0
   61.4362   31.8275   48.9785 H   0  0  0  0  0  0  0  0  0  0  0  0
  1  2  1  0
  2  3  2  0
  3  4  1  0
  4  5  2  0
  5  6  1  0
  6  7  1  0
  7  8  1  0
  8  9  1  0
  9 10  1  0
 10 11  1  0
 11 12  1  0
 12 13  1  0
 13 14  1  0
 14 15  2  0
 14 16  1  0
 16 17  1  0
 17 18  1  0
 18 19  2  0
 19 20  1  0
 20 21  2  0
 21 22  1  0
 10 23  1  0
 23 24  1  0
  6 25  2  0
 25 26  1  0
 25  2  1  0
 24  7  1  0
 17 12  2  0
 22 18  1  0
  1 27  1  0
  1 28  1  0
  1 29  1  0
  3 30  1  0
  4 31  1  0
  5 32  1  0
  8 33  1  0
  8 34  1  0
  9 35  1  0
  9 36  1  0
 11 37  1  0
 11 38  1  0
 19 39  1  0
 20 40  1  0
 21 41  1  0
 22 42  1  0
 23 43  1  0
 23 44  1  0
 24 45  1  0
 24 46  1  0
 26 47  1  0
 26 48  1  0
 26 49  1  0
M  CHG  2  13  -1  16  -1
M  END
>  <UniqueID>  (12) 
11

>  <SMILES>  (12) 
Cc1cccc(N2CCN(Cc3[n-]c(=O)[n-]c3-c3ccc[nH]3)CC2)c1C

>  <Energy>  (12) 
122.4527306983165

>  <Genealogy>  (12) 
Cc1cccc(N2CCN(Cc3[n-]c(=O)[n-]c3-c3ccc[nH]3)CC2)c1C (protonated)
Cc1cccc(N2CCN(Cc3[n-]c(=O)[n-]c3-c3ccc[nH]3)CC2)c1C (3D coordinates assigned)
Cc1cccc(N2CCN(Cc3[n-]c(=O)[n-]c3-c3ccc[nH]3)CC2)c1C (nonaromatic ring conformer: 122.4527306983165 kcal/mol)

>  <smiles>  (12) 
Cc1cccc(N2CCN(Cc3[nH]c(=O)[nH]c3-c3ccc[nH]3)CC2)c1C

>  <score_type>  (12) 
oracle

>  <origin>  (12) 
adg

>  <m_score__min__energy>  (12) 
-12.369999999999999

>  <m_primary>  (12) 
energy

$$$$
12:0
     RDKit          3D

 52 55  0  0  0  0  0  0  0  0999 V2000
   54.7620   26.7160   47.1240 H   0  0  0  0  0  0  0  0  0  0  0  0
   55.2480   26.4800   46.2670 O   0  0  0  0  0  0  0  0  0  0  0  0
   55.1460   25.2270   45.6610 C   0  0  0  0  0  0  0  0  0  0  0  0
   54.0550   24.4620   45.9280 N   0  0  0  0  0  0  0  0  0  0  0  0
   53.9070   23.2280   45.3840 C   0  0  0  0  0  0  0  0  0  0  0  0
   52.8840   22.5430   45.6470 O   0  0  0  0  0  0  0  0  0  0  0  0
   54.8630   22.7290   44.5590 N   0  0  0  0  0  0  0  0  0  0  0  0
   55.9730   23.4500   44.2550 C   0  0  0  0  0  0  0  0  0  0  0  0
   56.8410   22.9540   43.4890 O   0  0  0  0  0  0  0  0  0  0  0  0
   56.1390   24.7380   44.7880 C   0  0  0  0  0  0  0  0  0  0  0  0
   57.3550   25.5150   44.4850 C   0  0  0  0  0  0  0  0  0  0  0  0
   57.8033   25.3787   43.4898 H   0  0  0  0  0  0  0  0  0  0  0  0
   57.9650   26.3780   45.3220 C   0  0  0  0  0  0  0  0  0  0  0  0
   58.7330   25.9530   46.3950 C   0  0  0  0  0  0  0  0  0  0  0  0
   58.9585   24.9113   46.6669 H   0  0  0  0  0  0  0  0  0  0  0  0
   59.1600   27.0840   47.0560 C   0  0  0  0  0  0  0  0  0  0  0  0
   60.0020   27.0800   48.2960 C   0  0  0  0  0  0  0  0  0  0  0  0
   59.3500   27.0831   49.1819 H   0  0  0  0  0  0  0  0  0  0  0  0
   60.6327   26.1788   48.3080 H   0  0  0  0  0  0  0  0  0  0  0  0
   60.6412   27.9751   48.3080 H   0  0  0  0  0  0  0  0  0  0  0  0
   58.6960   28.1930   46.4400 N   0  0  0  0  0  0  0  0  0  0  0  0
   58.9700   29.5450   46.8450 C   0  0  0  0  0  0  0  0  0  0  0  0
   58.8930   29.9070   48.1980 C   0  0  0  0  0  0  0  0  0  0  0  0
   58.6301   29.1514   48.9530 H   0  0  0  0  0  0  0  0  0  0  0  0
   59.1490   31.2240   48.5910 C   0  0  0  0  0  0  0  0  0  0  0  0
   59.0914   31.5011   49.6540 H   0  0  0  0  0  0  0  0  0  0  0  0
   59.4790   32.1920   47.6320 C   0  0  0  0  0  0  0  0  0  0  0  0
   59.8260   33.8520   48.1070 S   0  0  0  0  0  0  0  0  0  0  0  0
   59.3640   34.0880   49.5190 O   0  0  0  0  0  0  0  0  0  0  0  0
   59.0710   34.7760   47.1920 O   0  0  0  0  0  0  0  0  0  0  0  0
   61.5480   34.1370   47.9700 N   0  0  0  0  0  0  0  0  0  0  0  0
   62.1590   33.3220   46.8970 C   0  0  0  0  0  0  0  0  0  0  0  0
   61.3680   33.0087   46.1997 H   0  0  0  0  0  0  0  0  0  0  0  0
   62.9180   33.9438   46.3997 H   0  0  0  0  0  0  0  0  0  0  0  0
   62.8680   32.0650   47.4340 C   0  0  0  0  0  0  0  0  0  0  0  0
   62.8664   31.2870   46.6564 H   0  0  0  0  0  0  0  0  0  0  0  0
   63.9023   32.3244   47.7041 H   0  0  0  0  0  0  0  0  0  0  0  0
   62.2020   31.5810   48.5780 O   0  0  0  0  0  0  0  0  0  0  0  0
   62.3750   32.4780   49.6620 C   0  0  0  0  0  0  0  0  0  0  0  0
   61.6188   32.2485   50.4272 H   0  0  0  0  0  0  0  0  0  0  0  0
   63.4013   32.3408   50.0332 H   0  0  0  0  0  0  0  0  0  0  0  0
   62.2320   33.9670   49.2640 C   0  0  0  0  0  0  0  0  0  0  0  0
   61.6527   34.4868   50.0413 H   0  0  0  0  0  0  0  0  0  0  0  0
   63.2436   34.3881   49.1677 H   0  0  0  0  0  0  0  0  0  0  0  0
   59.5530   31.8320   46.2800 C   0  0  0  0  0  0  0  0  0  0  0  0
   59.8126   32.5883   45.5247 H   0  0  0  0  0  0  0  0  0  0  0  0
   59.2980   30.5150   45.8880 C   0  0  0  0  0  0  0  0  0  0  0  0
   59.3549   30.2388   44.8248 H   0  0  0  0  0  0  0  0  0  0  0  0
   57.9730   27.7850   45.3640 C   0  0  0  0  0  0  0  0  0  0  0  0
   57.4050   28.6360   44.4960 C   0  0  0  0  0  0  0  0  0  0  0  0
   57.4913   29.7213   44.6534 H   0  0  0  0  0  0  0  0  0  0  0  0
   56.8530   28.2484   43.6270 H   0  0  0  0  0  0  0  0  0  0  0  0
  1  2  1  0
  2  3  1  0
  3  4  1  0
  4  5  1  0
  5  6  2  0
  5  7  1  0
  7  8  1  0
  8  9  2  0
  8 10  1  0
 10 11  1  0
 11 12  1  0
 11 13  2  0
 13 14  1  0
 14 15  1  0
 14 16  2  0
 16 17  1  0
 17 18  1  0
 17 19  1  0
 17 20  1  0
 16 21  1  0
 21 22  1  0
 22 23  2  0
 23 24  1  0
 23 25  1  0
 25 26  1  0
 25 27  2  0
 27 28  1  0
 28 29  2  0
 28 30  2  0
 28 31  1  0
 31 32  1  0
 32 33  1  0
 32 34  1  0
 32 35  1  0
 35 36  1  0
 35 37  1  0
 35 38  1  0
 38 39  1  0
 39 40  1  0
 39 41  1  0
 39 42  1  0
 42 43  1  0
 42 44  1  0
 27 45  1  0
 45 46  1  0
 45 47  2  0
 47 48  1  0
 21 49  1  0
 49 50  2  0
 50 51  1  0
 50 52  1  0
 10  3  2  0
 49 13  1  0
 47 22  1  0
 42 31  1  0
M  CHG  2   4  -1   7  -1
M  END
>  <UniqueID>  (13) 
12

>  <SMILES>  (13) 
C=c1/c(=C\c2c(O)[n-]c(=O)[n-]c2=O)cc(C)n1-c1ccc(S(=O)(=O)N2CCOCC2)cc1

>  <Energy>  (13) 
115.80575947966425

>  <Genealogy>  (13) 
C=c1c(=Cc2c(O)[n-]c(=O)[n-]c2=O)cc(C)n1-c1ccc(S(=O)(=O)N2CCOCC2)cc1 (protonated)
C=c1/c(=C\c2c(O)[n-]c(=O)[n-]c2=O)cc(C)n1-c1ccc(S(=O)(=O)N2CCOCC2)cc1 (cis-trans isomerization)
C=c1/c(=C\c2c(O)[n-]c(=O)[n-]c2=O)cc(C)n1-c1ccc(S(=O)(=O)N2CCOCC2)cc1 (3D coordinates assigned)
C=c1/c(=C\c2c(O)[n-]c(=O)[n-]c2=O)cc(C)n1-c1ccc(S(=O)(=O)N2CCOCC2)cc1 (nonaromatic ring conformer: 115.80575947966425 kcal/mol)

>  <smiles>  (13) 
C=c1c(=Cc2c(O)[nH]c(=O)[nH]c2=O)cc(C)n1-c1ccc(S(=O)(=O)N2CCOCC2)cc1

>  <score_type>  (13) 
oracle

>  <origin>  (13) 
adg

>  <m_score__min__energy>  (13) 
-13.99

>  <m_primary>  (13) 
energy

$$$$
13:0
     RDKit          3D

 56 59  0  0  0  0  0  0  0  0999 V2000
   65.7800   33.3720   51.0030 C   0  0  0  0  0  0  0  0  0  0  0  0
   64.4430   33.7730   50.5590 N   0  0  0  0  0  0  0  0  0  0  0  0
   63.6000   34.5890   51.4460 C   0  0  0  0  0  0  0  0  0  0  0  0
   64.0190   33.4530   49.2160 C   0  0  0  0  0  0  0  0  0  0  0  0
   64.8750   33.0980   48.3590 O   0  0  0  0  0  0  0  0  0  0  0  0
   62.6080   33.5830   48.7910 C   0  0  0  0  0  0  0  0  0  0  0  0
   62.2760   33.8200   47.4490 C   0  0  0  0  0  0  0  0  0  0  0  0
   60.9380   33.8570   47.0500 C   0  0  0  0  0  0  0  0  0  0  0  0
   59.9130   33.6710   47.9910 C   0  0  0  0  0  0  0  0  0  0  0  0
   58.4800   33.5760   47.5340 C   0  0  0  0  0  0  0  0  0  0  0  0
   58.3140   32.4270   46.6200 N   0  0  0  0  0  0  0  0  0  0  0  0
   57.3970   32.4960   45.5990 C   0  0  0  0  0  0  0  0  0  0  0  0
   56.7430   33.5530   45.3920 O   0  0  0  0  0  0  0  0  0  0  0  0
   57.1740   31.4260   44.7970 N   0  0  0  0  0  0  0  0  0  0  0  0
   57.8510   30.2660   44.9600 C   0  0  0  0  0  0  0  0  0  0  0  0
   57.5950   29.1820   44.1130 C   0  0  0  0  0  0  0  0  0  0  0  0
   58.3310   27.9920   44.2390 C   0  0  0  0  0  0  0  0  0  0  0  0
   58.0920   26.8740   43.3100 C   0  0  0  0  0  0  0  0  0  0  0  0
   58.2160   27.0530   42.0710 O   0  0  0  0  0  0  0  0  0  0  0  0
   57.6870   25.5990   43.8170 N   0  0  0  0  0  0  0  0  0  0  0  0
   57.3230   25.3780   45.2100 C   0  0  0  0  0  0  0  0  0  0  0  0
   56.0120   24.6460   45.2730 C   0  0  0  0  0  0  0  0  0  0  0  0
   55.9660   23.2910   44.8990 C   0  0  0  0  0  0  0  0  0  0  0  0
   54.7520   22.5970   44.9010 C   0  0  0  0  0  0  0  0  0  0  0  0
   53.5730   23.2510   45.2680 C   0  0  0  0  0  0  0  0  0  0  0  0
   53.6040   24.5990   45.6300 C   0  0  0  0  0  0  0  0  0  0  0  0
   54.8160   25.3010   45.6320 C   0  0  0  0  0  0  0  0  0  0  0  0
   54.8180   26.6440   45.9910 O   0  0  0  0  0  0  0  0  0  0  0  0
   59.3170   27.8960   45.2330 C   0  0  0  0  0  0  0  0  0  0  0  0
   59.5520   28.9660   46.1040 C   0  0  0  0  0  0  0  0  0  0  0  0
   58.8210   30.1630   45.9710 C   0  0  0  0  0  0  0  0  0  0  0  0
   59.0300   31.2680   46.8130 C   0  0  0  0  0  0  0  0  0  0  0  0
   59.8800   31.1920   47.7470 O   0  0  0  0  0  0  0  0  0  0  0  0
   60.2460   33.4800   49.3410 C   0  0  0  0  0  0  0  0  0  0  0  0
   61.5840   33.4480   49.7400 C   0  0  0  0  0  0  0  0  0  0  0  0
   65.8136   33.3619   52.1024 H   0  0  0  0  0  0  0  0  0  0  0  0
   66.0072   32.3662   50.6200 H   0  0  0  0  0  0  0  0  0  0  0  0
   66.5233   34.0868   50.6200 H   0  0  0  0  0  0  0  0  0  0  0  0
   63.8392   34.3574   52.4944 H   0  0  0  0  0  0  0  0  0  0  0  0
   63.7898   35.6553   51.2535 H   0  0  0  0  0  0  0  0  0  0  0  0
   62.5405   34.3646   51.2535 H   0  0  0  0  0  0  0  0  0  0  0  0
   63.0730   33.9774   46.7074 H   0  0  0  0  0  0  0  0  0  0  0  0
   60.6863   34.0327   45.9937 H   0  0  0  0  0  0  0  0  0  0  0  0
   57.8271   33.4421   48.4091 H   0  0  0  0  0  0  0  0  0  0  0  0
   58.2092   34.5006   47.0031 H   0  0  0  0  0  0  0  0  0  0  0  0
   56.8127   29.2621   43.3438 H   0  0  0  0  0  0  0  0  0  0  0  0
   58.1025   24.7779   45.7023 H   0  0  0  0  0  0  0  0  0  0  0  0
   57.2283   26.3463   45.7232 H   0  0  0  0  0  0  0  0  0  0  0  0
   56.8907   22.7739   44.6031 H   0  0  0  0  0  0  0  0  0  0  0  0
   54.7252   21.5356   44.6135 H   0  0  0  0  0  0  0  0  0  0  0  0
   52.6192   22.7030   45.2717 H   0  0  0  0  0  0  0  0  0  0  0  0
   52.6733   25.1116   45.9147 H   0  0  0  0  0  0  0  0  0  0  0  0
   59.9090   26.9738   45.3282 H   0  0  0  0  0  0  0  0  0  0  0  0
   60.3103   28.8720   46.8953 H   0  0  0  0  0  0  0  0  0  0  0  0
   59.4490   33.3548   50.0887 H   0  0  0  0  0  0  0  0  0  0  0  0
   61.8358   33.3164   50.8027 H   0  0  0  0  0  0  0  0  0  0  0  0
  1  2  1  0
  2  3  1  0
  2  4  1  0
  4  5  2  0
  4  6  1  0
  6  7  2  0
  7  8  1  0
  8  9  2  0
  9 10  1  0
 10 11  1  0
 11 12  1  0
 12 13  2  0
 12 14  1  0
 14 15  1  0
 15 16  2  0
 16 17  1  0
 17 18  1  0
 18 19  2  0
 18 20  1  0
 20 21  1  0
 21 22  1  0
 22 23  2  0
 23 24  1  0
 24 25  2  0
 25 26  1  0
 26 27  2  0
 27 28  1  0
 17 29  2  0
 29 30  1  0
 30 31  2  0
 31 32  1  0
 32 33  2  0
  9 34  1  0
 34 35  2  0
 35  6  1  0
 32 11  1  0
 31 15  1  0
 27 22  1  0
  1 36  1  0
  1 37  1  0
  1 38  1  0
  3 39  1  0
  3 40  1  0
  3 41  1  0
  7 42  1  0
  8 43  1  0
 10 44  1  0
 10 45  1  0
 16 46  1  0
 21 47  1  0
 21 48  1  0
 23 49  1  0
 24 50  1  0
 25 51  1  0
 26 52  1  0
 29 53  1  0
 30 54  1  0
 34 55  1  0
 35 56  1  0
M  CHG  3  14  -1  20  -1  28  -1
M  END
>  <UniqueID>  (14) 
13

>  <SMILES>  (14) 
CN(C)C(=O)c1ccc(Cn2c(=O)[n-]c3cc(C(=O)[N-]Cc4ccccc4[O-])ccc3c2=O)cc1

>  <Energy>  (14) 
73.39893789262749

>  <Genealogy>  (14) 
CN(C)C(=O)c1ccc(Cn2c(=O)[n-]c3cc(C(=O)[N-]Cc4ccccc4[O-])ccc3c2=O)cc1 (protonated)
CN(C)C(=O)c1ccc(Cn2c(=O)[n-]c3cc(C(=O)[N-]Cc4ccccc4[O-])ccc3c2=O)cc1 (3D coordinates assigned)
CN(C)C(=O)c1ccc(Cn2c(=O)[n-]c3cc(C(=O)[N-]Cc4ccccc4[O-])ccc3c2=O)cc1 (optimized conformer: 73.39893789262749 kcal/mol)

>  <smiles>  (14) 
CN(C)C(=O)c1ccc(Cn2c(=O)[nH]c3cc(C(=O)NCc4ccccc4O)ccc3c2=O)cc1

>  <score_type>  (14) 
oracle

>  <origin>  (14) 
adg

>  <m_score__min__energy>  (14) 
-16.390000000000001

>  <m_primary>  (14) 
energy

$$$$
14:0
     RDKit          3D

 63 67  0  0  0  0  0  0  0  0999 V2000
   61.0840   27.1370   51.1620 C   0  0  0  0  0  0  0  0  0  0  0  0
   61.2850   25.9850   51.8040 C   0  0  0  0  0  0  0  0  0  0  0  0
   61.0020   25.8580   53.2750 C   0  0  0  0  0  0  0  0  0  0  0  0
   59.5420   25.8010   53.5220 N   0  0  0  0  0  0  0  0  0  0  0  0
   58.8690   26.9740   53.7900 C   0  0  0  0  0  0  0  0  0  0  0  0
   59.4980   28.0710   53.8110 O   0  0  0  0  0  0  0  0  0  0  0  0
   57.4740   26.9860   54.0290 C   0  0  0  0  0  0  0  0  0  0  0  0
   56.7590   28.3210   54.3030 C   0  0  2  0  0  0  0  0  0  0  0  0
   55.3500   28.4050   53.7680 C   0  0  0  0  0  0  0  0  0  0  0  0
   54.8200   27.4610   53.1190 O   0  0  0  0  0  0  0  0  0  0  0  0
   54.6340   29.6740   54.0050 C   0  0  0  0  0  0  0  0  0  0  0  0
   53.2960   29.7450   53.9050 C   0  0  0  0  0  0  0  0  0  0  0  0
   52.5830   30.4250   52.8000 C   0  0  0  0  0  0  0  0  0  0  0  0
   52.8090   29.9990   51.4810 C   0  0  0  0  0  0  0  0  0  0  0  0
   52.1700   30.6340   50.4130 C   0  0  0  0  0  0  0  0  0  0  0  0
   51.3140   31.7140   50.6490 C   0  0  0  0  0  0  0  0  0  0  0  0
   50.6790   32.3400   49.5830 O   0  0  0  0  0  0  0  0  0  0  0  0
   51.1040   32.1660   51.9570 C   0  0  0  0  0  0  0  0  0  0  0  0
   50.2660   33.2490   52.1960 O   0  0  0  0  0  0  0  0  0  0  0  0
   51.7410   31.5300   53.0280 C   0  0  0  0  0  0  0  0  0  0  0  0
   55.4140   30.8330   54.3460 N   0  0  0  0  0  0  0  0  0  0  0  0
   56.7200   30.8370   54.3750 C   0  0  0  0  0  0  0  0  0  0  0  0
   57.4380   32.1560   54.3540 C   0  0  0  0  0  0  0  0  0  0  0  0
   58.3610   32.3080   53.0850 C   0  0  0  0  0  0  0  0  0  0  0  0
   58.2070   33.7370   52.5200 C   0  0  0  0  0  0  0  0  0  0  0  0
   59.8440   32.1250   53.4850 C   0  0  0  0  0  0  0  0  0  0  0  0
   58.0050   31.2880   51.9450 C   0  0  0  0  0  0  0  0  0  0  0  0
   57.7290   29.8790   52.4380 C   0  0  0  0  0  0  0  0  0  0  0  0
   57.6170   28.9760   51.6240 O   0  0  0  0  0  0  0  0  0  0  0  0
   57.5070   29.6330   53.9190 C   0  0  2  0  0  0  0  0  0  0  0  0
   56.7750   25.7810   53.8830 C   0  0  0  0  0  0  0  0  0  0  0  0
   57.4540   24.5860   53.6570 C   0  0  0  0  0  0  0  0  0  0  0  0
   56.7390   23.3780   53.5890 C   0  0  0  0  0  0  0  0  0  0  0  0
   57.4110   22.1720   53.4020 C   0  0  0  0  0  0  0  0  0  0  0  0
   58.7980   22.1590   53.2870 C   0  0  0  0  0  0  0  0  0  0  0  0
   59.5210   23.3530   53.3410 C   0  0  0  0  0  0  0  0  0  0  0  0
   58.8610   24.5970   53.5070 C   0  0  0  0  0  0  0  0  0  0  0  0
   61.2968   27.2110   50.0853 H   0  0  0  0  0  0  0  0  0  0  0  0
   60.7055   28.0129   51.7093 H   0  0  0  0  0  0  0  0  0  0  0  0
   61.6637   25.1145   51.2484 H   0  0  0  0  0  0  0  0  0  0  0  0
   61.4692   24.9374   53.6549 H   0  0  0  0  0  0  0  0  0  0  0  0
   61.4154   26.7360   53.7929 H   0  0  0  0  0  0  0  0  0  0  0  0
   56.7432   28.2785   55.4021 H   0  0  0  0  0  0  0  0  0  0  0  0
   52.6934   29.2687   54.6924 H   0  0  0  0  0  0  0  0  0  0  0  0
   53.4935   29.1600   51.2875 H   0  0  0  0  0  0  0  0  0  0  0  0
   52.3407   30.2835   49.3844 H   0  0  0  0  0  0  0  0  0  0  0  0
   51.5831   31.8952   54.0535 H   0  0  0  0  0  0  0  0  0  0  0  0
   56.6931   32.9654   54.3499 H   0  0  0  0  0  0  0  0  0  0  0  0
   58.0782   32.2077   55.2470 H   0  0  0  0  0  0  0  0  0  0  0  0
   58.1298   34.4535   53.3510 H   0  0  0  0  0  0  0  0  0  0  0  0
   59.0837   33.9839   51.9033 H   0  0  0  0  0  0  0  0  0  0  0  0
   57.2978   33.7914   51.9033 H   0  0  0  0  0  0  0  0  0  0  0  0
   59.9294   32.1145   54.5816 H   0  0  0  0  0  0  0  0  0  0  0  0
   60.2186   31.1738   53.0789 H   0  0  0  0  0  0  0  0  0  0  0  0
   60.4386   32.9566   53.0789 H   0  0  0  0  0  0  0  0  0  0  0  0
   57.1085   31.6530   51.4225 H   0  0  0  0  0  0  0  0  0  0  0  0
   58.8848   31.2274   51.2875 H   0  0  0  0  0  0  0  0  0  0  0  0
   58.4836   29.4982   54.4069 H   0  0  0  0  0  0  0  0  0  0  0  0
   55.6769   25.7784   53.9476 H   0  0  0  0  0  0  0  0  0  0  0  0
   55.6431   23.3847   53.6839 H   0  0  0  0  0  0  0  0  0  0  0  0
   56.8455   21.2302   53.3453 H   0  0  0  0  0  0  0  0  0  0  0  0
   59.3273   21.2041   53.1530 H   0  0  0  0  0  0  0  0  0  0  0  0
   60.6172   23.3279   53.2536 H   0  0  0  0  0  0  0  0  0  0  0  0
  1  2  2  0
  2  3  1  0
  3  4  1  0
  4  5  1  0
  5  6  2  0
  5  7  1  0
  7  8  1  0
  8  9  1  0
  9 10  2  0
  9 11  1  0
 11 12  2  3
 12 13  1  0
 13 14  2  0
 14 15  1  0
 15 16  2  0
 16 17  1  0
 16 18  1  0
 18 19  1  0
 18 20  2  0
 11 21  1  0
 21 22  2  0
 22 23  1  0
 23 24  1  0
 24 25  1  0
 24 26  1  0
 24 27  1  0
 27 28  1  0
 28 29  2  0
 28 30  1  0
  7 31  2  0
 31 32  1  0
 32 33  2  0
 33 34  1  0
 34 35  2  0
 35 36  1  0
 36 37  2  0
 37  4  1  0
 30  8  1  0
 37 32  1  0
 20 13  1  0
 30 22  1  0
  1 38  1  0
  1 39  1  0
  2 40  1  0
  3 41  1  0
  3 42  1  0
  8 43  1  1
 12 44  1  0
 14 45  1  0
 15 46  1  0
 20 47  1  0
 23 48  1  0
 23 49  1  0
 25 50  1  0
 25 51  1  0
 25 52  1  0
 26 53  1  0
 26 54  1  0
 26 55  1  0
 27 56  1  0
 27 57  1  0
 30 58  1  1
 31 59  1  0
 33 60  1  0
 34 61  1  0
 35 62  1  0
 36 63  1  0
M  CHG  2  17  -1  19  -1
M  END
>  <UniqueID>  (15) 
14

>  <SMILES>  (15) 
C=CCn1c(=O)c([C@@H]2C(=O)C(=Cc3ccc([O-])c([O-])c3)N=C3CC(C)(C)CC(=O)[C@@H]32)cc2ccccc21

>  <Energy>  (15) 
104.20539236936327

>  <Genealogy>  (15) 
C=CCn1c(=O)c(C2C(=O)C(=Cc3ccc([O-])c([O-])c3)N=C3CC(C)(C)CC(=O)C32)cc2ccccc21 (protonated)
C=CCn1c(=O)c([C@@H]2C(=O)C(=Cc3ccc([O-])c([O-])c3)N=C3CC(C)(C)CC(=O)[C@@H]32)cc2ccccc21 (chirality)
C=CCn1c(=O)c([C@@H]2C(=O)C(=Cc3ccc([O-])c([O-])c3)N=C3CC(C)(C)CC(=O)[C@@H]32)cc2ccccc21 (3D coordinates assigned)
C=CCn1c(=O)c([C@@H]2C(=O)C(=Cc3ccc([O-])c([O-])c3)N=C3CC(C)(C)CC(=O)[C@@H]32)cc2ccccc21 (nonaromatic ring conformer: 104.20539236936327 kcal/mol)

>  <smiles>  (15) 
C=CCn1c(=O)c(C2C(=O)C(=Cc3ccc(O)c(O)c3)N=C3CC(C)(C)CC(=O)C32)cc2ccccc21

>  <score_type>  (15) 
oracle

>  <origin>  (15) 
adg

>  <m_score__min__energy>  (15) 
-15.710000000000001

>  <m_primary>  (15) 
energy

$$$$
15:0
     RDKit          3D

 48 49  0  0  0  0  0  0  0  0999 V2000
   59.7240   30.3840   49.7650 H   0  0  0  0  0  0  0  0  0  0  0  0
   60.6430   30.0060   49.7570 O   0  0  0  0  0  0  0  0  0  0  0  0
   60.7430   29.1590   48.6390 C   0  0  0  0  0  0  0  0  0  0  0  0
   61.7258   29.3205   48.1721 H   0  0  0  0  0  0  0  0  0  0  0  0
   60.6700   27.8090   49.0270 O   0  0  0  0  0  0  0  0  0  0  0  0
   59.9770   27.3700   48.4660 H   0  0  0  0  0  0  0  0  0  0  0  0
   59.6900   29.4950   47.6110 C   0  0  0  0  0  0  0  0  0  0  0  0
   58.9400   28.5290   47.0950 O   0  0  0  0  0  0  0  0  0  0  0  0
   57.9650   28.7460   46.2170 C   0  0  0  0  0  0  0  0  0  0  0  0
   57.2060   27.5300   45.7130 C   0  0  1  0  0  0  0  0  0  0  0  0
   57.0962   26.8660   46.5831 H   0  0  0  0  0  0  0  0  0  0  0  0
   55.9210   27.8620   45.2510 O   0  0  0  0  0  0  0  0  0  0  0  0
   56.0370   28.2830   44.3590 H   0  0  0  0  0  0  0  0  0  0  0  0
   57.9830   26.7550   44.6270 C   0  0  2  0  0  0  0  0  0  0  0  0
   59.0479   26.7885   44.9007 H   0  0  0  0  0  0  0  0  0  0  0  0
   57.7720   27.3680   43.3800 O   0  0  0  0  0  0  0  0  0  0  0  0
   56.7900   27.4530   43.2590 H   0  0  0  0  0  0  0  0  0  0  0  0
   57.5960   25.2680   44.5520 C   0  0  0  0  0  0  0  0  0  0  0  0
   58.5000   24.6493   44.6517 H   0  0  0  0  0  0  0  0  0  0  0  0
   56.8956   25.0320   45.3667 H   0  0  0  0  0  0  0  0  0  0  0  0
   56.9830   25.0020   43.3210 O   0  0  0  0  0  0  0  0  0  0  0  0
   56.6740   25.8780   42.9720 H   0  0  0  0  0  0  0  0  0  0  0  0
   57.6900   30.0660   45.7900 C   0  0  0  0  0  0  0  0  0  0  0  0
   56.6580   30.3150   44.8220 N   0  0  0  0  0  0  0  0  0  0  0  0
   56.8630   30.4190   43.4070 C   0  0  0  0  0  0  0  0  0  0  0  0
   56.4170   29.5120   42.6580 O   0  0  0  0  0  0  0  0  0  0  0  0
   57.5790   31.5850   42.7960 C   0  0  0  0  0  0  0  0  0  0  0  0
   57.9755   32.2306   43.5935 H   0  0  0  0  0  0  0  0  0  0  0  0
   58.4089   31.2201   42.1730 H   0  0  0  0  0  0  0  0  0  0  0  0
   56.8782   32.1601   42.1730 H   0  0  0  0  0  0  0  0  0  0  0  0
   58.4950   31.1170   46.2700 C   0  0  0  0  0  0  0  0  0  0  0  0
   58.2910   32.3270   45.8180 N   0  0  0  0  0  0  0  0  0  0  0  0
   57.7750   33.4720   46.5130 C   0  0  0  0  0  0  0  0  0  0  0  0
   56.5700   33.7930   46.3430 O   0  0  0  0  0  0  0  0  0  0  0  0
   58.6260   34.2700   47.3470 N   0  0  0  0  0  0  0  0  0  0  0  0
   60.0190   34.0380   47.5920 C   0  0  0  0  0  0  0  0  0  0  0  0
   60.5360   33.9150   48.8970 C   0  0  0  0  0  0  0  0  0  0  0  0
   59.7350   34.0550   49.9830 F   0  0  0  0  0  0  0  0  0  0  0  0
   61.9060   33.7070   49.0920 C   0  0  0  0  0  0  0  0  0  0  0  0
   62.3047   33.5983   50.1114 H   0  0  0  0  0  0  0  0  0  0  0  0
   62.7690   33.6370   47.9950 C   0  0  0  0  0  0  0  0  0  0  0  0
   63.8436   33.4614   48.1509 H   0  0  0  0  0  0  0  0  0  0  0  0
   62.2670   33.7900   46.7010 C   0  0  0  0  0  0  0  0  0  0  0  0
   62.9484   33.7453   45.8386 H   0  0  0  0  0  0  0  0  0  0  0  0
   60.8990   34.0000   46.5000 C   0  0  0  0  0  0  0  0  0  0  0  0
   60.4240   34.1490   45.2370 F   0  0  0  0  0  0  0  0  0  0  0  0
   59.4830   30.8230   47.2260 C   0  0  0  0  0  0  0  0  0  0  0  0
   60.0871   31.6297   47.6667 H   0  0  0  0  0  0  0  0  0  0  0  0
  1  2  1  0
  2  3  1  0
  3  4  1  0
  3  5  1  0
  5  6  1  0
  3  7  1  0
  7  8  1  0
  8  9  1  0
  9 10  1  0
 10 11  1  1
 10 12  1  0
 12 13  1  0
 10 14  1  0
 14 15  1  1
 14 16  1  0
 16 17  1  0
 14 18  1  0
 18 19  1  0
 18 20  1  0
 18 21  1  0
 21 22  1  0
  9 23  2  0
 23 24  1  0
 24 25  1  0
 25 26  2  0
 25 27  1  0
 27 28  1  0
 27 29  1  0
 27 30  1  0
 23 31  1  0
 31 32  2  0
 32 33  1  0
 33 34  2  0
 33 35  1  0
 35 36  1  0
 36 37  2  0
 37 38  1  0
 37 39  1  0
 39 40  1  0
 39 41  2  0
 41 42  1  0
 41 43  1  0
 43 44  1  0
 43 45  2  0
 45 46  1  0
 31 47  1  0
 47 48  1  0
 47  7  2  0
 45 36  1  0
M  CHG  2  24  -1  35  -1
M  END
>  <UniqueID>  (16) 
15

>  <SMILES>  (16) 
CC(=O)[N-]c1c([C@@H](O)[C@H](O)CO)oc(C(O)O)c/c1=N\C(=O)[N-]c1c(F)cccc1F

>  <Energy>  (16) 
68.20808939073845

>  <Genealogy>  (16) 
CC(=O)[N-]c1c(C(O)C(O)CO)oc(C(O)O)cc1=NC(=O)[N-]c1c(F)cccc1F (protonated)
CC(=O)[N-]c1c([C@@H](O)[C@H](O)CO)oc(C(O)O)cc1=NC(=O)[N-]c1c(F)cccc1F (chirality)
CC(=O)[N-]c1c([C@@H](O)[C@H](O)CO)oc(C(O)O)c/c1=N\C(=O)[N-]c1c(F)cccc1F (cis-trans isomerization)
CC(=O)[N-]c1c([C@@H](O)[C@H](O)CO)oc(C(O)O)c/c1=N\C(=O)[N-]c1c(F)cccc1F (3D coordinates assigned)
CC(=O)[N-]c1c([C@@H](O)[C@H](O)CO)oc(C(O)O)c/c1=N\C(=O)[N-]c1c(F)cccc1F (optimized conformer: 68.20808939073845 kcal/mol)

>  <smiles>  (16) 
CC(=O)Nc1c(C(O)C(O)CO)oc(C(O)O)cc1=NC(=O)Nc1c(F)cccc1F

>  <score_type>  (16) 
oracle

>  <origin>  (16) 
adg

>  <m_score__min__energy>  (16) 
-8.5899999999999999

>  <m_primary>  (16) 
energy

$$$$
16:0
     RDKit          3D

 38 40  0  0  0  0  0  0  0  0999 V2000
   58.9820   33.8300   44.3240 N   0  0  0  0  0  0  0  0  0  0  0  0
   57.8550   33.3490   45.5410 S   0  0  0  0  0  0  0  0  0  0  0  0
   56.6870   34.2960   45.5450 O   0  0  0  0  0  0  0  0  0  0  0  0
   57.3510   31.9660   45.2370 O   0  0  0  0  0  0  0  0  0  0  0  0
   58.6450   33.3630   47.1140 C   0  0  0  0  0  0  0  0  0  0  0  0
   59.8720   34.0180   47.2780 C   0  0  0  0  0  0  0  0  0  0  0  0
   60.5040   34.0190   48.5220 C   0  0  0  0  0  0  0  0  0  0  0  0
   59.9190   33.3630   49.6080 C   0  0  0  0  0  0  0  0  0  0  0  0
   58.6910   32.6910   49.4610 C   0  0  0  0  0  0  0  0  0  0  0  0
   58.0880   31.9960   50.6250 C   0  0  0  0  0  0  0  0  0  0  0  0
   58.0090   32.4540   51.9270 C   0  0  0  0  0  0  0  0  0  0  0  0
   57.3910   31.5310   52.6840 N   0  0  0  0  0  0  0  0  0  0  0  0
   57.1130   30.5370   51.8190 C   0  0  0  0  0  0  0  0  0  0  0  0
   56.5070   29.4490   52.1910 N   0  0  0  0  0  0  0  0  0  0  0  0
   55.7480   29.2710   53.3970 C   0  0  0  0  0  0  0  0  0  0  0  0
   56.2140   29.6100   54.5190 O   0  0  0  0  0  0  0  0  0  0  0  0
   54.3610   28.7190   53.3130 C   0  0  0  0  0  0  0  0  0  0  0  0
   53.4050   29.7940   52.8740 C   0  0  0  0  0  0  0  0  0  0  0  0
   53.4220   30.2600   51.5480 C   0  0  0  0  0  0  0  0  0  0  0  0
   52.5100   31.2340   51.1320 C   0  0  0  0  0  0  0  0  0  0  0  0
   51.5670   31.7420   52.0320 C   0  0  0  0  0  0  0  0  0  0  0  0
   50.6620   32.7100   51.6170 O   0  0  0  0  0  0  0  0  0  0  0  0
   51.5360   31.2740   53.3500 C   0  0  0  0  0  0  0  0  0  0  0  0
   52.4470   30.3000   53.7690 C   0  0  0  0  0  0  0  0  0  0  0  0
   57.5210   30.7770   50.5540 N   0  0  0  0  0  0  0  0  0  0  0  0
   58.0610   32.6970   48.2010 C   0  0  0  0  0  0  0  0  0  0  0  0
   59.2450   32.9690   43.7930 H   0  0  0  0  0  0  0  0  0  0  0  0
   60.3382   34.5325   46.4248 H   0  0  0  0  0  0  0  0  0  0  0  0
   61.4657   34.5378   48.6480 H   0  0  0  0  0  0  0  0  0  0  0  0
   60.4223   33.3718   50.5861 H   0  0  0  0  0  0  0  0  0  0  0  0
   58.3913   33.4207   52.2866 H   0  0  0  0  0  0  0  0  0  0  0  0
   54.3407   27.8942   52.5855 H   0  0  0  0  0  0  0  0  0  0  0  0
   54.0587   28.3499   54.3042 H   0  0  0  0  0  0  0  0  0  0  0  0
   54.1560   29.8565   50.8349 H   0  0  0  0  0  0  0  0  0  0  0  0
   52.5337   31.6017   50.0955 H   0  0  0  0  0  0  0  0  0  0  0  0
   50.7940   31.6729   54.0574 H   0  0  0  0  0  0  0  0  0  0  0  0
   52.4138   29.9281   54.8037 H   0  0  0  0  0  0  0  0  0  0  0  0
   57.1021   32.1744   48.0687 H   0  0  0  0  0  0  0  0  0  0  0  0
  1  2  1  0
  2  3  2  0
  2  4  2  0
  2  5  1  0
  5  6  2  0
  6  7  1  0
  7  8  2  0
  8  9  1  0
  9 10  1  0
 10 11  2  0
 11 12  1  0
 12 13  1  0
 13 14  2  3
 14 15  1  0
 15 16  2  0
 15 17  1  0
 17 18  1  0
 18 19  2  0
 19 20  1  0
 20 21  2  0
 21 22  1  0
 21 23  1  0
 23 24  2  0
 13 25  1  0
  9 26  2  0
 26  5  1  0
 25 10  1  0
 24 18  1  0
  1 27  1  0
  6 28  1  0
  7 29  1  0
  8 30  1  0
 11 31  1  0
 17 32  1  0
 17 33  1  0
 19 34  1  0
 20 35  1  0
 23 36  1  0
 24 37  1  0
 26 38  1  0
M  CHG  4   1  -1  12  -1  22  -1  25  -1
M  END
>  <UniqueID>  (17) 
16

>  <SMILES>  (17) 
[NH-]S(=O)(=O)c1cccc(-c2c[n-]c(=NC(=O)Cc3ccc([O-])cc3)[n-]2)c1

>  <Energy>  (17) 
69.64536204635579

>  <Genealogy>  (17) 
[NH-]S(=O)(=O)c1cccc(-c2c[n-]c(=NC(=O)Cc3ccc([O-])cc3)[n-]2)c1 (protonated)
[NH-]S(=O)(=O)c1cccc(-c2c[n-]c(=NC(=O)Cc3ccc([O-])cc3)[n-]2)c1 (3D coordinates assigned)
[NH-]S(=O)(=O)c1cccc(-c2c[n-]c(=NC(=O)Cc3ccc([O-])cc3)[n-]2)c1 (optimized conformer: 69.64536204635579 kcal/mol)

>  <smiles>  (17) 
NS(=O)(=O)c1cccc(-c2c[nH]c(=NC(=O)Cc3ccc(O)cc3)[nH]2)c1

>  <score_type>  (17) 
oracle

>  <origin>  (17) 
adg

>  <m_score__min__energy>  (17) 
-16.27

>  <m_primary>  (17) 
energy

$$$$
17:0
     RDKit          3D

 24 25  0  0  0  0  0  0  0  0999 V2000
   56.8887   25.4226   48.2693 H   0  0  0  0  0  0  0  0  0  0  0  0
   56.8800   25.0400   47.2380 C   0  0  0  0  0  0  0  0  0  0  0  0
   57.7450   25.5850   46.3680 C   0  0  0  0  0  0  0  0  0  0  0  0
   58.6253   24.9876   46.0884 H   0  0  0  0  0  0  0  0  0  0  0  0
   57.6090   26.9270   45.7540 C   0  0  0  0  0  0  0  0  0  0  0  0
   58.7420   27.6710   45.3760 C   0  0  0  0  0  0  0  0  0  0  0  0
   59.7470   27.2473   45.5190 H   0  0  0  0  0  0  0  0  0  0  0  0
   58.5980   28.9450   44.8200 C   0  0  0  0  0  0  0  0  0  0  0  0
   59.4878   29.5137   44.5119 H   0  0  0  0  0  0  0  0  0  0  0  0
   57.3260   29.4970   44.6550 C   0  0  0  0  0  0  0  0  0  0  0  0
   57.2146   30.4976   44.2119 H   0  0  0  0  0  0  0  0  0  0  0  0
   56.1950   28.7800   45.0520 C   0  0  0  0  0  0  0  0  0  0  0  0
   54.9330   29.3410   44.8940 O   0  0  0  0  0  0  0  0  0  0  0  0
   56.3320   27.5000   45.6060 C   0  0  0  0  0  0  0  0  0  0  0  0
   55.1950   26.7990   45.9990 O   0  0  0  0  0  0  0  0  0  0  0  0
   55.9190   23.9680   46.9180 C   0  0  0  0  0  0  0  0  0  0  0  0
   54.8060   24.2890   46.2610 O   0  0  0  0  0  0  0  0  0  0  0  0
   53.8850   23.3870   45.9350 C   0  0  0  0  0  0  0  0  0  0  0  0
   52.8470   23.7480   45.3210 O   0  0  0  0  0  0  0  0  0  0  0  0
   54.0810   22.0440   46.2800 C   0  0  0  0  0  0  0  0  0  0  0  0
   53.2220   21.1680   45.9910 O   0  0  0  0  0  0  0  0  0  0  0  0
   55.2180   21.6900   46.9300 N   0  0  0  0  0  0  0  0  0  0  0  0
   56.1520   22.6210   47.2530 C   0  0  0  0  0  0  0  0  0  0  0  0
   57.3280   22.2250   47.8800 O   0  0  0  0  0  0  0  0  0  0  0  0
  1  2  1  0
  2  3  2  0
  3  4  1  0
  3  5  1  0
  5  6  2  0
  6  7  1  0
  6  8  1  0
  8  9  1  0
  8 10  2  0
 10 11  1  0
 10 12  1  0
 12 13  1  0
 12 14  2  0
 14 15  1  0
  2 16  1  0
 16 17  1  0
 17 18  1  0
 18 19  2  0
 18 20  1  0
 20 21  2  0
 20 22  1  0
 22 23  1  0
 23 24  1  0
 14  5  1  0
 23 16  2  0
M  CHG  4  13  -1  15  -1  22  -1  24  -1
M  END
>  <UniqueID>  (18) 
17

>  <SMILES>  (18) 
O=c1[n-]c([O-])c(/C=C\c2cccc([O-])c2[O-])oc1=O

>  <Energy>  (18) 
40.46418343327537

>  <Genealogy>  (18) 
O=c1[n-]c([O-])c(C=Cc2cccc([O-])c2[O-])oc1=O (protonated)
O=c1[n-]c([O-])c(/C=C\c2cccc([O-])c2[O-])oc1=O (cis-trans isomerization)
O=c1[n-]c([O-])c(/C=C\c2cccc([O-])c2[O-])oc1=O (3D coordinates assigned)
O=c1[n-]c([O-])c(/C=C\c2cccc([O-])c2[O-])oc1=O (optimized conformer: 40.46418343327537 kcal/mol)

>  <smiles>  (18) 
O=c1[nH]c(O)c(C=Cc2cccc(O)c2O)oc1=O

>  <score_type>  (18) 
oracle

>  <origin>  (18) 
adg

>  <m_score__min__energy>  (18) 
-16.530000000000001

>  <m_primary>  (18) 
energy

$$$$
18:0
     RDKit          3D

 55 58  0  0  0  0  0  0  0  0999 V2000
   60.0170   35.7790   46.0730 O   0  0  0  0  0  0  0  0  0  0  0  0
   59.7650   34.5780   45.7870 C   0  0  0  0  0  0  0  0  0  0  0  0
   59.6940   34.2130   44.4430 O   0  0  0  0  0  0  0  0  0  0  0  0
   59.5230   33.5670   46.8490 C   0  0  0  0  0  0  0  0  0  0  0  0
   60.2720   33.6410   48.0390 C   0  0  0  0  0  0  0  0  0  0  0  0
   60.0790   32.7190   49.0670 C   0  0  0  0  0  0  0  0  0  0  0  0
   59.1410   31.6900   48.9230 C   0  0  0  0  0  0  0  0  0  0  0  0
   58.9360   30.4760   50.1900 S   0  0  0  0  0  0  0  0  0  0  0  0
   59.9710   30.7000   51.2600 O   0  0  0  0  0  0  0  0  0  0  0  0
   59.1640   29.1100   49.6020 O   0  0  0  0  0  0  0  0  0  0  0  0
   57.3480   30.5490   50.9160 N   0  0  0  0  0  0  0  0  0  0  0  0
   57.2460   29.5970   52.0280 C   0  0  0  0  0  0  0  0  0  0  0  0
   55.7700   29.4330   52.3810 C   0  0  0  0  0  0  0  0  0  0  0  0
   55.0690   30.7290   52.3570 N   0  0  0  0  0  0  0  0  0  0  0  0
   53.6530   30.7670   52.6360 C   0  0  0  0  0  0  0  0  0  0  0  0
   53.0790   29.8780   53.5640 C   0  0  0  0  0  0  0  0  0  0  0  0
   51.7080   29.9250   53.8380 C   0  0  0  0  0  0  0  0  0  0  0  0
   50.8940   30.8560   53.1860 C   0  0  0  0  0  0  0  0  0  0  0  0
   51.4520   31.7480   52.2630 C   0  0  0  0  0  0  0  0  0  0  0  0
   50.6470   32.6800   51.6190 O   0  0  0  0  0  0  0  0  0  0  0  0
   52.8240   31.7020   51.9850 C   0  0  0  0  0  0  0  0  0  0  0  0
   55.8330   31.9890   52.3250 C   0  0  0  0  0  0  0  0  0  0  0  0
   57.0470   31.9220   51.3690 C   0  0  0  0  0  0  0  0  0  0  0  0
   58.3880   31.6030   47.7480 C   0  0  0  0  0  0  0  0  0  0  0  0
   58.5480   32.5430   46.7180 C   0  0  0  0  0  0  0  0  0  0  0  0
   57.7360   32.4500   45.5390 N   0  0  0  0  0  0  0  0  0  0  0  0
   57.4320   30.9570   44.7090 S   0  0  0  0  0  0  0  0  0  0  0  0
   55.9650   30.6260   44.8340 O   0  0  0  0  0  0  0  0  0  0  0  0
   57.7610   31.1300   43.2500 O   0  0  0  0  0  0  0  0  0  0  0  0
   58.4130   29.6470   45.3700 C   0  0  0  0  0  0  0  0  0  0  0  0
   59.8050   29.6270   45.1760 C   0  0  0  0  0  0  0  0  0  0  0  0
   60.5660   28.5490   45.6450 C   0  0  0  0  0  0  0  0  0  0  0  0
   59.9420   27.4900   46.3160 C   0  0  0  0  0  0  0  0  0  0  0  0
   58.5580   27.5150   46.5360 C   0  0  0  0  0  0  0  0  0  0  0  0
   57.7940   28.5910   46.0620 C   0  0  0  0  0  0  0  0  0  0  0  0
   61.0205   34.4380   48.1594 H   0  0  0  0  0  0  0  0  0  0  0  0
   60.6656   32.8005   49.9940 H   0  0  0  0  0  0  0  0  0  0  0  0
   57.6671   28.6263   51.7271 H   0  0  0  0  0  0  0  0  0  0  0  0
   57.8062   29.9683   52.8989 H   0  0  0  0  0  0  0  0  0  0  0  0
   55.2996   28.7571   51.6517 H   0  0  0  0  0  0  0  0  0  0  0  0
   55.6990   29.0174   53.3970 H   0  0  0  0  0  0  0  0  0  0  0  0
   53.7133   29.1406   54.0777 H   0  0  0  0  0  0  0  0  0  0  0  0
   51.2697   29.2283   54.5677 H   0  0  0  0  0  0  0  0  0  0  0  0
   49.8152   30.8875   53.3984 H   0  0  0  0  0  0  0  0  0  0  0  0
   53.2571   32.4003   51.2537 H   0  0  0  0  0  0  0  0  0  0  0  0
   55.1659   32.7976   51.9917 H   0  0  0  0  0  0  0  0  0  0  0  0
   56.2165   32.1730   53.3395 H   0  0  0  0  0  0  0  0  0  0  0  0
   56.8336   32.5435   50.4869 H   0  0  0  0  0  0  0  0  0  0  0  0
   57.9242   32.2857   51.9242 H   0  0  0  0  0  0  0  0  0  0  0  0
   57.6603   30.7867   47.6292 H   0  0  0  0  0  0  0  0  0  0  0  0
   60.2980   30.4605   44.6543 H   0  0  0  0  0  0  0  0  0  0  0  0
   61.6544   28.5341   45.4863 H   0  0  0  0  0  0  0  0  0  0  0  0
   60.5391   26.6371   46.6710 H   0  0  0  0  0  0  0  0  0  0  0  0
   58.0718   26.6916   47.0798 H   0  0  0  0  0  0  0  0  0  0  0  0
   56.7074   28.6091   46.2320 H   0  0  0  0  0  0  0  0  0  0  0  0
  1  2  2  0
  2  3  1  0
  2  4  1  0
  4  5  2  0
  5  6  1  0
  6  7  2  0
  7  8  1  0
  8  9  2  0
  8 10  2  0
  8 11  1  0
 11 12  1  0
 12 13  1  0
 13 14  1  0
 14 15  1  0
 15 16  2  0
 16 17  1  0
 17 18  2  0
 18 19  1  0
 19 20  1  0
 19 21  2  0
 14 22  1  0
 22 23  1  0
  7 24  1  0
 24 25  2  0
 25 26  1  0
 26 27  1  0
 27 28  2  0
 27 29  2  0
 27 30  1  0
 30 31  2  0
 31 32  1  0
 32 33  2  0
 33 34  1  0
 34 35  2  0
 25  4  1  0
 35 30  1  0
 23 11  1  0
 21 15  1  0
  5 36  1  0
  6 37  1  0
 12 38  1  0
 12 39  1  0
 13 40  1  0
 13 41  1  0
 16 42  1  0
 17 43  1  0
 18 44  1  0
 21 45  1  0
 22 46  1  0
 22 47  1  0
 23 48  1  0
 23 49  1  0
 24 50  1  0
 31 51  1  0
 32 52  1  0
 33 53  1  0
 34 54  1  0
 35 55  1  0
M  CHG  3   3  -1  20  -1  26  -1
M  END
>  <UniqueID>  (19) 
18

>  <SMILES>  (19) 
O=C([O-])c1ccc(S(=O)(=O)N2CCN(c3cccc([O-])c3)CC2)cc1[N-]S(=O)(=O)c1ccccc1

>  <Energy>  (19) 
74.12148681982885

>  <Genealogy>  (19) 
O=C([O-])c1ccc(S(=O)(=O)N2CCN(c3cccc([O-])c3)CC2)cc1[N-]S(=O)(=O)c1ccccc1 (protonated)
O=C([O-])c1ccc(S(=O)(=O)N2CCN(c3cccc([O-])c3)CC2)cc1[N-]S(=O)(=O)c1ccccc1 (3D coordinates assigned)
O=C([O-])c1ccc(S(=O)(=O)N2CCN(c3cccc([O-])c3)CC2)cc1[N-]S(=O)(=O)c1ccccc1 (nonaromatic ring conformer: 74.12148681982885 kcal/mol)

>  <smiles>  (19) 
O=C(O)c1ccc(S(=O)(=O)N2CCN(c3cccc(O)c3)CC2)cc1NS(=O)(=O)c1ccccc1

>  <score_type>  (19) 
oracle

>  <origin>  (19) 
adg

>  <m_score__min__energy>  (19) 
-15.84

>  <m_primary>  (19) 
energy

$$$$
19:0
     RDKit          3D

 46 49  0  0  0  0  0  0  0  0999 V2000
   55.4600   24.3290   47.0390 O   0  0  0  0  0  0  0  0  0  0  0  0
   55.0380   24.9090   46.0030 C   0  0  0  0  0  0  0  0  0  0  0  0
   55.0600   26.3390   45.9100 N   0  0  0  0  0  0  0  0  0  0  0  0
   56.2380   27.1570   45.9320 C   0  0  0  0  0  0  0  0  0  0  0  0
   57.3630   26.6900   46.6240 C   0  0  0  0  0  0  0  0  0  0  0  0
   58.5440   27.4490   46.6680 C   0  0  0  0  0  0  0  0  0  0  0  0
   59.7210   26.9380   47.3990 C   0  0  0  0  0  0  0  0  0  0  0  0
   60.4670   26.0910   46.8360 O   0  0  0  0  0  0  0  0  0  0  0  0
   60.0410   27.3950   48.7250 N   0  0  0  0  0  0  0  0  0  0  0  0
   61.0450   26.7390   49.5680 C   0  0  0  0  0  0  0  0  0  0  0  0
   61.2210   27.6940   50.6870 C   0  0  0  0  0  0  0  0  0  0  0  0
   62.0620   27.5700   51.7960 C   0  0  0  0  0  0  0  0  0  0  0  0
   62.0800   28.6080   52.7420 C   0  0  0  0  0  0  0  0  0  0  0  0
   61.2650   29.7440   52.5650 C   0  0  0  0  0  0  0  0  0  0  0  0
   60.4280   29.8470   51.4420 C   0  0  0  0  0  0  0  0  0  0  0  0
   60.4270   28.8030   50.5140 C   0  0  0  0  0  0  0  0  0  0  0  0
   59.6300   28.6930   49.2690 C   0  0  0  0  0  0  0  0  0  0  0  0
   58.5720   28.7090   46.0550 C   0  0  0  0  0  0  0  0  0  0  0  0
   57.4440   29.1970   45.3930 C   0  0  0  0  0  0  0  0  0  0  0  0
   56.2730   28.4350   45.3380 C   0  0  0  0  0  0  0  0  0  0  0  0
   55.1460   28.9730   44.7280 O   0  0  0  0  0  0  0  0  0  0  0  0
   54.4700   24.1180   44.9060 C   0  0  0  0  0  0  0  0  0  0  0  0
   53.2190   24.0080   44.7990 O   0  0  0  0  0  0  0  0  0  0  0  0
   55.3420   23.5220   43.9360 N   0  0  0  0  0  0  0  0  0  0  0  0
   56.6860   23.0700   44.1590 C   0  0  0  0  0  0  0  0  0  0  0  0
   57.5790   23.7710   44.9920 C   0  0  0  0  0  0  0  0  0  0  0  0
   58.8880   23.3110   45.1660 C   0  0  0  0  0  0  0  0  0  0  0  0
   59.3210   22.1610   44.5010 C   0  0  0  0  0  0  0  0  0  0  0  0
   58.4470   21.4730   43.6540 C   0  0  0  0  0  0  0  0  0  0  0  0
   57.1380   21.9300   43.4770 C   0  0  0  0  0  0  0  0  0  0  0  0
   56.3020   21.2560   42.6480 F   0  0  0  0  0  0  0  0  0  0  0  0
   57.3210   25.7186   47.1384 H   0  0  0  0  0  0  0  0  0  0  0  0
   60.6806   25.7671   49.9321 H   0  0  0  0  0  0  0  0  0  0  0  0
   61.9819   26.5213   49.0343 H   0  0  0  0  0  0  0  0  0  0  0  0
   62.6954   26.6800   51.9252 H   0  0  0  0  0  0  0  0  0  0  0  0
   62.7327   28.5340   53.6243 H   0  0  0  0  0  0  0  0  0  0  0  0
   61.2845   30.5534   53.3096 H   0  0  0  0  0  0  0  0  0  0  0  0
   59.7878   30.7296   51.2965 H   0  0  0  0  0  0  0  0  0  0  0  0
   58.5520   28.7061   49.4877 H   0  0  0  0  0  0  0  0  0  0  0  0
   59.7991   29.5271   48.5721 H   0  0  0  0  0  0  0  0  0  0  0  0
   59.4879   29.3168   46.0957 H   0  0  0  0  0  0  0  0  0  0  0  0
   57.4766   30.1859   44.9123 H   0  0  0  0  0  0  0  0  0  0  0  0
   57.2457   24.6837   45.5077 H   0  0  0  0  0  0  0  0  0  0  0  0
   59.5780   23.8554   45.8275 H   0  0  0  0  0  0  0  0  0  0  0  0
   60.3492   21.7971   44.6438 H   0  0  0  0  0  0  0  0  0  0  0  0
   58.7899   20.5709   43.1262 H   0  0  0  0  0  0  0  0  0  0  0  0
  1  2  2  0
  2  3  1  0
  3  4  1  0
  4  5  2  0
  5  6  1  0
  6  7  1  0
  7  8  2  0
  7  9  1  0
  9 10  1  0
 10 11  1  0
 11 12  2  0
 12 13  1  0
 13 14  2  0
 14 15  1  0
 15 16  2  0
 16 17  1  0
  6 18  2  0
 18 19  1  0
 19 20  2  0
 20 21  1  0
  2 22  1  0
 22 23  2  0
 22 24  1  0
 24 25  1  0
 25 26  2  0
 26 27  1  0
 27 28  2  0
 28 29  1  0
 29 30  2  0
 30 31  1  0
 20  4  1  0
 30 25  1  0
 17  9  1  0
 16 11  1  0
  5 32  1  0
 10 33  1  0
 10 34  1  0
 12 35  1  0
 13 36  1  0
 14 37  1  0
 15 38  1  0
 17 39  1  0
 17 40  1  0
 18 41  1  0
 19 42  1  0
 26 43  1  0
 27 44  1  0
 28 45  1  0
 29 46  1  0
M  CHG  3   3  -1  21  -1  24  -1
M  END
>  <UniqueID>  (20) 
19

>  <SMILES>  (20) 
O=C([N-]c1cc(C(=O)N2Cc3ccccc3C2)ccc1[O-])C(=O)[N-]c1ccccc1F

>  <Energy>  (20) 
73.31748329404545

>  <Genealogy>  (20) 
O=C([N-]c1cc(C(=O)N2Cc3ccccc3C2)ccc1[O-])C(=O)[N-]c1ccccc1F (protonated)
O=C([N-]c1cc(C(=O)N2Cc3ccccc3C2)ccc1[O-])C(=O)[N-]c1ccccc1F (3D coordinates assigned)
O=C([N-]c1cc(C(=O)N2Cc3ccccc3C2)ccc1[O-])C(=O)[N-]c1ccccc1F (nonaromatic ring conformer: 73.31748329404545 kcal/mol)

>  <smiles>  (20) 
O=C(Nc1cc(C(=O)N2Cc3ccccc3C2)ccc1O)C(=O)Nc1ccccc1F

>  <score_type>  (20) 
oracle

>  <origin>  (20) 
adg

>  <m_score__min__energy>  (20) 
-15.119999999999999

>  <m_primary>  (20) 
energy

$$$$
20:0
     RDKit          3D

 74 77  0  0  0  0  0  0  0  0999 V2000
   54.6310   30.5970   52.1040 C   0  0  0  0  0  0  0  0  0  0  0  0
   56.1270   30.5740   52.1580 C   0  0  0  0  0  0  0  0  0  0  0  0
   56.7340   29.4740   52.0700 O   0  0  0  0  0  0  0  0  0  0  0  0
   56.8870   31.7770   52.3120 N   0  0  0  0  0  0  0  0  0  0  0  0
   57.7790   32.3100   51.2910 C   0  0  0  0  0  0  0  0  0  0  0  0
   59.1830   32.3830   51.8410 C   0  0  0  0  0  0  0  0  0  0  0  0
   59.6380   33.6280   52.3110 C   0  0  0  0  0  0  0  0  0  0  0  0
   60.9030   33.7550   52.8860 C   0  0  0  0  0  0  0  0  0  0  0  0
   61.7290   32.6400   53.0110 C   0  0  0  0  0  0  0  0  0  0  0  0
   61.2950   31.3920   52.5580 C   0  0  0  0  0  0  0  0  0  0  0  0
   60.0260   31.2440   51.9680 C   0  0  0  0  0  0  0  0  0  0  0  0
   59.5970   29.8660   51.5160 C   0  0  0  0  0  0  0  0  0  0  0  0
   58.8660   29.9410   50.2520 N   0  0  0  0  0  0  0  0  0  0  0  0
   59.5440   30.1330   49.0010 C   0  0  0  0  0  0  0  0  0  0  0  0
   60.8060   30.1040   48.9640 O   0  0  0  0  0  0  0  0  0  0  0  0
   58.7810   30.3500   47.7480 C   0  0  0  0  0  0  0  0  0  0  0  0
   58.2620   29.2650   47.0300 C   0  0  0  0  0  0  0  0  0  0  0  0
   57.5550   29.4840   45.8410 C   0  0  0  0  0  0  0  0  0  0  0  0
   56.9680   28.3630   45.0830 C   0  0  0  0  0  0  0  0  0  0  0  0
   57.3750   28.1360   43.9140 O   0  0  0  0  0  0  0  0  0  0  0  0
   55.9250   27.5420   45.6230 N   0  0  0  0  0  0  0  0  0  0  0  0
   56.1490   26.3070   46.3650 C   0  0  0  0  0  0  0  0  0  0  0  0
   56.1880   25.1520   45.4070 C   0  0  0  0  0  0  0  0  0  0  0  0
   55.0630   24.3250   45.2550 C   0  0  0  0  0  0  0  0  0  0  0  0
   55.1060   23.2280   44.3890 C   0  0  0  0  0  0  0  0  0  0  0  0
   56.2720   22.9460   43.6710 C   0  0  0  0  0  0  0  0  0  0  0  0
   57.3970   23.7610   43.8190 C   0  0  0  0  0  0  0  0  0  0  0  0
   57.3590   24.8590   44.6860 C   0  0  0  0  0  0  0  0  0  0  0  0
   57.3440   30.7580   45.4160 N   0  0  0  0  0  0  0  0  0  0  0  0
   57.8180   31.8440   46.0830 C   0  0  0  0  0  0  0  0  0  0  0  0
   57.5850   33.0260   45.5840 N   0  0  0  0  0  0  0  0  0  0  0  0
   58.5460   34.1150   45.3860 C   0  0  0  0  0  0  0  0  0  0  0  0
   59.5890   34.1800   46.4810 C   0  0  0  0  0  0  0  0  0  0  0  0
   59.2700   34.5480   47.8010 C   0  0  0  0  0  0  0  0  0  0  0  0
   60.2630   34.5850   48.7840 C   0  0  0  0  0  0  0  0  0  0  0  0
   61.5780   34.2210   48.4820 C   0  0  0  0  0  0  0  0  0  0  0  0
   62.5590   34.2760   49.5270 N   0  0  0  0  0  0  0  0  0  0  0  0
   63.8230   33.1180   49.7970 S   0  0  0  0  0  0  0  0  0  0  0  0
   64.6820   33.4670   51.3200 C   0  0  0  0  0  0  0  0  0  0  0  0
   64.7840   33.1300   48.6380 O   0  0  0  0  0  0  0  0  0  0  0  0
   63.2070   31.7530   49.8980 O   0  0  0  0  0  0  0  0  0  0  0  0
   61.8900   33.8020   47.1790 C   0  0  0  0  0  0  0  0  0  0  0  0
   60.9040   33.7900   46.1880 C   0  0  0  0  0  0  0  0  0  0  0  0
   58.5480   31.6520   47.2750 C   0  0  0  0  0  0  0  0  0  0  0  0
   54.2272   30.6032   53.1272 H   0  0  0  0  0  0  0  0  0  0  0  0
   54.2971   31.5004   51.5726 H   0  0  0  0  0  0  0  0  0  0  0  0
   54.2695   29.7043   51.5726 H   0  0  0  0  0  0  0  0  0  0  0  0
   57.7636   31.6515   50.4100 H   0  0  0  0  0  0  0  0  0  0  0  0
   57.4451   33.3170   51.0005 H   0  0  0  0  0  0  0  0  0  0  0  0
   58.9891   34.5119   52.2243 H   0  0  0  0  0  0  0  0  0  0  0  0
   61.2487   34.7370   53.2412 H   0  0  0  0  0  0  0  0  0  0  0  0
   62.7247   32.7427   53.4672 H   0  0  0  0  0  0  0  0  0  0  0  0
   61.9518   30.5160   52.6635 H   0  0  0  0  0  0  0  0  0  0  0  0
   60.4888   29.2365   51.3806 H   0  0  0  0  0  0  0  0  0  0  0  0
   58.9365   29.4325   52.2813 H   0  0  0  0  0  0  0  0  0  0  0  0
   57.8490   29.7070   50.2480 H   0  0  0  0  0  0  0  0  0  0  0  0
   58.4099   28.2399   47.4004 H   0  0  0  0  0  0  0  0  0  0  0  0
   57.1062   26.3703   46.9032 H   0  0  0  0  0  0  0  0  0  0  0  0
   55.3331   26.1585   47.0877 H   0  0  0  0  0  0  0  0  0  0  0  0
   54.1441   24.5412   45.8197 H   0  0  0  0  0  0  0  0  0  0  0  0
   54.2207   22.5856   44.2724 H   0  0  0  0  0  0  0  0  0  0  0  0
   56.3036   22.0828   42.9899 H   0  0  0  0  0  0  0  0  0  0  0  0
   58.3140   23.5394   43.2533 H   0  0  0  0  0  0  0  0  0  0  0  0
   58.2486   25.4952   44.8038 H   0  0  0  0  0  0  0  0  0  0  0  0
   59.0557   33.9638   44.4230 H   0  0  0  0  0  0  0  0  0  0  0  0
   57.9848   35.0609   45.4051 H   0  0  0  0  0  0  0  0  0  0  0  0
   58.2333   34.8081   48.0609 H   0  0  0  0  0  0  0  0  0  0  0  0
   60.0069   34.9037   49.8052 H   0  0  0  0  0  0  0  0  0  0  0  0
   64.0379   33.2053   52.1725 H   0  0  0  0  0  0  0  0  0  0  0  0
   65.6071   32.8734   51.3635 H   0  0  0  0  0  0  0  0  0  0  0  0
   64.9309   34.5376   51.3635 H   0  0  0  0  0  0  0  0  0  0  0  0
   62.9142   33.4819   46.9368 H   0  0  0  0  0  0  0  0  0  0  0  0
   61.1623   33.4712   45.1674 H   0  0  0  0  0  0  0  0  0  0  0  0
   58.9333   32.5188   47.8320 H   0  0  0  0  0  0  0  0  0  0  0  0
  1  2  1  0
  2  3  2  0
  2  4  1  0
  4  5  1  0
  5  6  1  0
  6  7  2  0
  7  8  1  0
  8  9  2  0
  9 10  1  0
 10 11  2  0
 11 12  1  0
 12 13  1  0
 13 14  1  0
 14 15  2  0
 14 16  1  0
 16 17  1  0
 17 18  2  0
 18 19  1  0
 19 20  2  0
 19 21  1  0
 21 22  1  0
 22 23  1  0
 23 24  2  0
 24 25  1  0
 25 26  2  0
 26 27  1  0
 27 28  2  0
 18 29  1  0
 29 30  1  0
 30 31  2  3
 31 32  1  0
 32 33  1  0
 33 34  2  0
 34 35  1  0
 35 36  2  0
 36 37  1  0
 37 38  1  0
 38 39  1  0
 38 40  2  0
 38 41  2  0
 36 42  1  0
 42 43  2  0
 30 44  1  0
 11  6  1  0
 44 16  2  0
 28 23  1  0
 43 33  1  0
  1 45  1  0
  1 46  1  0
  1 47  1  0
  5 48  1  0
  5 49  1  0
  7 50  1  0
  8 51  1  0
  9 52  1  0
 10 53  1  0
 12 54  1  0
 12 55  1  0
 13 56  1  0
 17 57  1  0
 22 58  1  0
 22 59  1  0
 24 60  1  0
 25 61  1  0
 26 62  1  0
 27 63  1  0
 28 64  1  0
 32 65  1  0
 32 66  1  0
 34 67  1  0
 35 68  1  0
 39 69  1  0
 39 70  1  0
 39 71  1  0
 42 72  1  0
 43 73  1  0
 44 74  1  0
M  CHG  4   4  -1  21  -1  29  -1  37  -1
M  END
>  <UniqueID>  (21) 
20

>  <SMILES>  (21) 
CC(=O)[N-]Cc1ccccc1CNC(=O)c1cc(C(=O)[N-]Cc2ccccc2)[n-]c(=NCc2ccc([N-]S(C)(=O)=O)cc2)c1

>  <Energy>  (21) 
77.68671234291747

>  <Genealogy>  (21) 
CC(=O)[N-]Cc1ccccc1CNC(=O)c1cc(C(=O)[N-]Cc2ccccc2)[n-]c(=NCc2ccc([N-]S(C)(=O)=O)cc2)c1 (protonated)
CC(=O)[N-]Cc1ccccc1CNC(=O)c1cc(C(=O)[N-]Cc2ccccc2)[n-]c(=NCc2ccc([N-]S(C)(=O)=O)cc2)c1 (3D coordinates assigned)
CC(=O)[N-]Cc1ccccc1CNC(=O)c1cc(C(=O)[N-]Cc2ccccc2)[n-]c(=NCc2ccc([N-]S(C)(=O)=O)cc2)c1 (optimized conformer: 77.68671234291747 kcal/mol)

>  <smiles>  (21) 
CC(=O)NCc1ccccc1CNC(=O)c1cc(C(=O)NCc2ccccc2)[nH]c(=NCc2ccc(NS(C)(=O)=O)cc2)c1

>  <score_type>  (21) 
oracle

>  <origin>  (21) 
adg

>  <m_score__min__energy>  (21) 
-16.940000000000001

>  <m_primary>  (21) 
energy

$$$$
21:0
     RDKit          3D

 35 36  0  0  0  0  0  0  0  0999 V2000
   58.4475   33.5861   44.8193 H   0  0  0  0  0  0  0  0  0  0  0  0
   57.6410   32.9390   44.4440 C   0  0  0  0  0  0  0  0  0  0  0  0
   56.9843   33.2917   43.6351 H   0  0  0  0  0  0  0  0  0  0  0  0
   57.4590   31.7240   44.9710 C   0  0  0  0  0  0  0  0  0  0  0  0
   56.4560   30.9460   44.4890 N   0  0  0  0  0  0  0  0  0  0  0  0
   56.2230   29.7040   44.9830 C   0  0  0  0  0  0  0  0  0  0  0  0
   55.2850   29.0070   44.5160 O   0  0  0  0  0  0  0  0  0  0  0  0
   56.9980   29.2140   45.9820 N   0  0  0  0  0  0  0  0  0  0  0  0
   58.0220   29.9380   46.5150 C   0  0  0  0  0  0  0  0  0  0  0  0
   58.7650   29.4090   47.5050 C   0  0  0  0  0  0  0  0  0  0  0  0
   58.4006   29.4818   48.5403 H   0  0  0  0  0  0  0  0  0  0  0  0
   60.0800   28.7200   47.2420 C   0  0  0  0  0  0  0  0  0  0  0  0
   60.8041   29.4597   46.8698 H   0  0  0  0  0  0  0  0  0  0  0  0
   60.4313   28.2711   48.1828 H   0  0  0  0  0  0  0  0  0  0  0  0
   59.9310   27.6440   46.2380 N   0  0  0  0  0  0  0  0  0  0  0  0
   60.2160   28.1380   44.8660 C   0  0  0  0  0  0  0  0  0  0  0  0
   60.8630   29.0249   44.9355 H   0  0  0  0  0  0  0  0  0  0  0  0
   60.7090   27.3273   44.3094 H   0  0  0  0  0  0  0  0  0  0  0  0
   58.9310   28.5190   44.1100 C   0  0  0  0  0  0  0  0  0  0  0  0
   58.4237   29.3260   44.6589 H   0  0  0  0  0  0  0  0  0  0  0  0
   59.2185   28.8406   43.0981 H   0  0  0  0  0  0  0  0  0  0  0  0
   57.9950   27.3710   43.9740 N   0  0  0  0  0  0  0  0  0  0  0  0
   57.0200   27.7450   44.0590 H   0  0  0  0  0  0  0  0  0  0  0  0
   58.1010   26.7540   42.6390 C   0  0  0  0  0  0  0  0  0  0  0  0
   58.2864   25.6752   42.7474 H   0  0  0  0  0  0  0  0  0  0  0  0
   57.1627   26.9112   42.0869 H   0  0  0  0  0  0  0  0  0  0  0  0
   58.9330   27.2154   42.0869 H   0  0  0  0  0  0  0  0  0  0  0  0
   58.1750   26.3400   45.0260 C   0  0  0  0  0  0  0  0  0  0  0  0
   57.2227   25.8101   45.1756 H   0  0  0  0  0  0  0  0  0  0  0  0
   58.9602   25.6425   44.6989 H   0  0  0  0  0  0  0  0  0  0  0  0
   58.6100   26.9720   46.3550 C   0  0  0  0  0  0  0  0  0  0  0  0
   57.8579   27.7147   46.6596 H   0  0  0  0  0  0  0  0  0  0  0  0
   58.6981   26.1705   47.1032 H   0  0  0  0  0  0  0  0  0  0  0  0
   58.2780   31.2320   46.0100 C   0  0  0  0  0  0  0  0  0  0  0  0
   59.2180   31.9350   46.4790 O   0  0  0  0  0  0  0  0  0  0  0  0
  1  2  1  0
  2  3  1  0
  2  4  2  0
  4  5  1  0
  5  6  1  0
  6  7  2  0
  6  8  1  0
  8  9  1  0
  9 10  2  0
 10 11  1  0
 10 12  1  0
 12 13  1  0
 12 14  1  0
 12 15  1  0
 15 16  1  0
 16 17  1  0
 16 18  1  0
 16 19  1  0
 19 20  1  0
 19 21  1  0
 19 22  1  0
 22 23  1  0
 22 24  1  0
 24 25  1  0
 24 26  1  0
 24 27  1  0
 22 28  1  0
 28 29  1  0
 28 30  1  0
 28 31  1  0
 31 32  1  0
 31 33  1  0
  9 34  1  0
 34 35  2  0
 34  4  1  0
 31 15  1  0
M  CHG  3   5  -1   8  -1  22   1
M  END
>  <UniqueID>  (22) 
21

>  <SMILES>  (22) 
C=c1[n-]c(=O)[n-]/c(=C\CN2CC[NH+](C)CC2)c1=O

>  <Energy>  (22) 
50.86899141716721

>  <Genealogy>  (22) 
C=c1[n-]c(=O)[n-]c(=CCN2CC[NH+](C)CC2)c1=O (protonated)
C=c1[n-]c(=O)[n-]/c(=C\CN2CC[NH+](C)CC2)c1=O (cis-trans isomerization)
C=c1[n-]c(=O)[n-]/c(=C\CN2CC[NH+](C)CC2)c1=O (3D coordinates assigned)
C=c1[n-]c(=O)[n-]/c(=C\CN2CC[NH+](C)CC2)c1=O (nonaromatic ring conformer: 50.86899141716721 kcal/mol)

>  <smiles>  (22) 
C=c1[nH]c(=O)[nH]c(=CCN2CCN(C)CC2)c1=O

>  <score_type>  (22) 
oracle

>  <origin>  (22) 
adg

>  <m_score__min__energy>  (22) 
-9.5700000000000003

>  <m_primary>  (22) 
energy

$$$$
22:0
     RDKit          3D

 32 34  0  0  0  0  0  0  0  0999 V2000
   59.2810   34.5540   48.4360 N   0  0  0  0  0  0  0  0  0  0  0  0
   59.9490   34.6170   46.8450 S   0  0  0  0  0  0  0  0  0  0  0  0
   61.3980   34.2210   46.8910 O   0  0  0  0  0  0  0  0  0  0  0  0
   59.8490   36.0200   46.3120 O   0  0  0  0  0  0  0  0  0  0  0  0
   59.0610   33.5180   45.7950 C   0  0  0  0  0  0  0  0  0  0  0  0
   58.4970   33.9850   44.6020 C   0  0  0  0  0  0  0  0  0  0  0  0
   57.8010   33.1090   43.7650 C   0  0  0  0  0  0  0  0  0  0  0  0
   57.6690   31.7620   44.1120 C   0  0  0  0  0  0  0  0  0  0  0  0
   58.2350   31.2750   45.3040 C   0  0  0  0  0  0  0  0  0  0  0  0
   58.0940   29.8450   45.6620 C   0  0  0  0  0  0  0  0  0  0  0  0
   58.7590   29.2580   46.6830 N   0  0  0  0  0  0  0  0  0  0  0  0
   58.4840   27.9620   46.8280 N   0  0  0  0  0  0  0  0  0  0  0  0
   57.5920   27.4820   45.9290 C   0  0  0  0  0  0  0  0  0  0  0  0
   57.1480   26.0610   45.9010 C   0  0  0  0  0  0  0  0  0  0  0  0
   58.1250   25.0470   45.8340 C   0  0  0  0  0  0  0  0  0  0  0  0
   57.7590   23.6980   45.8030 C   0  0  0  0  0  0  0  0  0  0  0  0
   58.7480   22.7180   45.7350 O   0  0  0  0  0  0  0  0  0  0  0  0
   56.4070   23.3420   45.8410 C   0  0  0  0  0  0  0  0  0  0  0  0
   55.4270   24.3320   45.9090 C   0  0  0  0  0  0  0  0  0  0  0  0
   55.7840   25.6850   45.9420 C   0  0  0  0  0  0  0  0  0  0  0  0
   54.7700   26.6310   46.0220 O   0  0  0  0  0  0  0  0  0  0  0  0
   57.1090   28.7190   44.8860 S   0  0  0  0  0  0  0  0  0  0  0  0
   58.9340   32.1650   46.1410 C   0  0  0  0  0  0  0  0  0  0  0  0
   59.0980   35.5390   48.7310 H   0  0  0  0  0  0  0  0  0  0  0  0
   58.6019   35.0438   44.3229 H   0  0  0  0  0  0  0  0  0  0  0  0
   57.3558   33.4808   42.8304 H   0  0  0  0  0  0  0  0  0  0  0  0
   57.1190   31.0781   43.4488 H   0  0  0  0  0  0  0  0  0  0  0  0
   59.1900   25.3209   45.8057 H   0  0  0  0  0  0  0  0  0  0  0  0
   58.7530   22.0210   45.0000 H   0  0  0  0  0  0  0  0  0  0  0  0
   56.1166   22.2813   45.8173 H   0  0  0  0  0  0  0  0  0  0  0  0
   54.3649   24.0472   45.9369 H   0  0  0  0  0  0  0  0  0  0  0  0
   59.3844   31.7961   47.0743 H   0  0  0  0  0  0  0  0  0  0  0  0
  1  2  1  0
  2  3  2  0
  2  4  2  0
  2  5  1  0
  5  6  2  0
  6  7  1  0
  7  8  2  0
  8  9  1  0
  9 10  1  0
 10 11  2  0
 11 12  1  0
 12 13  2  0
 13 14  1  0
 14 15  2  0
 15 16  1  0
 16 17  1  0
 16 18  2  0
 18 19  1  0
 19 20  2  0
 20 21  1  0
 13 22  1  0
  9 23  2  0
 23  5  1  0
 22 10  1  0
 20 14  1  0
  1 24  1  0
  6 25  1  0
  7 26  1  0
  8 27  1  0
 15 28  1  0
 17 29  1  0
 18 30  1  0
 19 31  1  0
 23 32  1  0
M  CHG  2   1  -1  21  -1
M  END
>  <UniqueID>  (23) 
22

>  <SMILES>  (23) 
[NH-]S(=O)(=O)c1cccc(-c2nnc(-c3cc(O)ccc3[O-])s2)c1

>  <Energy>  (23) 
72.89257703961897

>  <Genealogy>  (23) 
[NH-]S(=O)(=O)c1cccc(-c2nnc(-c3cc(O)ccc3[O-])s2)c1 (protonated)
[NH-]S(=O)(=O)c1cccc(-c2nnc(-c3cc(O)ccc3[O-])s2)c1 (3D coordinates assigned)
[NH-]S(=O)(=O)c1cccc(-c2nnc(-c3cc(O)ccc3[O-])s2)c1 (optimized conformer: 72.89257703961897 kcal/mol)

>  <smiles>  (23) 
NS(=O)(=O)c1cccc(-c2nnc(-c3cc(O)ccc3O)s2)c1

>  <score_type>  (23) 
oracle

>  <origin>  (23) 
adg

>  <m_score__min__energy>  (23) 
-12.880000000000001

>  <m_primary>  (23) 
energy

$$$$
23:0
     RDKit          3D

 55 57  0  0  0  0  0  0  0  0999 V2000
   58.9550   29.8090   49.4090 C   0  0  0  0  0  0  0  0  0  0  0  0
   60.0040   30.3980   48.5810 N   0  0  0  0  0  0  0  0  0  0  0  0
   60.7110   31.4460   48.9710 N   0  0  0  0  0  0  0  0  0  0  0  0
   61.6130   31.7630   48.0190 C   0  0  0  0  0  0  0  0  0  0  0  0
   62.6090   32.9080   48.1380 C   0  0  0  0  0  0  0  0  0  0  0  0
   62.0000   34.0090   49.0250 C   0  0  0  0  0  0  0  0  0  0  0  0
   63.9390   32.4360   48.7650 C   0  0  0  0  0  0  0  0  0  0  0  0
   62.9020   33.4790   46.7360 C   0  0  0  0  0  0  0  0  0  0  0  0
   61.4810   30.8610   46.9700 C   0  0  0  0  0  0  0  0  0  0  0  0
   60.4490   30.0300   47.3520 C   0  0  0  0  0  0  0  0  0  0  0  0
   60.0180   29.0480   46.6120 N   0  0  0  0  0  0  0  0  0  0  0  0
   59.9190   27.6600   46.9440 C   0  0  0  0  0  0  0  0  0  0  0  0
   60.9580   27.0610   47.3360 O   0  0  0  0  0  0  0  0  0  0  0  0
   58.6490   26.8950   46.7970 C   0  0  0  0  0  0  0  0  0  0  0  0
   58.5410   25.6800   47.4980 C   0  0  0  0  0  0  0  0  0  0  0  0
   57.3760   24.9200   47.4410 C   0  0  0  0  0  0  0  0  0  0  0  0
   57.2810   23.7680   48.1490 F   0  0  0  0  0  0  0  0  0  0  0  0
   56.3070   25.3450   46.6590 C   0  0  0  0  0  0  0  0  0  0  0  0
   56.4050   26.5200   45.9190 C   0  0  0  0  0  0  0  0  0  0  0  0
   57.5690   27.3220   45.9710 C   0  0  0  0  0  0  0  0  0  0  0  0
   57.6760   28.5790   45.1210 C   0  0  0  0  0  0  0  0  0  0  0  0
   57.4120   29.8060   45.8810 N   0  0  0  0  0  0  0  0  0  0  0  0
   57.3670   31.1970   44.8330 S   0  0  0  0  0  0  0  0  0  0  0  0
   58.1000   30.8830   43.5570 O   0  0  0  0  0  0  0  0  0  0  0  0
   55.9390   31.5120   44.4940 O   0  0  0  0  0  0  0  0  0  0  0  0
   58.1010   32.6010   45.6130 C   0  0  0  0  0  0  0  0  0  0  0  0
   58.1390   32.6900   47.0120 C   0  0  0  0  0  0  0  0  0  0  0  0
   58.7560   33.7810   47.6320 C   0  0  0  0  0  0  0  0  0  0  0  0
   59.3270   34.7950   46.8580 C   0  0  0  0  0  0  0  0  0  0  0  0
   59.2840   34.7190   45.4630 C   0  0  0  0  0  0  0  0  0  0  0  0
   58.6770   33.6240   44.8420 C   0  0  0  0  0  0  0  0  0  0  0  0
   59.2043   29.9490   50.4712 H   0  0  0  0  0  0  0  0  0  0  0  0
   57.9956   30.3003   49.1897 H   0  0  0  0  0  0  0  0  0  0  0  0
   58.8750   28.7340   49.1897 H   0  0  0  0  0  0  0  0  0  0  0  0
   60.5860   31.9350   49.8860 H   0  0  0  0  0  0  0  0  0  0  0  0
   62.1442   33.7483   50.0839 H   0  0  0  0  0  0  0  0  0  0  0  0
   62.4963   34.9674   48.8125 H   0  0  0  0  0  0  0  0  0  0  0  0
   60.9244   34.0980   48.8125 H   0  0  0  0  0  0  0  0  0  0  0  0
   63.8580   32.4648   49.8616 H   0  0  0  0  0  0  0  0  0  0  0  0
   64.1528   31.4071   48.4400 H   0  0  0  0  0  0  0  0  0  0  0  0
   64.7536   33.0999   48.4400 H   0  0  0  0  0  0  0  0  0  0  0  0
   63.4022   34.4538   46.8343 H   0  0  0  0  0  0  0  0  0  0  0  0
   63.5555   32.7853   46.1868 H   0  0  0  0  0  0  0  0  0  0  0  0
   61.9573   33.6053   46.1868 H   0  0  0  0  0  0  0  0  0  0  0  0
   62.0691   30.8192   46.0413 H   0  0  0  0  0  0  0  0  0  0  0  0
   59.3902   25.3251   48.1004 H   0  0  0  0  0  0  0  0  0  0  0  0
   55.3818   24.7510   46.6253 H   0  0  0  0  0  0  0  0  0  0  0  0
   55.5628   26.8301   45.2829 H   0  0  0  0  0  0  0  0  0  0  0  0
   58.6926   28.6358   44.7047 H   0  0  0  0  0  0  0  0  0  0  0  0
   56.9137   28.5094   44.3311 H   0  0  0  0  0  0  0  0  0  0  0  0
   57.6817   31.8986   47.6240 H   0  0  0  0  0  0  0  0  0  0  0  0
   58.7920   33.8412   48.7298 H   0  0  0  0  0  0  0  0  0  0  0  0
   59.8106   35.6535   47.3470 H   0  0  0  0  0  0  0  0  0  0  0  0
   59.7277   35.5206   44.8543 H   0  0  0  0  0  0  0  0  0  0  0  0
   58.6502   33.5630   43.7440 H   0  0  0  0  0  0  0  0  0  0  0  0
  1  2  1  0
  2  3  1  0
  3  4  1  0
  4  5  1  0
  5  6  1  0
  5  7  1  0
  5  8  1  0
  4  9  2  0
  9 10  1  0
 10 11  2  3
 11 12  1  0
 12 13  2  0
 12 14  1  0
 14 15  2  0
 15 16  1  0
 16 17  1  0
 16 18  2  0
 18 19  1  0
 19 20  2  0
 20 21  1  0
 21 22  1  0
 22 23  1  0
 23 24  2  0
 23 25  2  0
 23 26  1  0
 26 27  2  0
 27 28  1  0
 28 29  2  0
 29 30  1  0
 30 31  2  0
 10  2  1  0
 20 14  1  0
 31 26  1  0
  1 32  1  0
  1 33  1  0
  1 34  1  0
  3 35  1  0
  6 36  1  0
  6 37  1  0
  6 38  1  0
  7 39  1  0
  7 40  1  0
  7 41  1  0
  8 42  1  0
  8 43  1  0
  8 44  1  0
  9 45  1  0
 15 46  1  0
 18 47  1  0
 19 48  1  0
 21 49  1  0
 21 50  1  0
 27 51  1  0
 28 52  1  0
 29 53  1  0
 30 54  1  0
 31 55  1  0
M  CHG  1  22  -1
M  END
>  <UniqueID>  (24) 
23

>  <SMILES>  (24) 
Cn1[nH]c(C(C)(C)C)cc1=NC(=O)c1cc(F)ccc1C[N-]S(=O)(=O)c1ccccc1

>  <Energy>  (24) 
98.47988892658222

>  <Genealogy>  (24) 
Cn1[nH]c(C(C)(C)C)cc1=NC(=O)c1cc(F)ccc1C[N-]S(=O)(=O)c1ccccc1 (protonated)
Cn1[nH]c(C(C)(C)C)cc1=NC(=O)c1cc(F)ccc1C[N-]S(=O)(=O)c1ccccc1 (3D coordinates assigned)
Cn1[nH]c(C(C)(C)C)cc1=NC(=O)c1cc(F)ccc1C[N-]S(=O)(=O)c1ccccc1 (optimized conformer: 98.47988892658222 kcal/mol)

>  <smiles>  (24) 
Cn1[nH]c(C(C)(C)C)cc1=NC(=O)c1cc(F)ccc1CNS(=O)(=O)c1ccccc1

>  <score_type>  (24) 
oracle

>  <origin>  (24) 
adg

>  <m_score__min__energy>  (24) 
-11.81

>  <m_primary>  (24) 
energy

$$$$
24:0
     RDKit          3D

 58 61  0  0  0  0  0  0  0  0999 V2000
   60.2462   28.1336   48.3422 H   0  0  0  0  0  0  0  0  0  0  0  0
   59.5590   27.7300   47.5840 C   0  0  0  0  0  0  0  0  0  0  0  0
   59.3221   26.6559   47.5725 H   0  0  0  0  0  0  0  0  0  0  0  0
   59.0090   28.5490   46.6720 C   0  0  0  0  0  0  0  0  0  0  0  0
   58.1190   28.1950   45.6450 C   0  0  0  0  0  0  0  0  0  0  0  0
   57.7500   26.9900   45.1710 C   0  0  0  0  0  0  0  0  0  0  0  0
   57.9145   26.7983   44.1004 H   0  0  0  0  0  0  0  0  0  0  0  0
   57.1460   25.9090   45.9630 C   0  0  0  0  0  0  0  0  0  0  0  0
   57.7920   24.7940   46.3550 N   0  0  0  0  0  0  0  0  0  0  0  0
   56.8170   24.0530   46.9220 C   0  0  0  0  0  0  0  0  0  0  0  0
   57.0330   22.9220   47.4290 O   0  0  0  0  0  0  0  0  0  0  0  0
   55.5880   24.6150   46.8940 N   0  0  0  0  0  0  0  0  0  0  0  0
   55.8140   25.7820   46.2710 C   0  0  0  0  0  0  0  0  0  0  0  0
   54.8220   26.7150   45.9910 O   0  0  0  0  0  0  0  0  0  0  0  0
   57.6270   29.3850   45.1340 C   0  0  0  0  0  0  0  0  0  0  0  0
   56.8669   29.4945   44.3464 H   0  0  0  0  0  0  0  0  0  0  0  0
   58.2710   30.4060   45.8000 C   0  0  0  0  0  0  0  0  0  0  0  0
   58.0430   31.8650   45.5410 C   0  0  0  0  0  0  0  0  0  0  0  0
   57.9596   32.3988   46.4992 H   0  0  0  0  0  0  0  0  0  0  0  0
   58.8884   32.2720   44.9669 H   0  0  0  0  0  0  0  0  0  0  0  0
   57.1137   31.9946   44.9669 H   0  0  0  0  0  0  0  0  0  0  0  0
   59.1090   29.9030   46.7330 N   0  0  0  0  0  0  0  0  0  0  0  0
   59.9010   30.6730   47.6560 C   0  0  0  0  0  0  0  0  0  0  0  0
   59.3430   31.1320   48.8570 C   0  0  0  0  0  0  0  0  0  0  0  0
   58.2921   30.9085   49.0929 H   0  0  0  0  0  0  0  0  0  0  0  0
   60.1150   31.8720   49.7560 C   0  0  0  0  0  0  0  0  0  0  0  0
   59.6649   32.2370   50.6910 H   0  0  0  0  0  0  0  0  0  0  0  0
   61.4620   32.1530   49.4740 C   0  0  0  0  0  0  0  0  0  0  0  0
   62.2720   32.9410   50.4320 C   0  0  0  0  0  0  0  0  0  0  0  0
   61.6810   33.6910   51.2550 O   0  0  0  0  0  0  0  0  0  0  0  0
   63.7120   32.8750   50.4470 N   0  0  0  0  0  0  0  0  0  0  0  0
   64.4710   34.0680   50.8440 C   0  0  0  0  0  0  0  0  0  0  0  0
   64.1821   34.9063   50.1930 H   0  0  0  0  0  0  0  0  0  0  0  0
   64.2384   34.2853   51.8969 H   0  0  0  0  0  0  0  0  0  0  0  0
   65.9840   33.8480   50.7270 C   0  0  0  0  0  0  0  0  0  0  0  0
   66.2656   33.8288   49.6638 H   0  0  0  0  0  0  0  0  0  0  0  0
   66.5031   34.6692   51.2429 H   0  0  0  0  0  0  0  0  0  0  0  0
   66.3710   32.5740   51.3530 N   0  0  0  0  0  0  0  0  0  0  0  0
   67.6150   32.4300   52.0750 C   0  0  0  0  0  0  0  0  0  0  0  0
   67.8240   31.3800   52.7440 O   0  0  0  0  0  0  0  0  0  0  0  0
   68.6670   33.5110   52.0660 C   0  0  0  0  0  0  0  0  0  0  0  0
   68.1876   34.4818   52.2601 H   0  0  0  0  0  0  0  0  0  0  0  0
   69.4089   33.2863   52.8465 H   0  0  0  0  0  0  0  0  0  0  0  0
   69.3280   33.5620   50.8140 O   0  0  0  0  0  0  0  0  0  0  0  0
   69.2830   34.8710   50.2880 C   0  0  0  0  0  0  0  0  0  0  0  0
   69.2580   35.5973   51.1137 H   0  0  0  0  0  0  0  0  0  0  0  0
   70.1756   35.0488   49.6702 H   0  0  0  0  0  0  0  0  0  0  0  0
   68.3803   34.9871   49.6702 H   0  0  0  0  0  0  0  0  0  0  0  0
   65.5320   31.3790   51.1570 C   0  0  0  0  0  0  0  0  0  0  0  0
   66.1659   30.5542   50.7995 H   0  0  0  0  0  0  0  0  0  0  0  0
   65.0631   31.1300   52.1204 H   0  0  0  0  0  0  0  0  0  0  0  0
   64.4170   31.6250   50.1360 C   0  0  0  0  0  0  0  0  0  0  0  0
   64.8550   31.6955   49.1294 H   0  0  0  0  0  0  0  0  0  0  0  0
   63.7022   30.7899   50.1766 H   0  0  0  0  0  0  0  0  0  0  0  0
   62.0120   31.7120   48.2570 C   0  0  0  0  0  0  0  0  0  0  0  0
   63.0575   31.9497   48.0112 H   0  0  0  0  0  0  0  0  0  0  0  0
   61.2380   30.9740   47.3590 C   0  0  0  0  0  0  0  0  0  0  0  0
   61.6796   30.6268   46.4133 H   0  0  0  0  0  0  0  0  0  0  0  0
  1  2  1  0
  2  3  1  0
  2  4  2  0
  4  5  1  0
  5  6  2  0
  6  7  1  0
  6  8  1  0
  8  9  1  0
  9 10  1  0
 10 11  2  0
 10 12  1  0
 12 13  1  0
 13 14  1  0
  5 15  1  0
 15 16  1  0
 15 17  2  0
 17 18  1  0
 18 19  1  0
 18 20  1  0
 18 21  1  0
 17 22  1  0
 22 23  1  0
 23 24  2  0
 24 25  1  0
 24 26  1  0
 26 27  1  0
 26 28  2  0
 28 29  1  0
 29 30  2  0
 29 31  1  0
 31 32  1  0
 32 33  1  0
 32 34  1  0
 32 35  1  0
 35 36  1  0
 35 37  1  0
 35 38  1  0
 38 39  1  0
 39 40  2  0
 39 41  1  0
 41 42  1  0
 41 43  1  0
 41 44  1  0
 44 45  1  0
 45 46  1  0
 45 47  1  0
 45 48  1  0
 38 49  1  0
 49 50  1  0
 49 51  1  0
 49 52  1  0
 52 53  1  0
 52 54  1  0
 28 55  1  0
 55 56  1  0
 55 57  2  0
 57 58  1  0
 22  4  1  0
 57 23  1  0
 13  8  2  0
 52 31  1  0
M  CHG  3   9  -1  12  -1  14  -1
M  END
>  <UniqueID>  (25) 
24

>  <SMILES>  (25) 
C=c1/c(=C\c2[n-]c(=O)[n-]c2[O-])cc(C)n1-c1ccc(C(=O)N2CCN(C(=O)COC)CC2)cc1

>  <Energy>  (25) 
142.93535730684195

>  <Genealogy>  (25) 
C=c1c(=Cc2[n-]c(=O)[n-]c2[O-])cc(C)n1-c1ccc(C(=O)N2CCN(C(=O)COC)CC2)cc1 (protonated)
C=c1/c(=C\c2[n-]c(=O)[n-]c2[O-])cc(C)n1-c1ccc(C(=O)N2CCN(C(=O)COC)CC2)cc1 (cis-trans isomerization)
C=c1/c(=C\c2[n-]c(=O)[n-]c2[O-])cc(C)n1-c1ccc(C(=O)N2CCN(C(=O)COC)CC2)cc1 (3D coordinates assigned)
C=c1/c(=C\c2[n-]c(=O)[n-]c2[O-])cc(C)n1-c1ccc(C(=O)N2CCN(C(=O)COC)CC2)cc1 (nonaromatic ring conformer: 142.93535730684195 kcal/mol)

>  <smiles>  (25) 
C=c1c(=Cc2[nH]c(=O)[nH]c2O)cc(C)n1-c1ccc(C(=O)N2CCN(C(=O)COC)CC2)cc1

>  <score_type>  (25) 
oracle

>  <origin>  (25) 
adg

>  <m_score__min__energy>  (25) 
-15.9

>  <m_primary>  (25) 
energy

$$$$
25:0
     RDKit          3D

 40 42  0  0  0  0  0  0  0  0999 V2000
   55.9620   29.7810   43.9210 C   0  0  0  0  0  0  0  0  0  0  0  0
   55.5800   28.8140   44.8950 O   0  0  0  0  0  0  0  0  0  0  0  0
   56.4770   27.9970   45.6010 C   0  0  0  0  0  0  0  0  0  0  0  0
   57.7790   28.4200   45.9200 C   0  0  0  0  0  0  0  0  0  0  0  0
   58.6540   27.5760   46.6220 C   0  0  0  0  0  0  0  0  0  0  0  0
   60.0260   28.0190   46.9730 C   0  0  0  0  0  0  0  0  0  0  0  0
   60.7310   28.5860   46.0940 O   0  0  0  0  0  0  0  0  0  0  0  0
   60.5940   27.8340   48.3220 C   0  0  0  0  0  0  0  0  0  0  0  0
   61.0070   26.6970   48.6790 O   0  0  0  0  0  0  0  0  0  0  0  0
   60.5690   28.9340   49.2470 N   0  0  0  0  0  0  0  0  0  0  0  0
   59.9650   30.0800   49.1120 C   0  0  0  0  0  0  0  0  0  0  0  0
   59.8390   30.7760   47.9560 N   0  0  0  0  0  0  0  0  0  0  0  0
   59.1300   31.9310   48.1260 C   0  0  0  0  0  0  0  0  0  0  0  0
   58.8440   32.8640   47.0070 C   0  0  0  0  0  0  0  0  0  0  0  0
   59.6060   34.0350   46.8380 C   0  0  0  0  0  0  0  0  0  0  0  0
   59.3340   34.9110   45.7830 C   0  0  0  0  0  0  0  0  0  0  0  0
   58.3000   34.6320   44.8870 C   0  0  0  0  0  0  0  0  0  0  0  0
   57.5380   33.4720   45.0420 C   0  0  0  0  0  0  0  0  0  0  0  0
   57.8070   32.5900   46.0940 C   0  0  0  0  0  0  0  0  0  0  0  0
   58.6870   32.1480   49.4330 C   0  0  0  0  0  0  0  0  0  0  0  0
   59.1900   30.8530   50.3820 S   0  0  0  0  0  0  0  0  0  0  0  0
   58.2050   26.3110   47.0280 C   0  0  0  0  0  0  0  0  0  0  0  0
   56.9070   25.8650   46.7180 C   0  0  0  0  0  0  0  0  0  0  0  0
   56.4800   24.5490   47.1370 N   0  0  0  0  0  0  0  0  0  0  0  0
   55.2860   24.2050   47.0180 O   0  0  0  0  0  0  0  0  0  0  0  0
   57.3650   23.6550   47.6910 O   0  0  0  0  0  0  0  0  0  0  0  0
   56.0460   26.7230   45.9980 C   0  0  0  0  0  0  0  0  0  0  0  0
   54.7530   26.3290   45.6740 O   0  0  0  0  0  0  0  0  0  0  0  0
   56.3208   30.6893   44.4272 H   0  0  0  0  0  0  0  0  0  0  0  0
   56.7654   29.3702   43.2919 H   0  0  0  0  0  0  0  0  0  0  0  0
   55.0947   30.0301   43.2919 H   0  0  0  0  0  0  0  0  0  0  0  0
   58.1156   29.4223   45.6165 H   0  0  0  0  0  0  0  0  0  0  0  0
   60.2190   30.4790   47.0340 H   0  0  0  0  0  0  0  0  0  0  0  0
   60.4211   34.2626   47.5407 H   0  0  0  0  0  0  0  0  0  0  0  0
   59.9364   35.8229   45.6583 H   0  0  0  0  0  0  0  0  0  0  0  0
   58.0859   35.3251   44.0601 H   0  0  0  0  0  0  0  0  0  0  0  0
   56.7244   33.2513   44.3353 H   0  0  0  0  0  0  0  0  0  0  0  0
   57.2048   31.6767   46.2089 H   0  0  0  0  0  0  0  0  0  0  0  0
   58.1087   33.0163   49.7817 H   0  0  0  0  0  0  0  0  0  0  0  0
   58.8795   25.6559   47.5989 H   0  0  0  0  0  0  0  0  0  0  0  0
  1  2  1  0
  2  3  1  0
  3  4  2  0
  4  5  1  0
  5  6  1  0
  6  7  2  0
  6  8  1  0
  8  9  2  0
  8 10  1  0
 10 11  2  3
 11 12  1  0
 12 13  1  0
 13 14  1  0
 14 15  2  0
 15 16  1  0
 16 17  2  0
 17 18  1  0
 18 19  2  0
 13 20  2  0
 20 21  1  0
  5 22  2  0
 22 23  1  0
 23 24  1  0
 24 25  2  0
 24 26  1  0
 23 27  2  0
 27 28  1  0
 27  3  1  0
 21 11  1  0
 19 14  1  0
  1 29  1  0
  1 30  1  0
  1 31  1  0
  4 32  1  0
 12 33  1  0
 15 34  1  0
 16 35  1  0
 17 36  1  0
 18 37  1  0
 19 38  1  0
 20 39  1  0
 22 40  1  0
M  CHG  3  24   1  26  -1  28  -1
M  END
>  <UniqueID>  (26) 
25

>  <SMILES>  (26) 
COc1cc(C(=O)C(=O)N=c2[nH]c(-c3ccccc3)cs2)cc([N+](=O)[O-])c1[O-]

>  <Energy>  (26) 
87.45324383572519

>  <Genealogy>  (26) 
COc1cc(C(=O)C(=O)N=c2[nH]c(-c3ccccc3)cs2)cc([N+](=O)[O-])c1[O-] (protonated)
COc1cc(C(=O)C(=O)N=c2[nH]c(-c3ccccc3)cs2)cc([N+](=O)[O-])c1[O-] (3D coordinates assigned)
COc1cc(C(=O)C(=O)N=c2[nH]c(-c3ccccc3)cs2)cc([N+](=O)[O-])c1[O-] (optimized conformer: 87.45324383572519 kcal/mol)

>  <smiles>  (26) 
COc1cc(C(=O)C(=O)N=c2[nH]c(-c3ccccc3)cs2)cc([N+](=O)[O-])c1O

>  <score_type>  (26) 
oracle

>  <origin>  (26) 
adg

>  <m_score__min__energy>  (26) 
-14.029999999999999

>  <m_primary>  (26) 
energy

$$$$
26:0
     RDKit          3D

 43 45  0  0  0  0  0  0  0  0999 V2000
   59.6420   35.3170   46.6470 C   0  0  0  0  0  0  0  0  0  0  0  0
   58.9840   34.0900   46.0700 C   0  0  0  0  0  0  0  0  0  0  0  0
   58.6440   34.0910   44.7070 C   0  0  0  0  0  0  0  0  0  0  0  0
   58.0670   32.9700   44.1130 C   0  0  0  0  0  0  0  0  0  0  0  0
   57.8110   31.8270   44.8710 C   0  0  0  0  0  0  0  0  0  0  0  0
   57.1060   30.4070   44.0980 S   0  0  0  0  0  0  0  0  0  0  0  0
   56.6560   30.7900   42.7160 O   0  0  0  0  0  0  0  0  0  0  0  0
   55.9060   29.9500   44.8810 O   0  0  0  0  0  0  0  0  0  0  0  0
   58.3100   29.1360   44.0170 N   0  0  0  0  0  0  0  0  0  0  0  0
   59.5770   29.5370   44.6950 C   0  0  0  0  0  0  0  0  0  0  0  0
   59.9360   28.6750   45.9190 C   0  0  0  0  0  0  0  0  0  0  0  0
   58.7060   28.4410   46.7920 C   0  0  0  0  0  0  0  0  0  0  0  0
   57.5600   27.7820   46.0050 C   0  0  0  0  0  0  0  0  0  0  0  0
   57.7570   27.8430   44.4790 C   0  0  0  0  0  0  0  0  0  0  0  0
   58.1340   31.8120   46.2330 C   0  0  0  0  0  0  0  0  0  0  0  0
   58.7100   32.9360   46.8550 C   0  0  0  0  0  0  0  0  0  0  0  0
   59.0080   32.8620   48.3090 C   0  0  0  0  0  0  0  0  0  0  0  0
   58.1610   32.3790   49.1090 O   0  0  0  0  0  0  0  0  0  0  0  0
   60.2840   33.3170   48.7910 N   0  0  0  0  0  0  0  0  0  0  0  0
   61.4420   33.0750   48.2530 C   0  0  0  0  0  0  0  0  0  0  0  0
   62.4660   33.9560   48.2130 N   0  0  0  0  0  0  0  0  0  0  0  0
   63.5510   33.4260   47.5870 C   0  0  0  0  0  0  0  0  0  0  0  0
   63.3910   32.1240   47.1280 C   0  0  0  0  0  0  0  0  0  0  0  0
   61.8350   31.6160   47.5210 S   0  0  0  0  0  0  0  0  0  0  0  0
   59.6144   35.2656   47.7455 H   0  0  0  0  0  0  0  0  0  0  0  0
   60.6874   35.3660   46.3083 H   0  0  0  0  0  0  0  0  0  0  0  0
   59.1044   36.2149   46.3083 H   0  0  0  0  0  0  0  0  0  0  0  0
   58.8357   34.9884   44.1005 H   0  0  0  0  0  0  0  0  0  0  0  0
   57.8126   32.9865   43.0430 H   0  0  0  0  0  0  0  0  0  0  0  0
   58.5200   29.0200   42.9970 H   0  0  0  0  0  0  0  0  0  0  0  0
   60.3976   29.4608   43.9664 H   0  0  0  0  0  0  0  0  0  0  0  0
   59.4286   30.5631   45.0627 H   0  0  0  0  0  0  0  0  0  0  0  0
   60.3255   27.7051   45.5761 H   0  0  0  0  0  0  0  0  0  0  0  0
   60.6967   29.2027   46.5130 H   0  0  0  0  0  0  0  0  0  0  0  0
   58.9845   27.7855   47.6303 H   0  0  0  0  0  0  0  0  0  0  0  0
   58.3534   29.4185   47.1527 H   0  0  0  0  0  0  0  0  0  0  0  0
   57.4910   26.7264   46.3065 H   0  0  0  0  0  0  0  0  0  0  0  0
   56.6410   28.3398   46.2380 H   0  0  0  0  0  0  0  0  0  0  0  0
   58.4485   27.0404   44.1828 H   0  0  0  0  0  0  0  0  0  0  0  0
   56.7666   27.7249   44.0151 H   0  0  0  0  0  0  0  0  0  0  0  0
   57.9346   30.9077   46.8267 H   0  0  0  0  0  0  0  0  0  0  0  0
   64.4875   33.9874   47.4537 H   0  0  0  0  0  0  0  0  0  0  0  0
   64.1499   31.5285   46.5993 H   0  0  0  0  0  0  0  0  0  0  0  0
  1  2  1  0
  2  3  2  0
  3  4  1  0
  4  5  2  0
  5  6  1  0
  6  7  2  0
  6  8  2  0
  6  9  1  0
  9 10  1  0
 10 11  1  0
 11 12  1  0
 12 13  1  0
 13 14  1  0
  5 15  1  0
 15 16  2  0
 16 17  1  0
 17 18  2  0
 17 19  1  0
 19 20  2  3
 20 21  1  0
 21 22  1  0
 22 23  2  0
 23 24  1  0
 16  2  1  0
 24 20  1  0
 14  9  1  0
  1 25  1  0
  1 26  1  0
  1 27  1  0
  3 28  1  0
  4 29  1  0
  9 30  1  0
 10 31  1  0
 10 32  1  0
 11 33  1  0
 11 34  1  0
 12 35  1  0
 12 36  1  0
 13 37  1  0
 13 38  1  0
 14 39  1  0
 14 40  1  0
 15 41  1  0
 22 42  1  0
 23 43  1  0
M  CHG  2   9   1  21  -1
M  END
>  <UniqueID>  (27) 
26

>  <SMILES>  (27) 
Cc1ccc(S(=O)(=O)[NH+]2CCCCC2)cc1C(=O)N=c1[n-]ccs1

>  <Energy>  (27) 
87.29742595216155

>  <Genealogy>  (27) 
Cc1ccc(S(=O)(=O)[NH+]2CCCCC2)cc1C(=O)N=c1[n-]ccs1 (protonated)
Cc1ccc(S(=O)(=O)[NH+]2CCCCC2)cc1C(=O)N=c1[n-]ccs1 (3D coordinates assigned)
Cc1ccc(S(=O)(=O)[NH+]2CCCCC2)cc1C(=O)N=c1[n-]ccs1 (nonaromatic ring conformer: 87.29742595216155 kcal/mol)

>  <smiles>  (27) 
Cc1ccc(S(=O)(=O)N2CCCCC2)cc1C(=O)N=c1[nH]ccs1

>  <score_type>  (27) 
oracle

>  <origin>  (27) 
adg

>  <m_score__min__energy>  (27) 
-9.1300000000000008

>  <m_primary>  (27) 
energy

$$$$
27:0
     RDKit          3D

 55 58  0  0  0  0  0  0  0  0999 V2000
   54.3370   26.6950   46.7510 H   0  0  0  0  0  0  0  0  0  0  0  0
   55.1150   26.5220   46.1250 O   0  0  0  0  0  0  0  0  0  0  0  0
   56.0660   25.5550   46.4230 C   0  0  0  0  0  0  0  0  0  0  0  0
   55.8310   24.4890   47.2030 N   0  0  0  0  0  0  0  0  0  0  0  0
   57.0060   23.8250   47.1620 C   0  0  0  0  0  0  0  0  0  0  0  0
   57.1960   22.7400   47.7760 O   0  0  0  0  0  0  0  0  0  0  0  0
   57.9610   24.4080   46.4060 N   0  0  0  0  0  0  0  0  0  0  0  0
   57.3630   25.5290   45.9620 C   0  0  0  0  0  0  0  0  0  0  0  0
   57.9790   26.4490   44.9940 C   0  0  0  0  0  0  0  0  0  0  0  0
   58.0840   26.0927   43.9586 H   0  0  0  0  0  0  0  0  0  0  0  0
   58.4260   27.6910   45.2660 C   0  0  0  0  0  0  0  0  0  0  0  0
   59.7360   27.9560   45.6360 C   0  0  0  0  0  0  0  0  0  0  0  0
   60.5271   27.2138   45.8184 H   0  0  0  0  0  0  0  0  0  0  0  0
   59.8590   29.3260   45.7320 C   0  0  0  0  0  0  0  0  0  0  0  0
   61.1410   30.0380   46.0340 C   0  0  0  0  0  0  0  0  0  0  0  0
   61.2721   30.1108   47.1237 H   0  0  0  0  0  0  0  0  0  0  0  0
   61.9825   29.4780   45.6001 H   0  0  0  0  0  0  0  0  0  0  0  0
   61.1103   31.0483   45.6001 H   0  0  0  0  0  0  0  0  0  0  0  0
   58.6700   29.9200   45.4800 N   0  0  0  0  0  0  0  0  0  0  0  0
   58.4150   31.3360   45.4540 C   0  0  0  0  0  0  0  0  0  0  0  0
   57.8240   31.8950   44.3130 C   0  0  0  0  0  0  0  0  0  0  0  0
   57.5602   31.2495   43.4623 H   0  0  0  0  0  0  0  0  0  0  0  0
   57.5680   33.2650   44.2490 C   0  0  0  0  0  0  0  0  0  0  0  0
   57.1087   33.6969   43.3476 H   0  0  0  0  0  0  0  0  0  0  0  0
   57.8940   34.0870   45.3270 C   0  0  0  0  0  0  0  0  0  0  0  0
   57.6890   35.1665   45.2763 H   0  0  0  0  0  0  0  0  0  0  0  0
   58.4800   33.5420   46.4700 C   0  0  0  0  0  0  0  0  0  0  0  0
   58.7273   34.1950   47.3200 H   0  0  0  0  0  0  0  0  0  0  0  0
   58.7570   32.1670   46.5450 C   0  0  0  0  0  0  0  0  0  0  0  0
   59.3540   31.6100   47.7800 C   0  0  0  0  0  0  0  0  0  0  0  0
   58.7880   30.6330   48.3450 O   0  0  0  0  0  0  0  0  0  0  0  0
   60.5420   32.1750   48.3700 N   0  0  0  0  0  0  0  0  0  0  0  0
   61.5340   32.8800   47.5480 C   0  0  0  0  0  0  0  0  0  0  0  0
   61.4339   32.5542   46.5021 H   0  0  0  0  0  0  0  0  0  0  0  0
   61.3559   33.9625   47.6283 H   0  0  0  0  0  0  0  0  0  0  0  0
   62.9530   32.5760   48.0360 C   0  0  0  0  0  0  0  0  0  0  0  0
   63.1900   31.5252   47.8133 H   0  0  0  0  0  0  0  0  0  0  0  0
   63.6483   33.2528   47.5179 H   0  0  0  0  0  0  0  0  0  0  0  0
   63.0850   32.7990   49.4830 N   0  0  0  0  0  0  0  0  0  0  0  0
   64.4030   32.9970   50.0400 C   0  0  0  0  0  0  0  0  0  0  0  0
   65.4180   32.6430   49.3840 O   0  0  0  0  0  0  0  0  0  0  0  0
   64.6000   33.5970   51.3990 C   0  0  0  0  0  0  0  0  0  0  0  0
   64.3548   32.8502   52.1686 H   0  0  0  0  0  0  0  0  0  0  0  0
   65.6482   33.9104   51.5130 H   0  0  0  0  0  0  0  0  0  0  0  0
   63.9416   34.4708   51.5130 H   0  0  0  0  0  0  0  0  0  0  0  0
   61.8860   32.9200   50.3240 C   0  0  0  0  0  0  0  0  0  0  0  0
   62.1397   32.6352   51.3558 H   0  0  0  0  0  0  0  0  0  0  0  0
   61.5354   33.9620   50.2879 H   0  0  0  0  0  0  0  0  0  0  0  0
   60.7640   32.0080   49.8130 C   0  0  0  0  0  0  0  0  0  0  0  0
   61.0367   30.9612   50.0128 H   0  0  0  0  0  0  0  0  0  0  0  0
   59.8357   32.2806   50.3364 H   0  0  0  0  0  0  0  0  0  0  0  0
   57.7740   28.9340   45.2230 C   0  0  0  0  0  0  0  0  0  0  0  0
   56.4550   29.1560   45.1020 C   0  0  0  0  0  0  0  0  0  0  0  0
   56.0703   30.1863   45.0810 H   0  0  0  0  0  0  0  0  0  0  0  0
   55.7593   28.3075   45.0239 H   0  0  0  0  0  0  0  0  0  0  0  0
  1  2  1  0
  2  3  1  0
  3  4  1  0
  4  5  1  0
  5  6  2  0
  5  7  1  0
  7  8  1  0
  8  9  1  0
  9 10  1  0
  9 11  2  0
 11 12  1  0
 12 13  1  0
 12 14  2  0
 14 15  1  0
 15 16  1  0
 15 17  1  0
 15 18  1  0
 14 19  1  0
 19 20  1  0
 20 21  2  0
 21 22  1  0
 21 23  1  0
 23 24  1  0
 23 25  2  0
 25 26  1  0
 25 27  1  0
 27 28  1  0
 27 29  2  0
 29 30  1  0
 30 31  2  0
 30 32  1  0
 32 33  1  0
 33 34  1  0
 33 35  1  0
 33 36  1  0
 36 37  1  0
 36 38  1  0
 36 39  1  0
 39 40  1  0
 40 41  2  0
 40 42  1  0
 42 43  1  0
 42 44  1  0
 42 45  1  0
 39 46  1  0
 46 47  1  0
 46 48  1  0
 46 49  1  0
 49 50  1  0
 49 51  1  0
 19 52  1  0
 52 53  2  0
 53 54  1  0
 53 55  1  0
  8  3  2  0
 52 11  1  0
 29 20  1  0
 49 32  1  0
M  CHG  2   4  -1   7  -1
M  END
>  <UniqueID>  (28) 
27

>  <SMILES>  (28) 
C=c1/c(=C\c2[n-]c(=O)[n-]c2O)cc(C)n1-c1ccccc1C(=O)N1CCN(C(C)=O)CC1

>  <Energy>  (28) 
137.20593912330236

>  <Genealogy>  (28) 
C=c1c(=Cc2[n-]c(=O)[n-]c2O)cc(C)n1-c1ccccc1C(=O)N1CCN(C(C)=O)CC1 (protonated)
C=c1/c(=C\c2[n-]c(=O)[n-]c2O)cc(C)n1-c1ccccc1C(=O)N1CCN(C(C)=O)CC1 (cis-trans isomerization)
C=c1/c(=C\c2[n-]c(=O)[n-]c2O)cc(C)n1-c1ccccc1C(=O)N1CCN(C(C)=O)CC1 (3D coordinates assigned)
C=c1/c(=C\c2[n-]c(=O)[n-]c2O)cc(C)n1-c1ccccc1C(=O)N1CCN(C(C)=O)CC1 (nonaromatic ring conformer: 137.20593912330236 kcal/mol)

>  <smiles>  (28) 
C=c1c(=Cc2[nH]c(=O)[nH]c2O)cc(C)n1-c1ccccc1C(=O)N1CCN(C(C)=O)CC1

>  <score_type>  (28) 
oracle

>  <origin>  (28) 
adg

>  <m_score__min__energy>  (28) 
-14.300000000000001

>  <m_primary>  (28) 
energy

$$$$
28:0
     RDKit          3D

 59 63  0  0  0  0  0  0  0  0999 V2000
   56.6500   33.9100   45.7550 N   0  0  0  0  0  0  0  0  0  0  0  0
   57.7190   33.9600   46.1940 C   0  0  0  0  0  0  0  0  0  0  0  0
   59.0490   34.0210   46.7390 C   0  0  0  0  0  0  0  0  0  0  0  0
   59.2440   34.1590   48.1130 C   0  0  0  0  0  0  0  0  0  0  0  0
   60.5380   34.2170   48.6320 C   0  0  0  0  0  0  0  0  0  0  0  0
   61.6430   34.1230   47.7610 C   0  0  0  0  0  0  0  0  0  0  0  0
   62.8760   34.1740   48.1880 N   0  0  0  0  0  0  0  0  0  0  0  0
   63.7770   33.0730   48.3760 C   0  0  0  0  0  0  0  0  0  0  0  0
   64.9340   33.2980   48.8190 O   0  0  0  0  0  0  0  0  0  0  0  0
   63.4090   31.6810   47.9430 C   0  0  0  0  0  0  0  0  0  0  0  0
   62.1630   31.2080   48.6370 C   0  0  0  0  0  0  0  0  0  0  0  0
   62.0230   30.9160   49.9910 C   0  0  0  0  0  0  0  0  0  0  0  0
   60.7990   30.3950   50.2390 N   0  0  0  0  0  0  0  0  0  0  0  0
   60.3370   29.8890   51.5320 C   0  0  0  0  0  0  0  0  0  0  0  0
   58.9870   30.4660   51.8600 C   0  0  0  0  0  0  0  0  0  0  0  0
   57.9510   29.6270   52.3030 C   0  0  0  0  0  0  0  0  0  0  0  0
   56.6840   30.1520   52.5690 C   0  0  0  0  0  0  0  0  0  0  0  0
   56.4380   31.5160   52.3890 C   0  0  0  0  0  0  0  0  0  0  0  0
   57.4610   32.3560   51.9400 C   0  0  0  0  0  0  0  0  0  0  0  0
   58.7300   31.8340   51.6720 C   0  0  0  0  0  0  0  0  0  0  0  0
   60.1710   30.3190   49.0450 C   0  0  0  0  0  0  0  0  0  0  0  0
   58.8950   29.8180   48.7690 C   0  0  0  0  0  0  0  0  0  0  0  0
   58.4640   29.8080   47.4310 C   0  0  0  0  0  0  0  0  0  0  0  0
   59.3080   30.2690   46.3950 C   0  0  0  0  0  0  0  0  0  0  0  0
   58.8220   30.2520   45.0470 N   0  0  0  0  0  0  0  0  0  0  0  0
   57.4590   30.4380   44.6410 C   0  0  0  0  0  0  0  0  0  0  0  0
   56.5910   29.6170   45.0420 O   0  0  0  0  0  0  0  0  0  0  0  0
   57.0600   31.5640   43.7110 C   0  0  0  0  0  0  0  0  0  0  0  0
   58.1970   32.5260   43.3690 C   0  0  0  0  0  0  0  0  0  0  0  0
   58.1170   32.1020   41.9100 C   0  0  0  0  0  0  0  0  0  0  0  0
   56.9800   31.1440   42.2440 C   0  0  0  0  0  0  0  0  0  0  0  0
   60.5800   30.7940   46.7090 C   0  0  0  0  0  0  0  0  0  0  0  0
   60.9790   30.8000   48.0460 C   0  0  0  0  0  0  0  0  0  0  0  0
   61.4200   34.0120   46.4180 N   0  0  0  0  0  0  0  0  0  0  0  0
   60.1640   33.9530   45.8980 C   0  0  0  0  0  0  0  0  0  0  0  0
   58.3776   34.2221   48.7878 H   0  0  0  0  0  0  0  0  0  0  0  0
   60.6952   34.3354   49.7143 H   0  0  0  0  0  0  0  0  0  0  0  0
   63.2382   31.6765   46.8563 H   0  0  0  0  0  0  0  0  0  0  0  0
   64.2342   31.0038   48.2085 H   0  0  0  0  0  0  0  0  0  0  0  0
   62.7986   31.0851   50.7525 H   0  0  0  0  0  0  0  0  0  0  0  0
   60.2632   28.7924   51.4883 H   0  0  0  0  0  0  0  0  0  0  0  0
   61.0543   30.1849   52.3117 H   0  0  0  0  0  0  0  0  0  0  0  0
   58.1382   28.5519   52.4411 H   0  0  0  0  0  0  0  0  0  0  0  0
   55.8785   29.4906   52.9208 H   0  0  0  0  0  0  0  0  0  0  0  0
   55.4403   31.9281   52.6005 H   0  0  0  0  0  0  0  0  0  0  0  0
   57.2674   33.4294   51.7973 H   0  0  0  0  0  0  0  0  0  0  0  0
   59.5304   32.4974   51.3124 H   0  0  0  0  0  0  0  0  0  0  0  0
   58.2475   29.4427   49.5752 H   0  0  0  0  0  0  0  0  0  0  0  0
   57.4576   29.4369   47.1872 H   0  0  0  0  0  0  0  0  0  0  0  0
   56.1682   31.9273   44.2427 H   0  0  0  0  0  0  0  0  0  0  0  0
   57.9565   33.5853   43.5426 H   0  0  0  0  0  0  0  0  0  0  0  0
   59.1522   32.4745   43.9121 H   0  0  0  0  0  0  0  0  0  0  0  0
   57.8328   32.9125   41.2227 H   0  0  0  0  0  0  0  0  0  0  0  0
   59.0142   31.7374   41.3884 H   0  0  0  0  0  0  0  0  0  0  0  0
   56.0255   31.3922   41.7569 H   0  0  0  0  0  0  0  0  0  0  0  0
   57.0451   30.0823   41.9638 H   0  0  0  0  0  0  0  0  0  0  0  0
   61.2389   31.1877   45.9210 H   0  0  0  0  0  0  0  0  0  0  0  0
   62.2320   33.9580   45.7630 H   0  0  0  0  0  0  0  0  0  0  0  0
   60.0252   33.8514   44.8115 H   0  0  0  0  0  0  0  0  0  0  0  0
  1  2  3  0
  2  3  1  0
  3  4  1  0
  4  5  2  0
  5  6  1  0
  6  7  2  3
  7  8  1  0
  8  9  2  0
  8 10  1  0
 10 11  1  0
 11 12  2  0
 12 13  1  0
 13 14  1  0
 14 15  1  0
 15 16  2  0
 16 17  1  0
 17 18  2  0
 18 19  1  0
 19 20  2  0
 13 21  1  0
 21 22  2  0
 22 23  1  0
 23 24  2  0
 24 25  1  0
 25 26  1  0
 26 27  2  0
 26 28  1  0
 28 29  1  0
 29 30  1  0
 30 31  1  0
 24 32  1  0
 32 33  2  0
  6 34  1  0
 34 35  1  0
 35  3  2  0
 33 11  1  0
 20 15  1  0
 33 21  1  0
 31 28  1  0
  4 36  1  0
  5 37  1  0
 10 38  1  0
 10 39  1  0
 12 40  1  0
 14 41  1  0
 14 42  1  0
 16 43  1  0
 17 44  1  0
 18 45  1  0
 19 46  1  0
 20 47  1  0
 22 48  1  0
 23 49  1  0
 28 50  1  0
 29 51  1  0
 29 52  1  0
 30 53  1  0
 30 54  1  0
 31 55  1  0
 31 56  1  0
 32 57  1  0
 34 58  1  0
 35 59  1  0
M  CHG  1  25  -1
M  END
>  <UniqueID>  (29) 
28

>  <SMILES>  (29) 
N#Cc1ccc(=NC(=O)Cc2cn(Cc3ccccc3)c3ccc([N-]C(=O)C4CCC4)cc23)[nH]c1

>  <Energy>  (29) 
168.077983323093

>  <Genealogy>  (29) 
N#Cc1ccc(=NC(=O)Cc2cn(Cc3ccccc3)c3ccc([N-]C(=O)C4CCC4)cc23)[nH]c1 (protonated)
N#Cc1ccc(=NC(=O)Cc2cn(Cc3ccccc3)c3ccc([N-]C(=O)C4CCC4)cc23)[nH]c1 (3D coordinates assigned)
N#Cc1ccc(=NC(=O)Cc2cn(Cc3ccccc3)c3ccc([N-]C(=O)C4CCC4)cc23)[nH]c1 (nonaromatic ring conformer: 168.077983323093 kcal/mol)

>  <smiles>  (29) 
N#Cc1ccc(=NC(=O)Cc2cn(Cc3ccccc3)c3ccc(NC(=O)C4CCC4)cc23)[nH]c1

>  <score_type>  (29) 
oracle

>  <origin>  (29) 
adg

>  <m_score__min__energy>  (29) 
-11.52

>  <m_primary>  (29) 
energy

$$$$
29:0
     RDKit          3D

 41 43  0  0  0  0  0  0  0  0999 V2000
   54.7460   29.6250   43.0460 O   0  0  0  0  0  0  0  0  0  0  0  0
   55.5900   29.8000   43.9650 C   0  0  0  0  0  0  0  0  0  0  0  0
   55.5170   28.9660   45.1320 N   0  0  0  0  0  0  0  0  0  0  0  0
   56.5150   28.0290   45.5720 C   0  0  0  0  0  0  0  0  0  0  0  0
   57.8820   28.3530   45.5570 C   0  0  0  0  0  0  0  0  0  0  0  0
   58.8320   27.4540   46.0540 C   0  0  0  0  0  0  0  0  0  0  0  0
   60.5240   27.9320   46.1550 S   0  0  0  0  0  0  0  0  0  0  0  0
   61.3780   26.6940   46.1270 O   0  0  0  0  0  0  0  0  0  0  0  0
   60.8670   28.7850   44.9640 O   0  0  0  0  0  0  0  0  0  0  0  0
   60.7700   28.8100   47.6580 N   0  0  0  0  0  0  0  0  0  0  0  0
   61.4120   30.1180   47.4430 C   0  0  0  0  0  0  0  0  0  0  0  0
   60.4470   31.1330   46.7890 C   0  0  0  0  0  0  0  0  0  0  0  0
   59.0980   30.7010   46.8010 O   0  0  0  0  0  0  0  0  0  0  0  0
   58.7510   30.2410   48.0900 C   0  0  0  0  0  0  0  0  0  0  0  0
   59.5200   28.9480   48.4350 C   0  0  0  0  0  0  0  0  0  0  0  0
   58.4220   26.1890   46.4950 C   0  0  0  0  0  0  0  0  0  0  0  0
   57.0700   25.8370   46.4580 C   0  0  0  0  0  0  0  0  0  0  0  0
   56.1160   26.7540   46.0030 C   0  0  0  0  0  0  0  0  0  0  0  0
   54.7720   26.3980   45.9900 O   0  0  0  0  0  0  0  0  0  0  0  0
   56.5980   30.8770   43.8240 C   0  0  0  0  0  0  0  0  0  0  0  0
   57.0540   31.5670   44.9580 C   0  0  0  0  0  0  0  0  0  0  0  0
   57.9700   32.6160   44.8090 C   0  0  0  0  0  0  0  0  0  0  0  0
   58.4210   33.3280   45.9170 O   0  0  0  0  0  0  0  0  0  0  0  0
   58.4220   32.9510   43.5710 N   0  0  0  0  0  0  0  0  0  0  0  0
   58.0120   32.2900   42.4570 C   0  0  0  0  0  0  0  0  0  0  0  0
   58.4560   32.6300   41.3290 O   0  0  0  0  0  0  0  0  0  0  0  0
   57.1000   31.2360   42.5630 C   0  0  0  0  0  0  0  0  0  0  0  0
   58.2083   29.3219   45.1510 H   0  0  0  0  0  0  0  0  0  0  0  0
   61.7423   30.5160   48.4139 H   0  0  0  0  0  0  0  0  0  0  0  0
   62.2647   29.9717   46.7637 H   0  0  0  0  0  0  0  0  0  0  0  0
   60.5152   32.0845   47.3366 H   0  0  0  0  0  0  0  0  0  0  0  0
   60.7481   31.2424   45.7367 H   0  0  0  0  0  0  0  0  0  0  0  0
   58.9998   31.0168   48.8290 H   0  0  0  0  0  0  0  0  0  0  0  0
   57.6724   30.0260   48.1095 H   0  0  0  0  0  0  0  0  0  0  0  0
   59.7698   28.9610   49.5062 H   0  0  0  0  0  0  0  0  0  0  0  0
   58.8725   28.0956   48.1817 H   0  0  0  0  0  0  0  0  0  0  0  0
   59.1659   25.4713   46.8712 H   0  0  0  0  0  0  0  0  0  0  0  0
   56.7548   24.8360   46.7876 H   0  0  0  0  0  0  0  0  0  0  0  0
   56.6939   31.2854   45.9585 H   0  0  0  0  0  0  0  0  0  0  0  0
   58.7600   32.8570   46.7480 H   0  0  0  0  0  0  0  0  0  0  0  0
   56.7775   30.6910   41.6636 H   0  0  0  0  0  0  0  0  0  0  0  0
  1  2  2  0
  2  3  1  0
  3  4  1  0
  4  5  2  0
  5  6  1  0
  6  7  1  0
  7  8  2  0
  7  9  2  0
  7 10  1  0
 10 11  1  0
 11 12  1  0
 12 13  1  0
 13 14  1  0
 14 15  1  0
  6 16  2  0
 16 17  1  0
 17 18  2  0
 18 19  1  0
  2 20  1  0
 20 21  1  0
 21 22  2  0
 22 23  1  0
 22 24  1  0
 24 25  1  0
 25 26  2  0
 25 27  1  0
 18  4  1  0
 27 20  2  0
 15 10  1  0
  5 28  1  0
 11 29  1  0
 11 30  1  0
 12 31  1  0
 12 32  1  0
 14 33  1  0
 14 34  1  0
 15 35  1  0
 15 36  1  0
 16 37  1  0
 17 38  1  0
 21 39  1  0
 23 40  1  0
 27 41  1  0
M  CHG  3   3  -1  19  -1  24  -1
M  END
>  <UniqueID>  (30) 
29

>  <SMILES>  (30) 
O=C([N-]c1cc(S(=O)(=O)N2CCOCC2)ccc1[O-])c1cc(O)[n-]c(=O)c1

>  <Energy>  (30) 
60.422667088147435

>  <Genealogy>  (30) 
O=C([N-]c1cc(S(=O)(=O)N2CCOCC2)ccc1[O-])c1cc(O)[n-]c(=O)c1 (protonated)
O=C([N-]c1cc(S(=O)(=O)N2CCOCC2)ccc1[O-])c1cc(O)[n-]c(=O)c1 (3D coordinates assigned)
O=C([N-]c1cc(S(=O)(=O)N2CCOCC2)ccc1[O-])c1cc(O)[n-]c(=O)c1 (nonaromatic ring conformer: 60.422667088147435 kcal/mol)

>  <smiles>  (30) 
O=C(Nc1cc(S(=O)(=O)N2CCOCC2)ccc1O)c1cc(O)[nH]c(=O)c1

>  <score_type>  (30) 
oracle

>  <origin>  (30) 
adg

>  <m_score__min__energy>  (30) 
-14.27

>  <m_primary>  (30) 
energy

$$$$
30:0
     RDKit          3D

 47 50  0  0  0  0  0  0  0  0999 V2000
   60.1930   25.9600   46.0300 O   0  0  0  0  0  0  0  0  0  0  0  0
   59.4370   26.5980   46.8110 C   0  0  0  0  0  0  0  0  0  0  0  0
   59.6800   26.5680   48.2250 N   0  0  0  0  0  0  0  0  0  0  0  0
   59.9810   27.6970   49.0590 C   0  0  0  0  0  0  0  0  0  0  0  0
   60.9890   27.5700   50.0260 C   0  0  0  0  0  0  0  0  0  0  0  0
   61.3180   28.6490   50.8480 C   0  0  0  0  0  0  0  0  0  0  0  0
   60.6580   29.8710   50.7000 C   0  0  0  0  0  0  0  0  0  0  0  0
   59.6600   30.0230   49.7220 C   0  0  0  0  0  0  0  0  0  0  0  0
   58.9980   31.3590   49.5200 C   0  0  0  0  0  0  0  0  0  0  0  0
   59.8310   32.2250   48.6140 C   0  0  0  0  0  0  0  0  0  0  0  0
   60.9320   31.6820   47.9290 C   0  0  0  0  0  0  0  0  0  0  0  0
   61.7220   32.4950   47.1080 C   0  0  0  0  0  0  0  0  0  0  0  0
   61.4220   33.8540   46.9680 C   0  0  0  0  0  0  0  0  0  0  0  0
   60.3300   34.4030   47.6510 C   0  0  0  0  0  0  0  0  0  0  0  0
   59.5420   33.5950   48.4760 C   0  0  0  0  0  0  0  0  0  0  0  0
   59.3350   28.9350   48.8930 C   0  0  0  0  0  0  0  0  0  0  0  0
   58.3350   27.4350   46.2620 C   0  0  0  0  0  0  0  0  0  0  0  0
   57.0310   26.9220   46.1380 C   0  0  0  0  0  0  0  0  0  0  0  0
   56.7310   25.6190   46.5250 O   0  0  0  0  0  0  0  0  0  0  0  0
   56.0450   27.6930   45.6180 N   0  0  0  0  0  0  0  0  0  0  0  0
   56.2760   28.9660   45.2140 C   0  0  0  0  0  0  0  0  0  0  0  0
   55.3230   29.6360   44.7270 O   0  0  0  0  0  0  0  0  0  0  0  0
   57.5270   29.5090   45.3240 N   0  0  0  0  0  0  0  0  0  0  0  0
   57.7610   30.8700   44.9150 C   0  0  0  0  0  0  0  0  0  0  0  0
   57.8550   31.8900   45.8740 C   0  0  0  0  0  0  0  0  0  0  0  0
   58.0700   33.2130   45.4750 C   0  0  0  0  0  0  0  0  0  0  0  0
   58.1830   33.5260   44.1170 C   0  0  0  0  0  0  0  0  0  0  0  0
   58.0910   32.5140   43.1580 C   0  0  0  0  0  0  0  0  0  0  0  0
   57.8830   31.1880   43.5550 C   0  0  0  0  0  0  0  0  0  0  0  0
   58.5550   28.7660   45.8460 C   0  0  0  0  0  0  0  0  0  0  0  0
   59.6980   29.2860   45.9800 O   0  0  0  0  0  0  0  0  0  0  0  0
   61.5232   26.6148   50.1372 H   0  0  0  0  0  0  0  0  0  0  0  0
   62.0991   28.5367   51.6143 H   0  0  0  0  0  0  0  0  0  0  0  0
   60.9203   30.7177   51.3514 H   0  0  0  0  0  0  0  0  0  0  0  0
   58.0072   31.2078   49.0667 H   0  0  0  0  0  0  0  0  0  0  0  0
   58.8952   31.8576   50.4951 H   0  0  0  0  0  0  0  0  0  0  0  0
   61.1735   30.6144   48.0386 H   0  0  0  0  0  0  0  0  0  0  0  0
   62.5805   32.0643   46.5718 H   0  0  0  0  0  0  0  0  0  0  0  0
   62.0436   34.4911   46.3217 H   0  0  0  0  0  0  0  0  0  0  0  0
   60.0919   35.4710   47.5384 H   0  0  0  0  0  0  0  0  0  0  0  0
   58.6919   34.0325   49.0199 H   0  0  0  0  0  0  0  0  0  0  0  0
   58.5712   29.0528   48.1102 H   0  0  0  0  0  0  0  0  0  0  0  0
   57.7593   31.6483   46.9428 H   0  0  0  0  0  0  0  0  0  0  0  0
   58.1503   34.0084   46.2305 H   0  0  0  0  0  0  0  0  0  0  0  0
   58.3442   34.5681   43.8039 H   0  0  0  0  0  0  0  0  0  0  0  0
   58.1822   32.7597   42.0897 H   0  0  0  0  0  0  0  0  0  0  0  0
   57.8151   30.3931   42.7977 H   0  0  0  0  0  0  0  0  0  0  0  0
  1  2  2  0
  2  3  1  0
  3  4  1  0
  4  5  2  0
  5  6  1  0
  6  7  2  0
  7  8  1  0
  8  9  1  0
  9 10  1  0
 10 11  2  0
 11 12  1  0
 12 13  2  0
 13 14  1  0
 14 15  2  0
  8 16  2  0
  2 17  1  0
 17 18  2  0
 18 19  1  0
 18 20  1  0
 20 21  1  0
 21 22  2  0
 21 23  1  0
 23 24  1  0
 24 25  2  0
 25 26  1  0
 26 27  2  0
 27 28  1  0
 28 29  2  0
 23 30  1  0
 30 31  2  0
 16  4  1  0
 30 17  1  0
 15 10  1  0
 29 24  1  0
  5 32  1  0
  6 33  1  0
  7 34  1  0
  9 35  1  0
  9 36  1  0
 11 37  1  0
 12 38  1  0
 13 39  1  0
 14 40  1  0
 15 41  1  0
 16 42  1  0
 25 43  1  0
 26 44  1  0
 27 45  1  0
 28 46  1  0
 29 47  1  0
M  CHG  3   3  -1  19  -1  20  -1
M  END
>  <UniqueID>  (31) 
30

>  <SMILES>  (31) 
O=C([N-]c1cccc(Cc2ccccc2)c1)c1c([O-])[n-]c(=O)n(-c2ccccc2)c1=O

>  <Energy>  (31) 
70.07213064471863

>  <Genealogy>  (31) 
O=C([N-]c1cccc(Cc2ccccc2)c1)c1c([O-])[n-]c(=O)n(-c2ccccc2)c1=O (protonated)
O=C([N-]c1cccc(Cc2ccccc2)c1)c1c([O-])[n-]c(=O)n(-c2ccccc2)c1=O (3D coordinates assigned)
O=C([N-]c1cccc(Cc2ccccc2)c1)c1c([O-])[n-]c(=O)n(-c2ccccc2)c1=O (optimized conformer: 70.07213064471863 kcal/mol)

>  <smiles>  (31) 
O=C(Nc1cccc(Cc2ccccc2)c1)c1c(O)[nH]c(=O)n(-c2ccccc2)c1=O

>  <score_type>  (31) 
oracle

>  <origin>  (31) 
adg

>  <m_score__min__energy>  (31) 
-14.460000000000001

>  <m_primary>  (31) 
energy

$$$$
31:0
     RDKit          3D

 44 46  0  0  0  0  0  0  0  0999 V2000
   51.3790   21.8880   45.6870 H   0  0  0  0  0  0  0  0  0  0  0  0
   52.3450   21.5890   45.6410 O   0  0  0  0  0  0  0  0  0  0  0  0
   53.4040   22.4950   45.6870 C   0  0  0  0  0  0  0  0  0  0  0  0
   54.7100   22.0100   45.7950 C   0  0  0  0  0  0  0  0  0  0  0  0
   54.8889   20.9258   45.8440 H   0  0  0  0  0  0  0  0  0  0  0  0
   59.0220   29.8540   45.5570 C   0  0  0  0  0  0  0  0  0  0  0  0
   59.6047   30.7606   45.3367 H   0  0  0  0  0  0  0  0  0  0  0  0
   57.6650   29.7940   45.2030 C   0  0  0  0  0  0  0  0  0  0  0  0
   57.0010   30.9420   44.5420 C   0  0  0  0  0  0  0  0  0  0  0  0
   55.9139   30.8812   44.3857 H   0  0  0  0  0  0  0  0  0  0  0  0
   56.7110   25.2360   45.8280 C   0  0  0  0  0  0  0  0  0  0  0  0
   56.0762   26.4236   47.4288 H   0  0  0  0  0  0  0  0  0  0  0  0
   57.5230   27.5720   46.2040 C   0  0  0  0  0  0  0  0  0  0  0  0
   58.9000   27.6270   46.4970 C   0  0  0  0  0  0  0  0  0  0  0  0
   59.5480   26.5440   47.0820 O   0  0  0  0  0  0  0  0  0  0  0  0
   59.6360   28.7720   46.1860 C   0  0  0  0  0  0  0  0  0  0  0  0
   60.7055   28.8205   46.4385 H   0  0  0  0  0  0  0  0  0  0  0  0
   55.7890   22.8950   45.8410 C   0  0  0  0  0  0  0  0  0  0  0  0
   56.8121   22.5039   45.9421 H   0  0  0  0  0  0  0  0  0  0  0  0
   55.5770   24.2830   45.7590 C   0  0  0  0  0  0  0  0  0  0  0  0
   57.6320   32.0560   44.1180 C   0  0  0  0  0  0  0  0  0  0  0  0
   57.6168   24.9898   45.2545 H   0  0  0  0  0  0  0  0  0  0  0  0
   56.7170   26.3750   46.5360 C   0  0  0  0  0  0  0  0  0  0  0  0
   58.2000   33.0610   45.0510 C   0  0  0  0  0  0  0  0  0  0  0  0
   57.9580   32.9570   46.4310 C   0  0  0  0  0  0  0  0  0  0  0  0
   57.3500   32.1267   46.8195 H   0  0  0  0  0  0  0  0  0  0  0  0
   58.4870   33.9050   47.3130 C   0  0  0  0  0  0  0  0  0  0  0  0
   58.3005   33.8143   48.3933 H   0  0  0  0  0  0  0  0  0  0  0  0
   59.2520   34.9670   46.8240 C   0  0  0  0  0  0  0  0  0  0  0  0
   59.6703   35.7091   47.5199 H   0  0  0  0  0  0  0  0  0  0  0  0
   59.4860   35.0870   45.4520 C   0  0  0  0  0  0  0  0  0  0  0  0
   60.0862   35.9250   45.0680 H   0  0  0  0  0  0  0  0  0  0  0  0
   58.9580   34.1430   44.5670 C   0  0  0  0  0  0  0  0  0  0  0  0
   59.1360   34.2465   43.4864 H   0  0  0  0  0  0  0  0  0  0  0  0
   57.7540   32.2980   42.6380 C   0  0  0  0  0  0  0  0  0  0  0  0
   58.2430   33.2679   42.4641 H   0  0  0  0  0  0  0  0  0  0  0  0
   58.3561   31.4972   42.1839 H   0  0  0  0  0  0  0  0  0  0  0  0
   56.7521   32.3058   42.1839 H   0  0  0  0  0  0  0  0  0  0  0  0
   56.9130   28.6540   45.5420 C   0  0  0  0  0  0  0  0  0  0  0  0
   55.5590   28.5950   45.2230 O   0  0  0  0  0  0  0  0  0  0  0  0
   54.2610   24.7710   45.6750 C   0  0  0  0  0  0  0  0  0  0  0  0
   54.0200   26.1410   45.6210 O   0  0  0  0  0  0  0  0  0  0  0  0
   53.1790   23.8800   45.6320 C   0  0  0  0  0  0  0  0  0  0  0  0
   51.8830   24.3750   45.5350 O   0  0  0  0  0  0  0  0  0  0  0  0
  1  2  1  0
  2  3  1  0
  3  4  2  0
  4  5  1  0
  4  6  1  0
  6  7  1  0
  6  8  2  0
  8  9  1  0
  9 10  1  0
  9 11  2  0
 11 12  1  0
 11 13  1  0
 13 14  2  0
 14 15  1  0
 14 16  1  0
 16 17  1  0
 16 18  2  0
 18 19  1  0
 18 20  1  0
 20 21  1  0
 21 22  1  0
 21 23  2  0
 23 24  1  0
 24 25  2  0
 25 26  1  0
 25 27  1  0
 27 28  1  0
 27 29  2  0
 29 30  1  0
 29 31  1  0
 31 32  1  0
 31 33  2  0
 33 34  1  0
 23 35  1  0
 35 36  1  0
 35 37  1  0
 35 38  1  0
 20 39  2  0
 39 40  1  0
  8 41  1  0
 41 42  1  0
 41 43  2  0
 43 44  1  0
 43  3  1  0
 39 13  1  0
 33 24  1  0
M  CHG  4  15  -1  40  -1  42  -1  44  -1
M  END
>  <UniqueID>  (32) 
31

>  <SMILES>  (32) 
C/C(=C/c1ccc([O-])c(/C=C\c2ccc(O)c([O-])c2[O-])c1[O-])c1ccccc1

>  <Energy>  (32) 
69.89619627530632

>  <Genealogy>  (32) 
CC(=Cc1ccc([O-])c(C=Cc2ccc(O)c([O-])c2[O-])c1[O-])c1ccccc1 (protonated)
C/C(=C/c1ccc([O-])c(/C=C\c2ccc(O)c([O-])c2[O-])c1[O-])c1ccccc1 (cis-trans isomerization)
C/C(=C/c1ccc([O-])c(/C=C\c2ccc(O)c([O-])c2[O-])c1[O-])c1ccccc1 (3D coordinates assigned)
C/C(=C/c1ccc([O-])c(/C=C\c2ccc(O)c([O-])c2[O-])c1[O-])c1ccccc1 (optimized conformer: 69.89619627530632 kcal/mol)

>  <smiles>  (32) 
CC(=Cc1ccc(O)c(C=Cc2ccc(O)c(O)c2O)c1O)c1ccccc1

>  <score_type>  (32) 
oracle

>  <origin>  (32) 
adg

>  <m_score__min__energy>  (32) 
-18.039999999999999

>  <m_primary>  (32) 
energy

$$$$
32:0
     RDKit          3D

 56 59  0  0  0  0  0  0  0  0999 V2000
   54.4010   28.1500   52.8660 C   0  0  0  0  0  0  0  0  0  0  0  0
   54.6160   29.4590   52.6520 C   0  0  0  0  0  0  0  0  0  0  0  0
   53.6810   30.3830   52.1670 C   0  0  0  0  0  0  0  0  0  0  0  0
   52.3760   30.1630   51.9040 C   0  0  0  0  0  0  0  0  0  0  0  0
   51.6620   30.7300   50.7450 C   0  0  0  0  0  0  0  0  0  0  0  0
   51.5890   30.1130   49.5520 N   0  0  0  0  0  0  0  0  0  0  0  0
   50.9180   30.9990   48.7830 C   0  0  0  0  0  0  0  0  0  0  0  0
   50.6350   30.7720   47.5780 O   0  0  0  0  0  0  0  0  0  0  0  0
   50.5800   32.1500   49.4040 N   0  0  0  0  0  0  0  0  0  0  0  0
   51.0680   31.9700   50.6420 C   0  0  0  0  0  0  0  0  0  0  0  0
   51.0100   32.9370   51.6370 O   0  0  0  0  0  0  0  0  0  0  0  0
   54.3480   31.5970   52.0630 C   0  0  0  0  0  0  0  0  0  0  0  0
   55.6470   31.3710   52.4740 C   0  0  0  0  0  0  0  0  0  0  0  0
   56.7220   32.4180   52.5110 C   0  0  0  0  0  0  0  0  0  0  0  0
   55.8110   30.0800   52.8510 N   0  0  0  0  0  0  0  0  0  0  0  0
   57.0640   29.4810   53.3410 C   0  0  0  0  0  0  0  0  0  0  0  0
   58.2560   30.3470   53.0170 C   0  0  0  0  0  0  0  0  0  0  0  0
   58.9350   30.8420   53.9570 O   0  0  0  0  0  0  0  0  0  0  0  0
   58.6330   30.6030   51.6450 N   0  0  0  0  0  0  0  0  0  0  0  0
   59.5550   31.7020   51.3210 C   0  0  0  0  0  0  0  0  0  0  0  0
   59.0690   32.4320   50.0660 C   0  0  0  0  0  0  0  0  0  0  0  0
   58.8370   31.4820   48.8530 C   0  0  0  0  0  0  0  0  0  0  0  0
   59.8390   31.7900   47.7170 C   0  0  0  0  0  0  0  0  0  0  0  0
   59.2970   32.8010   46.7380 C   0  0  0  0  0  0  0  0  0  0  0  0
   58.2350   32.4560   45.8840 C   0  0  0  0  0  0  0  0  0  0  0  0
   57.7580   33.3770   44.9480 C   0  0  0  0  0  0  0  0  0  0  0  0
   58.3380   34.6450   44.8560 C   0  0  0  0  0  0  0  0  0  0  0  0
   59.3960   34.9960   45.6990 C   0  0  0  0  0  0  0  0  0  0  0  0
   59.8750   34.0780   46.6390 C   0  0  0  0  0  0  0  0  0  0  0  0
   58.8870   29.9860   49.2480 C   0  0  0  0  0  0  0  0  0  0  0  0
   58.1560   29.7180   50.5690 C   0  0  0  0  0  0  0  0  0  0  0  0
   55.2125   27.5151   53.2512 H   0  0  0  0  0  0  0  0  0  0  0  0
   53.4135   27.7133   52.6560 H   0  0  0  0  0  0  0  0  0  0  0  0
   51.8104   29.5218   52.5961 H   0  0  0  0  0  0  0  0  0  0  0  0
   53.9241   32.5524   51.7201 H   0  0  0  0  0  0  0  0  0  0  0  0
   56.9663   32.6559   53.5568 H   0  0  0  0  0  0  0  0  0  0  0  0
   57.6204   32.0393   52.0017 H   0  0  0  0  0  0  0  0  0  0  0  0
   56.3671   33.3261   52.0017 H   0  0  0  0  0  0  0  0  0  0  0  0
   56.9982   29.3576   54.4321 H   0  0  0  0  0  0  0  0  0  0  0  0
   57.1988   28.5091   52.8438 H   0  0  0  0  0  0  0  0  0  0  0  0
   59.5919   32.4084   52.1634 H   0  0  0  0  0  0  0  0  0  0  0  0
   60.5592   31.2922   51.1375 H   0  0  0  0  0  0  0  0  0  0  0  0
   58.1203   32.9369   50.3008 H   0  0  0  0  0  0  0  0  0  0  0  0
   59.8562   33.1439   49.7771 H   0  0  0  0  0  0  0  0  0  0  0  0
   57.8182   31.6753   48.4860 H   0  0  0  0  0  0  0  0  0  0  0  0
   60.7650   32.1862   48.1592 H   0  0  0  0  0  0  0  0  0  0  0  0
   60.0255   30.8550   47.1684 H   0  0  0  0  0  0  0  0  0  0  0  0
   57.7781   31.4577   45.9529 H   0  0  0  0  0  0  0  0  0  0  0  0
   56.9254   33.1038   44.2831 H   0  0  0  0  0  0  0  0  0  0  0  0
   57.9609   35.3686   44.1183 H   0  0  0  0  0  0  0  0  0  0  0  0
   59.8519   35.9942   45.6231 H   0  0  0  0  0  0  0  0  0  0  0  0
   60.7067   34.3564   47.3029 H   0  0  0  0  0  0  0  0  0  0  0  0
   58.4129   29.3923   48.4526 H   0  0  0  0  0  0  0  0  0  0  0  0
   59.9420   29.7034   49.3791 H   0  0  0  0  0  0  0  0  0  0  0  0
   57.0790   29.8856   50.4208 H   0  0  0  0  0  0  0  0  0  0  0  0
   58.3559   28.6781   50.8666 H   0  0  0  0  0  0  0  0  0  0  0  0
  1  2  2  0
  2  3  1  0
  3  4  2  3
  4  5  1  0
  5  6  1  0
  6  7  1  0
  7  8  2  0
  7  9  1  0
  9 10  1  0
 10 11  1  0
  3 12  1  0
 12 13  2  0
 13 14  1  0
 13 15  1  0
 15 16  1  0
 16 17  1  0
 17 18  2  0
 17 19  1  0
 19 20  1  0
 20 21  1  0
 21 22  1  0
 22 23  1  0
 23 24  1  0
 24 25  2  0
 25 26  1  0
 26 27  2  0
 27 28  1  0
 28 29  2  0
 22 30  1  0
 30 31  1  0
 15  2  1  0
 31 19  1  0
 10  5  2  0
 29 24  1  0
  1 32  1  0
  1 33  1  0
  4 34  1  0
 12 35  1  0
 14 36  1  0
 14 37  1  0
 14 38  1  0
 16 39  1  0
 16 40  1  0
 20 41  1  0
 20 42  1  0
 21 43  1  0
 21 44  1  0
 22 45  1  0
 23 46  1  0
 23 47  1  0
 25 48  1  0
 26 49  1  0
 27 50  1  0
 28 51  1  0
 29 52  1  0
 30 53  1  0
 30 54  1  0
 31 55  1  0
 31 56  1  0
M  CHG  3   6  -1   9  -1  11  -1
M  END
>  <UniqueID>  (33) 
32

>  <SMILES>  (33) 
C=c1c(=Cc2[n-]c(=O)[n-]c2[O-])cc(C)n1CC(=O)N1CCC(Cc2ccccc2)CC1

>  <Energy>  (33) 
124.41459669026382

>  <Genealogy>  (33) 
C=c1c(=Cc2[n-]c(=O)[n-]c2[O-])cc(C)n1CC(=O)N1CCC(Cc2ccccc2)CC1 (protonated)
C=c1c(=Cc2[n-]c(=O)[n-]c2[O-])cc(C)n1CC(=O)N1CCC(Cc2ccccc2)CC1 (3D coordinates assigned)
C=c1c(=Cc2[n-]c(=O)[n-]c2[O-])cc(C)n1CC(=O)N1CCC(Cc2ccccc2)CC1 (nonaromatic ring conformer: 124.41459669026382 kcal/mol)

>  <smiles>  (33) 
C=c1c(=Cc2[nH]c(=O)[nH]c2O)cc(C)n1CC(=O)N1CCC(Cc2ccccc2)CC1

>  <score_type>  (33) 
oracle

>  <origin>  (33) 
adg

>  <m_score__min__energy>  (33) 
-18.48

>  <m_primary>  (33) 
energy

$$$$
33:0
     RDKit          3D

 55 57  0  0  1  0  0  0  0  0999 V2000
   56.6220   22.1580   42.6430 C   0  0  0  0  0  0  0  0  0  0  0  0
   56.6140   23.4390   43.4570 C   0  0  0  0  0  0  0  0  0  0  0  0
   57.0360   23.1430   44.8400 N   0  0  0  0  0  0  0  0  0  0  0  0
   57.8260   21.9340   44.8060 C   0  0  0  0  0  0  0  0  0  0  0  0
   59.3050   22.2110   44.8530 C   0  0  0  0  0  0  0  0  0  0  0  0
   55.8220   23.0040   45.5890 C   0  0  0  0  0  0  0  0  0  0  0  0
   55.5160   24.0710   46.5720 C   0  0  0  0  0  0  0  0  0  0  0  0
   55.5080   25.4120   46.0260 N   0  0  0  0  0  0  0  0  0  0  0  0
   56.6490   26.0170   45.9140 C   0  0  0  0  0  0  0  0  0  0  0  0
   56.7250   27.3160   45.5120 N   0  0  0  0  0  0  0  0  0  0  0  0
   57.8990   27.9690   45.3840 C   0  0  0  0  0  0  0  0  0  0  0  0
   57.9740   29.3350   44.9630 N   0  0  0  0  0  0  0  0  0  0  0  0
   57.1520   29.7310   43.8640 C   0  0  0  0  0  0  0  0  0  0  0  0
   57.2450   31.1700   43.4810 C   0  0  0  0  0  0  0  0  0  0  0  0
   57.7290   32.0710   44.5400 C   0  0  0  0  0  0  0  0  0  0  0  0
   57.4160   33.4280   44.5110 C   0  0  0  0  0  0  0  0  0  0  0  0
   57.8780   34.2850   45.5160 C   0  0  0  0  0  0  0  0  0  0  0  0
   58.6500   33.8270   46.5580 C   0  0  0  0  0  0  0  0  0  0  0  0
   59.1390   34.6060   47.5790 O   0  0  0  0  0  0  0  0  0  0  0  0
   60.0460   34.1600   48.5440 C   0  0  0  0  0  0  0  0  0  0  0  0
   58.9520   32.4840   46.5730 C   0  0  0  0  0  0  0  0  0  0  0  0
   58.4980   31.6430   45.5870 C   0  0  0  0  0  0  0  0  0  0  0  0
   58.8720   30.2080   45.6910 C   0  0  0  0  0  0  0  0  0  0  0  0
   59.0380   27.2310   45.6910 C   0  0  0  0  0  0  0  0  0  0  0  0
   58.9850   25.9170   46.1000 C   0  0  0  0  0  0  0  0  0  0  0  0
   57.7780   25.3430   46.2010 N   0  0  0  0  0  0  0  0  0  0  0  0
   56.6274   21.2923   43.3217 H   0  0  0  0  0  0  0  0  0  0  0  0
   55.7241   22.1210   42.0087 H   0  0  0  0  0  0  0  0  0  0  0  0
   57.5203   22.1322   42.0087 H   0  0  0  0  0  0  0  0  0  0  0  0
   57.3094   24.1635   43.0081 H   0  0  0  0  0  0  0  0  0  0  0  0
   55.5991   23.8631   43.4651 H   0  0  0  0  0  0  0  0  0  0  0  0
   57.5559   21.3115   45.6718 H   0  0  0  0  0  0  0  0  0  0  0  0
   57.6118   21.4210   43.8568 H   0  0  0  0  0  0  0  0  0  0  0  0
   59.6334   22.2725   45.9010 H   0  0  0  0  0  0  0  0  0  0  0  0
   59.8465   21.3987   44.3462 H   0  0  0  0  0  0  0  0  0  0  0  0
   59.5158   23.1642   44.3462 H   0  0  0  0  0  0  0  0  0  0  0  0
   54.9903   22.9655   44.8702 H   0  0  0  0  0  0  0  0  0  0  0  0
   55.9568   22.0914   46.1881 H   0  0  0  0  0  0  0  0  0  0  0  0
   54.5226   23.8689   46.9990 H   0  0  0  0  0  0  0  0  0  0  0  0
   56.3220   24.0448   47.3202 H   0  0  0  0  0  0  0  0  0  0  0  0
   57.4400   29.1280   42.9903 H   0  0  0  0  0  0  0  0  0  0  0  0
   56.1135   29.5705   44.1891 H   0  0  0  0  0  0  0  0  0  0  0  0
   57.9318   31.2507   42.6255 H   0  0  0  0  0  0  0  0  0  0  0  0
   56.2183   31.4918   43.2524 H   0  0  0  0  0  0  0  0  0  0  0  0
   56.8010   33.8289   43.6919 H   0  0  0  0  0  0  0  0  0  0  0  0
   57.6170   35.3527   45.4715 H   0  0  0  0  0  0  0  0  0  0  0  0
   59.6413   34.3590   49.5473 H   0  0  0  0  0  0  0  0  0  0  0  0
   60.2090   33.0790   48.4222 H   0  0  0  0  0  0  0  0  0  0  0  0
   61.0016   34.6909   48.4222 H   0  0  0  0  0  0  0  0  0  0  0  0
   59.5676   32.0775   47.3889 H   0  0  0  0  0  0  0  0  0  0  0  0
   59.8878   30.0804   45.2886 H   0  0  0  0  0  0  0  0  0  0  0  0
   58.8132   29.9287   46.7533 H   0  0  0  0  0  0  0  0  0  0  0  0
   60.0209   27.7170   45.6034 H   0  0  0  0  0  0  0  0  0  0  0  0
   59.9022   25.3575   46.3358 H   0  0  0  0  0  0  0  0  0  0  0  0
   57.7790   24.3350   46.5150 H   0  0  0  0  0  0  0  0  0  0  0  0
  1  2  1  0
  2  3  1  0
  3  4  1  0
  4  5  1  0
  3  6  1  0
  6  7  1  0
  7  8  1  0
  8  9  2  0
  9 10  1  0
 10 11  2  0
 11 12  1  0
 12 13  1  0
 13 14  1  0
 14 15  1  0
 15 16  2  0
 16 17  1  0
 17 18  2  0
 18 19  1  0
 19 20  1  0
 18 21  1  0
 21 22  2  0
 22 23  1  0
 11 24  1  0
 24 25  2  0
 25 26  1  0
 26  9  1  0
 23 12  1  0
 22 15  1  0
  1 27  1  0
  1 28  1  0
  1 29  1  0
  2 30  1  0
  2 31  1  0
  4 32  1  0
  4 33  1  0
  5 34  1  0
  5 35  1  0
  5 36  1  0
  6 37  1  0
  6 38  1  0
  7 39  1  0
  7 40  1  0
 13 41  1  0
 13 42  1  0
 14 43  1  0
 14 44  1  0
 16 45  1  0
 17 46  1  0
 20 47  1  0
 20 48  1  0
 20 49  1  0
 21 50  1  0
 23 51  1  0
 23 52  1  0
 24 53  1  0
 25 54  1  0
 26 55  1  0
M  END
>  <smiles>  (34) 
CCN(CC)CCN=c1nc(N2CCc3ccc(OC)cc3C2)cc[nH]1

>  <score_type>  (34) 
oracle

>  <origin>  (34) 
adg

>  <m_score__min__energy>  (34) 
-7.2599999999999998

>  <m_primary>  (34) 
energy

$$$$
34:0
     RDKit          3D

 38 41  0  0  0  0  0  0  0  0999 V2000
   59.6007   28.9276   47.4233 H   0  0  0  0  0  0  0  0  0  0  0  0
   59.1950   28.2110   46.6940 C   0  0  0  0  0  0  0  0  0  0  0  0
   59.4020   27.1364   46.8052 H   0  0  0  0  0  0  0  0  0  0  0  0
   58.4470   28.6480   45.6680 C   0  0  0  0  0  0  0  0  0  0  0  0
   57.8600   27.8660   44.6590 C   0  0  0  0  0  0  0  0  0  0  0  0
   57.6830   26.5350   44.5620 C   0  0  0  0  0  0  0  0  0  0  0  0
   57.9375   26.0624   43.6019 H   0  0  0  0  0  0  0  0  0  0  0  0
   57.1780   25.6580   45.6310 C   0  0  0  0  0  0  0  0  0  0  0  0
   57.8980   24.7000   46.2440 N   0  0  0  0  0  0  0  0  0  0  0  0
   57.0770   24.2700   47.2250 C   0  0  0  0  0  0  0  0  0  0  0  0
   57.3940   23.3490   48.0210 O   0  0  0  0  0  0  0  0  0  0  0  0
   55.8900   24.9130   47.2930 N   0  0  0  0  0  0  0  0  0  0  0  0
   55.9780   25.7960   46.2860 C   0  0  0  0  0  0  0  0  0  0  0  0
   54.9850   26.7160   45.9760 O   0  0  0  0  0  0  0  0  0  0  0  0
   57.4290   28.7530   43.6850 C   0  0  0  0  0  0  0  0  0  0  0  0
   56.9677   28.4938   42.7206 H   0  0  0  0  0  0  0  0  0  0  0  0
   57.6890   30.0220   44.1560 C   0  0  0  0  0  0  0  0  0  0  0  0
   57.3570   31.2860   43.4200 C   0  0  0  0  0  0  0  0  0  0  0  0
   57.1466   32.0872   44.1437 H   0  0  0  0  0  0  0  0  0  0  0  0
   58.2092   31.5771   42.7882 H   0  0  0  0  0  0  0  0  0  0  0  0
   56.4718   31.1207   42.7882 H   0  0  0  0  0  0  0  0  0  0  0  0
   58.3060   29.9610   45.3580 N   0  0  0  0  0  0  0  0  0  0  0  0
   58.7570   31.0900   46.1290 C   0  0  0  0  0  0  0  0  0  0  0  0
   57.8710   32.1590   46.4180 C   0  0  0  0  0  0  0  0  0  0  0  0
   56.8366   32.1254   46.0453 H   0  0  0  0  0  0  0  0  0  0  0  0
   58.3030   33.2620   47.1770 C   0  0  0  0  0  0  0  0  0  0  0  0
   57.6231   34.0952   47.4083 H   0  0  0  0  0  0  0  0  0  0  0  0
   59.6210   33.2620   47.6250 C   0  0  0  0  0  0  0  0  0  0  0  0
   60.2370   34.1980   48.3600 N   0  0  0  0  0  0  0  0  0  0  0  0
   61.4890   33.6870   48.4950 C   0  0  0  0  0  0  0  0  0  0  0  0
   62.5520   34.3610   49.2960 C   0  0  0  0  0  0  0  0  0  0  0  0
   62.3430   34.2285   50.3678 H   0  0  0  0  0  0  0  0  0  0  0  0
   63.5293   33.9172   49.0554 H   0  0  0  0  0  0  0  0  0  0  0  0
   62.5674   35.4343   49.0554 H   0  0  0  0  0  0  0  0  0  0  0  0
   61.6760   32.4790   47.8990 N   0  0  0  0  0  0  0  0  0  0  0  0
   60.4760   32.2410   47.3500 C   0  0  0  0  0  0  0  0  0  0  0  0
   60.0860   31.1310   46.6050 C   0  0  0  0  0  0  0  0  0  0  0  0
   60.7902   30.3127   46.3941 H   0  0  0  0  0  0  0  0  0  0  0  0
  1  2  1  0
  2  3  1  0
  2  4  2  0
  4  5  1  0
  5  6  2  0
  6  7  1  0
  6  8  1  0
  8  9  1  0
  9 10  1  0
 10 11  2  0
 10 12  1  0
 12 13  1  0
 13 14  1  0
  5 15  1  0
 15 16  1  0
 15 17  2  0
 17 18  1  0
 18 19  1  0
 18 20  1  0
 18 21  1  0
 17 22  1  0
 22 23  1  0
 23 24  2  0
 24 25  1  0
 24 26  1  0
 26 27  1  0
 26 28  2  0
 28 29  1  0
 29 30  1  0
 30 31  1  0
 31 32  1  0
 31 33  1  0
 31 34  1  0
 30 35  2  0
 35 36  1  0
 36 37  2  0
 37 38  1  0
 22  4  1  0
 37 23  1  0
 13  8  2  0
 36 28  1  0
M  CHG  4   9  -1  12  -1  14  -1  29  -1
M  END
>  <UniqueID>  (35) 
33

>  <SMILES>  (35) 
C=c1/c(=C\c2[n-]c(=O)[n-]c2[O-])cc(C)n1-c1ccc2[n-]c(C)nc2c1

>  <Energy>  (35) 
149.86511694743297

>  <Genealogy>  (35) 
C=c1c(=Cc2[n-]c(=O)[n-]c2[O-])cc(C)n1-c1ccc2[n-]c(C)nc2c1 (protonated)
C=c1/c(=C\c2[n-]c(=O)[n-]c2[O-])cc(C)n1-c1ccc2[n-]c(C)nc2c1 (cis-trans isomerization)
C=c1/c(=C\c2[n-]c(=O)[n-]c2[O-])cc(C)n1-c1ccc2[n-]c(C)nc2c1 (3D coordinates assigned)
C=c1/c(=C\c2[n-]c(=O)[n-]c2[O-])cc(C)n1-c1ccc2[n-]c(C)nc2c1 (optimized conformer: 149.86511694743297 kcal/mol)

>  <smiles>  (35) 
C=c1c(=Cc2[nH]c(=O)[nH]c2O)cc(C)n1-c1ccc2[nH]c(C)nc2c1

>  <score_type>  (35) 
oracle

>  <origin>  (35) 
adg

>  <m_score__min__energy>  (35) 
-16.239999999999998

>  <m_primary>  (35) 
energy

$$$$
35:0
     RDKit          3D

 34 36  0  0  0  0  0  0  0  0999 V2000
   55.1560   27.8270   44.8780 H   0  0  0  0  0  0  0  0  0  0  0  0
   55.7320   27.4880   45.6380 O   0  0  0  0  0  0  0  0  0  0  0  0
   57.1230   27.5250   45.5820 C   0  0  0  0  0  0  0  0  0  0  0  0
   57.8790   26.7390   46.3930 N   0  0  0  0  0  0  0  0  0  0  0  0
   59.1950   26.9190   46.1610 C   0  0  0  0  0  0  0  0  0  0  0  0
   60.0930   26.3000   46.7880 O   0  0  0  0  0  0  0  0  0  0  0  0
   59.4900   28.0470   44.9530 S   0  0  0  0  0  0  0  0  0  0  0  0
   57.8490   28.3440   44.7110 C   0  0  0  0  0  0  0  0  0  0  0  0
   57.2970   29.2650   43.6660 C   0  0  0  0  0  0  0  0  0  0  0  0
   56.8762   28.6700   42.8421 H   0  0  0  0  0  0  0  0  0  0  0  0
   58.1061   29.9073   43.2882 H   0  0  0  0  0  0  0  0  0  0  0  0
   56.2240   30.1240   44.2540 C   0  0  0  0  0  0  0  0  0  0  0  0
   55.0900   29.6270   44.4950 O   0  0  0  0  0  0  0  0  0  0  0  0
   56.4950   31.5130   44.5010 N   0  0  0  0  0  0  0  0  0  0  0  0
   57.4050   31.9840   45.2990 C   0  0  0  0  0  0  0  0  0  0  0  0
   57.9580   31.2920   46.3200 N   0  0  0  0  0  0  0  0  0  0  0  0
   58.8790   32.0320   46.9970 C   0  0  0  0  0  0  0  0  0  0  0  0
   59.6020   31.4670   48.1580 C   0  0  0  0  0  0  0  0  0  0  0  0
   60.8470   30.8360   47.9900 C   0  0  0  0  0  0  0  0  0  0  0  0
   61.2830   30.7455   46.9842 H   0  0  0  0  0  0  0  0  0  0  0  0
   61.5340   30.3230   49.0940 C   0  0  0  0  0  0  0  0  0  0  0  0
   62.5030   29.8217   48.9535 H   0  0  0  0  0  0  0  0  0  0  0  0
   60.9920   30.4460   50.3750 C   0  0  0  0  0  0  0  0  0  0  0  0
   61.5322   30.0380   51.2420 H   0  0  0  0  0  0  0  0  0  0  0  0
   59.7640   31.0870   50.5560 C   0  0  0  0  0  0  0  0  0  0  0  0
   59.3403   31.1862   51.5663 H   0  0  0  0  0  0  0  0  0  0  0  0
   59.0720   31.6030   49.4550 C   0  0  0  0  0  0  0  0  0  0  0  0
   57.8750   32.2120   49.6550 F   0  0  0  0  0  0  0  0  0  0  0  0
   59.0690   33.3250   46.4840 C   0  0  0  0  0  0  0  0  0  0  0  0
   60.0220   34.3680   46.9720 C   0  0  0  0  0  0  0  0  0  0  0  0
   60.0274   34.3739   48.0720 H   0  0  0  0  0  0  0  0  0  0  0  0
   61.0330   34.1430   46.6016 H   0  0  0  0  0  0  0  0  0  0  0  0
   59.7069   35.3547   46.6016 H   0  0  0  0  0  0  0  0  0  0  0  0
   58.0290   33.5360   45.1760 S   0  0  0  0  0  0  0  0  0  0  0  0
  1  2  1  0
  2  3  1  0
  3  4  1  0
  4  5  1  0
  5  6  2  0
  5  7  1  0
  7  8  1  0
  8  9  1  0
  9 10  1  0
  9 11  1  0
  9 12  1  0
 12 13  2  0
 12 14  1  0
 14 15  2  0
 15 16  1  0
 16 17  1  0
 17 18  1  0
 18 19  2  0
 19 20  1  0
 19 21  1  0
 21 22  1  0
 21 23  2  0
 23 24  1  0
 23 25  1  0
 25 26  1  0
 25 27  2  0
 27 28  1  0
 17 29  2  0
 29 30  1  0
 30 31  1  0
 30 32  1  0
 30 33  1  0
 29 34  1  0
  8  3  2  0
 34 15  1  0
 27 18  1  0
M  CHG  2   4  -1  16  -1
M  END
>  <UniqueID>  (36) 
34

>  <SMILES>  (36) 
Cc1s/c(=N/C(=O)Cc2sc(=O)[n-]c2O)[n-]c1-c1ccccc1F

>  <Energy>  (36) 
101.02245477066228

>  <Genealogy>  (36) 
Cc1sc(=NC(=O)Cc2sc(=O)[n-]c2O)[n-]c1-c1ccccc1F (protonated)
Cc1s/c(=N/C(=O)Cc2sc(=O)[n-]c2O)[n-]c1-c1ccccc1F (cis-trans isomerization)
Cc1s/c(=N/C(=O)Cc2sc(=O)[n-]c2O)[n-]c1-c1ccccc1F (3D coordinates assigned)
Cc1s/c(=N/C(=O)Cc2sc(=O)[n-]c2O)[n-]c1-c1ccccc1F (optimized conformer: 101.02245477066228 kcal/mol)

>  <smiles>  (36) 
Cc1sc(=NC(=O)Cc2sc(=O)[nH]c2O)[nH]c1-c1ccccc1F

>  <score_type>  (36) 
oracle

>  <origin>  (36) 
adg

>  <m_score__min__energy>  (36) 
-12.960000000000001

>  <m_primary>  (36) 
energy

$$$$
36:0
     RDKit          3D

 49 51  0  0  0  0  0  0  0  0999 V2000
   59.9713   26.2968   46.7116 H   0  0  0  0  0  0  0  0  0  0  0  0
   58.8830   26.3730   46.5710 C   0  0  0  0  0  0  0  0  0  0  0  0
   58.3480   27.4840   45.9990 N   0  0  0  0  0  0  0  0  0  0  0  0
   57.0050   27.6270   45.8110 C   0  0  0  0  0  0  0  0  0  0  0  0
   56.5140   28.6870   45.2360 N   0  0  0  0  0  0  0  0  0  0  0  0
   57.0300   29.3640   44.0810 C   0  0  0  0  0  0  0  0  0  0  0  0
   56.2640   29.5450   43.0970 O   0  0  0  0  0  0  0  0  0  0  0  0
   58.3820   30.0340   44.0790 C   0  0  0  0  0  0  0  0  0  0  0  0
   59.0750   29.4522   44.7045 H   0  0  0  0  0  0  0  0  0  0  0  0
   58.7532   30.0821   43.0446 H   0  0  0  0  0  0  0  0  0  0  0  0
   58.2820   31.3920   44.6080 N   0  0  0  0  0  0  0  0  0  0  0  0
   59.1660   31.8960   44.8510 H   0  0  0  0  0  0  0  0  0  0  0  0
   57.0250   32.0350   44.8580 C   0  0  0  0  0  0  0  0  0  0  0  0
   55.9470   31.4870   44.5010 O   0  0  0  0  0  0  0  0  0  0  0  0
   56.9820   33.3340   45.6010 C   0  0  0  0  0  0  0  0  0  0  0  0
   56.8402   34.1588   44.8872 H   0  0  0  0  0  0  0  0  0  0  0  0
   56.1467   33.3165   46.3165 H   0  0  0  0  0  0  0  0  0  0  0  0
   58.2720   33.5350   46.3470 C   0  0  0  0  0  0  0  0  0  0  0  0
   58.5230   32.8200   47.5290 C   0  0  0  0  0  0  0  0  0  0  0  0
   57.7568   32.1410   47.9312 H   0  0  0  0  0  0  0  0  0  0  0  0
   59.7420   32.9670   48.1970 C   0  0  0  0  0  0  0  0  0  0  0  0
   59.9274   32.4059   49.1248 H   0  0  0  0  0  0  0  0  0  0  0  0
   60.7320   33.8260   47.6920 C   0  0  0  0  0  0  0  0  0  0  0  0
   61.9970   33.9620   48.3690 N   0  0  0  0  0  0  0  0  0  0  0  0
   63.2630   33.8140   47.6390 C   0  0  0  0  0  0  0  0  0  0  0  0
   63.0487   33.5514   46.5925 H   0  0  0  0  0  0  0  0  0  0  0  0
   63.8140   34.7649   47.6865 H   0  0  0  0  0  0  0  0  0  0  0  0
   64.1230   32.7100   48.2710 C   0  0  0  0  0  0  0  0  0  0  0  0
   63.8002   31.7404   47.8639 H   0  0  0  0  0  0  0  0  0  0  0  0
   65.1716   32.9349   48.0265 H   0  0  0  0  0  0  0  0  0  0  0  0
   64.0150   32.6550   49.8120 C   0  0  0  0  0  0  0  0  0  0  0  0
   63.3729   31.8062   50.0899 H   0  0  0  0  0  0  0  0  0  0  0  0
   65.0331   32.5426   50.2130 H   0  0  0  0  0  0  0  0  0  0  0  0
   63.4200   33.9370   50.4090 C   0  0  0  0  0  0  0  0  0  0  0  0
   63.3377   33.8248   51.5002 H   0  0  0  0  0  0  0  0  0  0  0  0
   64.0785   34.7838   50.1654 H   0  0  0  0  0  0  0  0  0  0  0  0
   62.0270   34.2030   49.8210 C   0  0  0  0  0  0  0  0  0  0  0  0
   61.3004   33.5365   50.3086 H   0  0  0  0  0  0  0  0  0  0  0  0
   61.7736   35.2583   50.0001 H   0  0  0  0  0  0  0  0  0  0  0  0
   60.4840   34.5260   46.4990 C   0  0  0  0  0  0  0  0  0  0  0  0
   61.2547   35.1947   46.0881 H   0  0  0  0  0  0  0  0  0  0  0  0
   59.2660   34.3790   45.8310 C   0  0  0  0  0  0  0  0  0  0  0  0
   59.0856   34.9282   44.8952 H   0  0  0  0  0  0  0  0  0  0  0  0
   56.1430   26.5910   46.2000 C   0  0  0  0  0  0  0  0  0  0  0  0
   54.7690   26.6960   46.0060 O   0  0  0  0  0  0  0  0  0  0  0  0
   56.6750   25.4400   46.7900 C   0  0  0  0  0  0  0  0  0  0  0  0
   56.0081   24.6234   47.1037 H   0  0  0  0  0  0  0  0  0  0  0  0
   58.0520   25.3290   46.9800 C   0  0  0  0  0  0  0  0  0  0  0  0
   58.4784   24.4289   47.4469 H   0  0  0  0  0  0  0  0  0  0  0  0
  1  2  1  0
  2  3  1  0
  3  4  1  0
  4  5  2  0
  5  6  1  0
  6  7  2  0
  6  8  1  0
  8  9  1  0
  8 10  1  0
  8 11  1  0
 11 12  1  0
 11 13  1  0
 13 14  2  0
 13 15  1  0
 15 16  1  0
 15 17  1  0
 15 18  1  0
 18 19  2  0
 19 20  1  0
 19 21  1  0
 21 22  1  0
 21 23  2  0
 23 24  1  0
 24 25  1  0
 25 26  1  0
 25 27  1  0
 25 28  1  0
 28 29  1  0
 28 30  1  0
 28 31  1  0
 31 32  1  0
 31 33  1  0
 31 34  1  0
 34 35  1  0
 34 36  1  0
 34 37  1  0
 37 38  1  0
 37 39  1  0
 23 40  1  0
 40 41  1  0
 40 42  2  0
 42 43  1  0
  4 44  1  0
 44 45  1  0
 44 46  2  0
 46 47  1  0
 46 48  1  0
 48 49  1  0
 48  2  2  0
 42 18  1  0
 37 24  1  0
M  CHG  2   3  -1  45  -1
M  END
>  <UniqueID>  (37) 
35

>  <SMILES>  (37) 
O=C(CNC(=O)Cc1ccc(N2CCCCC2)cc1)/N=c1\[n-]cccc1[O-]

>  <Energy>  (37) 
57.879154869051334

>  <Genealogy>  (37) 
O=C(CNC(=O)Cc1ccc(N2CCCCC2)cc1)N=c1[n-]cccc1[O-] (protonated)
O=C(CNC(=O)Cc1ccc(N2CCCCC2)cc1)/N=c1\[n-]cccc1[O-] (cis-trans isomerization)
O=C(CNC(=O)Cc1ccc(N2CCCCC2)cc1)/N=c1\[n-]cccc1[O-] (3D coordinates assigned)
O=C(CNC(=O)Cc1ccc(N2CCCCC2)cc1)/N=c1\[n-]cccc1[O-] (nonaromatic ring conformer: 57.879154869051334 kcal/mol)

>  <smiles>  (37) 
O=C(CNC(=O)Cc1ccc(N2CCCCC2)cc1)N=c1[nH]cccc1O

>  <score_type>  (37) 
oracle

>  <origin>  (37) 
adg

>  <m_score__min__energy>  (37) 
-14.550000000000001

>  <m_primary>  (37) 
energy

$$$$
37:0
     RDKit          3D

 32 34  0  0  0  0  0  0  0  0999 V2000
   58.1718   34.3656   43.8399 H   0  0  0  0  0  0  0  0  0  0  0  0
   58.2780   33.4070   44.3690 C   0  0  0  0  0  0  0  0  0  0  0  0
   57.7600   32.2370   43.8050 C   0  0  0  0  0  0  0  0  0  0  0  0
   57.2390   32.2798   42.8371 H   0  0  0  0  0  0  0  0  0  0  0  0
   57.9020   31.0070   44.4690 C   0  0  0  0  0  0  0  0  0  0  0  0
   57.3150   29.7500   43.8760 C   0  0  0  0  0  0  0  0  0  0  0  0
   58.1333   29.0512   43.6478 H   0  0  0  0  0  0  0  0  0  0  0  0
   56.7626   30.0332   42.9679 H   0  0  0  0  0  0  0  0  0  0  0  0
   56.3440   29.0710   44.8140 C   0  0  0  0  0  0  0  0  0  0  0  0
   55.1440   29.4560   44.8550 O   0  0  0  0  0  0  0  0  0  0  0  0
   56.7340   27.9890   45.6780 N   0  0  0  0  0  0  0  0  0  0  0  0
   56.3270   26.7530   45.6510 C   0  0  0  0  0  0  0  0  0  0  0  0
   55.0960   26.3320   45.9990 N   0  0  0  0  0  0  0  0  0  0  0  0
   55.0660   25.0220   45.8200 N   0  0  0  0  0  0  0  0  0  0  0  0
   54.2260   24.4340   46.0140 H   0  0  0  0  0  0  0  0  0  0  0  0
   56.2660   24.6040   45.3570 C   0  0  0  0  0  0  0  0  0  0  0  0
   56.6520   23.1870   45.0190 C   0  0  0  0  0  0  0  0  0  0  0  0
   56.2248   22.7555   45.9363 H   0  0  0  0  0  0  0  0  0  0  0  0
   56.6240   22.8220   43.5420 C   0  0  0  0  0  0  0  0  0  0  0  0
   56.3086   21.8154   43.2300 H   0  0  0  0  0  0  0  0  0  0  0  0
   56.1523   23.2480   42.6442 H   0  0  0  0  0  0  0  0  0  0  0  0
   57.9550   23.0160   44.2530 C   0  0  0  0  0  0  0  0  0  0  0  0
   58.6020   22.1496   44.4549 H   0  0  0  0  0  0  0  0  0  0  0  0
   58.8443   23.6404   44.0820 H   0  0  0  0  0  0  0  0  0  0  0  0
   57.1040   25.6940   45.2340 C   0  0  0  0  0  0  0  0  0  0  0  0
   58.1470   25.7129   44.8851 H   0  0  0  0  0  0  0  0  0  0  0  0
   58.5480   30.9690   45.7160 C   0  0  0  0  0  0  0  0  0  0  0  0
   58.6474   30.0138   46.2524 H   0  0  0  0  0  0  0  0  0  0  0  0
   59.0650   32.1400   46.2780 C   0  0  0  0  0  0  0  0  0  0  0  0
   59.5778   32.1026   47.2504 H   0  0  0  0  0  0  0  0  0  0  0  0
   58.9310   33.3600   45.6050 C   0  0  0  0  0  0  0  0  0  0  0  0
   59.6350   34.9590   46.3760 Br  0  0  0  0  0  0  0  0  0  0  0  0
  1  2  1  0
  2  3  2  0
  3  4  1  0
  3  5  1  0
  5  6  1  0
  6  7  1  0
  6  8  1  0
  6  9  1  0
  9 10  2  0
  9 11  1  0
 11 12  2  0
 12 13  1  0
 13 14  1  0
 14 15  1  0
 14 16  1  0
 16 17  1  0
 17 18  1  0
 17 19  1  0
 19 20  1  0
 19 21  1  0
 19 22  1  0
 22 23  1  0
 22 24  1  0
 16 25  2  0
 25 26  1  0
  5 27  2  0
 27 28  1  0
 27 29  1  0
 29 30  1  0
 29 31  2  0
 31 32  1  0
 31  2  1  0
 25 12  1  0
 22 17  1  0
M  CHG  1  13  -1
M  END
>  <UniqueID>  (38) 
36

>  <SMILES>  (38) 
O=C(Cc1ccc(Br)cc1)/N=c1/cc(C2CC2)[nH][n-]1

>  <Energy>  (38) 
332.15420723998704

>  <Genealogy>  (38) 
O=C(Cc1ccc(Br)cc1)N=c1cc(C2CC2)[nH][n-]1 (protonated)
O=C(Cc1ccc(Br)cc1)/N=c1/cc(C2CC2)[nH][n-]1 (cis-trans isomerization)
O=C(Cc1ccc(Br)cc1)/N=c1/cc(C2CC2)[nH][n-]1 (3D coordinates assigned)
O=C(Cc1ccc(Br)cc1)/N=c1/cc(C2CC2)[nH][n-]1 (nonaromatic ring conformer: 332.15420723998704 kcal/mol)

>  <smiles>  (38) 
O=C(Cc1ccc(Br)cc1)N=c1cc(C2CC2)[nH][nH]1

>  <score_type>  (38) 
oracle

>  <origin>  (38) 
adg

>  <m_score__min__energy>  (38) 
-10.08

>  <m_primary>  (38) 
energy

$$$$
38:0
     RDKit          3D

 62 65  0  0  0  0  0  0  0  0999 V2000
   56.3550   23.6770   47.2250 C   0  0  0  0  0  0  0  0  0  0  0  0
   55.6980   24.6400   46.2300 C   0  0  0  0  0  0  0  0  0  0  0  0
   56.1070   24.3320   44.7860 C   0  0  0  0  0  0  0  0  0  0  0  0
   55.9830   26.0350   46.5680 N   0  0  0  0  0  0  0  0  0  0  0  0
   56.5760   27.0180   45.7070 C   0  0  0  0  0  0  0  0  0  0  0  0
   55.8740   27.9600   45.2510 O   0  0  0  0  0  0  0  0  0  0  0  0
   57.9780   26.9300   45.3640 N   0  0  0  0  0  0  0  0  0  0  0  0
   58.8940   26.0690   46.1280 C   0  0  0  0  0  0  0  0  0  0  0  0
   59.8540   26.9200   46.9900 C   0  0  0  0  0  0  0  0  0  0  0  0
   59.6350   28.4360   46.7920 C   0  0  0  0  0  0  0  0  0  0  0  0
   60.5880   29.2210   47.5150 O   0  0  0  0  0  0  0  0  0  0  0  0
   60.6850   29.3460   48.9080 C   0  0  0  0  0  0  0  0  0  0  0  0
   60.3040   28.3460   49.7580 N   0  0  0  0  0  0  0  0  0  0  0  0
   60.4100   28.4800   51.1180 C   0  0  0  0  0  0  0  0  0  0  0  0
   60.9090   29.6270   51.6650 N   0  0  0  0  0  0  0  0  0  0  0  0
   61.2870   30.6260   50.8300 C   0  0  0  0  0  0  0  0  0  0  0  0
   61.8340   31.7960   51.1940 N   0  0  0  0  0  0  0  0  0  0  0  0
   62.0910   32.4490   50.0370 C   0  0  0  0  0  0  0  0  0  0  0  0
   62.9530   34.1540   49.9700 Br  0  0  0  0  0  0  0  0  0  0  0  0
   61.6900   31.6870   48.9360 C   0  0  0  0  0  0  0  0  0  0  0  0
   61.8790   32.0160   47.4800 C   0  0  0  0  0  0  0  0  0  0  0  0
   60.6310   32.6020   46.8790 C   0  0  0  0  0  0  0  0  0  0  0  0
   60.6660   34.1540   46.3470 S   0  0  0  0  0  0  0  0  0  0  0  0
   59.4920   31.7660   46.6180 N   0  0  0  0  0  0  0  0  0  0  0  0
   58.1660   32.3110   46.3270 C   0  0  0  0  0  0  0  0  0  0  0  0
   57.7500   31.9630   44.9250 C   0  0  0  0  0  0  0  0  0  0  0  0
   58.1720   32.7510   43.8410 C   0  0  0  0  0  0  0  0  0  0  0  0
   57.8220   32.3960   42.5340 C   0  0  0  0  0  0  0  0  0  0  0  0
   57.0600   31.2470   42.3010 C   0  0  0  0  0  0  0  0  0  0  0  0
   56.6500   30.4500   43.3740 C   0  0  0  0  0  0  0  0  0  0  0  0
   56.9970   30.8020   44.6810 C   0  0  0  0  0  0  0  0  0  0  0  0
   61.1840   30.5160   49.4740 C   0  0  0  0  0  0  0  0  0  0  0  0
   59.5750   28.8320   45.2990 C   0  0  0  0  0  0  0  0  0  0  0  0
   58.6110   27.9320   44.4940 C   0  0  0  0  0  0  0  0  0  0  0  0
   56.1327   24.0028   48.2519 H   0  0  0  0  0  0  0  0  0  0  0  0
   55.9600   22.6624   47.0686 H   0  0  0  0  0  0  0  0  0  0  0  0
   57.4438   23.6747   47.0686 H   0  0  0  0  0  0  0  0  0  0  0  0
   54.6111   24.4887   46.3061 H   0  0  0  0  0  0  0  0  0  0  0  0
   56.9857   23.6703   44.7870 H   0  0  0  0  0  0  0  0  0  0  0  0
   55.2742   23.8348   44.2671 H   0  0  0  0  0  0  0  0  0  0  0  0
   56.3548   25.2698   44.2671 H   0  0  0  0  0  0  0  0  0  0  0  0
   58.3067   25.4106   46.7850 H   0  0  0  0  0  0  0  0  0  0  0  0
   59.4891   25.4718   45.4215 H   0  0  0  0  0  0  0  0  0  0  0  0
   59.6891   26.6746   48.0495 H   0  0  0  0  0  0  0  0  0  0  0  0
   60.8824   26.6858   46.6776 H   0  0  0  0  0  0  0  0  0  0  0  0
   58.6470   28.6631   47.2190 H   0  0  0  0  0  0  0  0  0  0  0  0
   60.0905   27.6568   51.7739 H   0  0  0  0  0  0  0  0  0  0  0  0
   62.0410   32.1220   52.1640 H   0  0  0  0  0  0  0  0  0  0  0  0
   62.6983   32.7434   47.3817 H   0  0  0  0  0  0  0  0  0  0  0  0
   62.1147   31.0846   46.9443 H   0  0  0  0  0  0  0  0  0  0  0  0
   59.6030   30.7300   46.7150 H   0  0  0  0  0  0  0  0  0  0  0  0
   57.4379   31.8897   47.0358 H   0  0  0  0  0  0  0  0  0  0  0  0
   58.2017   33.4059   46.4261 H   0  0  0  0  0  0  0  0  0  0  0  0
   58.7797   33.6501   44.0207 H   0  0  0  0  0  0  0  0  0  0  0  0
   58.1464   33.0211   41.6890 H   0  0  0  0  0  0  0  0  0  0  0  0
   56.7830   30.9701   41.2731 H   0  0  0  0  0  0  0  0  0  0  0  0
   56.0534   29.5445   43.1891 H   0  0  0  0  0  0  0  0  0  0  0  0
   56.6795   30.1679   45.5219 H   0  0  0  0  0  0  0  0  0  0  0  0
   59.2329   29.8747   45.2227 H   0  0  0  0  0  0  0  0  0  0  0  0
   60.5832   28.7091   44.8766 H   0  0  0  0  0  0  0  0  0  0  0  0
   57.8298   28.5582   44.0384 H   0  0  0  0  0  0  0  0  0  0  0  0
   59.1864   27.4085   43.7163 H   0  0  0  0  0  0  0  0  0  0  0  0
  1  2  1  0
  2  3  1  0
  2  4  1  0
  4  5  1  0
  5  6  2  0
  5  7  1  0
  7  8  1  0
  8  9  1  0
  9 10  1  0
 10 11  1  0
 11 12  1  0
 12 13  2  0
 13 14  1  0
 14 15  2  0
 15 16  1  0
 16 17  1  0
 17 18  1  0
 18 19  1  0
 18 20  2  0
 20 21  1  0
 21 22  1  0
 22 23  2  0
 22 24  1  0
 24 25  1  0
 25 26  1  0
 26 27  2  0
 27 28  1  0
 28 29  2  0
 29 30  1  0
 30 31  2  0
 20 32  1  0
 10 33  1  0
 33 34  1  0
 34  7  1  0
 32 12  1  0
 32 16  2  0
 31 26  1  0
  1 35  1  0
  1 36  1  0
  1 37  1  0
  2 38  1  0
  3 39  1  0
  3 40  1  0
  3 41  1  0
  8 42  1  0
  8 43  1  0
  9 44  1  0
  9 45  1  0
 10 46  1  0
 14 47  1  0
 17 48  1  0
 21 49  1  0
 21 50  1  0
 24 51  1  0
 25 52  1  0
 25 53  1  0
 27 54  1  0
 28 55  1  0
 29 56  1  0
 30 57  1  0
 31 58  1  0
 33 59  1  0
 33 60  1  0
 34 61  1  0
 34 62  1  0
M  CHG  1   4  -1
M  END
>  <UniqueID>  (39) 
37

>  <SMILES>  (39) 
CC(C)[N-]C(=O)N1CCC(Oc2ncnc3[nH]c(Br)c(CC(=S)NCc4ccccc4)c23)CC1

>  <Energy>  (39) 
98.50569259558843

>  <Genealogy>  (39) 
CC(C)[N-]C(=O)N1CCC(Oc2ncnc3[nH]c(Br)c(CC(=S)NCc4ccccc4)c23)CC1 (protonated)
CC(C)[N-]C(=O)N1CCC(Oc2ncnc3[nH]c(Br)c(CC(=S)NCc4ccccc4)c23)CC1 (3D coordinates assigned)
CC(C)[N-]C(=O)N1CCC(Oc2ncnc3[nH]c(Br)c(CC(=S)NCc4ccccc4)c23)CC1 (nonaromatic ring conformer: 98.50569259558843 kcal/mol)

>  <smiles>  (39) 
CC(C)NC(=O)N1CCC(Oc2ncnc3[nH]c(Br)c(CC(=S)NCc4ccccc4)c23)CC1

>  <score_type>  (39) 
oracle

>  <origin>  (39) 
adg

>  <m_score__min__energy>  (39) 
-10.67

>  <m_primary>  (39) 
energy

$$$$
39:0
     RDKit          3D

 43 45  0  0  0  0  0  0  0  0999 V2000
   55.5840   29.7300   45.9250 H   0  0  0  0  0  0  0  0  0  0  0  0
   55.6890   28.9860   45.2460 O   0  0  0  0  0  0  0  0  0  0  0  0
   56.2290   27.7580   45.6180 C   0  0  0  0  0  0  0  0  0  0  0  0
   55.4910   26.6650   45.8740 N   0  0  0  0  0  0  0  0  0  0  0  0
   56.4200   25.7610   46.2490 C   0  0  0  0  0  0  0  0  0  0  0  0
   56.1270   24.5840   46.5830 O   0  0  0  0  0  0  0  0  0  0  0  0
   57.6910   26.2200   46.2450 N   0  0  0  0  0  0  0  0  0  0  0  0
   57.5640   27.4890   45.8200 C   0  0  0  0  0  0  0  0  0  0  0  0
   58.7000   28.4210   45.7150 C   0  0  0  0  0  0  0  0  0  0  0  0
   59.6125   28.0687   45.2118 H   0  0  0  0  0  0  0  0  0  0  0  0
   58.6890   29.6790   46.1980 C   0  0  0  0  0  0  0  0  0  0  0  0
   59.1040   30.0750   47.4590 C   0  0  0  0  0  0  0  0  0  0  0  0
   59.5782   29.4409   48.2225 H   0  0  0  0  0  0  0  0  0  0  0  0
   58.8080   31.4180   47.5730 C   0  0  0  0  0  0  0  0  0  0  0  0
   58.9860   32.2040   48.8380 C   0  0  0  0  0  0  0  0  0  0  0  0
   58.8363   31.5431   49.7045 H   0  0  0  0  0  0  0  0  0  0  0  0
   60.0021   32.6243   48.8686 H   0  0  0  0  0  0  0  0  0  0  0  0
   58.2501   33.0211   48.8686 H   0  0  0  0  0  0  0  0  0  0  0  0
   58.2090   31.8740   46.4460 N   0  0  0  0  0  0  0  0  0  0  0  0
   57.5720   33.1960   46.2890 C   0  0  0  0  0  0  0  0  0  0  0  0
   57.3653   33.3670   45.2222 H   0  0  0  0  0  0  0  0  0  0  0  0
   56.6429   33.1994   46.8778 H   0  0  0  0  0  0  0  0  0  0  0  0
   58.4720   34.3310   46.8100 C   0  0  0  0  0  0  0  0  0  0  0  0
   57.8587   35.2336   46.9480 H   0  0  0  0  0  0  0  0  0  0  0  0
   58.9171   33.9985   47.7594 H   0  0  0  0  0  0  0  0  0  0  0  0
   59.5920   34.6490   45.8650 C   0  0  0  0  0  0  0  0  0  0  0  0
   59.4700   35.5920   45.0380 O   0  0  0  0  0  0  0  0  0  0  0  0
   60.7970   33.8750   45.9360 N   0  0  0  0  0  0  0  0  0  0  0  0
   61.7480   33.8120   47.0110 C   0  0  0  0  0  0  0  0  0  0  0  0
   61.4190   34.1580   48.3360 C   0  0  0  0  0  0  0  0  0  0  0  0
   60.4254   34.5707   48.5647 H   0  0  0  0  0  0  0  0  0  0  0  0
   62.3530   33.9780   49.3620 C   0  0  0  0  0  0  0  0  0  0  0  0
   62.0928   34.2531   50.3948 H   0  0  0  0  0  0  0  0  0  0  0  0
   63.6150   33.4500   49.0790 C   0  0  0  0  0  0  0  0  0  0  0  0
   64.8770   33.1790   50.4870 Br  0  0  0  0  0  0  0  0  0  0  0  0
   63.9470   33.1030   47.7670 C   0  0  0  0  0  0  0  0  0  0  0  0
   64.9410   32.6889   47.5426 H   0  0  0  0  0  0  0  0  0  0  0  0
   63.0160   33.2820   46.7390 C   0  0  0  0  0  0  0  0  0  0  0  0
   63.2815   33.0044   45.7083 H   0  0  0  0  0  0  0  0  0  0  0  0
   58.1470   30.8160   45.5880 C   0  0  0  0  0  0  0  0  0  0  0  0
   57.6150   30.8640   44.3540 C   0  0  0  0  0  0  0  0  0  0  0  0
   57.2135   31.8112   43.9646 H   0  0  0  0  0  0  0  0  0  0  0  0
   57.5813   29.9561   43.7339 H   0  0  0  0  0  0  0  0  0  0  0  0
  1  2  1  0
  2  3  1  0
  3  4  1  0
  4  5  1  0
  5  6  2  0
  5  7  1  0
  7  8  1  0
  8  9  1  0
  9 10  1  0
  9 11  2  0
 11 12  1  0
 12 13  1  0
 12 14  2  0
 14 15  1  0
 15 16  1  0
 15 17  1  0
 15 18  1  0
 14 19  1  0
 19 20  1  0
 20 21  1  0
 20 22  1  0
 20 23  1  0
 23 24  1  0
 23 25  1  0
 23 26  1  0
 26 27  2  0
 26 28  1  0
 28 29  1  0
 29 30  2  0
 30 31  1  0
 30 32  1  0
 32 33  1  0
 32 34  2  0
 34 35  1  0
 34 36  1  0
 36 37  1  0
 36 38  2  0
 38 39  1  0
 19 40  1  0
 40 41  2  0
 41 42  1  0
 41 43  1  0
  8  3  2  0
 40 11  1  0
 38 29  1  0
M  CHG  3   4  -1   7  -1  28  -1
M  END
>  <UniqueID>  (40) 
38

>  <SMILES>  (40) 
C=c1/c(=C/c2[n-]c(=O)[n-]c2O)cc(C)n1CCC(=O)[N-]c1ccc(Br)cc1

>  <Energy>  (40) 
106.26735872586522

>  <Genealogy>  (40) 
C=c1c(=Cc2[n-]c(=O)[n-]c2O)cc(C)n1CCC(=O)[N-]c1ccc(Br)cc1 (protonated)
C=c1/c(=C/c2[n-]c(=O)[n-]c2O)cc(C)n1CCC(=O)[N-]c1ccc(Br)cc1 (cis-trans isomerization)
C=c1/c(=C/c2[n-]c(=O)[n-]c2O)cc(C)n1CCC(=O)[N-]c1ccc(Br)cc1 (3D coordinates assigned)
C=c1/c(=C/c2[n-]c(=O)[n-]c2O)cc(C)n1CCC(=O)[N-]c1ccc(Br)cc1 (optimized conformer: 106.26735872586522 kcal/mol)

>  <smiles>  (40) 
C=c1c(=Cc2[nH]c(=O)[nH]c2O)cc(C)n1CCC(=O)Nc1ccc(Br)cc1

>  <score_type>  (40) 
oracle

>  <origin>  (40) 
adg

>  <m_score__min__energy>  (40) 
-15.19

>  <m_primary>  (40) 
energy

$$$$
40:0
     RDKit          3D

 29 30  0  0  0  0  0  0  0  0999 V2000
   58.5290   31.1440   43.5620 O   0  0  0  0  0  0  0  0  0  0  0  0
   57.6430   30.7810   44.3850 C   0  0  0  0  0  0  0  0  0  0  0  0
   56.7190   31.7160   44.8670 O   0  0  0  0  0  0  0  0  0  0  0  0
   56.9810   33.1150   44.9410 C   0  0  0  0  0  0  0  0  0  0  0  0
   58.2080   33.3760   45.7750 C   0  0  0  0  0  0  0  0  0  0  0  0
   59.0130   34.4910   45.4880 C   0  0  0  0  0  0  0  0  0  0  0  0
   60.1460   34.7630   46.2610 C   0  0  0  0  0  0  0  0  0  0  0  0
   60.4820   33.9250   47.3260 C   0  0  0  0  0  0  0  0  0  0  0  0
   59.6870   32.8150   47.6220 C   0  0  0  0  0  0  0  0  0  0  0  0
   58.5510   32.5380   46.8530 C   0  0  0  0  0  0  0  0  0  0  0  0
   57.7920   31.4570   47.1640 F   0  0  0  0  0  0  0  0  0  0  0  0
   57.5830   29.3640   44.8280 C   0  0  0  0  0  0  0  0  0  0  0  0
   58.7710   28.6090   44.8980 C   0  0  0  0  0  0  0  0  0  0  0  0
   58.7460   27.2750   45.3100 C   0  0  0  0  0  0  0  0  0  0  0  0
   57.5390   26.6740   45.6600 C   0  0  0  0  0  0  0  0  0  0  0  0
   56.3490   27.4020   45.6030 C   0  0  0  0  0  0  0  0  0  0  0  0
   55.1560   26.7830   45.9600 O   0  0  0  0  0  0  0  0  0  0  0  0
   56.3600   28.7470   45.1900 C   0  0  0  0  0  0  0  0  0  0  0  0
   55.1650   29.4690   45.1440 O   0  0  0  0  0  0  0  0  0  0  0  0
   57.1422   33.5077   43.9262 H   0  0  0  0  0  0  0  0  0  0  0  0
   56.1195   33.6152   45.4074 H   0  0  0  0  0  0  0  0  0  0  0  0
   58.7505   35.1539   44.6503 H   0  0  0  0  0  0  0  0  0  0  0  0
   60.7725   35.6371   46.0301 H   0  0  0  0  0  0  0  0  0  0  0  0
   61.3741   34.1391   47.9329 H   0  0  0  0  0  0  0  0  0  0  0  0
   59.9547   32.1569   48.4618 H   0  0  0  0  0  0  0  0  0  0  0  0
   59.7288   29.0759   44.6250 H   0  0  0  0  0  0  0  0  0  0  0  0
   59.6811   26.6977   45.3583 H   0  0  0  0  0  0  0  0  0  0  0  0
   57.5234   25.6224   45.9823 H   0  0  0  0  0  0  0  0  0  0  0  0
   55.1320   30.4730   45.2770 H   0  0  0  0  0  0  0  0  0  0  0  0
  1  2  2  0
  2  3  1  0
  3  4  1  0
  4  5  1  0
  5  6  2  0
  6  7  1  0
  7  8  2  0
  8  9  1  0
  9 10  2  0
 10 11  1  0
  2 12  1  0
 12 13  2  0
 13 14  1  0
 14 15  2  0
 15 16  1  0
 16 17  1  0
 16 18  2  0
 18 19  1  0
 10  5  1  0
 18 12  1  0
  4 20  1  0
  4 21  1  0
  6 22  1  0
  7 23  1  0
  8 24  1  0
  9 25  1  0
 13 26  1  0
 14 27  1  0
 15 28  1  0
 19 29  1  0
M  CHG  1  17  -1
M  END
>  <UniqueID>  (41) 
39

>  <SMILES>  (41) 
O=C(OCc1ccccc1F)c1cccc([O-])c1O

>  <Energy>  (41) 
31.14837827761593

>  <Genealogy>  (41) 
O=C(OCc1ccccc1F)c1cccc([O-])c1O (protonated)
O=C(OCc1ccccc1F)c1cccc([O-])c1O (3D coordinates assigned)
O=C(OCc1ccccc1F)c1cccc([O-])c1O (optimized conformer: 31.14837827761593 kcal/mol)

>  <smiles>  (41) 
O=C(OCc1ccccc1F)c1cccc(O)c1O

>  <score_type>  (41) 
oracle

>  <origin>  (41) 
adg

>  <m_score__min__energy>  (41) 
-11.75

>  <m_primary>  (41) 
energy

$$$$
41:0
     RDKit          3D

 63 67  0  0  0  0  0  0  0  0999 V2000
   51.0130   32.7060   51.6220 N   0  0  0  0  0  0  0  0  0  0  0  0
   51.4660   31.5150   52.7860 S   0  0  0  0  0  0  0  0  0  0  0  0
   51.2850   32.0720   54.1690 O   0  0  0  0  0  0  0  0  0  0  0  0
   50.5970   30.3010   52.6310 O   0  0  0  0  0  0  0  0  0  0  0  0
   53.1420   31.0610   52.5430 C   0  0  0  0  0  0  0  0  0  0  0  0
   53.7440   30.8200   51.3240 C   0  0  0  0  0  0  0  0  0  0  0  0
   55.0520   30.4910   51.6160 C   0  0  0  0  0  0  0  0  0  0  0  0
   55.1550   30.5580   52.9940 C   0  0  0  0  0  0  0  0  0  0  0  0
   56.3790   30.2530   53.7970 C   0  0  0  0  0  0  0  0  0  0  0  0
   57.5540   30.2380   52.9270 N   0  0  0  0  0  0  0  0  0  0  0  0
   58.2230   29.1440   52.4840 C   0  0  0  0  0  0  0  0  0  0  0  0
   59.2570   29.4470   51.6550 N   0  0  0  0  0  0  0  0  0  0  0  0
   59.2040   30.7910   51.5840 C   0  0  0  0  0  0  0  0  0  0  0  0
   60.0500   31.6340   50.8680 C   0  0  0  0  0  0  0  0  0  0  0  0
   59.8230   33.0270   50.9360 C   0  0  0  0  0  0  0  0  0  0  0  0
   60.7080   33.9100   50.2210 N   0  0  0  0  0  0  0  0  0  0  0  0
   60.4850   34.3980   48.8590 C   0  0  0  0  0  0  0  0  0  0  0  0
   59.9430   33.2940   47.9920 C   0  0  0  0  0  0  0  0  0  0  0  0
   58.5780   33.2640   47.6700 C   0  0  0  0  0  0  0  0  0  0  0  0
   58.0620   32.2410   46.8690 C   0  0  0  0  0  0  0  0  0  0  0  0
   58.9000   31.2260   46.3810 C   0  0  0  0  0  0  0  0  0  0  0  0
   58.3400   30.2010   45.5380 N   0  0  0  0  0  0  0  0  0  0  0  0
   57.0300   30.2450   44.9580 C   0  0  0  0  0  0  0  0  0  0  0  0
   56.4130   31.3400   44.8420 O   0  0  0  0  0  0  0  0  0  0  0  0
   56.4360   29.0430   44.4690 N   0  0  0  0  0  0  0  0  0  0  0  0
   56.2630   27.9630   45.2750 O   0  0  0  0  0  0  0  0  0  0  0  0
   57.3680   27.1110   45.0620 C   0  0  0  0  0  0  0  0  0  0  0  0
   58.3830   27.2520   46.1700 C   0  0  0  0  0  0  0  0  0  0  0  0
   58.0660   27.9900   47.3210 C   0  0  0  0  0  0  0  0  0  0  0  0
   59.0230   28.1770   48.3220 C   0  0  0  0  0  0  0  0  0  0  0  0
   60.3040   27.6350   48.1770 C   0  0  0  0  0  0  0  0  0  0  0  0
   60.6310   26.9050   47.0320 C   0  0  0  0  0  0  0  0  0  0  0  0
   59.6780   26.7150   46.0290 C   0  0  0  0  0  0  0  0  0  0  0  0
   60.2750   31.2740   46.6800 C   0  0  0  0  0  0  0  0  0  0  0  0
   60.7880   32.2920   47.4920 C   0  0  0  0  0  0  0  0  0  0  0  0
   58.7390   33.5180   51.7200 C   0  0  0  0  0  0  0  0  0  0  0  0
   57.9040   32.6360   52.4280 C   0  0  0  0  0  0  0  0  0  0  0  0
   58.1770   31.2720   52.3390 C   0  0  0  0  0  0  0  0  0  0  0  0
   54.0000   30.8930   53.5210 O   0  0  0  0  0  0  0  0  0  0  0  0
   50.2680   32.2830   51.0260 H   0  0  0  0  0  0  0  0  0  0  0  0
   53.2787   30.8781   50.3290 H   0  0  0  0  0  0  0  0  0  0  0  0
   55.8470   30.2299   50.9020 H   0  0  0  0  0  0  0  0  0  0  0  0
   56.5084   31.0233   54.5715 H   0  0  0  0  0  0  0  0  0  0  0  0
   56.2656   29.2661   54.2694 H   0  0  0  0  0  0  0  0  0  0  0  0
   57.9557   28.1152   52.7671 H   0  0  0  0  0  0  0  0  0  0  0  0
   60.8742   31.2258   50.2647 H   0  0  0  0  0  0  0  0  0  0  0  0
   61.5980   34.2020   50.6860 H   0  0  0  0  0  0  0  0  0  0  0  0
   59.7630   35.2275   48.8842 H   0  0  0  0  0  0  0  0  0  0  0  0
   61.4419   34.7445   48.4414 H   0  0  0  0  0  0  0  0  0  0  0  0
   57.9094   34.0504   48.0502 H   0  0  0  0  0  0  0  0  0  0  0  0
   56.9908   32.2313   46.6191 H   0  0  0  0  0  0  0  0  0  0  0  0
   58.9330   29.3670   45.3160 H   0  0  0  0  0  0  0  0  0  0  0  0
   57.0170   26.0691   45.0265 H   0  0  0  0  0  0  0  0  0  0  0  0
   57.8466   27.3897   44.1116 H   0  0  0  0  0  0  0  0  0  0  0  0
   57.0611   28.4225   47.4355 H   0  0  0  0  0  0  0  0  0  0  0  0
   58.7684   28.7512   49.2250 H   0  0  0  0  0  0  0  0  0  0  0  0
   61.0556   27.7839   48.9663 H   0  0  0  0  0  0  0  0  0  0  0  0
   61.6393   26.4797   46.9203 H   0  0  0  0  0  0  0  0  0  0  0  0
   59.9393   26.1441   45.1258 H   0  0  0  0  0  0  0  0  0  0  0  0
   60.9501   30.5068   46.2730 H   0  0  0  0  0  0  0  0  0  0  0  0
   61.8597   32.3065   47.7395 H   0  0  0  0  0  0  0  0  0  0  0  0
   58.5532   34.6010   51.7719 H   0  0  0  0  0  0  0  0  0  0  0  0
   57.0638   33.0096   53.0317 H   0  0  0  0  0  0  0  0  0  0  0  0
  1  2  1  0
  2  3  2  0
  2  4  2  0
  2  5  1  0
  5  6  2  0
  6  7  1  0
  7  8  2  0
  8  9  1  0
  9 10  1  0
 10 11  1  0
 11 12  2  0
 12 13  1  0
 13 14  2  0
 14 15  1  0
 15 16  1  0
 16 17  1  0
 17 18  1  0
 18 19  2  0
 19 20  1  0
 20 21  2  0
 21 22  1  0
 22 23  1  0
 23 24  2  0
 23 25  1  0
 25 26  1  0
 26 27  1  0
 27 28  1  0
 28 29  2  0
 29 30  1  0
 30 31  2  0
 31 32  1  0
 32 33  2  0
 21 34  1  0
 34 35  2  0
 15 36  2  0
 36 37  1  0
 37 38  2  0
  8 39  1  0
 39  5  1  0
 38 10  1  0
 38 13  1  0
 35 18  1  0
 33 28  1  0
  1 40  1  0
  6 41  1  0
  7 42  1  0
  9 43  1  0
  9 44  1  0
 11 45  1  0
 14 46  1  0
 16 47  1  0
 17 48  1  0
 17 49  1  0
 19 50  1  0
 20 51  1  0
 22 52  1  0
 27 53  1  0
 27 54  1  0
 29 55  1  0
 30 56  1  0
 31 57  1  0
 32 58  1  0
 33 59  1  0
 34 60  1  0
 35 61  1  0
 36 62  1  0
 37 63  1  0
M  CHG  2   1  -1  25  -1
M  END
>  <UniqueID>  (42) 
40

>  <SMILES>  (42) 
[NH-]S(=O)(=O)c1ccc(Cn2cnc3cc(NCc4ccc(NC(=O)[N-]OCc5ccccc5)cc4)ccc32)o1

>  <Energy>  (42) 
129.69727127429573

>  <Genealogy>  (42) 
[NH-]S(=O)(=O)c1ccc(Cn2cnc3cc(NCc4ccc(NC(=O)[N-]OCc5ccccc5)cc4)ccc32)o1 (protonated)
[NH-]S(=O)(=O)c1ccc(Cn2cnc3cc(NCc4ccc(NC(=O)[N-]OCc5ccccc5)cc4)ccc32)o1 (3D coordinates assigned)
[NH-]S(=O)(=O)c1ccc(Cn2cnc3cc(NCc4ccc(NC(=O)[N-]OCc5ccccc5)cc4)ccc32)o1 (optimized conformer: 129.69727127429573 kcal/mol)

>  <smiles>  (42) 
NS(=O)(=O)c1ccc(Cn2cnc3cc(NCc4ccc(NC(=O)NOCc5ccccc5)cc4)ccc32)o1

>  <score_type>  (42) 
oracle

>  <origin>  (42) 
adg

>  <m_score__min__energy>  (42) 
-14.34

>  <m_primary>  (42) 
energy

$$$$
42:0
     RDKit          3D

 56 59  0  0  0  0  0  0  0  0999 V2000
   60.1890   26.7180   47.7410 C   0  0  0  0  0  0  0  0  0  0  0  0
   58.9280   27.0240   46.9880 C   0  0  0  0  0  0  0  0  0  0  0  0
   57.8150   26.1800   47.1100 C   0  0  0  0  0  0  0  0  0  0  0  0
   56.6570   26.4600   46.3850 C   0  0  0  0  0  0  0  0  0  0  0  0
   56.6190   27.5340   45.5520 N   0  0  0  0  0  0  0  0  0  0  0  0
   57.6870   28.3690   45.3980 C   0  0  0  0  0  0  0  0  0  0  0  0
   57.6380   29.3790   44.5750 N   0  0  0  0  0  0  0  0  0  0  0  0
   57.0280   30.6520   44.8420 C   0  0  0  0  0  0  0  0  0  0  0  0
   55.8370   30.8370   44.4790 O   0  0  0  0  0  0  0  0  0  0  0  0
   57.7780   31.7630   45.4740 C   0  0  0  0  0  0  0  0  0  0  0  0
   57.7220   33.0550   44.9280 C   0  0  0  0  0  0  0  0  0  0  0  0
   58.4100   34.1060   45.5380 C   0  0  0  0  0  0  0  0  0  0  0  0
   59.1630   33.8760   46.6930 C   0  0  0  0  0  0  0  0  0  0  0  0
   59.2590   32.5840   47.2320 C   0  0  0  0  0  0  0  0  0  0  0  0
   60.0450   32.3500   48.4940 C   0  0  0  0  0  0  0  0  0  0  0  0
   59.2310   32.6890   49.6580 N   0  0  0  0  0  0  0  0  0  0  0  0
   58.4360   31.7890   50.4440 C   0  0  0  0  0  0  0  0  0  0  0  0
   58.3170   30.5970   50.0560 O   0  0  0  0  0  0  0  0  0  0  0  0
   57.6610   32.2310   51.6580 C   0  0  0  0  0  0  0  0  0  0  0  0
   56.9250   31.0700   52.2720 C   0  0  0  0  0  0  0  0  0  0  0  0
   57.5810   30.2010   53.1610 C   0  0  0  0  0  0  0  0  0  0  0  0
   56.8820   29.1530   53.7670 C   0  0  0  0  0  0  0  0  0  0  0  0
   57.5160   28.3320   54.6430 F   0  0  0  0  0  0  0  0  0  0  0  0
   55.5300   28.9530   53.4770 C   0  0  0  0  0  0  0  0  0  0  0  0
   54.8740   29.7840   52.5620 C   0  0  0  0  0  0  0  0  0  0  0  0
   53.4790   29.5780   52.3000 N   0  0  0  0  0  0  0  0  0  0  0  0
   52.5670   30.4940   52.1170 C   0  0  0  0  0  0  0  0  0  0  0  0
   52.3680   30.9900   50.8220 C   0  0  0  0  0  0  0  0  0  0  0  0
   51.4050   31.9750   50.5930 C   0  0  0  0  0  0  0  0  0  0  0  0
   50.6720   32.4650   51.6280 N   0  0  0  0  0  0  0  0  0  0  0  0
   50.8490   32.0200   52.9000 C   0  0  0  0  0  0  0  0  0  0  0  0
   51.8000   31.0330   53.1740 C   0  0  0  0  0  0  0  0  0  0  0  0
   55.5650   30.8670   51.9940 C   0  0  0  0  0  0  0  0  0  0  0  0
   58.5690   31.5320   46.6130 C   0  0  0  0  0  0  0  0  0  0  0  0
   58.8670   28.1170   46.1080 C   0  0  0  0  0  0  0  0  0  0  0  0
   59.9913   26.7660   48.8220 H   0  0  0  0  0  0  0  0  0  0  0  0
   60.5383   25.7090   47.4765 H   0  0  0  0  0  0  0  0  0  0  0  0
   60.9619   27.4547   47.4765 H   0  0  0  0  0  0  0  0  0  0  0  0
   57.8549   25.3031   47.7729 H   0  0  0  0  0  0  0  0  0  0  0  0
   55.7741   25.8118   46.4871 H   0  0  0  0  0  0  0  0  0  0  0  0
   57.1343   33.2401   44.0168 H   0  0  0  0  0  0  0  0  0  0  0  0
   58.3593   35.1174   45.1085 H   0  0  0  0  0  0  0  0  0  0  0  0
   59.6833   34.7126   47.1822 H   0  0  0  0  0  0  0  0  0  0  0  0
   60.3379   31.2912   48.5499 H   0  0  0  0  0  0  0  0  0  0  0  0
   60.9432   32.9849   48.4836 H   0  0  0  0  0  0  0  0  0  0  0  0
   58.3583   32.6489   52.3990 H   0  0  0  0  0  0  0  0  0  0  0  0
   56.9281   32.9919   51.3516 H   0  0  0  0  0  0  0  0  0  0  0  0
   58.6490   30.3462   53.3808 H   0  0  0  0  0  0  0  0  0  0  0  0
   54.9788   28.1387   53.9701 H   0  0  0  0  0  0  0  0  0  0  0  0
   52.9699   30.6038   49.9862 H   0  0  0  0  0  0  0  0  0  0  0  0
   51.2393   32.3549   49.5741 H   0  0  0  0  0  0  0  0  0  0  0  0
   50.2418   32.4380   53.7165 H   0  0  0  0  0  0  0  0  0  0  0  0
   51.9501   30.6787   54.2045 H   0  0  0  0  0  0  0  0  0  0  0  0
   55.0353   31.5618   51.3256 H   0  0  0  0  0  0  0  0  0  0  0  0
   58.6475   30.5144   47.0233 H   0  0  0  0  0  0  0  0  0  0  0  0
   59.7415   28.7714   45.9774 H   0  0  0  0  0  0  0  0  0  0  0  0
  1  2  1  0
  2  3  1  0
  3  4  2  0
  4  5  1  0
  5  6  1  0
  6  7  2  3
  7  8  1  0
  8  9  2  0
  8 10  1  0
 10 11  2  0
 11 12  1  0
 12 13  2  0
 13 14  1  0
 14 15  1  0
 15 16  1  0
 16 17  1  0
 17 18  2  0
 17 19  1  0
 19 20  1  0
 20 21  2  0
 21 22  1  0
 22 23  1  0
 22 24  2  0
 24 25  1  0
 25 26  1  0
 26 27  2  3
 27 28  1  0
 28 29  2  0
 29 30  1  0
 30 31  1  0
 31 32  2  0
 25 33  2  0
 14 34  2  0
  6 35  1  0
 35  2  2  0
 34 10  1  0
 33 20  1  0
 32 27  1  0
  1 36  1  0
  1 37  1  0
  1 38  1  0
  3 39  1  0
  4 40  1  0
 11 41  1  0
 12 42  1  0
 13 43  1  0
 15 44  1  0
 15 45  1  0
 19 46  1  0
 19 47  1  0
 21 48  1  0
 24 49  1  0
 28 50  1  0
 29 51  1  0
 31 52  1  0
 32 53  1  0
 33 54  1  0
 34 55  1  0
 35 56  1  0
M  CHG  3   5  -1  16  -1  30  -1
M  END
>  <UniqueID>  (43) 
41

>  <SMILES>  (43) 
Cc1cc[n-]c(=NC(=O)c2cccc(C[N-]C(=O)Cc3cc(F)cc(N=c4cc[n-]cc4)c3)c2)c1

>  <Energy>  (43) 
74.76977346683799

>  <Genealogy>  (43) 
Cc1cc[n-]c(=NC(=O)c2cccc(C[N-]C(=O)Cc3cc(F)cc(N=c4cc[n-]cc4)c3)c2)c1 (protonated)
Cc1cc[n-]c(=NC(=O)c2cccc(C[N-]C(=O)Cc3cc(F)cc(N=c4cc[n-]cc4)c3)c2)c1 (3D coordinates assigned)
Cc1cc[n-]c(=NC(=O)c2cccc(C[N-]C(=O)Cc3cc(F)cc(N=c4cc[n-]cc4)c3)c2)c1 (optimized conformer: 74.76977346683799 kcal/mol)

>  <smiles>  (43) 
Cc1cc[nH]c(=NC(=O)c2cccc(CNC(=O)Cc3cc(F)cc(N=c4cc[nH]cc4)c3)c2)c1

>  <score_type>  (43) 
oracle

>  <origin>  (43) 
adg

>  <m_score__min__energy>  (43) 
-15.130000000000001

>  <m_primary>  (43) 
energy

$$$$
43:0
     RDKit          3D

 42 44  0  0  0  0  0  0  0  0999 V2000
   63.7520   33.0820   47.1060 C   0  0  0  0  0  0  0  0  0  0  0  0
   63.8500   33.4650   48.5800 C   0  0  0  0  0  0  0  0  0  0  0  0
   62.6900   34.1880   48.9940 O   0  0  0  0  0  0  0  0  0  0  0  0
   61.3640   33.7320   48.9020 C   0  0  0  0  0  0  0  0  0  0  0  0
   60.7500   33.2580   50.0650 C   0  0  0  0  0  0  0  0  0  0  0  0
   59.4340   32.7930   50.0350 C   0  0  0  0  0  0  0  0  0  0  0  0
   58.7160   32.7980   48.8380 C   0  0  0  0  0  0  0  0  0  0  0  0
   59.3100   33.2730   47.6580 C   0  0  0  0  0  0  0  0  0  0  0  0
   58.5550   33.2840   46.3880 C   0  0  0  0  0  0  0  0  0  0  0  0
   58.5770   32.2710   45.4930 N   0  0  0  0  0  0  0  0  0  0  0  0
   57.7640   32.7120   44.5150 C   0  0  0  0  0  0  0  0  0  0  0  0
   57.4200   31.9210   43.2930 C   0  0  0  0  0  0  0  0  0  0  0  0
   57.7460   30.5120   43.4970 N   0  0  0  0  0  0  0  0  0  0  0  0
   56.9490   29.6490   44.3200 C   0  0  0  0  0  0  0  0  0  0  0  0
   55.8990   30.0820   44.8690 O   0  0  0  0  0  0  0  0  0  0  0  0
   57.3310   28.2120   44.4900 C   0  0  0  0  0  0  0  0  0  0  0  0
   58.0210   28.0290   45.7620 N   0  0  0  0  0  0  0  0  0  0  0  0
   58.6980   28.9580   46.4570 C   0  0  0  0  0  0  0  0  0  0  0  0
   59.2540   28.3410   47.5550 C   0  0  0  0  0  0  0  0  0  0  0  0
   58.9400   27.0280   47.5450 N   0  0  0  0  0  0  0  0  0  0  0  0
   58.1910   26.8730   46.4330 C   0  0  0  0  0  0  0  0  0  0  0  0
   57.2730   33.9540   44.8450 C   0  0  0  0  0  0  0  0  0  0  0  0
   57.7830   34.2790   46.0050 O   0  0  0  0  0  0  0  0  0  0  0  0
   60.6350   33.7420   47.6950 C   0  0  0  0  0  0  0  0  0  0  0  0
   63.4801   32.0196   47.0205 H   0  0  0  0  0  0  0  0  0  0  0  0
   62.9825   33.6978   46.6175 H   0  0  0  0  0  0  0  0  0  0  0  0
   64.7227   33.2526   46.6175 H   0  0  0  0  0  0  0  0  0  0  0  0
   63.9402   32.5508   49.1850 H   0  0  0  0  0  0  0  0  0  0  0  0
   64.7334   34.1053   48.7201 H   0  0  0  0  0  0  0  0  0  0  0  0
   61.3089   33.2514   51.0124 H   0  0  0  0  0  0  0  0  0  0  0  0
   58.9619   32.4219   50.9566 H   0  0  0  0  0  0  0  0  0  0  0  0
   57.6802   32.4281   48.8192 H   0  0  0  0  0  0  0  0  0  0  0  0
   56.3438   32.0191   43.0875 H   0  0  0  0  0  0  0  0  0  0  0  0
   58.0010   32.3046   42.4413 H   0  0  0  0  0  0  0  0  0  0  0  0
   58.5820   30.1190   43.0090 H   0  0  0  0  0  0  0  0  0  0  0  0
   56.4244   27.5892   44.4739 H   0  0  0  0  0  0  0  0  0  0  0  0
   58.0003   27.9156   43.6689 H   0  0  0  0  0  0  0  0  0  0  0  0
   58.7915   30.0223   46.1954 H   0  0  0  0  0  0  0  0  0  0  0  0
   59.8615   28.8416   48.3234 H   0  0  0  0  0  0  0  0  0  0  0  0
   57.7668   25.9106   46.1106 H   0  0  0  0  0  0  0  0  0  0  0  0
   56.5798   34.5614   44.2446 H   0  0  0  0  0  0  0  0  0  0  0  0
   61.1064   34.1195   46.7756 H   0  0  0  0  0  0  0  0  0  0  0  0
  1  2  1  0
  2  3  1  0
  3  4  1  0
  4  5  2  0
  5  6  1  0
  6  7  2  0
  7  8  1  0
  8  9  1  0
  9 10  2  0
 10 11  1  0
 11 12  1  0
 12 13  1  0
 13 14  1  0
 14 15  2  0
 14 16  1  0
 16 17  1  0
 17 18  1  0
 18 19  2  0
 19 20  1  0
 20 21  2  0
 11 22  2  0
 22 23  1  0
  8 24  2  0
 24  4  1  0
 23  9  1  0
 21 17  1  0
  1 25  1  0
  1 26  1  0
  1 27  1  0
  2 28  1  0
  2 29  1  0
  5 30  1  0
  6 31  1  0
  7 32  1  0
 12 33  1  0
 12 34  1  0
 13 35  1  0
 16 36  1  0
 16 37  1  0
 18 38  1  0
 19 39  1  0
 21 40  1  0
 22 41  1  0
 24 42  1  0
M  END
>  <UniqueID>  (44) 
42

>  <SMILES>  (44) 
CCOc1cccc(-c2nc(CNC(=O)Cn3ccnc3)co2)c1

>  <Energy>  (44) 
94.9173747515276

>  <Genealogy>  (44) 
CCOc1cccc(-c2nc(CNC(=O)Cn3ccnc3)co2)c1 (3D coordinates assigned)
CCOc1cccc(-c2nc(CNC(=O)Cn3ccnc3)co2)c1 (optimized conformer: 94.9173747515276 kcal/mol)

>  <smiles>  (44) 
CCOc1cccc(-c2nc(CNC(=O)Cn3ccnc3)co2)c1

>  <score_type>  (44) 
oracle

>  <origin>  (44) 
adg

>  <m_score__min__energy>  (44) 
-7.2699999999999996

>  <m_primary>  (44) 
energy

$$$$
44:0
     RDKit          3D

 39 41  0  0  0  0  0  0  0  0999 V2000
   58.9860   27.7940   44.7670 C   0  0  0  0  0  0  0  0  0  0  0  0
   57.7020   27.2660   45.3240 C   0  0  0  0  0  0  0  0  0  0  0  0
   57.5880   26.0480   45.8820 N   0  0  0  0  0  0  0  0  0  0  0  0
   56.2910   25.9870   46.2400 C   0  0  0  0  0  0  0  0  0  0  0  0
   55.7880   24.9820   46.8060 O   0  0  0  0  0  0  0  0  0  0  0  0
   55.5730   27.0900   45.9460 N   0  0  0  0  0  0  0  0  0  0  0  0
   56.4730   27.9050   45.3610 C   0  0  0  0  0  0  0  0  0  0  0  0
   56.1320   29.2500   44.8670 C   0  0  0  0  0  0  0  0  0  0  0  0
   54.9580   29.4780   44.4700 O   0  0  0  0  0  0  0  0  0  0  0  0
   57.1360   30.2690   44.7850 N   0  0  0  0  0  0  0  0  0  0  0  0
   57.8800   30.8330   45.8750 C   0  0  0  0  0  0  0  0  0  0  0  0
   58.4380   30.0330   46.8900 C   0  0  0  0  0  0  0  0  0  0  0  0
   59.1770   30.6180   47.9220 C   0  0  0  0  0  0  0  0  0  0  0  0
   59.3900   32.0040   47.9430 C   0  0  0  0  0  0  0  0  0  0  0  0
   60.1660   32.6170   49.0390 C   0  0  0  0  0  0  0  0  0  0  0  0
   59.5120   32.8790   50.2540 C   0  0  0  0  0  0  0  0  0  0  0  0
   60.1930   33.4880   51.3100 C   0  0  0  0  0  0  0  0  0  0  0  0
   61.5330   33.8410   51.1650 C   0  0  0  0  0  0  0  0  0  0  0  0
   62.2020   33.5750   49.9670 C   0  0  0  0  0  0  0  0  0  0  0  0
   61.5370   32.9520   48.8990 C   0  0  0  0  0  0  0  0  0  0  0  0
   62.4540   32.5810   47.4290 S   0  0  0  0  0  0  0  0  0  0  0  0
   64.1450   32.8140   47.7080 N   0  0  0  0  0  0  0  0  0  0  0  0
   62.2320   31.1490   47.0270 O   0  0  0  0  0  0  0  0  0  0  0  0
   62.0100   33.4910   46.3180 O   0  0  0  0  0  0  0  0  0  0  0  0
   58.8410   32.8000   46.9280 C   0  0  0  0  0  0  0  0  0  0  0  0
   58.1020   32.2170   45.8940 C   0  0  0  0  0  0  0  0  0  0  0  0
   57.5880   33.0030   44.9150 F   0  0  0  0  0  0  0  0  0  0  0  0
   59.6579   28.0703   45.5930 H   0  0  0  0  0  0  0  0  0  0  0  0
   59.4637   27.0193   44.1492 H   0  0  0  0  0  0  0  0  0  0  0  0
   58.7806   28.6806   44.1492 H   0  0  0  0  0  0  0  0  0  0  0  0
   58.2918   28.9429   46.8708 H   0  0  0  0  0  0  0  0  0  0  0  0
   59.5937   29.9881   48.7218 H   0  0  0  0  0  0  0  0  0  0  0  0
   58.4543   32.6021   50.3747 H   0  0  0  0  0  0  0  0  0  0  0  0
   59.6711   33.6892   52.2572 H   0  0  0  0  0  0  0  0  0  0  0  0
   62.0651   34.3297   51.9945 H   0  0  0  0  0  0  0  0  0  0  0  0
   63.2599   33.8566   49.8599 H   0  0  0  0  0  0  0  0  0  0  0  0
   64.4840   31.9840   48.2440 H   0  0  0  0  0  0  0  0  0  0  0  0
   64.6170   32.7840   46.7760 H   0  0  0  0  0  0  0  0  0  0  0  0
   58.9924   33.8894   46.9451 H   0  0  0  0  0  0  0  0  0  0  0  0
  1  2  1  0
  2  3  1  0
  3  4  1  0
  4  5  2  0
  4  6  1  0
  6  7  1  0
  7  8  1  0
  8  9  2  0
  8 10  1  0
 10 11  1  0
 11 12  2  0
 12 13  1  0
 13 14  2  0
 14 15  1  0
 15 16  2  0
 16 17  1  0
 17 18  2  0
 18 19  1  0
 19 20  2  0
 20 21  1  0
 21 22  1  0
 21 23  2  0
 21 24  2  0
 14 25  1  0
 25 26  2  0
 26 27  1  0
  7  2  2  0
 26 11  1  0
 20 15  1  0
  1 28  1  0
  1 29  1  0
  1 30  1  0
 12 31  1  0
 13 32  1  0
 16 33  1  0
 17 34  1  0
 18 35  1  0
 19 36  1  0
 22 37  1  0
 22 38  1  0
 25 39  1  0
M  CHG  3   3  -1   6  -1  10  -1
M  END
>  <UniqueID>  (45) 
43

>  <SMILES>  (45) 
Cc1[n-]c(=O)[n-]c1C(=O)[N-]c1ccc(-c2ccccc2S(N)(=O)=O)cc1F

>  <Energy>  (45) 
79.60294347497081

>  <Genealogy>  (45) 
Cc1[n-]c(=O)[n-]c1C(=O)[N-]c1ccc(-c2ccccc2S(N)(=O)=O)cc1F (protonated)
Cc1[n-]c(=O)[n-]c1C(=O)[N-]c1ccc(-c2ccccc2S(N)(=O)=O)cc1F (3D coordinates assigned)
Cc1[n-]c(=O)[n-]c1C(=O)[N-]c1ccc(-c2ccccc2S(N)(=O)=O)cc1F (optimized conformer: 79.60294347497081 kcal/mol)

>  <smiles>  (45) 
Cc1[nH]c(=O)[nH]c1C(=O)Nc1ccc(-c2ccccc2S(N)(=O)=O)cc1F

>  <score_type>  (45) 
oracle

>  <origin>  (45) 
adg

>  <m_score__min__energy>  (45) 
-13.48

>  <m_primary>  (45) 
energy

$$$$
45:0
     RDKit          3D

 45 47  0  0  0  0  0  0  0  0999 V2000
   65.4480   32.8160   49.7000 C   0  0  0  0  0  0  0  0  0  0  0  0
   64.1180   32.1320   49.6020 C   0  0  0  0  0  0  0  0  0  0  0  0
   63.4820   31.9930   48.3590 C   0  0  0  0  0  0  0  0  0  0  0  0
   62.2230   31.3930   48.2730 C   0  0  0  0  0  0  0  0  0  0  0  0
   61.5850   30.9230   49.4310 C   0  0  0  0  0  0  0  0  0  0  0  0
   59.9940   30.1790   49.3340 S   0  0  0  0  0  0  0  0  0  0  0  0
   59.9650   29.2280   48.1690 O   0  0  0  0  0  0  0  0  0  0  0  0
   59.7110   29.4350   50.6090 O   0  0  0  0  0  0  0  0  0  0  0  0
   58.7950   31.4130   49.1240 N   0  0  0  0  0  0  0  0  0  0  0  0
   58.9140   32.5170   48.2180 C   0  0  0  0  0  0  0  0  0  0  0  0
   59.8560   33.5390   48.4120 C   0  0  0  0  0  0  0  0  0  0  0  0
   59.9810   34.5650   47.4750 C   0  0  0  0  0  0  0  0  0  0  0  0
   59.1930   34.5700   46.3200 C   0  0  0  0  0  0  0  0  0  0  0  0
   59.3710   35.5810   45.3830 O   0  0  0  0  0  0  0  0  0  0  0  0
   58.2520   33.5440   46.1060 C   0  0  0  0  0  0  0  0  0  0  0  0
   57.4630   33.4930   44.8500 C   0  0  0  0  0  0  0  0  0  0  0  0
   56.6990   34.4570   44.5770 O   0  0  0  0  0  0  0  0  0  0  0  0
   57.4880   32.3450   43.9100 C   0  0  0  0  0  0  0  0  0  0  0  0
   56.8300   31.1770   44.0470 C   0  0  0  0  0  0  0  0  0  0  0  0
   57.3800   29.9440   44.6480 C   0  0  0  0  0  0  0  0  0  0  0  0
   58.7690   29.8530   44.8360 C   0  0  0  0  0  0  0  0  0  0  0  0
   59.3380   28.6750   45.3280 C   0  0  0  0  0  0  0  0  0  0  0  0
   58.5240   27.5880   45.6600 C   0  0  0  0  0  0  0  0  0  0  0  0
   57.1340   27.6840   45.5250 C   0  0  0  0  0  0  0  0  0  0  0  0
   56.0440   26.1900   46.0050 Br  0  0  0  0  0  0  0  0  0  0  0  0
   56.5560   28.8660   45.0360 C   0  0  0  0  0  0  0  0  0  0  0  0
   55.1720   28.9680   44.9390 O   0  0  0  0  0  0  0  0  0  0  0  0
   58.0870   32.5520   47.0890 C   0  0  0  0  0  0  0  0  0  0  0  0
   62.2100   31.0780   50.6750 C   0  0  0  0  0  0  0  0  0  0  0  0
   63.4680   31.6850   50.7600 C   0  0  0  0  0  0  0  0  0  0  0  0
   65.7131   32.9523   50.7588 H   0  0  0  0  0  0  0  0  0  0  0  0
   66.2143   32.2001   49.2065 H   0  0  0  0  0  0  0  0  0  0  0  0
   65.3928   33.7976   49.2065 H   0  0  0  0  0  0  0  0  0  0  0  0
   63.9772   32.3584   47.4473 H   0  0  0  0  0  0  0  0  0  0  0  0
   61.7307   31.2888   47.2948 H   0  0  0  0  0  0  0  0  0  0  0  0
   60.4976   33.5311   49.3054 H   0  0  0  0  0  0  0  0  0  0  0  0
   60.7045   35.3757   47.6460 H   0  0  0  0  0  0  0  0  0  0  0  0
   58.1076   32.4592   43.0083 H   0  0  0  0  0  0  0  0  0  0  0  0
   55.7939   31.1380   43.6797 H   0  0  0  0  0  0  0  0  0  0  0  0
   59.4117   30.7125   44.5950 H   0  0  0  0  0  0  0  0  0  0  0  0
   60.4284   28.6031   45.4542 H   0  0  0  0  0  0  0  0  0  0  0  0
   58.9767   26.6554   46.0280 H   0  0  0  0  0  0  0  0  0  0  0  0
   57.2986   31.7944   46.9693 H   0  0  0  0  0  0  0  0  0  0  0  0
   61.7104   30.7215   51.5879 H   0  0  0  0  0  0  0  0  0  0  0  0
   63.9491   31.8119   51.7410 H   0  0  0  0  0  0  0  0  0  0  0  0
  1  2  1  0
  2  3  2  0
  3  4  1  0
  4  5  2  0
  5  6  1  0
  6  7  2  0
  6  8  2  0
  6  9  1  0
  9 10  1  0
 10 11  2  0
 11 12  1  0
 12 13  2  0
 13 14  1  0
 13 15  1  0
 15 16  1  0
 16 17  2  0
 16 18  1  0
 18 19  2  3
 19 20  1  0
 20 21  2  0
 21 22  1  0
 22 23  2  0
 23 24  1  0
 24 25  1  0
 24 26  2  0
 26 27  1  0
 15 28  2  0
  5 29  1  0
 29 30  2  0
 30  2  1  0
 28 10  1  0
 26 20  1  0
  1 31  1  0
  1 32  1  0
  1 33  1  0
  3 34  1  0
  4 35  1  0
 11 36  1  0
 12 37  1  0
 18 38  1  0
 19 39  1  0
 21 40  1  0
 22 41  1  0
 23 42  1  0
 28 43  1  0
 29 44  1  0
 30 45  1  0
M  CHG  3   9  -1  14  -1  27  -1
M  END
>  <UniqueID>  (46) 
44

>  <SMILES>  (46) 
Cc1ccc(S(=O)(=O)[N-]c2ccc([O-])c(C(=O)C=Cc3cccc(Br)c3[O-])c2)cc1

>  <Energy>  (46) 
62.76004763261646

>  <Genealogy>  (46) 
Cc1ccc(S(=O)(=O)[N-]c2ccc([O-])c(C(=O)C=Cc3cccc(Br)c3[O-])c2)cc1 (protonated)
Cc1ccc(S(=O)(=O)[N-]c2ccc([O-])c(C(=O)C=Cc3cccc(Br)c3[O-])c2)cc1 (3D coordinates assigned)
Cc1ccc(S(=O)(=O)[N-]c2ccc([O-])c(C(=O)C=Cc3cccc(Br)c3[O-])c2)cc1 (optimized conformer: 62.76004763261646 kcal/mol)

>  <smiles>  (46) 
Cc1ccc(S(=O)(=O)Nc2ccc(O)c(C(=O)C=Cc3cccc(Br)c3O)c2)cc1

>  <score_type>  (46) 
oracle

>  <origin>  (46) 
adg

>  <m_score__min__energy>  (46) 
-17.140000000000001

>  <m_primary>  (46) 
energy

$$$$
46:0
     RDKit          3D

 42 45  0  0  0  0  0  0  0  0999 V2000
   54.8550   29.1730   42.5830 H   0  0  0  0  0  0  0  0  0  0  0  0
   54.7830   29.6970   43.4850 N   0  0  0  0  0  0  0  0  0  0  0  0
   55.7870   29.7900   44.2950 C   0  0  0  0  0  0  0  0  0  0  0  0
   56.2520   28.6880   44.9370 N   0  0  0  0  0  0  0  0  0  0  0  0
   57.3060   28.7880   45.7890 C   0  0  0  0  0  0  0  0  0  0  0  0
   57.8340   27.5700   46.5040 C   0  0  1  0  0  0  0  0  0  0  0  0
   57.9455   27.8904   47.5504 H   0  0  0  0  0  0  0  0  0  0  0  0
   56.9160   26.4330   46.4100 N   0  0  0  0  0  0  0  0  0  0  0  0
   56.5190   26.3860   45.4410 H   0  0  0  0  0  0  0  0  0  0  0  0
   57.7530   25.2460   46.5900 C   0  0  0  0  0  0  0  0  0  0  0  0
   57.4057   24.4421   45.9244 H   0  0  0  0  0  0  0  0  0  0  0  0
   57.6921   24.8947   47.6306 H   0  0  0  0  0  0  0  0  0  0  0  0
   59.1950   25.6160   46.2440 C   0  0  0  0  0  0  0  0  0  0  0  0
   59.5327   25.0583   45.3580 H   0  0  0  0  0  0  0  0  0  0  0  0
   59.8869   25.3681   47.0624 H   0  0  0  0  0  0  0  0  0  0  0  0
   59.1750   27.1040   45.9570 C   0  0  0  0  0  0  0  0  0  0  0  0
   59.2428   27.2940   44.8757 H   0  0  0  0  0  0  0  0  0  0  0  0
   60.0241   27.6333   46.4140 H   0  0  0  0  0  0  0  0  0  0  0  0
   57.8930   29.9950   45.9910 N   0  0  0  0  0  0  0  0  0  0  0  0
   57.4340   31.1050   45.3520 C   0  0  0  0  0  0  0  0  0  0  0  0
   58.0810   32.4210   45.5760 C   0  0  0  0  0  0  0  0  0  0  0  0
   57.9280   33.4610   44.6460 C   0  0  0  0  0  0  0  0  0  0  0  0
   57.3332   33.3030   43.7343 H   0  0  0  0  0  0  0  0  0  0  0  0
   58.5330   34.6960   44.8820 C   0  0  0  0  0  0  0  0  0  0  0  0
   58.4064   35.5159   44.1597 H   0  0  0  0  0  0  0  0  0  0  0  0
   59.2770   34.8880   46.0000 N   0  0  0  0  0  0  0  0  0  0  0  0
   59.4720   33.9080   46.9230 C   0  0  0  0  0  0  0  0  0  0  0  0
   60.1940   34.1820   47.9730 N   0  0  0  0  0  0  0  0  0  0  0  0
   61.5780   33.8630   48.1930 C   0  0  0  0  0  0  0  0  0  0  0  0
   62.1230   33.8390   49.4890 C   0  0  0  0  0  0  0  0  0  0  0  0
   61.4969   34.1078   50.3525 H   0  0  0  0  0  0  0  0  0  0  0  0
   63.4600   33.4740   49.6830 C   0  0  0  0  0  0  0  0  0  0  0  0
   63.8890   33.4752   50.6959 H   0  0  0  0  0  0  0  0  0  0  0  0
   64.2500   33.1080   48.5900 C   0  0  0  0  0  0  0  0  0  0  0  0
   65.3031   32.8291   48.7421 H   0  0  0  0  0  0  0  0  0  0  0  0
   63.7030   33.0960   47.3030 C   0  0  0  0  0  0  0  0  0  0  0  0
   64.3233   32.7996   46.4443 H   0  0  0  0  0  0  0  0  0  0  0  0
   62.3670   33.4610   47.1080 C   0  0  0  0  0  0  0  0  0  0  0  0
   61.9338   33.4322   46.0973 H   0  0  0  0  0  0  0  0  0  0  0  0
   58.8540   32.6530   46.7290 C   0  0  0  0  0  0  0  0  0  0  0  0
   58.9767   31.8574   47.4786 H   0  0  0  0  0  0  0  0  0  0  0  0
   56.3780   30.9930   44.5030 N   0  0  0  0  0  0  0  0  0  0  0  0
  1  2  1  0
  2  3  2  0
  3  4  1  0
  4  5  2  0
  5  6  1  0
  6  7  1  1
  6  8  1  0
  8  9  1  0
  8 10  1  0
 10 11  1  0
 10 12  1  0
 10 13  1  0
 13 14  1  0
 13 15  1  0
 13 16  1  0
 16 17  1  0
 16 18  1  0
  5 19  1  0
 19 20  2  0
 20 21  1  0
 21 22  1  0
 22 23  1  0
 22 24  2  0
 24 25  1  0
 24 26  1  0
 26 27  1  0
 27 28  2  0
 28 29  1  0
 29 30  2  0
 30 31  1  0
 30 32  1  0
 32 33  1  0
 32 34  2  0
 34 35  1  0
 34 36  1  0
 36 37  1  0
 36 38  2  0
 38 39  1  0
 27 40  1  0
 40 41  1  0
 20 42  1  0
 42  3  1  0
 16  6  1  0
 40 21  2  0
 38 29  1  0
M  CHG  2  26  -1  42  -1
M  END
>  <UniqueID>  (47) 
45

>  <SMILES>  (47) 
[H]/N=c1\nc([C@@H]2CCCN2)nc(-c2cc[n-]/c(=N/c3ccccc3)c2)[n-]1

>  <Energy>  (47) 
58.357197272591485

>  <Genealogy>  (47) 
N=c1nc(C2CCCN2)nc(-c2cc[n-]c(=Nc3ccccc3)c2)[n-]1 (protonated)
N=c1nc([C@@H]2CCCN2)nc(-c2cc[n-]c(=Nc3ccccc3)c2)[n-]1 (chirality)
[H]/N=c1\nc([C@@H]2CCCN2)nc(-c2cc[n-]/c(=N/c3ccccc3)c2)[n-]1 (cis-trans isomerization)
[H]/N=c1\nc([C@@H]2CCCN2)nc(-c2cc[n-]/c(=N/c3ccccc3)c2)[n-]1 (3D coordinates assigned)
[H]/N=c1\nc([C@@H]2CCCN2)nc(-c2cc[n-]/c(=N/c3ccccc3)c2)[n-]1 (nonaromatic ring conformer: 58.357197272591485 kcal/mol)

>  <smiles>  (47) 
N=c1nc(C2CCCN2)nc(-c2cc[nH]c(=Nc3ccccc3)c2)[nH]1

>  <score_type>  (47) 
oracle

>  <origin>  (47) 
adg

>  <m_score__min__energy>  (47) 
-11.359999999999999

>  <m_primary>  (47) 
energy

$$$$
47:0
     RDKit          3D

 53 55  0  0  0  0  0  0  0  0999 V2000
   58.7330   31.6800   40.7440 H   0  0  0  0  0  0  0  0  0  0  0  0
   58.1720   32.3580   41.3070 N   0  0  0  0  0  0  0  0  0  0  0  0
   58.1050   32.2750   42.5950 C   0  0  0  0  0  0  0  0  0  0  0  0
   57.6380   31.1400   43.1740 N   0  0  0  0  0  0  0  0  0  0  0  0
   57.5640   31.0130   44.5270 C   0  0  0  0  0  0  0  0  0  0  0  0
   57.0520   29.7570   45.1180 C   0  0  0  0  0  0  0  0  0  0  0  0
   55.8080   29.5740   45.2170 O   0  0  0  0  0  0  0  0  0  0  0  0
   57.9660   28.7610   45.6070 N   0  0  0  0  0  0  0  0  0  0  0  0
   58.9410   29.0570   45.8400 H   0  0  0  0  0  0  0  0  0  0  0  0
   57.5910   27.4050   45.9060 C   0  0  0  0  0  0  0  0  0  0  0  0
   56.2700   26.9900   45.6820 C   0  0  0  0  0  0  0  0  0  0  0  0
   55.5396   27.6969   45.2614 H   0  0  0  0  0  0  0  0  0  0  0  0
   55.8750   25.6860   45.9890 C   0  0  0  0  0  0  0  0  0  0  0  0
   54.8401   25.3680   45.7945 H   0  0  0  0  0  0  0  0  0  0  0  0
   56.7890   24.7810   46.5430 C   0  0  0  0  0  0  0  0  0  0  0  0
   56.2830   23.1390   46.9510 S   0  0  0  0  0  0  0  0  0  0  0  0
   55.0690   23.2020   47.8370 O   0  0  0  0  0  0  0  0  0  0  0  0
   57.3830   22.4580   47.7170 O   0  0  0  0  0  0  0  0  0  0  0  0
   55.9050   22.2040   45.5210 N   0  0  0  0  0  0  0  0  0  0  0  0
   57.1410   21.7030   44.8910 C   0  0  0  0  0  0  0  0  0  0  0  0
   57.9158   22.4820   44.9449 H   0  0  0  0  0  0  0  0  0  0  0  0
   57.4713   20.8004   45.4260 H   0  0  0  0  0  0  0  0  0  0  0  0
   56.8890   21.3420   43.4180 C   0  0  0  0  0  0  0  0  0  0  0  0
   57.8276   20.9594   42.9906 H   0  0  0  0  0  0  0  0  0  0  0  0
   56.0820   20.5945   43.4080 H   0  0  0  0  0  0  0  0  0  0  0  0
   56.4470   22.4340   42.6200 O   0  0  0  0  0  0  0  0  0  0  0  0
   55.8230   23.4720   43.3640 C   0  0  0  0  0  0  0  0  0  0  0  0
   56.6006   24.1672   43.7133 H   0  0  0  0  0  0  0  0  0  0  0  0
   55.0989   23.9616   42.6962 H   0  0  0  0  0  0  0  0  0  0  0  0
   55.0410   22.9590   44.5870 C   0  0  0  0  0  0  0  0  0  0  0  0
   54.6097   23.8197   45.1192 H   0  0  0  0  0  0  0  0  0  0  0  0
   54.2549   22.2791   44.2267 H   0  0  0  0  0  0  0  0  0  0  0  0
   58.1080   25.1940   46.7800 C   0  0  0  0  0  0  0  0  0  0  0  0
   58.8338   24.4875   47.2091 H   0  0  0  0  0  0  0  0  0  0  0  0
   58.5050   26.4980   46.4740 C   0  0  0  0  0  0  0  0  0  0  0  0
   59.5376   26.8176   46.6781 H   0  0  0  0  0  0  0  0  0  0  0  0
   57.9740   32.0810   45.3370 C   0  0  0  0  0  0  0  0  0  0  0  0
   57.9417   31.9957   46.4332 H   0  0  0  0  0  0  0  0  0  0  0  0
   58.4260   33.2600   44.7270 C   0  0  0  0  0  0  0  0  0  0  0  0
   58.8940   34.4240   45.5090 C   0  0  0  0  0  0  0  0  0  0  0  0
   59.2315   35.3087   44.9492 H   0  0  0  0  0  0  0  0  0  0  0  0
   58.9390   34.4850   46.8480 C   0  0  0  0  0  0  0  0  0  0  0  0
   58.3580   35.2697   47.3546 H   0  0  0  0  0  0  0  0  0  0  0  0
   59.7070   33.5780   47.6540 N   0  0  0  0  0  0  0  0  0  0  0  0
   58.9850   32.6770   48.5500 C   0  0  0  0  0  0  0  0  0  0  0  0
   59.2015   32.9471   49.5941 H   0  0  0  0  0  0  0  0  0  0  0  0
   57.9042   32.7645   48.3651 H   0  0  0  0  0  0  0  0  0  0  0  0
   59.3059   31.6412   48.3651 H   0  0  0  0  0  0  0  0  0  0  0  0
   61.0580   33.1950   47.2360 C   0  0  0  0  0  0  0  0  0  0  0  0
   61.6808   33.0185   48.1254 H   0  0  0  0  0  0  0  0  0  0  0  0
   61.0088   32.2754   46.6344 H   0  0  0  0  0  0  0  0  0  0  0  0
   61.4987   34.0036   46.6344 H   0  0  0  0  0  0  0  0  0  0  0  0
   58.5000   33.3200   43.3700 N   0  0  0  0  0  0  0  0  0  0  0  0
  1  2  1  0
  2  3  2  0
  3  4  1  0
  4  5  2  0
  5  6  1  0
  6  7  2  0
  6  8  1  0
  8  9  1  0
  8 10  1  0
 10 11  2  0
 11 12  1  0
 11 13  1  0
 13 14  1  0
 13 15  2  0
 15 16  1  0
 16 17  2  0
 16 18  2  0
 16 19  1  0
 19 20  1  0
 20 21  1  0
 20 22  1  0
 20 23  1  0
 23 24  1  0
 23 25  1  0
 23 26  1  0
 26 27  1  0
 27 28  1  0
 27 29  1  0
 27 30  1  0
 30 31  1  0
 30 32  1  0
 15 33  1  0
 33 34  1  0
 33 35  2  0
 35 36  1  0
  5 37  1  0
 37 38  1  0
 37 39  2  0
 39 40  1  0
 40 41  1  0
 40 42  2  3
 42 43  1  0
 42 44  1  0
 44 45  1  0
 45 46  1  0
 45 47  1  0
 45 48  1  0
 44 49  1  0
 49 50  1  0
 49 51  1  0
 49 52  1  0
 39 53  1  0
 53  3  1  0
 35 10  1  0
 30 19  1  0
M  CHG  1  53  -1
M  END
>  <UniqueID>  (48) 
46

>  <SMILES>  (48) 
[H]/N=c1/nc(C(=O)Nc2ccc(S(=O)(=O)N3CCOCC3)cc2)cc(C=CN(C)C)[n-]1

>  <Energy>  (48) 
75.7967465629465

>  <Genealogy>  (48) 
CN(C)C=Cc1cc(C(=O)Nc2ccc(S(=O)(=O)N3CCOCC3)cc2)nc(=N)[n-]1 (protonated)
[H]/N=c1/nc(C(=O)Nc2ccc(S(=O)(=O)N3CCOCC3)cc2)cc(C=CN(C)C)[n-]1 (cis-trans isomerization)
[H]/N=c1/nc(C(=O)Nc2ccc(S(=O)(=O)N3CCOCC3)cc2)cc(C=CN(C)C)[n-]1 (3D coordinates assigned)
[H]/N=c1/nc(C(=O)Nc2ccc(S(=O)(=O)N3CCOCC3)cc2)cc(C=CN(C)C)[n-]1 (nonaromatic ring conformer: 75.7967465629465 kcal/mol)

>  <smiles>  (48) 
CN(C)C=Cc1cc(C(=O)Nc2ccc(S(=O)(=O)N3CCOCC3)cc2)nc(=N)[nH]1

>  <score_type>  (48) 
oracle

>  <origin>  (48) 
adg

>  <m_score__min__energy>  (48) 
-9.7200000000000006

>  <m_primary>  (48) 
energy

$$$$
48:0
     RDKit          3D

 52 55  0  0  0  0  0  0  0  0999 V2000
   58.7300   30.6848   47.5761 H   0  0  0  0  0  0  0  0  0  0  0  0
   58.6220   29.6420   47.2430 C   0  0  0  0  0  0  0  0  0  0  0  0
   58.8436   28.8173   47.9364 H   0  0  0  0  0  0  0  0  0  0  0  0
   58.2200   29.3760   45.9910 C   0  0  0  0  0  0  0  0  0  0  0  0
   58.0310   28.1130   45.4060 C   0  0  0  0  0  0  0  0  0  0  0  0
   58.3660   26.8800   45.8320 C   0  0  0  0  0  0  0  0  0  0  0  0
   59.4249   26.5921   45.7559 H   0  0  0  0  0  0  0  0  0  0  0  0
   57.4360   25.8840   46.3910 C   0  0  0  0  0  0  0  0  0  0  0  0
   57.7950   24.6670   46.8380 N   0  0  0  0  0  0  0  0  0  0  0  0
   56.6110   24.0740   47.1080 C   0  0  0  0  0  0  0  0  0  0  0  0
   56.5290   22.9050   47.5710 O   0  0  0  0  0  0  0  0  0  0  0  0
   55.5240   24.8260   46.8330 N   0  0  0  0  0  0  0  0  0  0  0  0
   56.0660   25.9620   46.3660 C   0  0  0  0  0  0  0  0  0  0  0  0
   55.3210   27.0470   45.9200 O   0  0  0  0  0  0  0  0  0  0  0  0
   57.4080   28.3400   44.1880 C   0  0  0  0  0  0  0  0  0  0  0  0
   57.0662   27.5760   43.4743 H   0  0  0  0  0  0  0  0  0  0  0  0
   57.2990   29.7070   44.0430 C   0  0  0  0  0  0  0  0  0  0  0  0
   56.7090   30.4040   42.8550 C   0  0  0  0  0  0  0  0  0  0  0  0
   56.0334   31.2021   43.1963 H   0  0  0  0  0  0  0  0  0  0  0  0
   57.5158   30.8410   42.2483 H   0  0  0  0  0  0  0  0  0  0  0  0
   56.1447   29.6805   42.2483 H   0  0  0  0  0  0  0  0  0  0  0  0
   57.7990   30.3340   45.1280 N   0  0  0  0  0  0  0  0  0  0  0  0
   57.8060   31.7540   45.3380 C   0  0  0  0  0  0  0  0  0  0  0  0
   56.6460   32.5020   45.1010 C   0  0  0  0  0  0  0  0  0  0  0  0
   55.7271   31.9994   44.7649 H   0  0  0  0  0  0  0  0  0  0  0  0
   56.6550   33.8850   45.2910 C   0  0  0  0  0  0  0  0  0  0  0  0
   55.7452   34.4716   45.0955 H   0  0  0  0  0  0  0  0  0  0  0  0
   57.8170   34.5260   45.7290 C   0  0  0  0  0  0  0  0  0  0  0  0
   57.8198   35.6170   45.8695 H   0  0  0  0  0  0  0  0  0  0  0  0
   58.9820   33.7850   45.9910 C   0  0  0  0  0  0  0  0  0  0  0  0
   60.2000   34.4750   46.4720 C   0  0  0  0  0  0  0  0  0  0  0  0
   60.3020   35.7220   46.3140 O   0  0  0  0  0  0  0  0  0  0  0  0
   61.2710   33.7510   47.1070 N   0  0  0  0  0  0  0  0  0  0  0  0
   61.0910   33.2190   48.4650 C   0  0  0  0  0  0  0  0  0  0  0  0
   61.5375   33.9214   49.1842 H   0  0  0  0  0  0  0  0  0  0  0  0
   60.0123   33.1001   48.6444 H   0  0  0  0  0  0  0  0  0  0  0  0
   61.7580   31.8410   48.6350 C   0  0  0  0  0  0  0  0  0  0  0  0
   62.2629   31.8177   49.6120 H   0  0  0  0  0  0  0  0  0  0  0  0
   60.9616   31.0863   48.5562 H   0  0  0  0  0  0  0  0  0  0  0  0
   62.7940   31.5170   47.5450 C   0  0  0  0  0  0  0  0  0  0  0  0
   63.5058   30.7792   47.9437 H   0  0  0  0  0  0  0  0  0  0  0  0
   62.2492   31.1252   46.6734 H   0  0  0  0  0  0  0  0  0  0  0  0
   63.5760   32.7570   47.0860 C   0  0  2  0  0  0  0  0  0  0  0  0
   64.2406   32.4625   46.2604 H   0  0  0  0  0  0  0  0  0  0  0  0
   64.4220   33.2670   48.1700 N   0  0  0  0  0  0  0  0  0  0  0  0
   65.4300   33.1190   47.9410 H   0  0  0  0  0  0  0  0  0  0  0  0
   64.2230   32.7120   49.0340 H   0  0  0  0  0  0  0  0  0  0  0  0
   62.6230   33.8440   46.5330 C   0  0  0  0  0  0  0  0  0  0  0  0
   63.0403   34.8336   46.7709 H   0  0  0  0  0  0  0  0  0  0  0  0
   62.5369   33.6928   45.4469 H   0  0  0  0  0  0  0  0  0  0  0  0
   58.9750   32.3930   45.7730 C   0  0  0  0  0  0  0  0  0  0  0  0
   60.1020   31.6590   45.9540 F   0  0  0  0  0  0  0  0  0  0  0  0
  1  2  1  0
  2  3  1  0
  2  4  2  0
  4  5  1  0
  5  6  2  0
  6  7  1  0
  6  8  1  0
  8  9  1  0
  9 10  1  0
 10 11  2  0
 10 12  1  0
 12 13  1  0
 13 14  1  0
  5 15  1  0
 15 16  1  0
 15 17  2  0
 17 18  1  0
 18 19  1  0
 18 20  1  0
 18 21  1  0
 17 22  1  0
 22 23  1  0
 23 24  2  0
 24 25  1  0
 24 26  1  0
 26 27  1  0
 26 28  2  0
 28 29  1  0
 28 30  1  0
 30 31  1  0
 31 32  2  0
 31 33  1  0
 33 34  1  0
 34 35  1  0
 34 36  1  0
 34 37  1  0
 37 38  1  0
 37 39  1  0
 37 40  1  0
 40 41  1  0
 40 42  1  0
 40 43  1  0
 43 44  1  6
 43 45  1  0
 45 46  1  0
 45 47  1  0
 43 48  1  0
 48 49  1  0
 48 50  1  0
 30 51  2  0
 51 52  1  0
 22  4  1  0
 51 23  1  0
 13  8  2  0
 48 33  1  0
M  CHG  3   9  -1  12  -1  14  -1
M  END
>  <UniqueID>  (49) 
47

>  <SMILES>  (49) 
C=c1/c(=C\c2[n-]c(=O)[n-]c2[O-])cc(C)n1-c1cccc(C(=O)N2CCC[C@H](N)C2)c1F

>  <Energy>  (49) 
138.86184392111883

>  <Genealogy>  (49) 
C=c1c(=Cc2[n-]c(=O)[n-]c2[O-])cc(C)n1-c1cccc(C(=O)N2CCCC(N)C2)c1F (protonated)
C=c1c(=Cc2[n-]c(=O)[n-]c2[O-])cc(C)n1-c1cccc(C(=O)N2CCC[C@H](N)C2)c1F (chirality)
C=c1/c(=C\c2[n-]c(=O)[n-]c2[O-])cc(C)n1-c1cccc(C(=O)N2CCC[C@H](N)C2)c1F (cis-trans isomerization)
C=c1/c(=C\c2[n-]c(=O)[n-]c2[O-])cc(C)n1-c1cccc(C(=O)N2CCC[C@H](N)C2)c1F (3D coordinates assigned)
C=c1/c(=C\c2[n-]c(=O)[n-]c2[O-])cc(C)n1-c1cccc(C(=O)N2CCC[C@H](N)C2)c1F (nonaromatic ring conformer: 138.86184392111883 kcal/mol)

>  <smiles>  (49) 
C=c1c(=Cc2[nH]c(=O)[nH]c2O)cc(C)n1-c1cccc(C(=O)N2CCCC(N)C2)c1F

>  <score_type>  (49) 
oracle

>  <origin>  (49) 
adg

>  <m_score__min__energy>  (49) 
-17.059999999999999

>  <m_primary>  (49) 
energy

$$$$
49:0
     RDKit          3D

 38 40  0  0  0  0  0  0  0  0999 V2000
   51.0360   32.3240   50.3770 N   0  0  0  0  0  0  0  0  0  0  0  0
   51.9190   31.6040   51.2340 C   0  0  0  0  0  0  0  0  0  0  0  0
   51.8710   31.7840   52.4790 O   0  0  0  0  0  0  0  0  0  0  0  0
   52.8690   30.6040   50.6570 C   0  0  0  0  0  0  0  0  0  0  0  0
   53.9600   30.3090   51.6360 C   0  0  0  0  0  0  0  0  0  0  0  0
   53.9820   29.1620   52.4280 C   0  0  0  0  0  0  0  0  0  0  0  0
   55.3950   29.1920   53.3400 S   0  0  0  0  0  0  0  0  0  0  0  0
   55.9120   30.6480   52.6830 C   0  0  0  0  0  0  0  0  0  0  0  0
   57.4310   31.4780   53.1260 S   0  0  0  0  0  0  0  0  0  0  0  0
   58.2900   30.8390   51.6940 C   0  0  0  0  0  0  0  0  0  0  0  0
   59.2040   29.7940   51.6960 C   0  0  0  0  0  0  0  0  0  0  0  0
   59.7110   29.4880   50.4740 N   0  0  0  0  0  0  0  0  0  0  0  0
   59.1990   30.2870   49.5090 C   0  0  0  0  0  0  0  0  0  0  0  0
   59.5120   30.2110   48.2510 N   0  0  0  0  0  0  0  0  0  0  0  0
   58.6930   29.6710   47.1990 C   0  0  0  0  0  0  0  0  0  0  0  0
   57.9390   30.4260   46.5250 O   0  0  0  0  0  0  0  0  0  0  0  0
   58.7340   28.2200   46.9030 C   0  0  0  0  0  0  0  0  0  0  0  0
   59.9650   27.5470   46.7930 C   0  0  0  0  0  0  0  0  0  0  0  0
   60.0020   26.1800   46.5090 C   0  0  0  0  0  0  0  0  0  0  0  0
   58.8150   25.4660   46.3320 C   0  0  0  0  0  0  0  0  0  0  0  0
   57.5800   26.1170   46.4450 C   0  0  0  0  0  0  0  0  0  0  0  0
   56.0770   25.2310   46.2120 S   0  0  0  0  0  0  0  0  0  0  0  0
   54.7810   26.3470   45.9600 N   0  0  0  0  0  0  0  0  0  0  0  0
   55.7920   24.3930   47.4270 O   0  0  0  0  0  0  0  0  0  0  0  0
   56.1890   24.3260   45.0160 O   0  0  0  0  0  0  0  0  0  0  0  0
   57.5430   27.4900   46.7260 C   0  0  0  0  0  0  0  0  0  0  0  0
   58.1020   31.4050   50.1210 S   0  0  0  0  0  0  0  0  0  0  0  0
   55.0390   31.1270   51.7730 N   0  0  0  0  0  0  0  0  0  0  0  0
   50.0900   31.9480   50.1430 H   0  0  0  0  0  0  0  0  0  0  0  0
   52.3253   29.6758   50.4272 H   0  0  0  0  0  0  0  0  0  0  0  0
   53.3111   31.0155   49.7377 H   0  0  0  0  0  0  0  0  0  0  0  0
   53.2120   28.3768   52.4522 H   0  0  0  0  0  0  0  0  0  0  0  0
   59.4936   29.2581   52.6119 H   0  0  0  0  0  0  0  0  0  0  0  0
   60.9048   28.1015   46.9317 H   0  0  0  0  0  0  0  0  0  0  0  0
   60.9697   25.6639   46.4244 H   0  0  0  0  0  0  0  0  0  0  0  0
   58.8500   24.3906   46.1035 H   0  0  0  0  0  0  0  0  0  0  0  0
   54.8410   27.0600   46.7210 H   0  0  0  0  0  0  0  0  0  0  0  0
   56.5732   28.0025   46.8091 H   0  0  0  0  0  0  0  0  0  0  0  0
  1  2  1  0
  2  3  2  0
  2  4  1  0
  4  5  1  0
  5  6  2  0
  6  7  1  0
  7  8  1  0
  8  9  1  0
  9 10  1  0
 10 11  2  0
 11 12  1  0
 12 13  1  0
 13 14  2  3
 14 15  1  0
 15 16  2  0
 15 17  1  0
 17 18  2  0
 18 19  1  0
 19 20  2  0
 20 21  1  0
 21 22  1  0
 22 23  1  0
 22 24  2  0
 22 25  2  0
 21 26  2  0
 13 27  1  0
  8 28  2  0
 28  5  1  0
 27 10  1  0
 26 17  1  0
  1 29  1  0
  4 30  1  0
  4 31  1  0
  6 32  1  0
 11 33  1  0
 18 34  1  0
 19 35  1  0
 20 36  1  0
 23 37  1  0
 26 38  1  0
M  CHG  3   1  -1  12  -1  23  -1
M  END
>  <UniqueID>  (50) 
48

>  <SMILES>  (50) 
[NH-]C(=O)Cc1csc(Sc2c[n-]c(=NC(=O)c3cccc(S([NH-])(=O)=O)c3)s2)n1

>  <Energy>  (50) 
95.93329989492945

>  <Genealogy>  (50) 
[NH-]C(=O)Cc1csc(Sc2c[n-]c(=NC(=O)c3cccc(S([NH-])(=O)=O)c3)s2)n1 (protonated)
[NH-]C(=O)Cc1csc(Sc2c[n-]c(=NC(=O)c3cccc(S([NH-])(=O)=O)c3)s2)n1 (3D coordinates assigned)
[NH-]C(=O)Cc1csc(Sc2c[n-]c(=NC(=O)c3cccc(S([NH-])(=O)=O)c3)s2)n1 (optimized conformer: 95.93329989492945 kcal/mol)

>  <smiles>  (50) 
NC(=O)Cc1csc(Sc2c[nH]c(=NC(=O)c3cccc(S(N)(=O)=O)c3)s2)n1

>  <score_type>  (50) 
oracle

>  <origin>  (50) 
adg

>  <m_score__min__energy>  (50) 
-16.379999999999999

>  <m_primary>  (50) 
energy

$$$$
50:0
     RDKit          3D

 36 38  0  0  0  0  0  0  0  0999 V2000
   57.4000   27.1300   44.1420 O   0  0  0  0  0  0  0  0  0  0  0  0
   57.0540   27.9770   45.3380 S   0  0  0  0  0  0  0  0  0  0  0  0
   56.6130   27.0780   46.4570 O   0  0  0  0  0  0  0  0  0  0  0  0
   55.7580   29.0810   44.9560 N   0  0  0  0  0  0  0  0  0  0  0  0
   55.9070   29.7040   43.6310 C   0  0  0  0  0  0  0  0  0  0  0  0
   56.9300   30.8440   43.6580 C   0  0  0  0  0  0  0  0  0  0  0  0
   56.7820   31.6260   44.8820 N   0  0  0  0  0  0  0  0  0  0  0  0
   57.5160   32.6400   45.2470 C   0  0  0  0  0  0  0  0  0  0  0  0
   58.3990   33.1970   44.3130 C   0  0  0  0  0  0  0  0  0  0  0  0
   59.2460   34.2390   44.6940 C   0  0  0  0  0  0  0  0  0  0  0  0
   59.2050   34.7230   45.9630 N   0  0  0  0  0  0  0  0  0  0  0  0
   58.3460   34.2200   46.8870 C   0  0  0  0  0  0  0  0  0  0  0  0
   57.4800   33.1770   46.5490 C   0  0  0  0  0  0  0  0  0  0  0  0
   58.4740   28.8640   45.8600 C   0  0  0  0  0  0  0  0  0  0  0  0
   59.7210   28.8130   45.2560 C   0  0  0  0  0  0  0  0  0  0  0  0
   60.6320   29.7230   45.8030 C   0  0  0  0  0  0  0  0  0  0  0  0
   60.0960   30.4880   46.8340 C   0  0  0  0  0  0  0  0  0  0  0  0
   60.7680   31.6050   47.5120 C   0  0  0  0  0  0  0  0  0  0  0  0
   61.9830   32.1750   47.1420 C   0  0  0  0  0  0  0  0  0  0  0  0
   62.4130   33.1750   48.0230 C   0  0  0  0  0  0  0  0  0  0  0  0
   61.5450   33.3950   49.0840 C   0  0  0  0  0  0  0  0  0  0  0  0
   60.2460   32.3370   48.9360 S   0  0  0  0  0  0  0  0  0  0  0  0
   58.4970   30.0190   47.0800 S   0  0  0  0  0  0  0  0  0  0  0  0
   56.2413   28.9408   42.9128 H   0  0  0  0  0  0  0  0  0  0  0  0
   54.9333   30.1212   43.3345 H   0  0  0  0  0  0  0  0  0  0  0  0
   57.9451   30.4222   43.6169 H   0  0  0  0  0  0  0  0  0  0  0  0
   56.7599   31.4992   42.7909 H   0  0  0  0  0  0  0  0  0  0  0  0
   58.4248   32.8142   43.2821 H   0  0  0  0  0  0  0  0  0  0  0  0
   59.9484   34.6694   43.9651 H   0  0  0  0  0  0  0  0  0  0  0  0
   58.3320   34.6354   47.9054 H   0  0  0  0  0  0  0  0  0  0  0  0
   56.7755   32.7782   47.2937 H   0  0  0  0  0  0  0  0  0  0  0  0
   59.9685   28.1278   44.4318 H   0  0  0  0  0  0  0  0  0  0  0  0
   61.6698   29.8237   45.4525 H   0  0  0  0  0  0  0  0  0  0  0  0
   62.5479   31.8708   46.2485 H   0  0  0  0  0  0  0  0  0  0  0  0
   63.3507   33.7339   47.8871 H   0  0  0  0  0  0  0  0  0  0  0  0
   61.6834   34.1356   49.8855 H   0  0  0  0  0  0  0  0  0  0  0  0
  1  2  2  0
  2  3  2  0
  2  4  1  0
  4  5  1  0
  5  6  1  0
  6  7  1  0
  7  8  2  3
  8  9  1  0
  9 10  2  0
 10 11  1  0
 11 12  1  0
 12 13  2  0
  2 14  1  0
 14 15  2  0
 15 16  1  0
 16 17  2  0
 17 18  1  0
 18 19  2  0
 19 20  1  0
 20 21  2  0
 21 22  1  0
 17 23  1  0
 13  8  1  0
 23 14  1  0
 22 18  1  0
  5 24  1  0
  5 25  1  0
  6 26  1  0
  6 27  1  0
  9 28  1  0
 10 29  1  0
 12 30  1  0
 13 31  1  0
 15 32  1  0
 16 33  1  0
 19 34  1  0
 20 35  1  0
 21 36  1  0
M  CHG  2   4  -1  11  -1
M  END
>  <UniqueID>  (51) 
49

>  <SMILES>  (51) 
O=S(=O)([N-]CCN=c1cc[n-]cc1)c1ccc(-c2cccs2)s1

>  <Energy>  (51) 
87.3318861594875

>  <Genealogy>  (51) 
O=S(=O)([N-]CCN=c1cc[n-]cc1)c1ccc(-c2cccs2)s1 (protonated)
O=S(=O)([N-]CCN=c1cc[n-]cc1)c1ccc(-c2cccs2)s1 (3D coordinates assigned)
O=S(=O)([N-]CCN=c1cc[n-]cc1)c1ccc(-c2cccs2)s1 (optimized conformer: 87.3318861594875 kcal/mol)

>  <smiles>  (51) 
O=S(=O)(NCCN=c1cc[nH]cc1)c1ccc(-c2cccs2)s1

>  <score_type>  (51) 
oracle

>  <origin>  (51) 
adg

>  <m_score__min__energy>  (51) 
-10.77

>  <m_primary>  (51) 
energy

$$$$
51:0
     RDKit          3D

 43 45  0  0  0  0  0  0  0  0999 V2000
   56.9880   29.7280   43.1560 O   0  0  0  0  0  0  0  0  0  0  0  0
   56.9610   29.9830   44.3890 C   0  0  0  0  0  0  0  0  0  0  0  0
   56.4560   28.9810   45.2830 N   0  0  0  0  0  0  0  0  0  0  0  0
   56.9740   27.8200   45.5780 C   0  0  0  0  0  0  0  0  0  0  0  0
   58.3260   27.6870   45.4720 N   0  0  0  0  0  0  0  0  0  0  0  0
   58.9740   26.5290   45.7660 C   0  0  0  0  0  0  0  0  0  0  0  0
   58.2530   25.4160   46.1930 C   0  0  0  0  0  0  0  0  0  0  0  0
   56.8650   25.5000   46.2920 C   0  0  0  0  0  0  0  0  0  0  0  0
   56.2080   26.6910   45.9700 C   0  0  0  0  0  0  0  0  0  0  0  0
   54.8190   26.7090   46.0030 O   0  0  0  0  0  0  0  0  0  0  0  0
   57.5860   31.2300   44.9040 C   0  0  0  0  0  0  0  0  0  0  0  0
   57.3730   32.4330   44.2040 C   0  0  0  0  0  0  0  0  0  0  0  0
   57.9030   33.6350   44.6720 C   0  0  0  0  0  0  0  0  0  0  0  0
   58.6570   33.6570   45.8430 C   0  0  0  0  0  0  0  0  0  0  0  0
   58.8890   32.4760   46.5470 C   0  0  0  0  0  0  0  0  0  0  0  0
   58.3580   31.2530   46.0950 C   0  0  0  0  0  0  0  0  0  0  0  0
   58.6630   30.0390   46.8030 N   0  0  0  0  0  0  0  0  0  0  0  0
   59.4500   30.0310   48.3500 S   0  0  0  0  0  0  0  0  0  0  0  0
   58.5150   30.5850   49.3890 O   0  0  0  0  0  0  0  0  0  0  0  0
   59.8010   28.6170   48.7170 O   0  0  0  0  0  0  0  0  0  0  0  0
   60.8970   31.0430   48.2940 C   0  0  0  0  0  0  0  0  0  0  0  0
   61.7920   30.9220   47.2190 C   0  0  0  0  0  0  0  0  0  0  0  0
   62.9210   31.7390   47.1460 C   0  0  0  0  0  0  0  0  0  0  0  0
   63.1640   32.6840   48.1420 C   0  0  0  0  0  0  0  0  0  0  0  0
   62.2830   32.8130   49.2170 C   0  0  0  0  0  0  0  0  0  0  0  0
   61.1400   31.9910   49.3070 C   0  0  0  0  0  0  0  0  0  0  0  0
   60.2320   32.0880   50.3760 O   0  0  0  0  0  0  0  0  0  0  0  0
   59.3710   33.1950   50.6320 C   0  0  0  0  0  0  0  0  0  0  0  0
   59.2670   33.9910   49.5060 F   0  0  0  0  0  0  0  0  0  0  0  0
   58.1190   32.7460   51.0110 F   0  0  0  0  0  0  0  0  0  0  0  0
   59.9030   33.9500   51.6590 F   0  0  0  0  0  0  0  0  0  0  0  0
   60.0680   26.4706   45.6668 H   0  0  0  0  0  0  0  0  0  0  0  0
   58.7732   24.4813   46.4492 H   0  0  0  0  0  0  0  0  0  0  0  0
   56.2851   24.6264   46.6245 H   0  0  0  0  0  0  0  0  0  0  0  0
   56.7813   32.4246   43.2767 H   0  0  0  0  0  0  0  0  0  0  0  0
   57.7254   34.5671   44.1156 H   0  0  0  0  0  0  0  0  0  0  0  0
   59.0699   34.6072   46.2128 H   0  0  0  0  0  0  0  0  0  0  0  0
   59.4936   32.5002   47.4657 H   0  0  0  0  0  0  0  0  0  0  0  0
   58.3690   29.1180   46.4110 H   0  0  0  0  0  0  0  0  0  0  0  0
   61.6023   30.1793   46.4301 H   0  0  0  0  0  0  0  0  0  0  0  0
   63.6195   31.6374   46.3023 H   0  0  0  0  0  0  0  0  0  0  0  0
   64.0524   33.3297   48.0804 H   0  0  0  0  0  0  0  0  0  0  0  0
   62.4813   33.5606   49.9992 H   0  0  0  0  0  0  0  0  0  0  0  0
  1  2  2  0
  2  3  1  0
  3  4  2  3
  4  5  1  0
  5  6  1  0
  6  7  2  0
  7  8  1  0
  8  9  2  0
  9 10  1  0
  2 11  1  0
 11 12  2  0
 12 13  1  0
 13 14  2  0
 14 15  1  0
 15 16  2  0
 16 17  1  0
 17 18  1  0
 18 19  2  0
 18 20  2  0
 18 21  1  0
 21 22  2  0
 22 23  1  0
 23 24  2  0
 24 25  1  0
 25 26  2  0
 26 27  1  0
 27 28  1  0
 28 29  1  0
 28 30  1  0
 28 31  1  0
  9  4  1  0
 16 11  1  0
 26 21  1  0
  6 32  1  0
  7 33  1  0
  8 34  1  0
 12 35  1  0
 13 36  1  0
 14 37  1  0
 15 38  1  0
 17 39  1  0
 22 40  1  0
 23 41  1  0
 24 42  1  0
 25 43  1  0
M  CHG  2   5  -1  10  -1
M  END
>  <UniqueID>  (52) 
50

>  <SMILES>  (52) 
O=C(N=c1[n-]cccc1[O-])c1ccccc1NS(=O)(=O)c1ccccc1OC(F)(F)F

>  <Energy>  (52) 
66.91176370368666

>  <Genealogy>  (52) 
O=C(N=c1[n-]cccc1[O-])c1ccccc1NS(=O)(=O)c1ccccc1OC(F)(F)F (protonated)
O=C(N=c1[n-]cccc1[O-])c1ccccc1NS(=O)(=O)c1ccccc1OC(F)(F)F (3D coordinates assigned)
O=C(N=c1[n-]cccc1[O-])c1ccccc1NS(=O)(=O)c1ccccc1OC(F)(F)F (optimized conformer: 66.91176370368666 kcal/mol)

>  <smiles>  (52) 
O=C(N=c1[nH]cccc1O)c1ccccc1NS(=O)(=O)c1ccccc1OC(F)(F)F

>  <score_type>  (52) 
oracle

>  <origin>  (52) 
adg

>  <m_score__min__energy>  (52) 
-14.119999999999999

>  <m_primary>  (52) 
energy

$$$$
52:0
     RDKit          3D

 51 53  0  0  0  0  0  0  0  0999 V2000
   59.2560   34.0640   44.5430 C   0  0  0  0  0  0  0  0  0  0  0  0
   58.7200   34.5870   45.8760 C   0  0  0  0  0  0  0  0  0  0  0  0
   59.8720   34.8770   46.8430 C   0  0  0  0  0  0  0  0  0  0  0  0
   57.8320   33.6120   46.4260 O   0  0  0  0  0  0  0  0  0  0  0  0
   58.1920   32.2700   46.5870 C   0  0  0  0  0  0  0  0  0  0  0  0
   59.0320   31.9020   47.6450 C   0  0  0  0  0  0  0  0  0  0  0  0
   59.4060   30.5700   47.8220 C   0  0  0  0  0  0  0  0  0  0  0  0
   58.9630   29.5840   46.9280 C   0  0  0  0  0  0  0  0  0  0  0  0
   59.3360   28.1670   47.1270 C   0  0  0  0  0  0  0  0  0  0  0  0
   60.2230   27.8750   47.9760 O   0  0  0  0  0  0  0  0  0  0  0  0
   58.7070   27.1160   46.3720 N   0  0  0  0  0  0  0  0  0  0  0  0
   57.2390   27.0810   46.2590 C   0  0  0  0  0  0  0  0  0  0  0  0
   56.7610   25.7820   45.6030 C   0  0  0  0  0  0  0  0  0  0  0  0
   57.4670   24.6370   46.1970 N   0  0  0  0  0  0  0  0  0  0  0  0
   56.7630   23.4370   46.5740 C   0  0  0  0  0  0  0  0  0  0  0  0
   55.5020   23.1370   46.0390 C   0  0  0  0  0  0  0  0  0  0  0  0
   54.8610   21.9680   46.4530 C   0  0  0  0  0  0  0  0  0  0  0  0
   53.7290   21.6690   45.9910 O   0  0  0  0  0  0  0  0  0  0  0  0
   55.4570   21.1530   47.3610 N   0  0  0  0  0  0  0  0  0  0  0  0
   56.6730   21.4610   47.8810 C   0  0  0  0  0  0  0  0  0  0  0  0
   57.2100   20.6950   48.7220 O   0  0  0  0  0  0  0  0  0  0  0  0
   57.3110   22.5950   47.4930 N   0  0  0  0  0  0  0  0  0  0  0  0
   58.9340   24.6660   46.3110 C   0  0  0  0  0  0  0  0  0  0  0  0
   59.5130   26.0070   45.8450 C   0  0  0  0  0  0  0  0  0  0  0  0
   58.1250   29.9510   45.8620 C   0  0  0  0  0  0  0  0  0  0  0  0
   57.7440   31.2920   45.6750 C   0  0  0  0  0  0  0  0  0  0  0  0
   56.8580   31.6500   44.5060 C   0  0  0  0  0  0  0  0  0  0  0  0
   56.1190   30.4440   44.0180 C   0  0  0  0  0  0  0  0  0  0  0  0
   56.2570   30.0520   42.8290 O   0  0  0  0  0  0  0  0  0  0  0  0
   55.2440   29.7740   44.8660 O   0  0  0  0  0  0  0  0  0  0  0  0
   60.0317   33.3071   44.7313 H   0  0  0  0  0  0  0  0  0  0  0  0
   58.4337   33.6115   43.9693 H   0  0  0  0  0  0  0  0  0  0  0  0
   59.6882   34.8971   43.9693 H   0  0  0  0  0  0  0  0  0  0  0  0
   58.1769   35.5296   45.7130 H   0  0  0  0  0  0  0  0  0  0  0  0
   59.5129   34.7866   47.8788 H   0  0  0  0  0  0  0  0  0  0  0  0
   60.6845   34.1554   46.6723 H   0  0  0  0  0  0  0  0  0  0  0  0
   60.2460   35.8973   46.6723 H   0  0  0  0  0  0  0  0  0  0  0  0
   59.3998   32.6693   48.3420 H   0  0  0  0  0  0  0  0  0  0  0  0
   60.0520   30.2911   48.6675 H   0  0  0  0  0  0  0  0  0  0  0  0
   56.8005   27.1566   47.2650 H   0  0  0  0  0  0  0  0  0  0  0  0
   56.9194   27.9250   45.6301 H   0  0  0  0  0  0  0  0  0  0  0  0
   55.6789   25.6678   45.7642 H   0  0  0  0  0  0  0  0  0  0  0  0
   56.9722   25.8199   44.5241 H   0  0  0  0  0  0  0  0  0  0  0  0
   55.0278   23.8088   45.3084 H   0  0  0  0  0  0  0  0  0  0  0  0
   59.2130   24.5034   47.3625 H   0  0  0  0  0  0  0  0  0  0  0  0
   59.3435   23.8736   45.6672 H   0  0  0  0  0  0  0  0  0  0  0  0
   60.5464   26.1032   46.2094 H   0  0  0  0  0  0  0  0  0  0  0  0
   59.4986   26.0425   44.7457 H   0  0  0  0  0  0  0  0  0  0  0  0
   57.7625   29.1807   45.1654 H   0  0  0  0  0  0  0  0  0  0  0  0
   56.1334   32.4148   44.8222 H   0  0  0  0  0  0  0  0  0  0  0  0
   57.4860   32.0361   43.6896 H   0  0  0  0  0  0  0  0  0  0  0  0
  1  2  1  0
  2  3  1  0
  2  4  1  0
  4  5  1  0
  5  6  2  0
  6  7  1  0
  7  8  2  0
  8  9  1  0
  9 10  2  0
  9 11  1  0
 11 12  1  0
 12 13  1  0
 13 14  1  0
 14 15  1  0
 15 16  2  0
 16 17  1  0
 17 18  2  0
 17 19  1  0
 19 20  1  0
 20 21  2  0
 20 22  1  0
 14 23  1  0
 23 24  1  0
  8 25  1  0
 25 26  2  0
 26 27  1  0
 27 28  1  0
 28 29  2  0
 28 30  1  0
 26  5  1  0
 24 11  1  0
 22 15  1  0
  1 31  1  0
  1 32  1  0
  1 33  1  0
  2 34  1  0
  3 35  1  0
  3 36  1  0
  3 37  1  0
  6 38  1  0
  7 39  1  0
 12 40  1  0
 12 41  1  0
 13 42  1  0
 13 43  1  0
 16 44  1  0
 23 45  1  0
 23 46  1  0
 24 47  1  0
 24 48  1  0
 25 49  1  0
 27 50  1  0
 27 51  1  0
M  CHG  3  19  -1  22  -1  30  -1
M  END
>  <UniqueID>  (53) 
51

>  <SMILES>  (53) 
CC(C)Oc1ccc(C(=O)N2CCN(c3cc(=O)[n-]c(=O)[n-]3)CC2)cc1CC(=O)[O-]

>  <Energy>  (53) 
63.720692842438616

>  <Genealogy>  (53) 
CC(C)Oc1ccc(C(=O)N2CCN(c3cc(=O)[n-]c(=O)[n-]3)CC2)cc1CC(=O)[O-] (protonated)
CC(C)Oc1ccc(C(=O)N2CCN(c3cc(=O)[n-]c(=O)[n-]3)CC2)cc1CC(=O)[O-] (3D coordinates assigned)
CC(C)Oc1ccc(C(=O)N2CCN(c3cc(=O)[n-]c(=O)[n-]3)CC2)cc1CC(=O)[O-] (nonaromatic ring conformer: 63.720692842438616 kcal/mol)

>  <smiles>  (53) 
CC(C)Oc1ccc(C(=O)N2CCN(c3cc(=O)[nH]c(=O)[nH]3)CC2)cc1CC(=O)O

>  <score_type>  (53) 
oracle

>  <origin>  (53) 
adg

>  <m_score__min__energy>  (53) 
-12.58

>  <m_primary>  (53) 
energy

$$$$
53:0
     RDKit          3D

 44 46  0  0  1  0  0  0  0  0999 V2000
   67.0770   31.2280   51.2810 O   0  0  0  0  0  0  0  0  0  0  0  0
   66.4150   32.1760   50.7870 C   0  0  0  0  0  0  0  0  0  0  0  0
   66.8340   32.7370   49.6120 O   0  0  0  0  0  0  0  0  0  0  0  0
   65.1960   32.7000   51.4440 C   0  0  0  0  0  0  0  0  0  0  0  0
   64.4730   33.6190   50.5710 N   0  0  0  0  0  0  0  0  0  0  0  0
   63.9690   33.2380   49.4460 C   0  0  0  0  0  0  0  0  0  0  0  0
   63.0760   32.1660   49.5030 C   0  0  0  0  0  0  0  0  0  0  0  0
   62.5080   31.7240   48.3100 C   0  0  0  0  0  0  0  0  0  0  0  0
   61.6070   30.6320   48.4160 N   0  0  0  0  0  0  0  0  0  0  0  0
   61.4950   29.8570   49.5070 C   0  0  0  0  0  0  0  0  0  0  0  0
   60.5360   28.9050   49.2650 C   0  0  0  0  0  0  0  0  0  0  0  0
   60.0590   29.1060   48.0060 C   0  0  0  0  0  0  0  0  0  0  0  0
   59.0370   28.3700   47.2780 C   0  0  0  0  0  0  0  0  0  0  0  0
   58.2480   28.9200   46.4610 O   0  0  0  0  0  0  0  0  0  0  0  0
   58.9420   26.9720   47.5120 N   0  0  0  0  0  0  0  0  0  0  0  0
   57.9340   26.2580   46.7920 C   0  0  0  0  0  0  0  0  0  0  0  0
   58.3610   25.1210   46.1240 C   0  0  0  0  0  0  0  0  0  0  0  0
   57.4930   24.3320   45.3880 C   0  0  0  0  0  0  0  0  0  0  0  0
   56.1740   24.7360   45.3500 C   0  0  0  0  0  0  0  0  0  0  0  0
   55.2120   23.9440   44.5890 C   0  0  0  0  0  0  0  0  0  0  0  0
   55.6090   23.1300   43.7150 O   0  0  0  0  0  0  0  0  0  0  0  0
   53.8450   24.0770   44.8150 O   0  0  0  0  0  0  0  0  0  0  0  0
   55.7440   25.8630   46.0100 C   0  0  0  0  0  0  0  0  0  0  0  0
   54.4140   26.2600   45.9650 O   0  0  0  0  0  0  0  0  0  0  0  0
   56.6160   26.6630   46.7560 C   0  0  0  0  0  0  0  0  0  0  0  0
   60.7310   30.1830   47.4840 C   0  0  0  0  0  0  0  0  0  0  0  0
   62.8190   32.3220   47.1460 N   0  0  0  0  0  0  0  0  0  0  0  0
   63.6930   33.3670   47.1010 C   0  0  0  0  0  0  0  0  0  0  0  0
   64.2520   33.8050   48.2670 N   0  0  0  0  0  0  0  0  0  0  0  0
   66.2050   33.1410   48.9070 H   0  0  0  0  0  0  0  0  0  0  0  0
   64.5373   31.8571   51.7003 H   0  0  0  0  0  0  0  0  0  0  0  0
   65.4989   33.2481   52.3483 H   0  0  0  0  0  0  0  0  0  0  0  0
   62.8285   31.6850   50.4608 H   0  0  0  0  0  0  0  0  0  0  0  0
   62.0732   29.9664   50.4363 H   0  0  0  0  0  0  0  0  0  0  0  0
   60.2111   28.1200   49.9637 H   0  0  0  0  0  0  0  0  0  0  0  0
   59.5870   26.5070   48.1830 H   0  0  0  0  0  0  0  0  0  0  0  0
   59.4221   24.8367   46.1803 H   0  0  0  0  0  0  0  0  0  0  0  0
   57.8371   23.4299   44.8609 H   0  0  0  0  0  0  0  0  0  0  0  0
   53.3410   24.9420   44.6330 H   0  0  0  0  0  0  0  0  0  0  0  0
   53.7540   25.5930   46.3680 H   0  0  0  0  0  0  0  0  0  0  0  0
   56.2702   27.5639   47.2839 H   0  0  0  0  0  0  0  0  0  0  0  0
   60.5838   30.6091   46.4806 H   0  0  0  0  0  0  0  0  0  0  0  0
   62.3850   31.9780   46.2600 H   0  0  0  0  0  0  0  0  0  0  0  0
   63.9431   33.8480   46.1439 H   0  0  0  0  0  0  0  0  0  0  0  0
  1  2  2  0
  2  3  1  0
  2  4  1  0
  4  5  1  0
  5  6  2  0
  6  7  1  0
  7  8  2  0
  8  9  1  0
  9 10  1  0
 10 11  2  0
 11 12  1  0
 12 13  1  0
 13 14  2  0
 13 15  1  0
 15 16  1  0
 16 17  2  0
 17 18  1  0
 18 19  2  0
 19 20  1  0
 20 21  2  0
 20 22  1  0
 19 23  1  0
 23 24  1  0
 23 25  2  0
 12 26  2  0
  8 27  1  0
 27 28  1  0
 28 29  2  0
 29  6  1  0
 26  9  1  0
 25 16  1  0
  3 30  1  0
  4 31  1  0
  4 32  1  0
  7 33  1  0
 10 34  1  0
 11 35  1  0
 15 36  1  0
 17 37  1  0
 18 38  1  0
 22 39  1  0
 24 40  1  0
 25 41  1  0
 26 42  1  0
 27 43  1  0
 28 44  1  0
M  END
>  <smiles>  (54) 
O=C(O)CN=c1cc(-n2ccc(C(=O)Nc3ccc(C(=O)O)c(O)c3)c2)[nH]cn1

>  <score_type>  (54) 
oracle

>  <origin>  (54) 
adg

>  <m_score__min__energy>  (54) 
-7.2800000000000002

>  <m_primary>  (54) 
energy

$$$$
54:0
     RDKit          3D

 62 65  0  0  0  0  0  0  0  0999 V2000
   57.2810   33.7700   45.5180 C   0  0  0  0  0  0  0  0  0  0  0  0
   57.9240   32.7690   44.7790 O   0  0  0  0  0  0  0  0  0  0  0  0
   57.6970   31.4160   44.9030 C   0  0  0  0  0  0  0  0  0  0  0  0
   56.5240   30.9220   44.3590 C   0  0  0  0  0  0  0  0  0  0  0  0
   56.2960   29.5670   44.4820 C   0  0  0  0  0  0  0  0  0  0  0  0
   57.1600   28.7060   45.1070 C   0  0  0  0  0  0  0  0  0  0  0  0
   56.9730   27.2840   45.2610 C   0  0  0  0  0  0  0  0  0  0  0  0
   57.6730   26.4370   44.6330 O   0  0  0  0  0  0  0  0  0  0  0  0
   55.9780   26.7010   46.1380 N   0  0  0  0  0  0  0  0  0  0  0  0
   55.8120   25.5110   46.2740 O   0  0  0  0  0  0  0  0  0  0  0  0
   55.6620   24.2870   46.4050 C   0  0  0  0  0  0  0  0  0  0  0  0
   56.1150   23.3600   45.3050 C   0  0  0  0  0  0  0  0  0  0  0  0
   55.8230   23.6180   43.9790 C   0  0  0  0  0  0  0  0  0  0  0  0
   56.2520   22.7480   43.0190 C   0  0  0  0  0  0  0  0  0  0  0  0
   56.9730   21.6080   43.2910 C   0  0  0  0  0  0  0  0  0  0  0  0
   57.2690   21.3410   44.6030 C   0  0  0  0  0  0  0  0  0  0  0  0
   56.8380   22.2150   45.5780 C   0  0  0  0  0  0  0  0  0  0  0  0
   58.3190   29.2590   45.6330 C   0  0  0  0  0  0  0  0  0  0  0  0
   58.6140   30.5840   45.5510 C   0  0  0  0  0  0  0  0  0  0  0  0
   59.8820   31.1540   46.1310 C   0  0  0  0  0  0  0  0  0  0  0  0
   59.6240   31.8490   47.4030 C   0  0  0  0  0  0  0  0  0  0  0  0
   58.9810   31.2370   48.4110 N   0  0  0  0  0  0  0  0  0  0  0  0
   58.7100   31.8000   49.5910 C   0  0  0  0  0  0  0  0  0  0  0  0
   58.0170   31.1000   50.6420 N   0  0  0  0  0  0  0  0  0  0  0  0
   58.3760   29.7150   50.8880 C   0  0  0  0  0  0  0  0  0  0  0  0
   58.0850   29.4770   52.3690 C   0  0  0  0  0  0  0  0  0  0  0  0
   56.6910   29.6980   52.4810 O   0  0  0  0  0  0  0  0  0  0  0  0
   56.4920   31.0580   52.5510 C   0  0  0  0  0  0  0  0  0  0  0  0
   57.0240   31.8280   51.3640 C   0  0  0  0  0  0  0  0  0  0  0  0
   59.1240   33.0820   49.7600 N   0  0  0  0  0  0  0  0  0  0  0  0
   59.7680   33.7410   48.7900 C   0  0  0  0  0  0  0  0  0  0  0  0
   60.1490   34.9480   48.9710 O   0  0  0  0  0  0  0  0  0  0  0  0
   60.0430   33.1520   47.5790 C   0  0  0  0  0  0  0  0  0  0  0  0
   60.7560   33.9170   46.5440 C   0  0  0  0  0  0  0  0  0  0  0  0
   57.4084   33.5716   46.5924 H   0  0  0  0  0  0  0  0  0  0  0  0
   57.7205   34.7477   45.2710 H   0  0  0  0  0  0  0  0  0  0  0  0
   56.2091   33.7769   45.2710 H   0  0  0  0  0  0  0  0  0  0  0  0
   55.8049   31.5812   43.8507 H   0  0  0  0  0  0  0  0  0  0  0  0
   55.3698   29.1549   44.0550 H   0  0  0  0  0  0  0  0  0  0  0  0
   55.4090   27.4600   46.6500 H   0  0  0  0  0  0  0  0  0  0  0  0
   56.2065   23.9938   47.3147 H   0  0  0  0  0  0  0  0  0  0  0  0
   54.5693   24.1609   46.4146 H   0  0  0  0  0  0  0  0  0  0  0  0
   55.2508   24.5152   43.7003 H   0  0  0  0  0  0  0  0  0  0  0  0
   56.0079   22.9704   41.9697 H   0  0  0  0  0  0  0  0  0  0  0  0
   57.3002   20.9350   42.4848 H   0  0  0  0  0  0  0  0  0  0  0  0
   57.8423   20.4421   44.8737 H   0  0  0  0  0  0  0  0  0  0  0  0
   57.0822   21.9892   46.6265 H   0  0  0  0  0  0  0  0  0  0  0  0
   59.0332   28.5938   46.1405 H   0  0  0  0  0  0  0  0  0  0  0  0
   60.5945   30.3350   46.3084 H   0  0  0  0  0  0  0  0  0  0  0  0
   60.2944   31.8810   45.4159 H   0  0  0  0  0  0  0  0  0  0  0  0
   58.6820   30.2390   48.2220 H   0  0  0  0  0  0  0  0  0  0  0  0
   57.7685   29.0433   50.2637 H   0  0  0  0  0  0  0  0  0  0  0  0
   59.4292   29.5154   50.6409 H   0  0  0  0  0  0  0  0  0  0  0  0
   58.3427   28.4474   52.6581 H   0  0  0  0  0  0  0  0  0  0  0  0
   58.6731   30.1326   53.0280 H   0  0  0  0  0  0  0  0  0  0  0  0
   55.4104   31.2442   52.6254 H   0  0  0  0  0  0  0  0  0  0  0  0
   57.0492   31.4123   53.4308 H   0  0  0  0  0  0  0  0  0  0  0  0
   56.1879   32.0525   50.6854 H   0  0  0  0  0  0  0  0  0  0  0  0
   57.4934   32.7472   51.7444 H   0  0  0  0  0  0  0  0  0  0  0  0
   61.4311   34.6413   47.0232 H   0  0  0  0  0  0  0  0  0  0  0  0
   61.3420   33.2284   45.9175 H   0  0  0  0  0  0  0  0  0  0  0  0
   60.0280   34.4532   45.9175 H   0  0  0  0  0  0  0  0  0  0  0  0
  1  2  1  0
  2  3  1  0
  3  4  2  0
  4  5  1  0
  5  6  2  0
  6  7  1  0
  7  8  2  0
  7  9  1  0
  9 10  1  0
 10 11  1  0
 11 12  1  0
 12 13  2  0
 13 14  1  0
 14 15  2  0
 15 16  1  0
 16 17  2  0
  6 18  1  0
 18 19  2  0
 19 20  1  0
 20 21  1  0
 21 22  1  0
 22 23  1  0
 23 24  1  0
 24 25  1  0
 25 26  1  0
 26 27  1  0
 27 28  1  0
 28 29  1  0
 23 30  2  0
 30 31  1  0
 31 32  2  0
 31 33  1  0
 33 34  1  0
 19  3  1  0
 33 21  2  0
 17 12  1  0
 29 24  1  0
  1 35  1  0
  1 36  1  0
  1 37  1  0
  4 38  1  0
  5 39  1  0
  9 40  1  0
 11 41  1  0
 11 42  1  0
 13 43  1  0
 14 44  1  0
 15 45  1  0
 16 46  1  0
 17 47  1  0
 18 48  1  0
 20 49  1  0
 20 50  1  0
 22 51  1  0
 25 52  1  0
 25 53  1  0
 26 54  1  0
 26 55  1  0
 28 56  1  0
 28 57  1  0
 29 58  1  0
 29 59  1  0
 34 60  1  0
 34 61  1  0
 34 62  1  0
M  END
>  <smiles>  (55) 
COc1ccc(C(=O)NOCc2ccccc2)cc1Cc1[nH]c(N2CCOCC2)nc(=O)c1C

>  <score_type>  (55) 
oracle

>  <origin>  (55) 
adg

>  <m_score__min__energy>  (55) 
-8.9600000000000009

>  <m_primary>  (55) 
energy

$$$$
55:0
     RDKit          3D

 30 32  0  0  0  0  0  0  0  0999 V2000
   58.8140   32.2220   48.1020 O   0  0  0  0  0  0  0  0  0  0  0  0
   59.5480   33.1930   47.7120 C   0  0  0  0  0  0  0  0  0  0  0  0
   58.8480   34.3590   47.1580 C   0  0  0  0  0  0  0  0  0  0  0  0
   59.0980   34.5740   45.3840 S   0  0  0  0  0  0  0  0  0  0  0  0
   58.3520   33.1540   44.5720 C   0  0  0  0  0  0  0  0  0  0  0  0
   58.3750   33.0930   43.2060 N   0  0  0  0  0  0  0  0  0  0  0  0
   57.8340   32.0540   42.5500 C   0  0  0  0  0  0  0  0  0  0  0  0
   57.8380   31.9700   41.2970 O   0  0  0  0  0  0  0  0  0  0  0  0
   57.2390   31.0170   43.2720 C   0  0  0  0  0  0  0  0  0  0  0  0
   56.6110   29.8400   42.9230 C   0  0  0  0  0  0  0  0  0  0  0  0
   56.2450   29.2540   44.0880 N   0  0  0  0  0  0  0  0  0  0  0  0
   56.6180   30.0140   45.1070 N   0  0  0  0  0  0  0  0  0  0  0  0
   57.2400   31.1200   44.6600 C   0  0  0  0  0  0  0  0  0  0  0  0
   57.7890   32.1740   45.2990 N   0  0  0  0  0  0  0  0  0  0  0  0
   60.9910   33.0670   47.8460 C   0  0  0  0  0  0  0  0  0  0  0  0
   61.6410   32.0480   47.1520 C   0  0  0  0  0  0  0  0  0  0  0  0
   63.0030   31.8580   47.2140 C   0  0  0  0  0  0  0  0  0  0  0  0
   63.7790   32.6840   47.9760 C   0  0  0  0  0  0  0  0  0  0  0  0
   63.1470   33.6960   48.6660 C   0  0  0  0  0  0  0  0  0  0  0  0
   61.7710   33.8970   48.6110 C   0  0  0  0  0  0  0  0  0  0  0  0
   61.2120   34.9020   49.3150 F   0  0  0  0  0  0  0  0  0  0  0  0
   57.7707   34.2397   47.3457 H   0  0  0  0  0  0  0  0  0  0  0  0
   59.2621   35.2498   47.6530 H   0  0  0  0  0  0  0  0  0  0  0  0
   56.4419   29.4556   41.9063 H   0  0  0  0  0  0  0  0  0  0  0  0
   55.7450   28.3380   44.1210 H   0  0  0  0  0  0  0  0  0  0  0  0
   57.7730   32.2220   46.3420 H   0  0  0  0  0  0  0  0  0  0  0  0
   61.0412   31.3679   46.5293 H   0  0  0  0  0  0  0  0  0  0  0  0
   63.4681   31.0377   46.6476 H   0  0  0  0  0  0  0  0  0  0  0  0
   64.8687   32.5466   48.0369 H   0  0  0  0  0  0  0  0  0  0  0  0
   63.7548   34.3721   49.2852 H   0  0  0  0  0  0  0  0  0  0  0  0
  1  2  2  0
  2  3  1  0
  3  4  1  0
  4  5  1  0
  5  6  2  0
  6  7  1  0
  7  8  2  0
  7  9  1  0
  9 10  2  0
 10 11  1  0
 11 12  1  0
 12 13  2  0
 13 14  1  0
  2 15  1  0
 15 16  2  0
 16 17  1  0
 17 18  2  0
 18 19  1  0
 19 20  2  0
 20 21  1  0
 14  5  1  0
 20 15  1  0
 13  9  1  0
  3 22  1  0
  3 23  1  0
 10 24  1  0
 11 25  1  0
 14 26  1  0
 16 27  1  0
 17 28  1  0
 18 29  1  0
 19 30  1  0
M  END
>  <smiles>  (56) 
O=C(CSc1nc(=O)c2c[nH]nc2[nH]1)c1ccccc1F

>  <score_type>  (56) 
oracle

>  <origin>  (56) 
adg

>  <m_score__min__energy>  (56) 
-7.6399999999999997

>  <m_primary>  (56) 
energy

$$$$
56:0
     RDKit          3D

 51 53  0  0  0  0  0  0  0  0999 V2000
   55.1750   30.4100   52.2410 C   0  0  0  0  0  0  0  0  0  0  0  0
   56.5050   30.0140   51.9190 O   0  0  0  0  0  0  0  0  0  0  0  0
   57.5440   30.9050   51.6090 C   0  0  0  0  0  0  0  0  0  0  0  0
   57.5030   32.2600   51.9800 C   0  0  0  0  0  0  0  0  0  0  0  0
   58.5660   33.0980   51.6440 C   0  0  0  0  0  0  0  0  0  0  0  0
   59.6630   32.5960   50.9310 C   0  0  0  0  0  0  0  0  0  0  0  0
   60.8000   33.4790   50.5830 C   0  0  0  0  0  0  0  0  0  0  0  0
   61.5920   33.8460   51.4930 O   0  0  0  0  0  0  0  0  0  0  0  0
   61.0290   33.9190   49.2310 N   0  0  0  0  0  0  0  0  0  0  0  0
   62.3900   34.1940   48.7480 C   0  0  0  0  0  0  0  0  0  0  0  0
   62.6220   33.5150   47.3910 C   0  0  0  0  0  0  0  0  0  0  0  0
   61.4610   33.7190   46.3890 C   0  0  0  0  0  0  0  0  0  0  0  0
   60.3120   34.5870   46.9440 C   0  0  1  0  0  0  0  0  0  0  0  0
   59.1720   34.5860   46.0170 N   0  0  0  0  0  0  0  0  0  0  0  0
   58.6320   33.4080   45.3840 C   0  0  0  0  0  0  0  0  0  0  0  0
   58.2760   32.2600   46.1150 C   0  0  0  0  0  0  0  0  0  0  0  0
   57.7560   31.1400   45.4660 C   0  0  0  0  0  0  0  0  0  0  0  0
   57.5700   31.1370   44.0750 C   0  0  0  0  0  0  0  0  0  0  0  0
   57.0020   29.9130   43.4070 C   0  0  0  0  0  0  0  0  0  0  0  0
   57.9110   32.2900   43.3300 C   0  0  0  0  0  0  0  0  0  0  0  0
   57.7310   32.3340   41.8350 C   0  0  0  0  0  0  0  0  0  0  0  0
   58.4410   33.4110   43.9940 C   0  0  0  0  0  0  0  0  0  0  0  0
   59.8810   34.0550   48.3230 C   0  0  0  0  0  0  0  0  0  0  0  0
   59.6710   31.2350   50.5900 C   0  0  0  0  0  0  0  0  0  0  0  0
   58.6260   30.4320   50.9270 N   0  0  0  0  0  0  0  0  0  0  0  0
   55.0573   30.4450   53.3341 H   0  0  0  0  0  0  0  0  0  0  0  0
   54.9766   31.4062   51.8188 H   0  0  0  0  0  0  0  0  0  0  0  0
   54.4640   29.6846   51.8188 H   0  0  0  0  0  0  0  0  0  0  0  0
   56.6381   32.6570   52.5318 H   0  0  0  0  0  0  0  0  0  0  0  0
   58.5432   34.1572   51.9399 H   0  0  0  0  0  0  0  0  0  0  0  0
   62.5231   35.2803   48.6375 H   0  0  0  0  0  0  0  0  0  0  0  0
   63.1142   33.7972   49.4747 H   0  0  0  0  0  0  0  0  0  0  0  0
   63.5402   33.9282   46.9480 H   0  0  0  0  0  0  0  0  0  0  0  0
   62.6981   32.4341   47.5803 H   0  0  0  0  0  0  0  0  0  0  0  0
   61.8610   34.2064   45.4876 H   0  0  0  0  0  0  0  0  0  0  0  0
   61.0406   32.7252   46.1753 H   0  0  0  0  0  0  0  0  0  0  0  0
   60.6668   35.6226   47.0521 H   0  0  0  0  0  0  0  0  0  0  0  0
   58.7230   35.5020   45.7890 H   0  0  0  0  0  0  0  0  0  0  0  0
   58.4087   32.2454   47.2069 H   0  0  0  0  0  0  0  0  0  0  0  0
   57.4885   30.2482   46.0518 H   0  0  0  0  0  0  0  0  0  0  0  0
   56.6700   29.1976   44.1738 H   0  0  0  0  0  0  0  0  0  0  0  0
   56.1458   30.2017   42.7796 H   0  0  0  0  0  0  0  0  0  0  0  0
   57.7752   29.4455   42.7796 H   0  0  0  0  0  0  0  0  0  0  0  0
   56.6874   32.5891   41.5987 H   0  0  0  0  0  0  0  0  0  0  0  0
   58.4003   33.0950   41.4073 H   0  0  0  0  0  0  0  0  0  0  0  0
   57.9738   31.3501   41.4073 H   0  0  0  0  0  0  0  0  0  0  0  0
   58.7104   34.3056   43.4134 H   0  0  0  0  0  0  0  0  0  0  0  0
   59.1563   34.7544   48.7654 H   0  0  0  0  0  0  0  0  0  0  0  0
   59.4312   33.0608   48.1841 H   0  0  0  0  0  0  0  0  0  0  0  0
   60.5292   30.8140   50.0458 H   0  0  0  0  0  0  0  0  0  0  0  0
   58.6600   29.4230   50.6610 H   0  0  0  0  0  0  0  0  0  0  0  0
  1  2  1  0
  2  3  1  0
  3  4  2  0
  4  5  1  0
  5  6  2  0
  6  7  1  0
  7  8  2  0
  7  9  1  0
  9 10  1  0
 10 11  1  0
 11 12  1  0
 12 13  1  0
 13 14  1  0
 14 15  1  0
 15 16  2  0
 16 17  1  0
 17 18  2  0
 18 19  1  0
 18 20  1  0
 20 21  1  0
 20 22  2  0
 13 23  1  0
  6 24  1  0
 24 25  2  0
 25  3  1  0
 23  9  1  0
 22 15  1  0
  1 26  1  0
  1 27  1  0
  1 28  1  0
  4 29  1  0
  5 30  1  0
 10 31  1  0
 10 32  1  0
 11 33  1  0
 11 34  1  0
 12 35  1  0
 12 36  1  0
 13 37  1  1
 14 38  1  0
 16 39  1  0
 17 40  1  0
 19 41  1  0
 19 42  1  0
 19 43  1  0
 21 44  1  0
 21 45  1  0
 21 46  1  0
 22 47  1  0
 23 48  1  0
 23 49  1  0
 24 50  1  0
 25 51  1  0
M  CHG  1  25   1
M  END
>  <UniqueID>  (57) 
52

>  <SMILES>  (57) 
COc1ccc(C(=O)N2CCC[C@@H](Nc3ccc(C)c(C)c3)C2)c[nH+]1

>  <Energy>  (57) 
58.5032537285799

>  <Genealogy>  (57) 
COc1ccc(C(=O)N2CCCC(Nc3ccc(C)c(C)c3)C2)c[nH+]1 (protonated)
COc1ccc(C(=O)N2CCC[C@@H](Nc3ccc(C)c(C)c3)C2)c[nH+]1 (chirality)
COc1ccc(C(=O)N2CCC[C@@H](Nc3ccc(C)c(C)c3)C2)c[nH+]1 (3D coordinates assigned)
COc1ccc(C(=O)N2CCC[C@@H](Nc3ccc(C)c(C)c3)C2)c[nH+]1 (nonaromatic ring conformer: 58.5032537285799 kcal/mol)

>  <smiles>  (57) 
COc1ccc(C(=O)N2CCCC(Nc3ccc(C)c(C)c3)C2)cn1

>  <score_type>  (57) 
oracle

>  <origin>  (57) 
adg

>  <m_score__min__energy>  (57) 
-6.8499999999999996

>  <m_primary>  (57) 
energy

$$$$
57:0
     RDKit          3D

 55 58  0  0  0  0  0  0  0  0999 V2000
   58.4700   32.2610   44.4150 C   0  0  0  0  0  0  0  0  0  0  0  0
   58.3890   33.6950   44.9610 C   0  0  2  0  0  0  0  0  0  0  0  0
   59.7650   34.1790   45.5000 C   0  0  0  0  0  0  0  0  0  0  0  0
   59.8040   34.3730   47.0270 C   0  0  0  0  0  0  0  0  0  0  0  0
   59.0780   33.2240   47.7450 C   0  0  1  0  0  0  0  0  0  0  0  0
   59.2160   33.3420   49.1990 N   0  0  0  0  0  0  0  0  0  0  0  0
   58.6560   32.4500   50.1710 C   0  0  0  0  0  0  0  0  0  0  0  0
   57.4050   32.3240   50.2780 O   0  0  0  0  0  0  0  0  0  0  0  0
   59.5820   31.6180   51.0060 C   0  0  0  0  0  0  0  0  0  0  0  0
   59.1640   29.8350   50.9290 S   0  0  0  0  0  0  0  0  0  0  0  0
   59.5090   29.6520   49.1720 C   0  0  0  0  0  0  0  0  0  0  0  0
   58.5160   29.1820   48.3730 N   0  0  0  0  0  0  0  0  0  0  0  0
   58.6940   29.0170   47.0380 C   0  0  0  0  0  0  0  0  0  0  0  0
   57.6590   28.5250   46.2340 C   0  0  0  0  0  0  0  0  0  0  0  0
   57.8630   28.3620   44.8590 C   0  0  0  0  0  0  0  0  0  0  0  0
   59.0970   28.6910   44.2870 C   0  0  0  0  0  0  0  0  0  0  0  0
   60.1330   29.1860   45.0870 C   0  0  0  0  0  0  0  0  0  0  0  0
   59.9340   29.3490   46.4620 C   0  0  0  0  0  0  0  0  0  0  0  0
   60.9270   29.8260   47.2550 N   0  0  0  0  0  0  0  0  0  0  0  0
   60.7610   29.9830   48.5980 C   0  0  0  0  0  0  0  0  0  0  0  0
   61.9100   30.5440   49.3970 C   0  0  0  0  0  0  0  0  0  0  0  0
   62.4740   31.7800   48.7430 C   0  0  0  0  0  0  0  0  0  0  0  0
   63.1460   31.6930   47.5110 C   0  0  0  0  0  0  0  0  0  0  0  0
   63.6470   32.8470   46.8980 C   0  0  0  0  0  0  0  0  0  0  0  0
   63.4800   34.0930   47.5090 C   0  0  0  0  0  0  0  0  0  0  0  0
   62.8170   34.1880   48.7370 C   0  0  0  0  0  0  0  0  0  0  0  0
   62.3170   33.0370   49.3530 C   0  0  0  0  0  0  0  0  0  0  0  0
   57.5900   33.1010   47.3290 C   0  0  0  0  0  0  0  0  0  0  0  0
   57.2640   33.8290   46.0120 C   0  0  0  0  0  0  0  0  0  0  0  0
   58.5101   31.5509   45.2541 H   0  0  0  0  0  0  0  0  0  0  0  0
   57.5822   32.0521   43.8000 H   0  0  0  0  0  0  0  0  0  0  0  0
   59.3757   32.1534   43.8000 H   0  0  0  0  0  0  0  0  0  0  0  0
   58.1281   34.3612   44.1255 H   0  0  0  0  0  0  0  0  0  0  0  0
   60.5259   33.4334   45.2261 H   0  0  0  0  0  0  0  0  0  0  0  0
   59.9564   35.1635   45.0482 H   0  0  0  0  0  0  0  0  0  0  0  0
   60.8521   34.4005   47.3598 H   0  0  0  0  0  0  0  0  0  0  0  0
   59.2973   35.3176   47.2742 H   0  0  0  0  0  0  0  0  0  0  0  0
   59.5677   32.2923   47.4254 H   0  0  0  0  0  0  0  0  0  0  0  0
   60.6104   31.7574   50.6414 H   0  0  0  0  0  0  0  0  0  0  0  0
   59.4819   31.9449   52.0515 H   0  0  0  0  0  0  0  0  0  0  0  0
   56.6879   28.2672   46.6818 H   0  0  0  0  0  0  0  0  0  0  0  0
   57.0511   27.9742   44.2262 H   0  0  0  0  0  0  0  0  0  0  0  0
   59.2530   28.5602   43.2060 H   0  0  0  0  0  0  0  0  0  0  0  0
   61.1017   29.4464   44.6356 H   0  0  0  0  0  0  0  0  0  0  0  0
   61.5542   30.8017   50.4055 H   0  0  0  0  0  0  0  0  0  0  0  0
   62.7032   29.7837   49.4493 H   0  0  0  0  0  0  0  0  0  0  0  0
   63.2784   30.7141   47.0271 H   0  0  0  0  0  0  0  0  0  0  0  0
   64.1727   32.7734   45.9345 H   0  0  0  0  0  0  0  0  0  0  0  0
   63.8703   34.9997   47.0237 H   0  0  0  0  0  0  0  0  0  0  0  0
   62.6890   35.1688   49.2182 H   0  0  0  0  0  0  0  0  0  0  0  0
   61.7981   33.1151   50.3198 H   0  0  0  0  0  0  0  0  0  0  0  0
   57.3483   32.0348   47.2077 H   0  0  0  0  0  0  0  0  0  0  0  0
   56.9901   33.5744   48.1202 H   0  0  0  0  0  0  0  0  0  0  0  0
   56.3398   33.4032   45.5942 H   0  0  0  0  0  0  0  0  0  0  0  0
   57.1515   34.8985   46.2431 H   0  0  0  0  0  0  0  0  0  0  0  0
  1  2  1  0
  2  3  1  0
  3  4  1  0
  4  5  1  0
  5  6  1  0
  6  7  1  0
  7  8  2  0
  7  9  1  0
  9 10  1  0
 10 11  1  0
 11 12  2  0
 12 13  1  0
 13 14  2  0
 14 15  1  0
 15 16  2  0
 16 17  1  0
 17 18  2  0
 18 19  1  0
 19 20  2  0
 20 21  1  0
 21 22  1  0
 22 23  2  0
 23 24  1  0
 24 25  2  0
 25 26  1  0
 26 27  2  0
  5 28  1  0
 28 29  1  0
 29  2  1  0
 20 11  1  0
 27 22  1  0
 18 13  1  0
  1 30  1  0
  1 31  1  0
  1 32  1  0
  2 33  1  6
  3 34  1  0
  3 35  1  0
  4 36  1  0
  4 37  1  0
  5 38  1  6
  9 39  1  0
  9 40  1  0
 14 41  1  0
 15 42  1  0
 16 43  1  0
 17 44  1  0
 21 45  1  0
 21 46  1  0
 23 47  1  0
 24 48  1  0
 25 49  1  0
 26 50  1  0
 27 51  1  0
 28 52  1  0
 28 53  1  0
 29 54  1  0
 29 55  1  0
M  CHG  1   6  -1
M  END
>  <UniqueID>  (58) 
53

>  <SMILES>  (58) 
CC1CCC([N-]C(=O)CSc2nc3ccccc3nc2Cc2ccccc2)CC1

>  <Energy>  (58) 
60.174664316617665

>  <Genealogy>  (58) 
CC1CCC([N-]C(=O)CSc2nc3ccccc3nc2Cc2ccccc2)CC1 (protonated)
CC1CCC([N-]C(=O)CSc2nc3ccccc3nc2Cc2ccccc2)CC1 (3D coordinates assigned)
CC1CCC([N-]C(=O)CSc2nc3ccccc3nc2Cc2ccccc2)CC1 (nonaromatic ring conformer: 60.174664316617665 kcal/mol)

>  <smiles>  (58) 
CC1CCC(NC(=O)CSc2nc3ccccc3nc2Cc2ccccc2)CC1

>  <score_type>  (58) 
oracle

>  <origin>  (58) 
adg

>  <m_score__min__energy>  (58) 
-10.960000000000001

>  <m_primary>  (58) 
energy

$$$$
58:0
     RDKit          3D

 53 55  0  0  0  0  0  0  0  0999 V2000
   57.2060   29.3750   46.3050 O   0  0  0  0  0  0  0  0  0  0  0  0
   56.8870   28.6560   45.3210 C   0  0  0  0  0  0  0  0  0  0  0  0
   57.7240   27.4480   44.9680 C   0  0  0  0  0  0  0  0  0  0  0  0
   57.6540   26.3260   46.0180 C   0  0  0  0  0  0  0  0  0  0  0  0
   56.7200   25.2160   45.5980 C   0  0  0  0  0  0  0  0  0  0  0  0
   57.2420   23.9690   45.2070 C   0  0  0  0  0  0  0  0  0  0  0  0
   56.3860   22.9340   44.8180 C   0  0  0  0  0  0  0  0  0  0  0  0
   55.0040   23.1350   44.8100 C   0  0  0  0  0  0  0  0  0  0  0  0
   54.4740   24.3690   45.1960 C   0  0  0  0  0  0  0  0  0  0  0  0
   55.3230   25.4040   45.6010 C   0  0  0  0  0  0  0  0  0  0  0  0
   54.7720   26.6170   45.9980 O   0  0  0  0  0  0  0  0  0  0  0  0
   55.7910   29.0740   44.4990 N   0  0  0  0  0  0  0  0  0  0  0  0
   55.5040   30.4560   44.1400 C   0  0  0  0  0  0  0  0  0  0  0  0
   56.7860   31.2360   44.1330 C   0  0  0  0  0  0  0  0  0  0  0  0
   57.6260   31.0180   43.2210 O   0  0  0  0  0  0  0  0  0  0  0  0
   57.1400   32.1220   45.2010 N   0  0  0  0  0  0  0  0  0  0  0  0
   58.4690   32.3840   45.6690 C   0  0  0  0  0  0  0  0  0  0  0  0
   58.9610   33.6930   45.6260 C   0  0  0  0  0  0  0  0  0  0  0  0
   60.2450   33.9810   46.0940 C   0  0  0  0  0  0  0  0  0  0  0  0
   61.0460   32.9630   46.6290 C   0  0  0  0  0  0  0  0  0  0  0  0
   62.6860   33.3170   47.1810 S   0  0  0  0  0  0  0  0  0  0  0  0
   63.4610   32.0330   47.2990 O   0  0  0  0  0  0  0  0  0  0  0  0
   63.3740   34.1850   46.1630 O   0  0  0  0  0  0  0  0  0  0  0  0
   62.6780   34.1350   48.7270 N   0  0  0  0  0  0  0  0  0  0  0  0
   63.6770   33.5340   49.6330 C   0  0  0  0  0  0  0  0  0  0  0  0
   63.3400   33.8480   51.0990 C   0  0  0  0  0  0  0  0  0  0  0  0
   62.0730   33.3550   51.5180 O   0  0  0  0  0  0  0  0  0  0  0  0
   61.1480   33.1690   50.4560 C   0  0  0  0  0  0  0  0  0  0  0  0
   61.3210   34.1840   49.3120 C   0  0  0  0  0  0  0  0  0  0  0  0
   60.5380   31.6590   46.7170 C   0  0  0  0  0  0  0  0  0  0  0  0
   59.2540   31.3710   46.2450 C   0  0  0  0  0  0  0  0  0  0  0  0
   57.3700   27.0478   44.0065 H   0  0  0  0  0  0  0  0  0  0  0  0
   58.7710   27.7821   44.9202 H   0  0  0  0  0  0  0  0  0  0  0  0
   58.6617   25.9080   46.1589 H   0  0  0  0  0  0  0  0  0  0  0  0
   57.2687   26.7590   46.9529 H   0  0  0  0  0  0  0  0  0  0  0  0
   58.3301   23.8075   45.2074 H   0  0  0  0  0  0  0  0  0  0  0  0
   56.8015   21.9607   44.5180 H   0  0  0  0  0  0  0  0  0  0  0  0
   54.3321   22.3212   44.4996 H   0  0  0  0  0  0  0  0  0  0  0  0
   53.3855   24.5269   45.1813 H   0  0  0  0  0  0  0  0  0  0  0  0
   55.0464   30.4898   43.1403 H   0  0  0  0  0  0  0  0  0  0  0  0
   54.8076   30.8926   44.8711 H   0  0  0  0  0  0  0  0  0  0  0  0
   58.3328   34.5002   45.2212 H   0  0  0  0  0  0  0  0  0  0  0  0
   60.6290   35.0105   46.0425 H   0  0  0  0  0  0  0  0  0  0  0  0
   63.6842   32.4434   49.4899 H   0  0  0  0  0  0  0  0  0  0  0  0
   64.6654   33.9564   49.3993 H   0  0  0  0  0  0  0  0  0  0  0  0
   64.1149   33.3975   51.7366 H   0  0  0  0  0  0  0  0  0  0  0  0
   63.3021   34.9436   51.1901 H   0  0  0  0  0  0  0  0  0  0  0  0
   61.2842   32.1566   50.0479 H   0  0  0  0  0  0  0  0  0  0  0  0
   60.1406   33.3165   50.8723 H   0  0  0  0  0  0  0  0  0  0  0  0
   60.5866   33.9596   48.5244 H   0  0  0  0  0  0  0  0  0  0  0  0
   61.1662   35.1913   49.7259 H   0  0  0  0  0  0  0  0  0  0  0  0
   61.1517   30.8602   47.1588 H   0  0  0  0  0  0  0  0  0  0  0  0
   58.8571   30.3482   46.3248 H   0  0  0  0  0  0  0  0  0  0  0  0
  1  2  2  0
  2  3  1  0
  3  4  1  0
  4  5  1  0
  5  6  2  0
  6  7  1  0
  7  8  2  0
  8  9  1  0
  9 10  2  0
 10 11  1  0
  2 12  1  0
 12 13  1  0
 13 14  1  0
 14 15  2  0
 14 16  1  0
 16 17  1  0
 17 18  2  0
 18 19  1  0
 19 20  2  0
 20 21  1  0
 21 22  2  0
 21 23  2  0
 21 24  1  0
 24 25  1  0
 25 26  1  0
 26 27  1  0
 27 28  1  0
 28 29  1  0
 20 30  1  0
 30 31  2  0
 10  5  1  0
 31 17  1  0
 29 24  1  0
  3 32  1  0
  3 33  1  0
  4 34  1  0
  4 35  1  0
  6 36  1  0
  7 37  1  0
  8 38  1  0
  9 39  1  0
 13 40  1  0
 13 41  1  0
 18 42  1  0
 19 43  1  0
 25 44  1  0
 25 45  1  0
 26 46  1  0
 26 47  1  0
 28 48  1  0
 28 49  1  0
 29 50  1  0
 29 51  1  0
 30 52  1  0
 31 53  1  0
M  CHG  3  11  -1  12  -1  16  -1
M  END
>  <UniqueID>  (59) 
54

>  <SMILES>  (59) 
O=C(CCc1ccccc1[O-])[N-]CC(=O)[N-]c1ccc(S(=O)(=O)N2CCOCC2)cc1

>  <Energy>  (59) 
65.31213560671677

>  <Genealogy>  (59) 
O=C(CCc1ccccc1[O-])[N-]CC(=O)[N-]c1ccc(S(=O)(=O)N2CCOCC2)cc1 (protonated)
O=C(CCc1ccccc1[O-])[N-]CC(=O)[N-]c1ccc(S(=O)(=O)N2CCOCC2)cc1 (3D coordinates assigned)
O=C(CCc1ccccc1[O-])[N-]CC(=O)[N-]c1ccc(S(=O)(=O)N2CCOCC2)cc1 (nonaromatic ring conformer: 65.31213560671677 kcal/mol)

>  <smiles>  (59) 
O=C(CCc1ccccc1O)NCC(=O)Nc1ccc(S(=O)(=O)N2CCOCC2)cc1

>  <score_type>  (59) 
oracle

>  <origin>  (59) 
adg

>  <m_score__min__energy>  (59) 
-15.199999999999999

>  <m_primary>  (59) 
energy

$$$$
59:0
     RDKit          3D

 49 52  0  0  0  0  0  0  0  0999 V2000
   58.2260   27.0550   42.5040 C   0  0  0  0  0  0  0  0  0  0  0  0
   57.7700   27.3310   43.8640 N   0  0  0  0  0  0  0  0  0  0  0  0
   57.5660   26.4240   44.8330 C   0  0  0  0  0  0  0  0  0  0  0  0
   57.0160   27.0730   45.9170 C   0  0  0  0  0  0  0  0  0  0  0  0
   56.8550   28.3820   45.6300 N   0  0  0  0  0  0  0  0  0  0  0  0
   57.3270   28.5040   44.3670 C   0  0  0  0  0  0  0  0  0  0  0  0
   57.2930   29.7950   43.6060 C   0  0  0  0  0  0  0  0  0  0  0  0
   58.2700   30.7280   44.1690 N   0  0  0  0  0  0  0  0  0  0  0  0
   57.8850   31.8060   45.0390 C   0  0  0  0  0  0  0  0  0  0  0  0
   56.6610   32.0570   45.2200 O   0  0  0  0  0  0  0  0  0  0  0  0
   58.9050   32.6340   45.7250 C   0  0  0  0  0  0  0  0  0  0  0  0
   58.9490   34.0200   45.8010 C   0  0  0  0  0  0  0  0  0  0  0  0
   59.9990   34.4040   46.5530 N   0  0  0  0  0  0  0  0  0  0  0  0
   60.6240   33.3080   46.9560 N   0  0  0  0  0  0  0  0  0  0  0  0
   61.7650   33.3310   47.8250 C   0  0  0  0  0  0  0  0  0  0  0  0
   63.0380   33.0300   47.3170 C   0  0  0  0  0  0  0  0  0  0  0  0
   64.1440   33.0000   48.1720 C   0  0  0  0  0  0  0  0  0  0  0  0
   63.9920   33.2990   49.5310 C   0  0  0  0  0  0  0  0  0  0  0  0
   65.3770   33.2620   50.6060 S   0  0  0  0  0  0  0  0  0  0  0  0
   65.3930   34.6360   51.7320 C   0  0  0  0  0  0  0  0  0  0  0  0
   66.8170   33.1350   49.7470 O   0  0  0  0  0  0  0  0  0  0  0  0
   62.7280   33.6260   50.0350 C   0  0  0  0  0  0  0  0  0  0  0  0
   61.6150   33.6300   49.1890 C   0  0  0  0  0  0  0  0  0  0  0  0
   60.0090   32.2100   46.4550 C   0  0  0  0  0  0  0  0  0  0  0  0
   60.4640   30.7830   46.6690 C   0  0  0  0  0  0  0  0  0  0  0  0
   59.3820   29.8330   47.1800 C   0  0  0  0  0  0  0  0  0  0  0  0
   60.4620   30.3300   48.1240 C   0  0  0  0  0  0  0  0  0  0  0  0
   59.1665   26.4857   42.5411 H   0  0  0  0  0  0  0  0  0  0  0  0
   57.4624   26.4673   41.9734 H   0  0  0  0  0  0  0  0  0  0  0  0
   58.3925   28.0041   41.9734 H   0  0  0  0  0  0  0  0  0  0  0  0
   57.7975   25.3504   44.7721 H   0  0  0  0  0  0  0  0  0  0  0  0
   56.7486   26.5964   46.8717 H   0  0  0  0  0  0  0  0  0  0  0  0
   57.5370   29.6034   42.5507 H   0  0  0  0  0  0  0  0  0  0  0  0
   56.2871   30.2339   43.6799 H   0  0  0  0  0  0  0  0  0  0  0  0
   59.2580   30.6600   43.8360 H   0  0  0  0  0  0  0  0  0  0  0  0
   58.2334   34.7025   45.3192 H   0  0  0  0  0  0  0  0  0  0  0  0
   63.1659   32.8175   46.2453 H   0  0  0  0  0  0  0  0  0  0  0  0
   65.1367   32.7406   47.7754 H   0  0  0  0  0  0  0  0  0  0  0  0
   65.3886   34.2623   52.7666 H   0  0  0  0  0  0  0  0  0  0  0  0
   66.2982   35.2378   51.5633 H   0  0  0  0  0  0  0  0  0  0  0  0
   64.5020   35.2587   51.5633 H   0  0  0  0  0  0  0  0  0  0  0  0
   66.5630   32.7450   48.8690 H   0  0  0  0  0  0  0  0  0  0  0  0
   62.6100   33.8803   51.0987 H   0  0  0  0  0  0  0  0  0  0  0  0
   60.6197   33.8678   49.5925 H   0  0  0  0  0  0  0  0  0  0  0  0
   61.1907   30.7657   45.8434 H   0  0  0  0  0  0  0  0  0  0  0  0
   58.3470   30.1881   47.2928 H   0  0  0  0  0  0  0  0  0  0  0  0
   59.0096   28.8434   46.8766 H   0  0  0  0  0  0  0  0  0  0  0  0
   60.2084   31.0443   48.9212 H   0  0  0  0  0  0  0  0  0  0  0  0
   61.1948   29.8476   48.7876 H   0  0  0  0  0  0  0  0  0  0  0  0
  1  2  1  0
  2  3  1  0
  3  4  2  0
  4  5  1  0
  5  6  2  0
  6  7  1  0
  7  8  1  0
  8  9  1  0
  9 10  2  0
  9 11  1  0
 11 12  1  0
 12 13  2  0
 13 14  1  0
 14 15  1  0
 15 16  2  0
 16 17  1  0
 17 18  2  0
 18 19  1  0
 19 20  1  0
 19 21  1  6
 18 22  1  0
 22 23  2  0
 14 24  1  0
 24 25  1  0
 25 26  1  0
 26 27  1  0
  6  2  1  0
 24 11  2  0
 27 25  1  0
 23 15  1  0
  1 28  1  0
  1 29  1  0
  1 30  1  0
  3 31  1  0
  4 32  1  0
  7 33  1  0
  7 34  1  0
  8 35  1  0
 12 36  1  0
 16 37  1  0
 17 38  1  0
 20 39  1  0
 20 40  1  0
 20 41  1  0
 21 42  1  0
 22 43  1  0
 23 44  1  0
 25 45  1  0
 26 46  1  0
 26 47  1  0
 27 48  1  0
 27 49  1  0
M  CHG  1  19   1
M  END
>  <UniqueID>  (60) 
55

>  <SMILES>  (60) 
Cn1ccnc1CNC(=O)c1cnn(-c2ccc([S@+](C)O)cc2)c1C1CC1

>  <Energy>  (60) 
373.8960392421038

>  <Genealogy>  (60) 
Cn1ccnc1CNC(=O)c1cnn(-c2ccc([S+](C)O)cc2)c1C1CC1 (protonated)
Cn1ccnc1CNC(=O)c1cnn(-c2ccc([S@+](C)O)cc2)c1C1CC1 (chirality)
Cn1ccnc1CNC(=O)c1cnn(-c2ccc([S@+](C)O)cc2)c1C1CC1 (3D coordinates assigned)
Cn1ccnc1CNC(=O)c1cnn(-c2ccc([S@+](C)O)cc2)c1C1CC1 (nonaromatic ring conformer: 373.8960392421038 kcal/mol)

>  <smiles>  (60) 
Cn1ccnc1CNC(=O)c1cnn(-c2ccc([S+](C)[O-])cc2)c1C1CC1

>  <score_type>  (60) 
oracle

>  <origin>  (60) 
adg

>  <m_score__min__energy>  (60) 
-6.5199999999999996

>  <m_primary>  (60) 
energy

$$$$
60:0
     RDKit          3D

 46 48  0  0  0  0  0  0  0  0999 V2000
   61.0050   33.9350   46.3640 C   0  0  0  0  0  0  0  0  0  0  0  0
   59.4740   34.0130   46.4280 C   0  0  0  0  0  0  0  0  0  0  0  0
   58.8760   34.0100   45.0020 C   0  0  0  0  0  0  0  0  0  0  0  0
   57.4160   33.5320   45.0180 C   0  0  0  0  0  0  0  0  0  0  0  0
   57.2620   32.1600   45.5660 N   0  0  0  0  0  0  0  0  0  0  0  0
   57.0250   30.9940   44.2860 S   0  0  0  0  0  0  0  0  0  0  0  0
   57.6810   31.4890   43.0260 O   0  0  0  0  0  0  0  0  0  0  0  0
   55.5550   30.8070   44.0340 O   0  0  0  0  0  0  0  0  0  0  0  0
   57.7130   29.4430   44.7610 C   0  0  0  0  0  0  0  0  0  0  0  0
   59.0800   29.1820   44.6000 C   0  0  0  0  0  0  0  0  0  0  0  0
   59.6080   27.9510   44.9980 C   0  0  0  0  0  0  0  0  0  0  0  0
   58.7790   26.9810   45.5710 C   0  0  0  0  0  0  0  0  0  0  0  0
   59.3180   25.8010   45.9710 F   0  0  0  0  0  0  0  0  0  0  0  0
   57.4100   27.2410   45.7540 C   0  0  0  0  0  0  0  0  0  0  0  0
   56.5340   26.2290   46.3770 C   0  0  0  0  0  0  0  0  0  0  0  0
   57.0030   25.4810   47.2750 O   0  0  0  0  0  0  0  0  0  0  0  0
   55.1530   26.0910   46.0160 N   0  0  0  0  0  0  0  0  0  0  0  0
   54.5420   24.8640   45.5190 C   0  0  0  0  0  0  0  0  0  0  0  0
   55.6050   23.9640   44.9820 C   0  0  0  0  0  0  0  0  0  0  0  0
   55.9900   23.8640   43.6520 C   0  0  0  0  0  0  0  0  0  0  0  0
   56.9730   22.8900   43.4380 C   0  0  0  0  0  0  0  0  0  0  0  0
   57.3510   22.2160   44.5920 C   0  0  0  0  0  0  0  0  0  0  0  0
   56.4610   22.8300   45.8810 S   0  0  0  0  0  0  0  0  0  0  0  0
   56.8800   28.4650   45.3180 C   0  0  0  0  0  0  0  0  0  0  0  0
   58.3690   31.7230   46.4480 C   0  0  0  0  0  0  0  0  0  0  0  0
   58.8890   32.8800   47.3070 C   0  0  0  0  0  0  0  0  0  0  0  0
   61.4141   33.9142   47.3849 H   0  0  0  0  0  0  0  0  0  0  0  0
   61.3036   33.0205   45.8306 H   0  0  0  0  0  0  0  0  0  0  0  0
   61.3950   34.8144   45.8306 H   0  0  0  0  0  0  0  0  0  0  0  0
   59.1917   34.9619   46.9075 H   0  0  0  0  0  0  0  0  0  0  0  0
   58.9159   35.0304   44.5931 H   0  0  0  0  0  0  0  0  0  0  0  0
   59.4634   33.3211   44.3772 H   0  0  0  0  0  0  0  0  0  0  0  0
   56.8267   34.2250   45.6365 H   0  0  0  0  0  0  0  0  0  0  0  0
   57.0641   33.5122   43.9760 H   0  0  0  0  0  0  0  0  0  0  0  0
   59.7377   29.9462   44.1602 H   0  0  0  0  0  0  0  0  0  0  0  0
   60.6795   27.7440   44.8602 H   0  0  0  0  0  0  0  0  0  0  0  0
   54.0132   24.3583   46.3404 H   0  0  0  0  0  0  0  0  0  0  0  0
   53.8271   25.1070   44.7191 H   0  0  0  0  0  0  0  0  0  0  0  0
   55.5667   24.4856   42.8493 H   0  0  0  0  0  0  0  0  0  0  0  0
   57.4052   22.6786   42.4488 H   0  0  0  0  0  0  0  0  0  0  0  0
   58.1042   21.4166   44.6529 H   0  0  0  0  0  0  0  0  0  0  0  0
   55.8013   28.6577   45.4146 H   0  0  0  0  0  0  0  0  0  0  0  0
   58.0055   30.9220   47.1085 H   0  0  0  0  0  0  0  0  0  0  0  0
   59.1941   31.3631   45.8157 H   0  0  0  0  0  0  0  0  0  0  0  0
   58.0591   33.2831   47.9060 H   0  0  0  0  0  0  0  0  0  0  0  0
   59.6884   32.4974   47.9586 H   0  0  0  0  0  0  0  0  0  0  0  0
  1  2  1  0
  2  3  1  0
  3  4  1  0
  4  5  1  0
  5  6  1  0
  6  7  2  0
  6  8  2  0
  6  9  1  0
  9 10  2  0
 10 11  1  0
 11 12  2  0
 12 13  1  0
 12 14  1  0
 14 15  1  0
 15 16  2  0
 15 17  1  0
 17 18  1  0
 18 19  1  0
 19 20  2  0
 20 21  1  0
 21 22  2  0
 22 23  1  0
 14 24  2  0
  5 25  1  0
 25 26  1  0
 26  2  1  0
 24  9  1  0
 23 19  1  0
  1 27  1  0
  1 28  1  0
  1 29  1  0
  2 30  1  0
  3 31  1  0
  3 32  1  0
  4 33  1  0
  4 34  1  0
 10 35  1  0
 11 36  1  0
 18 37  1  0
 18 38  1  0
 20 39  1  0
 21 40  1  0
 22 41  1  0
 24 42  1  0
 25 43  1  0
 25 44  1  0
 26 45  1  0
 26 46  1  0
M  CHG  1  17  -1
M  END
>  <UniqueID>  (61) 
56

>  <SMILES>  (61) 
CC1CCN(S(=O)(=O)c2ccc(F)c(C(=O)[N-]Cc3cccs3)c2)CC1

>  <Energy>  (61) 
78.88421580934373

>  <Genealogy>  (61) 
CC1CCN(S(=O)(=O)c2ccc(F)c(C(=O)[N-]Cc3cccs3)c2)CC1 (protonated)
CC1CCN(S(=O)(=O)c2ccc(F)c(C(=O)[N-]Cc3cccs3)c2)CC1 (3D coordinates assigned)
CC1CCN(S(=O)(=O)c2ccc(F)c(C(=O)[N-]Cc3cccs3)c2)CC1 (nonaromatic ring conformer: 78.88421580934373 kcal/mol)

>  <smiles>  (61) 
CC1CCN(S(=O)(=O)c2ccc(F)c(C(=O)NCc3cccs3)c2)CC1

>  <score_type>  (61) 
oracle

>  <origin>  (61) 
adg

>  <m_score__min__energy>  (61) 
-11.699999999999999

>  <m_primary>  (61) 
energy

$$$$
61:0
     RDKit          3D

 48 50  0  0  0  0  0  0  0  0999 V2000
   59.3650   27.3680   46.0790 O   0  0  0  0  0  0  0  0  0  0  0  0
   58.1720   26.9330   45.9830 C   0  0  0  0  0  0  0  0  0  0  0  0
   57.7330   25.7150   46.6980 C   0  0  0  0  0  0  0  0  0  0  0  0
   57.2530   24.7690   45.6340 C   0  0  0  0  0  0  0  0  0  0  0  0
   58.0660   23.9090   45.0080 N   0  0  0  0  0  0  0  0  0  0  0  0
   57.6350   23.0710   44.0610 N   0  0  0  0  0  0  0  0  0  0  0  0
   56.3300   23.1200   43.7500 C   0  0  0  0  0  0  0  0  0  0  0  0
   55.9000   22.3350   42.8540 O   0  0  0  0  0  0  0  0  0  0  0  0
   55.4530   23.9560   44.3340 N   0  0  0  0  0  0  0  0  0  0  0  0
   55.9160   24.7890   45.2850 C   0  0  0  0  0  0  0  0  0  0  0  0
   55.1610   25.6120   45.8920 O   0  0  0  0  0  0  0  0  0  0  0  0
   57.2250   27.6670   45.1390 N   0  0  0  0  0  0  0  0  0  0  0  0
   57.7610   28.8200   44.5070 C   0  0  0  0  0  0  0  0  0  0  0  0
   57.1980   30.1320   44.7050 C   0  0  0  0  0  0  0  0  0  0  0  0
   55.8820   30.1280   44.7220 O   0  0  0  0  0  0  0  0  0  0  0  0
   57.7680   31.4280   44.8840 C   0  0  0  0  0  0  0  0  0  0  0  0
   57.3930   32.5780   44.2320 C   0  0  0  0  0  0  0  0  0  0  0  0
   57.9250   33.8360   44.5100 C   0  0  0  0  0  0  0  0  0  0  0  0
   58.8790   33.9840   45.4840 C   0  0  0  0  0  0  0  0  0  0  0  0
   59.2760   32.8560   46.1540 C   0  0  0  0  0  0  0  0  0  0  0  0
   58.7400   31.5860   45.8740 C   0  0  0  0  0  0  0  0  0  0  0  0
   59.3090   30.5390   46.6300 N   0  0  0  0  0  0  0  0  0  0  0  0
   60.6980   30.0830   46.4540 C   0  0  0  0  0  0  0  0  0  0  0  0
   61.5130   30.4980   47.6720 C   0  0  0  0  0  0  0  0  0  0  0  0
   60.6610   30.5870   48.9080 C   0  0  0  0  0  0  0  0  0  0  0  0
   59.4500   29.7080   48.8770 C   0  0  0  0  0  0  0  0  0  0  0  0
   58.5730   29.8230   47.6790 C   0  0  0  0  0  0  0  0  0  0  0  0
   58.5731   25.2728   47.2536 H   0  0  0  0  0  0  0  0  0  0  0  0
   56.9426   25.9370   47.4302 H   0  0  0  0  0  0  0  0  0  0  0  0
   58.3100   22.4110   43.5940 H   0  0  0  0  0  0  0  0  0  0  0  0
   54.4450   24.0070   44.1070 H   0  0  0  0  0  0  0  0  0  0  0  0
   56.3060   27.2410   45.0930 H   0  0  0  0  0  0  0  0  0  0  0  0
   58.8119   28.8849   44.8254 H   0  0  0  0  0  0  0  0  0  0  0  0
   57.5335   28.6290   43.4479 H   0  0  0  0  0  0  0  0  0  0  0  0
   56.6285   32.5013   43.4448 H   0  0  0  0  0  0  0  0  0  0  0  0
   57.5780   34.7141   43.9456 H   0  0  0  0  0  0  0  0  0  0  0  0
   59.3087   34.9691   45.7184 H   0  0  0  0  0  0  0  0  0  0  0  0
   60.0413   32.9472   46.9389 H   0  0  0  0  0  0  0  0  0  0  0  0
   60.7169   28.9878   46.3531 H   0  0  0  0  0  0  0  0  0  0  0  0
   61.1264   30.5359   45.5477 H   0  0  0  0  0  0  0  0  0  0  0  0
   62.3071   29.7555   47.8393 H   0  0  0  0  0  0  0  0  0  0  0  0
   61.9385   31.4934   47.4767 H   0  0  0  0  0  0  0  0  0  0  0  0
   61.2757   30.2986   49.7734 H   0  0  0  0  0  0  0  0  0  0  0  0
   60.3000   31.6241   48.9718 H   0  0  0  0  0  0  0  0  0  0  0  0
   59.7931   28.6648   48.9405 H   0  0  0  0  0  0  0  0  0  0  0  0
   58.8299   30.0388   49.7232 H   0  0  0  0  0  0  0  0  0  0  0  0
   58.2998   28.8193   47.3214 H   0  0  0  0  0  0  0  0  0  0  0  0
   57.6542   30.3707   47.9357 H   0  0  0  0  0  0  0  0  0  0  0  0
  1  2  2  0
  2  3  1  0
  3  4  1  0
  4  5  2  0
  5  6  1  0
  6  7  1  0
  7  8  2  0
  7  9  1  0
  9 10  1  0
 10 11  2  0
  2 12  1  0
 12 13  1  0
 13 14  1  0
 14 15  2  0
 14 16  1  0
 16 17  2  0
 17 18  1  0
 18 19  2  0
 19 20  1  0
 20 21  2  0
 21 22  1  0
 22 23  1  0
 23 24  1  0
 24 25  1  0
 25 26  1  0
 26 27  1  0
 10  4  1  0
 21 16  1  0
 27 22  1  0
  3 28  1  0
  3 29  1  0
  6 30  1  0
  9 31  1  0
 12 32  1  0
 13 33  1  0
 13 34  1  0
 17 35  1  0
 18 36  1  0
 19 37  1  0
 20 38  1  0
 23 39  1  0
 23 40  1  0
 24 41  1  0
 24 42  1  0
 25 43  1  0
 25 44  1  0
 26 45  1  0
 26 46  1  0
 27 47  1  0
 27 48  1  0
M  END
>  <smiles>  (62) 
O=C(Cc1n[nH]c(=O)[nH]c1=O)NCC(=O)c1ccccc1N1CCCCC1

>  <score_type>  (62) 
oracle

>  <origin>  (62) 
adg

>  <m_score__min__energy>  (62) 
-8.4900000000000002

>  <m_primary>  (62) 
energy

$$$$
62:0
     RDKit          3D

 36 38  0  0  0  0  0  0  0  0999 V2000
   58.0570   30.4420   44.6740 C   0  0  0  0  0  0  0  0  0  0  0  0
   58.4700   29.8070   45.7810 C   0  0  0  0  0  0  0  0  0  0  0  0
   58.2220   28.4720   46.1420 C   0  0  0  0  0  0  0  0  0  0  0  0
   57.6820   27.4520   45.4470 C   0  0  0  0  0  0  0  0  0  0  0  0
   57.1790   26.1950   46.0220 C   0  0  0  0  0  0  0  0  0  0  0  0
   57.9440   25.2170   46.5350 N   0  0  0  0  0  0  0  0  0  0  0  0
   57.0660   24.3500   47.0790 C   0  0  0  0  0  0  0  0  0  0  0  0
   57.4190   23.2880   47.6570 O   0  0  0  0  0  0  0  0  0  0  0  0
   55.7750   24.7280   46.9640 N   0  0  0  0  0  0  0  0  0  0  0  0
   55.8650   25.9010   46.3080 C   0  0  0  0  0  0  0  0  0  0  0  0
   54.7690   26.6910   45.9860 O   0  0  0  0  0  0  0  0  0  0  0  0
   58.6740   28.3320   47.4450 C   0  0  0  0  0  0  0  0  0  0  0  0
   59.2240   29.5440   47.8100 C   0  0  0  0  0  0  0  0  0  0  0  0
   59.8640   29.8310   49.1340 C   0  0  0  0  0  0  0  0  0  0  0  0
   59.1140   30.4320   46.8000 N   0  0  0  0  0  0  0  0  0  0  0  0
   59.5300   31.8080   46.8540 C   0  0  0  0  0  0  0  0  0  0  0  0
   58.5720   32.8280   46.8220 C   0  0  0  0  0  0  0  0  0  0  0  0
   58.9690   34.1640   46.8890 C   0  0  0  0  0  0  0  0  0  0  0  0
   60.3230   34.4890   46.9900 C   0  0  0  0  0  0  0  0  0  0  0  0
   61.3020   33.4790   47.0260 C   0  0  0  0  0  0  0  0  0  0  0  0
   62.7340   33.8500   47.1340 C   0  0  0  0  0  0  0  0  0  0  0  0
   63.4640   33.9140   46.1110 O   0  0  0  0  0  0  0  0  0  0  0  0
   63.2940   34.1340   48.3750 O   0  0  0  0  0  0  0  0  0  0  0  0
   60.8920   32.1300   46.9560 C   0  0  0  0  0  0  0  0  0  0  0  0
   61.8050   31.1240   46.9750 F   0  0  0  0  0  0  0  0  0  0  0  0
   58.3237   31.4970   44.5132 H   0  0  0  0  0  0  0  0  0  0  0  0
   57.4516   29.9077   43.9269 H   0  0  0  0  0  0  0  0  0  0  0  0
   57.6111   27.5693   44.3556 H   0  0  0  0  0  0  0  0  0  0  0  0
   58.9860   25.1580   46.5480 H   0  0  0  0  0  0  0  0  0  0  0  0
   58.6071   27.4282   48.0685 H   0  0  0  0  0  0  0  0  0  0  0  0
   59.1844   29.5262   49.9435 H   0  0  0  0  0  0  0  0  0  0  0  0
   60.8062   29.2692   49.2153 H   0  0  0  0  0  0  0  0  0  0  0  0
   60.0712   30.9082   49.2153 H   0  0  0  0  0  0  0  0  0  0  0  0
   57.5041   32.5759   46.7439 H   0  0  0  0  0  0  0  0  0  0  0  0
   58.2134   34.9630   46.8622 H   0  0  0  0  0  0  0  0  0  0  0  0
   60.6274   35.5448   47.0419 H   0  0  0  0  0  0  0  0  0  0  0  0
  1  2  2  0
  2  3  1  0
  3  4  2  3
  4  5  1  0
  5  6  1  0
  6  7  1  0
  7  8  2  0
  7  9  1  0
  9 10  1  0
 10 11  1  0
  3 12  1  0
 12 13  2  0
 13 14  1  0
 13 15  1  0
 15 16  1  0
 16 17  2  0
 17 18  1  0
 18 19  2  0
 19 20  1  0
 20 21  1  0
 21 22  2  0
 21 23  1  0
 20 24  2  0
 24 25  1  0
 15  2  1  0
 24 16  1  0
 10  5  2  0
  1 26  1  0
  1 27  1  0
  4 28  1  0
  6 29  1  0
 12 30  1  0
 14 31  1  0
 14 32  1  0
 14 33  1  0
 17 34  1  0
 18 35  1  0
 19 36  1  0
M  CHG  3   9  -1  11  -1  23  -1
M  END
>  <UniqueID>  (63) 
57

>  <SMILES>  (63) 
C=c1c(=Cc2[nH]c(=O)[n-]c2[O-])cc(C)n1-c1cccc(C(=O)[O-])c1F

>  <Energy>  (63) 
116.9637627390612

>  <Genealogy>  (63) 
C=c1c(=Cc2[nH]c(=O)[n-]c2[O-])cc(C)n1-c1cccc(C(=O)[O-])c1F (protonated)
C=c1c(=Cc2[nH]c(=O)[n-]c2[O-])cc(C)n1-c1cccc(C(=O)[O-])c1F (3D coordinates assigned)
C=c1c(=Cc2[nH]c(=O)[n-]c2[O-])cc(C)n1-c1cccc(C(=O)[O-])c1F (optimized conformer: 116.9637627390612 kcal/mol)

>  <smiles>  (63) 
C=c1c(=Cc2[nH]c(=O)[nH]c2O)cc(C)n1-c1cccc(C(=O)O)c1F

>  <score_type>  (63) 
oracle

>  <origin>  (63) 
adg

>  <m_score__min__energy>  (63) 
-14.16

>  <m_primary>  (63) 
energy

$$$$
63:0
     RDKit          3D

 55 58  0  0  0  0  0  0  0  0999 V2000
   55.1440   26.3490   46.9530 H   0  0  0  0  0  0  0  0  0  0  0  0
   55.4280   26.5200   46.0180 O   0  0  0  0  0  0  0  0  0  0  0  0
   56.6030   25.7790   45.7830 C   0  0  2  0  0  0  0  0  0  0  0  0
   56.2754   24.7759   45.4723 H   0  0  0  0  0  0  0  0  0  0  0  0
   57.4770   25.7180   47.0360 C   0  0  0  0  0  0  0  0  0  0  0  0
   56.8947   26.0030   47.9246 H   0  0  0  0  0  0  0  0  0  0  0  0
   57.8612   24.7030   47.2154 H   0  0  0  0  0  0  0  0  0  0  0  0
   58.5540   26.6690   46.8080 N   0  0  0  0  0  0  0  0  0  0  0  0
   59.4480   27.0980   47.8500 C   0  0  0  0  0  0  0  0  0  0  0  0
   60.4210   26.3640   48.1720 O   0  0  0  0  0  0  0  0  0  0  0  0
   59.2260   28.3400   48.5390 N   0  0  0  0  0  0  0  0  0  0  0  0
   58.3450   28.8660   48.3540 H   0  0  0  0  0  0  0  0  0  0  0  0
   60.1230   28.8790   49.5220 C   0  0  0  0  0  0  0  0  0  0  0  0
   60.6540   30.1620   49.5230 C   0  0  0  0  0  0  0  0  0  0  0  0
   60.2760   31.3010   48.6570 C   0  0  0  0  0  0  0  0  0  0  0  0
   59.3500   32.1810   49.0590 C   0  0  0  0  0  0  0  0  0  0  0  0
   58.8257   32.0111   50.0110 H   0  0  0  0  0  0  0  0  0  0  0  0
   59.0090   33.3980   48.2390 C   0  0  0  0  0  0  0  0  0  0  0  0
   59.6416   34.2344   48.5710 H   0  0  0  0  0  0  0  0  0  0  0  0
   57.9404   33.6109   48.3896 H   0  0  0  0  0  0  0  0  0  0  0  0
   59.2220   33.1900   46.7950 N   0  0  0  0  0  0  0  0  0  0  0  0
   58.8060   34.2070   45.8680 C   0  0  0  0  0  0  0  0  0  0  0  0
   59.3420   35.3480   45.9100 O   0  0  0  0  0  0  0  0  0  0  0  0
   57.7420   33.9420   44.9410 N   0  0  0  0  0  0  0  0  0  0  0  0
   57.5200   32.8020   44.3720 C   0  0  0  0  0  0  0  0  0  0  0  0
   56.7780   31.8110   44.9170 N   0  0  0  0  0  0  0  0  0  0  0  0
   56.6810   30.7490   44.0770 C   0  0  0  0  0  0  0  0  0  0  0  0
   55.8430   29.5620   44.4150 C   0  0  0  0  0  0  0  0  0  0  0  0
   55.7725   29.4622   45.5082 H   0  0  0  0  0  0  0  0  0  0  0  0
   54.8355   29.6923   43.9930 H   0  0  0  0  0  0  0  0  0  0  0  0
   56.3030   28.6563   43.9930 H   0  0  0  0  0  0  0  0  0  0  0  0
   57.3240   30.9040   42.8520 C   0  0  0  0  0  0  0  0  0  0  0  0
   57.3472   30.1654   42.0372 H   0  0  0  0  0  0  0  0  0  0  0  0
   58.0590   32.4160   42.8340 S   0  0  0  0  0  0  0  0  0  0  0  0
   59.9170   31.9940   46.2920 C   0  0  0  0  0  0  0  0  0  0  0  0
   60.4395   32.2460   45.3574 H   0  0  0  0  0  0  0  0  0  0  0  0
   59.1748   31.2024   46.1119 H   0  0  0  0  0  0  0  0  0  0  0  0
   60.9350   31.4910   47.3170 C   0  0  0  0  0  0  0  0  0  0  0  0
   61.7472   32.2266   47.4130 H   0  0  0  0  0  0  0  0  0  0  0  0
   61.3390   30.5262   46.9766 H   0  0  0  0  0  0  0  0  0  0  0  0
   61.5820   30.1910   50.5530 C   0  0  0  0  0  0  0  0  0  0  0  0
   62.1842   31.0663   50.8379 H   0  0  0  0  0  0  0  0  0  0  0  0
   61.6350   28.9840   51.1530 N   0  0  0  0  0  0  0  0  0  0  0  0
   62.4540   28.6400   52.3070 C   0  0  0  0  0  0  0  0  0  0  0  0
   61.9025   28.8716   53.2302 H   0  0  0  0  0  0  0  0  0  0  0  0
   62.6912   27.5662   52.2813 H   0  0  0  0  0  0  0  0  0  0  0  0
   63.3869   29.2223   52.2813 H   0  0  0  0  0  0  0  0  0  0  0  0
   60.7500   28.1760   50.5370 C   0  0  0  0  0  0  0  0  0  0  0  0
   60.5564   27.1253   50.7987 H   0  0  0  0  0  0  0  0  0  0  0  0
   58.5470   27.2180   45.4630 C   0  0  0  0  0  0  0  0  0  0  0  0
   58.3070   28.2912   45.4885 H   0  0  0  0  0  0  0  0  0  0  0  0
   59.5298   27.1175   44.9793 H   0  0  0  0  0  0  0  0  0  0  0  0
   57.4690   26.4510   44.7080 C   0  0  0  0  0  0  0  0  0  0  0  0
   56.8618   27.1399   44.1024 H   0  0  0  0  0  0  0  0  0  0  0  0
   57.9049   25.7123   44.0193 H   0  0  0  0  0  0  0  0  0  0  0  0
  1  2  1  0
  2  3  1  0
  3  4  1  6
  3  5  1  0
  5  6  1  0
  5  7  1  0
  5  8  1  0
  8  9  1  0
  9 10  2  0
  9 11  1  0
 11 12  1  0
 11 13  1  0
 13 14  1  0
 14 15  1  0
 15 16  2  0
 16 17  1  0
 16 18  1  0
 18 19  1  0
 18 20  1  0
 18 21  1  0
 21 22  1  0
 22 23  2  0
 22 24  1  0
 24 25  2  0
 25 26  1  0
 26 27  1  0
 27 28  1  0
 28 29  1  0
 28 30  1  0
 28 31  1  0
 27 32  2  0
 32 33  1  0
 32 34  1  0
 21 35  1  0
 35 36  1  0
 35 37  1  0
 35 38  1  0
 38 39  1  0
 38 40  1  0
 14 41  2  0
 41 42  1  0
 41 43  1  0
 43 44  1  0
 44 45  1  0
 44 46  1  0
 44 47  1  0
 43 48  1  0
 48 49  1  0
  8 50  1  0
 50 51  1  0
 50 52  1  0
 50 53  1  0
 53 54  1  0
 53 55  1  0
 53  3  1  0
 48 13  2  0
 38 15  1  0
 34 25  1  0
M  CHG  1  26  -1
M  END
>  <UniqueID>  (64) 
58

>  <SMILES>  (64) 
Cc1cs/c(=N/C(=O)N2CC=C(c3cn(C)cc3NC(=O)N3CC[C@H](O)C3)CC2)[n-]1

>  <Energy>  (64) 
121.22831410367056

>  <Genealogy>  (64) 
Cc1csc(=NC(=O)N2CC=C(c3cn(C)cc3NC(=O)N3CCC(O)C3)CC2)[n-]1 (protonated)
Cc1csc(=NC(=O)N2CC=C(c3cn(C)cc3NC(=O)N3CC[C@H](O)C3)CC2)[n-]1 (chirality)
Cc1cs/c(=N/C(=O)N2CC=C(c3cn(C)cc3NC(=O)N3CC[C@H](O)C3)CC2)[n-]1 (cis-trans isomerization)
Cc1cs/c(=N/C(=O)N2CC=C(c3cn(C)cc3NC(=O)N3CC[C@H](O)C3)CC2)[n-]1 (3D coordinates assigned)
Cc1cs/c(=N/C(=O)N2CC=C(c3cn(C)cc3NC(=O)N3CC[C@H](O)C3)CC2)[n-]1 (nonaromatic ring conformer: 121.22831410367056 kcal/mol)

>  <smiles>  (64) 
Cc1csc(=NC(=O)N2CC=C(c3cn(C)cc3NC(=O)N3CCC(O)C3)CC2)[nH]1

>  <score_type>  (64) 
oracle

>  <origin>  (64) 
adg

>  <m_score__min__energy>  (64) 
-9.6999999999999993

>  <m_primary>  (64) 
energy

$$$$
64:0
     RDKit          3D

 43 45  0  0  0  0  0  0  0  0999 V2000
   55.6860   29.3160   45.8000 H   0  0  0  0  0  0  0  0  0  0  0  0
   55.2570   29.3320   44.8490 N   0  0  0  0  0  0  0  0  0  0  0  0
   56.5340   29.6430   43.7260 S   0  0  0  0  0  0  0  0  0  0  0  0
   57.4530   28.4560   43.6660 O   0  0  0  0  0  0  0  0  0  0  0  0
   55.9420   29.8700   42.3640 O   0  0  0  0  0  0  0  0  0  0  0  0
   57.4450   31.0640   44.2470 C   0  0  0  0  0  0  0  0  0  0  0  0
   57.7020   32.1030   43.3390 C   0  0  0  0  0  0  0  0  0  0  0  0
   57.3378   32.0274   42.3038 H   0  0  0  0  0  0  0  0  0  0  0  0
   58.4180   33.2330   43.7430 C   0  0  0  0  0  0  0  0  0  0  0  0
   58.6234   34.0396   43.0238 H   0  0  0  0  0  0  0  0  0  0  0  0
   58.8730   33.3390   45.0590 C   0  0  0  0  0  0  0  0  0  0  0  0
   59.4292   34.2330   45.3775 H   0  0  0  0  0  0  0  0  0  0  0  0
   58.6230   32.3120   45.9710 C   0  0  0  0  0  0  0  0  0  0  0  0
   58.9692   32.4070   47.0108 H   0  0  0  0  0  0  0  0  0  0  0  0
   57.9310   31.1570   45.5670 C   0  0  0  0  0  0  0  0  0  0  0  0
   57.6240   30.1240   46.5180 N   0  0  0  0  0  0  0  0  0  0  0  0
   58.4510   29.2670   47.0510 C   0  0  0  0  0  0  0  0  0  0  0  0
   58.9800   29.4230   48.3480 C   0  0  0  0  0  0  0  0  0  0  0  0
   58.6952   30.2902   48.9618 H   0  0  0  0  0  0  0  0  0  0  0  0
   59.8680   28.4690   48.8480 C   0  0  0  0  0  0  0  0  0  0  0  0
   60.2740   28.5771   49.8646 H   0  0  0  0  0  0  0  0  0  0  0  0
   60.2320   27.4080   48.0830 N   0  0  0  0  0  0  0  0  0  0  0  0
   59.7650   27.2390   46.8150 C   0  0  0  0  0  0  0  0  0  0  0  0
   60.1510   26.0930   46.0390 N   0  0  0  0  0  0  0  0  0  0  0  0
   61.1280   26.0570   45.6690 H   0  0  0  0  0  0  0  0  0  0  0  0
   59.2470   25.0440   45.6490 C   0  0  0  0  0  0  0  0  0  0  0  0
   57.9570   25.3760   45.2100 C   0  0  0  0  0  0  0  0  0  0  0  0
   57.6430   26.4299   45.1844 H   0  0  0  0  0  0  0  0  0  0  0  0
   57.0680   24.3770   44.8050 C   0  0  0  0  0  0  0  0  0  0  0  0
   56.0553   24.6475   44.4714 H   0  0  0  0  0  0  0  0  0  0  0  0
   57.4610   23.0320   44.8220 C   0  0  0  0  0  0  0  0  0  0  0  0
   56.3490   21.7750   44.2930 S   0  0  0  0  0  0  0  0  0  0  0  0
   56.1980   21.8260   42.7980 O   0  0  0  0  0  0  0  0  0  0  0  0
   55.0000   21.9920   44.9200 O   0  0  0  0  0  0  0  0  0  0  0  0
   56.9580   20.2260   44.7570 N   0  0  0  0  0  0  0  0  0  0  0  0
   58.0000   20.2800   44.7030 H   0  0  0  0  0  0  0  0  0  0  0  0
   56.6530   19.5460   44.0240 H   0  0  0  0  0  0  0  0  0  0  0  0
   58.7600   22.6980   45.2280 C   0  0  0  0  0  0  0  0  0  0  0  0
   59.0811   21.6459   45.2258 H   0  0  0  0  0  0  0  0  0  0  0  0
   59.6500   23.6970   45.6360 C   0  0  0  0  0  0  0  0  0  0  0  0
   60.6698   23.4276   45.9481 H   0  0  0  0  0  0  0  0  0  0  0  0
   58.8610   28.1690   46.2840 C   0  0  0  0  0  0  0  0  0  0  0  0
   58.4728   28.0365   45.2633 H   0  0  0  0  0  0  0  0  0  0  0  0
  1  2  1  0
  2  3  1  0
  3  4  2  0
  3  5  2  0
  3  6  1  0
  6  7  2  0
  7  8  1  0
  7  9  1  0
  9 10  1  0
  9 11  2  0
 11 12  1  0
 11 13  1  0
 13 14  1  0
 13 15  2  0
 15 16  1  0
 16 17  2  0
 17 18  1  0
 18 19  1  0
 18 20  2  0
 20 21  1  0
 20 22  1  0
 22 23  1  0
 23 24  1  0
 24 25  1  0
 24 26  1  0
 26 27  2  0
 27 28  1  0
 27 29  1  0
 29 30  1  0
 29 31  2  0
 31 32  1  0
 32 33  2  0
 32 34  2  0
 32 35  1  0
 35 36  1  0
 35 37  1  0
 31 38  1  0
 38 39  1  0
 38 40  2  0
 40 41  1  0
 23 42  2  0
 42 43  1  0
 15  6  1  0
 42 17  1  0
 40 26  1  0
M  CHG  2   2  -1  22  -1
M  END
>  <UniqueID>  (65) 
59

>  <SMILES>  (65) 
[NH-]S(=O)(=O)c1ccccc1/N=c1\cc[n-]c(Nc2ccc(S(N)(=O)=O)cc2)c1

>  <Energy>  (65) 
58.65106752297755

>  <Genealogy>  (65) 
[NH-]S(=O)(=O)c1ccccc1N=c1cc[n-]c(Nc2ccc(S(N)(=O)=O)cc2)c1 (protonated)
[NH-]S(=O)(=O)c1ccccc1/N=c1\cc[n-]c(Nc2ccc(S(N)(=O)=O)cc2)c1 (cis-trans isomerization)
[NH-]S(=O)(=O)c1ccccc1/N=c1\cc[n-]c(Nc2ccc(S(N)(=O)=O)cc2)c1 (3D coordinates assigned)
[NH-]S(=O)(=O)c1ccccc1/N=c1\cc[n-]c(Nc2ccc(S(N)(=O)=O)cc2)c1 (optimized conformer: 58.65106752297755 kcal/mol)

>  <smiles>  (65) 
NS(=O)(=O)c1ccc(Nc2cc(=Nc3ccccc3S(N)(=O)=O)cc[nH]2)cc1

>  <score_type>  (65) 
oracle

>  <origin>  (65) 
adg

>  <m_score__min__energy>  (65) 
-13.470000000000001

>  <m_primary>  (65) 
energy

$$$$
65:0
     RDKit          3D

 42 44  0  0  0  0  0  0  0  0999 V2000
   61.7160   30.8310   47.1040 C   0  0  0  0  0  0  0  0  0  0  0  0
   60.2990   30.8180   47.2480 O   0  0  0  0  0  0  0  0  0  0  0  0
   59.4700   29.7480   46.8750 C   0  0  0  0  0  0  0  0  0  0  0  0
   59.1040   29.5190   45.5360 C   0  0  0  0  0  0  0  0  0  0  0  0
   58.2750   28.4470   45.2000 C   0  0  0  0  0  0  0  0  0  0  0  0
   57.7820   27.5840   46.1950 C   0  0  0  0  0  0  0  0  0  0  0  0
   56.8860   26.4440   45.8630 C   0  0  0  0  0  0  0  0  0  0  0  0
   57.3310   25.1820   45.4500 C   0  0  0  0  0  0  0  0  0  0  0  0
   55.9880   24.1980   45.1980 S   0  0  0  0  0  0  0  0  0  0  0  0
   54.9100   25.4080   45.6220 C   0  0  0  0  0  0  0  0  0  0  0  0
   53.6590   25.2740   45.6330 O   0  0  0  0  0  0  0  0  0  0  0  0
   55.5310   26.5550   45.9570 N   0  0  0  0  0  0  0  0  0  0  0  0
   58.1400   27.8240   47.5330 C   0  0  0  0  0  0  0  0  0  0  0  0
   59.0010   28.8830   47.8740 C   0  0  0  0  0  0  0  0  0  0  0  0
   59.3570   29.1380   49.2410 N   0  0  0  0  0  0  0  0  0  0  0  0
   58.6280   29.9510   50.1700 C   0  0  0  0  0  0  0  0  0  0  0  0
   58.0750   29.3940   51.1550 O   0  0  0  0  0  0  0  0  0  0  0  0
   58.4520   31.4020   49.9630 C   0  0  0  0  0  0  0  0  0  0  0  0
   57.4910   32.0020   50.5180 O   0  0  0  0  0  0  0  0  0  0  0  0
   59.3840   32.1380   49.1550 N   0  0  0  0  0  0  0  0  0  0  0  0
   59.2710   33.5800   48.9460 C   0  0  0  0  0  0  0  0  0  0  0  0
   58.8970   33.8740   47.5190 C   0  0  0  0  0  0  0  0  0  0  0  0
   57.7280   33.3330   46.9590 C   0  0  0  0  0  0  0  0  0  0  0  0
   57.3780   33.6290   45.6370 C   0  0  0  0  0  0  0  0  0  0  0  0
   58.1900   34.4690   44.8690 C   0  0  0  0  0  0  0  0  0  0  0  0
   59.3510   35.0140   45.4210 C   0  0  0  0  0  0  0  0  0  0  0  0
   59.7050   34.7210   46.7420 C   0  0  0  0  0  0  0  0  0  0  0  0
   62.1856   30.8353   48.0987 H   0  0  0  0  0  0  0  0  0  0  0  0
   62.0366   29.9358   46.5510 H   0  0  0  0  0  0  0  0  0  0  0  0
   62.0201   31.7320   46.5510 H   0  0  0  0  0  0  0  0  0  0  0  0
   59.4741   30.1903   44.7471 H   0  0  0  0  0  0  0  0  0  0  0  0
   58.0050   28.2759   44.1475 H   0  0  0  0  0  0  0  0  0  0  0  0
   58.3809   24.8838   45.3133 H   0  0  0  0  0  0  0  0  0  0  0  0
   57.7408   27.1739   48.3255 H   0  0  0  0  0  0  0  0  0  0  0  0
   60.1580   31.6290   48.6690 H   0  0  0  0  0  0  0  0  0  0  0  0
   58.4964   33.9838   49.6145 H   0  0  0  0  0  0  0  0  0  0  0  0
   60.2411   34.0500   49.1653 H   0  0  0  0  0  0  0  0  0  0  0  0
   57.0855   32.6744   47.5618 H   0  0  0  0  0  0  0  0  0  0  0  0
   56.4632   33.2005   45.2016 H   0  0  0  0  0  0  0  0  0  0  0  0
   57.9141   34.7006   43.8296 H   0  0  0  0  0  0  0  0  0  0  0  0
   59.9885   35.6752   44.8157 H   0  0  0  0  0  0  0  0  0  0  0  0
   60.6188   35.1550   47.1739 H   0  0  0  0  0  0  0  0  0  0  0  0
  1  2  1  0
  2  3  1  0
  3  4  2  0
  4  5  1  0
  5  6  2  0
  6  7  1  0
  7  8  2  0
  8  9  1  0
  9 10  1  0
 10 11  2  0
 10 12  1  0
  6 13  1  0
 13 14  2  0
 14 15  1  0
 15 16  1  0
 16 17  2  0
 16 18  1  0
 18 19  2  0
 18 20  1  0
 20 21  1  0
 21 22  1  0
 22 23  2  0
 23 24  1  0
 24 25  2  0
 25 26  1  0
 26 27  2  0
 14  3  1  0
 27 22  1  0
 12  7  1  0
  1 28  1  0
  1 29  1  0
  1 30  1  0
  4 31  1  0
  5 32  1  0
  8 33  1  0
 13 34  1  0
 20 35  1  0
 21 36  1  0
 21 37  1  0
 23 38  1  0
 24 39  1  0
 25 40  1  0
 26 41  1  0
 27 42  1  0
M  CHG  2  12  -1  15  -1
M  END
>  <UniqueID>  (66) 
60

>  <SMILES>  (66) 
COc1ccc(-c2csc(=O)[n-]2)cc1[N-]C(=O)C(=O)NCc1ccccc1

>  <Energy>  (66) 
79.21783091892313

>  <Genealogy>  (66) 
COc1ccc(-c2csc(=O)[n-]2)cc1[N-]C(=O)C(=O)NCc1ccccc1 (protonated)
COc1ccc(-c2csc(=O)[n-]2)cc1[N-]C(=O)C(=O)NCc1ccccc1 (3D coordinates assigned)
COc1ccc(-c2csc(=O)[n-]2)cc1[N-]C(=O)C(=O)NCc1ccccc1 (optimized conformer: 79.21783091892313 kcal/mol)

>  <smiles>  (66) 
COc1ccc(-c2csc(=O)[nH]2)cc1NC(=O)C(=O)NCc1ccccc1

>  <score_type>  (66) 
oracle

>  <origin>  (66) 
adg

>  <m_score__min__energy>  (66) 
-11.18

>  <m_primary>  (66) 
energy

$$$$
66:0
     RDKit          3D

 66 69  0  0  0  0  0  0  0  0999 V2000
   63.1520   33.8310   46.6080 C   0  0  0  0  0  0  0  0  0  0  0  0
   63.7150   32.7170   47.3910 N   0  0  0  0  0  0  0  0  0  0  0  0
   63.8880   33.0850   48.8040 C   0  0  0  0  0  0  0  0  0  0  0  0
   62.9690   31.4480   47.2180 C   0  0  0  0  0  0  0  0  0  0  0  0
   61.4220   31.5490   47.1490 C   0  0  0  0  0  0  0  0  0  0  0  0
   60.6530   31.4660   48.4630 C   0  0  0  0  0  0  0  0  0  0  0  0
   60.3240   30.2660   49.1330 C   0  0  0  0  0  0  0  0  0  0  0  0
   60.6890   28.8410   48.7640 C   0  0  0  0  0  0  0  0  0  0  0  0
   59.4810   27.9760   48.3430 C   0  0  0  0  0  0  0  0  0  0  0  0
   59.6570   27.3440   46.9910 C   0  0  0  0  0  0  0  0  0  0  0  0
   60.8180   27.0400   46.6120 O   0  0  0  0  0  0  0  0  0  0  0  0
   58.5550   27.0650   46.1150 N   0  0  0  0  0  0  0  0  0  0  0  0
   57.2620   27.7450   46.1010 C   0  0  0  0  0  0  0  0  0  0  0  0
   57.3040   28.9540   45.2080 C   0  0  0  0  0  0  0  0  0  0  0  0
   58.4720   29.7300   45.1310 C   0  0  0  0  0  0  0  0  0  0  0  0
   58.5080   30.8730   44.3280 C   0  0  0  0  0  0  0  0  0  0  0  0
   57.3850   31.2400   43.5810 C   0  0  0  0  0  0  0  0  0  0  0  0
   56.2260   30.4610   43.6340 C   0  0  0  0  0  0  0  0  0  0  0  0
   56.1840   29.3190   44.4400 C   0  0  0  0  0  0  0  0  0  0  0  0
   59.3660   30.6180   50.0700 C   0  0  0  0  0  0  0  0  0  0  0  0
   58.5590   29.8170   50.8870 C   0  0  0  0  0  0  0  0  0  0  0  0
   57.5950   30.4440   51.6890 C   0  0  0  0  0  0  0  0  0  0  0  0
   57.4280   31.8390   51.6390 C   0  0  0  0  0  0  0  0  0  0  0  0
   58.2130   32.6190   50.7750 C   0  0  0  0  0  0  0  0  0  0  0  0
   59.1850   31.9750   49.9910 C   0  0  0  0  0  0  0  0  0  0  0  0
   59.9580   32.5090   49.0160 N   0  0  0  0  0  0  0  0  0  0  0  0
   59.8940   33.9020   48.5420 C   0  0  0  0  0  0  0  0  0  0  0  0
   59.0980   34.0120   47.2670 C   0  0  0  0  0  0  0  0  0  0  0  0
   59.6420   34.6570   46.1430 C   0  0  0  0  0  0  0  0  0  0  0  0
   58.9060   34.7500   44.9590 C   0  0  0  0  0  0  0  0  0  0  0  0
   57.6270   34.1900   44.8830 C   0  0  0  0  0  0  0  0  0  0  0  0
   57.0860   33.5320   45.9900 C   0  0  0  0  0  0  0  0  0  0  0  0
   57.8180   33.4380   47.1780 C   0  0  0  0  0  0  0  0  0  0  0  0
   62.7633   34.6001   47.2917 H   0  0  0  0  0  0  0  0  0  0  0  0
   63.9378   34.2674   45.9739 H   0  0  0  0  0  0  0  0  0  0  0  0
   62.3346   33.4572   45.9739 H   0  0  0  0  0  0  0  0  0  0  0  0
   64.6760   32.5460   47.0090 H   0  0  0  0  0  0  0  0  0  0  0  0
   63.5071   32.2748   49.4432 H   0  0  0  0  0  0  0  0  0  0  0  0
   64.9560   33.2456   49.0130 H   0  0  0  0  0  0  0  0  0  0  0  0
   63.3303   34.0099   49.0130 H   0  0  0  0  0  0  0  0  0  0  0  0
   63.3142   30.9841   46.2822 H   0  0  0  0  0  0  0  0  0  0  0  0
   63.1789   30.8648   48.1268 H   0  0  0  0  0  0  0  0  0  0  0  0
   61.1751   32.5143   46.6828 H   0  0  0  0  0  0  0  0  0  0  0  0
   61.1075   30.6598   46.5830 H   0  0  0  0  0  0  0  0  0  0  0  0
   61.4019   28.8715   47.9269 H   0  0  0  0  0  0  0  0  0  0  0  0
   61.1163   28.3767   49.6650 H   0  0  0  0  0  0  0  0  0  0  0  0
   59.3438   27.1785   49.0880 H   0  0  0  0  0  0  0  0  0  0  0  0
   58.6046   28.6384   48.2861 H   0  0  0  0  0  0  0  0  0  0  0  0
   56.4932   27.0504   45.7316 H   0  0  0  0  0  0  0  0  0  0  0  0
   57.0239   28.0707   47.1243 H   0  0  0  0  0  0  0  0  0  0  0  0
   59.3629   29.4366   45.7057 H   0  0  0  0  0  0  0  0  0  0  0  0
   59.4212   31.4847   44.2837 H   0  0  0  0  0  0  0  0  0  0  0  0
   57.4135   32.1417   42.9516 H   0  0  0  0  0  0  0  0  0  0  0  0
   55.3450   30.7467   43.0405 H   0  0  0  0  0  0  0  0  0  0  0  0
   55.2723   28.7045   44.4733 H   0  0  0  0  0  0  0  0  0  0  0  0
   58.6783   28.7236   50.8993 H   0  0  0  0  0  0  0  0  0  0  0  0
   56.9661   29.8413   52.3608 H   0  0  0  0  0  0  0  0  0  0  0  0
   56.6772   32.3227   52.2812 H   0  0  0  0  0  0  0  0  0  0  0  0
   58.0705   33.7080   50.7133 H   0  0  0  0  0  0  0  0  0  0  0  0
   59.4180   34.5221   49.3159 H   0  0  0  0  0  0  0  0  0  0  0  0
   60.9190   34.2474   48.3416 H   0  0  0  0  0  0  0  0  0  0  0  0
   60.6516   35.0905   46.1957 H   0  0  0  0  0  0  0  0  0  0  0  0
   59.3332   35.2644   44.0856 H   0  0  0  0  0  0  0  0  0  0  0  0
   57.0470   34.2676   43.9516 H   0  0  0  0  0  0  0  0  0  0  0  0
   56.0821   33.0868   45.9273 H   0  0  0  0  0  0  0  0  0  0  0  0
   57.3908   32.9133   48.0453 H   0  0  0  0  0  0  0  0  0  0  0  0
  1  2  1  0
  2  3  1  0
  2  4  1  0
  4  5  1  0
  5  6  1  0
  6  7  2  0
  7  8  1  0
  8  9  1  0
  9 10  1  0
 10 11  2  0
 10 12  1  0
 12 13  1  0
 13 14  1  0
 14 15  2  0
 15 16  1  0
 16 17  2  0
 17 18  1  0
 18 19  2  0
  7 20  1  0
 20 21  2  0
 21 22  1  0
 22 23  2  0
 23 24  1  0
 24 25  2  0
 25 26  1  0
 26 27  1  0
 27 28  1  0
 28 29  2  0
 29 30  1  0
 30 31  2  0
 31 32  1  0
 32 33  2  0
 26  6  1  0
 33 28  1  0
 19 14  1  0
 25 20  1  0
  1 34  1  0
  1 35  1  0
  1 36  1  0
  2 37  1  0
  3 38  1  0
  3 39  1  0
  3 40  1  0
  4 41  1  0
  4 42  1  0
  5 43  1  0
  5 44  1  0
  8 45  1  0
  8 46  1  0
  9 47  1  0
  9 48  1  0
 13 49  1  0
 13 50  1  0
 15 51  1  0
 16 52  1  0
 17 53  1  0
 18 54  1  0
 19 55  1  0
 21 56  1  0
 22 57  1  0
 23 58  1  0
 24 59  1  0
 27 60  1  0
 27 61  1  0
 29 62  1  0
 30 63  1  0
 31 64  1  0
 32 65  1  0
 33 66  1  0
M  CHG  2   2   1  12  -1
M  END
>  <UniqueID>  (67) 
61

>  <SMILES>  (67) 
C[NH+](C)CCc1c(CCC(=O)[N-]Cc2ccccc2)c2ccccc2n1Cc1ccccc1

>  <Energy>  (67) 
105.1582229109919

>  <Genealogy>  (67) 
C[NH+](C)CCc1c(CCC(=O)[N-]Cc2ccccc2)c2ccccc2n1Cc1ccccc1 (protonated)
C[NH+](C)CCc1c(CCC(=O)[N-]Cc2ccccc2)c2ccccc2n1Cc1ccccc1 (3D coordinates assigned)
C[NH+](C)CCc1c(CCC(=O)[N-]Cc2ccccc2)c2ccccc2n1Cc1ccccc1 (optimized conformer: 105.1582229109919 kcal/mol)

>  <smiles>  (67) 
CN(C)CCc1c(CCC(=O)NCc2ccccc2)c2ccccc2n1Cc1ccccc1

>  <score_type>  (67) 
oracle

>  <origin>  (67) 
adg

>  <m_score__min__energy>  (67) 
-10.15

>  <m_primary>  (67) 
energy

$$$$
67:0
     RDKit          3D

 45 48  0  0  0  0  0  0  0  0999 V2000
   55.2450   29.3490   44.6240 O   0  0  0  0  0  0  0  0  0  0  0  0
   56.3710   29.8930   44.4830 C   0  0  0  0  0  0  0  0  0  0  0  0
   57.4600   29.1560   43.7460 C   0  0  0  0  0  0  0  0  0  0  0  0
   57.6940   27.8390   44.3350 N   0  0  0  0  0  0  0  0  0  0  0  0
   57.5310   27.4730   45.7080 C   0  0  0  0  0  0  0  0  0  0  0  0
   57.3890   28.2940   46.6510 O   0  0  0  0  0  0  0  0  0  0  0  0
   57.5470   26.0200   45.8430 C   0  0  0  0  0  0  0  0  0  0  0  0
   57.4290   25.2090   46.9690 C   0  0  0  0  0  0  0  0  0  0  0  0
   57.4690   23.8150   46.7860 C   0  0  0  0  0  0  0  0  0  0  0  0
   57.6190   23.2660   45.4940 C   0  0  0  0  0  0  0  0  0  0  0  0
   57.7330   24.1080   44.3710 C   0  0  0  0  0  0  0  0  0  0  0  0
   57.6940   25.4850   44.5800 C   0  0  0  0  0  0  0  0  0  0  0  0
   57.7730   26.5940   43.6370 C   0  0  0  0  0  0  0  0  0  0  0  0
   57.8740   26.4880   42.3850 O   0  0  0  0  0  0  0  0  0  0  0  0
   56.5240   31.2650   44.8730 N   0  0  0  0  0  0  0  0  0  0  0  0
   57.6520   31.8310   45.5490 C   0  0  0  0  0  0  0  0  0  0  0  0
   57.8210   33.2210   45.6500 C   0  0  0  0  0  0  0  0  0  0  0  0
   58.9490   33.7500   46.2810 C   0  0  0  0  0  0  0  0  0  0  0  0
   59.9350   32.8980   46.8080 C   0  0  0  0  0  0  0  0  0  0  0  0
   61.1040   33.4360   47.4560 N   0  0  0  0  0  0  0  0  0  0  0  0
   62.3740   33.5400   46.7310 C   0  0  0  0  0  0  0  0  0  0  0  0
   63.5400   33.4660   47.7200 C   0  0  0  0  0  0  0  0  0  0  0  0
   63.3790   34.4120   48.7600 O   0  0  0  0  0  0  0  0  0  0  0  0
   62.2360   34.0890   49.5300 C   0  0  0  0  0  0  0  0  0  0  0  0
   60.9610   34.2160   48.6900 C   0  0  0  0  0  0  0  0  0  0  0  0
   59.7800   31.5080   46.6710 C   0  0  0  0  0  0  0  0  0  0  0  0
   58.6510   30.9820   46.0380 C   0  0  0  0  0  0  0  0  0  0  0  0
   57.1619   29.0317   42.6945 H   0  0  0  0  0  0  0  0  0  0  0  0
   58.3887   29.7412   43.8173 H   0  0  0  0  0  0  0  0  0  0  0  0
   57.3081   25.6455   47.9714 H   0  0  0  0  0  0  0  0  0  0  0  0
   57.3828   23.1475   47.6561 H   0  0  0  0  0  0  0  0  0  0  0  0
   57.6470   22.1741   45.3638 H   0  0  0  0  0  0  0  0  0  0  0  0
   57.8493   23.6913   43.3596 H   0  0  0  0  0  0  0  0  0  0  0  0
   57.0613   33.8967   45.2301 H   0  0  0  0  0  0  0  0  0  0  0  0
   59.0666   34.8404   46.3661 H   0  0  0  0  0  0  0  0  0  0  0  0
   62.4526   32.7126   46.0105 H   0  0  0  0  0  0  0  0  0  0  0  0
   62.4105   34.5004   46.1959 H   0  0  0  0  0  0  0  0  0  0  0  0
   63.5806   32.4562   48.1544 H   0  0  0  0  0  0  0  0  0  0  0  0
   64.4729   33.6897   47.1818 H   0  0  0  0  0  0  0  0  0  0  0  0
   62.3267   33.0549   49.8939 H   0  0  0  0  0  0  0  0  0  0  0  0
   62.1718   34.7884   50.3766 H   0  0  0  0  0  0  0  0  0  0  0  0
   60.1041   33.8362   49.2658 H   0  0  0  0  0  0  0  0  0  0  0  0
   60.7950   35.2734   48.4362 H   0  0  0  0  0  0  0  0  0  0  0  0
   60.5520   30.8303   47.0644 H   0  0  0  0  0  0  0  0  0  0  0  0
   58.5467   29.8930   45.9233 H   0  0  0  0  0  0  0  0  0  0  0  0
  1  2  2  0
  2  3  1  0
  3  4  1  0
  4  5  1  0
  5  6  2  0
  5  7  1  0
  7  8  2  0
  8  9  1  0
  9 10  2  0
 10 11  1  0
 11 12  2  0
 12 13  1  0
 13 14  2  0
  2 15  1  0
 15 16  1  0
 16 17  2  0
 17 18  1  0
 18 19  2  0
 19 20  1  0
 20 21  1  0
 21 22  1  0
 22 23  1  0
 23 24  1  0
 24 25  1  0
 19 26  1  0
 26 27  2  0
 13  4  1  0
 27 16  1  0
 12  7  1  0
 25 20  1  0
  3 28  1  0
  3 29  1  0
  8 30  1  0
  9 31  1  0
 10 32  1  0
 11 33  1  0
 17 34  1  0
 18 35  1  0
 21 36  1  0
 21 37  1  0
 22 38  1  0
 22 39  1  0
 24 40  1  0
 24 41  1  0
 25 42  1  0
 25 43  1  0
 26 44  1  0
 27 45  1  0
M  CHG  1  15  -1
M  END
>  <UniqueID>  (68) 
62

>  <SMILES>  (68) 
O=C(CN1C(=O)c2ccccc2C1=O)[N-]c1ccc(N2CCOCC2)cc1

>  <Energy>  (68) 
90.4506972366431

>  <Genealogy>  (68) 
O=C(CN1C(=O)c2ccccc2C1=O)[N-]c1ccc(N2CCOCC2)cc1 (protonated)
O=C(CN1C(=O)c2ccccc2C1=O)[N-]c1ccc(N2CCOCC2)cc1 (3D coordinates assigned)
O=C(CN1C(=O)c2ccccc2C1=O)[N-]c1ccc(N2CCOCC2)cc1 (nonaromatic ring conformer: 90.4506972366431 kcal/mol)

>  <smiles>  (68) 
O=C(CN1C(=O)c2ccccc2C1=O)Nc1ccc(N2CCOCC2)cc1

>  <score_type>  (68) 
oracle

>  <origin>  (68) 
adg

>  <m_score__min__energy>  (68) 
-9.9399999999999995

>  <m_primary>  (68) 
energy

$$$$
68:0
     RDKit          3D

 50 53  0  0  0  0  0  0  0  0999 V2000
   56.4250   29.4540   44.4170 C   0  0  0  0  0  0  0  0  0  0  0  0
   57.6600   29.1080   44.8110 C   0  0  0  0  0  0  0  0  0  0  0  0
   58.1560   27.8090   45.0190 C   0  0  0  0  0  0  0  0  0  0  0  0
   57.6270   26.6030   44.7360 C   0  0  0  0  0  0  0  0  0  0  0  0
   57.2010   25.5970   45.7280 C   0  0  0  0  0  0  0  0  0  0  0  0
   55.9430   25.6960   46.3390 C   0  0  0  0  0  0  0  0  0  0  0  0
   55.0610   26.7100   45.9820 O   0  0  0  0  0  0  0  0  0  0  0  0
   55.5730   24.7910   47.2830 N   0  0  0  0  0  0  0  0  0  0  0  0
   56.4100   23.7930   47.6610 C   0  0  0  0  0  0  0  0  0  0  0  0
   56.0440   22.9630   48.5330 O   0  0  0  0  0  0  0  0  0  0  0  0
   57.6440   23.6910   47.1050 N   0  0  0  0  0  0  0  0  0  0  0  0
   58.0620   24.5720   46.1590 C   0  0  0  0  0  0  0  0  0  0  0  0
   59.2230   24.4610   45.6810 O   0  0  0  0  0  0  0  0  0  0  0  0
   59.4010   27.9600   45.6090 C   0  0  0  0  0  0  0  0  0  0  0  0
   59.6480   29.3140   45.6850 C   0  0  0  0  0  0  0  0  0  0  0  0
   60.8990   29.9200   46.2470 C   0  0  0  0  0  0  0  0  0  0  0  0
   58.5950   30.0120   45.2040 N   0  0  0  0  0  0  0  0  0  0  0  0
   58.4970   31.4470   45.1440 C   0  0  0  0  0  0  0  0  0  0  0  0
   57.8920   32.0680   44.0430 C   0  0  0  0  0  0  0  0  0  0  0  0
   57.7880   33.4600   43.9930 C   0  0  0  0  0  0  0  0  0  0  0  0
   58.2930   34.2410   45.0370 C   0  0  0  0  0  0  0  0  0  0  0  0
   58.9160   33.6330   46.1410 C   0  0  0  0  0  0  0  0  0  0  0  0
   59.4370   34.4510   47.2590 C   0  0  0  0  0  0  0  0  0  0  0  0
   58.8920   35.5570   47.5200 O   0  0  0  0  0  0  0  0  0  0  0  0
   60.5660   34.0250   48.0390 N   0  0  0  0  0  0  0  0  0  0  0  0
   60.4940   33.5660   49.4240 C   0  0  0  0  0  0  0  0  0  0  0  0
   61.9180   33.0690   49.7840 C   0  0  0  0  0  0  0  0  0  0  0  0
   62.6910   33.1770   48.5540 N   0  0  0  0  0  0  0  0  0  0  0  0
   64.0860   32.7900   48.3870 C   0  0  0  0  0  0  0  0  0  0  0  0
   61.8620   33.7270   47.5550 C   0  0  0  0  0  0  0  0  0  0  0  0
   62.2220   33.8750   46.3560 O   0  0  0  0  0  0  0  0  0  0  0  0
   59.0000   32.2310   46.1930 C   0  0  0  0  0  0  0  0  0  0  0  0
   56.1649   30.5154   44.2916 H   0  0  0  0  0  0  0  0  0  0  0  0
   55.6726   28.6763   44.2194 H   0  0  0  0  0  0  0  0  0  0  0  0
   57.5017   26.3459   43.6738 H   0  0  0  0  0  0  0  0  0  0  0  0
   60.0655   27.1530   45.9514 H   0  0  0  0  0  0  0  0  0  0  0  0
   60.8551   29.8987   47.3459 H   0  0  0  0  0  0  0  0  0  0  0  0
   61.7714   29.3446   45.9037 H   0  0  0  0  0  0  0  0  0  0  0  0
   60.9883   30.9612   45.9037 H   0  0  0  0  0  0  0  0  0  0  0  0
   57.4983   31.4581   43.2166 H   0  0  0  0  0  0  0  0  0  0  0  0
   57.3073   33.9433   43.1296 H   0  0  0  0  0  0  0  0  0  0  0  0
   58.2024   35.3364   44.9944 H   0  0  0  0  0  0  0  0  0  0  0  0
   60.1992   34.3935   50.0861 H   0  0  0  0  0  0  0  0  0  0  0  0
   59.7461   32.7686   49.5459 H   0  0  0  0  0  0  0  0  0  0  0  0
   62.3577   33.6995   50.5709 H   0  0  0  0  0  0  0  0  0  0  0  0
   61.9053   32.0385   50.1686 H   0  0  0  0  0  0  0  0  0  0  0  0
   64.5515   32.6609   49.3752 H   0  0  0  0  0  0  0  0  0  0  0  0
   64.1396   31.8431   47.8299 H   0  0  0  0  0  0  0  0  0  0  0  0
   64.6198   33.5740   47.8299 H   0  0  0  0  0  0  0  0  0  0  0  0
   59.4640   31.7444   47.0635 H   0  0  0  0  0  0  0  0  0  0  0  0
  1  2  2  0
  2  3  1  0
  3  4  2  3
  4  5  1  0
  5  6  2  0
  6  7  1  0
  6  8  1  0
  8  9  1  0
  9 10  2  0
  9 11  1  0
 11 12  1  0
 12 13  2  0
  3 14  1  0
 14 15  2  0
 15 16  1  0
 15 17  1  0
 17 18  1  0
 18 19  2  0
 19 20  1  0
 20 21  2  0
 21 22  1  0
 22 23  1  0
 23 24  2  0
 23 25  1  0
 25 26  1  0
 26 27  1  0
 27 28  1  0
 28 29  1  0
 28 30  1  0
 30 31  2  0
 22 32  2  0
 17  2  1  0
 32 18  1  0
 12  5  1  0
 30 25  1  0
  1 33  1  0
  1 34  1  0
  4 35  1  0
 14 36  1  0
 16 37  1  0
 16 38  1  0
 16 39  1  0
 19 40  1  0
 20 41  1  0
 21 42  1  0
 26 43  1  0
 26 44  1  0
 27 45  1  0
 27 46  1  0
 29 47  1  0
 29 48  1  0
 29 49  1  0
 32 50  1  0
M  CHG  3   7  -1   8  -1  11  -1
M  END
>  <UniqueID>  (69) 
63

>  <SMILES>  (69) 
C=c1c(=Cc2c([O-])[n-]c(=O)[n-]c2=O)cc(C)n1-c1cccc(C(=O)N2CCN(C)C2=O)c1

>  <Energy>  (69) 
118.63598714257257

>  <Genealogy>  (69) 
C=c1c(=Cc2c([O-])[n-]c(=O)[n-]c2=O)cc(C)n1-c1cccc(C(=O)N2CCN(C)C2=O)c1 (protonated)
C=c1c(=Cc2c([O-])[n-]c(=O)[n-]c2=O)cc(C)n1-c1cccc(C(=O)N2CCN(C)C2=O)c1 (3D coordinates assigned)
C=c1c(=Cc2c([O-])[n-]c(=O)[n-]c2=O)cc(C)n1-c1cccc(C(=O)N2CCN(C)C2=O)c1 (nonaromatic ring conformer: 118.63598714257257 kcal/mol)

>  <smiles>  (69) 
C=c1c(=Cc2c(O)[nH]c(=O)[nH]c2=O)cc(C)n1-c1cccc(C(=O)N2CCN(C)C2=O)c1

>  <score_type>  (69) 
oracle

>  <origin>  (69) 
adg

>  <m_score__min__energy>  (69) 
-16.829999999999998

>  <m_primary>  (69) 
energy

$$$$
69:0
     RDKit          3D

 43 45  0  0  0  0  0  0  0  0999 V2000
   57.2510   22.7020   49.2500 O   0  0  0  0  0  0  0  0  0  0  0  0
   56.9810   22.8480   48.0280 C   0  0  0  0  0  0  0  0  0  0  0  0
   56.1670   24.0260   47.5710 C   0  0  0  0  0  0  0  0  0  0  0  0
   56.3800   24.3100   46.1420 N   0  0  0  0  0  0  0  0  0  0  0  0
   56.2580   25.6690   45.6760 C   0  0  0  0  0  0  0  0  0  0  0  0
   55.2550   26.3580   46.0100 O   0  0  0  0  0  0  0  0  0  0  0  0
   57.3510   26.3110   44.8690 C   0  0  0  0  0  0  0  0  0  0  0  0
   58.2770   27.1140   45.7890 C   0  0  0  0  0  0  0  0  0  0  0  0
   58.4260   28.5630   45.3230 C   0  0  0  0  0  0  0  0  0  0  0  0
   57.8120   28.7290   44.0060 N   0  0  0  0  0  0  0  0  0  0  0  0
   56.7050   30.0680   44.0340 S   0  0  0  0  0  0  0  0  0  0  0  0
   56.2510   30.3600   42.6310 O   0  0  0  0  0  0  0  0  0  0  0  0
   55.5010   29.7050   44.8600 O   0  0  0  0  0  0  0  0  0  0  0  0
   57.4840   31.5060   44.6960 C   0  0  0  0  0  0  0  0  0  0  0  0
   57.7920   32.5830   43.8520 C   0  0  0  0  0  0  0  0  0  0  0  0
   58.4350   33.7150   44.3610 C   0  0  0  0  0  0  0  0  0  0  0  0
   58.7780   33.7760   45.7180 C   0  0  0  0  0  0  0  0  0  0  0  0
   59.6570   35.3230   46.4170 Br  0  0  0  0  0  0  0  0  0  0  0  0
   58.4760   32.7010   46.5630 C   0  0  0  0  0  0  0  0  0  0  0  0
   57.8330   31.5670   46.0540 C   0  0  0  0  0  0  0  0  0  0  0  0
   56.6220   23.2270   45.2140 C   0  0  0  0  0  0  0  0  0  0  0  0
   56.3500   23.3570   43.8360 C   0  0  0  0  0  0  0  0  0  0  0  0
   56.6090   22.2960   42.9630 C   0  0  0  0  0  0  0  0  0  0  0  0
   57.1390   21.0980   43.4520 C   0  0  0  0  0  0  0  0  0  0  0  0
   57.3990   20.9540   44.8170 C   0  0  0  0  0  0  0  0  0  0  0  0
   57.1290   22.0060   45.6980 C   0  0  0  0  0  0  0  0  0  0  0  0
   57.3770   21.8430   47.0960 N   0  0  0  0  0  0  0  0  0  0  0  0
   55.1014   23.8096   47.7370 H   0  0  0  0  0  0  0  0  0  0  0  0
   56.4832   24.9075   48.1480 H   0  0  0  0  0  0  0  0  0  0  0  0
   57.9330   25.5303   44.3573 H   0  0  0  0  0  0  0  0  0  0  0  0
   56.9028   26.9879   44.1268 H   0  0  0  0  0  0  0  0  0  0  0  0
   57.8594   27.1087   46.8066 H   0  0  0  0  0  0  0  0  0  0  0  0
   59.2714   26.6443   45.7665 H   0  0  0  0  0  0  0  0  0  0  0  0
   57.9300   29.2304   46.0432 H   0  0  0  0  0  0  0  0  0  0  0  0
   59.4950   28.8139   45.2579 H   0  0  0  0  0  0  0  0  0  0  0  0
   57.5266   32.5367   42.7855 H   0  0  0  0  0  0  0  0  0  0  0  0
   58.6718   34.5584   43.6957 H   0  0  0  0  0  0  0  0  0  0  0  0
   58.7446   32.7480   47.6287 H   0  0  0  0  0  0  0  0  0  0  0  0
   57.6008   30.7223   46.7192 H   0  0  0  0  0  0  0  0  0  0  0  0
   55.9323   24.2971   43.4466 H   0  0  0  0  0  0  0  0  0  0  0  0
   56.3954   22.4039   41.8893 H   0  0  0  0  0  0  0  0  0  0  0  0
   57.3513   20.2685   42.7615 H   0  0  0  0  0  0  0  0  0  0  0  0
   57.8170   20.0112   45.1996 H   0  0  0  0  0  0  0  0  0  0  0  0
  1  2  2  0
  2  3  1  0
  3  4  1  0
  4  5  1  0
  5  6  2  0
  5  7  1  0
  7  8  1  0
  8  9  1  0
  9 10  1  0
 10 11  1  0
 11 12  2  0
 11 13  2  0
 11 14  1  0
 14 15  2  0
 15 16  1  0
 16 17  2  0
 17 18  1  0
 17 19  1  0
 19 20  2  0
  4 21  1  0
 21 22  2  0
 22 23  1  0
 23 24  2  0
 24 25  1  0
 25 26  2  0
 26 27  1  0
 27  2  1  0
 20 14  1  0
 26 21  1  0
  3 28  1  0
  3 29  1  0
  7 30  1  0
  7 31  1  0
  8 32  1  0
  8 33  1  0
  9 34  1  0
  9 35  1  0
 15 36  1  0
 16 37  1  0
 19 38  1  0
 20 39  1  0
 22 40  1  0
 23 41  1  0
 24 42  1  0
 25 43  1  0
M  CHG  2  10  -1  27  -1
M  END
>  <UniqueID>  (70) 
64

>  <SMILES>  (70) 
O=C1CN(C(=O)CCC[N-]S(=O)(=O)c2ccc(Br)cc2)c2ccccc2[N-]1

>  <Energy>  (70) 
45.24404920847785

>  <Genealogy>  (70) 
O=C1CN(C(=O)CCC[N-]S(=O)(=O)c2ccc(Br)cc2)c2ccccc2[N-]1 (protonated)
O=C1CN(C(=O)CCC[N-]S(=O)(=O)c2ccc(Br)cc2)c2ccccc2[N-]1 (3D coordinates assigned)
O=C1CN(C(=O)CCC[N-]S(=O)(=O)c2ccc(Br)cc2)c2ccccc2[N-]1 (nonaromatic ring conformer: 45.24404920847785 kcal/mol)

>  <smiles>  (70) 
O=C1CN(C(=O)CCCNS(=O)(=O)c2ccc(Br)cc2)c2ccccc2N1

>  <score_type>  (70) 
oracle

>  <origin>  (70) 
adg

>  <m_score__min__energy>  (70) 
-12.48

>  <m_primary>  (70) 
energy

$$$$
70:0
     RDKit          3D

 54 57  0  0  0  0  0  0  0  0999 V2000
   54.5860   28.8510   54.5290 C   0  0  0  0  0  0  0  0  0  0  0  0
   54.9560   29.8370   53.6950 C   0  0  0  0  0  0  0  0  0  0  0  0
   54.1270   30.5140   52.7850 C   0  0  0  0  0  0  0  0  0  0  0  0
   52.7880   30.5250   52.6420 C   0  0  0  0  0  0  0  0  0  0  0  0
   52.0590   30.8450   51.4060 C   0  0  0  0  0  0  0  0  0  0  0  0
   52.1110   30.0860   50.3010 N   0  0  0  0  0  0  0  0  0  0  0  0
   51.3840   30.7840   49.4040 C   0  0  0  0  0  0  0  0  0  0  0  0
   51.1950   30.3890   48.2260 O   0  0  0  0  0  0  0  0  0  0  0  0
   50.8860   31.9520   49.8660 N   0  0  0  0  0  0  0  0  0  0  0  0
   51.3350   31.9880   51.1300 C   0  0  0  0  0  0  0  0  0  0  0  0
   51.1090   33.0610   51.9910 O   0  0  0  0  0  0  0  0  0  0  0  0
   54.9690   31.2480   51.9710 C   0  0  0  0  0  0  0  0  0  0  0  0
   56.2600   31.0470   52.4230 C   0  0  0  0  0  0  0  0  0  0  0  0
   57.4620   31.6330   51.7730 C   0  0  0  0  0  0  0  0  0  0  0  0
   57.8070   32.8210   52.0080 O   0  0  0  0  0  0  0  0  0  0  0  0
   58.2630   30.8530   50.8740 N   0  0  0  0  0  0  0  0  0  0  0  0
   58.4620   31.3320   49.5030 C   0  0  0  0  0  0  0  0  0  0  0  0
   59.6440   30.6200   48.8320 C   0  0  0  0  0  0  0  0  0  0  0  0
   60.8570   30.5210   49.7880 C   0  0  0  0  0  0  0  0  0  0  0  0
   61.4990   31.8990   50.0820 C   0  0  0  0  0  0  0  0  0  0  0  0
   62.0160   32.5780   48.8390 C   0  0  0  0  0  0  0  0  0  0  0  0
   63.3700   32.4660   48.4790 C   0  0  0  0  0  0  0  0  0  0  0  0
   63.8420   33.0730   47.3120 C   0  0  0  0  0  0  0  0  0  0  0  0
   62.9690   33.7930   46.4930 C   0  0  0  0  0  0  0  0  0  0  0  0
   61.6220   33.9120   46.8430 C   0  0  0  0  0  0  0  0  0  0  0  0
   61.1440   33.3140   48.0160 C   0  0  0  0  0  0  0  0  0  0  0  0
   60.4850   29.7980   51.1160 C   0  0  0  0  0  0  0  0  0  0  0  0
   58.9720   29.6630   51.3510 C   0  0  0  0  0  0  0  0  0  0  0  0
   56.2470   30.2260   53.5070 N   0  0  0  0  0  0  0  0  0  0  0  0
   57.4200   29.7810   54.2760 C   0  0  0  0  0  0  0  0  0  0  0  0
   55.3262   28.3924   55.2011 H   0  0  0  0  0  0  0  0  0  0  0  0
   53.5428   28.5023   54.5398 H   0  0  0  0  0  0  0  0  0  0  0  0
   52.1868   30.2723   53.5279 H   0  0  0  0  0  0  0  0  0  0  0  0
   51.4410   33.0530   52.9470 H   0  0  0  0  0  0  0  0  0  0  0  0
   54.6674   31.8765   51.1201 H   0  0  0  0  0  0  0  0  0  0  0  0
   57.5494   31.1396   48.9198 H   0  0  0  0  0  0  0  0  0  0  0  0
   58.6797   32.4097   49.5389 H   0  0  0  0  0  0  0  0  0  0  0  0
   59.3331   29.6057   48.5413 H   0  0  0  0  0  0  0  0  0  0  0  0
   59.9446   31.2030   47.9489 H   0  0  0  0  0  0  0  0  0  0  0  0
   61.6095   29.9151   49.2621 H   0  0  0  0  0  0  0  0  0  0  0  0
   60.7424   32.5473   50.5481 H   0  0  0  0  0  0  0  0  0  0  0  0
   62.3571   31.7298   50.7491 H   0  0  0  0  0  0  0  0  0  0  0  0
   64.0614   31.8979   49.1188 H   0  0  0  0  0  0  0  0  0  0  0  0
   64.9035   32.9836   47.0377 H   0  0  0  0  0  0  0  0  0  0  0  0
   63.3422   34.2661   45.5727 H   0  0  0  0  0  0  0  0  0  0  0  0
   60.9349   34.4768   46.1958 H   0  0  0  0  0  0  0  0  0  0  0  0
   60.0850   33.4200   48.2942 H   0  0  0  0  0  0  0  0  0  0  0  0
   60.9233   28.7893   51.0953 H   0  0  0  0  0  0  0  0  0  0  0  0
   60.8810   30.4148   51.9362 H   0  0  0  0  0  0  0  0  0  0  0  0
   58.6003   28.7806   50.8095 H   0  0  0  0  0  0  0  0  0  0  0  0
   58.7913   29.5541   52.4306 H   0  0  0  0  0  0  0  0  0  0  0  0
   57.2055   29.8624   55.3518 H   0  0  0  0  0  0  0  0  0  0  0  0
   57.6471   28.7342   54.0255 H   0  0  0  0  0  0  0  0  0  0  0  0
   58.2842   30.4137   54.0255 H   0  0  0  0  0  0  0  0  0  0  0  0
  1  2  2  0
  2  3  1  0
  3  4  2  3
  4  5  1  0
  5  6  1  0
  6  7  1  0
  7  8  2  0
  7  9  1  0
  9 10  1  0
 10 11  1  0
  3 12  1  0
 12 13  2  0
 13 14  1  0
 14 15  2  0
 14 16  1  0
 16 17  1  0
 17 18  1  0
 18 19  1  0
 19 20  1  0
 20 21  1  0
 21 22  2  0
 22 23  1  0
 23 24  2  0
 24 25  1  0
 25 26  2  0
 19 27  1  0
 27 28  1  0
 13 29  1  0
 29 30  1  0
 29  2  1  0
 10  5  2  0
 28 16  1  0
 26 21  1  0
  1 31  1  0
  1 32  1  0
  4 33  1  0
 11 34  1  0
 12 35  1  0
 17 36  1  0
 17 37  1  0
 18 38  1  0
 18 39  1  0
 19 40  1  0
 20 41  1  0
 20 42  1  0
 22 43  1  0
 23 44  1  0
 24 45  1  0
 25 46  1  0
 26 47  1  0
 27 48  1  0
 27 49  1  0
 28 50  1  0
 28 51  1  0
 30 52  1  0
 30 53  1  0
 30 54  1  0
M  CHG  2   6  -1   9  -1
M  END
>  <UniqueID>  (71) 
65

>  <SMILES>  (71) 
C=c1c(=Cc2[n-]c(=O)[n-]c2O)cc(C(=O)N2CCC(Cc3ccccc3)CC2)n1C

>  <Energy>  (71) 
136.0885083303118

>  <Genealogy>  (71) 
C=c1c(=Cc2[n-]c(=O)[n-]c2O)cc(C(=O)N2CCC(Cc3ccccc3)CC2)n1C (protonated)
C=c1c(=Cc2[n-]c(=O)[n-]c2O)cc(C(=O)N2CCC(Cc3ccccc3)CC2)n1C (3D coordinates assigned)
C=c1c(=Cc2[n-]c(=O)[n-]c2O)cc(C(=O)N2CCC(Cc3ccccc3)CC2)n1C (nonaromatic ring conformer: 136.0885083303118 kcal/mol)

>  <smiles>  (71) 
C=c1c(=Cc2[nH]c(=O)[nH]c2O)cc(C(=O)N2CCC(Cc3ccccc3)CC2)n1C

>  <score_type>  (71) 
oracle

>  <origin>  (71) 
adg

>  <m_score__min__energy>  (71) 
-14.130000000000001

>  <m_primary>  (71) 
energy

$$$$
71:0
     RDKit          3D

 45 47  0  0  0  0  0  0  0  0999 V2000
   64.5180   32.0660   49.3100 C   0  0  0  0  0  0  0  0  0  0  0  0
   63.3170   32.8460   49.0220 N   0  0  0  0  0  0  0  0  0  0  0  0
   62.9040   33.1290   47.6700 C   0  0  0  0  0  0  0  0  0  0  0  0
   63.8510   33.0990   46.6000 N   0  0  0  0  0  0  0  0  0  0  0  0
   61.6670   33.4430   47.3990 N   0  0  0  0  0  0  0  0  0  0  0  0
   60.5340   33.4420   48.3360 C   0  0  1  0  0  0  0  0  0  0  0  0
   59.3580   34.1790   47.6730 C   0  0  0  0  0  0  0  0  0  0  0  0
   60.0870   32.0060   48.6420 C   0  0  0  0  0  0  0  0  0  0  0  0
   60.5080   31.0030   47.8180 N   0  0  0  0  0  0  0  0  0  0  0  0
   60.2080   29.6920   48.0120 C   0  0  0  0  0  0  0  0  0  0  0  0
   60.6460   28.8220   47.1460 N   0  0  0  0  0  0  0  0  0  0  0  0
   60.1850   27.4750   46.9580 C   0  0  0  0  0  0  0  0  0  0  0  0
   60.9920   26.5300   47.1620 O   0  0  0  0  0  0  0  0  0  0  0  0
   58.7680   27.1740   46.6260 C   0  0  0  0  0  0  0  0  0  0  0  0
   58.1760   25.9770   47.0740 C   0  0  0  0  0  0  0  0  0  0  0  0
   56.8450   25.6860   46.7650 C   0  0  0  0  0  0  0  0  0  0  0  0
   56.0880   26.5800   46.0000 C   0  0  0  0  0  0  0  0  0  0  0  0
   54.7590   26.3000   45.6870 O   0  0  0  0  0  0  0  0  0  0  0  0
   56.6680   27.7680   45.5450 C   0  0  0  0  0  0  0  0  0  0  0  0
   58.0010   28.0660   45.8510 C   0  0  0  0  0  0  0  0  0  0  0  0
   58.5260   29.2370   45.4090 F   0  0  0  0  0  0  0  0  0  0  0  0
   59.4140   29.3330   49.1140 C   0  0  0  0  0  0  0  0  0  0  0  0
   58.9970   30.3180   50.0060 C   0  0  0  0  0  0  0  0  0  0  0  0
   59.3380   31.6570   49.7960 C   0  0  0  0  0  0  0  0  0  0  0  0
   58.8300   32.8180   51.0210 Cl  0  0  0  0  0  0  0  0  0  0  0  0
   60.9290   34.2200   49.6190 C   0  0  0  0  0  0  0  0  0  0  0  0
   62.4110   33.5300   50.3260 S   0  0  0  0  0  0  0  0  0  0  0  0
   62.0620   32.4660   51.3290 O   0  0  0  0  0  0  0  0  0  0  0  0
   63.2110   34.6150   50.9910 O   0  0  0  0  0  0  0  0  0  0  0  0
   64.6480   31.9816   50.3990 H   0  0  0  0  0  0  0  0  0  0  0  0
   64.4160   31.0613   48.8739 H   0  0  0  0  0  0  0  0  0  0  0  0
   65.3944   32.5678   48.8739 H   0  0  0  0  0  0  0  0  0  0  0  0
   63.5430   33.2980   45.6230 H   0  0  0  0  0  0  0  0  0  0  0  0
   64.8610   32.8950   46.7650 H   0  0  0  0  0  0  0  0  0  0  0  0
   58.6989   34.5921   48.4507 H   0  0  0  0  0  0  0  0  0  0  0  0
   59.7440   34.9970   47.0470 H   0  0  0  0  0  0  0  0  0  0  0  0
   58.7901   33.4750   47.0470 H   0  0  0  0  0  0  0  0  0  0  0  0
   58.7659   25.2663   47.6714 H   0  0  0  0  0  0  0  0  0  0  0  0
   56.3907   24.7509   47.1243 H   0  0  0  0  0  0  0  0  0  0  0  0
   54.0290   26.3420   46.3890 H   0  0  0  0  0  0  0  0  0  0  0  0
   56.0739   28.4719   44.9436 H   0  0  0  0  0  0  0  0  0  0  0  0
   59.1243   28.2835   49.2709 H   0  0  0  0  0  0  0  0  0  0  0  0
   58.3943   30.0398   50.8831 H   0  0  0  0  0  0  0  0  0  0  0  0
   61.1055   35.2754   49.3639 H   0  0  0  0  0  0  0  0  0  0  0  0
   60.1121   34.1419   50.3516 H   0  0  0  0  0  0  0  0  0  0  0  0
  1  2  1  0
  2  3  1  0
  3  4  1  0
  3  5  2  0
  5  6  1  0
  6  7  1  6
  6  8  1  0
  8  9  1  0
  9 10  1  0
 10 11  2  3
 11 12  1  0
 12 13  2  0
 12 14  1  0
 14 15  2  0
 15 16  1  0
 16 17  2  0
 17 18  1  0
 17 19  1  0
 19 20  2  0
 20 21  1  0
 10 22  1  0
 22 23  2  0
 23 24  1  0
 24 25  1  0
  6 26  1  0
 26 27  1  0
 27 28  2  0
 27 29  2  0
 27  2  1  0
 24  8  2  0
 20 14  1  0
  1 30  1  0
  1 31  1  0
  1 32  1  0
  4 33  1  0
  4 34  1  0
  7 35  1  0
  7 36  1  0
  7 37  1  0
 15 38  1  0
 16 39  1  0
 18 40  1  0
 19 41  1  0
 22 42  1  0
 23 43  1  0
 26 44  1  0
 26 45  1  0
M  CHG  1   9  -1
M  END
>  <UniqueID>  (72) 
66

>  <SMILES>  (72) 
CN1C(N)=N[C@@](C)(c2[n-]c(=NC(=O)c3ccc(O)cc3F)ccc2Cl)CS1(=O)=O

>  <Energy>  (72) 
60.420909808514715

>  <Genealogy>  (72) 
CN1C(N)=NC(C)(c2[n-]c(=NC(=O)c3ccc(O)cc3F)ccc2Cl)CS1(=O)=O (protonated)
CN1C(N)=N[C@@](C)(c2[n-]c(=NC(=O)c3ccc(O)cc3F)ccc2Cl)CS1(=O)=O (chirality)
CN1C(N)=N[C@@](C)(c2[n-]c(=NC(=O)c3ccc(O)cc3F)ccc2Cl)CS1(=O)=O (3D coordinates assigned)
CN1C(N)=N[C@@](C)(c2[n-]c(=NC(=O)c3ccc(O)cc3F)ccc2Cl)CS1(=O)=O (nonaromatic ring conformer: 60.420909808514715 kcal/mol)

>  <smiles>  (72) 
CN1C(N)=NC(C)(c2[nH]c(=NC(=O)c3ccc(O)cc3F)ccc2Cl)CS1(=O)=O

>  <score_type>  (72) 
oracle

>  <origin>  (72) 
adg

>  <m_score__min__energy>  (72) 
-9.5

>  <m_primary>  (72) 
energy

$$$$
72:0
     RDKit          3D

 47 49  0  0  0  0  0  0  0  0999 V2000
   63.1930   33.8160   46.8920 C   0  0  0  0  0  0  0  0  0  0  0  0
   62.5810   33.0320   48.0490 C   0  0  0  0  0  0  0  0  0  0  0  0
   61.6200   33.8520   48.7810 N   0  0  0  0  0  0  0  0  0  0  0  0
   60.1950   33.8320   48.6070 C   0  0  0  0  0  0  0  0  0  0  0  0
   59.4660   33.5950   49.6060 O   0  0  0  0  0  0  0  0  0  0  0  0
   59.5580   34.0650   47.2950 C   0  0  0  0  0  0  0  0  0  0  0  0
   60.0020   35.0980   46.4570 C   0  0  0  0  0  0  0  0  0  0  0  0
   59.3850   35.3170   45.2220 C   0  0  0  0  0  0  0  0  0  0  0  0
   58.3090   34.5200   44.8250 C   0  0  0  0  0  0  0  0  0  0  0  0
   57.8240   33.5110   45.6730 C   0  0  0  0  0  0  0  0  0  0  0  0
   56.6520   32.6610   45.2510 C   0  0  0  0  0  0  0  0  0  0  0  0
   57.0960   31.4470   44.5670 N   0  0  0  0  0  0  0  0  0  0  0  0
   56.3850   30.2010   44.4750 C   0  0  0  0  0  0  0  0  0  0  0  0
   55.4260   30.1220   43.6610 O   0  0  0  0  0  0  0  0  0  0  0  0
   56.7460   29.0120   45.2780 C   0  0  0  0  0  0  0  0  0  0  0  0
   57.9200   28.9980   46.0440 C   0  0  0  0  0  0  0  0  0  0  0  0
   58.2180   27.8580   46.7900 C   0  0  0  0  0  0  0  0  0  0  0  0
   59.2570   27.8180   47.4990 O   0  0  0  0  0  0  0  0  0  0  0  0
   57.3820   26.7890   46.7570 N   0  0  0  0  0  0  0  0  0  0  0  0
   56.2550   26.8010   45.9920 C   0  0  0  0  0  0  0  0  0  0  0  0
   55.4350   25.7910   45.9800 N   0  0  0  0  0  0  0  0  0  0  0  0
   55.6720   24.4910   45.4120 C   0  0  0  0  0  0  0  0  0  0  0  0
   55.0820   23.3330   45.9580 C   0  0  0  0  0  0  0  0  0  0  0  0
   55.3570   22.0760   45.4130 C   0  0  0  0  0  0  0  0  0  0  0  0
   56.2370   21.9570   44.3360 C   0  0  0  0  0  0  0  0  0  0  0  0
   56.8500   23.0950   43.8060 C   0  0  0  0  0  0  0  0  0  0  0  0
   56.5820   24.3600   44.3430 C   0  0  0  0  0  0  0  0  0  0  0  0
   57.2250   25.4720   43.7970 O   0  0  0  0  0  0  0  0  0  0  0  0
   55.9510   27.9080   45.2670 N   0  0  0  0  0  0  0  0  0  0  0  0
   58.4620   33.2810   46.9030 C   0  0  0  0  0  0  0  0  0  0  0  0
   63.8240   34.6243   47.2900 H   0  0  0  0  0  0  0  0  0  0  0  0
   63.8061   33.1418   46.2759 H   0  0  0  0  0  0  0  0  0  0  0  0
   62.3901   34.2471   46.2759 H   0  0  0  0  0  0  0  0  0  0  0  0
   62.0680   32.1440   47.6513 H   0  0  0  0  0  0  0  0  0  0  0  0
   63.3857   32.7337   48.7371 H   0  0  0  0  0  0  0  0  0  0  0  0
   60.8389   35.7383   46.7727 H   0  0  0  0  0  0  0  0  0  0  0  0
   59.7476   36.1185   44.5616 H   0  0  0  0  0  0  0  0  0  0  0  0
   57.8393   34.6833   43.8438 H   0  0  0  0  0  0  0  0  0  0  0  0
   56.0742   32.3787   46.1434 H   0  0  0  0  0  0  0  0  0  0  0  0
   56.0319   33.2450   44.5550 H   0  0  0  0  0  0  0  0  0  0  0  0
   58.5924   29.8684   46.0564 H   0  0  0  0  0  0  0  0  0  0  0  0
   54.4014   23.4194   46.8178 H   0  0  0  0  0  0  0  0  0  0  0  0
   54.8792   21.1788   45.8334 H   0  0  0  0  0  0  0  0  0  0  0  0
   56.4478   20.9673   43.9046 H   0  0  0  0  0  0  0  0  0  0  0  0
   57.5477   22.9966   42.9613 H   0  0  0  0  0  0  0  0  0  0  0  0
   56.9810   26.4210   44.0510 H   0  0  0  0  0  0  0  0  0  0  0  0
   58.0997   32.4800   47.5642 H   0  0  0  0  0  0  0  0  0  0  0  0
  1  2  1  0
  2  3  1  0
  3  4  1  0
  4  5  2  0
  4  6  1  0
  6  7  2  0
  7  8  1  0
  8  9  2  0
  9 10  1  0
 10 11  1  0
 11 12  1  0
 12 13  1  0
 13 14  2  0
 13 15  1  0
 15 16  2  0
 16 17  1  0
 17 18  2  0
 17 19  1  0
 19 20  1  0
 20 21  2  3
 21 22  1  0
 22 23  2  0
 23 24  1  0
 24 25  2  0
 25 26  1  0
 26 27  2  0
 27 28  1  0
 20 29  1  0
 10 30  2  0
 30  6  1  0
 29 15  1  0
 27 22  1  0
  1 31  1  0
  1 32  1  0
  1 33  1  0
  2 34  1  0
  2 35  1  0
  7 36  1  0
  8 37  1  0
  9 38  1  0
 11 39  1  0
 11 40  1  0
 16 41  1  0
 23 42  1  0
 24 43  1  0
 25 44  1  0
 26 45  1  0
 28 46  1  0
 30 47  1  0
M  CHG  4   3  -1  12  -1  19  -1  29  -1
M  END
>  <UniqueID>  (73) 
67

>  <SMILES>  (73) 
CC[N-]C(=O)c1cccc(C[N-]C(=O)c2cc(=O)[n-]c(=Nc3ccccc3O)[n-]2)c1

>  <Energy>  (73) 
58.524813733552605

>  <Genealogy>  (73) 
CC[N-]C(=O)c1cccc(C[N-]C(=O)c2cc(=O)[n-]c(=Nc3ccccc3O)[n-]2)c1 (protonated)
CC[N-]C(=O)c1cccc(C[N-]C(=O)c2cc(=O)[n-]c(=Nc3ccccc3O)[n-]2)c1 (3D coordinates assigned)
CC[N-]C(=O)c1cccc(C[N-]C(=O)c2cc(=O)[n-]c(=Nc3ccccc3O)[n-]2)c1 (optimized conformer: 58.524813733552605 kcal/mol)

>  <smiles>  (73) 
CCNC(=O)c1cccc(CNC(=O)c2cc(=O)[nH]c(=Nc3ccccc3O)[nH]2)c1

>  <score_type>  (73) 
oracle

>  <origin>  (73) 
adg

>  <m_score__min__energy>  (73) 
-14.140000000000001

>  <m_primary>  (73) 
energy

$$$$
73:0
     RDKit          3D

 48 50  0  0  1  0  0  0  0  0999 V2000
   60.2120   31.2240   49.1440 O   0  0  0  0  0  0  0  0  0  0  0  0
   59.8560   30.8090   48.0180 C   0  0  0  0  0  0  0  0  0  0  0  0
   60.3200   29.4960   47.4430 C   0  0  0  0  0  0  0  0  0  0  0  0
   60.4530   29.4630   45.9690 C   0  0  0  0  0  0  0  0  0  0  0  0
   60.7950   28.0750   45.5050 C   0  0  0  0  0  0  0  0  0  0  0  0
   60.2960   27.0380   46.4960 C   0  0  0  0  0  0  0  0  0  0  0  0
   58.8470   26.8100   46.3690 C   0  0  0  0  0  0  0  0  0  0  0  0
   58.0420   27.7780   45.7860 C   0  0  0  0  0  0  0  0  0  0  0  0
   56.6790   27.6100   45.6440 C   0  0  0  0  0  0  0  0  0  0  0  0
   56.1050   26.4410   46.0990 C   0  0  0  0  0  0  0  0  0  0  0  0
   54.7190   26.2250   45.9770 O   0  0  0  0  0  0  0  0  0  0  0  0
   56.9010   25.4700   46.6830 C   0  0  0  0  0  0  0  0  0  0  0  0
   58.2700   25.6320   46.8280 C   0  0  0  0  0  0  0  0  0  0  0  0
   58.9970   31.5650   47.2150 N   0  0  0  0  0  0  0  0  0  0  0  0
   59.1580   32.7090   46.7370 C   0  0  0  0  0  0  0  0  0  0  0  0
   59.8720   33.6020   47.4900 N   0  0  0  0  0  0  0  0  0  0  0  0
   60.0800   34.8420   47.1100 N   0  0  0  0  0  0  0  0  0  0  0  0
   59.5770   35.2670   45.9410 C   0  0  0  0  0  0  0  0  0  0  0  0
   59.7900   36.4610   45.6030 O   0  0  0  0  0  0  0  0  0  0  0  0
   58.8560   34.3990   45.1560 C   0  0  0  0  0  0  0  0  0  0  0  0
   58.6230   33.0640   45.5440 C   0  0  0  0  0  0  0  0  0  0  0  0
   57.9110   32.2680   44.5900 C   0  0  0  0  0  0  0  0  0  0  0  0
   58.0550   32.6200   43.2330 C   0  0  0  0  0  0  0  0  0  0  0  0
   57.4790   31.8640   42.2330 C   0  0  0  0  0  0  0  0  0  0  0  0
   56.7370   30.7340   42.5080 C   0  0  0  0  0  0  0  0  0  0  0  0
   56.5880   30.3760   43.8320 C   0  0  0  0  0  0  0  0  0  0  0  0
   57.1700   31.1400   44.8270 C   0  0  0  0  0  0  0  0  0  0  0  0
   61.3029   29.2627   47.8783 H   0  0  0  0  0  0  0  0  0  0  0  0
   59.5411   28.7613   47.6948 H   0  0  0  0  0  0  0  0  0  0  0  0
   59.5019   29.7739   45.5122 H   0  0  0  0  0  0  0  0  0  0  0  0
   61.2587   30.1487   45.6679 H   0  0  0  0  0  0  0  0  0  0  0  0
   60.3245   27.8953   44.5271 H   0  0  0  0  0  0  0  0  0  0  0  0
   61.8887   27.9890   45.4247 H   0  0  0  0  0  0  0  0  0  0  0  0
   60.8226   26.0896   46.3137 H   0  0  0  0  0  0  0  0  0  0  0  0
   60.4945   27.4130   47.5109 H   0  0  0  0  0  0  0  0  0  0  0  0
   58.5043   28.7087   45.4255 H   0  0  0  0  0  0  0  0  0  0  0  0
   56.0630   28.3928   45.1773 H   0  0  0  0  0  0  0  0  0  0  0  0
   54.1630   26.6030   46.7440 H   0  0  0  0  0  0  0  0  0  0  0  0
   56.4327   24.5419   47.0428 H   0  0  0  0  0  0  0  0  0  0  0  0
   58.8842   24.8478   47.2947 H   0  0  0  0  0  0  0  0  0  0  0  0
   60.2780   33.3080   48.4050 H   0  0  0  0  0  0  0  0  0  0  0  0
   60.6330   35.4820   47.7240 H   0  0  0  0  0  0  0  0  0  0  0  0
   58.4495   34.7561   44.1983 H   0  0  0  0  0  0  0  0  0  0  0  0
   58.6375   33.5142   42.9662 H   0  0  0  0  0  0  0  0  0  0  0  0
   57.6154   32.1713   41.1856 H   0  0  0  0  0  0  0  0  0  0  0  0
   56.2812   30.1406   41.7017 H   0  0  0  0  0  0  0  0  0  0  0  0
   56.0053   29.4813   44.0967 H   0  0  0  0  0  0  0  0  0  0  0  0
   57.0297   30.8233   45.8710 H   0  0  0  0  0  0  0  0  0  0  0  0
  1  2  2  0
  2  3  1  0
  3  4  1  0
  4  5  1  0
  5  6  1  0
  6  7  1  0
  7  8  2  0
  8  9  1  0
  9 10  2  0
 10 11  1  0
 10 12  1  0
 12 13  2  0
  2 14  1  0
 14 15  2  0
 15 16  1  0
 16 17  1  0
 17 18  1  0
 18 19  2  0
 18 20  1  0
 20 21  2  0
 21 22  1  0
 22 23  2  0
 23 24  1  0
 24 25  2  0
 25 26  1  0
 26 27  2  0
 13  7  1  0
 21 15  1  0
 27 22  1  0
  3 28  1  0
  3 29  1  0
  4 30  1  0
  4 31  1  0
  5 32  1  0
  5 33  1  0
  6 34  1  0
  6 35  1  0
  8 36  1  0
  9 37  1  0
 11 38  1  0
 12 39  1  0
 13 40  1  0
 16 41  1  0
 17 42  1  0
 20 43  1  0
 23 44  1  0
 24 45  1  0
 25 46  1  0
 26 47  1  0
 27 48  1  0
M  END
>  <smiles>  (74) 
O=C(CCCCc1ccc(O)cc1)N=c1[nH][nH]c(=O)cc1-c1ccccc1

>  <score_type>  (74) 
oracle

>  <origin>  (74) 
adg

>  <m_score__min__energy>  (74) 
-9.8300000000000001

>  <m_primary>  (74) 
energy

$$$$
74:0
     RDKit          3D

 53 56  0  0  0  0  0  0  0  0999 V2000
   58.2860   30.9850   46.5290 C   0  0  0  0  0  0  0  0  0  0  0  0
   58.9600   30.0390   47.2020 C   0  0  0  0  0  0  0  0  0  0  0  0
   59.0670   28.6890   46.8600 C   0  0  0  0  0  0  0  0  0  0  0  0
   58.5390   28.0700   45.7870 C   0  0  0  0  0  0  0  0  0  0  0  0
   57.4790   27.0430   45.8890 C   0  0  0  0  0  0  0  0  0  0  0  0
   56.1240   27.3310   45.6160 C   0  0  0  0  0  0  0  0  0  0  0  0
   55.7060   28.5940   45.1960 O   0  0  0  0  0  0  0  0  0  0  0  0
   55.1930   26.3500   45.7440 N   0  0  0  0  0  0  0  0  0  0  0  0
   55.5390   25.0890   46.1090 C   0  0  0  0  0  0  0  0  0  0  0  0
   54.6540   24.2020   46.2200 O   0  0  0  0  0  0  0  0  0  0  0  0
   56.8390   24.7830   46.3460 N   0  0  0  0  0  0  0  0  0  0  0  0
   57.8120   25.7240   46.2410 C   0  0  0  0  0  0  0  0  0  0  0  0
   59.0080   25.4040   46.4710 O   0  0  0  0  0  0  0  0  0  0  0  0
   59.8570   28.0970   47.8380 C   0  0  0  0  0  0  0  0  0  0  0  0
   60.1870   29.0950   48.7340 C   0  0  0  0  0  0  0  0  0  0  0  0
   61.0520   28.9110   49.9430 C   0  0  0  0  0  0  0  0  0  0  0  0
   59.6540   30.2730   48.3410 N   0  0  0  0  0  0  0  0  0  0  0  0
   59.7890   31.5260   49.0290 C   0  0  0  0  0  0  0  0  0  0  0  0
   59.0320   31.7640   50.1830 C   0  0  0  0  0  0  0  0  0  0  0  0
   59.1410   32.9830   50.8630 C   0  0  0  0  0  0  0  0  0  0  0  0
   58.1470   33.2730   52.2880 S   0  0  0  0  0  0  0  0  0  0  0  0
   56.7640   32.7230   52.0720 O   0  0  0  0  0  0  0  0  0  0  0  0
   58.0410   34.7590   52.4940 O   0  0  0  0  0  0  0  0  0  0  0  0
   58.8790   32.5420   53.7000 N   0  0  0  0  0  0  0  0  0  0  0  0
   59.9340   33.3920   54.2810 C   0  0  0  0  0  0  0  0  0  0  0  0
   61.2400   33.3620   53.4590 C   0  0  0  0  0  0  0  0  0  0  0  0
   61.5470   32.0440   52.8730 N   0  0  0  0  0  0  0  0  0  0  0  0
   60.8360   30.9500   53.5400 C   0  0  0  0  0  0  0  0  0  0  0  0
   59.3120   31.1480   53.4410 C   0  0  0  0  0  0  0  0  0  0  0  0
   60.0140   33.9690   50.3830 C   0  0  0  0  0  0  0  0  0  0  0  0
   60.7720   33.7350   49.2330 C   0  0  0  0  0  0  0  0  0  0  0  0
   60.6630   32.5180   48.5510 C   0  0  0  0  0  0  0  0  0  0  0  0
   61.6030   32.2680   47.0870 Cl  0  0  0  0  0  0  0  0  0  0  0  0
   58.2747   32.0208   46.8992 H   0  0  0  0  0  0  0  0  0  0  0  0
   57.7451   30.7244   45.6073 H   0  0  0  0  0  0  0  0  0  0  0  0
   58.9131   28.3404   44.7885 H   0  0  0  0  0  0  0  0  0  0  0  0
   54.7630   28.9350   45.3340 H   0  0  0  0  0  0  0  0  0  0  0  0
   60.1601   27.0408   47.8887 H   0  0  0  0  0  0  0  0  0  0  0  0
   60.4450   29.0401   50.8512 H   0  0  0  0  0  0  0  0  0  0  0  0
   61.4862   27.9004   49.9328 H   0  0  0  0  0  0  0  0  0  0  0  0
   61.8600   29.6574   49.9328 H   0  0  0  0  0  0  0  0  0  0  0  0
   58.3476   30.9885   50.5574 H   0  0  0  0  0  0  0  0  0  0  0  0
   59.5680   34.4285   54.3232 H   0  0  0  0  0  0  0  0  0  0  0  0
   60.1623   33.0013   55.2836 H   0  0  0  0  0  0  0  0  0  0  0  0
   61.1515   34.0925   52.6413 H   0  0  0  0  0  0  0  0  0  0  0  0
   62.0594   33.6018   54.1526 H   0  0  0  0  0  0  0  0  0  0  0  0
   61.2810   32.0440   51.8600 H   0  0  0  0  0  0  0  0  0  0  0  0
   61.1079   29.9980   53.0607 H   0  0  0  0  0  0  0  0  0  0  0  0
   61.1220   30.9393   54.6021 H   0  0  0  0  0  0  0  0  0  0  0  0
   58.9892   30.8656   52.4280 H   0  0  0  0  0  0  0  0  0  0  0  0
   58.8526   30.5171   54.2162 H   0  0  0  0  0  0  0  0  0  0  0  0
   60.1025   34.9289   50.9128 H   0  0  0  0  0  0  0  0  0  0  0  0
   61.4577   34.5110   48.8620 H   0  0  0  0  0  0  0  0  0  0  0  0
  1  2  2  0
  2  3  1  0
  3  4  2  3
  4  5  1  0
  5  6  2  0
  6  7  1  0
  6  8  1  0
  8  9  1  0
  9 10  2  0
  9 11  1  0
 11 12  1  0
 12 13  2  0
  3 14  1  0
 14 15  2  0
 15 16  1  0
 15 17  1  0
 17 18  1  0
 18 19  2  0
 19 20  1  0
 20 21  1  0
 21 22  2  0
 21 23  2  0
 21 24  1  0
 24 25  1  0
 25 26  1  0
 26 27  1  0
 27 28  1  0
 28 29  1  0
 20 30  2  0
 30 31  1  0
 31 32  2  0
 32 33  1  0
 17  2  1  0
 32 18  1  0
 12  5  1  0
 29 24  1  0
  1 34  1  0
  1 35  1  0
  4 36  1  0
  7 37  1  0
 14 38  1  0
 16 39  1  0
 16 40  1  0
 16 41  1  0
 19 42  1  0
 25 43  1  0
 25 44  1  0
 26 45  1  0
 26 46  1  0
 27 47  1  0
 28 48  1  0
 28 49  1  0
 29 50  1  0
 29 51  1  0
 30 52  1  0
 31 53  1  0
M  CHG  2   8  -1  11  -1
M  END
>  <UniqueID>  (75) 
68

>  <SMILES>  (75) 
C=c1c(=Cc2c(O)[n-]c(=O)[n-]c2=O)cc(C)n1-c1cc(S(=O)(=O)N2CCNCC2)ccc1Cl

>  <Energy>  (75) 
111.66735122016702

>  <Genealogy>  (75) 
C=c1c(=Cc2c(O)[n-]c(=O)[n-]c2=O)cc(C)n1-c1cc(S(=O)(=O)N2CCNCC2)ccc1Cl (protonated)
C=c1c(=Cc2c(O)[n-]c(=O)[n-]c2=O)cc(C)n1-c1cc(S(=O)(=O)N2CCNCC2)ccc1Cl (3D coordinates assigned)
C=c1c(=Cc2c(O)[n-]c(=O)[n-]c2=O)cc(C)n1-c1cc(S(=O)(=O)N2CCNCC2)ccc1Cl (nonaromatic ring conformer: 111.66735122016702 kcal/mol)

>  <smiles>  (75) 
C=c1c(=Cc2c(O)[nH]c(=O)[nH]c2=O)cc(C)n1-c1cc(S(=O)(=O)N2CCNCC2)ccc1Cl

>  <score_type>  (75) 
oracle

>  <origin>  (75) 
adg

>  <m_score__min__energy>  (75) 
-14.67

>  <m_primary>  (75) 
energy

$$$$
75:0
     RDKit          3D

 61 64  0  0  0  0  0  0  0  0999 V2000
   56.0929   31.4056   52.4125 H   0  0  0  0  0  0  0  0  0  0  0  0
   56.9560   31.2110   51.7590 C   0  0  0  0  0  0  0  0  0  0  0  0
   57.3990   29.9440   51.5810 N   0  0  0  0  0  0  0  0  0  0  0  0
   58.4960   29.6710   50.8320 C   0  0  0  0  0  0  0  0  0  0  0  0
   58.8123   28.6264   50.6950 H   0  0  0  0  0  0  0  0  0  0  0  0
   59.2400   30.7100   50.2240 C   0  0  0  0  0  0  0  0  0  0  0  0
   60.5250   30.3930   49.6320 N   0  0  0  0  0  0  0  0  0  0  0  0
   60.8510   31.2160   49.0730 H   0  0  0  0  0  0  0  0  0  0  0  0
   61.2250   30.1740   50.3630 H   0  0  0  0  0  0  0  0  0  0  0  0
   60.4720   29.2040   48.8100 C   0  0  0  0  0  0  0  0  0  0  0  0
   60.4250   29.3110   47.4090 C   0  0  0  0  0  0  0  0  0  0  0  0
   60.4387   30.3042   46.9364 H   0  0  0  0  0  0  0  0  0  0  0  0
   60.3610   28.1650   46.6130 C   0  0  0  0  0  0  0  0  0  0  0  0
   60.3206   28.2610   45.5179 H   0  0  0  0  0  0  0  0  0  0  0  0
   60.3480   26.8920   47.2030 C   0  0  0  0  0  0  0  0  0  0  0  0
   60.2190   25.6590   46.3460 C   0  0  0  0  0  0  0  0  0  0  0  0
   60.9745   25.6904   45.5471 H   0  0  0  0  0  0  0  0  0  0  0  0
   60.3733   24.7675   46.9717 H   0  0  0  0  0  0  0  0  0  0  0  0
   58.8120   25.5970   45.7160 C   0  0  0  0  0  0  0  0  0  0  0  0
   58.8543   24.9282   44.8437 H   0  0  0  0  0  0  0  0  0  0  0  0
   58.1314   25.2342   46.5003 H   0  0  0  0  0  0  0  0  0  0  0  0
   58.2860   26.9060   45.2710 N   0  0  0  0  0  0  0  0  0  0  0  0
   58.4880   27.1620   43.8260 C   0  0  0  0  0  0  0  0  0  0  0  0
   59.5441   27.4191   43.6573 H   0  0  0  0  0  0  0  0  0  0  0  0
   58.2024   26.2500   43.2814 H   0  0  0  0  0  0  0  0  0  0  0  0
   57.6080   28.3160   43.3030 C   0  0  0  0  0  0  0  0  0  0  0  0
   58.1549   28.8630   42.5209 H   0  0  0  0  0  0  0  0  0  0  0  0
   56.6779   27.8970   42.8915 H   0  0  0  0  0  0  0  0  0  0  0  0
   57.2720   29.2400   44.3950 N   0  0  0  0  0  0  0  0  0  0  0  0
   57.5440   30.6530   44.2900 C   0  0  0  0  0  0  0  0  0  0  0  0
   57.5740   31.2810   43.0310 C   0  0  0  0  0  0  0  0  0  0  0  0
   57.4117   30.6869   42.1196 H   0  0  0  0  0  0  0  0  0  0  0  0
   57.8090   32.6560   42.9320 C   0  0  0  0  0  0  0  0  0  0  0  0
   57.8340   33.1384   41.9438 H   0  0  0  0  0  0  0  0  0  0  0  0
   58.0120   33.4180   44.0840 C   0  0  0  0  0  0  0  0  0  0  0  0
   58.2009   34.4986   44.0029 H   0  0  0  0  0  0  0  0  0  0  0  0
   57.9750   32.8070   45.3400 C   0  0  0  0  0  0  0  0  0  0  0  0
   58.1341   33.4076   46.2477 H   0  0  0  0  0  0  0  0  0  0  0  0
   57.7360   31.4330   45.4450 C   0  0  0  0  0  0  0  0  0  0  0  0
   57.6979   30.9592   46.4370 H   0  0  0  0  0  0  0  0  0  0  0  0
   56.6610   28.6970   45.6170 C   0  0  0  0  0  0  0  0  0  0  0  0
   57.0962   29.2008   46.4926 H   0  0  0  0  0  0  0  0  0  0  0  0
   55.5756   28.8707   45.5763 H   0  0  0  0  0  0  0  0  0  0  0  0
   56.9140   27.1900   45.7270 C   0  0  0  0  0  0  0  0  0  0  0  0
   56.7983   26.8708   46.7733 H   0  0  0  0  0  0  0  0  0  0  0  0
   56.1915   26.6425   45.1039 H   0  0  0  0  0  0  0  0  0  0  0  0
   60.3830   26.7820   48.6020 C   0  0  0  0  0  0  0  0  0  0  0  0
   60.3575   25.7885   49.0735 H   0  0  0  0  0  0  0  0  0  0  0  0
   60.4500   27.9270   49.3980 C   0  0  0  0  0  0  0  0  0  0  0  0
   60.4858   27.8294   50.4931 H   0  0  0  0  0  0  0  0  0  0  0  0
   58.6920   32.0350   50.2740 C   0  0  0  0  0  0  0  0  0  0  0  0
   59.0640   33.0600   49.5480 N   0  0  0  0  0  0  0  0  0  0  0  0
   60.2080   33.2760   48.2550 S   0  0  0  0  0  0  0  0  0  0  0  0
   60.0400   32.1310   47.2940 O   0  0  0  0  0  0  0  0  0  0  0  0
   61.6180   33.2350   48.7750 O   0  0  0  0  0  0  0  0  0  0  0  0
   59.8900   34.7930   47.3690 C   0  0  0  0  0  0  0  0  0  0  0  0
   59.7191   35.6083   48.0874 H   0  0  0  0  0  0  0  0  0  0  0  0
   60.7565   35.0370   46.7368 H   0  0  0  0  0  0  0  0  0  0  0  0
   58.9984   34.6684   46.7368 H   0  0  0  0  0  0  0  0  0  0  0  0
   57.5930   32.2660   51.1150 C   0  0  0  0  0  0  0  0  0  0  0  0
   57.2311   33.2936   51.2667 H   0  0  0  0  0  0  0  0  0  0  0  0
  1  2  1  0
  2  3  1  0
  3  4  1  0
  4  5  1  0
  4  6  2  0
  6  7  1  0
  7  8  1  0
  7  9  1  0
  7 10  1  0
 10 11  2  0
 11 12  1  0
 11 13  1  0
 13 14  1  0
 13 15  2  0
 15 16  1  0
 16 17  1  0
 16 18  1  0
 16 19  1  0
 19 20  1  0
 19 21  1  0
 19 22  1  0
 22 23  1  0
 23 24  1  0
 23 25  1  0
 23 26  1  0
 26 27  1  0
 26 28  1  0
 26 29  1  0
 29 30  1  0
 30 31  2  0
 31 32  1  0
 31 33  1  0
 33 34  1  0
 33 35  2  0
 35 36  1  0
 35 37  1  0
 37 38  1  0
 37 39  2  0
 39 40  1  0
 29 41  1  0
 41 42  1  0
 41 43  1  0
 41 44  1  0
 44 45  1  0
 44 46  1  0
 15 47  1  0
 47 48  1  0
 47 49  2  0
 49 50  1  0
  6 51  1  0
 51 52  2  0
 52 53  1  0
 53 54  2  0
 53 55  2  0
 53 56  1  0
 56 57  1  0
 56 58  1  0
 56 59  1  0
 51 60  1  0
 60 61  1  0
 60  2  2  0
 49 10  1  0
 44 22  1  0
 39 30  1  0
M  CHG  2   3  -1   7   1
M  END
>  <UniqueID>  (76) 
69

>  <SMILES>  (76) 
CS(=O)(=O)/N=c1/cc[n-]cc1[NH2+]c1ccc(CCN2CCN(c3ccccc3)CC2)cc1

>  <Energy>  (76) 
98.76311417361686

>  <Genealogy>  (76) 
CS(=O)(=O)N=c1cc[n-]cc1[NH2+]c1ccc(CCN2CCN(c3ccccc3)CC2)cc1 (protonated)
CS(=O)(=O)/N=c1/cc[n-]cc1[NH2+]c1ccc(CCN2CCN(c3ccccc3)CC2)cc1 (cis-trans isomerization)
CS(=O)(=O)/N=c1/cc[n-]cc1[NH2+]c1ccc(CCN2CCN(c3ccccc3)CC2)cc1 (3D coordinates assigned)
CS(=O)(=O)/N=c1/cc[n-]cc1[NH2+]c1ccc(CCN2CCN(c3ccccc3)CC2)cc1 (nonaromatic ring conformer: 98.76311417361686 kcal/mol)

>  <smiles>  (76) 
CS(=O)(=O)N=c1cc[nH]cc1Nc1ccc(CCN2CCN(c3ccccc3)CC2)cc1

>  <score_type>  (76) 
oracle

>  <origin>  (76) 
adg

>  <m_score__min__energy>  (76) 
-10.6

>  <m_primary>  (76) 
energy

$$$$
76:0
     RDKit          3D

 57 60  0  0  0  0  0  0  0  0999 V2000
   51.0760   29.5010   49.3850 H   0  0  0  0  0  0  0  0  0  0  0  0
   51.6910   30.2690   49.6210 O   0  0  0  0  0  0  0  0  0  0  0  0
   51.4820   31.0480   50.7570 C   0  0  0  0  0  0  0  0  0  0  0  0
   51.0090   32.3040   50.7100 N   0  0  0  0  0  0  0  0  0  0  0  0
   51.0380   32.6840   52.0050 C   0  0  0  0  0  0  0  0  0  0  0  0
   50.6700   33.8260   52.3840 O   0  0  0  0  0  0  0  0  0  0  0  0
   51.5010   31.7490   52.8610 N   0  0  0  0  0  0  0  0  0  0  0  0
   51.7620   30.6980   52.0630 C   0  0  0  0  0  0  0  0  0  0  0  0
   52.3320   29.4330   52.5560 C   0  0  0  0  0  0  0  0  0  0  0  0
   51.6467   28.5959   52.7553 H   0  0  0  0  0  0  0  0  0  0  0  0
   53.6480   29.2460   52.7760 C   0  0  0  0  0  0  0  0  0  0  0  0
   54.2210   28.1880   53.4710 C   0  0  0  0  0  0  0  0  0  0  0  0
   53.6933   27.3342   53.9212 H   0  0  0  0  0  0  0  0  0  0  0  0
   55.5820   28.4180   53.4860 C   0  0  0  0  0  0  0  0  0  0  0  0
   56.5920   27.5130   54.1210 C   0  0  0  0  0  0  0  0  0  0  0  0
   56.5118   27.5849   55.2157 H   0  0  0  0  0  0  0  0  0  0  0  0
   56.4037   26.4758   53.8069 H   0  0  0  0  0  0  0  0  0  0  0  0
   57.6024   27.8136   53.8069 H   0  0  0  0  0  0  0  0  0  0  0  0
   55.8750   29.5640   52.8310 N   0  0  0  0  0  0  0  0  0  0  0  0
   57.1930   30.1070   52.6410 C   0  0  0  0  0  0  0  0  0  0  0  0
   57.7170   30.2330   51.3470 C   0  0  0  0  0  0  0  0  0  0  0  0
   57.1089   29.9323   50.4811 H   0  0  0  0  0  0  0  0  0  0  0  0
   59.0120   30.7400   51.1460 C   0  0  0  0  0  0  0  0  0  0  0  0
   59.5550   30.8440   49.8170 N   0  0  0  0  0  0  0  0  0  0  0  0
   59.5590   32.1270   49.1070 C   0  0  0  0  0  0  0  0  0  0  0  0
   59.0338   32.8819   49.7106 H   0  0  0  0  0  0  0  0  0  0  0  0
   60.5969   32.4501   48.9386 H   0  0  0  0  0  0  0  0  0  0  0  0
   58.8490   31.9660   47.7600 C   0  0  0  0  0  0  0  0  0  0  0  0
   57.7668   31.8760   47.9355 H   0  0  0  0  0  0  0  0  0  0  0  0
   59.0754   32.8490   47.1443 H   0  0  0  0  0  0  0  0  0  0  0  0
   59.3180   30.7680   47.0380 N   0  0  0  0  0  0  0  0  0  0  0  0
   58.8610   30.5020   45.6910 C   0  0  0  0  0  0  0  0  0  0  0  0
   59.4110   29.5980   45.0060 O   0  0  0  0  0  0  0  0  0  0  0  0
   57.7480   31.2960   45.0580 C   0  0  0  0  0  0  0  0  0  0  0  0
   57.4737   32.1278   45.7234 H   0  0  0  0  0  0  0  0  0  0  0  0
   58.0954   31.6825   44.0885 H   0  0  0  0  0  0  0  0  0  0  0  0
   56.6140   30.4800   44.8430 O   0  0  0  0  0  0  0  0  0  0  0  0
   56.5930   30.0100   43.5130 C   0  0  0  0  0  0  0  0  0  0  0  0
   56.5439   28.9111   43.5132 H   0  0  0  0  0  0  0  0  0  0  0  0
   55.7121   30.4163   42.9944 H   0  0  0  0  0  0  0  0  0  0  0  0
   57.5066   30.3361   42.9944 H   0  0  0  0  0  0  0  0  0  0  0  0
   60.3430   29.9060   47.6520 C   0  0  0  0  0  0  0  0  0  0  0  0
   60.3881   28.9524   47.1056 H   0  0  0  0  0  0  0  0  0  0  0  0
   61.3147   30.4191   47.6020 H   0  0  0  0  0  0  0  0  0  0  0  0
   60.0040   29.6290   49.1240 C   0  0  0  0  0  0  0  0  0  0  0  0
   59.2032   28.8762   49.1697 H   0  0  0  0  0  0  0  0  0  0  0  0
   60.9150   29.2669   49.6230 H   0  0  0  0  0  0  0  0  0  0  0  0
   59.7820   31.1130   52.2590 C   0  0  0  0  0  0  0  0  0  0  0  0
   60.7993   31.5055   52.1140 H   0  0  0  0  0  0  0  0  0  0  0  0
   59.2620   30.9880   53.5510 C   0  0  0  0  0  0  0  0  0  0  0  0
   59.8702   31.2861   54.4177 H   0  0  0  0  0  0  0  0  0  0  0  0
   57.9730   30.4860   53.7450 C   0  0  0  0  0  0  0  0  0  0  0  0
   57.4910   30.3460   55.0050 F   0  0  0  0  0  0  0  0  0  0  0  0
   54.7000   30.0840   52.3940 C   0  0  0  0  0  0  0  0  0  0  0  0
   54.6010   31.2090   51.6700 C   0  0  0  0  0  0  0  0  0  0  0  0
   55.5038   31.7896   51.4296 H   0  0  0  0  0  0  0  0  0  0  0  0
   53.6170   31.5509   51.3167 H   0  0  0  0  0  0  0  0  0  0  0  0
  1  2  1  0
  2  3  1  0
  3  4  1  0
  4  5  1  0
  5  6  2  0
  5  7  1  0
  7  8  1  0
  8  9  1  0
  9 10  1  0
  9 11  2  0
 11 12  1  0
 12 13  1  0
 12 14  2  0
 14 15  1  0
 15 16  1  0
 15 17  1  0
 15 18  1  0
 14 19  1  0
 19 20  1  0
 20 21  2  0
 21 22  1  0
 21 23  1  0
 23 24  1  0
 24 25  1  0
 25 26  1  0
 25 27  1  0
 25 28  1  0
 28 29  1  0
 28 30  1  0
 28 31  1  0
 31 32  1  0
 32 33  2  0
 32 34  1  0
 34 35  1  0
 34 36  1  0
 34 37  1  0
 37 38  1  0
 38 39  1  0
 38 40  1  0
 38 41  1  0
 31 42  1  0
 42 43  1  0
 42 44  1  0
 42 45  1  0
 45 46  1  0
 45 47  1  0
 23 48  2  0
 48 49  1  0
 48 50  1  0
 50 51  1  0
 50 52  2  0
 52 53  1  0
 19 54  1  0
 54 55  2  0
 55 56  1  0
 55 57  1  0
  8  3  2  0
 54 11  1  0
 52 20  1  0
 45 24  1  0
M  CHG  2   4  -1   7  -1
M  END
>  <UniqueID>  (77) 
70

>  <SMILES>  (77) 
C=c1/c(=C/c2[n-]c(=O)[n-]c2O)cc(C)n1-c1cc(N2CCN(C(=O)COC)CC2)ccc1F

>  <Energy>  (77) 
136.716696333115

>  <Genealogy>  (77) 
C=c1c(=Cc2[n-]c(=O)[n-]c2O)cc(C)n1-c1cc(N2CCN(C(=O)COC)CC2)ccc1F (protonated)
C=c1/c(=C/c2[n-]c(=O)[n-]c2O)cc(C)n1-c1cc(N2CCN(C(=O)COC)CC2)ccc1F (cis-trans isomerization)
C=c1/c(=C/c2[n-]c(=O)[n-]c2O)cc(C)n1-c1cc(N2CCN(C(=O)COC)CC2)ccc1F (3D coordinates assigned)
C=c1/c(=C/c2[n-]c(=O)[n-]c2O)cc(C)n1-c1cc(N2CCN(C(=O)COC)CC2)ccc1F (nonaromatic ring conformer: 136.716696333115 kcal/mol)

>  <smiles>  (77) 
C=c1c(=Cc2[nH]c(=O)[nH]c2O)cc(C)n1-c1cc(N2CCN(C(=O)COC)CC2)ccc1F

>  <score_type>  (77) 
oracle

>  <origin>  (77) 
adg

>  <m_score__min__energy>  (77) 
-13.890000000000001

>  <m_primary>  (77) 
energy

$$$$
77:0
     RDKit          3D

 34 35  0  0  0  0  0  0  0  0999 V2000
   57.7170   22.5890   47.7250 H   0  0  0  0  0  0  0  0  0  0  0  0
   57.7890   23.0150   46.8080 O   0  0  0  0  0  0  0  0  0  0  0  0
   57.2060   24.2490   46.5480 C   0  0  0  0  0  0  0  0  0  0  0  0
   55.8740   24.4220   46.4310 N   0  0  0  0  0  0  0  0  0  0  0  0
   55.7270   25.7360   46.1770 C   0  0  0  0  0  0  0  0  0  0  0  0
   54.4910   26.3380   45.9670 O   0  0  0  0  0  0  0  0  0  0  0  0
   56.9420   26.3910   46.1440 C   0  0  0  0  0  0  0  0  0  0  0  0
   57.1810   27.8320   45.8190 C   0  0  0  0  0  0  0  0  0  0  0  0
   57.6329   28.3317   46.6885 H   0  0  0  0  0  0  0  0  0  0  0  0
   56.2222   28.3109   45.5712 H   0  0  0  0  0  0  0  0  0  0  0  0
   58.1030   27.9440   44.6490 C   0  0  0  0  0  0  0  0  0  0  0  0
   58.6260   26.9060   44.1610 O   0  0  0  0  0  0  0  0  0  0  0  0
   58.3340   29.2000   44.0770 O   0  0  0  0  0  0  0  0  0  0  0  0
   57.3160   29.9690   43.4370 C   0  0  2  0  0  0  0  0  0  0  0  0
   57.7780   30.8129   42.9036 H   0  0  0  0  0  0  0  0  0  0  0  0
   56.3590   30.5180   44.4570 C   0  0  0  0  0  0  0  0  0  0  0  0
   55.4230   29.7880   44.8800 O   0  0  0  0  0  0  0  0  0  0  0  0
   56.4820   31.8880   44.8720 N   0  0  0  0  0  0  0  0  0  0  0  0
   57.4450   32.4630   45.5390 C   0  0  0  0  0  0  0  0  0  0  0  0
   58.0800   31.7390   46.5010 N   0  0  0  0  0  0  0  0  0  0  0  0
   59.0890   32.2500   47.2540 C   0  0  0  0  0  0  0  0  0  0  0  0
   59.5758   31.6252   48.0173 H   0  0  0  0  0  0  0  0  0  0  0  0
   59.5080   33.5660   47.0600 C   0  0  0  0  0  0  0  0  0  0  0  0
   60.8090   34.2370   48.0260 Cl  0  0  0  0  0  0  0  0  0  0  0  0
   58.8680   34.3470   46.0960 C   0  0  0  0  0  0  0  0  0  0  0  0
   59.1811   35.3894   45.9367 H   0  0  0  0  0  0  0  0  0  0  0  0
   57.8310   33.8060   45.3340 C   0  0  0  0  0  0  0  0  0  0  0  0
   57.3184   34.4210   44.5797 H   0  0  0  0  0  0  0  0  0  0  0  0
   56.5690   29.0820   42.4440 C   0  0  0  0  0  0  0  0  0  0  0  0
   55.9551   28.3530   42.9933 H   0  0  0  0  0  0  0  0  0  0  0  0
   55.9199   29.7055   41.8116 H   0  0  0  0  0  0  0  0  0  0  0  0
   57.2938   28.5484   41.8116 H   0  0  0  0  0  0  0  0  0  0  0  0
   57.9030   25.4300   46.3710 C   0  0  0  0  0  0  0  0  0  0  0  0
   58.9933   25.5722   46.4043 H   0  0  0  0  0  0  0  0  0  0  0  0
  1  2  1  0
  2  3  1  0
  3  4  1  0
  4  5  1  0
  5  6  1  0
  5  7  2  0
  7  8  1  0
  8  9  1  0
  8 10  1  0
  8 11  1  0
 11 12  2  0
 11 13  1  0
 13 14  1  0
 14 15  1  6
 14 16  1  0
 16 17  2  0
 16 18  1  0
 18 19  2  0
 19 20  1  0
 20 21  1  0
 21 22  1  0
 21 23  2  0
 23 24  1  0
 23 25  1  0
 25 26  1  0
 25 27  2  0
 27 28  1  0
 14 29  1  0
 29 30  1  0
 29 31  1  0
 29 32  1  0
  7 33  1  0
 33 34  1  0
 33  3  2  0
 27 19  1  0
M  CHG  3   4  -1   6  -1  20  -1
M  END
>  <UniqueID>  (78) 
71

>  <SMILES>  (78) 
C[C@H](OC(=O)Cc1cc(O)[n-]c1[O-])C(=O)/N=c1\ccc(Cl)c[n-]1

>  <Energy>  (78) 
60.7293427299183

>  <Genealogy>  (78) 
CC(OC(=O)Cc1cc(O)[n-]c1[O-])C(=O)N=c1ccc(Cl)c[n-]1 (protonated)
C[C@H](OC(=O)Cc1cc(O)[n-]c1[O-])C(=O)N=c1ccc(Cl)c[n-]1 (chirality)
C[C@H](OC(=O)Cc1cc(O)[n-]c1[O-])C(=O)/N=c1\ccc(Cl)c[n-]1 (cis-trans isomerization)
C[C@H](OC(=O)Cc1cc(O)[n-]c1[O-])C(=O)/N=c1\ccc(Cl)c[n-]1 (3D coordinates assigned)
C[C@H](OC(=O)Cc1cc(O)[n-]c1[O-])C(=O)/N=c1\ccc(Cl)c[n-]1 (optimized conformer: 60.7293427299183 kcal/mol)

>  <smiles>  (78) 
CC(OC(=O)Cc1cc(O)[nH]c1O)C(=O)N=c1ccc(Cl)c[nH]1

>  <score_type>  (78) 
oracle

>  <origin>  (78) 
adg

>  <m_score__min__energy>  (78) 
-14.48

>  <m_primary>  (78) 
energy

$$$$
78:0
     RDKit          3D

 49 51  0  0  0  0  0  0  0  0999 V2000
   57.7110   32.1590   54.2940 O   0  0  0  0  0  0  0  0  0  0  0  0
   57.1600   31.0560   54.0260 C   0  0  0  0  0  0  0  0  0  0  0  0
   56.2910   30.4050   55.0640 C   0  0  0  0  0  0  0  0  0  0  0  0
   55.9490   29.0340   54.6870 N   0  0  0  0  0  0  0  0  0  0  0  0
   55.0750   28.6450   53.6150 C   0  0  0  0  0  0  0  0  0  0  0  0
   55.1830   27.4870   53.1330 O   0  0  0  0  0  0  0  0  0  0  0  0
   54.0930   29.5740   53.0280 C   0  0  0  0  0  0  0  0  0  0  0  0
   52.8540   29.7910   53.6440 C   0  0  0  0  0  0  0  0  0  0  0  0
   51.9340   30.6820   53.0850 C   0  0  0  0  0  0  0  0  0  0  0  0
   52.2380   31.3670   51.8930 C   0  0  0  0  0  0  0  0  0  0  0  0
   51.2690   32.3160   51.3020 C   0  0  0  0  0  0  0  0  0  0  0  0
   51.3930   32.7000   50.1080 O   0  0  0  0  0  0  0  0  0  0  0  0
   50.2040   32.7960   52.0570 O   0  0  0  0  0  0  0  0  0  0  0  0
   53.4730   31.1310   51.2680 C   0  0  0  0  0  0  0  0  0  0  0  0
   54.3900   30.2370   51.8300 C   0  0  0  0  0  0  0  0  0  0  0  0
   57.3310   30.4480   52.7360 N   0  0  0  0  0  0  0  0  0  0  0  0
   58.0250   31.0820   51.6500 C   0  0  0  0  0  0  0  0  0  0  0  0
   58.2040   32.4730   51.6640 C   0  0  0  0  0  0  0  0  0  0  0  0
   58.8720   33.1110   50.6160 C   0  0  0  0  0  0  0  0  0  0  0  0
   59.3460   32.3680   49.5250 C   0  0  0  0  0  0  0  0  0  0  0  0
   60.1900   33.1740   48.1970 S   0  0  0  0  0  0  0  0  0  0  0  0
   61.2300   34.0960   48.7680 O   0  0  0  0  0  0  0  0  0  0  0  0
   60.8920   32.1380   47.3650 O   0  0  0  0  0  0  0  0  0  0  0  0
   59.1160   34.0910   47.1680 N   0  0  0  0  0  0  0  0  0  0  0  0
   57.9270   33.3280   46.8020 C   0  0  0  0  0  0  0  0  0  0  0  0
   57.4120   33.9500   45.5170 C   0  0  0  0  0  0  0  0  0  0  0  0
   58.6360   34.5720   44.8650 C   0  0  0  0  0  0  0  0  0  0  0  0
   59.7480   34.4760   45.9050 C   0  0  0  0  0  0  0  0  0  0  0  0
   59.1590   30.9790   49.5040 C   0  0  0  0  0  0  0  0  0  0  0  0
   58.4950   30.3410   50.5540 C   0  0  0  0  0  0  0  0  0  0  0  0
   56.8292   30.3892   56.0232 H   0  0  0  0  0  0  0  0  0  0  0  0
   55.3597   30.9840   55.1498 H   0  0  0  0  0  0  0  0  0  0  0  0
   52.6038   29.2573   54.5727 H   0  0  0  0  0  0  0  0  0  0  0  0
   50.9658   30.8493   53.5795 H   0  0  0  0  0  0  0  0  0  0  0  0
   53.7206   31.6520   50.3314 H   0  0  0  0  0  0  0  0  0  0  0  0
   55.3513   30.0531   51.3279 H   0  0  0  0  0  0  0  0  0  0  0  0
   56.7720   29.5910   52.5200 H   0  0  0  0  0  0  0  0  0  0  0  0
   57.8159   33.0654   52.5057 H   0  0  0  0  0  0  0  0  0  0  0  0
   59.0267   34.1996   50.6466 H   0  0  0  0  0  0  0  0  0  0  0  0
   58.1858   32.2714   46.6386 H   0  0  0  0  0  0  0  0  0  0  0  0
   57.1677   33.3578   47.5974 H   0  0  0  0  0  0  0  0  0  0  0  0
   56.9741   33.1812   44.8634 H   0  0  0  0  0  0  0  0  0  0  0  0
   56.6210   34.6912   45.7040 H   0  0  0  0  0  0  0  0  0  0  0  0
   58.9111   34.0165   43.9563 H   0  0  0  0  0  0  0  0  0  0  0  0
   58.4510   35.6131   44.5618 H   0  0  0  0  0  0  0  0  0  0  0  0
   60.4839   33.7162   45.6031 H   0  0  0  0  0  0  0  0  0  0  0  0
   60.2773   35.4350   46.0055 H   0  0  0  0  0  0  0  0  0  0  0  0
   59.5371   30.3886   48.6564 H   0  0  0  0  0  0  0  0  0  0  0  0
   58.3395   29.2525   50.5222 H   0  0  0  0  0  0  0  0  0  0  0  0
  1  2  2  0
  2  3  1  0
  3  4  1  0
  4  5  1  0
  5  6  2  0
  5  7  1  0
  7  8  2  0
  8  9  1  0
  9 10  2  0
 10 11  1  0
 11 12  2  0
 11 13  1  0
 10 14  1  0
 14 15  2  0
  2 16  1  0
 16 17  1  0
 17 18  2  0
 18 19  1  0
 19 20  2  0
 20 21  1  0
 21 22  2  0
 21 23  2  0
 21 24  1  0
 24 25  1  0
 25 26  1  0
 26 27  1  0
 27 28  1  0
 20 29  1  0
 29 30  2  0
 15  7  1  0
 30 17  1  0
 28 24  1  0
  3 31  1  0
  3 32  1  0
  8 33  1  0
  9 34  1  0
 14 35  1  0
 15 36  1  0
 16 37  1  0
 18 38  1  0
 19 39  1  0
 25 40  1  0
 25 41  1  0
 26 42  1  0
 26 43  1  0
 27 44  1  0
 27 45  1  0
 28 46  1  0
 28 47  1  0
 29 48  1  0
 30 49  1  0
M  CHG  2   4  -1  13  -1
M  END
>  <UniqueID>  (79) 
72

>  <SMILES>  (79) 
O=C(C[N-]C(=O)c1ccc(C(=O)[O-])cc1)Nc1ccc(S(=O)(=O)N2CCCC2)cc1

>  <Energy>  (79) 
57.66103668467776

>  <Genealogy>  (79) 
O=C(C[N-]C(=O)c1ccc(C(=O)[O-])cc1)Nc1ccc(S(=O)(=O)N2CCCC2)cc1 (protonated)
O=C(C[N-]C(=O)c1ccc(C(=O)[O-])cc1)Nc1ccc(S(=O)(=O)N2CCCC2)cc1 (3D coordinates assigned)
O=C(C[N-]C(=O)c1ccc(C(=O)[O-])cc1)Nc1ccc(S(=O)(=O)N2CCCC2)cc1 (nonaromatic ring conformer: 57.66103668467776 kcal/mol)

>  <smiles>  (79) 
O=C(CNC(=O)c1ccc(C(=O)O)cc1)Nc1ccc(S(=O)(=O)N2CCCC2)cc1

>  <score_type>  (79) 
oracle

>  <origin>  (79) 
adg

>  <m_score__min__energy>  (79) 
-13.67

>  <m_primary>  (79) 
energy

$$$$
79:0
     RDKit          3D

 51 53  0  0  0  0  0  0  0  0999 V2000
   56.1180   24.0970   44.6460 C   0  0  0  0  0  0  0  0  0  0  0  0
   55.9540   25.0020   46.1710 S   0  0  0  0  0  0  0  0  0  0  0  0
   54.9060   26.0650   45.9960 O   0  0  0  0  0  0  0  0  0  0  0  0
   55.5230   24.0840   47.2820 O   0  0  0  0  0  0  0  0  0  0  0  0
   57.4630   25.7600   46.5760 N   0  0  0  0  0  0  0  0  0  0  0  0
   58.0220   26.8760   45.8620 C   0  0  0  0  0  0  0  0  0  0  0  0
   59.4100   27.0410   45.7080 C   0  0  0  0  0  0  0  0  0  0  0  0
   59.9180   28.1520   45.0290 C   0  0  0  0  0  0  0  0  0  0  0  0
   59.0510   29.1070   44.4990 C   0  0  0  0  0  0  0  0  0  0  0  0
   57.6660   28.9510   44.6340 C   0  0  0  0  0  0  0  0  0  0  0  0
   56.5650   30.1810   44.0150 S   0  0  0  0  0  0  0  0  0  0  0  0
   55.1500   29.6970   44.1630 O   0  0  0  0  0  0  0  0  0  0  0  0
   56.8330   30.4210   42.5540 O   0  0  0  0  0  0  0  0  0  0  0  0
   56.7560   31.6620   44.9010 N   0  0  0  0  0  0  0  0  0  0  0  0
   57.7780   31.4950   45.9300 C   0  0  0  0  0  0  0  0  0  0  0  0
   58.5590   32.7750   46.0690 C   0  0  0  0  0  0  0  0  0  0  0  0
   58.4390   33.7630   45.0770 C   0  0  0  0  0  0  0  0  0  0  0  0
   59.1240   34.9760   45.1970 C   0  0  0  0  0  0  0  0  0  0  0  0
   59.9250   35.2190   46.3130 C   0  0  0  0  0  0  0  0  0  0  0  0
   60.0400   34.2540   47.3160 C   0  0  0  0  0  0  0  0  0  0  0  0
   59.3560   33.0330   47.2070 C   0  0  0  0  0  0  0  0  0  0  0  0
   59.4830   32.0620   48.2570 N   0  0  0  0  0  0  0  0  0  0  0  0
   58.5670   32.1160   49.3970 C   0  0  0  0  0  0  0  0  0  0  0  0
   59.2500   31.5720   50.6670 C   0  0  0  0  0  0  0  0  0  0  0  0
   60.1370   30.4080   50.4430 N   0  0  0  0  0  0  0  0  0  0  0  0
   60.0200   29.8110   49.1060 C   0  0  0  0  0  0  0  0  0  0  0  0
   60.2830   30.8580   48.0190 C   0  0  0  0  0  0  0  0  0  0  0  0
   57.1570   27.8350   45.3090 C   0  0  0  0  0  0  0  0  0  0  0  0
   56.3101   23.0368   44.8676 H   0  0  0  0  0  0  0  0  0  0  0  0
   55.1888   24.1874   44.0642 H   0  0  0  0  0  0  0  0  0  0  0  0
   56.9563   24.5077   44.0642 H   0  0  0  0  0  0  0  0  0  0  0  0
   58.0420   25.2880   47.3070 H   0  0  0  0  0  0  0  0  0  0  0  0
   60.0995   26.2917   46.1241 H   0  0  0  0  0  0  0  0  0  0  0  0
   61.0050   28.2734   44.9123 H   0  0  0  0  0  0  0  0  0  0  0  0
   59.4559   29.9846   43.9738 H   0  0  0  0  0  0  0  0  0  0  0  0
   57.2973   31.2520   46.8891 H   0  0  0  0  0  0  0  0  0  0  0  0
   58.4574   30.6782   45.6450 H   0  0  0  0  0  0  0  0  0  0  0  0
   57.8013   33.5807   44.1994 H   0  0  0  0  0  0  0  0  0  0  0  0
   59.0312   35.7395   44.4106 H   0  0  0  0  0  0  0  0  0  0  0  0
   60.4668   36.1721   46.4031 H   0  0  0  0  0  0  0  0  0  0  0  0
   60.6698   34.4517   48.1959 H   0  0  0  0  0  0  0  0  0  0  0  0
   58.2638   33.1594   49.5682 H   0  0  0  0  0  0  0  0  0  0  0  0
   57.6862   31.4958   49.1743 H   0  0  0  0  0  0  0  0  0  0  0  0
   59.8516   32.3816   51.1059 H   0  0  0  0  0  0  0  0  0  0  0  0
   58.4430   31.2244   51.3287 H   0  0  0  0  0  0  0  0  0  0  0  0
   61.1310   30.7070   50.5730 H   0  0  0  0  0  0  0  0  0  0  0  0
   60.7540   28.9975   49.0086 H   0  0  0  0  0  0  0  0  0  0  0  0
   58.9988   29.4216   48.9814 H   0  0  0  0  0  0  0  0  0  0  0  0
   61.3499   31.1259   48.0259 H   0  0  0  0  0  0  0  0  0  0  0  0
   60.0030   30.4338   47.0435 H   0  0  0  0  0  0  0  0  0  0  0  0
   56.0688   27.7078   45.4073 H   0  0  0  0  0  0  0  0  0  0  0  0
  1  2  1  0
  2  3  2  0
  2  4  2  0
  2  5  1  0
  5  6  1  0
  6  7  2  0
  7  8  1  0
  8  9  2  0
  9 10  1  0
 10 11  1  0
 11 12  2  0
 11 13  2  0
 11 14  1  0
 14 15  1  0
 15 16  1  0
 16 17  2  0
 17 18  1  0
 18 19  2  0
 19 20  1  0
 20 21  2  0
 21 22  1  0
 22 23  1  0
 23 24  1  0
 24 25  1  0
 25 26  1  0
 26 27  1  0
 10 28  2  0
 28  6  1  0
 21 16  1  0
 27 22  1  0
  1 29  1  0
  1 30  1  0
  1 31  1  0
  5 32  1  0
  7 33  1  0
  8 34  1  0
  9 35  1  0
 15 36  1  0
 15 37  1  0
 17 38  1  0
 18 39  1  0
 19 40  1  0
 20 41  1  0
 23 42  1  0
 23 43  1  0
 24 44  1  0
 24 45  1  0
 25 46  1  0
 26 47  1  0
 26 48  1  0
 27 49  1  0
 27 50  1  0
 28 51  1  0
M  CHG  1  14  -1
M  END
>  <UniqueID>  (80) 
73

>  <SMILES>  (80) 
CS(=O)(=O)Nc1cccc(S(=O)(=O)[N-]Cc2ccccc2N2CCNCC2)c1

>  <Energy>  (80) 
54.55443874364585

>  <Genealogy>  (80) 
CS(=O)(=O)Nc1cccc(S(=O)(=O)[N-]Cc2ccccc2N2CCNCC2)c1 (protonated)
CS(=O)(=O)Nc1cccc(S(=O)(=O)[N-]Cc2ccccc2N2CCNCC2)c1 (3D coordinates assigned)
CS(=O)(=O)Nc1cccc(S(=O)(=O)[N-]Cc2ccccc2N2CCNCC2)c1 (nonaromatic ring conformer: 54.55443874364585 kcal/mol)

>  <smiles>  (80) 
CS(=O)(=O)Nc1cccc(S(=O)(=O)NCc2ccccc2N2CCNCC2)c1

>  <score_type>  (80) 
oracle

>  <origin>  (80) 
adg

>  <m_score__min__energy>  (80) 
-11.06

>  <m_primary>  (80) 
energy

$$$$
80:0
     RDKit          3D

 71 74  0  0  1  0  0  0  0  0999 V2000
   60.4580   29.5640   49.5610 C   0  0  0  0  0  0  0  0  0  0  0  0
   60.8230   30.8180   50.2210 N   0  0  0  0  0  0  0  0  0  0  0  0
   61.8930   30.7970   51.1130 C   0  0  0  0  0  0  0  0  0  0  0  0
   62.5260   29.7100   51.3380 O   0  0  0  0  0  0  0  0  0  0  0  0
   62.3920   31.9910   51.8660 C   0  0  0  0  0  0  0  0  0  0  0  0
   60.4480   34.7190   47.4210 N   0  0  0  0  0  0  0  0  0  0  0  0
   61.4960   34.2090   47.9870 C   0  0  0  0  0  0  0  0  0  0  0  0
   61.4490   33.9210   49.3050 N   0  0  0  0  0  0  0  0  0  0  0  0
   62.5440   33.3820   49.9240 C   0  0  0  0  0  0  0  0  0  0  0  0
   62.4710   33.2000   51.1630 N   0  0  0  0  0  0  0  0  0  0  0  0
   59.4960   33.9020   46.7350 C   0  0  0  0  0  0  0  0  0  0  0  0
   59.3220   34.0800   45.3820 C   0  0  0  0  0  0  0  0  0  0  0  0
   58.3990   33.2910   44.7060 C   0  0  0  0  0  0  0  0  0  0  0  0
   57.6380   32.3300   45.3080 C   0  0  0  0  0  0  0  0  0  0  0  0
   56.7170   31.5200   44.7280 O   0  0  0  0  0  0  0  0  0  0  0  0
   56.8490   30.5540   43.7640 C   0  0  0  0  0  0  0  0  0  0  0  0
   56.7570   29.1210   44.1460 C   0  0  0  0  0  0  0  0  0  0  0  0
   58.0080   28.5040   44.5310 N   0  0  0  0  0  0  0  0  0  0  0  0
   57.8350   28.0960   45.9200 C   0  0  0  0  0  0  0  0  0  0  0  0
   58.7190   28.8770   46.8660 C   0  0  0  0  0  0  0  0  0  0  0  0
   60.0250   28.6100   46.5180 O   0  0  0  0  0  0  0  0  0  0  0  0
   60.2960   29.0140   45.2360 C   0  0  0  0  0  0  0  0  0  0  0  0
   59.0590   29.4920   44.4750 C   0  0  0  0  0  0  0  0  0  0  0  0
   57.8380   32.1710   46.6890 C   0  0  0  0  0  0  0  0  0  0  0  0
   58.7430   32.9360   47.3880 C   0  0  0  0  0  0  0  0  0  0  0  0
   58.9690   32.8080   48.7520 O   0  0  0  0  0  0  0  0  0  0  0  0
   58.1900   32.0980   49.6580 C   0  0  0  0  0  0  0  0  0  0  0  0
   58.4770   32.5170   51.0430 C   0  0  0  0  0  0  0  0  0  0  0  0
   57.7470   32.0620   52.1420 C   0  0  0  0  0  0  0  0  0  0  0  0
   58.0220   32.4730   53.4290 C   0  0  0  0  0  0  0  0  0  0  0  0
   59.0600   33.3670   53.6270 C   0  0  0  0  0  0  0  0  0  0  0  0
   59.7750   33.8100   52.5330 C   0  0  0  0  0  0  0  0  0  0  0  0
   59.4810   33.3910   51.2990 N   0  0  0  0  0  0  0  0  0  0  0  0
   62.6200   33.9630   47.3020 N   0  0  0  0  0  0  0  0  0  0  0  0
   63.7020   33.4320   47.8980 C   0  0  0  0  0  0  0  0  0  0  0  0
   63.7030   33.1110   49.2670 C   0  0  0  0  0  0  0  0  0  0  0  0
   64.8680   32.4250   49.7350 C   0  0  0  0  0  0  0  0  0  0  0  0
   64.9930   31.2620   50.5100 N   0  0  0  0  0  0  0  0  0  0  0  0
   66.0000   32.9530   49.3720 O   0  0  0  0  0  0  0  0  0  0  0  0
   60.2358   28.8007   50.3212 H   0  0  0  0  0  0  0  0  0  0  0  0
   59.5695   29.7253   48.9328 H   0  0  0  0  0  0  0  0  0  0  0  0
   61.2943   29.2233   48.9328 H   0  0  0  0  0  0  0  0  0  0  0  0
   60.3160   31.7120   50.0480 H   0  0  0  0  0  0  0  0  0  0  0  0
   61.7190   32.1484   52.7218 H   0  0  0  0  0  0  0  0  0  0  0  0
   63.4313   31.7469   52.1313 H   0  0  0  0  0  0  0  0  0  0  0  0
   60.5740   34.1130   49.8400 H   0  0  0  0  0  0  0  0  0  0  0  0
   59.9070   34.8385   44.8412 H   0  0  0  0  0  0  0  0  0  0  0  0
   58.2743   33.4496   43.6247 H   0  0  0  0  0  0  0  0  0  0  0  0
   56.0619   30.7372   43.0177 H   0  0  0  0  0  0  0  0  0  0  0  0
   57.8906   30.6652   43.4281 H   0  0  0  0  0  0  0  0  0  0  0  0
   56.0619   29.0391   44.9946 H   0  0  0  0  0  0  0  0  0  0  0  0
   56.4175   28.5867   43.2464 H   0  0  0  0  0  0  0  0  0  0  0  0
   56.7848   28.2545   46.2063 H   0  0  0  0  0  0  0  0  0  0  0  0
   58.1184   27.0358   45.9953 H   0  0  0  0  0  0  0  0  0  0  0  0
   58.5159   29.9537   46.7691 H   0  0  0  0  0  0  0  0  0  0  0  0
   58.5261   28.5870   47.9094 H   0  0  0  0  0  0  0  0  0  0  0  0
   61.0210   29.8403   45.2768 H   0  0  0  0  0  0  0  0  0  0  0  0
   60.6909   28.1402   44.6971 H   0  0  0  0  0  0  0  0  0  0  0  0
   58.6980   30.4282   44.9257 H   0  0  0  0  0  0  0  0  0  0  0  0
   59.3340   29.6543   43.4224 H   0  0  0  0  0  0  0  0  0  0  0  0
   57.2531   31.4114   47.2284 H   0  0  0  0  0  0  0  0  0  0  0  0
   57.1275   32.2807   49.4396 H   0  0  0  0  0  0  0  0  0  0  0  0
   58.4249   31.0279   49.5595 H   0  0  0  0  0  0  0  0  0  0  0  0
   56.9241   31.3512   51.9757 H   0  0  0  0  0  0  0  0  0  0  0  0
   57.4307   32.0994   54.2780 H   0  0  0  0  0  0  0  0  0  0  0  0
   59.3106   33.7182   54.6388 H   0  0  0  0  0  0  0  0  0  0  0  0
   60.6017   34.5207   52.6796 H   0  0  0  0  0  0  0  0  0  0  0  0
   62.6640   34.1840   46.2870 H   0  0  0  0  0  0  0  0  0  0  0  0
   64.6068   33.2445   47.3012 H   0  0  0  0  0  0  0  0  0  0  0  0
   65.7430   31.1810   51.2450 H   0  0  0  0  0  0  0  0  0  0  0  0
   64.3700   30.4220   50.4160 H   0  0  0  0  0  0  0  0  0  0  0  0
  1  2  1  0
  2  3  1  0
  3  4  2  0
  3  5  1  0
  5  6  1  0
  6  7  2  0
  7  8  1  0
  8  9  1  0
  9 10  2  0
 10 11  1  0
 11 12  2  0
 12 13  1  0
 13 14  2  0
 14 15  1  0
 15 16  1  0
 16 17  1  0
 17 18  1  0
 18 19  1  0
 19 20  1  0
 20 21  1  0
 21 22  1  0
 22 23  1  0
 14 24  1  0
 24 25  2  0
 25 26  1  0
 26 27  1  0
 27 28  1  0
 28 29  2  0
 29 30  1  0
 30 31  2  0
 31 32  1  0
 32 33  2  0
  9 34  1  0
 34 35  1  0
 35 36  2  0
 36 37  1  0
 37 38  1  0
 37 39  2  0
 36  7  1  0
 25 11  1  0
 33 28  1  0
 23 18  1  0
  1 40  1  0
  1 41  1  0
  1 42  1  0
  2 43  1  0
  5 44  1  0
  5 45  1  0
  8 46  1  0
 12 47  1  0
 13 48  1  0
 16 49  1  0
 16 50  1  0
 17 51  1  0
 17 52  1  0
 19 53  1  0
 19 54  1  0
 20 55  1  0
 20 56  1  0
 22 57  1  0
 22 58  1  0
 23 59  1  0
 23 60  1  0
 24 61  1  0
 27 62  1  0
 27 63  1  0
 29 64  1  0
 30 65  1  0
 31 66  1  0
 32 67  1  0
 34 68  1  0
 35 69  1  0
 38 70  1  0
 38 71  1  0
M  END
>  <smiles>  (81) 
CNC(=O)CN=c1[nH]c(=Nc2ccc(OCCN3CCOCC3)cc2OCc2ccccn2)[nH]cc1C(N)=O

>  <score_type>  (81) 
oracle

>  <origin>  (81) 
adg

>  <m_score__min__energy>  (81) 
-9.2899999999999991

>  <m_primary>  (81) 
energy

$$$$
81:0
     RDKit          3D

 42 45  0  0  1  0  0  0  0  0999 V2000
   60.5440   33.8740   49.6430 C   0  0  0  0  0  0  0  0  0  0  0  0
   61.7590   33.5750   48.8510 C   0  0  0  0  0  0  0  0  0  0  0  0
   62.9600   33.4370   49.4440 N   0  0  0  0  0  0  0  0  0  0  0  0
   64.0770   33.1700   48.7690 C   0  0  0  0  0  0  0  0  0  0  0  0
   65.2210   33.0400   49.3480 N   0  0  0  0  0  0  0  0  0  0  0  0
   64.0440   33.0240   47.4400 N   0  0  0  0  0  0  0  0  0  0  0  0
   62.8840   33.1480   46.7880 C   0  0  0  0  0  0  0  0  0  0  0  0
   61.6700   33.4300   47.4510 C   0  0  0  0  0  0  0  0  0  0  0  0
   60.4430   33.6740   46.7380 C   0  0  0  0  0  0  0  0  0  0  0  0
   60.3960   35.0290   46.2500 C   0  0  0  0  0  0  0  0  0  0  0  0
   59.2750   35.2730   45.6080 N   0  0  0  0  0  0  0  0  0  0  0  0
   58.5600   34.1610   45.6320 C   0  0  0  0  0  0  0  0  0  0  0  0
   57.3470   33.9110   45.1160 N   0  0  0  0  0  0  0  0  0  0  0  0
   56.7670   32.7030   45.2420 C   0  0  0  0  0  0  0  0  0  0  0  0
   57.4630   31.7740   45.9070 N   0  0  0  0  0  0  0  0  0  0  0  0
   58.6630   31.9810   46.4310 C   0  0  0  0  0  0  0  0  0  0  0  0
   59.2350   31.0470   47.0220 N   0  0  0  0  0  0  0  0  0  0  0  0
   60.2630   30.1640   46.6220 C   0  0  0  0  0  0  0  0  0  0  0  0
   59.3660   29.0510   46.0220 C   0  0  0  0  0  0  0  0  0  0  0  0
   59.4310   28.8380   44.6540 C   0  0  0  0  0  0  0  0  0  0  0  0
   58.6120   27.8870   44.1280 C   0  0  0  0  0  0  0  0  0  0  0  0
   57.7850   27.2090   44.9820 C   0  0  0  0  0  0  0  0  0  0  0  0
   57.7150   27.4110   46.3350 C   0  0  0  0  0  0  0  0  0  0  0  0
   58.5360   28.3670   46.8710 C   0  0  0  0  0  0  0  0  0  0  0  0
   59.2940   33.1810   46.3340 C   0  0  0  0  0  0  0  0  0  0  0  0
   60.7818   33.8155   50.7154 H   0  0  0  0  0  0  0  0  0  0  0  0
   60.1885   34.8864   49.4010 H   0  0  0  0  0  0  0  0  0  0  0  0
   59.7592   33.1422   49.4010 H   0  0  0  0  0  0  0  0  0  0  0  0
   66.0670   33.0000   48.7340 H   0  0  0  0  0  0  0  0  0  0  0  0
   64.9320   32.8130   46.9150 H   0  0  0  0  0  0  0  0  0  0  0  0
   62.8748   33.0259   45.6948 H   0  0  0  0  0  0  0  0  0  0  0  0
   61.1982   35.7673   46.3964 H   0  0  0  0  0  0  0  0  0  0  0  0
   58.9860   36.1700   45.1560 H   0  0  0  0  0  0  0  0  0  0  0  0
   55.7733   32.4908   44.8205 H   0  0  0  0  0  0  0  0  0  0  0  0
   57.0370   30.8390   46.0150 H   0  0  0  0  0  0  0  0  0  0  0  0
   60.9295   30.6128   45.8708 H   0  0  0  0  0  0  0  0  0  0  0  0
   60.9636   29.8488   47.4093 H   0  0  0  0  0  0  0  0  0  0  0  0
   60.1181   29.4154   44.0180 H   0  0  0  0  0  0  0  0  0  0  0  0
   58.6146   27.6699   43.0496 H   0  0  0  0  0  0  0  0  0  0  0  0
   57.1256   26.4427   44.5484 H   0  0  0  0  0  0  0  0  0  0  0  0
   57.0270   26.8287   46.9656 H   0  0  0  0  0  0  0  0  0  0  0  0
   58.5294   28.5794   47.9503 H   0  0  0  0  0  0  0  0  0  0  0  0
  1  2  1  0
  2  3  2  0
  3  4  1  0
  4  5  2  3
  4  6  1  0
  6  7  1  0
  7  8  2  0
  8  9  1  0
  9 10  2  0
 10 11  1  0
 11 12  1  0
 12 13  1  0
 13 14  2  0
 14 15  1  0
 15 16  1  0
 16 17  2  0
 17 18  1  0
 18 19  1  0
 19 20  2  0
 20 21  1  0
 21 22  2  0
 22 23  1  0
 23 24  2  0
 16 25  1  0
  8  2  1  0
 25  9  1  0
 25 12  2  0
 24 19  1  0
  1 26  1  0
  1 27  1  0
  1 28  1  0
  5 29  1  0
  6 30  1  0
  7 31  1  0
 10 32  1  0
 11 33  1  0
 14 34  1  0
 15 35  1  0
 18 36  1  0
 18 37  1  0
 20 38  1  0
 21 39  1  0
 22 40  1  0
 23 41  1  0
 24 42  1  0
M  END
>  <smiles>  (82) 
Cc1nc(=N)[nH]cc1-c1c[nH]c2nc[nH]c(=NCc3ccccc3)c12

>  <score_type>  (82) 
oracle

>  <origin>  (82) 
adg

>  <m_score__min__energy>  (82) 
-7.4800000000000004

>  <m_primary>  (82) 
energy

$$$$
82:0
     RDKit          3D

 44 46  0  0  0  0  0  0  0  0999 V2000
   55.5350   29.0800   44.8790 O   0  0  0  0  0  0  0  0  0  0  0  0
   56.7370   29.0230   45.2510 C   0  0  0  0  0  0  0  0  0  0  0  0
   57.5730   27.8430   44.8190 C   0  0  0  0  0  0  0  0  0  0  0  0
   57.5570   26.7200   45.8630 C   0  0  0  0  0  0  0  0  0  0  0  0
   56.3570   25.8230   45.7130 C   0  0  0  0  0  0  0  0  0  0  0  0
   55.1190   26.3060   45.9990 N   0  0  0  0  0  0  0  0  0  0  0  0
   54.0310   25.5460   45.8650 N   0  0  0  0  0  0  0  0  0  0  0  0
   54.1270   24.2640   45.4320 C   0  0  0  0  0  0  0  0  0  0  0  0
   53.0930   23.5600   45.3070 O   0  0  0  0  0  0  0  0  0  0  0  0
   55.3440   23.7460   45.1320 N   0  0  0  0  0  0  0  0  0  0  0  0
   56.4660   24.4980   45.2620 C   0  0  0  0  0  0  0  0  0  0  0  0
   57.5870   23.9990   44.9770 O   0  0  0  0  0  0  0  0  0  0  0  0
   57.2920   30.1440   45.9540 N   0  0  0  0  0  0  0  0  0  0  0  0
   57.7280   31.3820   45.3810 C   0  0  0  0  0  0  0  0  0  0  0  0
   57.6170   31.5640   43.9990 C   0  0  0  0  0  0  0  0  0  0  0  0
   58.0400   32.7580   43.4100 C   0  0  0  0  0  0  0  0  0  0  0  0
   58.5540   33.7870   44.2010 C   0  0  0  0  0  0  0  0  0  0  0  0
   58.6290   33.6410   45.5990 C   0  0  0  0  0  0  0  0  0  0  0  0
   59.1630   34.7360   46.4420 C   0  0  0  0  0  0  0  0  0  0  0  0
   59.6960   35.7450   45.9050 O   0  0  0  0  0  0  0  0  0  0  0  0
   59.0720   34.6570   47.8690 N   0  0  0  0  0  0  0  0  0  0  0  0
   59.6440   33.5730   48.6590 C   0  0  0  0  0  0  0  0  0  0  0  0
   61.1350   33.5200   48.4630 C   0  0  0  0  0  0  0  0  0  0  0  0
   61.6690   32.9860   47.2790 C   0  0  0  0  0  0  0  0  0  0  0  0
   63.0540   32.9100   47.1020 C   0  0  0  0  0  0  0  0  0  0  0  0
   63.9150   33.3630   48.1070 C   0  0  0  0  0  0  0  0  0  0  0  0
   63.3910   33.8900   49.2910 C   0  0  0  0  0  0  0  0  0  0  0  0
   62.0060   33.9690   49.4710 C   0  0  0  0  0  0  0  0  0  0  0  0
   58.1940   32.4370   46.1820 C   0  0  0  0  0  0  0  0  0  0  0  0
   57.1749   27.4530   43.8706 H   0  0  0  0  0  0  0  0  0  0  0  0
   58.6118   28.1852   44.7013 H   0  0  0  0  0  0  0  0  0  0  0  0
   58.4684   26.1152   45.7471 H   0  0  0  0  0  0  0  0  0  0  0  0
   57.5097   27.1846   46.8589 H   0  0  0  0  0  0  0  0  0  0  0  0
   57.1949   30.7638   43.3732 H   0  0  0  0  0  0  0  0  0  0  0  0
   57.9679   32.8877   42.3201 H   0  0  0  0  0  0  0  0  0  0  0  0
   58.9025   34.7175   43.7290 H   0  0  0  0  0  0  0  0  0  0  0  0
   59.4229   33.7427   49.7231 H   0  0  0  0  0  0  0  0  0  0  0  0
   59.2042   32.6191   48.3323 H   0  0  0  0  0  0  0  0  0  0  0  0
   60.9951   32.6261   46.4876 H   0  0  0  0  0  0  0  0  0  0  0  0
   63.4669   32.4935   46.1714 H   0  0  0  0  0  0  0  0  0  0  0  0
   65.0043   33.3046   47.9657 H   0  0  0  0  0  0  0  0  0  0  0  0
   64.0687   34.2431   50.0822 H   0  0  0  0  0  0  0  0  0  0  0  0
   61.5972   34.3838   50.4042 H   0  0  0  0  0  0  0  0  0  0  0  0
   58.2191   32.3209   47.2756 H   0  0  0  0  0  0  0  0  0  0  0  0
  1  2  2  0
  2  3  1  0
  3  4  1  0
  4  5  1  0
  5  6  2  0
  6  7  1  0
  7  8  1  0
  8  9  2  0
  8 10  1  0
 10 11  1  0
 11 12  2  0
  2 13  1  0
 13 14  1  0
 14 15  2  0
 15 16  1  0
 16 17  2  0
 17 18  1  0
 18 19  1  0
 19 20  2  0
 19 21  1  0
 21 22  1  0
 22 23  1  0
 23 24  2  0
 24 25  1  0
 25 26  2  0
 26 27  1  0
 27 28  2  0
 18 29  2  0
 11  5  1  0
 29 14  1  0
 28 23  1  0
  3 30  1  0
  3 31  1  0
  4 32  1  0
  4 33  1  0
 15 34  1  0
 16 35  1  0
 17 36  1  0
 22 37  1  0
 22 38  1  0
 24 39  1  0
 25 40  1  0
 26 41  1  0
 27 42  1  0
 28 43  1  0
 29 44  1  0
M  CHG  4   7  -1  10  -1  13  -1  21  -1
M  END
>  <UniqueID>  (83) 
74

>  <SMILES>  (83) 
O=C(CCc1n[n-]c(=O)[n-]c1=O)[N-]c1cccc(C(=O)[N-]Cc2ccccc2)c1

>  <Energy>  (83) 
47.458554164044564

>  <Genealogy>  (83) 
O=C(CCc1n[n-]c(=O)[n-]c1=O)[N-]c1cccc(C(=O)[N-]Cc2ccccc2)c1 (protonated)
O=C(CCc1n[n-]c(=O)[n-]c1=O)[N-]c1cccc(C(=O)[N-]Cc2ccccc2)c1 (3D coordinates assigned)
O=C(CCc1n[n-]c(=O)[n-]c1=O)[N-]c1cccc(C(=O)[N-]Cc2ccccc2)c1 (optimized conformer: 47.458554164044564 kcal/mol)

>  <smiles>  (83) 
O=C(CCc1n[nH]c(=O)[nH]c1=O)Nc1cccc(C(=O)NCc2ccccc2)c1

>  <score_type>  (83) 
oracle

>  <origin>  (83) 
adg

>  <m_score__min__energy>  (83) 
-16.09

>  <m_primary>  (83) 
energy

$$$$
83:0
     RDKit          3D

 33 34  0  0  0  0  0  0  0  0999 V2000
   57.3570   33.3950   46.3760 C   0  0  0  0  0  0  0  0  0  0  0  0
   57.1550   32.6610   45.0550 C   0  0  0  0  0  0  0  0  0  0  0  0
   57.5840   31.2540   45.1750 N   0  0  0  0  0  0  0  0  0  0  0  0
   58.8680   30.9510   45.5520 C   0  0  0  0  0  0  0  0  0  0  0  0
   59.6970   31.8660   45.8150 O   0  0  0  0  0  0  0  0  0  0  0  0
   59.2820   29.6220   45.6470 C   0  0  0  0  0  0  0  0  0  0  0  0
   58.3690   28.6100   45.3480 C   0  0  0  0  0  0  0  0  0  0  0  0
   58.7770   27.1700   45.4000 C   0  0  0  0  0  0  0  0  0  0  0  0
   57.7730   26.3500   44.7210 N   0  0  0  0  0  0  0  0  0  0  0  0
   57.6010   24.8250   45.5360 S   0  0  0  0  0  0  0  0  0  0  0  0
   58.4790   23.8090   44.8610 O   0  0  0  0  0  0  0  0  0  0  0  0
   58.0520   24.9570   46.9650 O   0  0  0  0  0  0  0  0  0  0  0  0
   55.9230   24.2710   45.4680 C   0  0  0  0  0  0  0  0  0  0  0  0
   55.6450   22.9380   45.1460 C   0  0  0  0  0  0  0  0  0  0  0  0
   54.3600   22.5060   45.0790 N   0  0  0  0  0  0  0  0  0  0  0  0
   53.3260   23.3540   45.3150 C   0  0  0  0  0  0  0  0  0  0  0  0
   52.1410   22.9340   45.2490 O   0  0  0  0  0  0  0  0  0  0  0  0
   53.5680   24.6540   45.6190 N   0  0  0  0  0  0  0  0  0  0  0  0
   54.8380   25.1320   45.6990 C   0  0  0  0  0  0  0  0  0  0  0  0
   55.0230   26.3470   45.9730 O   0  0  0  0  0  0  0  0  0  0  0  0
   57.1170   28.9420   44.9450 N   0  0  0  0  0  0  0  0  0  0  0  0
   56.7170   30.2370   44.8550 C   0  0  0  0  0  0  0  0  0  0  0  0
   55.5430   30.4860   44.4690 O   0  0  0  0  0  0  0  0  0  0  0  0
   57.1672   32.7052   47.2115 H   0  0  0  0  0  0  0  0  0  0  0  0
   58.3907   33.7664   46.4348 H   0  0  0  0  0  0  0  0  0  0  0  0
   56.6588   34.2430   46.4348 H   0  0  0  0  0  0  0  0  0  0  0  0
   56.0898   32.6927   44.7824 H   0  0  0  0  0  0  0  0  0  0  0  0
   57.7598   33.1525   44.2787 H   0  0  0  0  0  0  0  0  0  0  0  0
   60.3099   29.3763   45.9522 H   0  0  0  0  0  0  0  0  0  0  0  0
   59.7491   27.0468   44.9002 H   0  0  0  0  0  0  0  0  0  0  0  0
   58.8594   26.8515   46.4497 H   0  0  0  0  0  0  0  0  0  0  0  0
   56.8490   26.8370   44.7940 H   0  0  0  0  0  0  0  0  0  0  0  0
   56.4700   22.2383   44.9466 H   0  0  0  0  0  0  0  0  0  0  0  0
  1  2  1  0
  2  3  1  0
  3  4  1  0
  4  5  2  0
  4  6  1  0
  6  7  2  0
  7  8  1  0
  8  9  1  0
  9 10  1  0
 10 11  2  0
 10 12  2  0
 10 13  1  0
 13 14  2  0
 14 15  1  0
 15 16  1  0
 16 17  2  0
 16 18  1  0
 18 19  1  0
 19 20  2  0
  7 21  1  0
 21 22  1  0
 22 23  2  0
 22  3  1  0
 19 13  1  0
  1 24  1  0
  1 25  1  0
  1 26  1  0
  2 27  1  0
  2 28  1  0
  6 29  1  0
  8 30  1  0
  8 31  1  0
  9 32  1  0
 14 33  1  0
M  CHG  3  15  -1  18  -1  21  -1
M  END
>  <UniqueID>  (84) 
75

>  <SMILES>  (84) 
CCn1c(=O)cc(CNS(=O)(=O)c2c[n-]c(=O)[n-]c2=O)[n-]c1=O

>  <Energy>  (84) 
34.204561170586956

>  <Genealogy>  (84) 
CCn1c(=O)cc(CNS(=O)(=O)c2c[n-]c(=O)[n-]c2=O)[n-]c1=O (protonated)
CCn1c(=O)cc(CNS(=O)(=O)c2c[n-]c(=O)[n-]c2=O)[n-]c1=O (3D coordinates assigned)
CCn1c(=O)cc(CNS(=O)(=O)c2c[n-]c(=O)[n-]c2=O)[n-]c1=O (optimized conformer: 34.204561170586956 kcal/mol)

>  <smiles>  (84) 
CCn1c(=O)cc(CNS(=O)(=O)c2c[nH]c(=O)[nH]c2=O)[nH]c1=O

>  <score_type>  (84) 
oracle

>  <origin>  (84) 
adg

>  <m_score__min__energy>  (84) 
-12.19

>  <m_primary>  (84) 
energy

$$$$
85:0
     RDKit          3D

 46 49  0  0  1  0  0  0  0  0999 V2000
   55.7530   23.5730   44.6410 C   0  0  0  0  0  0  0  0  0  0  0  0
   56.1150   24.8970   45.2270 C   0  0  0  0  0  0  0  0  0  0  0  0
   57.3140   25.5660   44.9990 C   0  0  0  0  0  0  0  0  0  0  0  0
   57.1960   26.7390   45.7430 C   0  0  0  0  0  0  0  0  0  0  0  0
   58.0860   27.6740   45.8320 N   0  0  0  0  0  0  0  0  0  0  0  0
   57.7400   29.0600   45.6270 C   0  0  0  0  0  0  0  0  0  0  0  0
   56.5240   29.3240   45.6140 O   0  0  0  0  0  0  0  0  0  0  0  0
   58.7440   30.0420   45.4550 N   0  0  0  0  0  0  0  0  0  0  0  0
   58.5270   31.4190   45.2490 C   0  0  0  0  0  0  0  0  0  0  0  0
   57.6470   31.9630   44.3500 C   0  0  0  0  0  0  0  0  0  0  0  0
   57.4730   33.3380   44.1890 C   0  0  0  0  0  0  0  0  0  0  0  0
   58.2220   34.1880   44.9680 C   0  0  0  0  0  0  0  0  0  0  0  0
   59.1320   33.6630   45.8980 C   0  0  0  0  0  0  0  0  0  0  0  0
   59.8670   34.6710   46.6980 C   0  0  0  0  0  0  0  0  0  0  0  0
   61.0210   34.1020   47.3310 C   0  0  0  0  0  0  0  0  0  0  0  0
   62.1380   33.8780   46.5530 N   0  0  0  0  0  0  0  0  0  0  0  0
   63.2270   33.3330   47.0220 N   0  0  0  0  0  0  0  0  0  0  0  0
   63.3810   32.9330   48.3050 C   0  0  0  0  0  0  0  0  0  0  0  0
   64.4730   32.4090   48.6810 O   0  0  0  0  0  0  0  0  0  0  0  0
   62.3090   33.1240   49.1420 C   0  0  0  0  0  0  0  0  0  0  0  0
   62.4470   32.7330   50.4550 C   0  0  0  0  0  0  0  0  0  0  0  0
   61.3760   32.9330   51.3150 C   0  0  0  0  0  0  0  0  0  0  0  0
   60.2220   33.5130   50.8140 C   0  0  0  0  0  0  0  0  0  0  0  0
   60.1120   33.8930   49.5010 C   0  0  0  0  0  0  0  0  0  0  0  0
   61.1610   33.7010   48.6390 C   0  0  0  0  0  0  0  0  0  0  0  0
   59.2610   32.3070   46.0150 C   0  0  0  0  0  0  0  0  0  0  0  0
   56.0100   26.7250   46.3440 N   0  0  0  0  0  0  0  0  0  0  0  0
   55.3320   25.6170   46.0460 N   0  0  0  0  0  0  0  0  0  0  0  0
   55.5567   22.8549   45.4508 H   0  0  0  0  0  0  0  0  0  0  0  0
   54.8514   23.6810   44.0201 H   0  0  0  0  0  0  0  0  0  0  0  0
   56.5841   23.2072   44.0201 H   0  0  0  0  0  0  0  0  0  0  0  0
   58.1604   25.2432   44.3750 H   0  0  0  0  0  0  0  0  0  0  0  0
   59.7370   29.6710   45.4890 H   0  0  0  0  0  0  0  0  0  0  0  0
   57.0492   31.2829   43.7254 H   0  0  0  0  0  0  0  0  0  0  0  0
   56.7537   33.7326   43.4563 H   0  0  0  0  0  0  0  0  0  0  0  0
   58.1081   35.2770   44.8624 H   0  0  0  0  0  0  0  0  0  0  0  0
   60.1894   35.4873   46.0349 H   0  0  0  0  0  0  0  0  0  0  0  0
   59.1934   35.0458   47.4827 H   0  0  0  0  0  0  0  0  0  0  0  0
   64.0460   33.1890   46.3740 H   0  0  0  0  0  0  0  0  0  0  0  0
   63.3807   32.2745   50.8127 H   0  0  0  0  0  0  0  0  0  0  0  0
   61.4422   32.6371   52.3724 H   0  0  0  0  0  0  0  0  0  0  0  0
   59.3687   33.6735   51.4894 H   0  0  0  0  0  0  0  0  0  0  0  0
   59.1806   34.3526   49.1386 H   0  0  0  0  0  0  0  0  0  0  0  0
   59.9770   31.9060   46.7475 H   0  0  0  0  0  0  0  0  0  0  0  0
   55.5930   27.4500   46.9800 H   0  0  0  0  0  0  0  0  0  0  0  0
   54.3910   25.3440   46.3710 H   0  0  0  0  0  0  0  0  0  0  0  0
  1  2  1  0
  2  3  2  0
  3  4  1  0
  4  5  2  0
  5  6  1  0
  6  7  2  0
  6  8  1  0
  8  9  1  0
  9 10  2  0
 10 11  1  0
 11 12  2  0
 12 13  1  0
 13 14  1  0
 14 15  1  0
 15 16  2  0
 16 17  1  0
 17 18  1  0
 18 19  2  0
 18 20  1  0
 20 21  2  0
 21 22  1  0
 22 23  2  0
 23 24  1  0
 24 25  2  0
 13 26  2  0
  4 27  1  0
 27 28  1  0
 28  2  1  0
 26  9  1  0
 25 15  1  0
 25 20  1  0
  1 29  1  0
  1 30  1  0
  1 31  1  0
  3 32  1  0
  8 33  1  0
 10 34  1  0
 11 35  1  0
 12 36  1  0
 14 37  1  0
 14 38  1  0
 17 39  1  0
 21 40  1  0
 22 41  1  0
 23 42  1  0
 24 43  1  0
 26 44  1  0
 27 45  1  0
 28 46  1  0
M  END
>  <smiles>  (85) 
Cc1cc(=NC(=O)Nc2cccc(Cc3n[nH]c(=O)c4ccccc34)c2)[nH][nH]1

>  <score_type>  (85) 
oracle

>  <origin>  (85) 
adg

>  <m_score__min__energy>  (85) 
-9.8300000000000001

>  <m_primary>  (85) 
energy

$$$$
86:0
     RDKit          3D

 55 57  0  0  0  0  0  0  0  0999 V2000
   60.8570   28.8020   50.0370 C   0  0  0  0  0  0  0  0  0  0  0  0
   60.0540   28.4020   48.8320 C   0  0  0  0  0  0  0  0  0  0  0  0
   60.1980   27.1140   48.2960 C   0  0  0  0  0  0  0  0  0  0  0  0
   59.4500   26.7250   47.1820 C   0  0  0  0  0  0  0  0  0  0  0  0
   58.5430   27.6200   46.5900 C   0  0  0  0  0  0  0  0  0  0  0  0
   57.7310   27.2020   45.3950 C   0  0  0  0  0  0  0  0  0  0  0  0
   56.2790   27.4850   45.6230 C   0  0  0  0  0  0  0  0  0  0  0  0
   55.5500   26.5940   46.1360 O   0  0  0  0  0  0  0  0  0  0  0  0
   55.7490   28.7650   45.2460 N   0  0  0  0  0  0  0  0  0  0  0  0
   56.3170   29.7700   44.3840 C   0  0  0  0  0  0  0  0  0  0  0  0
   56.1810   29.7590   42.9840 C   0  0  0  0  0  0  0  0  0  0  0  0
   56.7420   30.7850   42.2110 C   0  0  0  0  0  0  0  0  0  0  0  0
   57.4670   31.8080   42.8240 C   0  0  0  0  0  0  0  0  0  0  0  0
   57.6340   31.8200   44.2140 C   0  0  0  0  0  0  0  0  0  0  0  0
   58.3540   32.9010   44.8170 N   0  0  0  0  0  0  0  0  0  0  0  0
   58.2440   33.3450   46.1780 C   0  0  0  0  0  0  0  0  0  0  0  0
   57.1000   33.4100   46.7040 O   0  0  0  0  0  0  0  0  0  0  0  0
   59.4370   33.8910   46.9300 C   0  0  0  0  0  0  0  0  0  0  0  0
   59.6330   33.1440   48.2740 C   0  0  0  0  0  0  0  0  0  0  0  0
   60.7390   32.0780   48.1860 C   0  0  0  0  0  0  0  0  0  0  0  0
   62.0450   32.6350   47.7570 N   0  0  0  0  0  0  0  0  0  0  0  0
   63.1330   32.8710   49.1090 S   0  0  0  0  0  0  0  0  0  0  0  0
   63.1330   31.4720   50.2190 C   0  0  0  0  0  0  0  0  0  0  0  0
   64.5260   33.0740   48.5890 O   0  0  0  0  0  0  0  0  0  0  0  0
   62.7270   34.0940   49.8800 O   0  0  0  0  0  0  0  0  0  0  0  0
   61.9610   33.8620   46.9330 C   0  0  0  0  0  0  0  0  0  0  0  0
   60.7080   33.8610   46.0560 C   0  0  0  0  0  0  0  0  0  0  0  0
   57.0170   30.8240   44.9930 C   0  0  0  0  0  0  0  0  0  0  0  0
   58.4180   28.9180   47.1110 C   0  0  0  0  0  0  0  0  0  0  0  0
   59.1600   29.3020   48.2310 C   0  0  0  0  0  0  0  0  0  0  0  0
   60.3084   28.5287   50.9504 H   0  0  0  0  0  0  0  0  0  0  0  0
   61.8258   28.2812   50.0215 H   0  0  0  0  0  0  0  0  0  0  0  0
   61.0248   29.8890   50.0215 H   0  0  0  0  0  0  0  0  0  0  0  0
   60.9038   26.4062   48.7552 H   0  0  0  0  0  0  0  0  0  0  0  0
   59.5717   25.7137   46.7666 H   0  0  0  0  0  0  0  0  0  0  0  0
   58.0741   27.7597   44.5111 H   0  0  0  0  0  0  0  0  0  0  0  0
   57.8622   26.1215   45.2360 H   0  0  0  0  0  0  0  0  0  0  0  0
   55.6320   28.9416   42.4936 H   0  0  0  0  0  0  0  0  0  0  0  0
   56.6105   30.7839   41.1189 H   0  0  0  0  0  0  0  0  0  0  0  0
   57.9091   32.6083   42.2124 H   0  0  0  0  0  0  0  0  0  0  0  0
   59.2396   34.9460   47.1707 H   0  0  0  0  0  0  0  0  0  0  0  0
   59.9052   33.8747   49.0498 H   0  0  0  0  0  0  0  0  0  0  0  0
   58.6895   32.6347   48.5199 H   0  0  0  0  0  0  0  0  0  0  0  0
   60.8624   31.6177   49.1774 H   0  0  0  0  0  0  0  0  0  0  0  0
   60.4291   31.3427   47.4288 H   0  0  0  0  0  0  0  0  0  0  0  0
   64.1701   31.1848   50.4469 H   0  0  0  0  0  0  0  0  0  0  0  0
   62.6145   31.7430   51.1505 H   0  0  0  0  0  0  0  0  0  0  0  0
   62.6145   30.6265   49.7433 H   0  0  0  0  0  0  0  0  0  0  0  0
   61.9319   34.7380   47.5976 H   0  0  0  0  0  0  0  0  0  0  0  0
   62.8428   33.8990   46.2765 H   0  0  0  0  0  0  0  0  0  0  0  0
   60.7209   34.7478   45.4052 H   0  0  0  0  0  0  0  0  0  0  0  0
   60.7001   32.9445   45.4478 H   0  0  0  0  0  0  0  0  0  0  0  0
   57.0836   30.8714   46.0900 H   0  0  0  0  0  0  0  0  0  0  0  0
   57.7331   29.6355   46.6354 H   0  0  0  0  0  0  0  0  0  0  0  0
   59.0430   30.3148   48.6439 H   0  0  0  0  0  0  0  0  0  0  0  0
  1  2  1  0
  2  3  2  0
  3  4  1  0
  4  5  2  0
  5  6  1  0
  6  7  1  0
  7  8  2  0
  7  9  1  0
  9 10  1  0
 10 11  2  0
 11 12  1  0
 12 13  2  0
 13 14  1  0
 14 15  1  0
 15 16  1  0
 16 17  2  0
 16 18  1  0
 18 19  1  0
 19 20  1  0
 20 21  1  0
 21 22  1  0
 22 23  1  0
 22 24  2  0
 22 25  2  0
 21 26  1  0
 26 27  1  0
 14 28  2  0
  5 29  1  0
 29 30  2  0
 30  2  1  0
 28 10  1  0
 27 18  1  0
  1 31  1  0
  1 32  1  0
  1 33  1  0
  3 34  1  0
  4 35  1  0
  6 36  1  0
  6 37  1  0
 11 38  1  0
 12 39  1  0
 13 40  1  0
 18 41  1  0
 19 42  1  0
 19 43  1  0
 20 44  1  0
 20 45  1  0
 23 46  1  0
 23 47  1  0
 23 48  1  0
 26 49  1  0
 26 50  1  0
 27 51  1  0
 27 52  1  0
 28 53  1  0
 29 54  1  0
 30 55  1  0
M  CHG  2   9  -1  15  -1
M  END
>  <UniqueID>  (86) 
76

>  <SMILES>  (86) 
Cc1ccc(CC(=O)[N-]c2cccc([N-]C(=O)C3CCN(S(C)(=O)=O)CC3)c2)cc1

>  <Energy>  (86) 
65.28900922889392

>  <Genealogy>  (86) 
Cc1ccc(CC(=O)[N-]c2cccc([N-]C(=O)C3CCN(S(C)(=O)=O)CC3)c2)cc1 (protonated)
Cc1ccc(CC(=O)[N-]c2cccc([N-]C(=O)C3CCN(S(C)(=O)=O)CC3)c2)cc1 (3D coordinates assigned)
Cc1ccc(CC(=O)[N-]c2cccc([N-]C(=O)C3CCN(S(C)(=O)=O)CC3)c2)cc1 (nonaromatic ring conformer: 65.28900922889392 kcal/mol)

>  <smiles>  (86) 
Cc1ccc(CC(=O)Nc2cccc(NC(=O)C3CCN(S(C)(=O)=O)CC3)c2)cc1

>  <score_type>  (86) 
oracle

>  <origin>  (86) 
adg

>  <m_score__min__energy>  (86) 
-12.26

>  <m_primary>  (86) 
energy

$$$$
87:0
     RDKit          3D

 81 86  0  0  0  0  0  0  0  0999 V2000
   63.8700   32.9290   46.8380 O   0  0  0  0  0  0  0  0  0  0  0  0
   63.0200   32.9480   47.7690 C   0  0  0  0  0  0  0  0  0  0  0  0
   61.5910   33.1480   47.4350 C   0  0  0  0  0  0  0  0  0  0  0  0
   61.2050   34.2190   46.6110 C   0  0  0  0  0  0  0  0  0  0  0  0
   59.8560   34.4350   46.3140 C   0  0  0  0  0  0  0  0  0  0  0  0
   58.8720   33.5820   46.8350 C   0  0  0  0  0  0  0  0  0  0  0  0
   57.4200   33.8480   46.5620 C   0  0  0  0  0  0  0  0  0  0  0  0
   57.0090   33.2730   44.8790 S   0  0  0  0  0  0  0  0  0  0  0  0
   58.3970   32.0960   44.7310 C   0  0  0  0  0  0  0  0  0  0  0  0
   57.8900   30.6980   44.5820 C   0  0  0  0  0  0  0  0  0  0  0  0
   58.5970   29.6100   44.1220 C   0  0  0  0  0  0  0  0  0  0  0  0
   57.7400   28.5770   44.1500 N   0  0  0  0  0  0  0  0  0  0  0  0
   58.0400   27.1830   43.8420 C   0  0  0  0  0  0  0  0  0  0  0  0
   57.7340   26.3180   45.0380 C   0  0  0  0  0  0  0  0  0  0  0  0
   56.8230   25.2550   44.9100 C   0  0  0  0  0  0  0  0  0  0  0  0
   56.4730   24.4840   46.0230 C   0  0  0  0  0  0  0  0  0  0  0  0
   57.0160   24.7750   47.2750 C   0  0  0  0  0  0  0  0  0  0  0  0
   57.9110   25.8370   47.4190 C   0  0  0  0  0  0  0  0  0  0  0  0
   58.2770   26.6090   46.3100 C   0  0  0  0  0  0  0  0  0  0  0  0
   59.1620   27.6770   46.4930 O   0  0  0  0  0  0  0  0  0  0  0  0
   59.4740   28.2320   47.7420 C   0  0  0  0  0  0  0  0  0  0  0  0
   60.5580   27.7760   48.5180 C   0  0  0  0  0  0  0  0  0  0  0  0
   60.8280   28.3620   49.7590 C   0  0  0  0  0  0  0  0  0  0  0  0
   60.0210   29.3980   50.2360 C   0  0  0  0  0  0  0  0  0  0  0  0
   58.9430   29.8530   49.4700 C   0  0  0  0  0  0  0  0  0  0  0  0
   58.6710   29.2700   48.2290 C   0  0  0  0  0  0  0  0  0  0  0  0
   56.5730   29.0070   44.6040 N   0  0  0  0  0  0  0  0  0  0  0  0
   56.6330   30.3040   44.8690 N   0  0  0  0  0  0  0  0  0  0  0  0
   59.2520   32.5250   47.6750 C   0  0  0  0  0  0  0  0  0  0  0  0
   60.6010   32.3100   47.9740 C   0  0  0  0  0  0  0  0  0  0  0  0
   63.4650   32.7840   49.1300 N   0  0  0  0  0  0  0  0  0  0  0  0
   62.6830   31.9980   50.0960 C   0  0  0  0  0  0  0  0  0  0  0  0
   63.5960   30.9900   50.8100 C   0  0  0  0  0  0  0  0  0  0  0  0
   64.9230   31.5970   51.3750 C   0  0  0  0  0  0  0  0  0  0  0  0
   66.0800   30.7650   50.9120 N   0  0  0  0  0  0  0  0  0  0  0  0
   66.1830   29.4750   51.6430 C   0  0  0  0  0  0  0  0  0  0  0  0
   66.7600   29.6310   53.0640 C   0  0  0  0  0  0  0  0  0  0  0  0
   68.0880   30.3910   53.0500 C   0  0  0  0  0  0  0  0  0  0  0  0
   67.9590   31.7000   52.2710 C   0  0  0  0  0  0  0  0  0  0  0  0
   67.4120   31.4180   50.8650 C   0  0  0  0  0  0  0  0  0  0  0  0
   65.0300   33.1060   51.0160 C   0  0  0  0  0  0  0  0  0  0  0  0
   64.7640   33.3460   49.5260 C   0  0  0  0  0  0  0  0  0  0  0  0
   61.9699   34.8923   46.1967 H   0  0  0  0  0  0  0  0  0  0  0  0
   59.5651   35.2773   45.6691 H   0  0  0  0  0  0  0  0  0  0  0  0
   56.8031   33.3085   47.2958 H   0  0  0  0  0  0  0  0  0  0  0  0
   57.2210   34.9269   46.6423 H   0  0  0  0  0  0  0  0  0  0  0  0
   58.9998   32.3575   43.8488 H   0  0  0  0  0  0  0  0  0  0  0  0
   59.0096   32.1549   45.6427 H   0  0  0  0  0  0  0  0  0  0  0  0
   59.6481   29.5910   43.7981 H   0  0  0  0  0  0  0  0  0  0  0  0
   57.4262   26.8573   42.9892 H   0  0  0  0  0  0  0  0  0  0  0  0
   59.1063   27.0885   43.5890 H   0  0  0  0  0  0  0  0  0  0  0  0
   56.3826   25.0282   43.9279 H   0  0  0  0  0  0  0  0  0  0  0  0
   55.7684   23.6467   45.9113 H   0  0  0  0  0  0  0  0  0  0  0  0
   56.7388   24.1674   48.1491 H   0  0  0  0  0  0  0  0  0  0  0  0
   58.3307   26.0683   48.4091 H   0  0  0  0  0  0  0  0  0  0  0  0
   61.1930   26.9578   48.1473 H   0  0  0  0  0  0  0  0  0  0  0  0
   61.6775   28.0065   50.3607 H   0  0  0  0  0  0  0  0  0  0  0  0
   60.2334   29.8555   51.2135 H   0  0  0  0  0  0  0  0  0  0  0  0
   58.3088   30.6701   49.8443 H   0  0  0  0  0  0  0  0  0  0  0  0
   57.8204   29.6293   47.6312 H   0  0  0  0  0  0  0  0  0  0  0  0
   58.4848   31.8616   48.1008 H   0  0  0  0  0  0  0  0  0  0  0  0
   60.8886   31.4795   48.6354 H   0  0  0  0  0  0  0  0  0  0  0  0
   62.2349   32.6743   50.8389 H   0  0  0  0  0  0  0  0  0  0  0  0
   61.8897   31.4538   49.5626 H   0  0  0  0  0  0  0  0  0  0  0  0
   63.0344   30.5532   51.6489 H   0  0  0  0  0  0  0  0  0  0  0  0
   63.8908   30.2475   50.0539 H   0  0  0  0  0  0  0  0  0  0  0  0
   64.9316   31.5636   52.4745 H   0  0  0  0  0  0  0  0  0  0  0  0
   65.1780   29.0344   51.7194 H   0  0  0  0  0  0  0  0  0  0  0  0
   66.8724   28.8310   51.0773 H   0  0  0  0  0  0  0  0  0  0  0  0
   66.0386   30.1834   53.6840 H   0  0  0  0  0  0  0  0  0  0  0  0
   66.9415   28.6269   53.4748 H   0  0  0  0  0  0  0  0  0  0  0  0
   68.3854   30.6156   54.0849 H   0  0  0  0  0  0  0  0  0  0  0  0
   68.8470   29.7635   52.5598 H   0  0  0  0  0  0  0  0  0  0  0  0
   67.2709   32.3743   52.8018 H   0  0  0  0  0  0  0  0  0  0  0  0
   68.9494   32.1712   52.1871 H   0  0  0  0  0  0  0  0  0  0  0  0
   67.3230   32.3695   50.3202 H   0  0  0  0  0  0  0  0  0  0  0  0
   68.1095   30.7354   50.3576 H   0  0  0  0  0  0  0  0  0  0  0  0
   64.2913   33.6677   51.6065 H   0  0  0  0  0  0  0  0  0  0  0  0
   66.0512   33.4449   51.2445 H   0  0  0  0  0  0  0  0  0  0  0  0
   64.7635   34.4283   49.3296 H   0  0  0  0  0  0  0  0  0  0  0  0
   65.5545   32.8511   48.9428 H   0  0  0  0  0  0  0  0  0  0  0  0
  1  2  2  0
  2  3  1  0
  3  4  2  0
  4  5  1  0
  5  6  2  0
  6  7  1  0
  7  8  1  0
  8  9  1  0
  9 10  1  0
 10 11  2  0
 11 12  1  0
 12 13  1  0
 13 14  1  0
 14 15  2  0
 15 16  1  0
 16 17  2  0
 17 18  1  0
 18 19  2  0
 19 20  1  0
 20 21  1  0
 21 22  2  0
 22 23  1  0
 23 24  2  0
 24 25  1  0
 25 26  2  0
 12 27  1  0
 27 28  2  0
  6 29  1  0
 29 30  2  0
  2 31  1  0
 31 32  1  0
 32 33  1  0
 33 34  1  0
 34 35  1  0
 35 36  1  0
 36 37  1  0
 37 38  1  0
 38 39  1  0
 39 40  1  0
 34 41  1  0
 41 42  1  0
 30  3  1  0
 42 31  1  0
 28 10  1  0
 40 35  1  0
 19 14  1  0
 26 21  1  0
  4 43  1  0
  5 44  1  0
  7 45  1  0
  7 46  1  0
  9 47  1  0
  9 48  1  0
 11 49  1  0
 13 50  1  0
 13 51  1  0
 15 52  1  0
 16 53  1  0
 17 54  1  0
 18 55  1  0
 22 56  1  0
 23 57  1  0
 24 58  1  0
 25 59  1  0
 26 60  1  0
 29 61  1  0
 30 62  1  0
 32 63  1  0
 32 64  1  0
 33 65  1  0
 33 66  1  0
 34 67  1  0
 36 68  1  0
 36 69  1  0
 37 70  1  0
 37 71  1  0
 38 72  1  0
 38 73  1  0
 39 74  1  0
 39 75  1  0
 40 76  1  0
 40 77  1  0
 41 78  1  0
 41 79  1  0
 42 80  1  0
 42 81  1  0
M  END
>  <UniqueID>  (87) 
77

>  <SMILES>  (87) 
O=C(c1ccc(CSCc2cn(Cc3ccccc3Oc3ccccc3)nn2)cc1)N1CCC(N2CCCCC2)CC1

>  <Energy>  (87) 
139.22996086066956

>  <Genealogy>  (87) 
O=C(c1ccc(CSCc2cn(Cc3ccccc3Oc3ccccc3)nn2)cc1)N1CCC(N2CCCCC2)CC1 (3D coordinates assigned)
O=C(c1ccc(CSCc2cn(Cc3ccccc3Oc3ccccc3)nn2)cc1)N1CCC(N2CCCCC2)CC1 (nonaromatic ring conformer: 139.22996086066956 kcal/mol)

>  <smiles>  (87) 
O=C(c1ccc(CSCc2cn(Cc3ccccc3Oc3ccccc3)nn2)cc1)N1CCC(N2CCCCC2)CC1

>  <score_type>  (87) 
oracle

>  <origin>  (87) 
adg

>  <m_score__min__energy>  (87) 
-11.4

>  <m_primary>  (87) 
energy

$$$$
