0:0
     RDKit          3D

 43 45  0  0  0  0  0  0  0  0999 V2000
   54.8310   26.3250   45.9930 N   0  0  0  0  0  0  0  0  0  0  0  0
   56.1280   25.1960   46.1840 S   0  0  0  0  0  0  0  0  0  0  0  0
   56.2000   24.3130   44.9710 O   0  0  0  0  0  0  0  0  0  0  0  0
   55.8590   24.3560   47.4020 O   0  0  0  0  0  0  0  0  0  0  0  0
   57.6550   26.0490   46.3820 C   0  0  0  0  0  0  0  0  0  0  0  0
   58.8630   25.4380   46.0210 C   0  0  0  0  0  0  0  0  0  0  0  0
   60.0700   26.1240   46.1770 C   0  0  0  0  0  0  0  0  0  0  0  0
   60.0750   27.4270   46.6830 C   0  0  0  0  0  0  0  0  0  0  0  0
   58.8750   28.0550   47.0360 C   0  0  0  0  0  0  0  0  0  0  0  0
   58.9250   29.3890   47.5660 N   0  0  0  0  0  0  0  0  0  0  0  0
   59.7010   30.4930   47.0760 C   0  0  0  0  0  0  0  0  0  0  0  0
   60.9540   30.4420   47.1920 O   0  0  0  0  0  0  0  0  0  0  0  0
   59.0820   31.6470   46.3770 C   0  0  0  0  0  0  0  0  0  0  0  0
   57.9750   31.4320   45.5370 C   0  0  0  0  0  0  0  0  0  0  0  0
   57.3890   32.4940   44.8490 C   0  0  0  0  0  0  0  0  0  0  0  0
   57.9130   33.7810   44.9710 C   0  0  0  0  0  0  0  0  0  0  0  0
   59.0240   34.0130   45.7850 C   0  0  0  0  0  0  0  0  0  0  0  0
   59.6710   35.6450   45.8940 Cl  0  0  0  0  0  0  0  0  0  0  0  0
   59.6080   32.9550   46.5040 C   0  0  0  0  0  0  0  0  0  0  0  0
   60.7340   33.2160   47.3460 N   0  0  0  0  0  0  0  0  0  0  0  0
   60.5450   33.6980   48.9980 S   0  0  0  0  0  0  0  0  0  0  0  0
   61.8690   34.1280   49.5640 O   0  0  0  0  0  0  0  0  0  0  0  0
   59.6000   34.8640   49.0670 O   0  0  0  0  0  0  0  0  0  0  0  0
   59.8830   32.3620   49.9330 C   0  0  0  0  0  0  0  0  0  0  0  0
   58.5390   32.3880   50.3350 C   0  0  0  0  0  0  0  0  0  0  0  0
   57.9980   31.3110   51.0450 C   0  0  0  0  0  0  0  0  0  0  0  0
   58.7970   30.2070   51.3590 C   0  0  0  0  0  0  0  0  0  0  0  0
   58.2700   29.1620   52.0450 F   0  0  0  0  0  0  0  0  0  0  0  0
   60.1390   30.1790   50.9650 C   0  0  0  0  0  0  0  0  0  0  0  0
   60.6810   31.2550   50.2550 C   0  0  0  0  0  0  0  0  0  0  0  0
   57.6660   27.3470   46.9110 C   0  0  0  0  0  0  0  0  0  0  0  0
   55.1500   27.0440   45.3060 H   0  0  0  0  0  0  0  0  0  0  0  0
   58.8611   24.4161   45.6139 H   0  0  0  0  0  0  0  0  0  0  0  0
   61.0176   25.6381   45.9013 H   0  0  0  0  0  0  0  0  0  0  0  0
   61.0282   27.9623   46.8046 H   0  0  0  0  0  0  0  0  0  0  0  0
   57.5675   30.4168   45.4215 H   0  0  0  0  0  0  0  0  0  0  0  0
   56.5121   32.3165   44.2090 H   0  0  0  0  0  0  0  0  0  0  0  0
   57.4498   34.6157   44.4245 H   0  0  0  0  0  0  0  0  0  0  0  0
   57.9097   33.2567   50.0914 H   0  0  0  0  0  0  0  0  0  0  0  0
   56.9433   31.3324   51.3566 H   0  0  0  0  0  0  0  0  0  0  0  0
   60.7675   29.3111   51.2135 H   0  0  0  0  0  0  0  0  0  0  0  0
   61.7371   31.2328   49.9481 H   0  0  0  0  0  0  0  0  0  0  0  0
   56.7231   27.8149   47.2304 H   0  0  0  0  0  0  0  0  0  0  0  0
  1  2  1  0
  2  3  2  0
  2  4  2  0
  2  5  1  0
  5  6  2  0
  6  7  1  0
  7  8  2  0
  8  9  1  0
  9 10  1  0
 10 11  1  0
 11 12  2  0
 11 13  1  0
 13 14  2  0
 14 15  1  0
 15 16  2  0
 16 17  1  0
 17 18  1  0
 17 19  2  0
 19 20  1  0
 20 21  1  0
 21 22  2  0
 21 23  2  0
 21 24  1  0
 24 25  2  0
 25 26  1  0
 26 27  2  0
 27 28  1  0
 27 29  1  0
 29 30  2  0
  9 31  2  0
 31  5  1  0
 19 13  1  0
 30 24  1  0
  1 32  1  0
  6 33  1  0
  7 34  1  0
  8 35  1  0
 14 36  1  0
 15 37  1  0
 16 38  1  0
 25 39  1  0
 26 40  1  0
 29 41  1  0
 30 42  1  0
 31 43  1  0
M  CHG  3   1  -1  10  -1  20  -1
M  END
>  <UniqueID>  (1) 
1

>  <SMILES>  (1) 
[NH-]S(=O)(=O)c1cccc([N-]C(=O)c2cccc(Cl)c2[N-]S(=O)(=O)c2ccc(F)cc2)c1

>  <Energy>  (1) 
60.41268647893793

>  <Genealogy>  (1) 
[NH-]S(=O)(=O)c1cccc([N-]C(=O)c2cccc(Cl)c2[N-]S(=O)(=O)c2ccc(F)cc2)c1 (protonated)
[NH-]S(=O)(=O)c1cccc([N-]C(=O)c2cccc(Cl)c2[N-]S(=O)(=O)c2ccc(F)cc2)c1 (3D coordinates assigned)
[NH-]S(=O)(=O)c1cccc([N-]C(=O)c2cccc(Cl)c2[N-]S(=O)(=O)c2ccc(F)cc2)c1 (optimized conformer: 60.41268647893793 kcal/mol)

>  <smiles>  (1) 
NS(=O)(=O)c1cccc(NC(=O)c2cccc(Cl)c2NS(=O)(=O)c2ccc(F)cc2)c1

>  <score_type>  (1) 
oracle

>  <origin>  (1) 
adg

>  <m_score__min__energy>  (1) 
-14.65

>  <m_primary>  (1) 
energy

$$$$
1:0
     RDKit          3D

 60 63  0  0  0  0  0  0  0  0999 V2000
   58.0720   27.8130   44.6470 C   0  0  0  0  0  0  0  0  0  0  0  0
   57.7330   29.2810   44.6880 C   0  0  0  0  0  0  0  0  0  0  0  0
   58.1140   30.0620   45.7870 C   0  0  0  0  0  0  0  0  0  0  0  0
   57.7810   31.3880   45.8530 N   0  0  0  0  0  0  0  0  0  0  0  0
   58.1490   32.1840   47.0440 C   0  0  1  0  0  0  0  0  0  0  0  0
   59.6050   31.9810   47.3940 C   0  0  0  0  0  0  0  0  0  0  0  0
   59.8770   33.2060   48.2200 C   0  0  1  0  0  0  0  0  0  0  0  0
   61.3070   33.6290   48.3590 N   0  0  0  0  0  0  0  0  0  0  0  0
   62.2630   32.7730   47.6220 C   0  0  0  0  0  0  0  0  0  0  0  0
   63.6710   33.3780   47.6830 C   0  0  0  0  0  0  0  0  0  0  0  0
   64.1600   33.6060   49.1240 C   0  0  0  0  0  0  0  0  0  0  0  0
   64.8900   32.3960   49.7150 C   0  0  0  0  0  0  0  0  0  0  0  0
   64.2090   31.4350   50.0360 O   0  0  0  0  0  0  0  0  0  0  0  0
   66.3300   32.3560   49.9370 N   0  0  0  0  0  0  0  0  0  0  0  0
   66.7990   33.5640   50.6490 C   0  0  0  0  0  0  0  0  0  0  0  0
   66.4380   33.5480   52.1560 C   0  0  0  0  0  0  0  0  0  0  0  0
   65.9720   32.2880   52.6020 O   0  0  0  0  0  0  0  0  0  0  0  0
   66.8530   31.2780   52.1610 C   0  0  0  0  0  0  0  0  0  0  0  0
   66.7610   31.1170   50.6270 C   0  0  0  0  0  0  0  0  0  0  0  0
   63.0730   34.2040   50.0410 C   0  0  0  0  0  0  0  0  0  0  0  0
   61.6660   33.6350   49.8000 C   0  0  0  0  0  0  0  0  0  0  0  0
   59.0020   34.2480   47.4910 C   0  0  1  0  0  0  0  0  0  0  0  0
   59.7840   35.0890   46.4530 C   0  0  0  0  0  0  0  0  0  0  0  0
   59.1960   34.9590   45.1850 O   0  0  0  0  0  0  0  0  0  0  0  0
   57.9470   33.5690   46.8330 O   0  0  0  0  0  0  0  0  0  0  0  0
   57.0160   31.9510   44.8580 C   0  0  0  0  0  0  0  0  0  0  0  0
   56.6600   33.1670   44.9140 O   0  0  0  0  0  0  0  0  0  0  0  0
   56.6140   31.1990   43.8030 N   0  0  0  0  0  0  0  0  0  0  0  0
   56.9470   29.8850   43.6970 C   0  0  0  0  0  0  0  0  0  0  0  0
   56.5400   29.2190   42.7040 O   0  0  0  0  0  0  0  0  0  0  0  0
   58.1608   27.4284   45.6737 H   0  0  0  0  0  0  0  0  0  0  0  0
   57.2762   27.2675   44.1187 H   0  0  0  0  0  0  0  0  0  0  0  0
   59.0264   27.6717   44.1187 H   0  0  0  0  0  0  0  0  0  0  0  0
   58.6875   29.6042   46.6065 H   0  0  0  0  0  0  0  0  0  0  0  0
   57.5011   31.8374   47.8626 H   0  0  0  0  0  0  0  0  0  0  0  0
   59.7555   31.0600   47.9763 H   0  0  0  0  0  0  0  0  0  0  0  0
   60.2679   31.8655   46.5238 H   0  0  0  0  0  0  0  0  0  0  0  0
   59.6406   33.0437   49.2820 H   0  0  0  0  0  0  0  0  0  0  0  0
   62.2780   31.7710   48.0756 H   0  0  0  0  0  0  0  0  0  0  0  0
   61.9469   32.7044   46.5706 H   0  0  0  0  0  0  0  0  0  0  0  0
   64.3696   32.6940   47.1789 H   0  0  0  0  0  0  0  0  0  0  0  0
   63.6316   34.3592   47.1874 H   0  0  0  0  0  0  0  0  0  0  0  0
   64.9333   34.3859   49.0621 H   0  0  0  0  0  0  0  0  0  0  0  0
   66.8000   32.3520   49.0140 H   0  0  0  0  0  0  0  0  0  0  0  0
   67.8926   33.6286   50.5498 H   0  0  0  0  0  0  0  0  0  0  0  0
   66.2975   34.4321   50.1964 H   0  0  0  0  0  0  0  0  0  0  0  0
   67.3355   33.8139   52.7338 H   0  0  0  0  0  0  0  0  0  0  0  0
   65.6226   34.2710   52.3056 H   0  0  0  0  0  0  0  0  0  0  0  0
   67.8829   31.5495   52.4361 H   0  0  0  0  0  0  0  0  0  0  0  0
   66.5735   30.3268   52.6376 H   0  0  0  0  0  0  0  0  0  0  0  0
   67.7519   30.8302   50.2451 H   0  0  0  0  0  0  0  0  0  0  0  0
   66.0023   30.3471   50.4230 H   0  0  0  0  0  0  0  0  0  0  0  0
   63.3529   34.0023   51.0855 H   0  0  0  0  0  0  0  0  0  0  0  0
   63.0233   35.2793   49.8145 H   0  0  0  0  0  0  0  0  0  0  0  0
   61.6307   32.6029   50.1790 H   0  0  0  0  0  0  0  0  0  0  0  0
   60.9451   34.2775   50.3268 H   0  0  0  0  0  0  0  0  0  0  0  0
   58.6266   34.9488   48.2512 H   0  0  0  0  0  0  0  0  0  0  0  0
   59.7675   36.1466   46.7549 H   0  0  0  0  0  0  0  0  0  0  0  0
   60.8224   34.7290   46.4068 H   0  0  0  0  0  0  0  0  0  0  0  0
   58.4600   34.3000   45.2820 H   0  0  0  0  0  0  0  0  0  0  0  0
  1  2  1  0
  2  3  2  0
  3  4  1  0
  4  5  1  0
  5  6  1  0
  6  7  1  0
  7  8  1  0
  8  9  1  0
  9 10  1  0
 10 11  1  0
 11 12  1  0
 12 13  2  0
 12 14  1  0
 14 15  1  0
 15 16  1  0
 16 17  1  0
 17 18  1  0
 18 19  1  0
 11 20  1  0
 20 21  1  0
  7 22  1  0
 22 23  1  0
 23 24  1  0
 22 25  1  0
  4 26  1  0
 26 27  2  0
 26 28  1  0
 28 29  1  0
 29 30  2  0
 29  2  1  0
 25  5  1  0
 21  8  1  0
 19 14  1  0
  1 31  1  0
  1 32  1  0
  1 33  1  0
  3 34  1  0
  5 35  1  1
  6 36  1  0
  6 37  1  0
  7 38  1  1
  9 39  1  0
  9 40  1  0
 10 41  1  0
 10 42  1  0
 11 43  1  0
 14 44  1  0
 15 45  1  0
 15 46  1  0
 16 47  1  0
 16 48  1  0
 18 49  1  0
 18 50  1  0
 19 51  1  0
 19 52  1  0
 20 53  1  0
 20 54  1  0
 21 55  1  0
 21 56  1  0
 22 57  1  1
 23 58  1  0
 23 59  1  0
 24 60  1  0
M  CHG  2  14   1  28  -1
M  END
>  <UniqueID>  (2) 
2

>  <SMILES>  (2) 
Cc1cn([C@H]2C[C@@H](N3CCC(C(=O)[NH+]4CCOCC4)CC3)C(CO)O2)c(=O)[n-]c1=O

>  <Energy>  (2) 
90.78287532341956

>  <Genealogy>  (2) 
Cc1cn(C2CC(N3CCC(C(=O)[NH+]4CCOCC4)CC3)C(CO)O2)c(=O)[n-]c1=O (protonated)
Cc1cn([C@H]2C[C@@H](N3CCC(C(=O)[NH+]4CCOCC4)CC3)C(CO)O2)c(=O)[n-]c1=O (chirality)
Cc1cn([C@H]2C[C@@H](N3CCC(C(=O)[NH+]4CCOCC4)CC3)C(CO)O2)c(=O)[n-]c1=O (3D coordinates assigned)
Cc1cn([C@H]2C[C@@H](N3CCC(C(=O)[NH+]4CCOCC4)CC3)C(CO)O2)c(=O)[n-]c1=O (nonaromatic ring conformer: 90.78287532341956 kcal/mol)

>  <smiles>  (2) 
Cc1cn(C2CC(N3CCC(C(=O)N4CCOCC4)CC3)C(CO)O2)c(=O)[nH]c1=O

>  <score_type>  (2) 
oracle

>  <origin>  (2) 
adg

>  <m_score__min__energy>  (2) 
-8.5800000000000001

>  <m_primary>  (2) 
energy

$$$$
2:0
     RDKit          3D

 65 67  0  0  0  0  0  0  0  0999 V2000
   59.9420   29.7330   49.3130 C   0  0  0  0  0  0  0  0  0  0  0  0
   61.2370   30.3470   49.7490 C   0  0  0  0  0  0  0  0  0  0  0  0
   62.1230   29.7480   50.5620 N   0  0  0  0  0  0  0  0  0  0  0  0
   63.1510   30.5650   50.7180 N   0  0  0  0  0  0  0  0  0  0  0  0
   62.8810   31.6810   49.9990 C   0  0  0  0  0  0  0  0  0  0  0  0
   63.8660   32.8460   49.8790 C   0  0  0  0  0  0  0  0  0  0  0  0
   65.1640   32.5030   50.6330 C   0  0  0  0  0  0  0  0  0  0  0  0
   64.1870   33.1650   48.4040 C   0  0  0  0  0  0  0  0  0  0  0  0
   63.2490   34.1120   50.5170 C   0  0  0  0  0  0  0  0  0  0  0  0
   61.6820   31.5600   49.3680 N   0  0  0  0  0  0  0  0  0  0  0  0
   61.0150   32.4590   48.4740 C   0  0  0  0  0  0  0  0  0  0  0  0
   59.9670   33.2650   48.9370 C   0  0  0  0  0  0  0  0  0  0  0  0
   59.3410   34.1670   48.0740 C   0  0  0  0  0  0  0  0  0  0  0  0
   59.7640   34.2790   46.7380 C   0  0  0  0  0  0  0  0  0  0  0  0
   59.1190   35.2830   45.8210 C   0  0  0  0  0  0  0  0  0  0  0  0
   58.1340   34.5910   44.8750 C   0  0  0  0  0  0  0  0  0  0  0  0
   57.8850   33.1810   45.3210 C   0  0  0  0  0  0  0  0  0  0  0  0
   57.0760   32.9680   46.2630 O   0  0  0  0  0  0  0  0  0  0  0  0
   58.5900   32.0950   44.6940 N   0  0  0  0  0  0  0  0  0  0  0  0
   58.4960   30.7250   45.1170 C   0  0  0  0  0  0  0  0  0  0  0  0
   57.7920   30.4090   46.1150 O   0  0  0  0  0  0  0  0  0  0  0  0
   59.2230   29.7160   44.4050 N   0  0  0  0  0  0  0  0  0  0  0  0
   59.0700   28.2860   44.6990 C   0  0  2  0  0  0  0  0  0  0  0  0
   57.6690   27.7860   44.2660 C   0  0  0  0  0  0  0  0  0  0  0  0
   56.6430   27.9060   45.4000 C   0  0  0  0  0  0  0  0  0  0  0  0
   57.0540   27.0770   46.6440 C   0  0  1  0  0  0  0  0  0  0  0  0
   56.3600   25.8550   46.6880 O   0  0  0  0  0  0  0  0  0  0  0  0
   58.5800   26.8310   46.7390 C   0  0  0  0  0  0  0  0  0  0  0  0
   59.3630   28.0320   46.2000 C   0  0  0  0  0  0  0  0  0  0  0  0
   60.8400   33.4970   46.2880 C   0  0  0  0  0  0  0  0  0  0  0  0
   61.4650   32.5940   47.1540 C   0  0  0  0  0  0  0  0  0  0  0  0
   59.3523   29.4534   50.1985 H   0  0  0  0  0  0  0  0  0  0  0  0
   59.3766   30.4589   48.7102 H   0  0  0  0  0  0  0  0  0  0  0  0
   60.1462   28.8358   48.7102 H   0  0  0  0  0  0  0  0  0  0  0  0
   62.0420   28.8020   50.9980 H   0  0  0  0  0  0  0  0  0  0  0  0
   64.9821   32.5511   51.7168 H   0  0  0  0  0  0  0  0  0  0  0  0
   65.4891   31.4881   50.3604 H   0  0  0  0  0  0  0  0  0  0  0  0
   65.9480   33.2248   50.3604 H   0  0  0  0  0  0  0  0  0  0  0  0
   64.9665   33.9397   48.3577 H   0  0  0  0  0  0  0  0  0  0  0  0
   64.5448   32.2543   47.9014 H   0  0  0  0  0  0  0  0  0  0  0  0
   63.2786   33.5284   47.9014 H   0  0  0  0  0  0  0  0  0  0  0  0
   63.2902   34.0275   51.6130 H   0  0  0  0  0  0  0  0  0  0  0  0
   63.8163   34.9981   50.1960 H   0  0  0  0  0  0  0  0  0  0  0  0
   62.2016   34.2111   50.1960 H   0  0  0  0  0  0  0  0  0  0  0  0
   59.6362   33.1872   49.9832 H   0  0  0  0  0  0  0  0  0  0  0  0
   58.5137   34.7923   48.4410 H   0  0  0  0  0  0  0  0  0  0  0  0
   58.5792   36.0287   46.4232 H   0  0  0  0  0  0  0  0  0  0  0  0
   59.9018   35.7726   45.2231 H   0  0  0  0  0  0  0  0  0  0  0  0
   57.1832   35.1441   44.8736 H   0  0  0  0  0  0  0  0  0  0  0  0
   58.5629   34.5748   43.8622 H   0  0  0  0  0  0  0  0  0  0  0  0
   59.2050   32.3140   43.8780 H   0  0  0  0  0  0  0  0  0  0  0  0
   59.8270   30.0120   43.6030 H   0  0  0  0  0  0  0  0  0  0  0  0
   59.7992   27.7041   44.1161 H   0  0  0  0  0  0  0  0  0  0  0  0
   57.3257   28.3867   43.4108 H   0  0  0  0  0  0  0  0  0  0  0  0
   57.7550   26.7233   43.9952 H   0  0  0  0  0  0  0  0  0  0  0  0
   56.5565   28.9634   45.6904 H   0  0  0  0  0  0  0  0  0  0  0  0
   55.6827   27.5149   45.0327 H   0  0  0  0  0  0  0  0  0  0  0  0
   56.7749   27.6842   47.5177 H   0  0  0  0  0  0  0  0  0  0  0  0
   57.0120   25.1460   46.9270 H   0  0  0  0  0  0  0  0  0  0  0  0
   58.8532   26.6663   47.7917 H   0  0  0  0  0  0  0  0  0  0  0  0
   58.8315   25.9477   46.1335 H   0  0  0  0  0  0  0  0  0  0  0  0
   59.0810   28.9271   46.7739 H   0  0  0  0  0  0  0  0  0  0  0  0
   60.4362   27.8150   46.3061 H   0  0  0  0  0  0  0  0  0  0  0  0
   61.1926   33.5950   45.2507 H   0  0  0  0  0  0  0  0  0  0  0  0
   62.3116   31.9885   46.7981 H   0  0  0  0  0  0  0  0  0  0  0  0
  1  2  1  0
  2  3  2  0
  3  4  1  0
  4  5  2  0
  5  6  1  0
  6  7  1  0
  6  8  1  0
  6  9  1  0
  5 10  1  0
 10 11  1  0
 11 12  2  0
 12 13  1  0
 13 14  2  0
 14 15  1  0
 15 16  1  0
 16 17  1  0
 17 18  2  0
 17 19  1  0
 19 20  1  0
 20 21  2  0
 20 22  1  0
 22 23  1  0
 23 24  1  0
 24 25  1  0
 25 26  1  0
 26 27  1  0
 26 28  1  0
 28 29  1  0
 14 30  1  0
 30 31  2  0
 10  2  1  0
 31 11  1  0
 29 23  1  0
  1 32  1  0
  1 33  1  0
  1 34  1  0
  3 35  1  0
  7 36  1  0
  7 37  1  0
  7 38  1  0
  8 39  1  0
  8 40  1  0
  8 41  1  0
  9 42  1  0
  9 43  1  0
  9 44  1  0
 12 45  1  0
 13 46  1  0
 15 47  1  0
 15 48  1  0
 16 49  1  0
 16 50  1  0
 19 51  1  0
 22 52  1  0
 23 53  1  6
 24 54  1  0
 24 55  1  0
 25 56  1  0
 25 57  1  0
 26 58  1  1
 27 59  1  0
 28 60  1  0
 28 61  1  0
 29 62  1  0
 29 63  1  0
 30 64  1  0
 31 65  1  0
M  CHG  1   3   1
M  END
>  <UniqueID>  (3) 
3

>  <SMILES>  (3) 
Cc1[nH+]nc(C(C)(C)C)n1-c1ccc(CCC(=O)NC(=O)NC2CCC(O)CC2)cc1

>  <Energy>  (3) 
101.91629249257221

>  <Genealogy>  (3) 
Cc1[nH+]nc(C(C)(C)C)n1-c1ccc(CCC(=O)NC(=O)NC2CCC(O)CC2)cc1 (protonated)
Cc1[nH+]nc(C(C)(C)C)n1-c1ccc(CCC(=O)NC(=O)NC2CCC(O)CC2)cc1 (3D coordinates assigned)
Cc1[nH+]nc(C(C)(C)C)n1-c1ccc(CCC(=O)NC(=O)NC2CCC(O)CC2)cc1 (nonaromatic ring conformer: 101.91629249257221 kcal/mol)

>  <smiles>  (3) 
Cc1nnc(C(C)(C)C)n1-c1ccc(CCC(=O)NC(=O)NC2CCC(O)CC2)cc1

>  <score_type>  (3) 
oracle

>  <origin>  (3) 
adg

>  <m_score__min__energy>  (3) 
-9.3599999999999994

>  <m_primary>  (3) 
energy

$$$$
3:0
     RDKit          3D

 48 51  0  0  0  0  0  0  0  0999 V2000
   55.9250   23.7410   47.4830 C   0  0  0  0  0  0  0  0  0  0  0  0
   55.9000   25.0890   47.0240 O   0  0  0  0  0  0  0  0  0  0  0  0
   56.5320   25.5410   45.8550 C   0  0  0  0  0  0  0  0  0  0  0  0
   56.7940   24.6130   44.8430 C   0  0  0  0  0  0  0  0  0  0  0  0
   57.4200   25.0110   43.6610 C   0  0  0  0  0  0  0  0  0  0  0  0
   57.7900   26.3450   43.4780 C   0  0  0  0  0  0  0  0  0  0  0  0
   57.5380   27.2980   44.4820 C   0  0  0  0  0  0  0  0  0  0  0  0
   57.9370   28.7500   44.2950 C   0  0  1  0  0  0  0  0  0  0  0  0
   56.9680   29.4800   43.3190 C   0  0  0  0  0  0  0  0  0  0  0  0
   57.3220   30.9400   43.1780 C   0  0  0  0  0  0  0  0  0  0  0  0
   57.0170   31.5830   42.1380 O   0  0  0  0  0  0  0  0  0  0  0  0
   57.9640   31.6020   44.3120 C   0  0  0  0  0  0  0  0  0  0  0  0
   58.3300   32.9110   44.5140 C   0  0  0  0  0  0  0  0  0  0  0  0
   58.8800   32.9810   45.7450 N   0  0  0  0  0  0  0  0  0  0  0  0
   59.5240   34.4090   46.4770 S   0  0  0  0  0  0  0  0  0  0  0  0
   59.7570   35.4600   45.4280 O   0  0  0  0  0  0  0  0  0  0  0  0
   58.5330   34.9400   47.4740 O   0  0  0  0  0  0  0  0  0  0  0  0
   61.0470   34.0170   47.2700 C   0  0  0  0  0  0  0  0  0  0  0  0
   62.2010   33.7540   46.5200 C   0  0  0  0  0  0  0  0  0  0  0  0
   63.4050   33.4550   47.1640 C   0  0  0  0  0  0  0  0  0  0  0  0
   63.4710   33.4300   48.5650 C   0  0  0  0  0  0  0  0  0  0  0  0
   64.7530   33.0700   49.2560 C   0  0  0  0  0  0  0  0  0  0  0  0
   62.3110   33.6780   49.3140 C   0  0  0  0  0  0  0  0  0  0  0  0
   61.1070   33.9770   48.6700 C   0  0  0  0  0  0  0  0  0  0  0  0
   58.8870   31.7880   46.3270 N   0  0  0  0  0  0  0  0  0  0  0  0
   58.3360   30.9320   45.4460 C   0  0  0  0  0  0  0  0  0  0  0  0
   58.0640   29.4750   45.6650 C   0  0  0  0  0  0  0  0  0  0  0  0
   56.9070   26.8870   45.6700 C   0  0  0  0  0  0  0  0  0  0  0  0
   55.9252   23.7281   48.5829 H   0  0  0  0  0  0  0  0  0  0  0  0
   55.0365   23.2102   47.1103 H   0  0  0  0  0  0  0  0  0  0  0  0
   56.8325   23.2435   47.1103 H   0  0  0  0  0  0  0  0  0  0  0  0
   56.5044   23.5606   44.9794 H   0  0  0  0  0  0  0  0  0  0  0  0
   57.6224   24.2722   42.8716 H   0  0  0  0  0  0  0  0  0  0  0  0
   58.2815   26.6527   42.5432 H   0  0  0  0  0  0  0  0  0  0  0  0
   58.9324   28.7771   43.8276 H   0  0  0  0  0  0  0  0  0  0  0  0
   57.0277   29.0006   42.3308 H   0  0  0  0  0  0  0  0  0  0  0  0
   55.9490   29.4096   43.7272 H   0  0  0  0  0  0  0  0  0  0  0  0
   58.1996   33.7436   43.8071 H   0  0  0  0  0  0  0  0  0  0  0  0
   62.1593   33.7829   45.4212 H   0  0  0  0  0  0  0  0  0  0  0  0
   64.3048   33.2383   46.5695 H   0  0  0  0  0  0  0  0  0  0  0  0
   64.6064   33.1112   50.3454 H   0  0  0  0  0  0  0  0  0  0  0  0
   65.0535   32.0527   48.9646 H   0  0  0  0  0  0  0  0  0  0  0  0
   65.5391   33.7821   48.9646 H   0  0  0  0  0  0  0  0  0  0  0  0
   62.3491   33.6370   50.4126 H   0  0  0  0  0  0  0  0  0  0  0  0
   60.2038   34.1816   49.2636 H   0  0  0  0  0  0  0  0  0  0  0  0
   58.8918   29.0312   46.2375 H   0  0  0  0  0  0  0  0  0  0  0  0
   57.1235   29.3616   46.2240 H   0  0  0  0  0  0  0  0  0  0  0  0
   56.7043   27.6229   46.4621 H   0  0  0  0  0  0  0  0  0  0  0  0
  1  2  1  0
  2  3  1  0
  3  4  2  0
  4  5  1  0
  5  6  2  0
  6  7  1  0
  7  8  1  0
  8  9  1  0
  9 10  1  0
 10 11  2  0
 10 12  1  0
 12 13  2  0
 13 14  1  0
 14 15  1  0
 15 16  2  0
 15 17  2  0
 15 18  1  0
 18 19  2  0
 19 20  1  0
 20 21  2  0
 21 22  1  0
 21 23  1  0
 23 24  2  0
 14 25  1  0
 25 26  2  0
 26 27  1  0
  7 28  2  0
 28  3  1  0
 27  8  1  0
 26 12  1  0
 24 18  1  0
  1 29  1  0
  1 30  1  0
  1 31  1  0
  4 32  1  0
  5 33  1  0
  6 34  1  0
  8 35  1  6
  9 36  1  0
  9 37  1  0
 13 38  1  0
 19 39  1  0
 20 40  1  0
 22 41  1  0
 22 42  1  0
 22 43  1  0
 23 44  1  0
 24 45  1  0
 27 46  1  0
 27 47  1  0
 28 48  1  0
M  END
>  <UniqueID>  (4) 
4

>  <SMILES>  (4) 
COc1cccc([C@H]2CC(=O)c3cn(S(=O)(=O)c4ccc(C)cc4)nc3C2)c1

>  <Energy>  (4) 
85.92017955299934

>  <Genealogy>  (4) 
COc1cccc([C@H]2CC(=O)c3cn(S(=O)(=O)c4ccc(C)cc4)nc3C2)c1 (chirality)
COc1cccc([C@H]2CC(=O)c3cn(S(=O)(=O)c4ccc(C)cc4)nc3C2)c1 (3D coordinates assigned)
COc1cccc([C@H]2CC(=O)c3cn(S(=O)(=O)c4ccc(C)cc4)nc3C2)c1 (nonaromatic ring conformer: 85.92017955299934 kcal/mol)

>  <smiles>  (4) 
COc1cccc(C2CC(=O)c3cn(S(=O)(=O)c4ccc(C)cc4)nc3C2)c1

>  <score_type>  (4) 
oracle

>  <origin>  (4) 
adg

>  <m_score__min__energy>  (4) 
-9.8300000000000001

>  <m_primary>  (4) 
energy

$$$$
4:0
     RDKit          3D

 38 40  0  0  0  0  0  0  0  0999 V2000
   59.6840   35.1800   45.7780 C   0  0  0  0  0  0  0  0  0  0  0  0
   59.4640   33.9680   46.6350 C   0  0  0  0  0  0  0  0  0  0  0  0
   58.3180   33.8690   47.4320 C   0  0  0  0  0  0  0  0  0  0  0  0
   58.0920   32.7250   48.1990 C   0  0  0  0  0  0  0  0  0  0  0  0
   58.9990   31.6530   48.1720 C   0  0  0  0  0  0  0  0  0  0  0  0
   58.7200   30.4430   49.0250 C   0  0  0  0  0  0  0  0  0  0  0  0
   60.1600   31.7460   47.3640 C   0  0  0  0  0  0  0  0  0  0  0  0
   61.3480   30.4340   47.2850 S   0  0  0  0  0  0  0  0  0  0  0  0
   61.4870   29.8150   48.6480 O   0  0  0  0  0  0  0  0  0  0  0  0
   62.6690   30.9820   46.8260 O   0  0  0  0  0  0  0  0  0  0  0  0
   60.8240   29.2210   46.1610 N   0  0  0  0  0  0  0  0  0  0  0  0
   59.4720   28.7720   45.9990 C   0  0  0  0  0  0  0  0  0  0  0  0
   59.0040   27.7430   46.8250 C   0  0  0  0  0  0  0  0  0  0  0  0
   57.6940   27.2730   46.6980 C   0  0  0  0  0  0  0  0  0  0  0  0
   56.8390   27.8250   45.7410 C   0  0  0  0  0  0  0  0  0  0  0  0
   55.5390   27.3460   45.6230 O   0  0  0  0  0  0  0  0  0  0  0  0
   57.2960   28.8560   44.9070 C   0  0  0  0  0  0  0  0  0  0  0  0
   56.2160   29.5780   43.6690 S   0  0  0  0  0  0  0  0  0  0  0  0
   56.9350   31.2040   43.8660 C   0  0  0  0  0  0  0  0  0  0  0  0
   57.8270   31.7330   43.0080 N   0  0  0  0  0  0  0  0  0  0  0  0
   58.0700   32.9320   43.5720 C   0  0  0  0  0  0  0  0  0  0  0  0
   57.3650   33.1170   44.7040 N   0  0  0  0  0  0  0  0  0  0  0  0
   56.6470   32.0240   44.8900 N   0  0  0  0  0  0  0  0  0  0  0  0
   58.6080   29.3300   45.0390 C   0  0  0  0  0  0  0  0  0  0  0  0
   60.3700   32.9010   46.5930 C   0  0  0  0  0  0  0  0  0  0  0  0
   59.8435   36.0589   46.4199 H   0  0  0  0  0  0  0  0  0  0  0  0
   60.5686   35.0244   45.1429 H   0  0  0  0  0  0  0  0  0  0  0  0
   58.8012   35.3452   45.1429 H   0  0  0  0  0  0  0  0  0  0  0  0
   57.5927   34.6957   47.4541 H   0  0  0  0  0  0  0  0  0  0  0  0
   57.1941   32.6623   48.8313 H   0  0  0  0  0  0  0  0  0  0  0  0
   58.7840   30.7207   50.0874 H   0  0  0  0  0  0  0  0  0  0  0  0
   57.7109   30.0642   48.8052 H   0  0  0  0  0  0  0  0  0  0  0  0
   59.4613   29.6606   48.8052 H   0  0  0  0  0  0  0  0  0  0  0  0
   59.6720   27.3014   47.5792 H   0  0  0  0  0  0  0  0  0  0  0  0
   57.3350   26.4659   47.3536 H   0  0  0  0  0  0  0  0  0  0  0  0
   58.7654   33.6754   43.1551 H   0  0  0  0  0  0  0  0  0  0  0  0
   58.9643   30.1425   44.3887 H   0  0  0  0  0  0  0  0  0  0  0  0
   61.2581   32.9684   45.9475 H   0  0  0  0  0  0  0  0  0  0  0  0
  1  2  1  0
  2  3  2  0
  3  4  1  0
  4  5  2  0
  5  6  1  0
  5  7  1  0
  7  8  1  0
  8  9  2  0
  8 10  2  0
  8 11  1  0
 11 12  1  0
 12 13  2  0
 13 14  1  0
 14 15  2  0
 15 16  1  0
 15 17  1  0
 17 18  1  0
 18 19  1  0
 19 20  1  0
 20 21  2  0
 21 22  1  0
 22 23  1  0
 17 24  2  0
  7 25  2  0
 25  2  1  0
 24 12  1  0
 23 19  2  0
  1 26  1  0
  1 27  1  0
  1 28  1  0
  3 29  1  0
  4 30  1  0
  6 31  1  0
  6 32  1  0
  6 33  1  0
 13 34  1  0
 14 35  1  0
 21 36  1  0
 24 37  1  0
 25 38  1  0
M  CHG  3  11  -1  16  -1  22  -1
M  END
>  <UniqueID>  (5) 
5

>  <SMILES>  (5) 
Cc1ccc(C)c(S(=O)(=O)[N-]c2ccc([O-])c(Sc3nc[n-]n3)c2)c1

>  <Energy>  (5) 
73.203967048567

>  <Genealogy>  (5) 
Cc1ccc(C)c(S(=O)(=O)[N-]c2ccc([O-])c(Sc3nc[n-]n3)c2)c1 (protonated)
Cc1ccc(C)c(S(=O)(=O)[N-]c2ccc([O-])c(Sc3nc[n-]n3)c2)c1 (3D coordinates assigned)
Cc1ccc(C)c(S(=O)(=O)[N-]c2ccc([O-])c(Sc3nc[n-]n3)c2)c1 (optimized conformer: 73.203967048567 kcal/mol)

>  <smiles>  (5) 
Cc1ccc(C)c(S(=O)(=O)Nc2ccc(O)c(Sc3nc[nH]n3)c2)c1

>  <score_type>  (5) 
oracle

>  <origin>  (5) 
adg

>  <m_score__min__energy>  (5) 
-13.31

>  <m_primary>  (5) 
energy

$$$$
5:0
     RDKit          3D

 43 45  0  0  0  0  0  0  0  0999 V2000
   56.5610   22.3860   42.9440 C   0  0  0  0  0  0  0  0  0  0  0  0
   57.0750   23.2410   44.0240 N   0  0  0  0  0  0  0  0  0  0  0  0
   56.3480   24.3280   44.4300 C   0  0  0  0  0  0  0  0  0  0  0  0
   56.8110   25.1610   45.4630 C   0  0  0  0  0  0  0  0  0  0  0  0
   56.0230   26.3340   45.9040 C   0  0  0  0  0  0  0  0  0  0  0  0
   54.7670   26.2520   45.9920 O   0  0  0  0  0  0  0  0  0  0  0  0
   56.6900   27.5450   46.2830 N   0  0  0  0  0  0  0  0  0  0  0  0
   56.9540   28.6700   45.4320 C   0  0  0  0  0  0  0  0  0  0  0  0
   55.9510   29.2120   44.6080 C   0  0  0  0  0  0  0  0  0  0  0  0
   56.2290   30.3030   43.7810 C   0  0  0  0  0  0  0  0  0  0  0  0
   57.5090   30.8570   43.7580 C   0  0  0  0  0  0  0  0  0  0  0  0
   58.5180   30.3160   44.5570 C   0  0  0  0  0  0  0  0  0  0  0  0
   58.2540   29.2160   45.3900 C   0  0  0  0  0  0  0  0  0  0  0  0
   59.3010   28.6780   46.2160 N   0  0  0  0  0  0  0  0  0  0  0  0
   59.2850   28.9420   47.6620 C   0  0  0  0  0  0  0  0  0  0  0  0
   60.4360   28.2250   48.3770 C   0  0  0  0  0  0  0  0  0  0  0  0
   60.5440   26.7770   47.8900 C   0  0  0  0  0  0  0  0  0  0  0  0
   60.7470   26.6740   46.3630 C   0  0  0  0  0  0  0  0  0  0  0  0
   60.4360   27.9740   45.6040 C   0  0  0  0  0  0  0  0  0  0  0  0
   58.0400   24.8600   46.0630 C   0  0  0  0  0  0  0  0  0  0  0  0
   58.7720   23.7520   45.6420 C   0  0  0  0  0  0  0  0  0  0  0  0
   58.2750   22.9450   44.6160 C   0  0  0  0  0  0  0  0  0  0  0  0
   58.9470   21.9440   44.2440 O   0  0  0  0  0  0  0  0  0  0  0  0
   56.0403   21.5199   43.3784 H   0  0  0  0  0  0  0  0  0  0  0  0
   55.8593   22.9620   42.3228 H   0  0  0  0  0  0  0  0  0  0  0  0
   57.3988   22.0365   42.3228 H   0  0  0  0  0  0  0  0  0  0  0  0
   55.3885   24.5523   43.9410 H   0  0  0  0  0  0  0  0  0  0  0  0
   54.9419   28.7742   44.6149 H   0  0  0  0  0  0  0  0  0  0  0  0
   55.4365   30.7263   43.1463 H   0  0  0  0  0  0  0  0  0  0  0  0
   57.7233   31.7200   43.1104 H   0  0  0  0  0  0  0  0  0  0  0  0
   59.5267   30.7541   44.5341 H   0  0  0  0  0  0  0  0  0  0  0  0
   59.3802   30.0251   47.8286 H   0  0  0  0  0  0  0  0  0  0  0  0
   58.3362   28.5646   48.0712 H   0  0  0  0  0  0  0  0  0  0  0  0
   61.3787   28.7506   48.1647 H   0  0  0  0  0  0  0  0  0  0  0  0
   60.2403   28.2250   49.4595 H   0  0  0  0  0  0  0  0  0  0  0  0
   61.3992   26.3002   48.3914 H   0  0  0  0  0  0  0  0  0  0  0  0
   59.5966   26.2738   48.1333 H   0  0  0  0  0  0  0  0  0  0  0  0
   61.7956   26.4030   46.1706 H   0  0  0  0  0  0  0  0  0  0  0  0
   60.0404   25.9142   45.9976 H   0  0  0  0  0  0  0  0  0  0  0  0
   61.3211   28.6267   45.6294 H   0  0  0  0  0  0  0  0  0  0  0  0
   60.1753   27.7216   44.5656 H   0  0  0  0  0  0  0  0  0  0  0  0
   58.4284   25.5001   46.8688 H   0  0  0  0  0  0  0  0  0  0  0  0
   59.7362   23.5140   46.1150 H   0  0  0  0  0  0  0  0  0  0  0  0
  1  2  1  0
  2  3  1  0
  3  4  2  0
  4  5  1  0
  5  6  2  0
  5  7  1  0
  7  8  1  0
  8  9  2  0
  9 10  1  0
 10 11  2  0
 11 12  1  0
 12 13  2  0
 13 14  1  0
 14 15  1  0
 15 16  1  0
 16 17  1  0
 17 18  1  0
 18 19  1  0
  4 20  1  0
 20 21  2  0
 21 22  1  0
 22 23  2  0
 22  2  1  0
 13  8  1  0
 19 14  1  0
  1 24  1  0
  1 25  1  0
  1 26  1  0
  3 27  1  0
  9 28  1  0
 10 29  1  0
 11 30  1  0
 12 31  1  0
 15 32  1  0
 15 33  1  0
 16 34  1  0
 16 35  1  0
 17 36  1  0
 17 37  1  0
 18 38  1  0
 18 39  1  0
 19 40  1  0
 19 41  1  0
 20 42  1  0
 21 43  1  0
M  CHG  1   7  -1
M  END
>  <UniqueID>  (6) 
6

>  <SMILES>  (6) 
Cn1cc(C(=O)[N-]c2ccccc2N2CCCCC2)ccc1=O

>  <Energy>  (6) 
55.81538341075804

>  <Genealogy>  (6) 
Cn1cc(C(=O)[N-]c2ccccc2N2CCCCC2)ccc1=O (protonated)
Cn1cc(C(=O)[N-]c2ccccc2N2CCCCC2)ccc1=O (3D coordinates assigned)
Cn1cc(C(=O)[N-]c2ccccc2N2CCCCC2)ccc1=O (nonaromatic ring conformer: 55.81538341075804 kcal/mol)

>  <smiles>  (6) 
Cn1cc(C(=O)Nc2ccccc2N2CCCCC2)ccc1=O

>  <score_type>  (6) 
oracle

>  <origin>  (6) 
adg

>  <m_score__min__energy>  (6) 
-8.9000000000000004

>  <m_primary>  (6) 
energy

$$$$
6:0
     RDKit          3D

 50 52  0  0  0  0  0  0  0  0999 V2000
   57.0080   21.0620   44.9310 C   0  0  0  0  0  0  0  0  0  0  0  0
   57.4440   21.5090   43.5350 C   0  0  0  0  0  0  0  0  0  0  0  0
   56.6370   22.7120   43.0260 C   0  0  0  0  0  0  0  0  0  0  0  0
   56.1140   23.5460   44.1600 C   0  0  0  0  0  0  0  0  0  0  0  0
   54.7370   23.6920   44.3700 C   0  0  0  0  0  0  0  0  0  0  0  0
   54.3040   24.5280   45.3990 C   0  0  0  0  0  0  0  0  0  0  0  0
   53.0750   24.6740   45.6210 O   0  0  0  0  0  0  0  0  0  0  0  0
   55.2140   25.1870   46.1620 N   0  0  0  0  0  0  0  0  0  0  0  0
   56.5460   25.0310   45.9530 C   0  0  0  0  0  0  0  0  0  0  0  0
   57.7290   25.9220   46.9600 S   0  0  0  0  0  0  0  0  0  0  0  0
   59.0100   26.0390   45.6630 C   0  0  0  0  0  0  0  0  0  0  0  0
   58.5020   26.9130   44.5650 C   0  0  0  0  0  0  0  0  0  0  0  0
   58.0430   28.2050   44.6940 C   0  0  0  0  0  0  0  0  0  0  0  0
   57.5760   28.5080   43.4320 C   0  0  0  0  0  0  0  0  0  0  0  0
   56.7540   29.7050   43.0740 C   0  0  0  0  0  0  0  0  0  0  0  0
   56.0290   30.1670   44.2970 C   0  0  0  0  0  0  0  0  0  0  0  0
   55.2730   29.3750   44.9210 O   0  0  0  0  0  0  0  0  0  0  0  0
   56.2890   31.4730   44.8180 N   0  0  0  0  0  0  0  0  0  0  0  0
   57.5080   31.8590   45.4660 C   0  0  0  0  0  0  0  0  0  0  0  0
   58.2810   30.9370   46.1960 C   0  0  0  0  0  0  0  0  0  0  0  0
   59.5250   31.3110   46.7100 C   0  0  0  0  0  0  0  0  0  0  0  0
   60.0170   32.6050   46.4960 C   0  0  0  0  0  0  0  0  0  0  0  0
   61.6240   33.0320   47.0730 S   0  0  0  0  0  0  0  0  0  0  0  0
   62.5170   31.5890   47.4050 N   0  0  0  0  0  0  0  0  0  0  0  0
   61.5060   33.8530   48.3250 O   0  0  0  0  0  0  0  0  0  0  0  0
   62.3560   33.8280   46.0280 O   0  0  0  0  0  0  0  0  0  0  0  0
   59.2390   33.5320   45.7910 C   0  0  0  0  0  0  0  0  0  0  0  0
   57.9930   33.1580   45.2760 C   0  0  0  0  0  0  0  0  0  0  0  0
   57.7570   27.4500   42.6150 N   0  0  0  0  0  0  0  0  0  0  0  0
   58.3230   26.5180   43.3260 O   0  0  0  0  0  0  0  0  0  0  0  0
   56.9860   24.2160   44.9590 N   0  0  0  0  0  0  0  0  0  0  0  0
   57.5645   21.6325   45.6892 H   0  0  0  0  0  0  0  0  0  0  0  0
   55.9300   21.2431   45.0540 H   0  0  0  0  0  0  0  0  0  0  0  0
   57.2159   19.9888   45.0540 H   0  0  0  0  0  0  0  0  0  0  0  0
   58.5079   21.7865   43.5693 H   0  0  0  0  0  0  0  0  0  0  0  0
   57.2677   20.6710   42.8446 H   0  0  0  0  0  0  0  0  0  0  0  0
   57.2861   23.3357   42.3939 H   0  0  0  0  0  0  0  0  0  0  0  0
   55.7781   22.3327   42.4530 H   0  0  0  0  0  0  0  0  0  0  0  0
   54.0125   23.1587   43.7369 H   0  0  0  0  0  0  0  0  0  0  0  0
   59.9274   26.4732   46.0871 H   0  0  0  0  0  0  0  0  0  0  0  0
   59.2370   25.0372   45.2695 H   0  0  0  0  0  0  0  0  0  0  0  0
   58.0477   28.8432   45.5899 H   0  0  0  0  0  0  0  0  0  0  0  0
   57.4092   30.5082   42.7057 H   0  0  0  0  0  0  0  0  0  0  0  0
   56.0332   29.4443   42.2851 H   0  0  0  0  0  0  0  0  0  0  0  0
   57.9039   29.9172   46.3626 H   0  0  0  0  0  0  0  0  0  0  0  0
   60.1205   30.5866   47.2850 H   0  0  0  0  0  0  0  0  0  0  0  0
   62.1720   30.8600   46.7440 H   0  0  0  0  0  0  0  0  0  0  0  0
   63.5120   31.7780   47.1520 H   0  0  0  0  0  0  0  0  0  0  0  0
   59.6087   34.5572   45.6417 H   0  0  0  0  0  0  0  0  0  0  0  0
   57.3905   33.8899   44.7180 H   0  0  0  0  0  0  0  0  0  0  0  0
  1  2  1  0
  2  3  1  0
  3  4  1  0
  4  5  2  0
  5  6  1  0
  6  7  2  0
  6  8  1  0
  8  9  1  0
  9 10  1  0
 10 11  1  0
 11 12  1  0
 12 13  2  0
 13 14  1  0
 14 15  1  0
 15 16  1  0
 16 17  2  0
 16 18  1  0
 18 19  1  0
 19 20  2  0
 20 21  1  0
 21 22  2  0
 22 23  1  0
 23 24  1  0
 23 25  2  0
 23 26  2  0
 22 27  1  0
 27 28  2  0
 14 29  2  0
 29 30  1  0
  9 31  2  0
 31  4  1  0
 30 12  1  0
 28 19  1  0
  1 32  1  0
  1 33  1  0
  1 34  1  0
  2 35  1  0
  2 36  1  0
  3 37  1  0
  3 38  1  0
  5 39  1  0
 11 40  1  0
 11 41  1  0
 13 42  1  0
 15 43  1  0
 15 44  1  0
 20 45  1  0
 21 46  1  0
 24 47  1  0
 24 48  1  0
 27 49  1  0
 28 50  1  0
M  CHG  2   8  -1  18  -1
M  END
>  <UniqueID>  (7) 
7

>  <SMILES>  (7) 
CCCc1cc(=O)[n-]c(SCc2cc(CC(=O)[N-]c3ccc(S(N)(=O)=O)cc3)no2)n1

>  <Energy>  (7) 
70.01850371711934

>  <Genealogy>  (7) 
CCCc1cc(=O)[n-]c(SCc2cc(CC(=O)[N-]c3ccc(S(N)(=O)=O)cc3)no2)n1 (protonated)
CCCc1cc(=O)[n-]c(SCc2cc(CC(=O)[N-]c3ccc(S(N)(=O)=O)cc3)no2)n1 (3D coordinates assigned)
CCCc1cc(=O)[n-]c(SCc2cc(CC(=O)[N-]c3ccc(S(N)(=O)=O)cc3)no2)n1 (optimized conformer: 70.01850371711934 kcal/mol)

>  <smiles>  (7) 
CCCc1cc(=O)[nH]c(SCc2cc(CC(=O)Nc3ccc(S(N)(=O)=O)cc3)no2)n1

>  <score_type>  (7) 
oracle

>  <origin>  (7) 
adg

>  <m_score__min__energy>  (7) 
-12.289999999999999

>  <m_primary>  (7) 
energy

$$$$
7:0
     RDKit          3D

 41 44  0  0  0  0  0  0  0  0999 V2000
   60.0970   29.3720   45.0930 O   0  0  0  0  0  0  0  0  0  0  0  0
   58.8910   29.0430   45.2410 C   0  0  0  0  0  0  0  0  0  0  0  0
   58.4140   27.7580   45.7440 C   0  0  0  0  0  0  0  0  0  0  0  0
   59.1120   26.6280   46.1670 C   0  0  0  0  0  0  0  0  0  0  0  0
   60.5020   26.6070   46.1820 O   0  0  0  0  0  0  0  0  0  0  0  0
   58.3740   25.5050   46.5760 C   0  0  0  0  0  0  0  0  0  0  0  0
   56.9590   25.5250   46.5660 C   0  0  0  0  0  0  0  0  0  0  0  0
   56.2410   24.3510   46.9780 N   0  0  0  0  0  0  0  0  0  0  0  0
   56.2600   23.1020   46.2660 C   0  0  0  0  0  0  0  0  0  0  0  0
   55.8290   21.9330   46.9120 C   0  0  0  0  0  0  0  0  0  0  0  0
   55.8180   20.7110   46.2320 C   0  0  0  0  0  0  0  0  0  0  0  0
   56.2230   20.6490   44.8970 C   0  0  0  0  0  0  0  0  0  0  0  0
   56.6350   21.8090   44.2370 C   0  0  0  0  0  0  0  0  0  0  0  0
   56.6490   23.0330   44.9130 C   0  0  0  0  0  0  0  0  0  0  0  0
   56.2780   26.6750   46.0960 C   0  0  0  0  0  0  0  0  0  0  0  0
   54.8910   26.7050   45.9960 O   0  0  0  0  0  0  0  0  0  0  0  0
   57.0360   27.7800   45.7080 C   0  0  0  0  0  0  0  0  0  0  0  0
   56.6310   29.0780   45.1770 C   0  0  0  0  0  0  0  0  0  0  0  0
   55.4450   29.4450   44.9640 O   0  0  0  0  0  0  0  0  0  0  0  0
   57.7820   29.8830   44.9100 N   0  0  0  0  0  0  0  0  0  0  0  0
   57.8230   31.0770   44.0700 C   0  0  0  0  0  0  0  0  0  0  0  0
   58.1540   32.2860   44.9020 C   0  0  0  0  0  0  0  0  0  0  0  0
   58.5300   33.4910   44.2840 C   0  0  0  0  0  0  0  0  0  0  0  0
   58.8760   34.6020   45.0590 C   0  0  0  0  0  0  0  0  0  0  0  0
   58.8580   34.5170   46.4530 C   0  0  0  0  0  0  0  0  0  0  0  0
   58.4960   33.3190   47.0760 C   0  0  0  0  0  0  0  0  0  0  0  0
   58.1480   32.2060   46.3040 C   0  0  0  0  0  0  0  0  0  0  0  0
   58.9023   24.5991   46.9081 H   0  0  0  0  0  0  0  0  0  0  0  0
   55.6130   24.4320   47.8100 H   0  0  0  0  0  0  0  0  0  0  0  0
   55.4977   21.9782   47.9599 H   0  0  0  0  0  0  0  0  0  0  0  0
   55.4899   19.7974   46.7494 H   0  0  0  0  0  0  0  0  0  0  0  0
   56.2176   19.6862   44.3650 H   0  0  0  0  0  0  0  0  0  0  0  0
   56.9489   21.7596   43.1839 H   0  0  0  0  0  0  0  0  0  0  0  0
   56.9649   23.9458   44.3867 H   0  0  0  0  0  0  0  0  0  0  0  0
   58.5914   30.9488   43.2934 H   0  0  0  0  0  0  0  0  0  0  0  0
   56.8377   31.2214   43.6028 H   0  0  0  0  0  0  0  0  0  0  0  0
   58.5521   33.5602   43.1864 H   0  0  0  0  0  0  0  0  0  0  0  0
   59.1629   35.5447   44.5701 H   0  0  0  0  0  0  0  0  0  0  0  0
   59.1287   35.3929   47.0608 H   0  0  0  0  0  0  0  0  0  0  0  0
   58.4849   33.2518   48.1739 H   0  0  0  0  0  0  0  0  0  0  0  0
   57.8683   31.2635   46.7973 H   0  0  0  0  0  0  0  0  0  0  0  0
  1  2  2  0
  2  3  1  0
  3  4  2  0
  4  5  1  0
  4  6  1  0
  6  7  2  0
  7  8  1  0
  8  9  1  0
  9 10  2  0
 10 11  1  0
 11 12  2  0
 12 13  1  0
 13 14  2  0
  7 15  1  0
 15 16  1  0
 15 17  2  0
 17 18  1  0
 18 19  2  0
 18 20  1  0
 20 21  1  0
 21 22  1  0
 22 23  2  0
 23 24  1  0
 24 25  2  0
 25 26  1  0
 26 27  2  0
 20  2  1  0
 27 22  1  0
 17  3  1  0
 14  9  1  0
  6 28  1  0
  8 29  1  0
 10 30  1  0
 11 31  1  0
 12 32  1  0
 13 33  1  0
 14 34  1  0
 21 35  1  0
 21 36  1  0
 23 37  1  0
 24 38  1  0
 25 39  1  0
 26 40  1  0
 27 41  1  0
M  CHG  2   5  -1  16  -1
M  END
>  <UniqueID>  (8) 
8

>  <SMILES>  (8) 
O=C1c2c([O-])cc(Nc3ccccc3)c([O-])c2C(=O)N1Cc1ccccc1

>  <Energy>  (8) 
82.99965494330762

>  <Genealogy>  (8) 
O=C1c2c([O-])cc(Nc3ccccc3)c([O-])c2C(=O)N1Cc1ccccc1 (protonated)
O=C1c2c([O-])cc(Nc3ccccc3)c([O-])c2C(=O)N1Cc1ccccc1 (3D coordinates assigned)
O=C1c2c([O-])cc(Nc3ccccc3)c([O-])c2C(=O)N1Cc1ccccc1 (nonaromatic ring conformer: 82.99965494330762 kcal/mol)

>  <smiles>  (8) 
O=C1c2c(O)cc(Nc3ccccc3)c(O)c2C(=O)N1Cc1ccccc1

>  <score_type>  (8) 
oracle

>  <origin>  (8) 
adg

>  <m_score__min__energy>  (8) 
-13.52

>  <m_primary>  (8) 
energy

$$$$
8:0
     RDKit          3D

 47 49  0  0  1  0  0  0  0  0999 V2000
   58.2160   31.6040   50.3040 O   0  0  0  0  0  0  0  0  0  0  0  0
   58.4920   30.4730   50.7610 C   0  0  0  0  0  0  0  0  0  0  0  0
   57.7160   29.7910   51.7350 N   0  0  0  0  0  0  0  0  0  0  0  0
   56.5410   30.1770   51.9880 C   0  0  0  0  0  0  0  0  0  0  0  0
   55.8000   31.2130   51.6020 N   0  0  0  0  0  0  0  0  0  0  0  0
   54.6120   31.3950   52.0010 N   0  0  0  0  0  0  0  0  0  0  0  0
   54.0740   30.4710   52.8730 C   0  0  0  0  0  0  0  0  0  0  0  0
   52.5980   30.3790   53.5880 S   0  0  0  0  0  0  0  0  0  0  0  0
   55.4450   29.2470   53.1100 S   0  0  0  0  0  0  0  0  0  0  0  0
   59.6760   29.8360   50.2570 N   0  0  0  0  0  0  0  0  0  0  0  0
   60.5130   30.4580   49.2730 C   0  0  2  0  0  0  0  0  0  0  0  0
   60.9270   31.8580   49.5890 C   0  0  0  0  0  0  0  0  0  0  0  0
   61.7040   32.5090   48.5260 C   0  0  0  0  0  0  0  0  0  0  0  0
   61.0600   33.4760   47.7640 C   0  0  0  0  0  0  0  0  0  0  0  0
   61.7170   34.1460   46.7350 C   0  0  0  0  0  0  0  0  0  0  0  0
   63.0510   33.8200   46.4850 C   0  0  0  0  0  0  0  0  0  0  0  0
   63.7020   32.8580   47.2390 C   0  0  0  0  0  0  0  0  0  0  0  0
   63.0330   32.2080   48.2510 C   0  0  0  0  0  0  0  0  0  0  0  0
   59.8860   30.3320   47.9240 C   0  0  0  0  0  0  0  0  0  0  0  0
   60.5180   29.5850   47.1030 O   0  0  0  0  0  0  0  0  0  0  0  0
   58.6820   30.9910   47.5850 N   0  0  0  0  0  0  0  0  0  0  0  0
   58.1580   30.8060   46.2650 C   0  0  0  0  0  0  0  0  0  0  0  0
   57.9900   29.5220   45.7450 C   0  0  0  0  0  0  0  0  0  0  0  0
   57.4790   29.3360   44.4600 C   0  0  0  0  0  0  0  0  0  0  0  0
   57.1470   30.4520   43.7180 C   0  0  0  0  0  0  0  0  0  0  0  0
   57.3210   31.7200   44.2510 C   0  0  0  0  0  0  0  0  0  0  0  0
   57.8260   31.9200   45.5250 C   0  0  0  0  0  0  0  0  0  0  0  0
   57.9740   33.3090   46.0040 C   0  0  0  0  0  0  0  0  0  0  0  0
   57.9950   33.3680   47.4020 F   0  0  0  0  0  0  0  0  0  0  0  0
   56.9900   34.1520   45.5380 F   0  0  0  0  0  0  0  0  0  0  0  0
   59.1930   33.7800   45.5350 F   0  0  0  0  0  0  0  0  0  0  0  0
   56.2660   31.9230   50.9080 H   0  0  0  0  0  0  0  0  0  0  0  0
   53.9850   32.2080   51.7190 H   0  0  0  0  0  0  0  0  0  0  0  0
   59.9180   28.8920   50.6310 H   0  0  0  0  0  0  0  0  0  0  0  0
   61.4659   29.9085   49.2805 H   0  0  0  0  0  0  0  0  0  0  0  0
   60.0201   32.4541   49.7682 H   0  0  0  0  0  0  0  0  0  0  0  0
   61.5814   31.8033   50.4715 H   0  0  0  0  0  0  0  0  0  0  0  0
   60.0084   33.7176   47.9781 H   0  0  0  0  0  0  0  0  0  0  0  0
   61.1995   34.9102   46.1364 H   0  0  0  0  0  0  0  0  0  0  0  0
   63.5928   34.3345   45.6777 H   0  0  0  0  0  0  0  0  0  0  0  0
   64.7537   32.6134   47.0291 H   0  0  0  0  0  0  0  0  0  0  0  0
   63.5541   31.4442   48.8470 H   0  0  0  0  0  0  0  0  0  0  0  0
   58.1920   31.5960   48.2890 H   0  0  0  0  0  0  0  0  0  0  0  0
   58.2631   28.6478   46.3542 H   0  0  0  0  0  0  0  0  0  0  0  0
   57.3440   28.3250   44.0482 H   0  0  0  0  0  0  0  0  0  0  0  0
   56.7434   30.3348   42.7014 H   0  0  0  0  0  0  0  0  0  0  0  0
   57.0493   32.5952   43.6425 H   0  0  0  0  0  0  0  0  0  0  0  0
  1  2  2  0
  2  3  1  0
  3  4  2  0
  4  5  1  0
  5  6  1  0
  6  7  1  0
  7  8  2  0
  7  9  1  0
  2 10  1  0
 10 11  1  0
 11 12  1  0
 12 13  1  0
 13 14  2  0
 14 15  1  0
 15 16  2  0
 16 17  1  0
 17 18  2  0
 11 19  1  0
 19 20  2  0
 19 21  1  0
 21 22  1  0
 22 23  2  0
 23 24  1  0
 24 25  2  0
 25 26  1  0
 26 27  2  0
 27 28  1  0
 28 29  1  0
 28 30  1  0
 28 31  1  0
  9  4  1  0
 18 13  1  0
 27 22  1  0
  5 32  1  0
  6 33  1  0
 10 34  1  0
 11 35  1  6
 12 36  1  0
 12 37  1  0
 14 38  1  0
 15 39  1  0
 16 40  1  0
 17 41  1  0
 18 42  1  0
 21 43  1  0
 23 44  1  0
 24 45  1  0
 25 46  1  0
 26 47  1  0
M  END
>  <smiles>  (9) 
O=C(N=c1[nH][nH]c(=S)s1)NC(Cc1ccccc1)C(=O)Nc1ccccc1C(F)(F)F

>  <score_type>  (9) 
oracle

>  <origin>  (9) 
adg

>  <m_score__min__energy>  (9) 
-8.0099999999999998

>  <m_primary>  (9) 
energy

$$$$
9:0
     RDKit          3D

 34 35  0  0  0  0  0  0  0  0999 V2000
   56.9690   34.2680   45.1680 C   0  0  0  0  0  0  0  0  0  0  0  0
   58.1710   33.5480   45.7170 C   0  0  0  0  0  0  0  0  0  0  0  0
   59.2300   34.2750   46.2820 C   0  0  0  0  0  0  0  0  0  0  0  0
   60.3470   33.6100   46.7860 C   0  0  0  0  0  0  0  0  0  0  0  0
   60.3980   32.2180   46.7240 C   0  0  0  0  0  0  0  0  0  0  0  0
   59.3700   31.5250   46.1730 N   0  0  0  0  0  0  0  0  0  0  0  0
   58.2670   32.1410   45.6600 C   0  0  0  0  0  0  0  0  0  0  0  0
   57.2900   31.4470   45.1500 N   0  0  0  0  0  0  0  0  0  0  0  0
   57.3960   30.2710   44.3300 C   0  0  0  0  0  0  0  0  0  0  0  0
   56.1620   29.9650   43.2940 S   0  0  0  0  0  0  0  0  0  0  0  0
   58.6650   29.6150   44.1240 N   0  0  0  0  0  0  0  0  0  0  0  0
   58.7540   28.4450   44.9620 C   0  0  0  0  0  0  0  0  0  0  0  0
   59.9680   28.0980   45.5800 C   0  0  0  0  0  0  0  0  0  0  0  0
   60.0590   26.9420   46.3600 C   0  0  0  0  0  0  0  0  0  0  0  0
   58.9420   26.1210   46.5320 C   0  0  0  0  0  0  0  0  0  0  0  0
   57.7230   26.4560   45.9270 C   0  0  0  0  0  0  0  0  0  0  0  0
   56.3200   25.4100   46.1250 S   0  0  0  0  0  0  0  0  0  0  0  0
   54.8770   26.3420   45.9460 N   0  0  0  0  0  0  0  0  0  0  0  0
   56.3460   24.3200   45.0910 O   0  0  0  0  0  0  0  0  0  0  0  0
   56.3430   24.7810   47.4900 O   0  0  0  0  0  0  0  0  0  0  0  0
   57.6340   27.6110   45.1390 C   0  0  0  0  0  0  0  0  0  0  0  0
   56.3516   34.6379   45.9998 H   0  0  0  0  0  0  0  0  0  0  0  0
   57.2999   35.1167   44.5514 H   0  0  0  0  0  0  0  0  0  0  0  0
   56.3769   33.5757   44.5514 H   0  0  0  0  0  0  0  0  0  0  0  0
   59.1787   35.3729   46.3274 H   0  0  0  0  0  0  0  0  0  0  0  0
   61.1793   34.1775   47.2279 H   0  0  0  0  0  0  0  0  0  0  0  0
   61.2720   31.6815   47.1219 H   0  0  0  0  0  0  0  0  0  0  0  0
   59.4500   30.2670   44.3570 H   0  0  0  0  0  0  0  0  0  0  0  0
   58.7900   29.3590   43.1200 H   0  0  0  0  0  0  0  0  0  0  0  0
   60.8515   28.7401   45.4489 H   0  0  0  0  0  0  0  0  0  0  0  0
   61.0129   26.6779   46.8399 H   0  0  0  0  0  0  0  0  0  0  0  0
   59.0193   25.2099   47.1434 H   0  0  0  0  0  0  0  0  0  0  0  0
   55.1530   27.3470   46.0130 H   0  0  0  0  0  0  0  0  0  0  0  0
   56.6806   27.8683   44.6544 H   0  0  0  0  0  0  0  0  0  0  0  0
  1  2  1  0
  2  3  2  0
  3  4  1  0
  4  5  2  0
  5  6  1  0
  6  7  1  0
  7  8  2  3
  8  9  1  0
  9 10  2  0
  9 11  1  0
 11 12  1  0
 12 13  2  0
 13 14  1  0
 14 15  2  0
 15 16  1  0
 16 17  1  0
 17 18  1  0
 17 19  2  0
 17 20  2  0
 16 21  2  0
  7  2  1  0
 21 12  1  0
  1 22  1  0
  1 23  1  0
  1 24  1  0
  3 25  1  0
  4 26  1  0
  5 27  1  0
 11 28  1  0
 11 29  1  0
 13 30  1  0
 14 31  1  0
 15 32  1  0
 18 33  1  0
 21 34  1  0
M  CHG  3   6  -1  11   1  18  -1
M  END
>  <UniqueID>  (10) 
9

>  <SMILES>  (10) 
Cc1ccc[n-]c1=NC(=S)[NH2+]c1cccc(S([NH-])(=O)=O)c1

>  <Energy>  (10) 
41.496939642165074

>  <Genealogy>  (10) 
Cc1ccc[n-]c1=NC(=S)[NH2+]c1cccc(S([NH-])(=O)=O)c1 (protonated)
Cc1ccc[n-]c1=NC(=S)[NH2+]c1cccc(S([NH-])(=O)=O)c1 (3D coordinates assigned)
Cc1ccc[n-]c1=NC(=S)[NH2+]c1cccc(S([NH-])(=O)=O)c1 (optimized conformer: 41.496939642165074 kcal/mol)

>  <smiles>  (10) 
Cc1ccc[nH]c1=NC(=S)Nc1cccc(S(N)(=O)=O)c1

>  <score_type>  (10) 
oracle

>  <origin>  (10) 
adg

>  <m_score__min__energy>  (10) 
-11.23

>  <m_primary>  (10) 
energy

$$$$
10:0
     RDKit          3D

 33 34  0  0  0  0  0  0  0  0999 V2000
   63.9920   33.0930   46.4050 N   0  0  0  0  0  0  0  0  0  0  0  0
   63.7390   33.0990   47.6860 C   0  0  0  0  0  0  0  0  0  0  0  0
   62.5350   33.1200   48.2930 N   0  0  0  0  0  0  0  0  0  0  0  0
   62.7060   33.1140   49.6350 C   0  0  0  0  0  0  0  0  0  0  0  0
   61.3420   33.1260   50.7810 S   0  0  0  0  0  0  0  0  0  0  0  0
   59.9540   33.9730   49.9910 C   0  0  0  0  0  0  0  0  0  0  0  0
   59.3190   33.1940   48.9350 C   0  0  0  0  0  0  0  0  0  0  0  0
   58.1630   32.7040   49.1780 O   0  0  0  0  0  0  0  0  0  0  0  0
   59.8550   32.9200   47.6530 N   0  0  0  0  0  0  0  0  0  0  0  0
   59.0660   32.1370   46.7720 C   0  0  0  0  0  0  0  0  0  0  0  0
   58.8360   30.8040   47.0090 C   0  0  0  0  0  0  0  0  0  0  0  0
   58.0760   30.0910   46.1150 C   0  0  0  0  0  0  0  0  0  0  0  0
   57.5430   30.6820   44.9880 C   0  0  0  0  0  0  0  0  0  0  0  0
   56.5830   29.7530   43.8340 S   0  0  0  0  0  0  0  0  0  0  0  0
   57.4190   28.3120   43.3730 N   0  0  0  0  0  0  0  0  0  0  0  0
   55.2710   29.3640   44.4530 O   0  0  0  0  0  0  0  0  0  0  0  0
   56.3030   30.5390   42.5940 O   0  0  0  0  0  0  0  0  0  0  0  0
   57.7680   32.0190   44.7430 C   0  0  0  0  0  0  0  0  0  0  0  0
   58.5310   32.7520   45.6340 C   0  0  0  0  0  0  0  0  0  0  0  0
   58.8410   34.5970   45.2850 Br  0  0  0  0  0  0  0  0  0  0  0  0
   64.0260   33.0890   49.8580 N   0  0  0  0  0  0  0  0  0  0  0  0
   64.6440   33.0800   48.6790 N   0  0  0  0  0  0  0  0  0  0  0  0
   64.8780   32.6540   46.0440 H   0  0  0  0  0  0  0  0  0  0  0  0
   59.1997   34.1961   50.7599 H   0  0  0  0  0  0  0  0  0  0  0  0
   60.3563   34.8834   49.5226 H   0  0  0  0  0  0  0  0  0  0  0  0
   60.7950   33.3050   47.4270 H   0  0  0  0  0  0  0  0  0  0  0  0
   59.2542   30.3151   47.9012 H   0  0  0  0  0  0  0  0  0  0  0  0
   57.8876   29.0235   46.3017 H   0  0  0  0  0  0  0  0  0  0  0  0
   56.7420   27.6040   42.9940 H   0  0  0  0  0  0  0  0  0  0  0  0
   58.1420   28.4970   42.6320 H   0  0  0  0  0  0  0  0  0  0  0  0
   57.3452   32.4987   43.8479 H   0  0  0  0  0  0  0  0  0  0  0  0
   64.4740   33.0800   50.8000 H   0  0  0  0  0  0  0  0  0  0  0  0
   65.6960   33.0630   48.6120 H   0  0  0  0  0  0  0  0  0  0  0  0
  1  2  2  3
  2  3  1  0
  3  4  2  0
  4  5  1  0
  5  6  1  0
  6  7  1  0
  7  8  2  0
  7  9  1  0
  9 10  1  0
 10 11  2  0
 11 12  1  0
 12 13  2  0
 13 14  1  0
 14 15  1  0
 14 16  2  0
 14 17  2  0
 13 18  1  0
 18 19  2  0
 19 20  1  0
  4 21  1  0
 21 22  1  0
 22  2  1  0
 19 10  1  0
  1 23  1  0
  6 24  1  0
  6 25  1  0
  9 26  1  0
 11 27  1  0
 12 28  1  0
 15 29  1  0
 15 30  1  0
 18 31  1  0
 21 32  1  0
 22 33  1  0
M  END
>  <smiles>  (11) 
N=c1nc(SCC(=O)Nc2ccc(S(N)(=O)=O)cc2Br)[nH][nH]1

>  <score_type>  (11) 
oracle

>  <origin>  (11) 
adg

>  <m_score__min__energy>  (11) 
-7.7999999999999998

>  <m_primary>  (11) 
energy

$$$$
11:0
     RDKit          3D

 38 41  0  0  0  0  0  0  0  0999 V2000
   63.1530   33.0720   48.4640 C   0  0  0  0  0  0  0  0  0  0  0  0
   62.3230   32.7760   49.5480 C   0  0  0  0  0  0  0  0  0  0  0  0
   61.3310   31.7980   49.4260 C   0  0  0  0  0  0  0  0  0  0  0  0
   61.1770   31.0890   48.2210 C   0  0  0  0  0  0  0  0  0  0  0  0
   60.0730   30.0680   48.0890 C   0  0  0  0  0  0  0  0  0  0  0  0
   58.8330   30.6670   47.5990 N   0  0  0  0  0  0  0  0  0  0  0  0
   58.5260   31.4760   46.6110 C   0  0  0  0  0  0  0  0  0  0  0  0
   58.8860   32.8630   46.5340 C   0  0  0  0  0  0  0  0  0  0  0  0
   59.3100   33.6430   47.6360 C   0  0  0  0  0  0  0  0  0  0  0  0
   59.7020   34.9730   47.4780 C   0  0  0  0  0  0  0  0  0  0  0  0
   59.6460   35.5780   46.2290 C   0  0  0  0  0  0  0  0  0  0  0  0
   59.1550   34.8680   45.1380 C   0  0  0  0  0  0  0  0  0  0  0  0
   58.7470   33.5300   45.2820 C   0  0  0  0  0  0  0  0  0  0  0  0
   58.1930   32.8930   44.2150 N   0  0  0  0  0  0  0  0  0  0  0  0
   57.7220   31.6230   44.3000 C   0  0  0  0  0  0  0  0  0  0  0  0
   57.1010   31.0320   43.1850 C   0  0  0  0  0  0  0  0  0  0  0  0
   56.6260   29.7230   43.2510 C   0  0  0  0  0  0  0  0  0  0  0  0
   56.7680   28.9880   44.4260 C   0  0  0  0  0  0  0  0  0  0  0  0
   57.3870   29.5580   45.5400 C   0  0  0  0  0  0  0  0  0  0  0  0
   57.8720   30.8880   45.4980 C   0  0  0  0  0  0  0  0  0  0  0  0
   61.9990   31.4140   47.1260 C   0  0  0  0  0  0  0  0  0  0  0  0
   62.9880   32.3950   47.2530 C   0  0  0  0  0  0  0  0  0  0  0  0
   63.9362   33.8379   48.5639 H   0  0  0  0  0  0  0  0  0  0  0  0
   62.4500   33.3133   50.4994 H   0  0  0  0  0  0  0  0  0  0  0  0
   60.6678   31.5821   50.2766 H   0  0  0  0  0  0  0  0  0  0  0  0
   60.3935   29.2867   47.3841 H   0  0  0  0  0  0  0  0  0  0  0  0
   59.8774   29.6463   49.0859 H   0  0  0  0  0  0  0  0  0  0  0  0
   59.3311   33.1912   48.6387 H   0  0  0  0  0  0  0  0  0  0  0  0
   60.0573   35.5454   48.3475 H   0  0  0  0  0  0  0  0  0  0  0  0
   59.9889   36.6155   46.1028 H   0  0  0  0  0  0  0  0  0  0  0  0
   59.0854   35.3570   44.1551 H   0  0  0  0  0  0  0  0  0  0  0  0
   58.0930   33.4100   43.3090 H   0  0  0  0  0  0  0  0  0  0  0  0
   56.9893   31.6070   42.2539 H   0  0  0  0  0  0  0  0  0  0  0  0
   56.1388   29.2702   42.3749 H   0  0  0  0  0  0  0  0  0  0  0  0
   56.3914   27.9557   44.4761 H   0  0  0  0  0  0  0  0  0  0  0  0
   57.4993   28.9673   46.4611 H   0  0  0  0  0  0  0  0  0  0  0  0
   61.8632   30.8943   46.1660 H   0  0  0  0  0  0  0  0  0  0  0  0
   63.6371   32.6339   46.3977 H   0  0  0  0  0  0  0  0  0  0  0  0
  1  2  2  0
  2  3  1  0
  3  4  2  0
  4  5  1  0
  5  6  1  0
  6  7  2  3
  7  8  1  0
  8  9  2  0
  9 10  1  0
 10 11  2  0
 11 12  1  0
 12 13  2  0
 13 14  1  0
 14 15  1  0
 15 16  2  0
 16 17  1  0
 17 18  2  0
 18 19  1  0
 19 20  2  0
  4 21  1  0
 21 22  2  0
 22  1  1  0
 20  7  1  0
 13  8  1  0
 20 15  1  0
  1 23  1  0
  2 24  1  0
  3 25  1  0
  5 26  1  0
  5 27  1  0
  9 28  1  0
 10 29  1  0
 11 30  1  0
 12 31  1  0
 14 32  1  0
 16 33  1  0
 17 34  1  0
 18 35  1  0
 19 36  1  0
 21 37  1  0
 22 38  1  0
M  END
>  <UniqueID>  (12) 
10

>  <SMILES>  (12) 
c1ccc(CN=c2c3ccccc3[nH]c3ccccc23)cc1

>  <Energy>  (12) 
69.77805360379516

>  <Genealogy>  (12) 
c1ccc(CN=c2c3ccccc3[nH]c3ccccc23)cc1 (3D coordinates assigned)
c1ccc(CN=c2c3ccccc3[nH]c3ccccc23)cc1 (optimized conformer: 69.77805360379516 kcal/mol)

>  <smiles>  (12) 
c1ccc(CN=c2c3ccccc3[nH]c3ccccc23)cc1

>  <score_type>  (12) 
oracle

>  <origin>  (12) 
adg

>  <m_score__min__energy>  (12) 
-7.5999999999999996

>  <m_primary>  (12) 
energy

$$$$
12:0
     RDKit          3D

 53 54  0  0  0  0  0  0  0  0999 V2000
   56.9730   20.7240   42.6370 C   0  0  0  0  0  0  0  0  0  0  0  0
   57.2000   21.9100   43.5300 C   0  0  0  0  0  0  0  0  0  0  0  0
   58.2910   21.9380   44.4120 C   0  0  0  0  0  0  0  0  0  0  0  0
   58.5000   23.0450   45.2410 C   0  0  0  0  0  0  0  0  0  0  0  0
   57.6220   24.1340   45.2050 C   0  0  0  0  0  0  0  0  0  0  0  0
   57.8980   25.2610   46.0460 N   0  0  0  0  0  0  0  0  0  0  0  0
   57.0140   26.7550   46.0680 S   0  0  0  0  0  0  0  0  0  0  0  0
   57.3220   27.4920   47.3440 O   0  0  0  0  0  0  0  0  0  0  0  0
   55.5380   26.4770   45.9970 O   0  0  0  0  0  0  0  0  0  0  0  0
   57.5390   27.7050   44.7060 N   0  0  0  0  0  0  0  0  0  0  0  0
   57.0460   29.3660   44.8560 S   0  0  0  0  0  0  0  0  0  0  0  0
   55.5430   29.4160   44.8510 O   0  0  0  0  0  0  0  0  0  0  0  0
   57.5600   30.1700   43.6930 O   0  0  0  0  0  0  0  0  0  0  0  0
   57.6170   30.0570   46.3440 N   0  0  0  0  0  0  0  0  0  0  0  0
   58.9240   30.6220   46.5180 C   0  0  0  0  0  0  0  0  0  0  0  0
   60.0360   29.7990   46.8550 C   0  0  0  0  0  0  0  0  0  0  0  0
   59.8940   28.2960   47.0830 C   0  0  0  0  0  0  0  0  0  0  0  0
   60.4120   27.9080   48.4750 C   0  0  0  0  0  0  0  0  0  0  0  0
   60.6050   27.4850   45.9900 C   0  0  0  0  0  0  0  0  0  0  0  0
   61.2850   30.4060   47.0840 C   0  0  0  0  0  0  0  0  0  0  0  0
   61.4340   31.7880   47.0150 C   0  0  0  0  0  0  0  0  0  0  0  0
   60.3430   32.5960   46.7160 C   0  0  0  0  0  0  0  0  0  0  0  0
   59.0800   32.0330   46.4510 C   0  0  0  0  0  0  0  0  0  0  0  0
   57.8810   32.9430   46.1960 C   0  0  0  0  0  0  0  0  0  0  0  0
   58.1710   34.3530   46.7190 C   0  0  0  0  0  0  0  0  0  0  0  0
   57.4650   32.9880   44.7140 C   0  0  0  0  0  0  0  0  0  0  0  0
   56.4970   24.0830   44.3600 C   0  0  0  0  0  0  0  0  0  0  0  0
   56.2940   22.9820   43.5220 C   0  0  0  0  0  0  0  0  0  0  0  0
   55.2090   22.9610   42.7060 F   0  0  0  0  0  0  0  0  0  0  0  0
   56.8017   19.8288   43.2528 H   0  0  0  0  0  0  0  0  0  0  0  0
   56.0934   20.9061   42.0021 H   0  0  0  0  0  0  0  0  0  0  0  0
   57.8577   20.5684   42.0021 H   0  0  0  0  0  0  0  0  0  0  0  0
   58.9850   21.0855   44.4516 H   0  0  0  0  0  0  0  0  0  0  0  0
   59.3605   23.0596   45.9260 H   0  0  0  0  0  0  0  0  0  0  0  0
   58.5870   27.6900   44.6870 H   0  0  0  0  0  0  0  0  0  0  0  0
   58.8228   28.0520   47.0283 H   0  0  0  0  0  0  0  0  0  0  0  0
   59.7830   28.3791   49.2447 H   0  0  0  0  0  0  0  0  0  0  0  0
   60.3736   26.8146   48.5889 H   0  0  0  0  0  0  0  0  0  0  0  0
   61.4505   28.2523   48.5889 H   0  0  0  0  0  0  0  0  0  0  0  0
   61.2614   26.7363   46.4574 H   0  0  0  0  0  0  0  0  0  0  0  0
   59.8561   26.9768   45.3648 H   0  0  0  0  0  0  0  0  0  0  0  0
   61.2068   28.1610   45.3648 H   0  0  0  0  0  0  0  0  0  0  0  0
   62.1568   29.7785   47.3211 H   0  0  0  0  0  0  0  0  0  0  0  0
   62.4188   32.2427   47.1978 H   0  0  0  0  0  0  0  0  0  0  0  0
   60.4680   33.6885   46.6861 H   0  0  0  0  0  0  0  0  0  0  0  0
   57.0290   32.5152   46.7448 H   0  0  0  0  0  0  0  0  0  0  0  0
   58.1691   34.3437   47.8190 H   0  0  0  0  0  0  0  0  0  0  0  0
   59.1558   34.6831   46.3568 H   0  0  0  0  0  0  0  0  0  0  0  0
   57.3964   35.0449   46.3568 H   0  0  0  0  0  0  0  0  0  0  0  0
   56.3737   33.1060   44.6429 H   0  0  0  0  0  0  0  0  0  0  0  0
   57.9587   33.8380   44.2202 H   0  0  0  0  0  0  0  0  0  0  0  0
   57.7655   32.0521   44.2202 H   0  0  0  0  0  0  0  0  0  0  0  0
   55.7747   24.9126   44.3590 H   0  0  0  0  0  0  0  0  0  0  0  0
  1  2  1  0
  2  3  2  0
  3  4  1  0
  4  5  2  0
  5  6  1  0
  6  7  1  0
  7  8  2  0
  7  9  2  0
  7 10  1  0
 10 11  1  0
 11 12  2  0
 11 13  2  0
 11 14  1  0
 14 15  1  0
 15 16  2  0
 16 17  1  0
 17 18  1  0
 17 19  1  0
 16 20  1  0
 20 21  2  0
 21 22  1  0
 22 23  2  0
 23 24  1  0
 24 25  1  0
 24 26  1  0
  5 27  1  0
 27 28  2  0
 28 29  1  0
 28  2  1  0
 23 15  1  0
  1 30  1  0
  1 31  1  0
  1 32  1  0
  3 33  1  0
  4 34  1  0
 10 35  1  0
 17 36  1  0
 18 37  1  0
 18 38  1  0
 18 39  1  0
 19 40  1  0
 19 41  1  0
 19 42  1  0
 20 43  1  0
 21 44  1  0
 22 45  1  0
 24 46  1  0
 25 47  1  0
 25 48  1  0
 25 49  1  0
 26 50  1  0
 26 51  1  0
 26 52  1  0
 27 53  1  0
M  CHG  2   6  -1  14  -1
M  END
>  <UniqueID>  (13) 
11

>  <SMILES>  (13) 
Cc1ccc([N-]S(=O)(=O)NS(=O)(=O)[N-]c2c(C(C)C)cccc2C(C)C)cc1F

>  <Energy>  (13) 
53.69078208160587

>  <Genealogy>  (13) 
Cc1ccc([N-]S(=O)(=O)NS(=O)(=O)[N-]c2c(C(C)C)cccc2C(C)C)cc1F (protonated)
Cc1ccc([N-]S(=O)(=O)NS(=O)(=O)[N-]c2c(C(C)C)cccc2C(C)C)cc1F (3D coordinates assigned)
Cc1ccc([N-]S(=O)(=O)NS(=O)(=O)[N-]c2c(C(C)C)cccc2C(C)C)cc1F (optimized conformer: 53.69078208160587 kcal/mol)

>  <smiles>  (13) 
Cc1ccc(NS(=O)(=O)NS(=O)(=O)Nc2c(C(C)C)cccc2C(C)C)cc1F

>  <score_type>  (13) 
oracle

>  <origin>  (13) 
adg

>  <m_score__min__energy>  (13) 
-11.210000000000001

>  <m_primary>  (13) 
energy

$$$$
13:0
     RDKit          3D

 56 58  0  0  1  0  0  0  0  0999 V2000
   66.1710   32.4180   50.1570 C   0  0  0  0  0  0  0  0  0  0  0  0
   64.7790   32.9290   50.0050 C   0  0  0  0  0  0  0  0  0  0  0  0
   63.9530   33.0970   51.1200 C   0  0  0  0  0  0  0  0  0  0  0  0
   62.6720   33.5730   50.9240 C   0  0  0  0  0  0  0  0  0  0  0  0
   61.8420   33.7590   51.8880 N   0  0  0  0  0  0  0  0  0  0  0  0
   60.5080   33.2510   51.7890 C   0  0  0  0  0  0  0  0  0  0  0  0
   59.4520   33.8080   52.4840 C   0  0  0  0  0  0  0  0  0  0  0  0
   58.2120   33.2300   52.3070 C   0  0  0  0  0  0  0  0  0  0  0  0
   58.0220   32.1320   51.4640 C   0  0  0  0  0  0  0  0  0  0  0  0
   56.7320   31.5940   51.3290 O   0  0  0  0  0  0  0  0  0  0  0  0
   59.0830   31.5800   50.7720 C   0  0  0  0  0  0  0  0  0  0  0  0
   60.3230   32.1690   50.9580 C   0  0  0  0  0  0  0  0  0  0  0  0
   62.2840   33.8530   49.6510 N   0  0  0  0  0  0  0  0  0  0  0  0
   63.1190   33.6750   48.6030 C   0  0  0  0  0  0  0  0  0  0  0  0
   62.6420   33.9740   47.4400 N   0  0  0  0  0  0  0  0  0  0  0  0
   61.3320   33.5720   47.0670 C   0  0  0  0  0  0  0  0  0  0  0  0
   60.3770   34.5820   46.9330 C   0  0  0  0  0  0  0  0  0  0  0  0
   59.0840   34.2620   46.5720 C   0  0  0  0  0  0  0  0  0  0  0  0
   58.7340   32.9450   46.3440 C   0  0  0  0  0  0  0  0  0  0  0  0
   59.7020   31.9470   46.4830 C   0  0  0  0  0  0  0  0  0  0  0  0
   59.1920   30.3140   46.1820 S   0  0  0  0  0  0  0  0  0  0  0  0
   58.1030   30.0020   47.1690 O   0  0  0  0  0  0  0  0  0  0  0  0
   60.3280   29.3630   46.5180 O   0  0  0  0  0  0  0  0  0  0  0  0
   58.6230   30.0180   44.6320 N   0  0  0  0  0  0  0  0  0  0  0  0
   58.5480   31.1580   43.7610 C   0  0  0  0  0  0  0  0  0  0  0  0
   57.0650   31.5290   43.6200 C   0  0  0  0  0  0  0  0  0  0  0  0
   56.2590   30.9470   44.6730 N   0  0  0  0  0  0  0  0  0  0  0  0
   55.7860   29.3750   44.0780 S   0  0  0  0  0  0  0  0  0  0  0  0
   56.9020   28.9390   42.8170 N   0  0  0  0  0  0  0  0  0  0  0  0
   56.0030   28.3900   45.1860 O   0  0  0  0  0  0  0  0  0  0  0  0
   54.3990   29.3590   43.5520 O   0  0  0  0  0  0  0  0  0  0  0  0
   61.0020   32.2460   46.8430 C   0  0  0  0  0  0  0  0  0  0  0  0
   64.3600   33.2170   48.7610 N   0  0  0  0  0  0  0  0  0  0  0  0
   66.4141   32.3287   51.2261 H   0  0  0  0  0  0  0  0  0  0  0  0
   66.2535   31.4309   49.6785 H   0  0  0  0  0  0  0  0  0  0  0  0
   66.8726   33.1172   49.6785 H   0  0  0  0  0  0  0  0  0  0  0  0
   64.3152   32.8555   52.1302 H   0  0  0  0  0  0  0  0  0  0  0  0
   59.5935   34.6732   53.1484 H   0  0  0  0  0  0  0  0  0  0  0  0
   57.3475   33.6457   52.8453 H   0  0  0  0  0  0  0  0  0  0  0  0
   56.1270   31.9470   50.6000 H   0  0  0  0  0  0  0  0  0  0  0  0
   58.9495   30.7149   50.1058 H   0  0  0  0  0  0  0  0  0  0  0  0
   61.1911   31.7573   50.4224 H   0  0  0  0  0  0  0  0  0  0  0  0
   61.3130   34.2140   49.5100 H   0  0  0  0  0  0  0  0  0  0  0  0
   60.6548   35.6307   47.1148 H   0  0  0  0  0  0  0  0  0  0  0  0
   58.3309   35.0567   46.4656 H   0  0  0  0  0  0  0  0  0  0  0  0
   57.7046   32.6850   46.0562 H   0  0  0  0  0  0  0  0  0  0  0  0
   57.8500   29.3600   44.5340 H   0  0  0  0  0  0  0  0  0  0  0  0
   59.1070   32.0003   44.1946 H   0  0  0  0  0  0  0  0  0  0  0  0
   58.9864   30.9269   42.7790 H   0  0  0  0  0  0  0  0  0  0  0  0
   56.9671   32.6238   43.6614 H   0  0  0  0  0  0  0  0  0  0  0  0
   56.7053   31.1341   42.6584 H   0  0  0  0  0  0  0  0  0  0  0  0
   56.8620   30.7390   45.4990 H   0  0  0  0  0  0  0  0  0  0  0  0
   56.8870   27.9050   42.6970 H   0  0  0  0  0  0  0  0  0  0  0  0
   57.8750   29.2680   43.0210 H   0  0  0  0  0  0  0  0  0  0  0  0
   61.7552   31.4514   46.9489 H   0  0  0  0  0  0  0  0  0  0  0  0
   64.9580   33.0990   47.9170 H   0  0  0  0  0  0  0  0  0  0  0  0
  1  2  1  0
  2  3  2  0
  3  4  1  0
  4  5  2  0
  5  6  1  0
  6  7  2  0
  7  8  1  0
  8  9  2  0
  9 10  1  0
  9 11  1  0
 11 12  2  0
  4 13  1  0
 13 14  1  0
 14 15  2  0
 15 16  1  0
 16 17  2  0
 17 18  1  0
 18 19  2  0
 19 20  1  0
 20 21  1  0
 21 22  2  0
 21 23  2  0
 21 24  1  0
 24 25  1  0
 25 26  1  0
 26 27  1  0
 27 28  1  0
 28 29  1  0
 28 30  2  0
 28 31  2  0
 20 32  2  0
 14 33  1  0
 33  2  1  0
 12  6  1  0
 32 16  1  0
  1 34  1  0
  1 35  1  0
  1 36  1  0
  3 37  1  0
  7 38  1  0
  8 39  1  0
 10 40  1  0
 11 41  1  0
 12 42  1  0
 13 43  1  0
 17 44  1  0
 18 45  1  0
 19 46  1  0
 24 47  1  0
 25 48  1  0
 25 49  1  0
 26 50  1  0
 26 51  1  0
 27 52  1  0
 29 53  1  0
 29 54  1  0
 32 55  1  0
 33 56  1  0
M  END
>  <smiles>  (14) 
Cc1cc(=Nc2ccc(O)cc2)[nH]c(=Nc2cccc(S(=O)(=O)NCCNS(N)(=O)=O)c2)[nH]1

>  <score_type>  (14) 
oracle

>  <origin>  (14) 
adg

>  <m_score__min__energy>  (14) 
-9.8499999999999996

>  <m_primary>  (14) 
energy

$$$$
14:0
     RDKit          3D

 44 47  0  0  0  0  0  0  0  0999 V2000
   64.6790   33.2005   46.7983 H   0  0  0  0  0  0  0  0  0  0  0  0
   63.7400   33.3720   47.3450 C   0  0  0  0  0  0  0  0  0  0  0  0
   62.5420   33.6360   46.7700 N   0  0  0  0  0  0  0  0  0  0  0  0
   61.6650   33.7950   47.7490 N   0  0  0  0  0  0  0  0  0  0  0  0
   60.3240   34.0370   47.6720 C   0  0  0  0  0  0  0  0  0  0  0  0
   59.6880   34.2180   46.5470 N   0  0  0  0  0  0  0  0  0  0  0  0
   58.9030   33.2630   45.8220 C   0  0  0  0  0  0  0  0  0  0  0  0
   58.4860   33.5600   44.5180 C   0  0  0  0  0  0  0  0  0  0  0  0
   58.7231   34.5389   44.0758 H   0  0  0  0  0  0  0  0  0  0  0  0
   57.7690   32.6150   43.7770 C   0  0  0  0  0  0  0  0  0  0  0  0
   57.4272   32.8590   42.7603 H   0  0  0  0  0  0  0  0  0  0  0  0
   57.4860   31.3610   44.3260 C   0  0  0  0  0  0  0  0  0  0  0  0
   56.5080   30.0710   43.3120 Br  0  0  0  0  0  0  0  0  0  0  0  0
   57.9300   31.0460   45.6150 C   0  0  0  0  0  0  0  0  0  0  0  0
   57.7137   30.0568   46.0448 H   0  0  0  0  0  0  0  0  0  0  0  0
   58.6490   31.9890   46.3570 C   0  0  0  0  0  0  0  0  0  0  0  0
   59.0163   31.7325   47.3616 H   0  0  0  0  0  0  0  0  0  0  0  0
   59.6170   34.0650   48.8360 N   0  0  0  0  0  0  0  0  0  0  0  0
   60.2380   33.8730   50.0400 C   0  0  0  0  0  0  0  0  0  0  0  0
   59.4490   33.9640   51.3070 C   0  0  0  0  0  0  0  0  0  0  0  0
   60.1382   34.0372   52.1612 H   0  0  0  0  0  0  0  0  0  0  0  0
   58.8063   34.8559   51.2698 H   0  0  0  0  0  0  0  0  0  0  0  0
   58.5890   32.7410   51.4640 C   0  0  0  0  0  0  0  0  0  0  0  0
   58.9020   31.5590   50.7700 C   0  0  0  0  0  0  0  0  0  0  0  0
   59.7628   31.5368   50.0855 H   0  0  0  0  0  0  0  0  0  0  0  0
   58.1230   30.4120   50.9470 C   0  0  0  0  0  0  0  0  0  0  0  0
   58.3672   29.4923   50.3952 H   0  0  0  0  0  0  0  0  0  0  0  0
   57.0350   30.4310   51.8230 C   0  0  0  0  0  0  0  0  0  0  0  0
   56.4223   29.5276   51.9590 H   0  0  0  0  0  0  0  0  0  0  0  0
   56.7250   31.5990   52.5270 C   0  0  0  0  0  0  0  0  0  0  0  0
   55.8686   31.6132   53.2172 H   0  0  0  0  0  0  0  0  0  0  0  0
   57.5020   32.7490   52.3550 C   0  0  0  0  0  0  0  0  0  0  0  0
   57.2617   33.6625   52.9187 H   0  0  0  0  0  0  0  0  0  0  0  0
   61.5820   33.6540   50.0920 N   0  0  0  0  0  0  0  0  0  0  0  0
   62.2690   33.6150   48.9270 C   0  0  0  0  0  0  0  0  0  0  0  0
   63.6060   33.3500   48.7320 C   0  0  0  0  0  0  0  0  0  0  0  0
   64.6370   33.0810   49.7530 C   0  0  0  0  0  0  0  0  0  0  0  0
   65.8190   32.8380   49.3870 O   0  0  0  0  0  0  0  0  0  0  0  0
   64.3120   33.0920   51.1500 N   0  0  0  0  0  0  0  0  0  0  0  0
   63.3360   33.2890   51.4620 H   0  0  0  0  0  0  0  0  0  0  0  0
   65.3200   32.8280   52.1700 C   0  0  0  0  0  0  0  0  0  0  0  0
   64.8717   32.9454   53.1676 H   0  0  0  0  0  0  0  0  0  0  0  0
   65.6968   31.8009   52.0559 H   0  0  0  0  0  0  0  0  0  0  0  0
   66.1519   33.5386   52.0559 H   0  0  0  0  0  0  0  0  0  0  0  0
  1  2  1  0
  2  3  2  0
  3  4  1  0
  4  5  1  0
  5  6  2  0
  6  7  1  0
  7  8  2  0
  8  9  1  0
  8 10  1  0
 10 11  1  0
 10 12  2  0
 12 13  1  0
 12 14  1  0
 14 15  1  0
 14 16  2  0
 16 17  1  0
  5 18  1  0
 18 19  1  0
 19 20  1  0
 20 21  1  0
 20 22  1  0
 20 23  1  0
 23 24  2  0
 24 25  1  0
 24 26  1  0
 26 27  1  0
 26 28  2  0
 28 29  1  0
 28 30  1  0
 30 31  1  0
 30 32  2  0
 32 33  1  0
 19 34  2  0
 34 35  1  0
 35 36  2  0
 36 37  1  0
 37 38  2  0
 37 39  1  0
 39 40  1  0
 39 41  1  0
 41 42  1  0
 41 43  1  0
 41 44  1  0
 36  2  1  0
 35  4  1  0
 16  7  1  0
 32 23  1  0
M  CHG  1  18  -1
M  END
>  <UniqueID>  (15) 
12

>  <SMILES>  (15) 
CNC(=O)c1cnn2/c(=N\c3ccc(Br)cc3)[n-]c(Cc3ccccc3)nc12

>  <Energy>  (15) 
92.63074999509574

>  <Genealogy>  (15) 
CNC(=O)c1cnn2c(=Nc3ccc(Br)cc3)[n-]c(Cc3ccccc3)nc12 (protonated)
CNC(=O)c1cnn2/c(=N\c3ccc(Br)cc3)[n-]c(Cc3ccccc3)nc12 (cis-trans isomerization)
CNC(=O)c1cnn2/c(=N\c3ccc(Br)cc3)[n-]c(Cc3ccccc3)nc12 (3D coordinates assigned)
CNC(=O)c1cnn2/c(=N\c3ccc(Br)cc3)[n-]c(Cc3ccccc3)nc12 (optimized conformer: 92.63074999509574 kcal/mol)

>  <smiles>  (15) 
CNC(=O)c1cnn2c(=Nc3ccc(Br)cc3)[nH]c(Cc3ccccc3)nc12

>  <score_type>  (15) 
oracle

>  <origin>  (15) 
adg

>  <m_score__min__energy>  (15) 
-9.5999999999999996

>  <m_primary>  (15) 
energy

$$$$
15:0
     RDKit          3D

 53 56  0  0  0  0  0  0  0  0999 V2000
   58.4960   31.7350   52.1440 C   0  0  0  0  0  0  0  0  0  0  0  0
   58.9310   32.3460   50.8480 C   0  0  0  0  0  0  0  0  0  0  0  0
   58.0580   32.4090   49.8060 N   0  0  0  0  0  0  0  0  0  0  0  0
   58.4630   32.9630   48.6410 C   0  0  0  0  0  0  0  0  0  0  0  0
   57.5420   33.1090   47.2530 S   0  0  0  0  0  0  0  0  0  0  0  0
   58.7730   33.8290   46.3490 C   0  0  0  0  0  0  0  0  0  0  0  0
   58.6170   34.2330   44.9150 C   0  0  0  0  0  0  0  0  0  0  0  0
   59.9340   33.9510   47.1320 C   0  0  0  0  0  0  0  0  0  0  0  0
   61.2320   34.4800   46.5850 C   0  0  0  0  0  0  0  0  0  0  0  0
   59.7380   33.4690   48.4540 C   0  0  0  0  0  0  0  0  0  0  0  0
   60.6220   33.4270   49.5540 C   0  0  0  0  0  0  0  0  0  0  0  0
   62.2770   34.1310   49.5140 S   0  0  0  0  0  0  0  0  0  0  0  0
   62.9550   32.8290   48.4300 C   0  0  0  0  0  0  0  0  0  0  0  0
   62.4840   31.4940   48.9240 C   0  0  0  0  0  0  0  0  0  0  0  0
   62.8330   31.1100   50.0730 O   0  0  0  0  0  0  0  0  0  0  0  0
   61.5530   30.7040   48.1620 N   0  0  0  0  0  0  0  0  0  0  0  0
   61.7740   30.4730   46.7260 C   0  0  0  0  0  0  0  0  0  0  0  0
   60.7300   29.5170   46.1390 C   0  0  0  0  0  0  0  0  0  0  0  0
   59.3810   29.8880   46.5990 N   0  0  0  0  0  0  0  0  0  0  0  0
   58.2580   29.8270   45.6940 C   0  0  0  0  0  0  0  0  0  0  0  0
   58.0310   30.8590   44.7630 C   0  0  0  0  0  0  0  0  0  0  0  0
   56.9340   30.8050   43.8970 C   0  0  0  0  0  0  0  0  0  0  0  0
   56.0560   29.7200   43.9470 C   0  0  0  0  0  0  0  0  0  0  0  0
   56.2760   28.6860   44.8580 C   0  0  0  0  0  0  0  0  0  0  0  0
   57.3690   28.7350   45.7270 C   0  0  0  0  0  0  0  0  0  0  0  0
   59.1580   30.2160   48.0170 C   0  0  0  0  0  0  0  0  0  0  0  0
   60.4340   30.0460   48.8460 C   0  0  0  0  0  0  0  0  0  0  0  0
   60.1940   32.8520   50.7180 N   0  0  0  0  0  0  0  0  0  0  0  0
   58.9101   32.3166   52.9808 H   0  0  0  0  0  0  0  0  0  0  0  0
   57.3975   31.7407   52.2016 H   0  0  0  0  0  0  0  0  0  0  0  0
   58.8608   30.6989   52.2016 H   0  0  0  0  0  0  0  0  0  0  0  0
   58.2212   35.2580   44.8638 H   0  0  0  0  0  0  0  0  0  0  0  0
   59.5955   34.1923   44.4141 H   0  0  0  0  0  0  0  0  0  0  0  0
   57.9198   33.5453   44.4141 H   0  0  0  0  0  0  0  0  0  0  0  0
   61.8975   34.7512   47.4178 H   0  0  0  0  0  0  0  0  0  0  0  0
   61.7127   33.7060   45.9686 H   0  0  0  0  0  0  0  0  0  0  0  0
   61.0348   35.3695   45.9686 H   0  0  0  0  0  0  0  0  0  0  0  0
   62.6042   32.9864   47.3994 H   0  0  0  0  0  0  0  0  0  0  0  0
   64.0543   32.8659   48.4447 H   0  0  0  0  0  0  0  0  0  0  0  0
   61.7138   31.4354   46.1966 H   0  0  0  0  0  0  0  0  0  0  0  0
   62.7667   30.0159   46.6008 H   0  0  0  0  0  0  0  0  0  0  0  0
   60.7663   29.5701   45.0409 H   0  0  0  0  0  0  0  0  0  0  0  0
   60.9535   28.4935   46.4745 H   0  0  0  0  0  0  0  0  0  0  0  0
   58.7216   31.7139   44.7165 H   0  0  0  0  0  0  0  0  0  0  0  0
   56.7626   31.6178   43.1759 H   0  0  0  0  0  0  0  0  0  0  0  0
   55.1912   29.6805   43.2684 H   0  0  0  0  0  0  0  0  0  0  0  0
   55.5866   27.8295   44.8921 H   0  0  0  0  0  0  0  0  0  0  0  0
   57.5363   27.9155   46.4415 H   0  0  0  0  0  0  0  0  0  0  0  0
   58.8206   31.2603   48.0924 H   0  0  0  0  0  0  0  0  0  0  0  0
   58.3980   29.5262   48.4127 H   0  0  0  0  0  0  0  0  0  0  0  0
   60.2909   30.5017   49.8369 H   0  0  0  0  0  0  0  0  0  0  0  0
   60.6549   28.9748   48.9635 H   0  0  0  0  0  0  0  0  0  0  0  0
   60.8460   32.8130   51.5350 H   0  0  0  0  0  0  0  0  0  0  0  0
  1  2  1  0
  2  3  2  0
  3  4  1  0
  4  5  1  0
  5  6  1  0
  6  7  1  0
  6  8  2  0
  8  9  1  0
  8 10  1  0
 10 11  1  0
 11 12  1  0
 12 13  1  0
 13 14  1  0
 14 15  2  0
 14 16  1  0
 16 17  1  0
 17 18  1  0
 18 19  1  0
 19 20  1  0
 20 21  2  0
 21 22  1  0
 22 23  2  0
 23 24  1  0
 24 25  2  0
 19 26  1  0
 26 27  1  0
 11 28  2  0
 28  2  1  0
 10  4  2  0
 27 16  1  0
 25 20  1  0
  1 29  1  0
  1 30  1  0
  1 31  1  0
  7 32  1  0
  7 33  1  0
  7 34  1  0
  9 35  1  0
  9 36  1  0
  9 37  1  0
 13 38  1  0
 13 39  1  0
 17 40  1  0
 17 41  1  0
 18 42  1  0
 18 43  1  0
 21 44  1  0
 22 45  1  0
 23 46  1  0
 24 47  1  0
 25 48  1  0
 26 49  1  0
 26 50  1  0
 27 51  1  0
 27 52  1  0
 28 53  1  0
M  CHG  1  28   1
M  END
>  <UniqueID>  (16) 
13

>  <SMILES>  (16) 
Cc1nc2sc(C)c(C)c2c(SCC(=O)N2CCN(c3ccccc3)CC2)[nH+]1

>  <Energy>  (16) 
88.10402542668328

>  <Genealogy>  (16) 
Cc1nc2sc(C)c(C)c2c(SCC(=O)N2CCN(c3ccccc3)CC2)[nH+]1 (protonated)
Cc1nc2sc(C)c(C)c2c(SCC(=O)N2CCN(c3ccccc3)CC2)[nH+]1 (3D coordinates assigned)
Cc1nc2sc(C)c(C)c2c(SCC(=O)N2CCN(c3ccccc3)CC2)[nH+]1 (nonaromatic ring conformer: 88.10402542668328 kcal/mol)

>  <smiles>  (16) 
Cc1nc(SCC(=O)N2CCN(c3ccccc3)CC2)c2c(C)c(C)sc2n1

>  <score_type>  (16) 
oracle

>  <origin>  (16) 
adg

>  <m_score__min__energy>  (16) 
-7.0199999999999996

>  <m_primary>  (16) 
energy

$$$$
16:0
     RDKit          3D

 49 51  0  0  0  0  0  0  0  0999 V2000
   58.4960   32.3670   50.3940 O   0  0  0  0  0  0  0  0  0  0  0  0
   58.8860   31.6590   49.4280 C   0  0  0  0  0  0  0  0  0  0  0  0
   58.7900   30.1610   49.5260 C   0  0  0  0  0  0  0  0  0  0  0  0
   57.7410   29.7770   50.4140 O   0  0  0  0  0  0  0  0  0  0  0  0
   57.7830   29.9830   51.8000 C   0  0  0  0  0  0  0  0  0  0  0  0
   58.8260   29.7170   52.4560 O   0  0  0  0  0  0  0  0  0  0  0  0
   56.6110   30.5210   52.5080 C   0  0  0  0  0  0  0  0  0  0  0  0
   55.6660   31.2310   51.8750 C   0  0  0  0  0  0  0  0  0  0  0  0
   54.2180   30.9210   51.9450 C   0  0  0  0  0  0  0  0  0  0  0  0
   53.7310   29.6590   52.3400 C   0  0  0  0  0  0  0  0  0  0  0  0
   52.3550   29.4120   52.3740 C   0  0  0  0  0  0  0  0  0  0  0  0
   51.4530   30.4110   52.0090 C   0  0  0  0  0  0  0  0  0  0  0  0
   51.9240   31.6620   51.6030 C   0  0  0  0  0  0  0  0  0  0  0  0
   51.0260   32.6550   51.2330 O   0  0  0  0  0  0  0  0  0  0  0  0
   53.2990   31.9140   51.5660 C   0  0  0  0  0  0  0  0  0  0  0  0
   59.4500   32.3090   48.2820 N   0  0  0  0  0  0  0  0  0  0  0  0
   58.8510   32.4240   46.9830 C   0  0  0  0  0  0  0  0  0  0  0  0
   58.2110   31.3270   46.3790 C   0  0  0  0  0  0  0  0  0  0  0  0
   57.6070   31.4610   45.1230 C   0  0  0  0  0  0  0  0  0  0  0  0
   56.8110   30.0700   44.3930 S   0  0  0  0  0  0  0  0  0  0  0  0
   56.4290   30.4160   42.9810 O   0  0  0  0  0  0  0  0  0  0  0  0
   55.5670   29.6960   45.1530 O   0  0  0  0  0  0  0  0  0  0  0  0
   57.9000   28.7200   44.3750 N   0  0  0  0  0  0  0  0  0  0  0  0
   58.4470   28.0810   45.5380 C   0  0  0  0  0  0  0  0  0  0  0  0
   57.7220   27.1300   46.2800 C   0  0  0  0  0  0  0  0  0  0  0  0
   58.2970   26.5260   47.4040 C   0  0  0  0  0  0  0  0  0  0  0  0
   59.5950   26.8630   47.7950 C   0  0  0  0  0  0  0  0  0  0  0  0
   60.3230   27.8050   47.0610 C   0  0  0  0  0  0  0  0  0  0  0  0
   59.7520   28.4120   45.9360 C   0  0  0  0  0  0  0  0  0  0  0  0
   60.4720   29.3200   45.2300 F   0  0  0  0  0  0  0  0  0  0  0  0
   57.6220   32.7020   44.4730 C   0  0  0  0  0  0  0  0  0  0  0  0
   58.2270   33.8030   45.0820 C   0  0  0  0  0  0  0  0  0  0  0  0
   58.8340   33.6710   46.3370 C   0  0  0  0  0  0  0  0  0  0  0  0
   59.5810   35.0790   47.0770 Cl  0  0  0  0  0  0  0  0  0  0  0  0
   58.5869   29.7466   48.5275 H   0  0  0  0  0  0  0  0  0  0  0  0
   59.7420   29.7717   49.9160 H   0  0  0  0  0  0  0  0  0  0  0  0
   56.5070   30.3355   53.5873 H   0  0  0  0  0  0  0  0  0  0  0  0
   55.9832   32.0926   51.2692 H   0  0  0  0  0  0  0  0  0  0  0  0
   54.4368   28.8642   52.6230 H   0  0  0  0  0  0  0  0  0  0  0  0
   51.9828   28.4262   52.6898 H   0  0  0  0  0  0  0  0  0  0  0  0
   50.3712   30.2141   52.0408 H   0  0  0  0  0  0  0  0  0  0  0  0
   53.6643   32.8981   51.2373 H   0  0  0  0  0  0  0  0  0  0  0  0
   58.1848   30.3569   46.8970 H   0  0  0  0  0  0  0  0  0  0  0  0
   56.6999   26.8605   45.9755 H   0  0  0  0  0  0  0  0  0  0  0  0
   57.7254   25.7841   47.9809 H   0  0  0  0  0  0  0  0  0  0  0  0
   60.0442   26.3878   48.6795 H   0  0  0  0  0  0  0  0  0  0  0  0
   61.3457   28.0693   47.3681 H   0  0  0  0  0  0  0  0  0  0  0  0
   57.1567   32.8090   43.4820 H   0  0  0  0  0  0  0  0  0  0  0  0
   58.2269   34.7785   44.5737 H   0  0  0  0  0  0  0  0  0  0  0  0
  1  2  2  0
  2  3  1  0
  3  4  1  0
  4  5  1  0
  5  6  2  0
  5  7  1  0
  7  8  2  3
  8  9  1  0
  9 10  2  0
 10 11  1  0
 11 12  2  0
 12 13  1  0
 13 14  1  0
 13 15  2  0
  2 16  1  0
 16 17  1  0
 17 18  2  0
 18 19  1  0
 19 20  1  0
 20 21  2  0
 20 22  2  0
 20 23  1  0
 23 24  1  0
 24 25  2  0
 25 26  1  0
 26 27  2  0
 27 28  1  0
 28 29  2  0
 29 30  1  0
 19 31  2  0
 31 32  1  0
 32 33  2  0
 33 34  1  0
 15  9  1  0
 33 17  1  0
 29 24  1  0
  3 35  1  0
  3 36  1  0
  7 37  1  0
  8 38  1  0
 10 39  1  0
 11 40  1  0
 12 41  1  0
 15 42  1  0
 18 43  1  0
 25 44  1  0
 26 45  1  0
 27 46  1  0
 28 47  1  0
 31 48  1  0
 32 49  1  0
M  CHG  3  14  -1  16  -1  23  -1
M  END
>  <UniqueID>  (17) 
14

>  <SMILES>  (17) 
O=C(COC(=O)C=Cc1cccc([O-])c1)[N-]c1cc(S(=O)(=O)[N-]c2ccccc2F)ccc1Cl

>  <Energy>  (17) 
60.075785121047346

>  <Genealogy>  (17) 
O=C(COC(=O)C=Cc1cccc([O-])c1)[N-]c1cc(S(=O)(=O)[N-]c2ccccc2F)ccc1Cl (protonated)
O=C(COC(=O)C=Cc1cccc([O-])c1)[N-]c1cc(S(=O)(=O)[N-]c2ccccc2F)ccc1Cl (3D coordinates assigned)
O=C(COC(=O)C=Cc1cccc([O-])c1)[N-]c1cc(S(=O)(=O)[N-]c2ccccc2F)ccc1Cl (optimized conformer: 60.075785121047346 kcal/mol)

>  <smiles>  (17) 
O=C(COC(=O)C=Cc1cccc(O)c1)Nc1cc(S(=O)(=O)Nc2ccccc2F)ccc1Cl

>  <score_type>  (17) 
oracle

>  <origin>  (17) 
adg

>  <m_score__min__energy>  (17) 
-16.079999999999998

>  <m_primary>  (17) 
energy

$$$$
17:0
     RDKit          3D

 46 49  0  0  0  0  0  0  0  0999 V2000
   60.4033   34.0696   44.9599 H   0  0  0  0  0  0  0  0  0  0  0  0
   60.7560   34.0070   46.0000 C   0  0  0  0  0  0  0  0  0  0  0  0
   61.9820   33.5590   46.2510 O   0  0  0  0  0  0  0  0  0  0  0  0
   62.4660   33.4490   47.4840 C   0  0  0  0  0  0  0  0  0  0  0  0
   63.7670   32.9720   47.6770 C   0  0  0  0  0  0  0  0  0  0  0  0
   64.3837   32.6932   46.8098 H   0  0  0  0  0  0  0  0  0  0  0  0
   64.2850   32.8490   48.9700 C   0  0  0  0  0  0  0  0  0  0  0  0
   65.3089   32.4751   49.1176 H   0  0  0  0  0  0  0  0  0  0  0  0
   63.5050   33.2000   50.0750 C   0  0  0  0  0  0  0  0  0  0  0  0
   63.9165   33.1000   51.0902 H   0  0  0  0  0  0  0  0  0  0  0  0
   62.2030   33.6780   49.8950 C   0  0  0  0  0  0  0  0  0  0  0  0
   61.5926   33.9518   50.7682 H   0  0  0  0  0  0  0  0  0  0  0  0
   61.6730   33.8090   48.5980 C   0  0  0  0  0  0  0  0  0  0  0  0
   60.3710   34.2850   48.3650 C   0  0  0  0  0  0  0  0  0  0  0  0
   59.6230   34.6020   49.3310 O   0  0  0  0  0  0  0  0  0  0  0  0
   59.9060   34.4010   47.0440 C   0  0  0  0  0  0  0  0  0  0  0  0
   58.5050   34.8740   46.7420 C   0  0  0  0  0  0  0  0  0  0  0  0
   58.4825   35.3180   45.7358 H   0  0  0  0  0  0  0  0  0  0  0  0
   58.2133   35.6213   47.4946 H   0  0  0  0  0  0  0  0  0  0  0  0
   57.5600   33.7560   46.7960 N   0  0  0  0  0  0  0  0  0  0  0  0
   56.6230   33.9120   47.2360 H   0  0  0  0  0  0  0  0  0  0  0  0
   57.8510   32.4490   46.2660 C   0  0  0  0  0  0  0  0  0  0  0  0
   57.4210   32.0560   44.9830 C   0  0  0  0  0  0  0  0  0  0  0  0
   56.8490   32.7580   44.3585 H   0  0  0  0  0  0  0  0  0  0  0  0
   57.7180   30.7780   44.5000 C   0  0  0  0  0  0  0  0  0  0  0  0
   57.3818   30.4807   43.4957 H   0  0  0  0  0  0  0  0  0  0  0  0
   58.4410   29.8750   45.2880 C   0  0  0  0  0  0  0  0  0  0  0  0
   58.7970   28.2630   44.6750 S   0  0  0  0  0  0  0  0  0  0  0  0
   60.1900   28.2060   44.1110 O   0  0  0  0  0  0  0  0  0  0  0  0
   57.8160   27.9250   43.5900 O   0  0  0  0  0  0  0  0  0  0  0  0
   58.6580   27.0970   45.9520 N   0  0  0  0  0  0  0  0  0  0  0  0
   57.6090   26.3590   46.1570 C   0  0  0  0  0  0  0  0  0  0  0  0
   57.5150   25.2480   46.9770 C   0  0  0  0  0  0  0  0  0  0  0  0
   58.2984   24.7852   47.5952 H   0  0  0  0  0  0  0  0  0  0  0  0
   56.1950   24.8620   46.8290 C   0  0  0  0  0  0  0  0  0  0  0  0
   55.5450   23.6920   47.4840 C   0  0  0  0  0  0  0  0  0  0  0  0
   55.6064   23.8026   48.5767 H   0  0  0  0  0  0  0  0  0  0  0  0
   54.4892   23.6410   47.1794 H   0  0  0  0  0  0  0  0  0  0  0  0
   56.0595   22.7687   47.1794 H   0  0  0  0  0  0  0  0  0  0  0  0
   55.5930   25.6780   45.9910 O   0  0  0  0  0  0  0  0  0  0  0  0
   56.4200   26.5900   45.5730 N   0  0  0  0  0  0  0  0  0  0  0  0
   56.1820   27.3560   44.9040 H   0  0  0  0  0  0  0  0  0  0  0  0
   58.8770   30.2620   46.5610 C   0  0  0  0  0  0  0  0  0  0  0  0
   59.4523   29.5588   47.1811 H   0  0  0  0  0  0  0  0  0  0  0  0
   58.5830   31.5400   47.0460 C   0  0  0  0  0  0  0  0  0  0  0  0
   58.9284   31.8357   48.0476 H   0  0  0  0  0  0  0  0  0  0  0  0
  1  2  1  0
  2  3  1  0
  3  4  1  0
  4  5  2  0
  5  6  1  0
  5  7  1  0
  7  8  1  0
  7  9  2  0
  9 10  1  0
  9 11  1  0
 11 12  1  0
 11 13  2  0
 13 14  1  0
 14 15  2  0
 14 16  1  0
 16 17  1  0
 17 18  1  0
 17 19  1  0
 17 20  1  0
 20 21  1  0
 20 22  1  0
 22 23  2  0
 23 24  1  0
 23 25  1  0
 25 26  1  0
 25 27  2  0
 27 28  1  0
 28 29  2  0
 28 30  2  0
 28 31  1  0
 31 32  2  0
 32 33  1  0
 33 34  1  0
 33 35  2  0
 35 36  1  0
 36 37  1  0
 36 38  1  0
 36 39  1  0
 35 40  1  0
 40 41  1  0
 41 42  1  0
 27 43  1  0
 43 44  1  0
 43 45  2  0
 45 46  1  0
 16  2  2  0
 45 22  1  0
 13  4  1  0
 41 32  1  0
M  END
>  <UniqueID>  (18) 
15

>  <SMILES>  (18) 
Cc1c/c(=N\S(=O)(=O)c2ccc(NCc3coc4ccccc4c3=O)cc2)[nH]o1

>  <Energy>  (18) 
89.75959900365189

>  <Genealogy>  (18) 
Cc1c/c(=N\S(=O)(=O)c2ccc(NCc3coc4ccccc4c3=O)cc2)[nH]o1 (cis-trans isomerization)
Cc1c/c(=N\S(=O)(=O)c2ccc(NCc3coc4ccccc4c3=O)cc2)[nH]o1 (3D coordinates assigned)
Cc1c/c(=N\S(=O)(=O)c2ccc(NCc3coc4ccccc4c3=O)cc2)[nH]o1 (optimized conformer: 89.75959900365189 kcal/mol)

>  <smiles>  (18) 
Cc1cc(=NS(=O)(=O)c2ccc(NCc3coc4ccccc4c3=O)cc2)[nH]o1

>  <score_type>  (18) 
oracle

>  <origin>  (18) 
adg

>  <m_score__min__energy>  (18) 
-10.17

>  <m_primary>  (18) 
energy

$$$$
18:0
     RDKit          3D

 55 58  0  0  0  0  0  0  0  0999 V2000
   62.6400   34.6540   49.7390 H   0  0  0  0  0  0  0  0  0  0  0  0
   61.6380   34.5320   49.7920 O   0  0  0  0  0  0  0  0  0  0  0  0
   60.8920   33.8410   48.8340 C   0  0  0  0  0  0  0  0  0  0  0  0
   59.5510   33.5690   49.1270 C   0  0  0  0  0  0  0  0  0  0  0  0
   59.1090   33.9512   50.0590 H   0  0  0  0  0  0  0  0  0  0  0  0
   58.7690   32.8180   48.2490 C   0  0  0  0  0  0  0  0  0  0  0  0
   57.7152   32.6148   48.4903 H   0  0  0  0  0  0  0  0  0  0  0  0
   59.3200   32.3230   47.0640 C   0  0  0  0  0  0  0  0  0  0  0  0
   58.5100   31.5560   46.1560 N   0  0  0  0  0  0  0  0  0  0  0  0
   58.0460   31.9950   44.9660 C   0  0  0  0  0  0  0  0  0  0  0  0
   58.2460   33.3780   44.4250 C   0  0  0  0  0  0  0  0  0  0  0  0
   58.3485   34.0870   45.2598 H   0  0  0  0  0  0  0  0  0  0  0  0
   59.1570   33.4026   43.8090 H   0  0  0  0  0  0  0  0  0  0  0  0
   57.3792   33.6597   43.8090 H   0  0  0  0  0  0  0  0  0  0  0  0
   57.3630   30.9880   44.3170 C   0  0  0  0  0  0  0  0  0  0  0  0
   56.8910   31.0500   43.3254 H   0  0  0  0  0  0  0  0  0  0  0  0
   57.3850   29.8830   45.1530 C   0  0  0  0  0  0  0  0  0  0  0  0
   56.7460   28.7350   44.8570 C   0  0  0  0  0  0  0  0  0  0  0  0
   55.9141   28.7902   44.1394 H   0  0  0  0  0  0  0  0  0  0  0  0
   57.0700   27.4140   45.4150 C   0  0  0  0  0  0  0  0  0  0  0  0
   58.3240   26.9450   45.5900 N   0  0  0  0  0  0  0  0  0  0  0  0
   58.1380   25.7640   46.2190 C   0  0  0  0  0  0  0  0  0  0  0  0
   59.0950   25.0320   46.5820 O   0  0  0  0  0  0  0  0  0  0  0  0
   56.8390   25.4680   46.4500 N   0  0  0  0  0  0  0  0  0  0  0  0
   56.2760   24.2990   47.1360 C   0  0  0  0  0  0  0  0  0  0  0  0
   56.9963   23.9520   47.8915 H   0  0  0  0  0  0  0  0  0  0  0  0
   55.3253   24.6061   47.5962 H   0  0  0  0  0  0  0  0  0  0  0  0
   55.9880   23.1850   46.2080 N   0  0  0  0  0  0  0  0  0  0  0  0
   57.1040   22.2370   45.9780 C   0  0  0  0  0  0  0  0  0  0  0  0
   58.0207   22.6680   46.4069 H   0  0  0  0  0  0  0  0  0  0  0  0
   56.8251   21.2871   46.4574 H   0  0  0  0  0  0  0  0  0  0  0  0
   57.3570   21.9360   44.4940 C   0  0  0  0  0  0  0  0  0  0  0  0
   58.3427   21.4608   44.3819 H   0  0  0  0  0  0  0  0  0  0  0  0
   56.5718   21.2600   44.1244 H   0  0  0  0  0  0  0  0  0  0  0  0
   57.3250   23.2270   43.6860 C   0  0  0  0  0  0  0  0  0  0  0  0
   58.1014   23.9066   44.0672 H   0  0  0  0  0  0  0  0  0  0  0  0
   57.5067   22.9778   42.6301 H   0  0  0  0  0  0  0  0  0  0  0  0
   55.9590   23.9220   43.7890 C   0  0  0  0  0  0  0  0  0  0  0  0
   56.1245   25.0091   43.8180 H   0  0  0  0  0  0  0  0  0  0  0  0
   55.3733   23.6080   42.9124 H   0  0  0  0  0  0  0  0  0  0  0  0
   55.1470   23.5200   45.0390 C   0  0  0  0  0  0  0  0  0  0  0  0
   54.4903   24.3592   45.3120 H   0  0  0  0  0  0  0  0  0  0  0  0
   54.5807   22.6137   44.7784 H   0  0  0  0  0  0  0  0  0  0  0  0
   56.1730   26.5350   45.9760 C   0  0  0  0  0  0  0  0  0  0  0  0
   54.7960   26.7110   46.0550 O   0  0  0  0  0  0  0  0  0  0  0  0
   58.1450   30.2550   46.2750 C   0  0  0  0  0  0  0  0  0  0  0  0
   58.5610   29.4610   47.2760 C   0  0  0  0  0  0  0  0  0  0  0  0
   59.1542   29.8816   48.1013 H   0  0  0  0  0  0  0  0  0  0  0  0
   58.3083   28.3904   47.2701 H   0  0  0  0  0  0  0  0  0  0  0  0
   60.6550   32.6130   46.7460 C   0  0  0  0  0  0  0  0  0  0  0  0
   61.0855   32.2315   45.8084 H   0  0  0  0  0  0  0  0  0  0  0  0
   61.4500   33.3860   47.6120 C   0  0  0  0  0  0  0  0  0  0  0  0
   62.8290   33.7170   47.1880 C   0  0  0  0  0  0  0  0  0  0  0  0
   63.1210   33.8290   45.9690 O   0  0  0  0  0  0  0  0  0  0  0  0
   63.8370   33.8410   48.1360 O   0  0  0  0  0  0  0  0  0  0  0  0
  1  2  1  0
  2  3  1  0
  3  4  2  0
  4  5  1  0
  4  6  1  0
  6  7  1  0
  6  8  2  0
  8  9  1  0
  9 10  1  0
 10 11  1  0
 11 12  1  0
 11 13  1  0
 11 14  1  0
 10 15  2  0
 15 16  1  0
 15 17  1  0
 17 18  2  0
 18 19  1  0
 18 20  1  0
 20 21  1  0
 21 22  1  0
 22 23  2  0
 22 24  1  0
 24 25  1  0
 25 26  1  0
 25 27  1  0
 25 28  1  0
 28 29  1  0
 29 30  1  0
 29 31  1  0
 29 32  1  0
 32 33  1  0
 32 34  1  0
 32 35  1  0
 35 36  1  0
 35 37  1  0
 35 38  1  0
 38 39  1  0
 38 40  1  0
 38 41  1  0
 41 42  1  0
 41 43  1  0
 24 44  1  0
 44 45  1  0
 17 46  1  0
 46 47  2  0
 47 48  1  0
 47 49  1  0
  8 50  1  0
 50 51  1  0
 50 52  2  0
 52 53  1  0
 53 54  2  0
 53 55  1  0
 52  3  1  0
 46  9  1  0
 44 20  2  0
 41 28  1  0
M  CHG  3  21  -1  45  -1  55  -1
M  END
>  <UniqueID>  (19) 
16

>  <SMILES>  (19) 
C=c1/c(=C\c2[n-]c(=O)n(CN3CCCCC3)c2[O-])cc(C)n1-c1ccc(O)c(C(=O)[O-])c1

>  <Energy>  (19) 
151.82741114390376

>  <Genealogy>  (19) 
C=c1c(=Cc2[n-]c(=O)n(CN3CCCCC3)c2[O-])cc(C)n1-c1ccc(O)c(C(=O)[O-])c1 (protonated)
C=c1/c(=C\c2[n-]c(=O)n(CN3CCCCC3)c2[O-])cc(C)n1-c1ccc(O)c(C(=O)[O-])c1 (cis-trans isomerization)
C=c1/c(=C\c2[n-]c(=O)n(CN3CCCCC3)c2[O-])cc(C)n1-c1ccc(O)c(C(=O)[O-])c1 (3D coordinates assigned)
C=c1/c(=C\c2[n-]c(=O)n(CN3CCCCC3)c2[O-])cc(C)n1-c1ccc(O)c(C(=O)[O-])c1 (nonaromatic ring conformer: 151.82741114390376 kcal/mol)

>  <smiles>  (19) 
C=c1c(=Cc2[nH]c(=O)n(CN3CCCCC3)c2O)cc(C)n1-c1ccc(O)c(C(=O)O)c1

>  <score_type>  (19) 
oracle

>  <origin>  (19) 
adg

>  <m_score__min__energy>  (19) 
-14.67

>  <m_primary>  (19) 
energy

$$$$
19:0
     RDKit          3D

 42 43  0  0  1  0  0  0  0  0999 V2000
   54.8860   29.9960   44.1180 O   0  0  0  0  0  0  0  0  0  0  0  0
   55.9500   29.4230   44.4020 C   0  0  0  0  0  0  0  0  0  0  0  0
   55.9250   28.2980   45.2380 O   0  0  0  0  0  0  0  0  0  0  0  0
   57.2670   29.8550   43.9080 C   0  0  0  0  0  0  0  0  0  0  0  0
   57.7920   31.0340   44.6020 C   0  0  0  0  0  0  0  0  0  0  0  0
   57.7900   32.2490   43.9140 C   0  0  0  0  0  0  0  0  0  0  0  0
   58.2660   33.4120   44.4950 C   0  0  0  0  0  0  0  0  0  0  0  0
   58.7470   33.3550   45.7710 C   0  0  0  0  0  0  0  0  0  0  0  0
   58.7580   32.1580   46.4710 C   0  0  0  0  0  0  0  0  0  0  0  0
   58.2810   30.9740   45.9030 C   0  0  0  0  0  0  0  0  0  0  0  0
   58.3420   29.7650   46.6440 N   0  0  0  0  0  0  0  0  0  0  0  0
   59.0220   28.6030   46.2640 C   0  0  0  0  0  0  0  0  0  0  0  0
   59.6600   28.4910   45.1890 O   0  0  0  0  0  0  0  0  0  0  0  0
   59.0160   27.4600   47.1190 N   0  0  0  0  0  0  0  0  0  0  0  0
   59.6680   26.2190   46.8210 C   0  0  0  0  0  0  0  0  0  0  0  0
   58.8540   25.2630   46.0380 C   0  0  0  0  0  0  0  0  0  0  0  0
   59.2610   24.0170   45.6390 C   0  0  0  0  0  0  0  0  0  0  0  0
   58.4620   23.1660   44.9040 C   0  0  0  0  0  0  0  0  0  0  0  0
   57.1890   23.5440   44.5360 C   0  0  0  0  0  0  0  0  0  0  0  0
   56.4070   22.5990   43.7680 C   0  0  0  0  0  0  0  0  0  0  0  0
   55.7340   23.0480   42.6110 O   0  0  0  0  0  0  0  0  0  0  0  0
   56.2530   21.3550   44.0300 N   0  0  0  0  0  0  0  0  0  0  0  0
   56.2730   20.3640   43.1200 O   0  0  0  0  0  0  0  0  0  0  0  0
   56.7720   24.7890   44.9310 C   0  0  0  0  0  0  0  0  0  0  0  0
   57.5830   25.6550   45.6760 C   0  0  0  0  0  0  0  0  0  0  0  0
   56.2950   27.4250   44.8600 H   0  0  0  0  0  0  0  0  0  0  0  0
   57.9782   29.0265   44.0416 H   0  0  0  0  0  0  0  0  0  0  0  0
   57.1423   30.1302   42.8503 H   0  0  0  0  0  0  0  0  0  0  0  0
   57.4009   32.2830   42.8857 H   0  0  0  0  0  0  0  0  0  0  0  0
   58.2567   34.3617   43.9401 H   0  0  0  0  0  0  0  0  0  0  0  0
   59.1301   34.2685   46.2493 H   0  0  0  0  0  0  0  0  0  0  0  0
   59.1517   32.1402   47.4980 H   0  0  0  0  0  0  0  0  0  0  0  0
   57.8110   29.7820   47.5680 H   0  0  0  0  0  0  0  0  0  0  0  0
   58.4810   27.5600   48.0330 H   0  0  0  0  0  0  0  0  0  0  0  0
   60.5806   26.4407   46.2483 H   0  0  0  0  0  0  0  0  0  0  0  0
   59.8695   25.7349   47.7880 H   0  0  0  0  0  0  0  0  0  0  0  0
   60.2705   23.6801   45.9174 H   0  0  0  0  0  0  0  0  0  0  0  0
   58.8442   22.1775   44.6092 H   0  0  0  0  0  0  0  0  0  0  0  0
   55.9840   22.7020   41.6990 H   0  0  0  0  0  0  0  0  0  0  0  0
   56.9400   19.6080   43.1500 H   0  0  0  0  0  0  0  0  0  0  0  0
   55.7610   25.1209   44.6520 H   0  0  0  0  0  0  0  0  0  0  0  0
   57.2064   26.6454   45.9714 H   0  0  0  0  0  0  0  0  0  0  0  0
  1  2  2  0
  2  3  1  0
  2  4  1  0
  4  5  1  0
  5  6  2  0
  6  7  1  0
  7  8  2  0
  8  9  1  0
  9 10  2  0
 10 11  1  0
 11 12  1  0
 12 13  2  0
 12 14  1  0
 14 15  1  0
 15 16  1  0
 16 17  2  0
 17 18  1  0
 18 19  2  0
 19 20  1  0
 20 21  1  0
 20 22  2  0
 22 23  1  0
 19 24  1  0
 24 25  2  0
 10  5  1  0
 25 16  1  0
  3 26  1  0
  4 27  1  0
  4 28  1  0
  6 29  1  0
  7 30  1  0
  8 31  1  0
  9 32  1  0
 11 33  1  0
 14 34  1  0
 15 35  1  0
 15 36  1  0
 17 37  1  0
 18 38  1  0
 21 39  1  0
 23 40  1  0
 24 41  1  0
 25 42  1  0
M  END
>  <smiles>  (20) 
O=C(O)Cc1ccccc1NC(=O)NCc1ccc(C(O)=NO)cc1

>  <score_type>  (20) 
oracle

>  <origin>  (20) 
adg

>  <m_score__min__energy>  (20) 
-8.7799999999999994

>  <m_primary>  (20) 
energy

$$$$
20:0
     RDKit          3D

 41 42  0  0  0  0  0  0  0  0999 V2000
   59.6490   34.0970   48.7260 O   0  0  0  0  0  0  0  0  0  0  0  0
   59.2510   33.5510   47.6620 C   0  0  0  0  0  0  0  0  0  0  0  0
   59.2880   32.0590   47.5420 C   0  0  0  0  0  0  0  0  0  0  0  0
   60.5870   31.5830   46.8780 C   0  0  0  0  0  0  0  0  0  0  0  0
   61.8070   32.0330   47.6440 C   0  0  0  0  0  0  0  0  0  0  0  0
   62.6070   33.0780   47.1520 C   0  0  0  0  0  0  0  0  0  0  0  0
   63.7680   33.4560   47.8320 C   0  0  0  0  0  0  0  0  0  0  0  0
   64.1480   32.7880   49.0000 C   0  0  0  0  0  0  0  0  0  0  0  0
   65.3100   33.1720   49.6600 O   0  0  0  0  0  0  0  0  0  0  0  0
   63.3590   31.7370   49.4960 C   0  0  0  0  0  0  0  0  0  0  0  0
   63.7180   31.0510   50.6560 O   0  0  0  0  0  0  0  0  0  0  0  0
   62.1930   31.3640   48.8170 C   0  0  0  0  0  0  0  0  0  0  0  0
   58.6920   34.3380   46.6060 N   0  0  0  0  0  0  0  0  0  0  0  0
   57.3650   34.1010   46.0490 C   0  0  0  0  0  0  0  0  0  0  0  0
   57.4540   33.3130   44.7370 C   0  0  0  0  0  0  0  0  0  0  0  0
   56.9030   31.9700   44.9020 N   0  0  0  0  0  0  0  0  0  0  0  0
   57.2270   30.8350   44.0840 C   0  0  0  0  0  0  0  0  0  0  0  0
   57.4750   31.0160   42.8640 O   0  0  0  0  0  0  0  0  0  0  0  0
   57.3160   29.4710   44.6400 C   0  0  0  0  0  0  0  0  0  0  0  0
   58.5730   28.8590   44.7640 C   0  0  0  0  0  0  0  0  0  0  0  0
   58.6840   27.5820   45.3190 C   0  0  0  0  0  0  0  0  0  0  0  0
   57.5400   26.9000   45.7410 C   0  0  0  0  0  0  0  0  0  0  0  0
   56.2800   27.4870   45.5920 C   0  0  0  0  0  0  0  0  0  0  0  0
   55.1440   26.7940   45.9970 O   0  0  0  0  0  0  0  0  0  0  0  0
   56.1620   28.7670   45.0320 C   0  0  0  0  0  0  0  0  0  0  0  0
   54.8990   29.3260   44.8570 O   0  0  0  0  0  0  0  0  0  0  0  0
   59.2169   31.6172   48.5469 H   0  0  0  0  0  0  0  0  0  0  0  0
   58.4419   31.7409   46.9151 H   0  0  0  0  0  0  0  0  0  0  0  0
   60.5811   30.4840   46.8320 H   0  0  0  0  0  0  0  0  0  0  0  0
   60.6358   32.0213   45.8703 H   0  0  0  0  0  0  0  0  0  0  0  0
   62.3184   33.6006   46.2281 H   0  0  0  0  0  0  0  0  0  0  0  0
   64.3847   34.2816   47.4471 H   0  0  0  0  0  0  0  0  0  0  0  0
   64.5340   31.3040   51.1990 H   0  0  0  0  0  0  0  0  0  0  0  0
   61.5747   30.5411   49.2050 H   0  0  0  0  0  0  0  0  0  0  0  0
   56.7677   33.5278   46.7733 H   0  0  0  0  0  0  0  0  0  0  0  0
   56.8919   35.0726   45.8435 H   0  0  0  0  0  0  0  0  0  0  0  0
   56.8859   33.8431   43.9583 H   0  0  0  0  0  0  0  0  0  0  0  0
   58.5117   33.2278   44.4470 H   0  0  0  0  0  0  0  0  0  0  0  0
   59.4752   29.3876   44.4224 H   0  0  0  0  0  0  0  0  0  0  0  0
   59.6733   27.1127   45.4239 H   0  0  0  0  0  0  0  0  0  0  0  0
   57.6308   25.9003   46.1909 H   0  0  0  0  0  0  0  0  0  0  0  0
  1  2  2  0
  2  3  1  0
  3  4  1  0
  4  5  1  0
  5  6  2  0
  6  7  1  0
  7  8  2  0
  8  9  1  0
  8 10  1  0
 10 11  1  0
 10 12  2  0
  2 13  1  0
 13 14  1  0
 14 15  1  0
 15 16  1  0
 16 17  1  0
 17 18  2  0
 17 19  1  0
 19 20  2  0
 20 21  1  0
 21 22  2  0
 22 23  1  0
 23 24  1  0
 23 25  2  0
 25 26  1  0
 12  5  1  0
 25 19  1  0
  3 27  1  0
  3 28  1  0
  4 29  1  0
  4 30  1  0
  6 31  1  0
  7 32  1  0
 11 33  1  0
 12 34  1  0
 14 35  1  0
 14 36  1  0
 15 37  1  0
 15 38  1  0
 20 39  1  0
 21 40  1  0
 22 41  1  0
M  CHG  5   9  -1  13  -1  16  -1  24  -1  26  -1
M  END
>  <UniqueID>  (21) 
17

>  <SMILES>  (21) 
O=C(CCc1ccc([O-])c(O)c1)[N-]CC[N-]C(=O)c1cccc([O-])c1[O-]

>  <Energy>  (21) 
37.02004455543168

>  <Genealogy>  (21) 
O=C(CCc1ccc([O-])c(O)c1)[N-]CC[N-]C(=O)c1cccc([O-])c1[O-] (protonated)
O=C(CCc1ccc([O-])c(O)c1)[N-]CC[N-]C(=O)c1cccc([O-])c1[O-] (3D coordinates assigned)
O=C(CCc1ccc([O-])c(O)c1)[N-]CC[N-]C(=O)c1cccc([O-])c1[O-] (optimized conformer: 37.02004455543168 kcal/mol)

>  <smiles>  (21) 
O=C(CCc1ccc(O)c(O)c1)NCCNC(=O)c1cccc(O)c1O

>  <score_type>  (21) 
oracle

>  <origin>  (21) 
adg

>  <m_score__min__energy>  (21) 
-18.469999999999999

>  <m_primary>  (21) 
energy

$$$$
21:0
     RDKit          3D

 25 26  0  0  0  0  0  0  0  0999 V2000
   59.6270   35.8470   46.7300 O   0  0  0  0  0  0  0  0  0  0  0  0
   59.2350   34.7180   47.0920 N   0  0  0  0  0  0  0  0  0  0  0  0
   59.2730   34.4010   48.4300 O   0  0  0  0  0  0  0  0  0  0  0  0
   58.7510   33.7660   46.1290 C   0  0  0  0  0  0  0  0  0  0  0  0
   58.9050   33.9900   44.7490 C   0  0  0  0  0  0  0  0  0  0  0  0
   58.4300   33.0550   43.8290 C   0  0  0  0  0  0  0  0  0  0  0  0
   57.7980   31.8980   44.2920 C   0  0  0  0  0  0  0  0  0  0  0  0
   57.1710   30.6850   43.1350 S   0  0  0  0  0  0  0  0  0  0  0  0
   57.6050   29.3070   44.2040 C   0  0  0  0  0  0  0  0  0  0  0  0
   58.9100   28.7960   44.1470 C   0  0  0  0  0  0  0  0  0  0  0  0
   59.2840   27.7220   44.9580 C   0  0  0  0  0  0  0  0  0  0  0  0
   58.3570   27.1530   45.8340 C   0  0  0  0  0  0  0  0  0  0  0  0
   57.0560   27.6580   45.9020 C   0  0  0  0  0  0  0  0  0  0  0  0
   56.6710   28.7350   45.0940 C   0  0  0  0  0  0  0  0  0  0  0  0
   55.3620   29.2100   45.1960 O   0  0  0  0  0  0  0  0  0  0  0  0
   57.6580   31.6900   45.6280 N   0  0  0  0  0  0  0  0  0  0  0  0
   58.1130   32.5850   46.5460 C   0  0  0  0  0  0  0  0  0  0  0  0
   59.4015   34.9052   44.3941 H   0  0  0  0  0  0  0  0  0  0  0  0
   58.5518   33.2270   42.7494 H   0  0  0  0  0  0  0  0  0  0  0  0
   59.6430   29.2436   43.4597 H   0  0  0  0  0  0  0  0  0  0  0  0
   60.3084   27.3245   44.9067 H   0  0  0  0  0  0  0  0  0  0  0  0
   58.6515   26.3061   46.4713 H   0  0  0  0  0  0  0  0  0  0  0  0
   56.3299   27.2069   46.5943 H   0  0  0  0  0  0  0  0  0  0  0  0
   55.1320   30.0990   45.6230 H   0  0  0  0  0  0  0  0  0  0  0  0
   57.9810   32.3835   47.6193 H   0  0  0  0  0  0  0  0  0  0  0  0
  1  2  2  0
  2  3  1  0
  2  4  1  0
  4  5  2  0
  5  6  1  0
  6  7  2  0
  7  8  1  0
  8  9  1  0
  9 10  2  0
 10 11  1  0
 11 12  2  0
 12 13  1  0
 13 14  2  0
 14 15  1  0
  7 16  1  0
 16 17  2  0
 17  4  1  0
 14  9  1  0
  5 18  1  0
  6 19  1  0
 10 20  1  0
 11 21  1  0
 12 22  1  0
 13 23  1  0
 15 24  1  0
 17 25  1  0
M  CHG  2   2   1   3  -1
M  END
>  <UniqueID>  (22) 
18

>  <SMILES>  (22) 
O=[N+]([O-])c1ccc(Sc2ccccc2O)nc1

>  <Energy>  (22) 
24.09891503857919

>  <Genealogy>  (22) 
O=[N+]([O-])c1ccc(Sc2ccccc2O)nc1 (3D coordinates assigned)
O=[N+]([O-])c1ccc(Sc2ccccc2O)nc1 (optimized conformer: 24.09891503857919 kcal/mol)

>  <smiles>  (22) 
O=[N+]([O-])c1ccc(Sc2ccccc2O)nc1

>  <score_type>  (22) 
oracle

>  <origin>  (22) 
adg

>  <m_score__min__energy>  (22) 
-7.7400000000000002

>  <m_primary>  (22) 
energy

$$$$
22:0
     RDKit          3D

 39 41  0  0  0  0  0  0  0  0999 V2000
   60.7620   25.4800   46.0530 O   0  0  0  0  0  0  0  0  0  0  0  0
   59.5040   25.4390   46.0030 C   0  0  0  0  0  0  0  0  0  0  0  0
   58.8470   24.1790   46.1950 N   0  0  0  0  0  0  0  0  0  0  0  0
   57.4020   23.9890   46.2190 C   0  0  0  0  0  0  0  0  0  0  0  0
   56.9800   23.2450   44.9860 C   0  0  0  0  0  0  0  0  0  0  0  0
   55.9770   23.7610   44.1540 C   0  0  0  0  0  0  0  0  0  0  0  0
   55.6220   23.0710   42.9920 C   0  0  0  0  0  0  0  0  0  0  0  0
   56.2570   21.9120   42.6670 N   0  0  0  0  0  0  0  0  0  0  0  0
   57.2420   21.3960   43.4480 C   0  0  0  0  0  0  0  0  0  0  0  0
   57.6270   22.0550   44.6180 C   0  0  0  0  0  0  0  0  0  0  0  0
   58.7580   26.6790   45.7100 C   0  0  0  0  0  0  0  0  0  0  0  0
   58.3120   26.9330   44.4050 C   0  0  0  0  0  0  0  0  0  0  0  0
   57.6160   28.1100   44.1130 C   0  0  0  0  0  0  0  0  0  0  0  0
   57.3870   29.0650   45.1190 C   0  0  0  0  0  0  0  0  0  0  0  0
   56.6580   30.2720   44.8580 N   0  0  0  0  0  0  0  0  0  0  0  0
   57.1800   31.4600   44.2460 C   0  0  0  0  0  0  0  0  0  0  0  0
   57.0500   31.6050   43.0020 O   0  0  0  0  0  0  0  0  0  0  0  0
   57.7950   32.5410   45.0470 C   0  0  0  0  0  0  0  0  0  0  0  0
   58.4930   33.5920   44.4280 C   0  0  0  0  0  0  0  0  0  0  0  0
   59.0520   34.6020   45.2130 C   0  0  0  0  0  0  0  0  0  0  0  0
   58.9080   34.5660   46.6000 C   0  0  0  0  0  0  0  0  0  0  0  0
   58.2020   33.5130   47.1840 C   0  0  0  0  0  0  0  0  0  0  0  0
   57.6640   32.5380   46.4040 N   0  0  0  0  0  0  0  0  0  0  0  0
   57.8300   28.8090   46.4210 C   0  0  0  0  0  0  0  0  0  0  0  0
   58.5240   27.6310   46.7140 C   0  0  0  0  0  0  0  0  0  0  0  0
   57.1221   23.4101   47.1115 H   0  0  0  0  0  0  0  0  0  0  0  0
   56.9016   24.9682   46.2484 H   0  0  0  0  0  0  0  0  0  0  0  0
   55.4725   24.7032   44.4142 H   0  0  0  0  0  0  0  0  0  0  0  0
   54.8288   23.4648   42.3395 H   0  0  0  0  0  0  0  0  0  0  0  0
   57.7372   20.4575   43.1583 H   0  0  0  0  0  0  0  0  0  0  0  0
   58.4312   21.6444   45.2462 H   0  0  0  0  0  0  0  0  0  0  0  0
   58.5107   26.2025   43.6069 H   0  0  0  0  0  0  0  0  0  0  0  0
   57.2463   28.2894   43.0926 H   0  0  0  0  0  0  0  0  0  0  0  0
   58.5981   33.6186   43.3334 H   0  0  0  0  0  0  0  0  0  0  0  0
   59.6055   35.4255   44.7382 H   0  0  0  0  0  0  0  0  0  0  0  0
   59.3455   35.3578   47.2259 H   0  0  0  0  0  0  0  0  0  0  0  0
   58.0808   33.4720   48.2765 H   0  0  0  0  0  0  0  0  0  0  0  0
   57.6311   29.5391   47.2194 H   0  0  0  0  0  0  0  0  0  0  0  0
   58.8881   27.4498   47.7360 H   0  0  0  0  0  0  0  0  0  0  0  0
  1  2  2  0
  2  3  1  0
  3  4  1  0
  4  5  1  0
  5  6  2  0
  6  7  1  0
  7  8  2  0
  8  9  1  0
  9 10  2  0
  2 11  1  0
 11 12  2  0
 12 13  1  0
 13 14  2  0
 14 15  1  0
 15 16  1  0
 16 17  2  0
 16 18  1  0
 18 19  2  0
 19 20  1  0
 20 21  2  0
 21 22  1  0
 22 23  2  0
 14 24  1  0
 24 25  2  0
 10  5  1  0
 25 11  1  0
 23 18  1  0
  4 26  1  0
  4 27  1  0
  6 28  1  0
  7 29  1  0
  9 30  1  0
 10 31  1  0
 12 32  1  0
 13 33  1  0
 19 34  1  0
 20 35  1  0
 21 36  1  0
 22 37  1  0
 24 38  1  0
 25 39  1  0
M  CHG  2   3  -1  15  -1
M  END
>  <UniqueID>  (23) 
19

>  <SMILES>  (23) 
O=C([N-]Cc1ccncc1)c1ccc([N-]C(=O)c2ccccn2)cc1

>  <Energy>  (23) 
52.527674105466815

>  <Genealogy>  (23) 
O=C([N-]Cc1ccncc1)c1ccc([N-]C(=O)c2ccccn2)cc1 (protonated)
O=C([N-]Cc1ccncc1)c1ccc([N-]C(=O)c2ccccn2)cc1 (3D coordinates assigned)
O=C([N-]Cc1ccncc1)c1ccc([N-]C(=O)c2ccccn2)cc1 (optimized conformer: 52.527674105466815 kcal/mol)

>  <smiles>  (23) 
O=C(NCc1ccncc1)c1ccc(NC(=O)c2ccccn2)cc1

>  <score_type>  (23) 
oracle

>  <origin>  (23) 
adg

>  <m_score__min__energy>  (23) 
-11.15

>  <m_primary>  (23) 
energy

$$$$
23:0
     RDKit          3D

 31 32  0  0  0  0  0  0  0  0999 V2000
   59.6300   32.4610   46.3830 C   0  0  0  0  0  0  0  0  0  0  0  0
   58.5500   33.2730   45.2260 S   0  0  0  0  0  0  0  0  0  0  0  0
   59.3610   34.1510   44.3140 O   0  0  0  0  0  0  0  0  0  0  0  0
   57.5660   34.1290   45.9710 O   0  0  0  0  0  0  0  0  0  0  0  0
   57.6910   32.0610   44.2810 C   0  0  0  0  0  0  0  0  0  0  0  0
   57.6980   32.1220   42.8810 C   0  0  0  0  0  0  0  0  0  0  0  0
   57.0210   31.1570   42.1340 C   0  0  0  0  0  0  0  0  0  0  0  0
   56.3450   30.1170   42.7770 C   0  0  0  0  0  0  0  0  0  0  0  0
   56.3580   30.0280   44.1810 C   0  0  0  0  0  0  0  0  0  0  0  0
   55.6690   28.9790   44.8760 N   0  0  0  0  0  0  0  0  0  0  0  0
   56.2760   27.8520   45.5230 C   0  0  0  0  0  0  0  0  0  0  0  0
   55.5370   26.9070   45.9060 O   0  0  0  0  0  0  0  0  0  0  0  0
   57.7320   27.7950   45.8000 C   0  0  0  0  0  0  0  0  0  0  0  0
   58.6700   28.0740   44.7900 C   0  0  0  0  0  0  0  0  0  0  0  0
   60.0400   28.0190   45.0640 C   0  0  0  0  0  0  0  0  0  0  0  0
   60.4860   27.7000   46.3480 C   0  0  0  0  0  0  0  0  0  0  0  0
   59.5630   27.4380   47.3630 C   0  0  0  0  0  0  0  0  0  0  0  0
   58.1920   27.4900   47.0940 C   0  0  0  0  0  0  0  0  0  0  0  0
   57.0180   31.0130   44.9260 C   0  0  0  0  0  0  0  0  0  0  0  0
   59.3135   32.6990   47.4092 H   0  0  0  0  0  0  0  0  0  0  0  0
   59.5825   31.3731   46.2276 H   0  0  0  0  0  0  0  0  0  0  0  0
   60.6619   32.8088   46.2276 H   0  0  0  0  0  0  0  0  0  0  0  0
   58.2383   32.9323   42.3697 H   0  0  0  0  0  0  0  0  0  0  0  0
   57.0196   31.2154   41.0355 H   0  0  0  0  0  0  0  0  0  0  0  0
   55.8016   29.3663   42.1844 H   0  0  0  0  0  0  0  0  0  0  0  0
   58.3241   28.3368   43.7794 H   0  0  0  0  0  0  0  0  0  0  0  0
   60.7680   28.2275   44.2662 H   0  0  0  0  0  0  0  0  0  0  0  0
   61.5644   27.6550   46.5603 H   0  0  0  0  0  0  0  0  0  0  0  0
   59.9152   27.1904   48.3753 H   0  0  0  0  0  0  0  0  0  0  0  0
   57.4689   27.2913   47.8988 H   0  0  0  0  0  0  0  0  0  0  0  0
   57.0086   30.9645   46.0249 H   0  0  0  0  0  0  0  0  0  0  0  0
  1  2  1  0
  2  3  2  0
  2  4  2  0
  2  5  1  0
  5  6  2  0
  6  7  1  0
  7  8  2  0
  8  9  1  0
  9 10  1  0
 10 11  1  0
 11 12  2  0
 11 13  1  0
 13 14  2  0
 14 15  1  0
 15 16  2  0
 16 17  1  0
 17 18  2  0
  9 19  2  0
 19  5  1  0
 18 13  1  0
  1 20  1  0
  1 21  1  0
  1 22  1  0
  6 23  1  0
  7 24  1  0
  8 25  1  0
 14 26  1  0
 15 27  1  0
 16 28  1  0
 17 29  1  0
 18 30  1  0
 19 31  1  0
M  CHG  1  10  -1
M  END
>  <UniqueID>  (24) 
20

>  <SMILES>  (24) 
CS(=O)(=O)c1cccc([N-]C(=O)c2ccccc2)c1

>  <Energy>  (24) 
35.71677181672227

>  <Genealogy>  (24) 
CS(=O)(=O)c1cccc([N-]C(=O)c2ccccc2)c1 (protonated)
CS(=O)(=O)c1cccc([N-]C(=O)c2ccccc2)c1 (3D coordinates assigned)
CS(=O)(=O)c1cccc([N-]C(=O)c2ccccc2)c1 (optimized conformer: 35.71677181672227 kcal/mol)

>  <smiles>  (24) 
CS(=O)(=O)c1cccc(NC(=O)c2ccccc2)c1

>  <score_type>  (24) 
oracle

>  <origin>  (24) 
adg

>  <m_score__min__energy>  (24) 
-9.3499999999999996

>  <m_primary>  (24) 
energy

$$$$
24:0
     RDKit          3D

 28 29  0  0  0  0  0  0  0  0999 V2000
   57.0050   24.6450   46.2890 C   0  0  0  0  0  0  0  0  0  0  0  0
   57.6260   25.8900   45.7790 N   0  0  0  0  0  0  0  0  0  0  0  0
   56.7890   26.9500   45.6180 C   0  0  0  0  0  0  0  0  0  0  0  0
   55.5190   26.4730   46.0140 O   0  0  0  0  0  0  0  0  0  0  0  0
   56.5960   28.2450   45.2620 C   0  0  0  0  0  0  0  0  0  0  0  0
   58.0400   28.6860   46.0210 C   0  0  0  0  0  0  0  0  0  0  0  0
   58.4580   29.8860   46.0380 N   0  0  0  0  0  0  0  0  0  0  0  0
   57.9490   31.0060   45.5310 C   0  0  0  0  0  0  0  0  0  0  0  0
   58.4530   32.3250   45.5620 C   0  0  0  0  0  0  0  0  0  0  0  0
   57.8300   33.2940   44.8080 C   0  0  0  0  0  0  0  0  0  0  0  0
   58.3270   34.5690   44.8980 C   0  0  0  0  0  0  0  0  0  0  0  0
   59.3960   34.8300   45.7120 C   0  0  0  0  0  0  0  0  0  0  0  0
   60.0200   33.8760   46.4620 C   0  0  0  0  0  0  0  0  0  0  0  0
   59.5390   32.5940   46.3870 C   0  0  0  0  0  0  0  0  0  0  0  0
   56.7550   30.7150   44.8910 N   0  0  0  0  0  0  0  0  0  0  0  0
   56.4110   29.4870   44.9220 C   0  0  0  0  0  0  0  0  0  0  0  0
   55.1930   29.3510   44.2360 O   0  0  0  0  0  0  0  0  0  0  0  0
   57.0107   24.6563   47.3889 H   0  0  0  0  0  0  0  0  0  0  0  0
   55.9680   24.5781   45.9283 H   0  0  0  0  0  0  0  0  0  0  0  0
   57.5754   23.7763   45.9283 H   0  0  0  0  0  0  0  0  0  0  0  0
   58.6240   25.9580   45.5600 H   0  0  0  0  0  0  0  0  0  0  0  0
   58.6385   27.9079   46.5173 H   0  0  0  0  0  0  0  0  0  0  0  0
   59.4100   30.0700   46.5620 H   0  0  0  0  0  0  0  0  0  0  0  0
   56.9719   33.0561   44.1622 H   0  0  0  0  0  0  0  0  0  0  0  0
   57.8668   35.3814   44.3164 H   0  0  0  0  0  0  0  0  0  0  0  0
   59.7716   35.8626   45.7643 H   0  0  0  0  0  0  0  0  0  0  0  0
   60.8778   34.1262   47.1035 H   0  0  0  0  0  0  0  0  0  0  0  0
   60.0067   31.7886   46.9723 H   0  0  0  0  0  0  0  0  0  0  0  0
  1  2  1  0
  2  3  1  0
  3  4  2  0
  3  5  1  0
  5  6  2  0
  6  7  1  0
  7  8  1  0
  8  9  1  0
  9 10  2  0
 10 11  1  0
 11 12  2  0
 12 13  1  0
 13 14  2  0
  8 15  2  0
 15 16  1  0
 16 17  2  0
 16  5  1  0
 14  9  1  0
  1 18  1  0
  1 19  1  0
  1 20  1  0
  2 21  1  0
  6 22  1  0
  7 23  1  0
 10 24  1  0
 11 25  1  0
 12 26  1  0
 13 27  1  0
 14 28  1  0
M  END
>  <smiles>  (25) 
CNC(=O)c1c[nH]c(-c2ccccc2)nc1=O

>  <score_type>  (25) 
oracle

>  <origin>  (25) 
adg

>  <m_score__min__energy>  (25) 
-6.8200000000000003

>  <m_primary>  (25) 
energy

$$$$
25:0
     RDKit          3D

 44 46  0  0  0  0  0  0  0  0999 V2000
   57.3350   30.8840   45.4920 O   0  0  0  0  0  0  0  0  0  0  0  0
   58.5270   31.1970   45.7570 C   0  0  0  0  0  0  0  0  0  0  0  0
   59.4960   30.1660   46.0280 N   0  0  0  0  0  0  0  0  0  0  0  0
   59.2230   28.7590   45.9120 C   0  0  0  0  0  0  0  0  0  0  0  0
   58.5760   28.2280   44.7830 C   0  0  0  0  0  0  0  0  0  0  0  0
   58.3450   26.8530   44.6830 C   0  0  0  0  0  0  0  0  0  0  0  0
   58.7800   25.9830   45.6950 C   0  0  0  0  0  0  0  0  0  0  0  0
   58.5310   24.4920   45.5790 C   0  0  0  0  0  0  0  0  0  0  0  0
   57.1030   24.1330   45.4100 N   0  0  0  0  0  0  0  0  0  0  0  0
   56.6860   24.0970   43.9870 C   0  0  0  0  0  0  0  0  0  0  0  0
   55.2120   23.6770   43.7820 C   0  0  0  0  0  0  0  0  0  0  0  0
   54.2640   23.7610   45.2890 S   0  0  0  0  0  0  0  0  0  0  0  0
   52.9740   23.0060   45.1280 O   0  0  0  0  0  0  0  0  0  0  0  0
   53.9680   25.1960   45.6190 O   0  0  0  0  0  0  0  0  0  0  0  0
   55.2450   23.0290   46.5870 C   0  0  0  0  0  0  0  0  0  0  0  0
   56.7100   22.9210   46.1550 C   0  0  0  0  0  0  0  0  0  0  0  0
   59.4350   26.5140   46.8180 C   0  0  0  0  0  0  0  0  0  0  0  0
   59.6650   27.8890   46.9180 C   0  0  0  0  0  0  0  0  0  0  0  0
   58.9000   32.6320   45.7900 C   0  0  0  0  0  0  0  0  0  0  0  0
   58.4030   33.5430   44.8370 C   0  0  0  0  0  0  0  0  0  0  0  0
   58.7740   34.8910   44.8860 C   0  0  0  0  0  0  0  0  0  0  0  0
   59.6470   35.3430   45.8780 C   0  0  0  0  0  0  0  0  0  0  0  0
   60.0060   36.6500   45.9220 F   0  0  0  0  0  0  0  0  0  0  0  0
   60.1580   34.4470   46.8200 C   0  0  0  0  0  0  0  0  0  0  0  0
   59.7910   33.0980   46.7740 C   0  0  0  0  0  0  0  0  0  0  0  0
   60.4420   30.4330   46.3770 H   0  0  0  0  0  0  0  0  0  0  0  0
   58.2497   28.8979   43.9738 H   0  0  0  0  0  0  0  0  0  0  0  0
   57.8187   26.4500   43.8052 H   0  0  0  0  0  0  0  0  0  0  0  0
   59.0883   24.1144   44.7091 H   0  0  0  0  0  0  0  0  0  0  0  0
   58.8647   24.0381   46.5238 H   0  0  0  0  0  0  0  0  0  0  0  0
   56.8238   25.1010   43.5592 H   0  0  0  0  0  0  0  0  0  0  0  0
   57.3086   23.3395   43.4885 H   0  0  0  0  0  0  0  0  0  0  0  0
   54.7542   24.3467   43.0392 H   0  0  0  0  0  0  0  0  0  0  0  0
   55.2062   22.6313   43.4407 H   0  0  0  0  0  0  0  0  0  0  0  0
   55.1786   23.6559   47.4885 H   0  0  0  0  0  0  0  0  0  0  0  0
   54.8607   22.0201   46.7979 H   0  0  0  0  0  0  0  0  0  0  0  0
   57.3467   22.8177   47.0461 H   0  0  0  0  0  0  0  0  0  0  0  0
   56.8332   22.0408   45.5069 H   0  0  0  0  0  0  0  0  0  0  0  0
   59.7690   25.8438   47.6237 H   0  0  0  0  0  0  0  0  0  0  0  0
   60.1969   28.2913   47.7928 H   0  0  0  0  0  0  0  0  0  0  0  0
   57.7193   33.1923   44.0499 H   0  0  0  0  0  0  0  0  0  0  0  0
   58.3771   35.5967   44.1413 H   0  0  0  0  0  0  0  0  0  0  0  0
   60.8493   34.8024   47.5983 H   0  0  0  0  0  0  0  0  0  0  0  0
   60.2026   32.3954   47.5136 H   0  0  0  0  0  0  0  0  0  0  0  0
  1  2  2  0
  2  3  1  0
  3  4  1  0
  4  5  2  0
  5  6  1  0
  6  7  2  0
  7  8  1  0
  8  9  1  0
  9 10  1  0
 10 11  1  0
 11 12  1  0
 12 13  2  0
 12 14  2  0
 12 15  1  0
 15 16  1  0
  7 17  1  0
 17 18  2  0
  2 19  1  0
 19 20  2  0
 20 21  1  0
 21 22  2  0
 22 23  1  0
 22 24  1  0
 24 25  2  0
 18  4  1  0
 25 19  1  0
 16  9  1  0
  3 26  1  0
  5 27  1  0
  6 28  1  0
  8 29  1  0
  8 30  1  0
 10 31  1  0
 10 32  1  0
 11 33  1  0
 11 34  1  0
 15 35  1  0
 15 36  1  0
 16 37  1  0
 16 38  1  0
 17 39  1  0
 18 40  1  0
 20 41  1  0
 21 42  1  0
 24 43  1  0
 25 44  1  0
M  END
>  <UniqueID>  (26) 
21

>  <SMILES>  (26) 
O=C(Nc1ccc(CN2CCS(=O)(=O)CC2)cc1)c1ccc(F)cc1

>  <Energy>  (26) 
56.787968096237236

>  <Genealogy>  (26) 
O=C(Nc1ccc(CN2CCS(=O)(=O)CC2)cc1)c1ccc(F)cc1 (3D coordinates assigned)
O=C(Nc1ccc(CN2CCS(=O)(=O)CC2)cc1)c1ccc(F)cc1 (nonaromatic ring conformer: 56.787968096237236 kcal/mol)

>  <smiles>  (26) 
O=C(Nc1ccc(CN2CCS(=O)(=O)CC2)cc1)c1ccc(F)cc1

>  <score_type>  (26) 
oracle

>  <origin>  (26) 
adg

>  <m_score__min__energy>  (26) 
-8.3000000000000007

>  <m_primary>  (26) 
energy

$$$$
26:0
     RDKit          3D

 62 67  0  0  0  0  0  0  0  0999 V2000
   55.6750   20.0040   44.9540 C   0  0  0  0  0  0  0  0  0  0  0  0
   55.9090   20.4920   43.6040 N   0  0  0  0  0  0  0  0  0  0  0  0
   56.3240   21.8210   43.2560 C   0  0  0  0  0  0  0  0  0  0  0  0
   55.7910   22.3750   42.2580 O   0  0  0  0  0  0  0  0  0  0  0  0
   57.2840   22.5930   44.0730 C   0  0  0  0  0  0  0  0  0  0  0  0
   58.2600   21.9610   44.8590 C   0  0  0  0  0  0  0  0  0  0  0  0
   59.1130   22.7020   45.6150 N   0  0  0  0  0  0  0  0  0  0  0  0
   59.0650   24.0610   45.6290 C   0  0  0  0  0  0  0  0  0  0  0  0
   58.1370   24.7380   44.8300 C   0  0  0  0  0  0  0  0  0  0  0  0
   58.0570   26.2110   44.8430 C   0  0  0  0  0  0  0  0  0  0  0  0
   59.0300   26.9340   44.1430 C   0  0  0  0  0  0  0  0  0  0  0  0
   59.0820   28.3230   44.2370 C   0  0  0  0  0  0  0  0  0  0  0  0
   58.1440   28.9980   45.0290 C   0  0  0  0  0  0  0  0  0  0  0  0
   58.2010   30.4280   45.1980 N   0  0  0  0  0  0  0  0  0  0  0  0
   56.9990   31.2400   44.9460 C   0  0  0  0  0  0  0  0  0  0  0  0
   57.3740   32.6460   44.4900 C   0  0  0  0  0  0  0  0  0  0  0  0
   58.3060   33.2640   45.4890 C   0  0  0  0  0  0  0  0  0  0  0  0
   58.1310   34.5980   45.8810 C   0  0  0  0  0  0  0  0  0  0  0  0
   58.9750   35.1630   46.8310 C   0  0  0  0  0  0  0  0  0  0  0  0
   60.0270   34.4190   47.3650 C   0  0  0  0  0  0  0  0  0  0  0  0
   60.2550   33.0940   46.9500 C   0  0  0  0  0  0  0  0  0  0  0  0
   61.4570   32.3990   47.4690 C   0  0  0  0  0  0  0  0  0  0  0  0
   62.5880   32.6180   46.9510 O   0  0  0  0  0  0  0  0  0  0  0  0
   61.3280   31.5080   48.5880 N   0  0  0  0  0  0  0  0  0  0  0  0
   60.3770   31.5240   49.4740 C   0  0  0  0  0  0  0  0  0  0  0  0
   60.1530   32.5530   50.3320 N   0  0  0  0  0  0  0  0  0  0  0  0
   59.0520   32.3120   51.0890 C   0  0  0  0  0  0  0  0  0  0  0  0
   58.5390   33.1970   52.0420 C   0  0  0  0  0  0  0  0  0  0  0  0
   57.3660   32.8400   52.7320 C   0  0  0  0  0  0  0  0  0  0  0  0
   56.7230   31.6160   52.4630 C   0  0  0  0  0  0  0  0  0  0  0  0
   57.2500   30.7320   51.5050 C   0  0  0  0  0  0  0  0  0  0  0  0
   58.4130   31.1080   50.8340 C   0  0  0  0  0  0  0  0  0  0  0  0
   59.2270   30.2910   49.6150 S   0  0  0  0  0  0  0  0  0  0  0  0
   59.3530   32.4910   46.0320 C   0  0  0  0  0  0  0  0  0  0  0  0
   59.4820   31.0320   45.6190 C   0  0  0  0  0  0  0  0  0  0  0  0
   57.1730   28.2830   45.6610 N   0  0  0  0  0  0  0  0  0  0  0  0
   57.0880   26.9250   45.5960 C   0  0  0  0  0  0  0  0  0  0  0  0
   55.9700   26.2750   46.3160 C   0  0  0  0  0  0  0  0  0  0  0  0
   54.7830   26.6740   46.1920 O   0  0  0  0  0  0  0  0  0  0  0  0
   56.2360   25.2210   47.1830 O   0  0  0  0  0  0  0  0  0  0  0  0
   57.2430   23.9940   44.0500 C   0  0  0  0  0  0  0  0  0  0  0  0
   56.0322   20.7490   45.6802 H   0  0  0  0  0  0  0  0  0  0  0  0
   54.5980   19.8353   45.1014 H   0  0  0  0  0  0  0  0  0  0  0  0
   56.2178   19.0586   45.1014 H   0  0  0  0  0  0  0  0  0  0  0  0
   58.3349   20.8636   44.8633 H   0  0  0  0  0  0  0  0  0  0  0  0
   59.7564   24.6286   46.2691 H   0  0  0  0  0  0  0  0  0  0  0  0
   59.7588   26.4016   43.5142 H   0  0  0  0  0  0  0  0  0  0  0  0
   59.8546   28.8861   43.6929 H   0  0  0  0  0  0  0  0  0  0  0  0
   56.3963   30.7568   44.1629 H   0  0  0  0  0  0  0  0  0  0  0  0
   56.4258   31.3167   45.8817 H   0  0  0  0  0  0  0  0  0  0  0  0
   57.8700   32.5933   43.5096 H   0  0  0  0  0  0  0  0  0  0  0  0
   56.4647   33.2596   44.4086 H   0  0  0  0  0  0  0  0  0  0  0  0
   57.3244   35.1994   45.4364 H   0  0  0  0  0  0  0  0  0  0  0  0
   58.8125   36.1993   47.1621 H   0  0  0  0  0  0  0  0  0  0  0  0
   60.6861   34.8734   48.1194 H   0  0  0  0  0  0  0  0  0  0  0  0
   59.0423   34.1531   52.2482 H   0  0  0  0  0  0  0  0  0  0  0  0
   56.9479   33.5219   53.4872 H   0  0  0  0  0  0  0  0  0  0  0  0
   55.8036   31.3503   53.0053 H   0  0  0  0  0  0  0  0  0  0  0  0
   56.7589   29.7713   51.2910 H   0  0  0  0  0  0  0  0  0  0  0  0
   60.1905   30.9680   44.7800 H   0  0  0  0  0  0  0  0  0  0  0  0
   59.8312   30.4738   46.5001 H   0  0  0  0  0  0  0  0  0  0  0  0
   56.5063   24.5106   43.4173 H   0  0  0  0  0  0  0  0  0  0  0  0
  1  2  1  0
  2  3  1  0
  3  4  2  0
  3  5  1  0
  5  6  2  0
  6  7  1  0
  7  8  2  0
  8  9  1  0
  9 10  1  0
 10 11  2  0
 11 12  1  0
 12 13  2  0
 13 14  1  0
 14 15  1  0
 15 16  1  0
 16 17  1  0
 17 18  2  0
 18 19  1  0
 19 20  2  0
 20 21  1  0
 21 22  1  0
 22 23  2  0
 22 24  1  0
 24 25  2  3
 25 26  1  0
 26 27  1  0
 27 28  2  0
 28 29  1  0
 29 30  2  0
 30 31  1  0
 31 32  2  0
 32 33  1  0
 21 34  2  0
 34 35  1  0
 13 36  1  0
 36 37  2  0
 37 38  1  0
 38 39  2  0
 38 40  1  0
  9 41  2  0
 41  5  1  0
 37 10  1  0
 35 14  1  0
 34 17  1  0
 33 25  1  0
 32 27  1  0
  1 42  1  0
  1 43  1  0
  1 44  1  0
  6 45  1  0
  8 46  1  0
 11 47  1  0
 12 48  1  0
 15 49  1  0
 15 50  1  0
 16 51  1  0
 16 52  1  0
 18 53  1  0
 19 54  1  0
 20 55  1  0
 28 56  1  0
 29 57  1  0
 30 58  1  0
 31 59  1  0
 35 60  1  0
 35 61  1  0
 41 62  1  0
M  CHG  3   2  -1  26  -1  40  -1
M  END
>  <UniqueID>  (27) 
22

>  <SMILES>  (27) 
C[N-]C(=O)c1cncc(-c2ccc(N3CCc4cccc(C(=O)N=c5[n-]c6ccccc6s5)c4C3)nc2C(=O)[O-])c1

>  <Energy>  (27) 
133.33076106774237

>  <Genealogy>  (27) 
C[N-]C(=O)c1cncc(-c2ccc(N3CCc4cccc(C(=O)N=c5[n-]c6ccccc6s5)c4C3)nc2C(=O)[O-])c1 (protonated)
C[N-]C(=O)c1cncc(-c2ccc(N3CCc4cccc(C(=O)N=c5[n-]c6ccccc6s5)c4C3)nc2C(=O)[O-])c1 (3D coordinates assigned)
C[N-]C(=O)c1cncc(-c2ccc(N3CCc4cccc(C(=O)N=c5[n-]c6ccccc6s5)c4C3)nc2C(=O)[O-])c1 (nonaromatic ring conformer: 133.33076106774237 kcal/mol)

>  <smiles>  (27) 
CNC(=O)c1cncc(-c2ccc(N3CCc4cccc(C(=O)N=c5[nH]c6ccccc6s5)c4C3)nc2C(=O)O)c1

>  <score_type>  (27) 
oracle

>  <origin>  (27) 
adg

>  <m_score__min__energy>  (27) 
-16.550000000000001

>  <m_primary>  (27) 
energy

$$$$
27:0
     RDKit          3D

 59 62  0  0  0  0  0  0  0  0999 V2000
   58.6880   30.1310   50.2410 C   0  0  0  0  0  0  0  0  0  0  0  0
   59.7590   29.3650   49.7000 O   0  0  0  0  0  0  0  0  0  0  0  0
   59.8220   28.8930   48.3780 C   0  0  0  0  0  0  0  0  0  0  0  0
   58.9630   27.8720   47.9230 C   0  0  0  0  0  0  0  0  0  0  0  0
   58.9950   27.4400   46.5870 C   0  0  0  0  0  0  0  0  0  0  0  0
   58.0780   26.3720   46.1140 C   0  0  0  0  0  0  0  0  0  0  0  0
   58.5870   25.1310   45.6850 C   0  0  0  0  0  0  0  0  0  0  0  0
   57.7210   24.1280   45.2370 C   0  0  0  0  0  0  0  0  0  0  0  0
   56.3420   24.3500   45.2160 C   0  0  0  0  0  0  0  0  0  0  0  0
   55.8250   25.5770   45.6400 C   0  0  0  0  0  0  0  0  0  0  0  0
   54.4870   25.7930   45.6110 F   0  0  0  0  0  0  0  0  0  0  0  0
   56.6860   26.5830   46.0870 C   0  0  0  0  0  0  0  0  0  0  0  0
   59.9020   28.0400   45.7010 C   0  0  0  0  0  0  0  0  0  0  0  0
   60.7640   29.0440   46.1420 C   0  0  0  0  0  0  0  0  0  0  0  0
   60.7480   29.4700   47.4800 C   0  0  0  0  0  0  0  0  0  0  0  0
   61.6900   30.5340   47.9010 C   0  0  0  0  0  0  0  0  0  0  0  0
   62.4080   31.0980   47.0310 O   0  0  0  0  0  0  0  0  0  0  0  0
   61.8280   30.9010   49.2820 N   0  0  0  0  0  0  0  0  0  0  0  0
   62.7390   31.9710   49.6950 C   0  0  0  0  0  0  0  0  0  0  0  0
   62.0090   33.0750   50.4850 C   0  0  0  0  0  0  0  0  0  0  0  0
   61.3000   34.0620   49.6410 N   0  0  0  0  0  0  0  0  0  0  0  0
   61.8010   34.2180   48.2620 C   0  0  0  0  0  0  0  0  0  0  0  0
   60.9540   33.5300   47.2280 C   0  0  0  0  0  0  0  0  0  0  0  0
   59.6980   33.1280   47.4600 C   0  0  0  0  0  0  0  0  0  0  0  0
   58.9130   32.5010   46.3750 C   0  0  0  0  0  0  0  0  0  0  0  0
   58.4880   31.1710   46.5240 C   0  0  0  0  0  0  0  0  0  0  0  0
   57.7470   30.5470   45.5170 C   0  0  0  0  0  0  0  0  0  0  0  0
   57.4280   31.2440   44.3490 C   0  0  0  0  0  0  0  0  0  0  0  0
   56.5000   30.4570   43.0840 Cl  0  0  0  0  0  0  0  0  0  0  0  0
   57.8540   32.5650   44.1850 C   0  0  0  0  0  0  0  0  0  0  0  0
   58.5970   33.1990   45.1880 C   0  0  0  0  0  0  0  0  0  0  0  0
   59.1540   34.8440   44.9030 Cl  0  0  0  0  0  0  0  0  0  0  0  0
   59.0920   33.1910   48.8360 C   0  0  0  0  0  0  0  0  0  0  0  0
   59.8360   34.1360   49.7880 C   0  0  0  0  0  0  0  0  0  0  0  0
   58.7327   30.0990   51.3396 H   0  0  0  0  0  0  0  0  0  0  0  0
   58.7743   31.1735   49.9007 H   0  0  0  0  0  0  0  0  0  0  0  0
   57.7294   29.7124   49.9007 H   0  0  0  0  0  0  0  0  0  0  0  0
   58.2563   27.4062   48.6256 H   0  0  0  0  0  0  0  0  0  0  0  0
   59.6718   24.9494   45.7023 H   0  0  0  0  0  0  0  0  0  0  0  0
   58.1267   23.1625   44.9006 H   0  0  0  0  0  0  0  0  0  0  0  0
   55.6629   23.5587   44.8656 H   0  0  0  0  0  0  0  0  0  0  0  0
   56.2733   27.5467   46.4202 H   0  0  0  0  0  0  0  0  0  0  0  0
   59.9337   27.7162   44.6502 H   0  0  0  0  0  0  0  0  0  0  0  0
   61.4652   29.5080   45.4327 H   0  0  0  0  0  0  0  0  0  0  0  0
   61.3280   30.3390   50.0070 H   0  0  0  0  0  0  0  0  0  0  0  0
   63.5274   31.5412   50.3304 H   0  0  0  0  0  0  0  0  0  0  0  0
   63.1642   32.4255   48.7880 H   0  0  0  0  0  0  0  0  0  0  0  0
   61.2724   32.5953   51.1463 H   0  0  0  0  0  0  0  0  0  0  0  0
   62.7819   33.6304   51.0365 H   0  0  0  0  0  0  0  0  0  0  0  0
   61.8347   35.2915   48.0245 H   0  0  0  0  0  0  0  0  0  0  0  0
   62.7949   33.7480   48.2268 H   0  0  0  0  0  0  0  0  0  0  0  0
   61.3867   33.3481   46.2332 H   0  0  0  0  0  0  0  0  0  0  0  0
   58.7402   30.6164   47.4399 H   0  0  0  0  0  0  0  0  0  0  0  0
   57.4146   29.5062   45.6440 H   0  0  0  0  0  0  0  0  0  0  0  0
   57.6041   33.1097   43.2626 H   0  0  0  0  0  0  0  0  0  0  0  0
   58.0521   33.5375   48.7432 H   0  0  0  0  0  0  0  0  0  0  0  0
   59.1574   32.1805   49.2656 H   0  0  0  0  0  0  0  0  0  0  0  0
   59.5142   35.1674   49.5813 H   0  0  0  0  0  0  0  0  0  0  0  0
   59.5915   33.8291   50.8156 H   0  0  0  0  0  0  0  0  0  0  0  0
  1  2  1  0
  2  3  1  0
  3  4  2  0
  4  5  1  0
  5  6  1  0
  6  7  2  0
  7  8  1  0
  8  9  2  0
  9 10  1  0
 10 11  1  0
 10 12  2  0
  5 13  2  0
 13 14  1  0
 14 15  2  0
 15 16  1  0
 16 17  2  0
 16 18  1  0
 18 19  1  0
 19 20  1  0
 20 21  1  0
 21 22  1  0
 22 23  1  0
 23 24  2  0
 24 25  1  0
 25 26  2  0
 26 27  1  0
 27 28  2  0
 28 29  1  0
 28 30  1  0
 30 31  2  0
 31 32  1  0
 24 33  1  0
 33 34  1  0
 15  3  1  0
 34 21  1  0
 12  6  1  0
 31 25  1  0
  1 35  1  0
  1 36  1  0
  1 37  1  0
  4 38  1  0
  7 39  1  0
  8 40  1  0
  9 41  1  0
 12 42  1  0
 13 43  1  0
 14 44  1  0
 18 45  1  0
 19 46  1  0
 19 47  1  0
 20 48  1  0
 20 49  1  0
 22 50  1  0
 22 51  1  0
 23 52  1  0
 26 53  1  0
 27 54  1  0
 30 55  1  0
 33 56  1  0
 33 57  1  0
 34 58  1  0
 34 59  1  0
M  END
>  <UniqueID>  (28) 
23

>  <SMILES>  (28) 
COc1cc(-c2cccc(F)c2)ccc1C(=O)NCCN1CC=C(c2ccc(Cl)cc2Cl)CC1

>  <Energy>  (28) 
85.84039238904437

>  <Genealogy>  (28) 
COc1cc(-c2cccc(F)c2)ccc1C(=O)NCCN1CC=C(c2ccc(Cl)cc2Cl)CC1 (3D coordinates assigned)
COc1cc(-c2cccc(F)c2)ccc1C(=O)NCCN1CC=C(c2ccc(Cl)cc2Cl)CC1 (nonaromatic ring conformer: 85.84039238904437 kcal/mol)

>  <smiles>  (28) 
COc1cc(-c2cccc(F)c2)ccc1C(=O)NCCN1CC=C(c2ccc(Cl)cc2Cl)CC1

>  <score_type>  (28) 
oracle

>  <origin>  (28) 
adg

>  <m_score__min__energy>  (28) 
-8.8900000000000006

>  <m_primary>  (28) 
energy

$$$$
28:0
     RDKit          3D

 27 28  0  0  0  0  0  0  0  0999 V2000
   57.9240   32.2200   42.5040 C   0  0  0  0  0  0  0  0  0  0  0  0
   58.4820   31.5840   43.6500 O   0  0  0  0  0  0  0  0  0  0  0  0
   57.9430   30.4590   44.2940 C   0  0  0  0  0  0  0  0  0  0  0  0
   56.5710   30.1780   44.2070 C   0  0  0  0  0  0  0  0  0  0  0  0
   56.0330   29.0540   44.8170 C   0  0  0  0  0  0  0  0  0  0  0  0
   56.8400   28.2110   45.5890 C   0  0  0  0  0  0  0  0  0  0  0  0
   56.3040   27.0500   46.1680 C   0  0  0  0  0  0  0  0  0  0  0  0
   54.9670   26.7080   45.9900 O   0  0  0  0  0  0  0  0  0  0  0  0
   57.1190   26.2160   46.9210 C   0  0  0  0  0  0  0  0  0  0  0  0
   58.4450   26.5710   47.1520 C   0  0  0  0  0  0  0  0  0  0  0  0
   59.1600   25.8300   47.8810 O   0  0  0  0  0  0  0  0  0  0  0  0
   58.9620   27.7220   46.6300 N   0  0  0  0  0  0  0  0  0  0  0  0
   60.2150   28.0950   47.0820 O   0  0  0  0  0  0  0  0  0  0  0  0
   58.2150   28.5170   45.7800 C   0  0  0  0  0  0  0  0  0  0  0  0
   58.7880   29.5920   45.0400 C   0  0  0  0  0  0  0  0  0  0  0  0
   60.1920   29.7210   45.0250 O   0  0  0  0  0  0  0  0  0  0  0  0
   61.1390   28.7960   44.5010 C   0  0  0  0  0  0  0  0  0  0  0  0
   57.2301   33.0109   42.8250 H   0  0  0  0  0  0  0  0  0  0  0  0
   58.7306   32.6625   41.9010 H   0  0  0  0  0  0  0  0  0  0  0  0
   57.3804   31.4778   41.9010 H   0  0  0  0  0  0  0  0  0  0  0  0
   55.9126   30.8586   43.6472 H   0  0  0  0  0  0  0  0  0  0  0  0
   54.9645   28.8239   44.6929 H   0  0  0  0  0  0  0  0  0  0  0  0
   56.7186   25.2782   47.3336 H   0  0  0  0  0  0  0  0  0  0  0  0
   60.6350   28.9850   46.8420 H   0  0  0  0  0  0  0  0  0  0  0  0
   61.6559   28.2911   45.3303 H   0  0  0  0  0  0  0  0  0  0  0  0
   60.6188   28.0486   43.8839 H   0  0  0  0  0  0  0  0  0  0  0  0
   61.8739   29.3336   43.8839 H   0  0  0  0  0  0  0  0  0  0  0  0
  1  2  1  0
  2  3  1  0
  3  4  2  0
  4  5  1  0
  5  6  2  0
  6  7  1  0
  7  8  1  0
  7  9  2  0
  9 10  1  0
 10 11  2  0
 10 12  1  0
 12 13  1  0
 12 14  1  0
 14 15  2  0
 15 16  1  0
 16 17  1  0
 15  3  1  0
 14  6  1  0
  1 18  1  0
  1 19  1  0
  1 20  1  0
  4 21  1  0
  5 22  1  0
  9 23  1  0
 13 24  1  0
 17 25  1  0
 17 26  1  0
 17 27  1  0
M  CHG  1   8  -1
M  END
>  <UniqueID>  (29) 
24

>  <SMILES>  (29) 
COc1ccc2c([O-])cc(=O)n(O)c2c1OC

>  <Energy>  (29) 
45.62788435162949

>  <Genealogy>  (29) 
COc1ccc2c([O-])cc(=O)n(O)c2c1OC (protonated)
COc1ccc2c([O-])cc(=O)n(O)c2c1OC (3D coordinates assigned)
COc1ccc2c([O-])cc(=O)n(O)c2c1OC (optimized conformer: 45.62788435162949 kcal/mol)

>  <smiles>  (29) 
COc1ccc2c(O)cc(=O)n(O)c2c1OC

>  <score_type>  (29) 
oracle

>  <origin>  (29) 
adg

>  <m_score__min__energy>  (29) 
-7.7800000000000002

>  <m_primary>  (29) 
energy

$$$$
29:0
     RDKit          3D

 49 51  0  0  0  0  0  0  0  0999 V2000
   56.2880   22.5170   48.4570 C   0  0  0  0  0  0  0  0  0  0  0  0
   57.3230   22.4530   47.4830 O   0  0  0  0  0  0  0  0  0  0  0  0
   57.1280   22.6220   46.1030 C   0  0  0  0  0  0  0  0  0  0  0  0
   57.3150   21.5690   45.1850 C   0  0  0  0  0  0  0  0  0  0  0  0
   57.1100   21.7810   43.8190 C   0  0  0  0  0  0  0  0  0  0  0  0
   56.7270   23.0400   43.3540 C   0  0  0  0  0  0  0  0  0  0  0  0
   56.5410   24.0900   44.2550 C   0  0  0  0  0  0  0  0  0  0  0  0
   56.7210   23.8820   45.6330 C   0  0  0  0  0  0  0  0  0  0  0  0
   56.5600   24.9600   46.5630 N   0  0  0  0  0  0  0  0  0  0  0  0
   56.3270   26.3330   46.2240 C   0  0  0  0  0  0  0  0  0  0  0  0
   55.1460   26.7110   45.9990 O   0  0  0  0  0  0  0  0  0  0  0  0
   57.4560   27.3050   46.0030 C   0  0  0  0  0  0  0  0  0  0  0  0
   57.5500   27.7390   44.5370 C   0  0  0  0  0  0  0  0  0  0  0  0
   56.7320   29.3040   44.2340 S   0  0  0  0  0  0  0  0  0  0  0  0
   56.5770   29.5220   42.7550 O   0  0  0  0  0  0  0  0  0  0  0  0
   55.3730   29.3130   44.8740 O   0  0  0  0  0  0  0  0  0  0  0  0
   57.7020   30.5950   44.9330 C   0  0  0  0  0  0  0  0  0  0  0  0
   58.7130   30.2810   45.8660 C   0  0  0  0  0  0  0  0  0  0  0  0
   59.5050   31.2950   46.4250 C   0  0  0  0  0  0  0  0  0  0  0  0
   59.2790   32.6200   46.0290 C   0  0  0  0  0  0  0  0  0  0  0  0
   58.2860   32.9250   45.1350 C   0  0  0  0  0  0  0  0  0  0  0  0
   57.4850   31.9350   44.5650 C   0  0  0  0  0  0  0  0  0  0  0  0
   58.2090   34.3930   44.9110 C   0  0  0  0  0  0  0  0  0  0  0  0
   59.3140   34.9540   45.8350 C   0  0  0  0  0  0  0  0  0  0  0  0
   59.9450   33.7960   46.4750 N   0  0  0  0  0  0  0  0  0  0  0  0
   61.1110   33.8800   47.3170 C   0  0  0  0  0  0  0  0  0  0  0  0
   62.4600   33.5010   46.7890 C   0  0  0  0  0  0  0  0  0  0  0  0
   61.0070   34.2360   48.5210 O   0  0  0  0  0  0  0  0  0  0  0  0
   56.7299   22.4897   49.4640 H   0  0  0  0  0  0  0  0  0  0  0  0
   55.7223   23.4518   48.3301 H   0  0  0  0  0  0  0  0  0  0  0  0
   55.6115   21.6590   48.3301 H   0  0  0  0  0  0  0  0  0  0  0  0
   57.6235   20.5765   45.5452 H   0  0  0  0  0  0  0  0  0  0  0  0
   57.2509   20.9533   43.1083 H   0  0  0  0  0  0  0  0  0  0  0  0
   56.5717   23.2049   42.2776 H   0  0  0  0  0  0  0  0  0  0  0  0
   56.2522   25.0847   43.8845 H   0  0  0  0  0  0  0  0  0  0  0  0
   57.2884   28.1944   46.6282 H   0  0  0  0  0  0  0  0  0  0  0  0
   58.3975   26.8049   46.2740 H   0  0  0  0  0  0  0  0  0  0  0  0
   58.6113   27.8367   44.2649 H   0  0  0  0  0  0  0  0  0  0  0  0
   57.0464   26.9739   43.9279 H   0  0  0  0  0  0  0  0  0  0  0  0
   58.8813   29.2336   46.1571 H   0  0  0  0  0  0  0  0  0  0  0  0
   60.2878   31.0548   47.1595 H   0  0  0  0  0  0  0  0  0  0  0  0
   56.6989   32.1974   43.8417 H   0  0  0  0  0  0  0  0  0  0  0  0
   58.4116   34.6419   43.8589 H   0  0  0  0  0  0  0  0  0  0  0  0
   57.2144   34.8094   45.1287 H   0  0  0  0  0  0  0  0  0  0  0  0
   60.0551   35.5137   45.2455 H   0  0  0  0  0  0  0  0  0  0  0  0
   58.8965   35.6446   46.5825 H   0  0  0  0  0  0  0  0  0  0  0  0
   63.1424   33.3093   47.6302 H   0  0  0  0  0  0  0  0  0  0  0  0
   62.3714   32.5930   46.1745 H   0  0  0  0  0  0  0  0  0  0  0  0
   62.8572   34.3223   46.1745 H   0  0  0  0  0  0  0  0  0  0  0  0
  1  2  1  0
  2  3  1  0
  3  4  2  0
  4  5  1  0
  5  6  2  0
  6  7  1  0
  7  8  2  0
  8  9  1  0
  9 10  1  0
 10 11  2  0
 10 12  1  0
 12 13  1  0
 13 14  1  0
 14 15  2  0
 14 16  2  0
 14 17  1  0
 17 18  2  0
 18 19  1  0
 19 20  2  0
 20 21  1  0
 21 22  2  0
 21 23  1  0
 23 24  1  0
 24 25  1  0
 25 26  1  0
 26 27  1  0
 26 28  2  0
  8  3  1  0
 22 17  1  0
 25 20  1  0
  1 29  1  0
  1 30  1  0
  1 31  1  0
  4 32  1  0
  5 33  1  0
  6 34  1  0
  7 35  1  0
 12 36  1  0
 12 37  1  0
 13 38  1  0
 13 39  1  0
 18 40  1  0
 19 41  1  0
 22 42  1  0
 23 43  1  0
 23 44  1  0
 24 45  1  0
 24 46  1  0
 27 47  1  0
 27 48  1  0
 27 49  1  0
M  CHG  1   9  -1
M  END
>  <UniqueID>  (30) 
25

>  <SMILES>  (30) 
COc1ccccc1[N-]C(=O)CCS(=O)(=O)c1ccc2c(c1)CCN2C(C)=O

>  <Energy>  (30) 
64.58430710712797

>  <Genealogy>  (30) 
COc1ccccc1[N-]C(=O)CCS(=O)(=O)c1ccc2c(c1)CCN2C(C)=O (protonated)
COc1ccccc1[N-]C(=O)CCS(=O)(=O)c1ccc2c(c1)CCN2C(C)=O (3D coordinates assigned)
COc1ccccc1[N-]C(=O)CCS(=O)(=O)c1ccc2c(c1)CCN2C(C)=O (nonaromatic ring conformer: 64.58430710712797 kcal/mol)

>  <smiles>  (30) 
COc1ccccc1NC(=O)CCS(=O)(=O)c1ccc2c(c1)CCN2C(C)=O

>  <score_type>  (30) 
oracle

>  <origin>  (30) 
adg

>  <m_score__min__energy>  (30) 
-11.859999999999999

>  <m_primary>  (30) 
energy

$$$$
30:0
     RDKit          3D

 51 54  0  0  1  0  0  0  0  0999 V2000
   60.6580   30.7480   49.5830 O   0  0  0  0  0  0  0  0  0  0  0  0
   60.3220   30.1370   48.5440 C   0  0  0  0  0  0  0  0  0  0  0  0
   60.4130   28.6530   48.5760 C   0  0  0  0  0  0  0  0  0  0  0  0
   60.4090   28.0340   46.8730 S   0  0  0  0  0  0  0  0  0  0  0  0
   58.7030   27.9130   46.3580 C   0  0  0  0  0  0  0  0  0  0  0  0
   58.0530   28.9420   45.7690 N   0  0  0  0  0  0  0  0  0  0  0  0
   56.7930   26.5940   46.2160 C   0  0  0  0  0  0  0  0  0  0  0  0
   56.2320   25.4530   46.4490 N   0  0  0  0  0  0  0  0  0  0  0  0
   56.5640   24.4020   45.5420 C   0  0  0  0  0  0  0  0  0  0  0  0
   55.6810   24.0590   44.5140 C   0  0  0  0  0  0  0  0  0  0  0  0
   56.0340   23.0360   43.6530 C   0  0  0  0  0  0  0  0  0  0  0  0
   57.2480   22.3720   43.8220 C   0  0  0  0  0  0  0  0  0  0  0  0
   58.1130   22.7260   44.8490 C   0  0  0  0  0  0  0  0  0  0  0  0
   57.7690   23.7470   45.7140 C   0  0  0  0  0  0  0  0  0  0  0  0
   56.1350   27.6160   45.6270 N   0  0  0  0  0  0  0  0  0  0  0  0
   56.7550   28.7970   45.3980 C   0  0  0  0  0  0  0  0  0  0  0  0
   56.0850   29.7440   44.8320 N   0  0  0  0  0  0  0  0  0  0  0  0
   56.8090   30.7630   44.1540 C   0  0  0  0  0  0  0  0  0  0  0  0
   56.7850   30.7060   42.7630 C   0  0  0  0  0  0  0  0  0  0  0  0
   57.4550   31.6470   41.9920 C   0  0  0  0  0  0  0  0  0  0  0  0
   58.1500   32.6500   42.6490 C   0  0  0  0  0  0  0  0  0  0  0  0
   58.1780   32.7150   44.0440 C   0  0  0  0  0  0  0  0  0  0  0  0
   57.5010   31.7630   44.8050 C   0  0  0  0  0  0  0  0  0  0  0  0
   58.0790   26.7370   46.5840 N   0  0  0  0  0  0  0  0  0  0  0  0
   59.8740   30.8080   47.3860 N   0  0  0  0  0  0  0  0  0  0  0  0
   59.7420   32.1990   47.2240 C   0  0  0  0  0  0  0  0  0  0  0  0
   60.8300   32.9060   46.7060 C   0  0  0  0  0  0  0  0  0  0  0  0
   60.7890   34.2620   46.5140 C   0  0  0  0  0  0  0  0  0  0  0  0
   59.6740   35.0080   46.8200 C   0  0  0  0  0  0  0  0  0  0  0  0
   58.5910   34.3340   47.3310 C   0  0  0  0  0  0  0  0  0  0  0  0
   58.6350   32.9470   47.5260 C   0  0  0  0  0  0  0  0  0  0  0  0
   61.3438   28.3499   49.0778 H   0  0  0  0  0  0  0  0  0  0  0  0
   59.5575   28.2368   49.1281 H   0  0  0  0  0  0  0  0  0  0  0  0
   54.7261   24.5913   44.3926 H   0  0  0  0  0  0  0  0  0  0  0  0
   55.3574   22.7465   42.8355 H   0  0  0  0  0  0  0  0  0  0  0  0
   57.5237   21.5589   43.1344 H   0  0  0  0  0  0  0  0  0  0  0  0
   59.0686   22.1955   44.9734 H   0  0  0  0  0  0  0  0  0  0  0  0
   58.4469   24.0355   46.5309 H   0  0  0  0  0  0  0  0  0  0  0  0
   55.1380   27.4930   45.3450 H   0  0  0  0  0  0  0  0  0  0  0  0
   56.2249   29.9006   42.2654 H   0  0  0  0  0  0  0  0  0  0  0  0
   57.4347   31.5977   40.8933 H   0  0  0  0  0  0  0  0  0  0  0  0
   58.6889   33.4081   42.0617 H   0  0  0  0  0  0  0  0  0  0  0  0
   58.7362   33.5202   44.5440 H   0  0  0  0  0  0  0  0  0  0  0  0
   57.5184   31.8085   45.9039 H   0  0  0  0  0  0  0  0  0  0  0  0
   58.5910   25.9290   47.0470 H   0  0  0  0  0  0  0  0  0  0  0  0
   59.6180   30.1900   46.5720 H   0  0  0  0  0  0  0  0  0  0  0  0
   61.7470   32.3576   46.4445 H   0  0  0  0  0  0  0  0  0  0  0  0
   61.6741   34.7696   46.1029 H   0  0  0  0  0  0  0  0  0  0  0  0
   59.6506   36.0964   46.6624 H   0  0  0  0  0  0  0  0  0  0  0  0
   57.6781   34.8902   47.5902 H   0  0  0  0  0  0  0  0  0  0  0  0
   57.7488   32.4408   47.9363 H   0  0  0  0  0  0  0  0  0  0  0  0
  1  2  2  0
  2  3  1  0
  3  4  1  0
  4  5  1  0
  5  6  2  0
  6  7  1  0
  7  8  2  0
  8  9  1  0
  9 10  2  0
 10 11  1  0
 11 12  2  0
 12 13  1  0
 13 14  2  0
  7 15  1  0
 15 16  1  0
 16 17  2  0
 17 18  1  0
 18 19  2  0
 19 20  1  0
 20 21  2  0
 21 22  1  0
 22 23  2  0
 16 24  1  0
  2 25  1  0
 25 26  1  0
 26 27  2  0
 27 28  1  0
 28 29  2  0
 29 30  1  0
 30 31  2  0
 24  5  1  0
 31 26  1  0
 14  9  1  0
 23 18  1  0
  3 32  1  0
  3 33  1  0
 10 34  1  0
 11 35  1  0
 12 36  1  0
 13 37  1  0
 14 38  1  0
 15 39  1  0
 19 40  1  0
 20 41  1  0
 21 42  1  0
 22 43  1  0
 23 44  1  0
 24 45  1  0
 25 46  1  0
 27 47  1  0
 28 48  1  0
 29 49  1  0
 30 50  1  0
 31 51  1  0
M  END
>  <smiles>  (31) 
O=C(CSc1nc(=Nc2ccccc2)[nH]c(=Nc2ccccc2)[nH]1)Nc1ccccc1

>  <score_type>  (31) 
oracle

>  <origin>  (31) 
adg

>  <m_score__min__energy>  (31) 
-9.3000000000000007

>  <m_primary>  (31) 
energy

$$$$
31:0
     RDKit          3D

 36 38  0  0  0  0  0  0  0  0999 V2000
   55.7880   22.6090   42.3380 N   0  0  0  0  0  0  0  0  0  0  0  0
   56.7300   22.1720   43.7200 S   0  0  0  0  0  0  0  0  0  0  0  0
   55.8610   21.4470   44.7100 O   0  0  0  0  0  0  0  0  0  0  0  0
   57.8440   21.2560   43.2970 O   0  0  0  0  0  0  0  0  0  0  0  0
   57.3990   23.6220   44.4610 C   0  0  0  0  0  0  0  0  0  0  0  0
   57.9890   23.5580   45.7300 C   0  0  0  0  0  0  0  0  0  0  0  0
   58.5060   24.7140   46.3230 C   0  0  0  0  0  0  0  0  0  0  0  0
   58.4350   25.9470   45.6560 C   0  0  0  0  0  0  0  0  0  0  0  0
   58.9540   27.1370   46.2790 N   0  0  0  0  0  0  0  0  0  0  0  0
   60.3080   27.2410   46.7030 C   0  0  0  0  0  0  0  0  0  0  0  0
   61.1970   26.4480   46.2940 O   0  0  0  0  0  0  0  0  0  0  0  0
   60.6240   28.3420   47.6370 C   0  0  0  0  0  0  0  0  0  0  0  0
   59.0630   29.2200   47.9750 S   0  0  0  0  0  0  0  0  0  0  0  0
   58.0770   28.1480   46.8610 C   0  0  1  0  0  0  0  0  0  0  0  0
   57.4070   28.9870   45.7930 C   0  0  0  0  0  0  0  0  0  0  0  0
   58.0240   30.1760   45.3630 C   0  0  0  0  0  0  0  0  0  0  0  0
   57.4210   30.9760   44.3870 C   0  0  0  0  0  0  0  0  0  0  0  0
   58.2000   32.4590   43.8650 Cl  0  0  0  0  0  0  0  0  0  0  0  0
   56.1980   30.5960   43.8290 C   0  0  0  0  0  0  0  0  0  0  0  0
   55.5770   29.4180   44.2450 C   0  0  0  0  0  0  0  0  0  0  0  0
   56.1710   28.6120   45.2220 C   0  0  0  0  0  0  0  0  0  0  0  0
   55.5220   27.4490   45.6210 O   0  0  0  0  0  0  0  0  0  0  0  0
   57.8390   26.0080   44.3880 C   0  0  0  0  0  0  0  0  0  0  0  0
   57.3220   24.8520   43.7950 C   0  0  0  0  0  0  0  0  0  0  0  0
   55.8680   23.6450   42.2300 H   0  0  0  0  0  0  0  0  0  0  0  0
   56.2520   22.1820   41.5050 H   0  0  0  0  0  0  0  0  0  0  0  0
   58.0457   22.5963   46.2610 H   0  0  0  0  0  0  0  0  0  0  0  0
   58.9711   24.6568   47.3182 H   0  0  0  0  0  0  0  0  0  0  0  0
   61.0394   27.9369   48.5715 H   0  0  0  0  0  0  0  0  0  0  0  0
   61.3708   29.0228   47.2024 H   0  0  0  0  0  0  0  0  0  0  0  0
   57.2829   27.6394   47.4273 H   0  0  0  0  0  0  0  0  0  0  0  0
   58.9880   30.4788   45.7977 H   0  0  0  0  0  0  0  0  0  0  0  0
   55.7245   31.2258   43.0614 H   0  0  0  0  0  0  0  0  0  0  0  0
   54.6148   29.1213   43.8022 H   0  0  0  0  0  0  0  0  0  0  0  0
   57.7779   26.9697   43.8575 H   0  0  0  0  0  0  0  0  0  0  0  0
   56.8530   24.9087   42.8016 H   0  0  0  0  0  0  0  0  0  0  0  0
  1  2  1  0
  2  3  2  0
  2  4  2  0
  2  5  1  0
  5  6  2  0
  6  7  1  0
  7  8  2  0
  8  9  1  0
  9 10  1  0
 10 11  2  0
 10 12  1  0
 12 13  1  0
 13 14  1  0
 14 15  1  0
 15 16  2  0
 16 17  1  0
 17 18  1  0
 17 19  2  0
 19 20  1  0
 20 21  2  0
 21 22  1  0
  8 23  1  0
 23 24  2  0
 24  5  1  0
 14  9  1  0
 21 15  1  0
  1 25  1  0
  1 26  1  0
  6 27  1  0
  7 28  1  0
 12 29  1  0
 12 30  1  0
 14 31  1  1
 16 32  1  0
 19 33  1  0
 20 34  1  0
 23 35  1  0
 24 36  1  0
M  CHG  1  22  -1
M  END
>  <UniqueID>  (32) 
26

>  <SMILES>  (32) 
NS(=O)(=O)c1ccc(N2C(=O)CS[C@H]2c2cc(Cl)ccc2[O-])cc1

>  <Energy>  (32) 
41.636835220254504

>  <Genealogy>  (32) 
NS(=O)(=O)c1ccc(N2C(=O)CSC2c2cc(Cl)ccc2[O-])cc1 (protonated)
NS(=O)(=O)c1ccc(N2C(=O)CS[C@H]2c2cc(Cl)ccc2[O-])cc1 (chirality)
NS(=O)(=O)c1ccc(N2C(=O)CS[C@H]2c2cc(Cl)ccc2[O-])cc1 (3D coordinates assigned)
NS(=O)(=O)c1ccc(N2C(=O)CS[C@H]2c2cc(Cl)ccc2[O-])cc1 (nonaromatic ring conformer: 41.636835220254504 kcal/mol)

>  <smiles>  (32) 
NS(=O)(=O)c1ccc(N2C(=O)CSC2c2cc(Cl)ccc2O)cc1

>  <score_type>  (32) 
oracle

>  <origin>  (32) 
adg

>  <m_score__min__energy>  (32) 
-12.06

>  <m_primary>  (32) 
energy

$$$$
32:0
     RDKit          3D

 38 41  0  0  0  0  0  0  0  0999 V2000
   64.2940   33.0890   48.3820 C   0  0  0  0  0  0  0  0  0  0  0  0
   63.5210   33.2230   47.2250 C   0  0  0  0  0  0  0  0  0  0  0  0
   62.1440   33.4460   47.3240 C   0  0  0  0  0  0  0  0  0  0  0  0
   61.5310   33.5460   48.5840 C   0  0  0  0  0  0  0  0  0  0  0  0
   60.0450   33.7460   48.6920 C   0  0  0  0  0  0  0  0  0  0  0  0
   59.4010   33.5910   47.3410 C   0  0  0  0  0  0  0  0  0  0  0  0
   59.0500   34.7400   46.5850 C   0  0  0  0  0  0  0  0  0  0  0  0
   58.4080   34.6120   45.3400 C   0  0  0  0  0  0  0  0  0  0  0  0
   58.1240   33.3280   44.8800 C   0  0  0  0  0  0  0  0  0  0  0  0
   57.4990   32.9910   43.7340 N   0  0  0  0  0  0  0  0  0  0  0  0
   57.4300   31.6400   43.7560 C   0  0  0  0  0  0  0  0  0  0  0  0
   58.0330   31.1260   44.8840 C   0  0  0  0  0  0  0  0  0  0  0  0
   58.4580   32.2140   45.6130 C   0  0  0  0  0  0  0  0  0  0  0  0
   59.0890   32.3050   46.8510 C   0  0  0  0  0  0  0  0  0  0  0  0
   58.0390   29.6660   45.2170 C   0  0  0  0  0  0  0  0  0  0  0  0
   57.7900   28.8570   44.0070 N   0  0  0  0  0  0  0  0  0  0  0  0
   56.6220   29.3460   43.2440 C   0  0  0  0  0  0  0  0  0  0  0  0
   56.8500   30.7700   42.6880 C   0  0  0  0  0  0  0  0  0  0  0  0
   62.3130   33.3990   49.7420 C   0  0  0  0  0  0  0  0  0  0  0  0
   63.6890   33.1760   49.6400 C   0  0  0  0  0  0  0  0  0  0  0  0
   65.3773   32.9153   48.3031 H   0  0  0  0  0  0  0  0  0  0  0  0
   63.9964   33.1530   46.2355 H   0  0  0  0  0  0  0  0  0  0  0  0
   61.5381   33.5435   46.4111 H   0  0  0  0  0  0  0  0  0  0  0  0
   59.6268   32.9983   49.3820 H   0  0  0  0  0  0  0  0  0  0  0  0
   59.8455   34.7592   49.0709 H   0  0  0  0  0  0  0  0  0  0  0  0
   59.2825   35.7412   46.9769 H   0  0  0  0  0  0  0  0  0  0  0  0
   58.1384   35.4988   44.7476 H   0  0  0  0  0  0  0  0  0  0  0  0
   57.1360   33.6320   42.9940 H   0  0  0  0  0  0  0  0  0  0  0  0
   59.3366   31.4024   47.4290 H   0  0  0  0  0  0  0  0  0  0  0  0
   59.0185   29.3951   45.6380 H   0  0  0  0  0  0  0  0  0  0  0  0
   57.2423   29.4653   45.9485 H   0  0  0  0  0  0  0  0  0  0  0  0
   58.6360   28.9030   43.3920 H   0  0  0  0  0  0  0  0  0  0  0  0
   56.4351   28.6619   42.4031 H   0  0  0  0  0  0  0  0  0  0  0  0
   55.7601   29.3812   43.9266 H   0  0  0  0  0  0  0  0  0  0  0  0
   57.5450   30.7234   41.8366 H   0  0  0  0  0  0  0  0  0  0  0  0
   55.8889   31.1905   42.3571 H   0  0  0  0  0  0  0  0  0  0  0  0
   61.8402   33.4597   50.7333 H   0  0  0  0  0  0  0  0  0  0  0  0
   64.2970   33.0688   50.5504 H   0  0  0  0  0  0  0  0  0  0  0  0
  1  2  2  0
  2  3  1  0
  3  4  2  0
  4  5  1  0
  5  6  1  0
  6  7  2  0
  7  8  1  0
  8  9  2  0
  9 10  1  0
 10 11  1  0
 11 12  2  0
 12 13  1  0
 13 14  2  0
 12 15  1  0
 15 16  1  0
 16 17  1  0
 17 18  1  0
  4 19  1  0
 19 20  2  0
 20  1  1  0
 14  6  1  0
 13  9  1  0
 18 11  1  0
  1 21  1  0
  2 22  1  0
  3 23  1  0
  5 24  1  0
  5 25  1  0
  7 26  1  0
  8 27  1  0
 10 28  1  0
 14 29  1  0
 15 30  1  0
 15 31  1  0
 16 32  1  0
 17 33  1  0
 17 34  1  0
 18 35  1  0
 18 36  1  0
 19 37  1  0
 20 38  1  0
M  END
>  <UniqueID>  (33) 
27

>  <SMILES>  (33) 
c1ccc(Cc2ccc3[nH]c4c(c3c2)CNCC4)cc1

>  <Energy>  (33) 
76.30411898024103

>  <Genealogy>  (33) 
c1ccc(Cc2ccc3[nH]c4c(c3c2)CNCC4)cc1 (3D coordinates assigned)
c1ccc(Cc2ccc3[nH]c4c(c3c2)CNCC4)cc1 (nonaromatic ring conformer: 76.30411898024103 kcal/mol)

>  <smiles>  (33) 
c1ccc(Cc2ccc3[nH]c4c(c3c2)CNCC4)cc1

>  <score_type>  (33) 
oracle

>  <origin>  (33) 
adg

>  <m_score__min__energy>  (33) 
-8.0099999999999998

>  <m_primary>  (33) 
energy

$$$$
33:0
     RDKit          3D

 65 68  0  0  0  0  0  0  0  0999 V2000
   62.5270   26.7570   52.2840 C   0  0  0  0  0  0  0  0  0  0  0  0
   61.1980   27.2270   52.0910 O   0  0  0  0  0  0  0  0  0  0  0  0
   60.7770   28.0000   50.9990 C   0  0  0  0  0  0  0  0  0  0  0  0
   60.7460   27.3940   49.7390 C   0  0  0  0  0  0  0  0  0  0  0  0
   60.3610   28.1220   48.6010 C   0  0  0  0  0  0  0  0  0  0  0  0
   60.3420   27.4660   47.2450 C   0  0  0  0  0  0  0  0  0  0  0  0
   59.5340   28.2680   46.2610 C   0  0  0  0  0  0  0  0  0  0  0  0
   58.1950   28.5890   46.3970 C   0  0  0  0  0  0  0  0  0  0  0  0
   57.8730   29.2440   45.2200 C   0  0  0  0  0  0  0  0  0  0  0  0
   56.5460   29.7420   44.8330 C   0  0  0  0  0  0  0  0  0  0  0  0
   55.5350   28.9940   44.9290 O   0  0  0  0  0  0  0  0  0  0  0  0
   56.4160   31.0730   44.3270 N   0  0  0  0  0  0  0  0  0  0  0  0
   57.0280   32.2520   44.9320 C   0  0  0  0  0  0  0  0  0  0  0  0
   57.7650   31.8340   46.2230 C   0  0  0  0  0  0  0  0  0  0  0  0
   59.0020   32.6990   46.5140 C   0  0  0  0  0  0  0  0  0  0  0  0
   58.7810   34.0820   46.0450 N   0  0  0  0  0  0  0  0  0  0  0  0
   59.8480   34.9890   46.5270 C   0  0  0  0  0  0  0  0  0  0  0  0
   60.8800   34.2410   47.3300 C   0  0  0  0  0  0  0  0  0  0  0  0
   60.7690   34.1570   48.7280 C   0  0  0  0  0  0  0  0  0  0  0  0
   61.7200   33.4510   49.4710 C   0  0  0  0  0  0  0  0  0  0  0  0
   62.7890   32.8210   48.8240 C   0  0  0  0  0  0  0  0  0  0  0  0
   63.9770   31.9260   49.7560 Cl  0  0  0  0  0  0  0  0  0  0  0  0
   62.9110   32.9080   47.4320 C   0  0  0  0  0  0  0  0  0  0  0  0
   61.9630   33.6170   46.6870 C   0  0  0  0  0  0  0  0  0  0  0  0
   58.7140   34.1290   44.5620 C   0  0  0  0  0  0  0  0  0  0  0  0
   58.0010   32.9070   43.9400 C   0  0  0  0  0  0  0  0  0  0  0  0
   58.9660   29.3140   44.4380 N   0  0  0  0  0  0  0  0  0  0  0  0
   59.9690   28.7170   45.0610 N   0  0  0  0  0  0  0  0  0  0  0  0
   61.3210   28.6140   44.5170 C   0  0  0  0  0  0  0  0  0  0  0  0
   59.9970   29.4700   48.7380 C   0  0  0  0  0  0  0  0  0  0  0  0
   60.0080   30.0910   49.9930 C   0  0  0  0  0  0  0  0  0  0  0  0
   59.6410   31.4430   50.0670 O   0  0  0  0  0  0  0  0  0  0  0  0
   58.9300   32.0220   51.1550 C   0  0  0  0  0  0  0  0  0  0  0  0
   60.3940   29.3490   51.1270 C   0  0  0  0  0  0  0  0  0  0  0  0
   62.7369   26.6828   53.3612 H   0  0  0  0  0  0  0  0  0  0  0  0
   62.6364   25.7657   51.8200 H   0  0  0  0  0  0  0  0  0  0  0  0
   63.2353   27.4592   51.8200 H   0  0  0  0  0  0  0  0  0  0  0  0
   61.0263   26.3351   49.6379 H   0  0  0  0  0  0  0  0  0  0  0  0
   61.3741   27.3790   46.8746 H   0  0  0  0  0  0  0  0  0  0  0  0
   59.8798   26.4730   47.3461 H   0  0  0  0  0  0  0  0  0  0  0  0
   57.5341   28.3724   47.2493 H   0  0  0  0  0  0  0  0  0  0  0  0
   56.2491   32.9865   45.1846 H   0  0  0  0  0  0  0  0  0  0  0  0
   57.0679   31.9229   47.0693 H   0  0  0  0  0  0  0  0  0  0  0  0
   58.1117   30.7993   46.0842 H   0  0  0  0  0  0  0  0  0  0  0  0
   59.1913   32.7090   47.5975 H   0  0  0  0  0  0  0  0  0  0  0  0
   59.8681   32.2752   45.9845 H   0  0  0  0  0  0  0  0  0  0  0  0
   60.3383   35.4577   45.6610 H   0  0  0  0  0  0  0  0  0  0  0  0
   59.3898   35.7514   47.1742 H   0  0  0  0  0  0  0  0  0  0  0  0
   59.9295   34.6493   49.2407 H   0  0  0  0  0  0  0  0  0  0  0  0
   61.6278   33.3907   50.5655 H   0  0  0  0  0  0  0  0  0  0  0  0
   63.7541   32.4178   46.9232 H   0  0  0  0  0  0  0  0  0  0  0  0
   62.0654   33.6865   45.5940 H   0  0  0  0  0  0  0  0  0  0  0  0
   58.1696   35.0379   44.2663 H   0  0  0  0  0  0  0  0  0  0  0  0
   59.7493   34.1245   44.1902 H   0  0  0  0  0  0  0  0  0  0  0  0
   57.4389   33.2353   43.0533 H   0  0  0  0  0  0  0  0  0  0  0  0
   58.7661   32.1646   43.6688 H   0  0  0  0  0  0  0  0  0  0  0  0
   59.0260   29.7590   43.4930 H   0  0  0  0  0  0  0  0  0  0  0  0
   62.0454   28.5588   45.3430 H   0  0  0  0  0  0  0  0  0  0  0  0
   61.3996   27.7073   43.8992 H   0  0  0  0  0  0  0  0  0  0  0  0
   61.5360   29.4984   43.8992 H   0  0  0  0  0  0  0  0  0  0  0  0
   59.6995   30.0458   47.8492 H   0  0  0  0  0  0  0  0  0  0  0  0
   59.3617   31.6704   52.1037 H   0  0  0  0  0  0  0  0  0  0  0  0
   59.0065   33.1180   51.1012 H   0  0  0  0  0  0  0  0  0  0  0  0
   57.8722   31.7252   51.1012 H   0  0  0  0  0  0  0  0  0  0  0  0
   60.3962   29.8263   52.1180 H   0  0  0  0  0  0  0  0  0  0  0  0
  1  2  1  0
  2  3  1  0
  3  4  2  0
  4  5  1  0
  5  6  1  0
  6  7  1  0
  7  8  2  0
  8  9  1  0
  9 10  1  0
 10 11  2  0
 10 12  1  0
 12 13  1  0
 13 14  1  0
 14 15  1  0
 15 16  1  0
 16 17  1  0
 17 18  1  0
 18 19  2  0
 19 20  1  0
 20 21  2  0
 21 22  1  0
 21 23  1  0
 23 24  2  0
 16 25  1  0
 25 26  1  0
  9 27  2  0
 27 28  1  0
 28 29  1  0
  5 30  2  0
 30 31  1  0
 31 32  1  0
 32 33  1  0
 31 34  2  0
 34  3  1  0
 28  7  1  0
 26 13  1  0
 24 18  1  0
  1 35  1  0
  1 36  1  0
  1 37  1  0
  4 38  1  0
  6 39  1  0
  6 40  1  0
  8 41  1  0
 13 42  1  0
 14 43  1  0
 14 44  1  0
 15 45  1  0
 15 46  1  0
 17 47  1  0
 17 48  1  0
 19 49  1  0
 20 50  1  0
 23 51  1  0
 24 52  1  0
 25 53  1  0
 25 54  1  0
 26 55  1  0
 26 56  1  0
 27 57  1  0
 29 58  1  0
 29 59  1  0
 29 60  1  0
 30 61  1  0
 33 62  1  0
 33 63  1  0
 33 64  1  0
 34 65  1  0
M  CHG  2  12  -1  27   1
M  END
>  <UniqueID>  (34) 
28

>  <SMILES>  (34) 
COc1cc(Cc2cc(C(=O)[N-]C3CCN(Cc4ccc(Cl)cc4)CC3)[nH+]n2C)cc(OC)c1

>  <Energy>  (34) 
98.35265033486435

>  <Genealogy>  (34) 
COc1cc(Cc2cc(C(=O)[N-]C3CCN(Cc4ccc(Cl)cc4)CC3)[nH+]n2C)cc(OC)c1 (protonated)
COc1cc(Cc2cc(C(=O)[N-]C3CCN(Cc4ccc(Cl)cc4)CC3)[nH+]n2C)cc(OC)c1 (3D coordinates assigned)
COc1cc(Cc2cc(C(=O)[N-]C3CCN(Cc4ccc(Cl)cc4)CC3)[nH+]n2C)cc(OC)c1 (nonaromatic ring conformer: 98.35265033486435 kcal/mol)

>  <smiles>  (34) 
COc1cc(Cc2cc(C(=O)NC3CCN(Cc4ccc(Cl)cc4)CC3)nn2C)cc(OC)c1

>  <score_type>  (34) 
oracle

>  <origin>  (34) 
adg

>  <m_score__min__energy>  (34) 
-9.6999999999999993

>  <m_primary>  (34) 
energy

$$$$
34:0
     RDKit          3D

 44 46  0  0  0  0  0  0  0  0999 V2000
   57.9740   34.1380   45.7410 O   0  0  0  0  0  0  0  0  0  0  0  0
   57.9720   33.0590   46.3970 C   0  0  0  0  0  0  0  0  0  0  0  0
   58.1990   33.0960   47.8760 C   0  0  0  0  0  0  0  0  0  0  0  0
   59.2140   34.0980   48.2030 N   0  0  0  0  0  0  0  0  0  0  0  0
   60.6250   33.8510   48.0820 C   0  0  0  0  0  0  0  0  0  0  0  0
   61.3740   33.5810   49.2390 C   0  0  0  0  0  0  0  0  0  0  0  0
   62.7480   33.3440   49.1540 C   0  0  0  0  0  0  0  0  0  0  0  0
   63.3860   33.3520   47.9100 C   0  0  0  0  0  0  0  0  0  0  0  0
   62.6450   33.5910   46.7490 C   0  0  0  0  0  0  0  0  0  0  0  0
   61.2680   33.8310   46.8260 C   0  0  0  0  0  0  0  0  0  0  0  0
   60.5690   33.9810   45.6790 F   0  0  0  0  0  0  0  0  0  0  0  0
   57.7540   31.8070   45.7330 N   0  0  0  0  0  0  0  0  0  0  0  0
   57.6020   31.7180   44.3100 C   0  0  0  0  0  0  0  0  0  0  0  0
   58.3110   32.6210   43.5070 C   0  0  0  0  0  0  0  0  0  0  0  0
   58.1550   32.6120   42.1210 C   0  0  0  0  0  0  0  0  0  0  0  0
   57.2930   31.6950   41.5220 C   0  0  0  0  0  0  0  0  0  0  0  0
   56.5980   30.7700   42.3050 C   0  0  0  0  0  0  0  0  0  0  0  0
   56.7520   30.7530   43.7060 C   0  0  0  0  0  0  0  0  0  0  0  0
   56.0630   29.6990   44.4940 C   0  0  0  0  0  0  0  0  0  0  0  0
   54.9040   29.3180   44.1710 O   0  0  0  0  0  0  0  0  0  0  0  0
   56.6710   29.1870   45.6860 N   0  0  0  0  0  0  0  0  0  0  0  0
   57.3230   27.9180   45.8200 C   0  0  0  0  0  0  0  0  0  0  0  0
   58.7270   27.8140   45.8380 C   0  0  0  0  0  0  0  0  0  0  0  0
   59.3380   26.5650   45.9880 C   0  0  0  0  0  0  0  0  0  0  0  0
   58.5550   25.4150   46.1290 C   0  0  0  0  0  0  0  0  0  0  0  0
   57.1590   25.5130   46.1360 C   0  0  0  0  0  0  0  0  0  0  0  0
   56.5440   26.7610   45.9870 C   0  0  0  0  0  0  0  0  0  0  0  0
   55.1550   26.8460   45.9980 O   0  0  0  0  0  0  0  0  0  0  0  0
   57.2571   33.3533   48.3825 H   0  0  0  0  0  0  0  0  0  0  0  0
   58.5464   32.1079   48.2122 H   0  0  0  0  0  0  0  0  0  0  0  0
   58.8940   35.0920   48.2230 H   0  0  0  0  0  0  0  0  0  0  0  0
   60.8751   33.5560   50.2190 H   0  0  0  0  0  0  0  0  0  0  0  0
   63.3292   33.1507   50.0677 H   0  0  0  0  0  0  0  0  0  0  0  0
   64.4690   33.1706   47.8449 H   0  0  0  0  0  0  0  0  0  0  0  0
   63.1465   33.5905   45.7700 H   0  0  0  0  0  0  0  0  0  0  0  0
   57.9050   30.9210   46.2650 H   0  0  0  0  0  0  0  0  0  0  0  0
   58.9967   33.3434   43.9737 H   0  0  0  0  0  0  0  0  0  0  0  0
   58.7125   33.3289   41.5004 H   0  0  0  0  0  0  0  0  0  0  0  0
   57.1596   31.6996   40.4301 H   0  0  0  0  0  0  0  0  0  0  0  0
   55.9233   30.0472   41.8230 H   0  0  0  0  0  0  0  0  0  0  0  0
   59.3452   28.7179   45.7338 H   0  0  0  0  0  0  0  0  0  0  0  0
   60.4352   26.4872   45.9951 H   0  0  0  0  0  0  0  0  0  0  0  0
   59.0371   24.4319   46.2346 H   0  0  0  0  0  0  0  0  0  0  0  0
   56.5450   24.6086   46.2587 H   0  0  0  0  0  0  0  0  0  0  0  0
  1  2  2  0
  2  3  1  0
  3  4  1  0
  4  5  1  0
  5  6  2  0
  6  7  1  0
  7  8  2  0
  8  9  1  0
  9 10  2  0
 10 11  1  0
  2 12  1  0
 12 13  1  0
 13 14  2  0
 14 15  1  0
 15 16  2  0
 16 17  1  0
 17 18  2  0
 18 19  1  0
 19 20  2  0
 19 21  1  0
 21 22  1  0
 22 23  2  0
 23 24  1  0
 24 25  2  0
 25 26  1  0
 26 27  2  0
 27 28  1  0
 10  5  1  0
 18 13  1  0
 27 22  1  0
  3 29  1  0
  3 30  1  0
  4 31  1  0
  6 32  1  0
  7 33  1  0
  8 34  1  0
  9 35  1  0
 12 36  1  0
 14 37  1  0
 15 38  1  0
 16 39  1  0
 17 40  1  0
 23 41  1  0
 24 42  1  0
 25 43  1  0
 26 44  1  0
M  CHG  2  21  -1  28  -1
M  END
>  <UniqueID>  (35) 
29

>  <SMILES>  (35) 
O=C(CNc1ccccc1F)Nc1ccccc1C(=O)[N-]c1ccccc1[O-]

>  <Energy>  (35) 
61.38360235004647

>  <Genealogy>  (35) 
O=C(CNc1ccccc1F)Nc1ccccc1C(=O)[N-]c1ccccc1[O-] (protonated)
O=C(CNc1ccccc1F)Nc1ccccc1C(=O)[N-]c1ccccc1[O-] (3D coordinates assigned)
O=C(CNc1ccccc1F)Nc1ccccc1C(=O)[N-]c1ccccc1[O-] (optimized conformer: 61.38360235004647 kcal/mol)

>  <smiles>  (35) 
O=C(CNc1ccccc1F)Nc1ccccc1C(=O)Nc1ccccc1O

>  <score_type>  (35) 
oracle

>  <origin>  (35) 
adg

>  <m_score__min__energy>  (35) 
-14.470000000000001

>  <m_primary>  (35) 
energy

$$$$
35:0
     RDKit          3D

 23 24  0  0  0  0  0  0  0  0999 V2000
   53.9330   25.1930   45.6510 O   0  0  0  0  0  0  0  0  0  0  0  0
   55.1910   25.1510   45.6080 C   0  0  0  0  0  0  0  0  0  0  0  0
   55.9370   26.1590   46.3070 N   0  0  0  0  0  0  0  0  0  0  0  0
   56.5970   27.1360   45.7570 C   0  0  0  0  0  0  0  0  0  0  0  0
   57.9540   27.0840   45.7210 N   0  0  0  0  0  0  0  0  0  0  0  0
   58.6820   28.0900   45.1710 C   0  0  0  0  0  0  0  0  0  0  0  0
   58.0350   29.2040   44.6360 C   0  0  0  0  0  0  0  0  0  0  0  0
   56.6440   29.2510   44.6890 C   0  0  0  0  0  0  0  0  0  0  0  0
   55.9520   28.2250   45.2490 N   0  0  0  0  0  0  0  0  0  0  0  0
   55.8380   24.0400   44.8790 C   0  0  0  0  0  0  0  0  0  0  0  0
   55.2450   23.4230   43.8470 C   0  0  0  0  0  0  0  0  0  0  0  0
   55.8790   22.3430   43.2230 O   0  0  0  0  0  0  0  0  0  0  0  0
   57.0190   21.7090   43.8040 C   0  0  0  0  0  0  0  0  0  0  0  0
   57.9160   22.7630   44.4550 C   0  0  0  0  0  0  0  0  0  0  0  0
   57.1250   23.6340   45.2650 O   0  0  0  0  0  0  0  0  0  0  0  0
   59.7799   28.0264   45.1475 H   0  0  0  0  0  0  0  0  0  0  0  0
   58.6095   30.0255   44.1832 H   0  0  0  0  0  0  0  0  0  0  0  0
   56.1064   30.1181   44.2778 H   0  0  0  0  0  0  0  0  0  0  0  0
   54.2619   23.7652   43.4915 H   0  0  0  0  0  0  0  0  0  0  0  0
   56.6882   20.9884   44.5664 H   0  0  0  0  0  0  0  0  0  0  0  0
   57.5834   21.1827   43.0201 H   0  0  0  0  0  0  0  0  0  0  0  0
   58.6699   22.2647   45.0821 H   0  0  0  0  0  0  0  0  0  0  0  0
   58.4172   23.3496   43.6710 H   0  0  0  0  0  0  0  0  0  0  0  0
  1  2  2  0
  2  3  1  0
  3  4  2  3
  4  5  1  0
  5  6  2  0
  6  7  1  0
  7  8  2  0
  8  9  1  0
  2 10  1  0
 10 11  2  0
 11 12  1  0
 12 13  1  0
 13 14  1  0
 14 15  1  0
  9  4  1  0
 15 10  1  0
  6 16  1  0
  7 17  1  0
  8 18  1  0
 11 19  1  0
 13 20  1  0
 13 21  1  0
 14 22  1  0
 14 23  1  0
M  CHG  1   9  -1
M  END
>  <UniqueID>  (36) 
30

>  <SMILES>  (36) 
O=C(N=c1nccc[n-]1)C1=COCCO1

>  <Energy>  (36) 
31.12100188466445

>  <Genealogy>  (36) 
O=C(N=c1nccc[n-]1)C1=COCCO1 (protonated)
O=C(N=c1nccc[n-]1)C1=COCCO1 (3D coordinates assigned)
O=C(N=c1nccc[n-]1)C1=COCCO1 (nonaromatic ring conformer: 31.12100188466445 kcal/mol)

>  <smiles>  (36) 
O=C(N=c1nccc[nH]1)C1=COCCO1

>  <score_type>  (36) 
oracle

>  <origin>  (36) 
adg

>  <m_score__min__energy>  (36) 
-7.2999999999999998

>  <m_primary>  (36) 
energy

$$$$
36:0
     RDKit          3D

 46 48  0  0  0  0  0  0  0  0999 V2000
   55.3640   29.3690   44.8350 N   0  0  0  0  0  0  0  0  0  0  0  0
   56.7510   29.9460   43.9780 S   0  0  0  0  0  0  0  0  0  0  0  0
   56.3230   30.3610   42.5970 O   0  0  0  0  0  0  0  0  0  0  0  0
   57.7690   28.8470   43.8790 O   0  0  0  0  0  0  0  0  0  0  0  0
   57.4550   31.3230   44.8200 C   0  0  0  0  0  0  0  0  0  0  0  0
   57.6840   32.5270   44.1390 C   0  0  0  0  0  0  0  0  0  0  0  0
   58.2320   33.6230   44.8120 C   0  0  0  0  0  0  0  0  0  0  0  0
   58.5500   33.5260   46.1730 C   0  0  0  0  0  0  0  0  0  0  0  0
   59.2620   34.9270   47.0410 S   0  0  0  0  0  0  0  0  0  0  0  0
   60.8010   34.0710   47.4280 C   0  0  0  0  0  0  0  0  0  0  0  0
   61.7790   33.9770   46.4270 C   0  0  0  0  0  0  0  0  0  0  0  0
   62.9850   33.3170   46.6740 C   0  0  0  0  0  0  0  0  0  0  0  0
   63.2270   32.7530   47.9270 C   0  0  0  0  0  0  0  0  0  0  0  0
   62.2720   32.8580   48.9400 C   0  0  0  0  0  0  0  0  0  0  0  0
   61.0550   33.5250   48.7090 C   0  0  0  0  0  0  0  0  0  0  0  0
   60.0760   33.6800   49.8490 C   0  0  0  0  0  0  0  0  0  0  0  0
   58.9000   32.8250   49.6640 N   0  0  0  0  0  0  0  0  0  0  0  0
   59.2160   31.1840   50.1500 S   0  0  0  0  0  0  0  0  0  0  0  0
   60.3920   31.1560   51.0880 O   0  0  0  0  0  0  0  0  0  0  0  0
   58.0150   30.6520   50.8800 O   0  0  0  0  0  0  0  0  0  0  0  0
   59.5270   30.1620   48.7480 C   0  0  0  0  0  0  0  0  0  0  0  0
   58.7140   29.0450   48.5120 C   0  0  0  0  0  0  0  0  0  0  0  0
   58.9280   28.2450   47.3860 C   0  0  0  0  0  0  0  0  0  0  0  0
   59.9580   28.5530   46.4870 C   0  0  0  0  0  0  0  0  0  0  0  0
   60.1770   27.7350   45.3350 N   0  0  0  0  0  0  0  0  0  0  0  0
   60.7750   29.6690   46.7250 C   0  0  0  0  0  0  0  0  0  0  0  0
   60.5600   30.4700   47.8510 C   0  0  0  0  0  0  0  0  0  0  0  0
   58.3320   32.3200   46.8510 C   0  0  0  0  0  0  0  0  0  0  0  0
   57.7790   31.2250   46.1800 C   0  0  0  0  0  0  0  0  0  0  0  0
   55.1730   28.4020   44.4920 H   0  0  0  0  0  0  0  0  0  0  0  0
   57.4316   32.6095   43.0715 H   0  0  0  0  0  0  0  0  0  0  0  0
   58.4139   34.5637   44.2717 H   0  0  0  0  0  0  0  0  0  0  0  0
   61.5949   34.4264   45.4400 H   0  0  0  0  0  0  0  0  0  0  0  0
   63.7436   33.2419   45.8810 H   0  0  0  0  0  0  0  0  0  0  0  0
   64.1726   32.2243   48.1172 H   0  0  0  0  0  0  0  0  0  0  0  0
   62.4728   32.4156   49.9269 H   0  0  0  0  0  0  0  0  0  0  0  0
   60.5751   33.4035   50.7895 H   0  0  0  0  0  0  0  0  0  0  0  0
   59.7414   34.7275   49.8779 H   0  0  0  0  0  0  0  0  0  0  0  0
   57.9051   28.7972   49.2150 H   0  0  0  0  0  0  0  0  0  0  0  0
   58.2857   27.3706   47.2049 H   0  0  0  0  0  0  0  0  0  0  0  0
   61.0080   27.1030   45.2780 H   0  0  0  0  0  0  0  0  0  0  0  0
   59.5020   27.7430   44.5380 H   0  0  0  0  0  0  0  0  0  0  0  0
   61.5865   29.9143   46.0241 H   0  0  0  0  0  0  0  0  0  0  0  0
   61.2028   31.3438   48.0335 H   0  0  0  0  0  0  0  0  0  0  0  0
   58.5968   32.2340   47.9152 H   0  0  0  0  0  0  0  0  0  0  0  0
   57.5978   30.2844   46.7208 H   0  0  0  0  0  0  0  0  0  0  0  0
  1  2  1  0
  2  3  2  0
  2  4  2  0
  2  5  1  0
  5  6  2  0
  6  7  1  0
  7  8  2  0
  8  9  1  0
  9 10  1  0
 10 11  2  0
 11 12  1  0
 12 13  2  0
 13 14  1  0
 14 15  2  0
 15 16  1  0
 16 17  1  0
 17 18  1  0
 18 19  2  0
 18 20  2  0
 18 21  1  0
 21 22  2  0
 22 23  1  0
 23 24  2  0
 24 25  1  0
 24 26  1  0
 26 27  2  0
  8 28  1  0
 28 29  2  0
 29  5  1  0
 15 10  1  0
 27 21  1  0
  1 30  1  0
  6 31  1  0
  7 32  1  0
 11 33  1  0
 12 34  1  0
 13 35  1  0
 14 36  1  0
 16 37  1  0
 16 38  1  0
 22 39  1  0
 23 40  1  0
 25 41  1  0
 25 42  1  0
 26 43  1  0
 27 44  1  0
 28 45  1  0
 29 46  1  0
M  CHG  2   1  -1  17  -1
M  END
>  <UniqueID>  (37) 
31

>  <SMILES>  (37) 
[NH-]S(=O)(=O)c1ccc(Sc2ccccc2C[N-]S(=O)(=O)c2ccc(N)cc2)cc1

>  <Energy>  (37) 
42.85310041874524

>  <Genealogy>  (37) 
[NH-]S(=O)(=O)c1ccc(Sc2ccccc2C[N-]S(=O)(=O)c2ccc(N)cc2)cc1 (protonated)
[NH-]S(=O)(=O)c1ccc(Sc2ccccc2C[N-]S(=O)(=O)c2ccc(N)cc2)cc1 (3D coordinates assigned)
[NH-]S(=O)(=O)c1ccc(Sc2ccccc2C[N-]S(=O)(=O)c2ccc(N)cc2)cc1 (optimized conformer: 42.85310041874524 kcal/mol)

>  <smiles>  (37) 
Nc1ccc(S(=O)(=O)NCc2ccccc2Sc2ccc(S(N)(=O)=O)cc2)cc1

>  <score_type>  (37) 
oracle

>  <origin>  (37) 
adg

>  <m_score__min__energy>  (37) 
-12.390000000000001

>  <m_primary>  (37) 
energy

$$$$
37:0
     RDKit          3D

 62 65  0  0  0  0  0  0  0  0999 V2000
   60.5770   27.2780   49.1690 C   0  0  0  0  0  0  0  0  0  0  0  0
   60.7550   27.6930   47.8170 O   0  0  0  0  0  0  0  0  0  0  0  0
   59.7280   28.1690   46.9880 C   0  0  0  0  0  0  0  0  0  0  0  0
   58.4290   27.6260   47.0000 C   0  0  0  0  0  0  0  0  0  0  0  0
   57.4360   28.1550   46.1670 C   0  0  0  0  0  0  0  0  0  0  0  0
   57.7290   29.2190   45.3050 C   0  0  0  0  0  0  0  0  0  0  0  0
   56.4660   29.8990   44.2890 S   0  0  0  0  0  0  0  0  0  0  0  0
   55.1520   29.2140   44.5340 O   0  0  0  0  0  0  0  0  0  0  0  0
   56.8450   29.6980   42.8500 O   0  0  0  0  0  0  0  0  0  0  0  0
   56.2790   31.5960   44.5980 N   0  0  0  0  0  0  0  0  0  0  0  0
   57.3030   32.4520   45.1200 C   0  0  0  0  0  0  0  0  0  0  0  0
   58.1800   33.1610   44.2840 C   0  0  0  0  0  0  0  0  0  0  0  0
   59.1690   33.9820   44.8330 C   0  0  0  0  0  0  0  0  0  0  0  0
   59.3180   34.0830   46.2240 C   0  0  0  0  0  0  0  0  0  0  0  0
   60.4120   34.9460   46.8190 C   0  0  0  0  0  0  0  0  0  0  0  0
   61.5770   34.1470   47.2770 N   0  0  2  0  0  0  0  0  0  0  0  0
   61.5520   32.7500   46.7370 C   0  0  0  0  0  0  0  0  0  0  0  0
   61.3140   31.6710   47.8060 C   0  0  0  0  0  0  0  0  0  0  0  0
   62.3640   31.7560   48.9400 C   0  0  2  0  0  0  0  0  0  0  0  0
   61.8930   30.9770   50.1890 C   0  0  0  0  0  0  0  0  0  0  0  0
   60.4340   31.2250   50.4860 C   0  0  0  0  0  0  0  0  0  0  0  0
   60.0280   32.4400   51.0660 C   0  0  0  0  0  0  0  0  0  0  0  0
   58.6830   32.6550   51.3890 C   0  0  0  0  0  0  0  0  0  0  0  0
   57.7380   31.6520   51.1530 C   0  0  0  0  0  0  0  0  0  0  0  0
   58.1340   30.4400   50.5790 C   0  0  0  0  0  0  0  0  0  0  0  0
   59.4750   30.2270   50.2430 C   0  0  0  0  0  0  0  0  0  0  0  0
   62.7140   33.2290   49.2920 C   0  0  0  0  0  0  0  0  0  0  0  0
   61.6640   34.2110   48.7550 C   0  0  0  0  0  0  0  0  0  0  0  0
   58.4290   33.3850   47.0580 C   0  0  0  0  0  0  0  0  0  0  0  0
   57.4250   32.5860   46.5050 C   0  0  0  0  0  0  0  0  0  0  0  0
   59.0240   29.7560   45.2880 C   0  0  0  0  0  0  0  0  0  0  0  0
   60.0150   29.2310   46.1210 C   0  0  0  0  0  0  0  0  0  0  0  0
   60.9190   28.0753   49.8453 H   0  0  0  0  0  0  0  0  0  0  0  0
   59.5119   27.0733   49.3525 H   0  0  0  0  0  0  0  0  0  0  0  0
   61.1628   26.3652   49.3525 H   0  0  0  0  0  0  0  0  0  0  0  0
   58.1935   26.7830   47.6663 H   0  0  0  0  0  0  0  0  0  0  0  0
   56.4205   27.7328   46.1897 H   0  0  0  0  0  0  0  0  0  0  0  0
   58.0884   33.0700   43.1916 H   0  0  0  0  0  0  0  0  0  0  0  0
   59.8352   34.5529   44.1695 H   0  0  0  0  0  0  0  0  0  0  0  0
   60.7523   35.6612   46.0557 H   0  0  0  0  0  0  0  0  0  0  0  0
   59.9931   35.4614   47.6959 H   0  0  0  0  0  0  0  0  0  0  0  0
   62.4460   34.6080   46.9180 H   0  0  0  0  0  0  0  0  0  0  0  0
   60.7464   32.6817   45.9912 H   0  0  0  0  0  0  0  0  0  0  0  0
   62.5455   32.5574   46.3058 H   0  0  0  0  0  0  0  0  0  0  0  0
   60.3111   31.8089   48.2362 H   0  0  0  0  0  0  0  0  0  0  0  0
   61.4019   30.6847   47.3270 H   0  0  0  0  0  0  0  0  0  0  0  0
   63.2866   31.2829   48.5725 H   0  0  0  0  0  0  0  0  0  0  0  0
   62.0434   29.9012   50.0155 H   0  0  0  0  0  0  0  0  0  0  0  0
   62.4816   31.3241   51.0510 H   0  0  0  0  0  0  0  0  0  0  0  0
   60.7712   33.2256   51.2670 H   0  0  0  0  0  0  0  0  0  0  0  0
   58.3695   33.6134   51.8286 H   0  0  0  0  0  0  0  0  0  0  0  0
   56.6833   31.8163   51.4188 H   0  0  0  0  0  0  0  0  0  0  0  0
   57.3894   29.6524   50.3913 H   0  0  0  0  0  0  0  0  0  0  0  0
   59.7803   29.2739   49.7865 H   0  0  0  0  0  0  0  0  0  0  0  0
   62.7685   33.3298   50.3860 H   0  0  0  0  0  0  0  0  0  0  0  0
   63.6789   33.4715   48.8227 H   0  0  0  0  0  0  0  0  0  0  0  0
   60.6832   33.9574   49.1835 H   0  0  0  0  0  0  0  0  0  0  0  0
   61.9610   35.2303   49.0427 H   0  0  0  0  0  0  0  0  0  0  0  0
   58.5236   33.4678   48.1508 H   0  0  0  0  0  0  0  0  0  0  0  0
   56.7236   32.0571   47.1670 H   0  0  0  0  0  0  0  0  0  0  0  0
   59.2607   30.5941   44.6160 H   0  0  0  0  0  0  0  0  0  0  0  0
   61.0295   29.6553   46.0958 H   0  0  0  0  0  0  0  0  0  0  0  0
  1  2  1  0
  2  3  1  0
  3  4  2  0
  4  5  1  0
  5  6  2  0
  6  7  1  0
  7  8  2  0
  7  9  2  0
  7 10  1  0
 10 11  1  0
 11 12  2  0
 12 13  1  0
 13 14  2  0
 14 15  1  0
 15 16  1  0
 16 17  1  0
 17 18  1  0
 18 19  1  0
 19 20  1  0
 20 21  1  0
 21 22  2  0
 22 23  1  0
 23 24  2  0
 24 25  1  0
 25 26  2  0
 19 27  1  0
 27 28  1  0
 14 29  1  0
 29 30  2  0
  6 31  1  0
 31 32  2  0
 32  3  1  0
 30 11  1  0
 28 16  1  0
 26 21  1  0
  1 33  1  0
  1 34  1  0
  1 35  1  0
  4 36  1  0
  5 37  1  0
 12 38  1  0
 13 39  1  0
 15 40  1  0
 15 41  1  0
 16 42  1  6
 17 43  1  0
 17 44  1  0
 18 45  1  0
 18 46  1  0
 19 47  1  6
 20 48  1  0
 20 49  1  0
 22 50  1  0
 23 51  1  0
 24 52  1  0
 25 53  1  0
 26 54  1  0
 27 55  1  0
 27 56  1  0
 28 57  1  0
 28 58  1  0
 29 59  1  0
 30 60  1  0
 31 61  1  0
 32 62  1  0
M  CHG  2  10  -1  16   1
M  END
>  <UniqueID>  (38) 
32

>  <SMILES>  (38) 
COc1ccc(S(=O)(=O)[N-]c2ccc(C[NH+]3CCC(Cc4ccccc4)CC3)cc2)cc1

>  <Energy>  (38) 
77.14799552036358

>  <Genealogy>  (38) 
COc1ccc(S(=O)(=O)[N-]c2ccc(C[NH+]3CCC(Cc4ccccc4)CC3)cc2)cc1 (protonated)
COc1ccc(S(=O)(=O)[N-]c2ccc(C[NH+]3CCC(Cc4ccccc4)CC3)cc2)cc1 (3D coordinates assigned)
COc1ccc(S(=O)(=O)[N-]c2ccc(C[NH+]3CCC(Cc4ccccc4)CC3)cc2)cc1 (nonaromatic ring conformer: 77.14799552036358 kcal/mol)

>  <smiles>  (38) 
COc1ccc(S(=O)(=O)Nc2ccc(CN3CCC(Cc4ccccc4)CC3)cc2)cc1

>  <score_type>  (38) 
oracle

>  <origin>  (38) 
adg

>  <m_score__min__energy>  (38) 
-10.24

>  <m_primary>  (38) 
energy

$$$$
38:0
     RDKit          3D

 51 53  0  0  0  0  0  0  0  0999 V2000
   64.1110   33.7560   50.8980 C   0  0  0  0  0  0  0  0  0  0  0  0
   63.8510   33.3220   49.4850 C   0  0  0  0  0  0  0  0  0  0  0  0
   64.7720   32.7230   48.8620 O   0  0  0  0  0  0  0  0  0  0  0  0
   62.5500   33.5870   48.8100 C   0  0  0  0  0  0  0  0  0  0  0  0
   61.3960   33.8390   49.5750 C   0  0  0  0  0  0  0  0  0  0  0  0
   60.1650   34.0720   48.9520 C   0  0  0  0  0  0  0  0  0  0  0  0
   60.0560   34.0510   47.5590 C   0  0  0  0  0  0  0  0  0  0  0  0
   58.7880   34.2570   46.9870 O   0  0  0  0  0  0  0  0  0  0  0  0
   57.7390   33.2880   46.9380 C   0  0  0  0  0  0  0  0  0  0  0  0
   57.7040   32.6290   45.5900 C   0  0  0  0  0  0  0  0  0  0  0  0
   58.2820   33.2540   44.4750 C   0  0  0  0  0  0  0  0  0  0  0  0
   58.1690   32.6530   43.2200 C   0  0  0  0  0  0  0  0  0  0  0  0
   57.4720   31.4490   43.0830 C   0  0  0  0  0  0  0  0  0  0  0  0
   56.8850   30.8600   44.2150 C   0  0  0  0  0  0  0  0  0  0  0  0
   56.0860   29.6280   44.1120 C   0  0  0  0  0  0  0  0  0  0  0  0
   55.5810   29.3070   43.0010 O   0  0  0  0  0  0  0  0  0  0  0  0
   55.8990   28.7850   45.2540 N   0  0  0  0  0  0  0  0  0  0  0  0
   56.7760   27.6630   45.5810 C   0  0  1  0  0  0  0  0  0  0  0  0
   57.5180   27.9090   46.9130 C   0  0  0  0  0  0  0  0  0  0  0  0
   58.7610   28.7530   46.7490 C   0  0  0  0  0  0  0  0  0  0  0  0
   59.0250   29.8070   47.6430 C   0  0  0  0  0  0  0  0  0  0  0  0
   60.1470   30.6200   47.4600 C   0  0  0  0  0  0  0  0  0  0  0  0
   61.0130   30.3890   46.3880 C   0  0  0  0  0  0  0  0  0  0  0  0
   60.7610   29.3430   45.4990 C   0  0  0  0  0  0  0  0  0  0  0  0
   59.6450   28.5210   45.6820 C   0  0  0  0  0  0  0  0  0  0  0  0
   55.9850   26.3880   45.6200 C   0  0  0  0  0  0  0  0  0  0  0  0
   54.7720   26.3950   45.9580 O   0  0  0  0  0  0  0  0  0  0  0  0
   56.6090   25.1800   45.3340 O   0  0  0  0  0  0  0  0  0  0  0  0
   57.0200   31.4640   45.4280 N   0  0  0  0  0  0  0  0  0  0  0  0
   61.2110   33.8280   46.7860 C   0  0  0  0  0  0  0  0  0  0  0  0
   62.4430   33.5950   47.4060 C   0  0  0  0  0  0  0  0  0  0  0  0
   63.6727   33.0244   51.5928 H   0  0  0  0  0  0  0  0  0  0  0  0
   65.1959   33.8193   51.0684 H   0  0  0  0  0  0  0  0  0  0  0  0
   63.6549   34.7424   51.0684 H   0  0  0  0  0  0  0  0  0  0  0  0
   61.4624   33.8529   50.6729 H   0  0  0  0  0  0  0  0  0  0  0  0
   59.2741   34.2737   49.5649 H   0  0  0  0  0  0  0  0  0  0  0  0
   57.9129   32.5249   47.7110 H   0  0  0  0  0  0  0  0  0  0  0  0
   56.7772   33.7912   47.1164 H   0  0  0  0  0  0  0  0  0  0  0  0
   58.8186   34.2075   44.5883 H   0  0  0  0  0  0  0  0  0  0  0  0
   58.6281   33.1265   42.3396 H   0  0  0  0  0  0  0  0  0  0  0  0
   57.3841   30.9674   42.0979 H   0  0  0  0  0  0  0  0  0  0  0  0
   57.5405   27.5712   44.7954 H   0  0  0  0  0  0  0  0  0  0  0  0
   56.8346   28.4223   47.6054 H   0  0  0  0  0  0  0  0  0  0  0  0
   57.8342   26.9289   47.2996 H   0  0  0  0  0  0  0  0  0  0  0  0
   58.3462   29.9917   48.4886 H   0  0  0  0  0  0  0  0  0  0  0  0
   60.3487   31.4432   48.1611 H   0  0  0  0  0  0  0  0  0  0  0  0
   61.8939   31.0320   46.2447 H   0  0  0  0  0  0  0  0  0  0  0  0
   61.4414   29.1651   44.6532 H   0  0  0  0  0  0  0  0  0  0  0  0
   59.4582   27.6888   44.9874 H   0  0  0  0  0  0  0  0  0  0  0  0
   61.1444   33.8370   45.6881 H   0  0  0  0  0  0  0  0  0  0  0  0
   63.3371   33.4163   46.7907 H   0  0  0  0  0  0  0  0  0  0  0  0
  1  2  1  0
  2  3  2  0
  2  4  1  0
  4  5  2  0
  5  6  1  0
  6  7  2  0
  7  8  1  0
  8  9  1  0
  9 10  1  0
 10 11  2  0
 11 12  1  0
 12 13  2  0
 13 14  1  0
 14 15  1  0
 15 16  2  0
 15 17  1  0
 17 18  1  0
 18 19  1  0
 19 20  1  0
 20 21  2  0
 21 22  1  0
 22 23  2  0
 23 24  1  0
 24 25  2  0
 18 26  1  0
 26 27  2  0
 26 28  1  0
 14 29  2  0
  7 30  1  0
 30 31  2  0
 31  4  1  0
 29 10  1  0
 25 20  1  0
  1 32  1  0
  1 33  1  0
  1 34  1  0
  5 35  1  0
  6 36  1  0
  9 37  1  0
  9 38  1  0
 11 39  1  0
 12 40  1  0
 13 41  1  0
 18 42  1  6
 19 43  1  0
 19 44  1  0
 21 45  1  0
 22 46  1  0
 23 47  1  0
 24 48  1  0
 25 49  1  0
 30 50  1  0
 31 51  1  0
M  CHG  2  17  -1  28  -1
M  END
>  <UniqueID>  (39) 
33

>  <SMILES>  (39) 
CC(=O)c1ccc(OCc2cccc(C(=O)[N-][C@@H](Cc3ccccc3)C(=O)[O-])n2)cc1

>  <Energy>  (39) 
49.35546866341569

>  <Genealogy>  (39) 
CC(=O)c1ccc(OCc2cccc(C(=O)[N-]C(Cc3ccccc3)C(=O)[O-])n2)cc1 (protonated)
CC(=O)c1ccc(OCc2cccc(C(=O)[N-][C@@H](Cc3ccccc3)C(=O)[O-])n2)cc1 (chirality)
CC(=O)c1ccc(OCc2cccc(C(=O)[N-][C@@H](Cc3ccccc3)C(=O)[O-])n2)cc1 (3D coordinates assigned)
CC(=O)c1ccc(OCc2cccc(C(=O)[N-][C@@H](Cc3ccccc3)C(=O)[O-])n2)cc1 (optimized conformer: 49.35546866341569 kcal/mol)

>  <smiles>  (39) 
CC(=O)c1ccc(OCc2cccc(C(=O)NC(Cc3ccccc3)C(=O)O)n2)cc1

>  <score_type>  (39) 
oracle

>  <origin>  (39) 
adg

>  <m_score__min__energy>  (39) 
-14.65

>  <m_primary>  (39) 
energy

$$$$
39:0
     RDKit          3D

 47 49  0  0  0  0  0  0  0  0999 V2000
   59.9320   34.8020   46.4290 C   0  0  0  0  0  0  0  0  0  0  0  0
   61.0290   33.9740   46.0570 O   0  0  0  0  0  0  0  0  0  0  0  0
   61.8190   33.2450   46.9600 C   0  0  0  0  0  0  0  0  0  0  0  0
   62.9670   33.7980   47.5630 C   0  0  0  0  0  0  0  0  0  0  0  0
   63.7170   33.0490   48.4730 C   0  0  0  0  0  0  0  0  0  0  0  0
   63.3350   31.7460   48.7890 C   0  0  0  0  0  0  0  0  0  0  0  0
   62.2010   31.1860   48.1990 C   0  0  0  0  0  0  0  0  0  0  0  0
   61.4340   31.9320   47.2880 C   0  0  0  0  0  0  0  0  0  0  0  0
   60.2620   31.3590   46.6860 N   0  0  0  0  0  0  0  0  0  0  0  0
   58.9440   31.5770   47.2040 C   0  0  0  0  0  0  0  0  0  0  0  0
   58.7760   32.1990   48.2890 O   0  0  0  0  0  0  0  0  0  0  0  0
   57.8370   31.1380   46.4680 O   0  0  0  0  0  0  0  0  0  0  0  0
   57.6700   31.4230   45.1070 C   0  0  0  0  0  0  0  0  0  0  0  0
   58.1780   32.6280   44.6090 C   0  0  0  0  0  0  0  0  0  0  0  0
   58.1000   32.9200   43.2460 C   0  0  0  0  0  0  0  0  0  0  0  0
   57.5010   32.0120   42.3680 C   0  0  0  0  0  0  0  0  0  0  0  0
   57.4120   32.3780   40.6550 Cl  0  0  0  0  0  0  0  0  0  0  0  0
   56.9570   30.8210   42.8580 C   0  0  0  0  0  0  0  0  0  0  0  0
   57.0100   30.5250   44.2300 C   0  0  0  0  0  0  0  0  0  0  0  0
   56.3380   29.3110   44.7360 C   0  0  0  0  0  0  0  0  0  0  0  0
   55.1290   29.3670   45.0910 O   0  0  0  0  0  0  0  0  0  0  0  0
   57.0440   28.0650   44.7810 N   0  0  0  0  0  0  0  0  0  0  0  0
   58.1250   27.7520   45.6730 C   0  0  0  0  0  0  0  0  0  0  0  0
   59.3370   28.4670   45.6260 C   0  0  0  0  0  0  0  0  0  0  0  0
   60.3890   28.1350   46.4810 C   0  0  0  0  0  0  0  0  0  0  0  0
   60.2490   27.0820   47.3850 C   0  0  0  0  0  0  0  0  0  0  0  0
   59.0620   26.3480   47.4280 C   0  0  0  0  0  0  0  0  0  0  0  0
   57.9970   26.6680   46.5670 C   0  0  0  0  0  0  0  0  0  0  0  0
   56.7220   25.8710   46.6210 C   0  0  0  0  0  0  0  0  0  0  0  0
   59.8658   34.8520   47.5259 H   0  0  0  0  0  0  0  0  0  0  0  0
   60.0824   35.8137   46.0243 H   0  0  0  0  0  0  0  0  0  0  0  0
   59.0003   34.3800   46.0243 H   0  0  0  0  0  0  0  0  0  0  0  0
   63.2739   34.8249   47.3156 H   0  0  0  0  0  0  0  0  0  0  0  0
   64.6104   33.4881   48.9410 H   0  0  0  0  0  0  0  0  0  0  0  0
   63.9285   31.1582   49.5047 H   0  0  0  0  0  0  0  0  0  0  0  0
   61.9062   30.1560   48.4482 H   0  0  0  0  0  0  0  0  0  0  0  0
   60.3400   30.9570   45.7250 H   0  0  0  0  0  0  0  0  0  0  0  0
   58.6422   33.3504   45.2965 H   0  0  0  0  0  0  0  0  0  0  0  0
   58.5104   33.8658   42.8625 H   0  0  0  0  0  0  0  0  0  0  0  0
   56.4840   30.1106   42.1640 H   0  0  0  0  0  0  0  0  0  0  0  0
   59.4557   29.2936   44.9100 H   0  0  0  0  0  0  0  0  0  0  0  0
   61.3294   28.7043   46.4419 H   0  0  0  0  0  0  0  0  0  0  0  0
   61.0755   26.8293   48.0655 H   0  0  0  0  0  0  0  0  0  0  0  0
   58.9593   25.5150   48.1391 H   0  0  0  0  0  0  0  0  0  0  0  0
   56.4428   25.6965   47.6706 H   0  0  0  0  0  0  0  0  0  0  0  0
   55.9194   26.4285   46.1159 H   0  0  0  0  0  0  0  0  0  0  0  0
   56.8716   24.9053   46.1159 H   0  0  0  0  0  0  0  0  0  0  0  0
  1  2  1  0
  2  3  1  0
  3  4  2  0
  4  5  1  0
  5  6  2  0
  6  7  1  0
  7  8  2  0
  8  9  1  0
  9 10  1  0
 10 11  2  0
 10 12  1  0
 12 13  1  0
 13 14  2  0
 14 15  1  0
 15 16  2  0
 16 17  1  0
 16 18  1  0
 18 19  2  0
 19 20  1  0
 20 21  2  0
 20 22  1  0
 22 23  1  0
 23 24  2  0
 24 25  1  0
 25 26  2  0
 26 27  1  0
 27 28  2  0
 28 29  1  0
  8  3  1  0
 19 13  1  0
 28 23  1  0
  1 30  1  0
  1 31  1  0
  1 32  1  0
  4 33  1  0
  5 34  1  0
  6 35  1  0
  7 36  1  0
  9 37  1  0
 14 38  1  0
 15 39  1  0
 18 40  1  0
 24 41  1  0
 25 42  1  0
 26 43  1  0
 27 44  1  0
 29 45  1  0
 29 46  1  0
 29 47  1  0
M  CHG  1  22  -1
M  END
>  <UniqueID>  (40) 
34

>  <SMILES>  (40) 
COc1ccccc1NC(=O)Oc1ccc(Cl)cc1C(=O)[N-]c1ccccc1C

>  <Energy>  (40) 
64.46978089631737

>  <Genealogy>  (40) 
COc1ccccc1NC(=O)Oc1ccc(Cl)cc1C(=O)[N-]c1ccccc1C (protonated)
COc1ccccc1NC(=O)Oc1ccc(Cl)cc1C(=O)[N-]c1ccccc1C (3D coordinates assigned)
COc1ccccc1NC(=O)Oc1ccc(Cl)cc1C(=O)[N-]c1ccccc1C (optimized conformer: 64.46978089631737 kcal/mol)

>  <smiles>  (40) 
COc1ccccc1NC(=O)Oc1ccc(Cl)cc1C(=O)Nc1ccccc1C

>  <score_type>  (40) 
oracle

>  <origin>  (40) 
adg

>  <m_score__min__energy>  (40) 
-10.07

>  <m_primary>  (40) 
energy

$$$$
40:0
     RDKit          3D

 51 52  0  0  0  0  0  0  0  0999 V2000
   55.6800   23.7160   44.3860 C   0  0  0  0  0  0  0  0  0  0  0  0
   57.0690   24.3150   44.6540 C   0  0  0  0  0  0  0  0  0  0  0  0
   58.0910   23.1690   44.7800 C   0  0  0  0  0  0  0  0  0  0  0  0
   57.4410   25.2490   43.4860 C   0  0  0  0  0  0  0  0  0  0  0  0
   56.9820   25.0500   45.8830 O   0  0  0  0  0  0  0  0  0  0  0  0
   56.3130   26.2680   46.0780 C   0  0  0  0  0  0  0  0  0  0  0  0
   55.0590   26.3440   45.9970 O   0  0  0  0  0  0  0  0  0  0  0  0
   57.0630   27.4560   46.3380 N   0  0  0  0  0  0  0  0  0  0  0  0
   57.1830   28.5490   45.4200 C   0  0  0  0  0  0  0  0  0  0  0  0
   56.0110   29.0820   44.8680 C   0  0  0  0  0  0  0  0  0  0  0  0
   56.0740   30.1480   43.9670 C   0  0  0  0  0  0  0  0  0  0  0  0
   57.3080   30.7020   43.6240 C   0  0  0  0  0  0  0  0  0  0  0  0
   58.4810   30.2040   44.1960 C   0  0  0  0  0  0  0  0  0  0  0  0
   58.4300   29.1380   45.1050 C   0  0  0  0  0  0  0  0  0  0  0  0
   59.9570   28.6400   45.9180 S   0  0  0  0  0  0  0  0  0  0  0  0
   59.8740   30.0140   47.0590 C   0  0  0  0  0  0  0  0  0  0  0  0
   58.9810   30.0330   47.9480 O   0  0  0  0  0  0  0  0  0  0  0  0
   60.8540   31.0570   46.9830 N   0  0  0  0  0  0  0  0  0  0  0  0
   61.0770   32.0060   48.0790 C   0  0  1  0  0  0  0  0  0  0  0  0
   62.2720   32.8760   47.7860 C   0  0  0  0  0  0  0  0  0  0  0  0
   62.9180   32.7120   46.7630 O   0  0  0  0  0  0  0  0  0  0  0  0
   59.8170   32.8610   48.3520 C   0  0  0  0  0  0  0  0  0  0  0  0
   59.1060   33.3080   47.0920 C   0  0  0  0  0  0  0  0  0  0  0  0
   57.7760   32.9260   46.8500 C   0  0  0  0  0  0  0  0  0  0  0  0
   57.1130   33.3650   45.7000 C   0  0  0  0  0  0  0  0  0  0  0  0
   57.7730   34.1790   44.7770 C   0  0  0  0  0  0  0  0  0  0  0  0
   59.1010   34.5510   45.0000 C   0  0  0  0  0  0  0  0  0  0  0  0
   59.7670   34.1170   46.1500 C   0  0  0  0  0  0  0  0  0  0  0  0
   55.1823   23.5014   45.3432 H   0  0  0  0  0  0  0  0  0  0  0  0
   55.0759   24.4336   43.8114 H   0  0  0  0  0  0  0  0  0  0  0  0
   55.7872   22.7841   43.8114 H   0  0  0  0  0  0  0  0  0  0  0  0
   58.2778   22.9596   45.8436 H   0  0  0  0  0  0  0  0  0  0  0  0
   57.6921   22.2668   44.2932 H   0  0  0  0  0  0  0  0  0  0  0  0
   59.0328   23.4624   44.2932 H   0  0  0  0  0  0  0  0  0  0  0  0
   57.8204   26.2014   43.8847 H   0  0  0  0  0  0  0  0  0  0  0  0
   58.2185   24.7738   42.8698 H   0  0  0  0  0  0  0  0  0  0  0  0
   56.5497   25.4384   42.8698 H   0  0  0  0  0  0  0  0  0  0  0  0
   55.0346   28.6584   45.1458 H   0  0  0  0  0  0  0  0  0  0  0  0
   55.1497   30.5511   43.5275 H   0  0  0  0  0  0  0  0  0  0  0  0
   57.3570   31.5312   42.9029 H   0  0  0  0  0  0  0  0  0  0  0  0
   59.4507   30.6510   43.9316 H   0  0  0  0  0  0  0  0  0  0  0  0
   61.4340   31.1040   46.1190 H   0  0  0  0  0  0  0  0  0  0  0  0
   61.2841   31.4293   48.9925 H   0  0  0  0  0  0  0  0  0  0  0  0
   62.5638   33.6627   48.4973 H   0  0  0  0  0  0  0  0  0  0  0  0
   59.1158   32.2652   48.9548 H   0  0  0  0  0  0  0  0  0  0  0  0
   60.1495   33.7694   48.8756 H   0  0  0  0  0  0  0  0  0  0  0  0
   57.2534   32.2781   47.5691 H   0  0  0  0  0  0  0  0  0  0  0  0
   56.0688   33.0684   45.5218 H   0  0  0  0  0  0  0  0  0  0  0  0
   57.2478   34.5269   43.8753 H   0  0  0  0  0  0  0  0  0  0  0  0
   59.6234   35.1863   44.2696 H   0  0  0  0  0  0  0  0  0  0  0  0
   60.8137   34.4098   46.3192 H   0  0  0  0  0  0  0  0  0  0  0  0
  1  2  1  0
  2  3  1  0
  2  4  1  0
  2  5  1  0
  5  6  1  0
  6  7  2  0
  6  8  1  0
  8  9  1  0
  9 10  2  0
 10 11  1  0
 11 12  2  0
 12 13  1  0
 13 14  2  0
 14 15  1  0
 15 16  1  0
 16 17  2  0
 16 18  1  0
 18 19  1  0
 19 20  1  0
 20 21  2  0
 19 22  1  0
 22 23  1  0
 23 24  2  0
 24 25  1  0
 25 26  2  0
 26 27  1  0
 27 28  2  0
 14  9  1  0
 28 23  1  0
  1 29  1  0
  1 30  1  0
  1 31  1  0
  3 32  1  0
  3 33  1  0
  3 34  1  0
  4 35  1  0
  4 36  1  0
  4 37  1  0
 10 38  1  0
 11 39  1  0
 12 40  1  0
 13 41  1  0
 18 42  1  0
 19 43  1  1
 20 44  1  0
 22 45  1  0
 22 46  1  0
 24 47  1  0
 25 48  1  0
 26 49  1  0
 27 50  1  0
 28 51  1  0
M  CHG  1   8  -1
M  END
>  <UniqueID>  (41) 
35

>  <SMILES>  (41) 
CC(C)(C)OC(=O)[N-]c1ccccc1SC(=O)N[C@@H](C=O)Cc1ccccc1

>  <Energy>  (41) 
41.19981991231857

>  <Genealogy>  (41) 
CC(C)(C)OC(=O)[N-]c1ccccc1SC(=O)NC(C=O)Cc1ccccc1 (protonated)
CC(C)(C)OC(=O)[N-]c1ccccc1SC(=O)N[C@@H](C=O)Cc1ccccc1 (chirality)
CC(C)(C)OC(=O)[N-]c1ccccc1SC(=O)N[C@@H](C=O)Cc1ccccc1 (3D coordinates assigned)
CC(C)(C)OC(=O)[N-]c1ccccc1SC(=O)N[C@@H](C=O)Cc1ccccc1 (optimized conformer: 41.19981991231857 kcal/mol)

>  <smiles>  (41) 
CC(C)(C)OC(=O)Nc1ccccc1SC(=O)NC(C=O)Cc1ccccc1

>  <score_type>  (41) 
oracle

>  <origin>  (41) 
adg

>  <m_score__min__energy>  (41) 
-10.23

>  <m_primary>  (41) 
energy

$$$$
41:0
     RDKit          3D

 34 36  0  0  0  0  0  0  0  0999 V2000
   57.4300   32.0500   41.4870 C   0  0  0  0  0  0  0  0  0  0  0  0
   57.3130   31.5880   42.9160 C   0  0  0  0  0  0  0  0  0  0  0  0
   56.5790   30.4310   43.2040 C   0  0  0  0  0  0  0  0  0  0  0  0
   56.4680   29.9990   44.5270 C   0  0  0  0  0  0  0  0  0  0  0  0
   55.8100   28.9590   44.7950 O   0  0  0  0  0  0  0  0  0  0  0  0
   57.0530   30.6760   45.5070 O   0  0  0  0  0  0  0  0  0  0  0  0
   57.7630   31.7810   45.2970 C   0  0  0  0  0  0  0  0  0  0  0  0
   58.3470   32.4380   46.3900 C   0  0  0  0  0  0  0  0  0  0  0  0
   58.1550   31.9000   47.6740 O   0  0  0  0  0  0  0  0  0  0  0  0
   58.9550   30.8770   48.2710 C   0  0  0  0  0  0  0  0  0  0  0  0
   59.3010   29.8120   47.2650 C   0  0  0  0  0  0  0  0  0  0  0  0
   58.5150   28.6520   47.1690 C   0  0  0  0  0  0  0  0  0  0  0  0
   58.8280   27.6660   46.2280 C   0  0  0  0  0  0  0  0  0  0  0  0
   59.9200   27.8350   45.3730 C   0  0  0  0  0  0  0  0  0  0  0  0
   60.6990   28.9920   45.4530 C   0  0  0  0  0  0  0  0  0  0  0  0
   60.3900   29.9810   46.3920 C   0  0  0  0  0  0  0  0  0  0  0  0
   59.1020   33.6060   46.1690 C   0  0  0  0  0  0  0  0  0  0  0  0
   59.2620   34.1090   44.8770 C   0  0  0  0  0  0  0  0  0  0  0  0
   58.6800   33.4580   43.7890 C   0  0  0  0  0  0  0  0  0  0  0  0
   57.9240   32.2870   43.9820 C   0  0  0  0  0  0  0  0  0  0  0  0
   57.7000   33.1162   41.4673 H   0  0  0  0  0  0  0  0  0  0  0  0
   58.2084   31.4651   40.9751 H   0  0  0  0  0  0  0  0  0  0  0  0
   56.4671   31.9061   40.9751 H   0  0  0  0  0  0  0  0  0  0  0  0
   56.0935   29.8667   42.3941 H   0  0  0  0  0  0  0  0  0  0  0  0
   59.8833   31.3242   48.6562 H   0  0  0  0  0  0  0  0  0  0  0  0
   58.3831   30.4156   49.0896 H   0  0  0  0  0  0  0  0  0  0  0  0
   57.6505   28.5187   47.8360 H   0  0  0  0  0  0  0  0  0  0  0  0
   58.2136   26.7561   46.1609 H   0  0  0  0  0  0  0  0  0  0  0  0
   60.1666   27.0564   44.6362 H   0  0  0  0  0  0  0  0  0  0  0  0
   61.5562   29.1251   44.7767 H   0  0  0  0  0  0  0  0  0  0  0  0
   61.0009   30.8941   46.4478 H   0  0  0  0  0  0  0  0  0  0  0  0
   59.5683   34.1249   47.0195 H   0  0  0  0  0  0  0  0  0  0  0  0
   59.8505   35.0242   44.7156 H   0  0  0  0  0  0  0  0  0  0  0  0
   58.8128   33.8623   42.7747 H   0  0  0  0  0  0  0  0  0  0  0  0
  1  2  1  0
  2  3  2  0
  3  4  1  0
  4  5  2  0
  4  6  1  0
  6  7  1  0
  7  8  2  0
  8  9  1  0
  9 10  1  0
 10 11  1  0
 11 12  2  0
 12 13  1  0
 13 14  2  0
 14 15  1  0
 15 16  2  0
  8 17  1  0
 17 18  2  0
 18 19  1  0
 19 20  2  0
 20  2  1  0
 20  7  1  0
 16 11  1  0
  1 21  1  0
  1 22  1  0
  1 23  1  0
  3 24  1  0
 10 25  1  0
 10 26  1  0
 12 27  1  0
 13 28  1  0
 14 29  1  0
 15 30  1  0
 16 31  1  0
 17 32  1  0
 18 33  1  0
 19 34  1  0
M  END
>  <UniqueID>  (42) 
36

>  <SMILES>  (42) 
Cc1cc(=O)oc2c(OCc3ccccc3)cccc12

>  <Energy>  (42) 
41.87809632210048

>  <Genealogy>  (42) 
Cc1cc(=O)oc2c(OCc3ccccc3)cccc12 (3D coordinates assigned)
Cc1cc(=O)oc2c(OCc3ccccc3)cccc12 (optimized conformer: 41.87809632210048 kcal/mol)

>  <smiles>  (42) 
Cc1cc(=O)oc2c(OCc3ccccc3)cccc12

>  <score_type>  (42) 
oracle

>  <origin>  (42) 
adg

>  <m_score__min__energy>  (42) 
-8.0299999999999994

>  <m_primary>  (42) 
energy

$$$$
42:0
     RDKit          3D

 40 41  0  0  0  0  0  0  0  0999 V2000
   56.6390   23.5150   43.3760 C   0  0  0  0  0  0  0  0  0  0  0  0
   55.8890   24.4720   44.0890 O   0  0  0  0  0  0  0  0  0  0  0  0
   54.9740   23.8140   44.9400 C   0  0  0  0  0  0  0  0  0  0  0  0
   54.0050   24.8460   45.5180 C   0  0  0  0  0  0  0  0  0  0  0  0
   54.7040   26.0390   45.9920 N   0  0  0  0  0  0  0  0  0  0  0  0
   56.0800   26.1770   46.3850 C   0  0  0  0  0  0  0  0  0  0  0  0
   56.4890   25.4930   47.3590 O   0  0  0  0  0  0  0  0  0  0  0  0
   57.0320   27.1050   45.7380 C   0  0  0  0  0  0  0  0  0  0  0  0
   57.6420   28.2090   46.3060 C   0  0  0  0  0  0  0  0  0  0  0  0
   58.4500   28.7500   45.3230 C   0  0  0  0  0  0  0  0  0  0  0  0
   59.3380   29.9190   45.4570 C   0  0  0  0  0  0  0  0  0  0  0  0
   60.5750   29.7320   45.6160 O   0  0  0  0  0  0  0  0  0  0  0  0
   58.8040   31.3020   45.4330 C   0  0  0  0  0  0  0  0  0  0  0  0
   59.2130   32.2270   46.4110 C   0  0  0  0  0  0  0  0  0  0  0  0
   58.7340   33.5410   46.4060 C   0  0  0  0  0  0  0  0  0  0  0  0
   59.1760   34.4130   47.4120 O   0  0  0  0  0  0  0  0  0  0  0  0
   60.3530   34.2150   48.1880 C   0  0  0  0  0  0  0  0  0  0  0  0
   57.8360   33.9410   45.4000 C   0  0  0  0  0  0  0  0  0  0  0  0
   57.4330   33.0340   44.4170 C   0  0  0  0  0  0  0  0  0  0  0  0
   57.9110   31.7170   44.4250 C   0  0  0  0  0  0  0  0  0  0  0  0
   57.4900   30.8190   43.4440 O   0  0  0  0  0  0  0  0  0  0  0  0
   58.2640   27.9890   44.1850 C   0  0  0  0  0  0  0  0  0  0  0  0
   57.3990   26.9930   44.4450 N   0  0  0  0  0  0  0  0  0  0  0  0
   57.1577   22.8531   44.0851 H   0  0  0  0  0  0  0  0  0  0  0  0
   55.9654   22.9185   42.7432 H   0  0  0  0  0  0  0  0  0  0  0  0
   57.3792   24.0265   42.7432 H   0  0  0  0  0  0  0  0  0  0  0  0
   54.4130   23.0609   44.3672 H   0  0  0  0  0  0  0  0  0  0  0  0
   55.5169   23.3145   45.7560 H   0  0  0  0  0  0  0  0  0  0  0  0
   53.2890   25.1395   44.7362 H   0  0  0  0  0  0  0  0  0  0  0  0
   53.4883   24.3886   46.3747 H   0  0  0  0  0  0  0  0  0  0  0  0
   57.5107   28.5814   47.3327 H   0  0  0  0  0  0  0  0  0  0  0  0
   59.9207   31.9118   47.1919 H   0  0  0  0  0  0  0  0  0  0  0  0
   60.0987   34.2578   49.2573 H   0  0  0  0  0  0  0  0  0  0  0  0
   60.7859   33.2314   47.9531 H   0  0  0  0  0  0  0  0  0  0  0  0
   61.0839   35.0028   47.9531 H   0  0  0  0  0  0  0  0  0  0  0  0
   57.4500   34.9710   45.3873 H   0  0  0  0  0  0  0  0  0  0  0  0
   56.7348   33.3563   43.6304 H   0  0  0  0  0  0  0  0  0  0  0  0
   58.1380   30.1810   42.9950 H   0  0  0  0  0  0  0  0  0  0  0  0
   58.7493   28.1702   43.2146 H   0  0  0  0  0  0  0  0  0  0  0  0
   57.0870   26.2620   43.7670 H   0  0  0  0  0  0  0  0  0  0  0  0
  1  2  1  0
  2  3  1  0
  3  4  1  0
  4  5  1  0
  5  6  1  0
  6  7  2  0
  6  8  1  0
  8  9  2  0
  9 10  1  0
 10 11  1  0
 11 12  2  0
 11 13  1  0
 13 14  2  0
 14 15  1  0
 15 16  1  0
 16 17  1  0
 15 18  2  0
 18 19  1  0
 19 20  2  0
 20 21  1  0
 10 22  2  0
 22 23  1  0
 23  8  1  0
 20 13  1  0
  1 24  1  0
  1 25  1  0
  1 26  1  0
  3 27  1  0
  3 28  1  0
  4 29  1  0
  4 30  1  0
  9 31  1  0
 14 32  1  0
 17 33  1  0
 17 34  1  0
 17 35  1  0
 18 36  1  0
 19 37  1  0
 21 38  1  0
 22 39  1  0
 23 40  1  0
M  CHG  1   5  -1
M  END
>  <UniqueID>  (43) 
37

>  <SMILES>  (43) 
COCC[N-]C(=O)c1cc(C(=O)c2cc(OC)ccc2O)c[nH]1

>  <Energy>  (43) 
69.45807864460636

>  <Genealogy>  (43) 
COCC[N-]C(=O)c1cc(C(=O)c2cc(OC)ccc2O)c[nH]1 (protonated)
COCC[N-]C(=O)c1cc(C(=O)c2cc(OC)ccc2O)c[nH]1 (3D coordinates assigned)
COCC[N-]C(=O)c1cc(C(=O)c2cc(OC)ccc2O)c[nH]1 (optimized conformer: 69.45807864460636 kcal/mol)

>  <smiles>  (43) 
COCCNC(=O)c1cc(C(=O)c2cc(OC)ccc2O)c[nH]1

>  <score_type>  (43) 
oracle

>  <origin>  (43) 
adg

>  <m_score__min__energy>  (43) 
-9.5299999999999994

>  <m_primary>  (43) 
energy

$$$$
43:0
     RDKit          3D

 35 36  0  0  0  0  0  0  0  0999 V2000
   55.1820   26.3610   45.9740 N   0  0  0  0  0  0  0  0  0  0  0  0
   56.8640   26.7300   45.8320 S   0  0  0  0  0  0  0  0  0  0  0  0
   57.4800   25.8680   44.7650 O   0  0  0  0  0  0  0  0  0  0  0  0
   57.5500   26.4450   47.1380 O   0  0  0  0  0  0  0  0  0  0  0  0
   57.0600   28.4290   45.4130 C   0  0  0  0  0  0  0  0  0  0  0  0
   58.1270   29.1690   45.9380 C   0  0  0  0  0  0  0  0  0  0  0  0
   58.2710   30.5230   45.6180 C   0  0  0  0  0  0  0  0  0  0  0  0
   57.3370   31.1540   44.7790 C   0  0  0  0  0  0  0  0  0  0  0  0
   57.4420   32.5400   44.4250 N   0  0  0  0  0  0  0  0  0  0  0  0
   58.2180   33.5400   45.0970 C   0  0  0  0  0  0  0  0  0  0  0  0
   59.0780   34.2200   44.4770 O   0  0  0  0  0  0  0  0  0  0  0  0
   58.0880   33.6910   46.5810 C   0  0  0  0  0  0  0  0  0  0  0  0
   58.9490   34.8420   47.1180 C   0  0  0  0  0  0  0  0  0  0  0  0
   59.8740   34.3770   48.1570 N   0  0  0  0  0  0  0  0  0  0  0  0
   61.1380   34.0760   48.0430 C   0  0  0  0  0  0  0  0  0  0  0  0
   61.7520   33.8060   46.7990 C   0  0  0  0  0  0  0  0  0  0  0  0
   63.1050   33.4590   46.7630 C   0  0  0  0  0  0  0  0  0  0  0  0
   63.8400   33.3950   47.9460 C   0  0  0  0  0  0  0  0  0  0  0  0
   63.2100   33.6840   49.1560 C   0  0  0  0  0  0  0  0  0  0  0  0
   61.8910   34.0130   49.1750 N   0  0  0  0  0  0  0  0  0  0  0  0
   56.2830   30.4060   44.2420 C   0  0  0  0  0  0  0  0  0  0  0  0
   56.1370   29.0540   44.5640 C   0  0  0  0  0  0  0  0  0  0  0  0
   54.7600   27.0950   46.5870 H   0  0  0  0  0  0  0  0  0  0  0  0
   58.8547   28.6833   46.6047 H   0  0  0  0  0  0  0  0  0  0  0  0
   59.1178   31.0955   46.0243 H   0  0  0  0  0  0  0  0  0  0  0  0
   57.0346   33.8905   46.8270 H   0  0  0  0  0  0  0  0  0  0  0  0
   58.4357   32.7586   47.0497 H   0  0  0  0  0  0  0  0  0  0  0  0
   59.5292   35.2724   46.2885 H   0  0  0  0  0  0  0  0  0  0  0  0
   58.2821   35.5969   47.5600 H   0  0  0  0  0  0  0  0  0  0  0  0
   61.1700   33.8685   45.8676 H   0  0  0  0  0  0  0  0  0  0  0  0
   63.5903   33.2363   45.8013 H   0  0  0  0  0  0  0  0  0  0  0  0
   64.9048   33.1197   47.9251 H   0  0  0  0  0  0  0  0  0  0  0  0
   63.7806   33.6458   50.0957 H   0  0  0  0  0  0  0  0  0  0  0  0
   55.5642   30.8859   43.5615 H   0  0  0  0  0  0  0  0  0  0  0  0
   55.2955   28.4791   44.1500 H   0  0  0  0  0  0  0  0  0  0  0  0
  1  2  1  0
  2  3  2  0
  2  4  2  0
  2  5  1  0
  5  6  2  0
  6  7  1  0
  7  8  2  0
  8  9  1  0
  9 10  1  0
 10 11  2  0
 10 12  1  0
 12 13  1  0
 13 14  1  0
 14 15  2  3
 15 16  1  0
 16 17  2  0
 17 18  1  0
 18 19  2  0
 19 20  1  0
  8 21  1  0
 21 22  2  0
 22  5  1  0
 20 15  1  0
  1 23  1  0
  6 24  1  0
  7 25  1  0
 12 26  1  0
 12 27  1  0
 13 28  1  0
 13 29  1  0
 16 30  1  0
 17 31  1  0
 18 32  1  0
 19 33  1  0
 21 34  1  0
 22 35  1  0
M  CHG  3   1  -1   9  -1  20  -1
M  END
>  <UniqueID>  (44) 
38

>  <SMILES>  (44) 
[NH-]S(=O)(=O)c1ccc([N-]C(=O)CCN=c2cccc[n-]2)cc1

>  <Energy>  (44) 
38.07017284893004

>  <Genealogy>  (44) 
[NH-]S(=O)(=O)c1ccc([N-]C(=O)CCN=c2cccc[n-]2)cc1 (protonated)
[NH-]S(=O)(=O)c1ccc([N-]C(=O)CCN=c2cccc[n-]2)cc1 (3D coordinates assigned)
[NH-]S(=O)(=O)c1ccc([N-]C(=O)CCN=c2cccc[n-]2)cc1 (optimized conformer: 38.07017284893004 kcal/mol)

>  <smiles>  (44) 
NS(=O)(=O)c1ccc(NC(=O)CCN=c2cccc[nH]2)cc1

>  <score_type>  (44) 
oracle

>  <origin>  (44) 
adg

>  <m_score__min__energy>  (44) 
-12.26

>  <m_primary>  (44) 
energy

$$$$
44:0
     RDKit          3D

 53 55  0  0  0  0  0  0  0  0999 V2000
   59.8240   30.5730   47.6910 C   0  0  0  0  0  0  0  0  0  0  0  0
   59.2890   31.8770   47.8990 O   0  0  0  0  0  0  0  0  0  0  0  0
   59.0680   32.8180   46.8810 C   0  0  0  0  0  0  0  0  0  0  0  0
   59.7550   34.0480   46.8410 C   0  0  0  0  0  0  0  0  0  0  0  0
   59.4840   34.9750   45.8310 C   0  0  0  0  0  0  0  0  0  0  0  0
   58.5180   34.6950   44.8630 C   0  0  0  0  0  0  0  0  0  0  0  0
   57.8310   33.4800   44.8920 C   0  0  0  0  0  0  0  0  0  0  0  0
   58.1190   32.5280   45.8770 C   0  0  0  0  0  0  0  0  0  0  0  0
   57.3900   31.2930   45.8800 N   0  0  0  0  0  0  0  0  0  0  0  0
   56.8080   30.6790   44.7230 C   0  0  0  0  0  0  0  0  0  0  0  0
   55.5770   30.8310   44.5080 O   0  0  0  0  0  0  0  0  0  0  0  0
   57.6480   29.9780   43.6970 C   0  0  0  0  0  0  0  0  0  0  0  0
   59.1990   29.4150   44.4750 S   0  0  0  0  0  0  0  0  0  0  0  0
   58.4540   27.9530   45.1840 C   0  0  0  0  0  0  0  0  0  0  0  0
   59.2440   26.9380   45.6200 N   0  0  0  0  0  0  0  0  0  0  0  0
   58.7090   25.8410   46.2130 C   0  0  0  0  0  0  0  0  0  0  0  0
   59.4670   24.9170   46.6110 O   0  0  0  0  0  0  0  0  0  0  0  0
   57.3240   25.7570   46.4080 C   0  0  0  0  0  0  0  0  0  0  0  0
   56.7700   24.6370   47.1160 N   0  0  0  0  0  0  0  0  0  0  0  0
   55.8270   23.7010   46.5770 C   0  0  0  0  0  0  0  0  0  0  0  0
   54.6500   24.0900   46.3510 O   0  0  0  0  0  0  0  0  0  0  0  0
   56.2070   22.3040   46.2480 C   0  0  0  0  0  0  0  0  0  0  0  0
   55.9890   21.7900   44.9500 C   0  0  0  0  0  0  0  0  0  0  0  0
   55.3420   22.5930   43.9960 O   0  0  0  0  0  0  0  0  0  0  0  0
   55.9420   23.6940   43.3230 C   0  0  0  0  0  0  0  0  0  0  0  0
   56.4090   20.4820   44.6440 C   0  0  0  0  0  0  0  0  0  0  0  0
   57.0060   19.6860   45.6190 C   0  0  0  0  0  0  0  0  0  0  0  0
   57.1970   20.1780   46.9080 C   0  0  0  0  0  0  0  0  0  0  0  0
   56.8040   21.4890   47.2370 C   0  0  0  0  0  0  0  0  0  0  0  0
   57.0110   22.0190   48.5220 O   0  0  0  0  0  0  0  0  0  0  0  0
   56.1010   21.8860   49.6090 C   0  0  0  0  0  0  0  0  0  0  0  0
   56.5220   26.7950   45.9050 C   0  0  0  0  0  0  0  0  0  0  0  0
   55.1340   26.7270   45.9910 O   0  0  0  0  0  0  0  0  0  0  0  0
   57.1050   27.8720   45.3150 N   0  0  0  0  0  0  0  0  0  0  0  0
   60.0192   30.0973   48.6635 H   0  0  0  0  0  0  0  0  0  0  0  0
   59.1020   29.9665   47.1245 H   0  0  0  0  0  0  0  0  0  0  0  0
   60.7639   30.6484   47.1245 H   0  0  0  0  0  0  0  0  0  0  0  0
   60.5082   34.2794   47.6086 H   0  0  0  0  0  0  0  0  0  0  0  0
   60.0332   35.9275   45.7987 H   0  0  0  0  0  0  0  0  0  0  0  0
   58.2979   35.4322   44.0768 H   0  0  0  0  0  0  0  0  0  0  0  0
   57.0593   33.2697   44.1368 H   0  0  0  0  0  0  0  0  0  0  0  0
   57.0986   29.1108   43.3019 H   0  0  0  0  0  0  0  0  0  0  0  0
   57.8776   30.6690   42.8725 H   0  0  0  0  0  0  0  0  0  0  0  0
   56.3313   24.4083   44.0634 H   0  0  0  0  0  0  0  0  0  0  0  0
   56.7679   23.3326   42.6927 H   0  0  0  0  0  0  0  0  0  0  0  0
   55.1906   24.1921   42.6927 H   0  0  0  0  0  0  0  0  0  0  0  0
   56.2649   20.0856   43.6281 H   0  0  0  0  0  0  0  0  0  0  0  0
   57.3281   18.6642   45.3697 H   0  0  0  0  0  0  0  0  0  0  0  0
   57.6582   19.5376   47.6743 H   0  0  0  0  0  0  0  0  0  0  0  0
   56.6501   21.9662   50.5588 H   0  0  0  0  0  0  0  0  0  0  0  0
   55.3451   22.6832   49.5540 H   0  0  0  0  0  0  0  0  0  0  0  0
   55.6048   20.9058   49.5540 H   0  0  0  0  0  0  0  0  0  0  0  0
   54.6770   25.9160   46.3900 H   0  0  0  0  0  0  0  0  0  0  0  0
  1  2  1  0
  2  3  1  0
  3  4  2  0
  4  5  1  0
  5  6  2  0
  6  7  1  0
  7  8  2  0
  8  9  1  0
  9 10  1  0
 10 11  2  0
 10 12  1  0
 12 13  1  0
 13 14  1  0
 14 15  2  0
 15 16  1  0
 16 17  2  0
 16 18  1  0
 18 19  1  0
 19 20  1  0
 20 21  2  0
 20 22  1  0
 22 23  2  0
 23 24  1  0
 24 25  1  0
 23 26  1  0
 26 27  2  0
 27 28  1  0
 28 29  2  0
 29 30  1  0
 30 31  1  0
 18 32  2  0
 32 33  1  0
 32 34  1  0
  8  3  1  0
 34 14  1  0
 29 22  1  0
  1 35  1  0
  1 36  1  0
  1 37  1  0
  4 38  1  0
  5 39  1  0
  6 40  1  0
  7 41  1  0
 12 42  1  0
 12 43  1  0
 25 44  1  0
 25 45  1  0
 25 46  1  0
 26 47  1  0
 27 48  1  0
 28 49  1  0
 31 50  1  0
 31 51  1  0
 31 52  1  0
 33 53  1  0
M  CHG  3   9  -1  19  -1  34  -1
M  END
>  <UniqueID>  (45) 
39

>  <SMILES>  (45) 
COc1ccccc1[N-]C(=O)CSc1nc(=O)c([N-]C(=O)c2c(OC)cccc2OC)c(O)[n-]1

>  <Energy>  (45) 
63.844244267957585

>  <Genealogy>  (45) 
COc1ccccc1[N-]C(=O)CSc1nc(=O)c([N-]C(=O)c2c(OC)cccc2OC)c(O)[n-]1 (protonated)
COc1ccccc1[N-]C(=O)CSc1nc(=O)c([N-]C(=O)c2c(OC)cccc2OC)c(O)[n-]1 (3D coordinates assigned)
COc1ccccc1[N-]C(=O)CSc1nc(=O)c([N-]C(=O)c2c(OC)cccc2OC)c(O)[n-]1 (optimized conformer: 63.844244267957585 kcal/mol)

>  <smiles>  (45) 
COc1ccccc1NC(=O)CSc1nc(=O)c(NC(=O)c2c(OC)cccc2OC)c(O)[nH]1

>  <score_type>  (45) 
oracle

>  <origin>  (45) 
adg

>  <m_score__min__energy>  (45) 
-13.5

>  <m_primary>  (45) 
energy

$$$$
45:0
     RDKit          3D

 44 46  0  0  0  0  0  0  0  0999 V2000
   62.8670   32.2500   47.1480 C   0  0  0  0  0  0  0  0  0  0  0  0
   61.7610   32.0580   48.1510 C   0  0  0  0  0  0  0  0  0  0  0  0
   61.6730   32.9260   49.2530 C   0  0  0  0  0  0  0  0  0  0  0  0
   60.6640   32.7640   50.2050 C   0  0  0  0  0  0  0  0  0  0  0  0
   59.7290   31.7390   50.0660 C   0  0  0  0  0  0  0  0  0  0  0  0
   59.7950   30.8760   48.9700 C   0  0  0  0  0  0  0  0  0  0  0  0
   60.8060   31.0230   48.0000 C   0  0  0  0  0  0  0  0  0  0  0  0
   60.8100   30.1910   46.8240 N   0  0  0  0  0  0  0  0  0  0  0  0
   60.2280   28.8810   46.7710 C   0  0  0  0  0  0  0  0  0  0  0  0
   60.1420   28.1800   47.8170 O   0  0  0  0  0  0  0  0  0  0  0  0
   59.7780   28.3130   45.4550 C   0  0  0  0  0  0  0  0  0  0  0  0
   58.4690   27.5180   45.5830 C   0  0  0  0  0  0  0  0  0  0  0  0
   57.3390   28.3680   45.9680 N   0  0  0  0  0  0  0  0  0  0  0  0
   56.7410   29.3270   44.6410 S   0  0  0  0  0  0  0  0  0  0  0  0
   55.2570   29.5080   44.7960 O   0  0  0  0  0  0  0  0  0  0  0  0
   57.0040   28.6620   43.3170 O   0  0  0  0  0  0  0  0  0  0  0  0
   57.5130   30.9090   44.6920 C   0  0  0  0  0  0  0  0  0  0  0  0
   57.7440   31.6020   43.4950 C   0  0  0  0  0  0  0  0  0  0  0  0
   58.3180   32.8760   43.5130 C   0  0  0  0  0  0  0  0  0  0  0  0
   58.6570   33.4720   44.7310 C   0  0  0  0  0  0  0  0  0  0  0  0
   59.1900   34.7240   44.7530 N   0  0  0  0  0  0  0  0  0  0  0  0
   59.5250   35.3370   45.9200 C   0  0  0  0  0  0  0  0  0  0  0  0
   60.0110   36.4980   45.8990 O   0  0  0  0  0  0  0  0  0  0  0  0
   59.3320   34.6790   47.1390 C   0  0  0  0  0  0  0  0  0  0  0  0
   58.7870   33.3930   47.1490 C   0  0  0  0  0  0  0  0  0  0  0  0
   58.4390   32.7760   45.9400 C   0  0  0  0  0  0  0  0  0  0  0  0
   57.8690   31.4950   45.9150 C   0  0  0  0  0  0  0  0  0  0  0  0
   63.8172   32.4150   47.6771 H   0  0  0  0  0  0  0  0  0  0  0  0
   62.9496   31.3528   46.5170 H   0  0  0  0  0  0  0  0  0  0  0  0
   62.6424   33.1226   46.5170 H   0  0  0  0  0  0  0  0  0  0  0  0
   62.4047   33.7395   49.3666 H   0  0  0  0  0  0  0  0  0  0  0  0
   60.6068   33.4462   51.0660 H   0  0  0  0  0  0  0  0  0  0  0  0
   58.9387   31.6100   50.8202 H   0  0  0  0  0  0  0  0  0  0  0  0
   59.0502   30.0736   48.8631 H   0  0  0  0  0  0  0  0  0  0  0  0
   61.2170   30.5730   45.9410 H   0  0  0  0  0  0  0  0  0  0  0  0
   59.6223   29.1402   44.7468 H   0  0  0  0  0  0  0  0  0  0  0  0
   60.5584   27.6237   45.1002 H   0  0  0  0  0  0  0  0  0  0  0  0
   58.2443   27.0477   44.6143 H   0  0  0  0  0  0  0  0  0  0  0  0
   58.6081   26.7643   46.3721 H   0  0  0  0  0  0  0  0  0  0  0  0
   57.4714   31.1394   42.5349 H   0  0  0  0  0  0  0  0  0  0  0  0
   58.5030   33.4096   42.5690 H   0  0  0  0  0  0  0  0  0  0  0  0
   59.6076   35.1710   48.0835 H   0  0  0  0  0  0  0  0  0  0  0  0
   58.6316   32.8666   48.1023 H   0  0  0  0  0  0  0  0  0  0  0  0
   57.7011   30.9496   46.8554 H   0  0  0  0  0  0  0  0  0  0  0  0
  1  2  1  0
  2  3  2  0
  3  4  1  0
  4  5  2  0
  5  6  1  0
  6  7  2  0
  7  8  1  0
  8  9  1  0
  9 10  2  0
  9 11  1  0
 11 12  1  0
 12 13  1  0
 13 14  1  0
 14 15  2  0
 14 16  2  0
 14 17  1  0
 17 18  2  0
 18 19  1  0
 19 20  2  0
 20 21  1  0
 21 22  1  0
 22 23  2  0
 22 24  1  0
 24 25  2  0
 25 26  1  0
 26 27  2  0
  7  2  1  0
 27 17  1  0
 26 20  1  0
  1 28  1  0
  1 29  1  0
  1 30  1  0
  3 31  1  0
  4 32  1  0
  5 33  1  0
  6 34  1  0
  8 35  1  0
 11 36  1  0
 11 37  1  0
 12 38  1  0
 12 39  1  0
 18 40  1  0
 19 41  1  0
 24 42  1  0
 25 43  1  0
 27 44  1  0
M  CHG  2  13  -1  21  -1
M  END
>  <UniqueID>  (46) 
40

>  <SMILES>  (46) 
Cc1ccccc1NC(=O)CC[N-]S(=O)(=O)c1ccc2[n-]c(=O)ccc2c1

>  <Energy>  (46) 
44.66163892039437

>  <Genealogy>  (46) 
Cc1ccccc1NC(=O)CC[N-]S(=O)(=O)c1ccc2[n-]c(=O)ccc2c1 (protonated)
Cc1ccccc1NC(=O)CC[N-]S(=O)(=O)c1ccc2[n-]c(=O)ccc2c1 (3D coordinates assigned)
Cc1ccccc1NC(=O)CC[N-]S(=O)(=O)c1ccc2[n-]c(=O)ccc2c1 (optimized conformer: 44.66163892039437 kcal/mol)

>  <smiles>  (46) 
Cc1ccccc1NC(=O)CCNS(=O)(=O)c1ccc2[nH]c(=O)ccc2c1

>  <score_type>  (46) 
oracle

>  <origin>  (46) 
adg

>  <m_score__min__energy>  (46) 
-11.279999999999999

>  <m_primary>  (46) 
energy

$$$$
46:0
     RDKit          3D

 32 34  0  0  0  0  0  0  0  0999 V2000
   55.9590   29.7880   44.0270 C   0  0  0  0  0  0  0  0  0  0  0  0
   55.6750   28.8730   45.0800 O   0  0  0  0  0  0  0  0  0  0  0  0
   56.5990   27.9620   45.6120 C   0  0  0  0  0  0  0  0  0  0  0  0
   57.9750   28.2520   45.7020 C   0  0  0  0  0  0  0  0  0  0  0  0
   58.8680   27.3170   46.2510 C   0  0  0  0  0  0  0  0  0  0  0  0
   60.3380   27.6380   46.3400 C   0  0  0  0  0  0  0  0  0  0  0  0
   60.6780   28.1500   47.6670 N   0  0  0  0  0  0  0  0  0  0  0  0
   59.9650   29.2070   48.3370 C   0  0  0  0  0  0  0  0  0  0  0  0
   60.0410   30.5300   47.8230 C   0  0  0  0  0  0  0  0  0  0  0  0
   59.3730   31.5570   48.4310 N   0  0  0  0  0  0  0  0  0  0  0  0
   58.6360   31.2960   49.5370 C   0  0  0  0  0  0  0  0  0  0  0  0
   57.9280   32.1820   50.2490 N   0  0  0  0  0  0  0  0  0  0  0  0
   57.4090   31.3900   51.2250 C   0  0  0  0  0  0  0  0  0  0  0  0
   56.6600   31.8430   52.1300 O   0  0  0  0  0  0  0  0  0  0  0  0
   57.7550   30.0770   51.1570 N   0  0  0  0  0  0  0  0  0  0  0  0
   58.5380   30.0530   50.0680 C   0  0  0  0  0  0  0  0  0  0  0  0
   59.1920   28.9690   49.4980 C   0  0  0  0  0  0  0  0  0  0  0  0
   58.3820   26.0770   46.6900 C   0  0  0  0  0  0  0  0  0  0  0  0
   57.0190   25.7840   46.6030 C   0  0  0  0  0  0  0  0  0  0  0  0
   56.1320   26.7210   46.0680 C   0  0  0  0  0  0  0  0  0  0  0  0
   54.7780   26.4160   45.9880 O   0  0  0  0  0  0  0  0  0  0  0  0
   56.2595   30.7563   44.4537 H   0  0  0  0  0  0  0  0  0  0  0  0
   56.7762   29.3911   43.4068 H   0  0  0  0  0  0  0  0  0  0  0  0
   55.0607   29.9236   43.4068 H   0  0  0  0  0  0  0  0  0  0  0  0
   58.3532   29.2191   45.3391 H   0  0  0  0  0  0  0  0  0  0  0  0
   60.9191   26.7244   46.1461 H   0  0  0  0  0  0  0  0  0  0  0  0
   60.5765   28.4091   45.5927 H   0  0  0  0  0  0  0  0  0  0  0  0
   61.5210   27.7440   48.1340 H   0  0  0  0  0  0  0  0  0  0  0  0
   60.6444   30.7303   46.9253 H   0  0  0  0  0  0  0  0  0  0  0  0
   59.1121   27.9619   49.9331 H   0  0  0  0  0  0  0  0  0  0  0  0
   59.0770   25.3320   47.1046 H   0  0  0  0  0  0  0  0  0  0  0  0
   56.6431   24.8126   46.9568 H   0  0  0  0  0  0  0  0  0  0  0  0
  1  2  1  0
  2  3  1  0
  3  4  2  0
  4  5  1  0
  5  6  1  0
  6  7  1  0
  7  8  1  0
  8  9  2  0
  9 10  1  0
 10 11  2  0
 11 12  1  0
 12 13  1  0
 13 14  2  0
 13 15  1  0
 15 16  1  0
 16 17  2  0
  5 18  2  0
 18 19  1  0
 19 20  2  0
 20 21  1  0
 20  3  1  0
 17  8  1  0
 16 11  1  0
  1 22  1  0
  1 23  1  0
  1 24  1  0
  4 25  1  0
  6 26  1  0
  6 27  1  0
  7 28  1  0
  9 29  1  0
 17 30  1  0
 18 31  1  0
 19 32  1  0
M  CHG  3  12  -1  15  -1  21  -1
M  END
>  <UniqueID>  (47) 
41

>  <SMILES>  (47) 
COc1cc(CNc2cnc3[n-]c(=O)[n-]c3c2)ccc1[O-]

>  <Energy>  (47) 
70.62295154101633

>  <Genealogy>  (47) 
COc1cc(CNc2cnc3[n-]c(=O)[n-]c3c2)ccc1[O-] (protonated)
COc1cc(CNc2cnc3[n-]c(=O)[n-]c3c2)ccc1[O-] (3D coordinates assigned)
COc1cc(CNc2cnc3[n-]c(=O)[n-]c3c2)ccc1[O-] (optimized conformer: 70.62295154101633 kcal/mol)

>  <smiles>  (47) 
COc1cc(CNc2cnc3[nH]c(=O)[nH]c3c2)ccc1O

>  <score_type>  (47) 
oracle

>  <origin>  (47) 
adg

>  <m_score__min__energy>  (47) 
-12

>  <m_primary>  (47) 
energy

$$$$
47:0
     RDKit          3D

 34 36  0  0  0  0  0  0  0  0999 V2000
   55.9440   25.1140   46.7220 C   0  0  0  0  0  0  0  0  0  0  0  0
   56.6670   26.3650   46.3360 C   0  0  0  0  0  0  0  0  0  0  0  0
   57.9990   26.5550   46.7130 C   0  0  0  0  0  0  0  0  0  0  0  0
   58.6630   27.7310   46.3510 C   0  0  0  0  0  0  0  0  0  0  0  0
   59.8650   27.8800   46.7030 O   0  0  0  0  0  0  0  0  0  0  0  0
   57.9850   28.7250   45.6050 C   0  0  0  0  0  0  0  0  0  0  0  0
   58.5990   29.9410   45.2080 C   0  0  0  0  0  0  0  0  0  0  0  0
   59.9390   30.1890   45.5550 O   0  0  0  0  0  0  0  0  0  0  0  0
   60.3860   30.8460   46.7430 C   0  0  0  0  0  0  0  0  0  0  0  0
   59.9270   32.2800   46.7650 C   0  0  0  0  0  0  0  0  0  0  0  0
   60.8160   33.3100   46.4140 C   0  0  0  0  0  0  0  0  0  0  0  0
   60.3900   34.6410   46.4250 C   0  0  0  0  0  0  0  0  0  0  0  0
   59.0750   34.9540   46.7780 C   0  0  0  0  0  0  0  0  0  0  0  0
   58.1820   33.9340   47.1180 C   0  0  0  0  0  0  0  0  0  0  0  0
   58.6020   32.6010   47.1080 C   0  0  0  0  0  0  0  0  0  0  0  0
   57.8480   30.8770   44.4660 C   0  0  0  0  0  0  0  0  0  0  0  0
   56.5190   30.6210   44.1300 C   0  0  0  0  0  0  0  0  0  0  0  0
   55.9130   29.4290   44.5210 C   0  0  0  0  0  0  0  0  0  0  0  0
   56.6330   28.4820   45.2520 C   0  0  0  0  0  0  0  0  0  0  0  0
   56.0230   27.3260   45.6240 N   0  0  0  0  0  0  0  0  0  0  0  0
   55.9007   25.0390   47.8186 H   0  0  0  0  0  0  0  0  0  0  0  0
   54.9222   25.1408   46.3157 H   0  0  0  0  0  0  0  0  0  0  0  0
   56.4774   24.2420   46.3157 H   0  0  0  0  0  0  0  0  0  0  0  0
   58.5237   25.7815   47.2930 H   0  0  0  0  0  0  0  0  0  0  0  0
   59.9773   30.3229   47.6201 H   0  0  0  0  0  0  0  0  0  0  0  0
   61.4856   30.8270   46.7643 H   0  0  0  0  0  0  0  0  0  0  0  0
   61.8507   33.0679   46.1296 H   0  0  0  0  0  0  0  0  0  0  0  0
   61.0917   35.4440   46.1551 H   0  0  0  0  0  0  0  0  0  0  0  0
   58.7427   36.0025   46.7883 H   0  0  0  0  0  0  0  0  0  0  0  0
   57.1462   34.1809   47.3941 H   0  0  0  0  0  0  0  0  0  0  0  0
   57.8938   31.8008   47.3692 H   0  0  0  0  0  0  0  0  0  0  0  0
   58.3166   31.8203   44.1486 H   0  0  0  0  0  0  0  0  0  0  0  0
   55.9469   31.3632   43.5539 H   0  0  0  0  0  0  0  0  0  0  0  0
   54.8642   29.2333   44.2530 H   0  0  0  0  0  0  0  0  0  0  0  0
  1  2  1  0
  2  3  2  0
  3  4  1  0
  4  5  2  0
  4  6  1  0
  6  7  2  0
  7  8  1  0
  8  9  1  0
  9 10  1  0
 10 11  2  0
 11 12  1  0
 12 13  2  0
 13 14  1  0
 14 15  2  0
  7 16  1  0
 16 17  2  0
 17 18  1  0
 18 19  2  0
 19 20  1  0
 20  2  1  0
 19  6  1  0
 15 10  1  0
  1 21  1  0
  1 22  1  0
  1 23  1  0
  3 24  1  0
  9 25  1  0
  9 26  1  0
 11 27  1  0
 12 28  1  0
 13 29  1  0
 14 30  1  0
 15 31  1  0
 16 32  1  0
 17 33  1  0
 18 34  1  0
M  CHG  1  20  -1
M  END
>  <UniqueID>  (48) 
42

>  <SMILES>  (48) 
Cc1cc(=O)c2c(OCc3ccccc3)cccc2[n-]1

>  <Energy>  (48) 
41.488936905728195

>  <Genealogy>  (48) 
Cc1cc(=O)c2c(OCc3ccccc3)cccc2[n-]1 (protonated)
Cc1cc(=O)c2c(OCc3ccccc3)cccc2[n-]1 (3D coordinates assigned)
Cc1cc(=O)c2c(OCc3ccccc3)cccc2[n-]1 (optimized conformer: 41.488936905728195 kcal/mol)

>  <smiles>  (48) 
Cc1cc(=O)c2c(OCc3ccccc3)cccc2[nH]1

>  <score_type>  (48) 
oracle

>  <origin>  (48) 
adg

>  <m_score__min__energy>  (48) 
-8.4399999999999995

>  <m_primary>  (48) 
energy

$$$$
48:0
     RDKit          3D

 44 47  0  0  0  0  0  0  0  0999 V2000
   57.3500   20.4110   45.6540 C   0  0  0  0  0  0  0  0  0  0  0  0
   57.2760   21.7090   46.3110 N   0  0  0  0  0  0  0  0  0  0  0  0
   57.6670   22.8820   45.7820 C   0  0  0  0  0  0  0  0  0  0  0  0
   57.5070   23.8630   46.7440 C   0  0  0  0  0  0  0  0  0  0  0  0
   57.8070   25.3130   46.6210 C   0  0  0  0  0  0  0  0  0  0  0  0
   59.0000   25.8450   47.1520 C   0  0  0  0  0  0  0  0  0  0  0  0
   59.2880   27.2090   47.0370 C   0  0  0  0  0  0  0  0  0  0  0  0
   58.3890   28.0590   46.3910 C   0  0  0  0  0  0  0  0  0  0  0  0
   58.6550   29.3850   46.2700 N   0  0  0  0  0  0  0  0  0  0  0  0
   57.7970   30.2340   45.6370 C   0  0  0  0  0  0  0  0  0  0  0  0
   58.1550   31.6700   45.5390 C   0  0  0  0  0  0  0  0  0  0  0  0
   57.4400   32.5060   44.6680 C   0  0  0  0  0  0  0  0  0  0  0  0
   57.7530   33.8620   44.5750 C   0  0  0  0  0  0  0  0  0  0  0  0
   58.7750   34.4010   45.3580 C   0  0  0  0  0  0  0  0  0  0  0  0
   59.4910   33.5930   46.2540 C   0  0  0  0  0  0  0  0  0  0  0  0
   60.5280   34.1910   47.0560 N   0  0  0  0  0  0  0  0  0  0  0  0
   62.1300   33.5490   47.2440 S   0  0  0  0  0  0  0  0  0  0  0  0
   62.0610   31.7910   47.5100 C   0  0  0  0  0  0  0  0  0  0  0  0
   62.9590   33.8670   46.0290 O   0  0  0  0  0  0  0  0  0  0  0  0
   62.7710   34.1890   48.4420 O   0  0  0  0  0  0  0  0  0  0  0  0
   59.1700   32.2240   46.3420 C   0  0  0  0  0  0  0  0  0  0  0  0
   56.5880   29.7150   45.1220 C   0  0  0  0  0  0  0  0  0  0  0  0
   55.7370   30.4650   44.5750 O   0  0  0  0  0  0  0  0  0  0  0  0
   56.3260   28.3870   45.2420 N   0  0  0  0  0  0  0  0  0  0  0  0
   57.1950   27.5440   45.8580 C   0  0  0  0  0  0  0  0  0  0  0  0
   56.9070   26.1800   45.9710 C   0  0  0  0  0  0  0  0  0  0  0  0
   57.0160   23.1890   47.8540 C   0  0  0  0  0  0  0  0  0  0  0  0
   56.8920   21.8790   47.5660 N   0  0  0  0  0  0  0  0  0  0  0  0
   57.3952   19.6173   46.4142 H   0  0  0  0  0  0  0  0  0  0  0  0
   56.4586   20.2667   45.0258 H   0  0  0  0  0  0  0  0  0  0  0  0
   58.2520   20.3689   45.0258 H   0  0  0  0  0  0  0  0  0  0  0  0
   58.0479   23.0348   44.7614 H   0  0  0  0  0  0  0  0  0  0  0  0
   59.7122   25.1799   47.6624 H   0  0  0  0  0  0  0  0  0  0  0  0
   60.2223   27.6114   47.4554 H   0  0  0  0  0  0  0  0  0  0  0  0
   56.6275   32.0893   44.0546 H   0  0  0  0  0  0  0  0  0  0  0  0
   57.1931   34.5082   43.8829 H   0  0  0  0  0  0  0  0  0  0  0  0
   59.0214   35.4696   45.2718 H   0  0  0  0  0  0  0  0  0  0  0  0
   60.3110   35.0640   47.5880 H   0  0  0  0  0  0  0  0  0  0  0  0
   62.0529   31.5837   48.5902 H   0  0  0  0  0  0  0  0  0  0  0  0
   61.1463   31.3865   47.0521 H   0  0  0  0  0  0  0  0  0  0  0  0
   62.9412   31.3160   47.0521 H   0  0  0  0  0  0  0  0  0  0  0  0
   59.7185   31.5809   47.0459 H   0  0  0  0  0  0  0  0  0  0  0  0
   55.9721   25.7819   45.5498 H   0  0  0  0  0  0  0  0  0  0  0  0
   56.7667   23.6531   48.8196 H   0  0  0  0  0  0  0  0  0  0  0  0
  1  2  1  0
  2  3  1  0
  3  4  2  0
  4  5  1  0
  5  6  2  0
  6  7  1  0
  7  8  2  0
  8  9  1  0
  9 10  2  0
 10 11  1  0
 11 12  2  0
 12 13  1  0
 13 14  2  0
 14 15  1  0
 15 16  1  0
 16 17  1  0
 17 18  1  0
 17 19  2  0
 17 20  2  0
 15 21  2  0
 10 22  1  0
 22 23  2  0
 22 24  1  0
 24 25  1  0
 25 26  2  0
  4 27  1  0
 27 28  2  0
 28  2  1  0
 26  5  1  0
 25  8  1  0
 21 11  1  0
  1 29  1  0
  1 30  1  0
  1 31  1  0
  3 32  1  0
  6 33  1  0
  7 34  1  0
 12 35  1  0
 13 36  1  0
 14 37  1  0
 16 38  1  0
 18 39  1  0
 18 40  1  0
 18 41  1  0
 21 42  1  0
 26 43  1  0
 27 44  1  0
M  CHG  1  24  -1
M  END
>  <UniqueID>  (49) 
43

>  <SMILES>  (49) 
Cn1cc(-c2ccc3nc(-c4cccc(NS(C)(=O)=O)c4)c(=O)[n-]c3c2)cn1

>  <Energy>  (49) 
88.035219644265

>  <Genealogy>  (49) 
Cn1cc(-c2ccc3nc(-c4cccc(NS(C)(=O)=O)c4)c(=O)[n-]c3c2)cn1 (protonated)
Cn1cc(-c2ccc3nc(-c4cccc(NS(C)(=O)=O)c4)c(=O)[n-]c3c2)cn1 (3D coordinates assigned)
Cn1cc(-c2ccc3nc(-c4cccc(NS(C)(=O)=O)c4)c(=O)[n-]c3c2)cn1 (optimized conformer: 88.035219644265 kcal/mol)

>  <smiles>  (49) 
Cn1cc(-c2ccc3nc(-c4cccc(NS(C)(=O)=O)c4)c(=O)[nH]c3c2)cn1

>  <score_type>  (49) 
oracle

>  <origin>  (49) 
adg

>  <m_score__min__energy>  (49) 
-11.07

>  <m_primary>  (49) 
energy

$$$$
49:0
     RDKit          3D

 48 50  0  0  0  0  0  0  0  0999 V2000
   64.6600   32.3280   49.9000 C   0  0  0  0  0  0  0  0  0  0  0  0
   63.4930   32.6130   49.0540 N   0  0  0  0  0  0  0  0  0  0  0  0
   63.0070   33.9930   48.9330 C   0  0  0  0  0  0  0  0  0  0  0  0
   61.5600   33.9770   48.5470 C   0  0  0  0  0  0  0  0  0  0  0  0
   60.6970   34.4190   49.3520 O   0  0  0  0  0  0  0  0  0  0  0  0
   61.1700   33.4680   47.2630 N   0  0  0  0  0  0  0  0  0  0  0  0
   59.8920   33.7200   46.6570 C   0  0  0  0  0  0  0  0  0  0  0  0
   59.8300   34.4420   45.4540 C   0  0  0  0  0  0  0  0  0  0  0  0
   58.5940   34.7260   44.8620 C   0  0  0  0  0  0  0  0  0  0  0  0
   57.4100   34.3050   45.4770 C   0  0  0  0  0  0  0  0  0  0  0  0
   56.2110   34.5870   44.9080 F   0  0  0  0  0  0  0  0  0  0  0  0
   57.4600   33.6040   46.6880 C   0  0  0  0  0  0  0  0  0  0  0  0
   58.6950   33.3150   47.2780 C   0  0  0  0  0  0  0  0  0  0  0  0
   62.7980   31.5430   48.3750 C   0  0  0  0  0  0  0  0  0  0  0  0
   63.1600   31.1930   47.2170 O   0  0  0  0  0  0  0  0  0  0  0  0
   61.6450   30.8580   48.9920 C   0  0  0  0  0  0  0  0  0  0  0  0
   61.6140   30.7060   50.3890 C   0  0  0  0  0  0  0  0  0  0  0  0
   60.5250   30.0960   51.0100 C   0  0  0  0  0  0  0  0  0  0  0  0
   59.4490   29.6430   50.2470 C   0  0  0  0  0  0  0  0  0  0  0  0
   59.4600   29.8020   48.8600 C   0  0  0  0  0  0  0  0  0  0  0  0
   60.5530   30.4000   48.2210 C   0  0  0  0  0  0  0  0  0  0  0  0
   60.5030   30.5660   46.4250 S   0  0  0  0  0  0  0  0  0  0  0  0
   59.7260   28.9610   46.1610 C   0  0  0  0  0  0  0  0  0  0  0  0
   60.4020   27.8010   46.5660 C   0  0  0  0  0  0  0  0  0  0  0  0
   59.8340   26.5410   46.3530 C   0  0  0  0  0  0  0  0  0  0  0  0
   58.5760   26.4320   45.7530 C   0  0  0  0  0  0  0  0  0  0  0  0
   57.8820   27.5820   45.3700 C   0  0  0  0  0  0  0  0  0  0  0  0
   58.4450   28.8500   45.5800 C   0  0  0  0  0  0  0  0  0  0  0  0
   57.6730   30.0180   45.2360 C   0  0  0  0  0  0  0  0  0  0  0  0
   57.0460   30.9520   44.9570 N   0  0  0  0  0  0  0  0  0  0  0  0
   64.3711   32.3985   50.9590 H   0  0  0  0  0  0  0  0  0  0  0  0
   65.0282   31.3135   49.6872 H   0  0  0  0  0  0  0  0  0  0  0  0
   65.4544   33.0585   49.6872 H   0  0  0  0  0  0  0  0  0  0  0  0
   63.1243   34.5096   49.8971 H   0  0  0  0  0  0  0  0  0  0  0  0
   63.5877   34.5216   48.1627 H   0  0  0  0  0  0  0  0  0  0  0  0
   61.8380   32.8400   46.7610 H   0  0  0  0  0  0  0  0  0  0  0  0
   60.7581   34.7862   44.9743 H   0  0  0  0  0  0  0  0  0  0  0  0
   58.5535   35.2804   43.9128 H   0  0  0  0  0  0  0  0  0  0  0  0
   56.5284   33.2806   47.1753 H   0  0  0  0  0  0  0  0  0  0  0  0
   58.7312   32.7685   48.2320 H   0  0  0  0  0  0  0  0  0  0  0  0
   62.4551   31.0710   50.9967 H   0  0  0  0  0  0  0  0  0  0  0  0
   60.5144   29.9719   52.1029 H   0  0  0  0  0  0  0  0  0  0  0  0
   58.5913   29.1602   50.7382 H   0  0  0  0  0  0  0  0  0  0  0  0
   58.6030   29.4546   48.2643 H   0  0  0  0  0  0  0  0  0  0  0  0
   61.3845   27.8827   47.0539 H   0  0  0  0  0  0  0  0  0  0  0  0
   60.3776   25.6346   46.6579 H   0  0  0  0  0  0  0  0  0  0  0  0
   58.1325   25.4399   45.5824 H   0  0  0  0  0  0  0  0  0  0  0  0
   56.8905   27.4933   44.9020 H   0  0  0  0  0  0  0  0  0  0  0  0
  1  2  1  0
  2  3  1  0
  3  4  1  0
  4  5  2  0
  4  6  1  0
  6  7  1  0
  7  8  2  0
  8  9  1  0
  9 10  2  0
 10 11  1  0
 10 12  1  0
 12 13  2  0
  2 14  1  0
 14 15  2  0
 14 16  1  0
 16 17  2  0
 17 18  1  0
 18 19  2  0
 19 20  1  0
 20 21  2  0
 21 22  1  0
 22 23  1  0
 23 24  2  0
 24 25  1  0
 25 26  2  0
 26 27  1  0
 27 28  2  0
 28 29  1  0
 29 30  3  0
 13  7  1  0
 21 16  1  0
 28 23  1  0
  1 31  1  0
  1 32  1  0
  1 33  1  0
  3 34  1  0
  3 35  1  0
  6 36  1  0
  8 37  1  0
  9 38  1  0
 12 39  1  0
 13 40  1  0
 17 41  1  0
 18 42  1  0
 19 43  1  0
 20 44  1  0
 24 45  1  0
 25 46  1  0
 26 47  1  0
 27 48  1  0
M  END
>  <UniqueID>  (50) 
44

>  <SMILES>  (50) 
CN(CC(=O)Nc1ccc(F)cc1)C(=O)c1ccccc1Sc1ccccc1C#N

>  <Energy>  (50) 
52.441662668462826

>  <Genealogy>  (50) 
CN(CC(=O)Nc1ccc(F)cc1)C(=O)c1ccccc1Sc1ccccc1C#N (3D coordinates assigned)
CN(CC(=O)Nc1ccc(F)cc1)C(=O)c1ccccc1Sc1ccccc1C#N (optimized conformer: 52.441662668462826 kcal/mol)

>  <smiles>  (50) 
CN(CC(=O)Nc1ccc(F)cc1)C(=O)c1ccccc1Sc1ccccc1C#N

>  <score_type>  (50) 
oracle

>  <origin>  (50) 
adg

>  <m_score__min__energy>  (50) 
-8.8599999999999994

>  <m_primary>  (50) 
energy

$$$$
50:0
     RDKit          3D

 36 38  0  0  0  0  0  0  0  0999 V2000
   56.4710   29.6630   43.1460 C   0  0  0  0  0  0  0  0  0  0  0  0
   56.4050   29.9890   44.5310 O   0  0  0  0  0  0  0  0  0  0  0  0
   57.3780   30.7250   45.2290 C   0  0  0  0  0  0  0  0  0  0  0  0
   57.3840   32.1350   45.2170 C   0  0  0  0  0  0  0  0  0  0  0  0
   58.3530   32.8490   45.9320 C   0  0  0  0  0  0  0  0  0  0  0  0
   58.3590   34.2410   45.9230 O   0  0  0  0  0  0  0  0  0  0  0  0
   59.3240   32.1620   46.6600 C   0  0  0  0  0  0  0  0  0  0  0  0
   59.3330   30.7670   46.6790 C   0  0  0  0  0  0  0  0  0  0  0  0
   58.3620   30.0330   45.9710 C   0  0  0  0  0  0  0  0  0  0  0  0
   58.3950   28.5470   45.9800 C   0  0  0  0  0  0  0  0  0  0  0  0
   59.6080   27.8430   45.9840 C   0  0  0  0  0  0  0  0  0  0  0  0
   59.5920   26.4480   45.9920 C   0  0  0  0  0  0  0  0  0  0  0  0
   60.6870   25.8240   45.9980 O   0  0  0  0  0  0  0  0  0  0  0  0
   58.3580   25.7680   45.9970 C   0  0  0  0  0  0  0  0  0  0  0  0
   58.2520   24.3600   46.0050 C   0  0  0  0  0  0  0  0  0  0  0  0
   59.3830   23.5490   46.0040 O   0  0  0  0  0  0  0  0  0  0  0  0
   56.9910   23.7530   46.0150 C   0  0  0  0  0  0  0  0  0  0  0  0
   55.8180   24.5300   46.0180 C   0  0  0  0  0  0  0  0  0  0  0  0
   54.5390   23.9530   46.0300 O   0  0  0  0  0  0  0  0  0  0  0  0
   53.5870   24.0840   44.9790 C   0  0  0  0  0  0  0  0  0  0  0  0
   55.9220   25.9260   46.0110 C   0  0  0  0  0  0  0  0  0  0  0  0
   54.7680   26.7030   46.0140 O   0  0  0  0  0  0  0  0  0  0  0  0
   57.1760   26.5470   45.9990 C   0  0  0  0  0  0  0  0  0  0  0  0
   57.2460   27.8750   45.9900 O   0  0  0  0  0  0  0  0  0  0  0  0
   56.6881   28.5907   43.0317 H   0  0  0  0  0  0  0  0  0  0  0  0
   55.5077   29.8950   42.6684 H   0  0  0  0  0  0  0  0  0  0  0  0
   57.2682   30.2515   42.6684 H   0  0  0  0  0  0  0  0  0  0  0  0
   56.6207   32.6786   44.6409 H   0  0  0  0  0  0  0  0  0  0  0  0
   59.1960   34.7700   46.1440 H   0  0  0  0  0  0  0  0  0  0  0  0
   60.0860   32.7223   47.2216 H   0  0  0  0  0  0  0  0  0  0  0  0
   60.1063   30.2352   47.2528 H   0  0  0  0  0  0  0  0  0  0  0  0
   60.5644   28.3864   45.9809 H   0  0  0  0  0  0  0  0  0  0  0  0
   56.9161   22.6556   46.0206 H   0  0  0  0  0  0  0  0  0  0  0  0
   52.5837   24.2221   45.4082 H   0  0  0  0  0  0  0  0  0  0  0  0
   53.8434   24.9553   44.3585 H   0  0  0  0  0  0  0  0  0  0  0  0
   53.5986   23.1758   44.3585 H   0  0  0  0  0  0  0  0  0  0  0  0
  1  2  1  0
  2  3  1  0
  3  4  2  0
  4  5  1  0
  5  6  1  0
  5  7  2  0
  7  8  1  0
  8  9  2  0
  9 10  1  0
 10 11  2  0
 11 12  1  0
 12 13  2  0
 12 14  1  0
 14 15  2  0
 15 16  1  0
 15 17  1  0
 17 18  2  0
 18 19  1  0
 19 20  1  0
 18 21  1  0
 21 22  1  0
 21 23  2  0
 23 24  1  0
  9  3  1  0
 24 10  1  0
 23 14  1  0
  1 25  1  0
  1 26  1  0
  1 27  1  0
  4 28  1  0
  6 29  1  0
  7 30  1  0
  8 31  1  0
 11 32  1  0
 17 33  1  0
 20 34  1  0
 20 35  1  0
 20 36  1  0
M  CHG  2  16  -1  22  -1
M  END
>  <UniqueID>  (51) 
45

>  <SMILES>  (51) 
COc1cc(O)ccc1-c1cc(=O)c2c([O-])cc(OC)c([O-])c2o1

>  <Energy>  (51) 
49.20393511317461

>  <Genealogy>  (51) 
COc1cc(O)ccc1-c1cc(=O)c2c([O-])cc(OC)c([O-])c2o1 (protonated)
COc1cc(O)ccc1-c1cc(=O)c2c([O-])cc(OC)c([O-])c2o1 (3D coordinates assigned)
COc1cc(O)ccc1-c1cc(=O)c2c([O-])cc(OC)c([O-])c2o1 (optimized conformer: 49.20393511317461 kcal/mol)

>  <smiles>  (51) 
COc1cc(O)ccc1-c1cc(=O)c2c(O)cc(OC)c(O)c2o1

>  <score_type>  (51) 
oracle

>  <origin>  (51) 
adg

>  <m_score__min__energy>  (51) 
-12.19

>  <m_primary>  (51) 
energy

$$$$
51:0
     RDKit          3D

 37 38  0  0  0  0  0  0  0  0999 V2000
   57.1280   24.5640   43.4560 C   0  0  0  0  0  0  0  0  0  0  0  0
   56.2870   24.1250   44.6230 C   0  0  0  0  0  0  0  0  0  0  0  0
   55.0910   23.4210   44.4000 C   0  0  0  0  0  0  0  0  0  0  0  0
   54.2990   23.0150   45.4770 C   0  0  0  0  0  0  0  0  0  0  0  0
   53.1180   22.3180   45.2490 O   0  0  0  0  0  0  0  0  0  0  0  0
   54.6910   23.3130   46.7840 C   0  0  0  0  0  0  0  0  0  0  0  0
   55.8760   24.0120   47.0180 C   0  0  0  0  0  0  0  0  0  0  0  0
   56.6950   24.4050   45.9440 C   0  0  0  0  0  0  0  0  0  0  0  0
   57.8990   25.1540   46.1720 N   0  0  0  0  0  0  0  0  0  0  0  0
   58.0470   26.5760   46.0700 C   0  0  0  0  0  0  0  0  0  0  0  0
   59.1460   27.0970   46.4010 O   0  0  0  0  0  0  0  0  0  0  0  0
   56.9160   27.4610   45.6170 C   0  0  0  0  0  0  0  0  0  0  0  0
   57.4430   28.7280   44.9350 C   0  0  0  0  0  0  0  0  0  0  0  0
   56.3350   29.7180   44.7530 C   0  0  0  0  0  0  0  0  0  0  0  0
   55.1370   29.3430   44.8720 O   0  0  0  0  0  0  0  0  0  0  0  0
   56.6520   31.0810   44.4390 N   0  0  0  0  0  0  0  0  0  0  0  0
   57.3970   31.9930   45.2570 C   0  0  0  0  0  0  0  0  0  0  0  0
   58.1320   31.5620   46.3780 C   0  0  0  0  0  0  0  0  0  0  0  0
   58.8670   32.4820   47.1340 C   0  0  0  0  0  0  0  0  0  0  0  0
   58.8860   33.8310   46.7700 C   0  0  0  0  0  0  0  0  0  0  0  0
   59.6010   34.7210   47.5020 F   0  0  0  0  0  0  0  0  0  0  0  0
   58.1780   34.2610   45.6450 C   0  0  0  0  0  0  0  0  0  0  0  0
   57.4430   33.3430   44.8870 C   0  0  0  0  0  0  0  0  0  0  0  0
   58.0464   25.0434   43.8257 H   0  0  0  0  0  0  0  0  0  0  0  0
   57.3920   23.6886   42.8444 H   0  0  0  0  0  0  0  0  0  0  0  0
   56.5607   25.2810   42.8444 H   0  0  0  0  0  0  0  0  0  0  0  0
   54.7768   23.1884   43.3718 H   0  0  0  0  0  0  0  0  0  0  0  0
   54.0644   22.9961   47.6307 H   0  0  0  0  0  0  0  0  0  0  0  0
   56.1714   24.2572   48.0488 H   0  0  0  0  0  0  0  0  0  0  0  0
   56.2882   26.9049   44.9052 H   0  0  0  0  0  0  0  0  0  0  0  0
   56.3311   27.7582   46.4999 H   0  0  0  0  0  0  0  0  0  0  0  0
   58.2307   29.1753   45.5590 H   0  0  0  0  0  0  0  0  0  0  0  0
   57.8504   28.4610   43.9487 H   0  0  0  0  0  0  0  0  0  0  0  0
   58.1284   30.4989   46.6603 H   0  0  0  0  0  0  0  0  0  0  0  0
   59.4304   32.1429   48.0158 H   0  0  0  0  0  0  0  0  0  0  0  0
   58.1984   35.3219   45.3550 H   0  0  0  0  0  0  0  0  0  0  0  0
   56.8977   33.6838   43.9946 H   0  0  0  0  0  0  0  0  0  0  0  0
  1  2  1  0
  2  3  2  0
  3  4  1  0
  4  5  1  0
  4  6  2  0
  6  7  1  0
  7  8  2  0
  8  9  1  0
  9 10  1  0
 10 11  2  0
 10 12  1  0
 12 13  1  0
 13 14  1  0
 14 15  2  0
 14 16  1  0
 16 17  1  0
 17 18  2  0
 18 19  1  0
 19 20  2  0
 20 21  1  0
 20 22  1  0
 22 23  2  0
  8  2  1  0
 23 17  1  0
  1 24  1  0
  1 25  1  0
  1 26  1  0
  3 27  1  0
  6 28  1  0
  7 29  1  0
 12 30  1  0
 12 31  1  0
 13 32  1  0
 13 33  1  0
 18 34  1  0
 19 35  1  0
 22 36  1  0
 23 37  1  0
M  CHG  3   5  -1   9  -1  16  -1
M  END
>  <UniqueID>  (52) 
46

>  <SMILES>  (52) 
Cc1cc([O-])ccc1[N-]C(=O)CCC(=O)[N-]c1ccc(F)cc1

>  <Energy>  (52) 
41.987415627044555

>  <Genealogy>  (52) 
Cc1cc([O-])ccc1[N-]C(=O)CCC(=O)[N-]c1ccc(F)cc1 (protonated)
Cc1cc([O-])ccc1[N-]C(=O)CCC(=O)[N-]c1ccc(F)cc1 (3D coordinates assigned)
Cc1cc([O-])ccc1[N-]C(=O)CCC(=O)[N-]c1ccc(F)cc1 (optimized conformer: 41.987415627044555 kcal/mol)

>  <smiles>  (52) 
Cc1cc(O)ccc1NC(=O)CCC(=O)Nc1ccc(F)cc1

>  <score_type>  (52) 
oracle

>  <origin>  (52) 
adg

>  <m_score__min__energy>  (52) 
-12.57

>  <m_primary>  (52) 
energy

$$$$
52:0
     RDKit          3D

 35 36  0  0  0  0  0  0  0  0999 V2000
   64.0680   32.1280   46.7460 N   0  0  0  0  0  0  0  0  0  0  0  0
   63.3510   33.5740   47.3610 S   0  0  0  0  0  0  0  0  0  0  0  0
   63.3730   34.5830   46.2290 O   0  0  0  0  0  0  0  0  0  0  0  0
   64.1300   34.1400   48.5010 O   0  0  0  0  0  0  0  0  0  0  0  0
   61.6780   33.3330   47.7740 C   0  0  0  0  0  0  0  0  0  0  0  0
   61.0880   34.0630   48.7780 C   0  0  0  0  0  0  0  0  0  0  0  0
   59.7760   33.9310   49.1540 C   0  0  0  0  0  0  0  0  0  0  0  0
   58.9800   33.0200   48.5050 C   0  0  0  0  0  0  0  0  0  0  0  0
   59.5460   32.2660   47.4840 C   0  0  0  0  0  0  0  0  0  0  0  0
   58.7290   31.3580   46.8120 N   0  0  0  0  0  0  0  0  0  0  0  0
   58.8200   29.9160   46.9820 C   0  0  0  0  0  0  0  0  0  0  0  0
   59.9830   29.4040   47.9730 S   0  0  0  0  0  0  0  0  0  0  0  0
   58.0100   29.0650   46.3110 N   0  0  0  0  0  0  0  0  0  0  0  0
   57.1960   28.2090   45.6370 C   0  0  0  0  0  0  0  0  0  0  0  0
   56.3630   28.7370   44.7800 O   0  0  0  0  0  0  0  0  0  0  0  0
   57.1060   26.7820   45.7470 C   0  0  0  0  0  0  0  0  0  0  0  0
   58.3100   26.0800   45.5460 C   0  0  0  0  0  0  0  0  0  0  0  0
   58.3370   24.7080   45.5470 C   0  0  0  0  0  0  0  0  0  0  0  0
   57.1440   24.0670   45.7520 C   0  0  0  0  0  0  0  0  0  0  0  0
   55.9450   24.6960   45.9550 C   0  0  0  0  0  0  0  0  0  0  0  0
   55.9490   26.0680   45.9480 C   0  0  0  0  0  0  0  0  0  0  0  0
   54.7690   26.7140   46.1490 O   0  0  0  0  0  0  0  0  0  0  0  0
   60.8700   32.4090   47.1160 C   0  0  0  0  0  0  0  0  0  0  0  0
   64.7860   32.3200   46.0200 H   0  0  0  0  0  0  0  0  0  0  0  0
   64.4310   31.4980   47.4980 H   0  0  0  0  0  0  0  0  0  0  0  0
   61.7066   34.7986   49.3130 H   0  0  0  0  0  0  0  0  0  0  0  0
   59.3657   34.5483   49.9668 H   0  0  0  0  0  0  0  0  0  0  0  0
   57.9242   32.8906   48.7852 H   0  0  0  0  0  0  0  0  0  0  0  0
   58.0070   31.7550   46.1440 H   0  0  0  0  0  0  0  0  0  0  0  0
   56.9880   29.8800   46.4730 H   0  0  0  0  0  0  0  0  0  0  0  0
   59.2432   26.6400   45.3857 H   0  0  0  0  0  0  0  0  0  0  0  0
   59.2719   24.1498   45.3907 H   0  0  0  0  0  0  0  0  0  0  0  0
   57.1497   22.9670   45.7536 H   0  0  0  0  0  0  0  0  0  0  0  0
   55.0183   24.1259   46.1168 H   0  0  0  0  0  0  0  0  0  0  0  0
   61.2854   31.7938   46.3043 H   0  0  0  0  0  0  0  0  0  0  0  0
  1  2  1  0
  2  3  2  0
  2  4  2  0
  2  5  1  0
  5  6  2  0
  6  7  1  0
  7  8  2  0
  8  9  1  0
  9 10  1  0
 10 11  1  0
 11 12  2  0
 11 13  1  0
 13 14  1  0
 14 15  2  0
 14 16  1  0
 16 17  2  0
 17 18  1  0
 18 19  2  0
 19 20  1  0
 20 21  2  0
 21 22  1  0
  9 23  2  0
 23  5  1  0
 21 16  1  0
  1 24  1  0
  1 25  1  0
  6 26  1  0
  7 27  1  0
  8 28  1  0
 10 29  1  0
 13 30  1  0
 17 31  1  0
 18 32  1  0
 19 33  1  0
 20 34  1  0
 23 35  1  0
M  CHG  1  22  -1
M  END
>  <UniqueID>  (53) 
47

>  <SMILES>  (53) 
NS(=O)(=O)c1cccc(NC(=S)NC(=O)c2ccccc2[O-])c1

>  <Energy>  (53) 
197.4502861224425

>  <Genealogy>  (53) 
NS(=O)(=O)c1cccc(NC(=S)NC(=O)c2ccccc2[O-])c1 (protonated)
NS(=O)(=O)c1cccc(NC(=S)NC(=O)c2ccccc2[O-])c1 (3D coordinates assigned)
NS(=O)(=O)c1cccc(NC(=S)NC(=O)c2ccccc2[O-])c1 (optimized conformer: 197.4502861224425 kcal/mol)

>  <smiles>  (53) 
NS(=O)(=O)c1cccc(NC(=S)NC(=O)c2ccccc2O)c1

>  <score_type>  (53) 
oracle

>  <origin>  (53) 
adg

>  <m_score__min__energy>  (53) 
-12.07

>  <m_primary>  (53) 
energy

$$$$
53:0
     RDKit          3D

 58 61  0  0  0  0  0  0  0  0999 V2000
   56.2650   22.8040   42.8080 C   0  0  0  0  0  0  0  0  0  0  0  0
   55.7110   23.1010   44.0860 O   0  0  0  0  0  0  0  0  0  0  0  0
   56.1230   22.5110   45.2920 C   0  0  0  0  0  0  0  0  0  0  0  0
   56.7630   21.2550   45.3230 C   0  0  0  0  0  0  0  0  0  0  0  0
   57.1070   20.6670   46.5450 C   0  0  0  0  0  0  0  0  0  0  0  0
   56.8120   21.3170   47.7440 C   0  0  0  0  0  0  0  0  0  0  0  0
   56.1870   22.5660   47.7240 C   0  0  0  0  0  0  0  0  0  0  0  0
   55.8660   23.1810   46.5060 C   0  0  0  0  0  0  0  0  0  0  0  0
   55.2210   24.4620   46.5320 N   0  0  0  0  0  0  0  0  0  0  0  0
   55.8760   25.7320   46.3950 C   0  0  0  0  0  0  0  0  0  0  0  0
   55.2030   26.7260   46.0150 O   0  0  0  0  0  0  0  0  0  0  0  0
   57.3300   25.9140   46.7220 C   0  0  0  0  0  0  0  0  0  0  0  0
   57.9350   26.7540   45.7450 O   0  0  0  0  0  0  0  0  0  0  0  0
   57.8300   26.5110   44.3730 C   0  0  0  0  0  0  0  0  0  0  0  0
   57.4890   25.3750   43.9480 O   0  0  0  0  0  0  0  0  0  0  0  0
   58.1470   27.6080   43.4050 C   0  0  0  0  0  0  0  0  0  0  0  0
   58.1390   28.9560   44.1040 C   0  0  0  0  0  0  0  0  0  0  0  0
   59.2570   29.4450   44.8370 C   0  0  0  0  0  0  0  0  0  0  0  0
   60.5620   28.6780   44.8940 C   0  0  0  0  0  0  0  0  0  0  0  0
   59.1210   30.6790   45.5260 C   0  0  0  0  0  0  0  0  0  0  0  0
   57.9170   31.4130   45.3780 C   0  0  0  0  0  0  0  0  0  0  0  0
   57.7430   32.6550   46.0210 C   0  0  0  0  0  0  0  0  0  0  0  0
   58.7500   33.2010   46.8410 C   0  0  0  0  0  0  0  0  0  0  0  0
   58.5270   34.5230   47.5170 C   0  0  0  0  0  0  0  0  0  0  0  0
   59.9290   32.4500   47.0050 C   0  0  0  0  0  0  0  0  0  0  0  0
   61.0850   32.6680   47.7480 C   0  0  0  0  0  0  0  0  0  0  0  0
   61.4320   33.8410   48.6160 C   0  0  0  0  0  0  0  0  0  0  0  0
   61.8870   31.5590   47.4970 C   0  0  0  0  0  0  0  0  0  0  0  0
   63.2500   31.3050   48.0520 C   0  0  0  0  0  0  0  0  0  0  0  0
   61.2750   30.7290   46.6800 O   0  0  0  0  0  0  0  0  0  0  0  0
   60.1060   31.2380   46.3680 C   0  0  0  0  0  0  0  0  0  0  0  0
   56.9310   30.9400   44.6300 O   0  0  0  0  0  0  0  0  0  0  0  0
   56.9910   29.7730   44.0060 C   0  0  0  0  0  0  0  0  0  0  0  0
   55.9980   29.4050   43.3200 O   0  0  0  0  0  0  0  0  0  0  0  0
   57.2278   22.2878   42.9367 H   0  0  0  0  0  0  0  0  0  0  0  0
   55.5732   22.1558   42.2501 H   0  0  0  0  0  0  0  0  0  0  0  0
   56.4219   23.7390   42.2501 H   0  0  0  0  0  0  0  0  0  0  0  0
   56.9930   20.7347   44.3815 H   0  0  0  0  0  0  0  0  0  0  0  0
   57.6114   19.6896   46.5606 H   0  0  0  0  0  0  0  0  0  0  0  0
   57.0713   20.8463   48.7038 H   0  0  0  0  0  0  0  0  0  0  0  0
   55.9449   23.0707   48.6710 H   0  0  0  0  0  0  0  0  0  0  0  0
   57.4272   26.3775   47.7148 H   0  0  0  0  0  0  0  0  0  0  0  0
   57.8306   24.9345   46.7238 H   0  0  0  0  0  0  0  0  0  0  0  0
   59.1425   27.4313   42.9716 H   0  0  0  0  0  0  0  0  0  0  0  0
   57.3832   27.6143   42.6134 H   0  0  0  0  0  0  0  0  0  0  0  0
   60.8442   28.5121   45.9442 H   0  0  0  0  0  0  0  0  0  0  0  0
   60.4396   27.7081   44.3896 H   0  0  0  0  0  0  0  0  0  0  0  0
   61.3498   29.2568   44.3896 H   0  0  0  0  0  0  0  0  0  0  0  0
   56.8030   33.2086   45.8799 H   0  0  0  0  0  0  0  0  0  0  0  0
   58.5502   34.3854   48.6081 H   0  0  0  0  0  0  0  0  0  0  0  0
   59.3193   35.2254   47.2191 H   0  0  0  0  0  0  0  0  0  0  0  0
   57.5481   34.9267   47.2191 H   0  0  0  0  0  0  0  0  0  0  0  0
   61.3466   33.5522   49.6740 H   0  0  0  0  0  0  0  0  0  0  0  0
   62.4632   34.1607   48.4053 H   0  0  0  0  0  0  0  0  0  0  0  0
   60.7407   34.6703   48.4053 H   0  0  0  0  0  0  0  0  0  0  0  0
   63.2058   31.3132   49.1511 H   0  0  0  0  0  0  0  0  0  0  0  0
   63.6096   30.3244   47.7069 H   0  0  0  0  0  0  0  0  0  0  0  0
   63.9386   32.0903   47.7069 H   0  0  0  0  0  0  0  0  0  0  0  0
  1  2  1  0
  2  3  1  0
  3  4  2  0
  4  5  1  0
  5  6  2  0
  6  7  1  0
  7  8  2  0
  8  9  1  0
  9 10  1  0
 10 11  2  0
 10 12  1  0
 12 13  1  0
 13 14  1  0
 14 15  2  0
 14 16  1  0
 16 17  1  0
 17 18  2  0
 18 19  1  0
 18 20  1  0
 20 21  2  0
 21 22  1  0
 22 23  2  0
 23 24  1  0
 23 25  1  0
 25 26  1  0
 26 27  1  0
 26 28  2  0
 28 29  1  0
 28 30  1  0
 30 31  1  0
 21 32  1  0
 32 33  1  0
 33 34  2  0
  8  3  1  0
 33 17  1  0
 31 20  1  0
 31 25  2  0
  1 35  1  0
  1 36  1  0
  1 37  1  0
  4 38  1  0
  5 39  1  0
  6 40  1  0
  7 41  1  0
 12 42  1  0
 12 43  1  0
 16 44  1  0
 16 45  1  0
 19 46  1  0
 19 47  1  0
 19 48  1  0
 22 49  1  0
 24 50  1  0
 24 51  1  0
 24 52  1  0
 27 53  1  0
 27 54  1  0
 27 55  1  0
 29 56  1  0
 29 57  1  0
 29 58  1  0
M  CHG  1   9  -1
M  END
>  <UniqueID>  (54) 
48

>  <SMILES>  (54) 
COc1ccccc1[N-]C(=O)COC(=O)Cc1c(C)c2c(cc(C)c3c(C)c(C)oc32)oc1=O

>  <Energy>  (54) 
106.83898874325939

>  <Genealogy>  (54) 
COc1ccccc1[N-]C(=O)COC(=O)Cc1c(C)c2c(cc(C)c3c(C)c(C)oc32)oc1=O (protonated)
COc1ccccc1[N-]C(=O)COC(=O)Cc1c(C)c2c(cc(C)c3c(C)c(C)oc32)oc1=O (3D coordinates assigned)
COc1ccccc1[N-]C(=O)COC(=O)Cc1c(C)c2c(cc(C)c3c(C)c(C)oc32)oc1=O (optimized conformer: 106.83898874325939 kcal/mol)

>  <smiles>  (54) 
COc1ccccc1NC(=O)COC(=O)Cc1c(C)c2c(cc(C)c3c(C)c(C)oc32)oc1=O

>  <score_type>  (54) 
oracle

>  <origin>  (54) 
adg

>  <m_score__min__energy>  (54) 
-10.75

>  <m_primary>  (54) 
energy

$$$$
54:0
     RDKit          3D

 83 87  0  0  0  0  0  0  0  0999 V2000
   63.2120   29.3500   52.7260 C   0  0  0  0  0  0  0  0  0  0  0  0
   63.5060   30.6850   53.3990 C   0  0  0  0  0  0  0  0  0  0  0  0
   62.6490   31.7070   52.8950 O   0  0  0  0  0  0  0  0  0  0  0  0
   63.1110   32.8890   52.3060 C   0  0  0  0  0  0  0  0  0  0  0  0
   63.5990   33.8050   53.0210 O   0  0  0  0  0  0  0  0  0  0  0  0
   63.0830   33.0460   50.8280 C   0  0  0  0  0  0  0  0  0  0  0  0
   64.1920   32.8640   50.0670 C   0  0  0  0  0  0  0  0  0  0  0  0
   65.4850   32.3830   50.6140 C   0  0  0  0  0  0  0  0  0  0  0  0
   66.4750   33.2740   51.0620 C   0  0  0  0  0  0  0  0  0  0  0  0
   67.6780   32.7900   51.5800 C   0  0  0  0  0  0  0  0  0  0  0  0
   67.9010   31.4150   51.6710 C   0  0  0  0  0  0  0  0  0  0  0  0
   66.9180   30.5040   51.2470 C   0  0  0  0  0  0  0  0  0  0  0  0
   67.1520   29.0400   51.3470 C   0  0  0  0  0  0  0  0  0  0  0  0
   66.6370   28.3060   52.4330 C   0  0  0  0  0  0  0  0  0  0  0  0
   66.8660   26.9300   52.5310 C   0  0  0  0  0  0  0  0  0  0  0  0
   67.6080   26.2720   51.5480 C   0  0  0  0  0  0  0  0  0  0  0  0
   68.1210   26.9870   50.4650 C   0  0  0  0  0  0  0  0  0  0  0  0
   67.8980   28.3640   50.3630 C   0  0  0  0  0  0  0  0  0  0  0  0
   65.7080   31.0010   50.7270 C   0  0  0  0  0  0  0  0  0  0  0  0
   64.1700   33.1610   48.6650 N   0  0  0  0  0  0  0  0  0  0  0  0
   63.1840   33.7210   48.0330 C   0  0  0  0  0  0  0  0  0  0  0  0
   63.3740   34.0590   46.5810 C   0  0  0  0  0  0  0  0  0  0  0  0
   61.9890   34.2520   48.7940 C   0  0  1  0  0  0  0  0  0  0  0  0
   60.7160   34.2150   47.9760 C   0  0  0  0  0  0  0  0  0  0  0  0
   59.7460   34.9610   48.2880 O   0  0  0  0  0  0  0  0  0  0  0  0
   60.6490   33.4000   46.7950 N   0  0  0  0  0  0  0  0  0  0  0  0
   59.4660   33.3410   45.9420 C   0  0  0  0  0  0  0  0  0  0  0  0
   58.9400   31.9320   45.8940 C   0  0  0  0  0  0  0  0  0  0  0  0
   59.6250   30.8970   46.5440 C   0  0  0  0  0  0  0  0  0  0  0  0
   59.1310   29.5920   46.5090 C   0  0  0  0  0  0  0  0  0  0  0  0
   57.9280   29.3030   45.8340 C   0  0  0  0  0  0  0  0  0  0  0  0
   57.4040   28.0030   45.7720 O   0  0  0  0  0  0  0  0  0  0  0  0
   57.8490   26.9990   44.8670 C   0  0  0  0  0  0  0  0  0  0  0  0
   57.2230   30.3400   45.2020 C   0  0  0  0  0  0  0  0  0  0  0  0
   56.0150   30.0280   44.5580 O   0  0  0  0  0  0  0  0  0  0  0  0
   55.8970   29.7150   43.1750 C   0  0  0  0  0  0  0  0  0  0  0  0
   57.7360   31.6520   45.2330 C   0  0  0  0  0  0  0  0  0  0  0  0
   61.8110   33.6110   50.2140 C   0  0  1  0  0  0  0  0  0  0  0  0
   60.5560   32.7280   50.3910 C   0  0  0  0  0  0  0  0  0  0  0  0
   59.4410   33.3560   50.9970 C   0  0  0  0  0  0  0  0  0  0  0  0
   58.2430   32.6790   51.1980 C   0  0  0  0  0  0  0  0  0  0  0  0
   58.1190   31.3560   50.8030 C   0  0  0  0  0  0  0  0  0  0  0  0
   59.1870   30.7060   50.1920 C   0  0  0  0  0  0  0  0  0  0  0  0
   60.4090   31.3720   49.9440 C   0  0  0  0  0  0  0  0  0  0  0  0
   61.5150   30.5820   49.2710 C   0  0  0  0  0  0  0  0  0  0  0  0
   61.0770   29.3380   48.8520 F   0  0  0  0  0  0  0  0  0  0  0  0
   61.9740   31.2380   48.1530 F   0  0  0  0  0  0  0  0  0  0  0  0
   62.5500   30.3850   50.1620 F   0  0  0  0  0  0  0  0  0  0  0  0
   63.0427   28.5814   53.4945 H   0  0  0  0  0  0  0  0  0  0  0  0
   62.3134   29.4456   52.0988 H   0  0  0  0  0  0  0  0  0  0  0  0
   64.0676   29.0592   52.0988 H   0  0  0  0  0  0  0  0  0  0  0  0
   63.3484   30.5846   54.4830 H   0  0  0  0  0  0  0  0  0  0  0  0
   64.5488   30.9639   53.1873 H   0  0  0  0  0  0  0  0  0  0  0  0
   66.3013   34.3587   51.0043 H   0  0  0  0  0  0  0  0  0  0  0  0
   68.4525   33.4945   51.9175 H   0  0  0  0  0  0  0  0  0  0  0  0
   68.8526   31.0418   52.0773 H   0  0  0  0  0  0  0  0  0  0  0  0
   66.0505   28.8187   53.2096 H   0  0  0  0  0  0  0  0  0  0  0  0
   66.4611   26.3652   53.3836 H   0  0  0  0  0  0  0  0  0  0  0  0
   67.7882   25.1898   51.6274 H   0  0  0  0  0  0  0  0  0  0  0  0
   68.7022   26.4664   49.6896 H   0  0  0  0  0  0  0  0  0  0  0  0
   68.3081   28.9223   49.5085 H   0  0  0  0  0  0  0  0  0  0  0  0
   64.9264   30.2973   50.4047 H   0  0  0  0  0  0  0  0  0  0  0  0
   63.9114   35.0149   46.4943 H   0  0  0  0  0  0  0  0  0  0  0  0
   63.9578   33.2646   46.0930 H   0  0  0  0  0  0  0  0  0  0  0  0
   62.3919   34.1449   46.0930 H   0  0  0  0  0  0  0  0  0  0  0  0
   62.2118   35.3129   48.9805 H   0  0  0  0  0  0  0  0  0  0  0  0
   61.4450   32.7540   46.5760 H   0  0  0  0  0  0  0  0  0  0  0  0
   58.6899   34.0066   46.3479 H   0  0  0  0  0  0  0  0  0  0  0  0
   59.7359   33.6620   44.9251 H   0  0  0  0  0  0  0  0  0  0  0  0
   60.5577   31.1141   47.0852 H   0  0  0  0  0  0  0  0  0  0  0  0
   59.6838   28.7844   47.0112 H   0  0  0  0  0  0  0  0  0  0  0  0
   58.2309   26.1373   45.4342 H   0  0  0  0  0  0  0  0  0  0  0  0
   57.0089   26.6779   44.2336 H   0  0  0  0  0  0  0  0  0  0  0  0
   58.6511   27.4057   44.2336 H   0  0  0  0  0  0  0  0  0  0  0  0
   55.5110   28.6911   43.0624 H   0  0  0  0  0  0  0  0  0  0  0  0
   55.2040   30.4228   42.6967 H   0  0  0  0  0  0  0  0  0  0  0  0
   56.8848   29.7891   42.6967 H   0  0  0  0  0  0  0  0  0  0  0  0
   57.1867   32.4639   44.7340 H   0  0  0  0  0  0  0  0  0  0  0  0
   61.5871   34.4829   50.8462 H   0  0  0  0  0  0  0  0  0  0  0  0
   59.5244   34.4052   51.3167 H   0  0  0  0  0  0  0  0  0  0  0  0
   57.3934   33.1935   51.6706 H   0  0  0  0  0  0  0  0  0  0  0  0
   57.1743   30.8188   50.9729 H   0  0  0  0  0  0  0  0  0  0  0  0
   59.0781   29.6522   49.8959 H   0  0  0  0  0  0  0  0  0  0  0  0
  1  2  1  0
  2  3  1  0
  3  4  1  0
  4  5  2  0
  4  6  1  0
  6  7  2  0
  7  8  1  0
  8  9  2  0
  9 10  1  0
 10 11  2  0
 11 12  1  0
 12 13  1  0
 13 14  2  0
 14 15  1  0
 15 16  2  0
 16 17  1  0
 17 18  2  0
 12 19  2  0
  7 20  1  0
 20 21  2  0
 21 22  1  0
 21 23  1  0
 23 24  1  0
 24 25  2  0
 24 26  1  0
 26 27  1  0
 27 28  1  0
 28 29  2  0
 29 30  1  0
 30 31  2  0
 31 32  1  0
 32 33  1  0
 31 34  1  0
 34 35  1  0
 35 36  1  0
 34 37  2  0
 23 38  1  0
 38 39  1  0
 39 40  2  0
 40 41  1  0
 41 42  2  0
 42 43  1  0
 43 44  2  0
 44 45  1  0
 45 46  1  0
 45 47  1  0
 45 48  1  0
 38  6  1  0
 44 39  1  0
 19  8  1  0
 37 28  1  0
 18 13  1  0
  1 49  1  0
  1 50  1  0
  1 51  1  0
  2 52  1  0
  2 53  1  0
  9 54  1  0
 10 55  1  0
 11 56  1  0
 14 57  1  0
 15 58  1  0
 16 59  1  0
 17 60  1  0
 18 61  1  0
 19 62  1  0
 22 63  1  0
 22 64  1  0
 22 65  1  0
 23 66  1  1
 26 67  1  0
 27 68  1  0
 27 69  1  0
 29 70  1  0
 30 71  1  0
 33 72  1  0
 33 73  1  0
 33 74  1  0
 36 75  1  0
 36 76  1  0
 36 77  1  0
 37 78  1  0
 38 79  1  1
 40 80  1  0
 41 81  1  0
 42 82  1  0
 43 83  1  0
M  END
>  <UniqueID>  (55) 
49

>  <SMILES>  (55) 
CCOC(=O)C1=C(c2cccc(-c3ccccc3)c2)N=C(C)[C@@H](C(=O)NCc2ccc(OC)c(OC)c2)[C@H]1c1ccccc1C(F)(F)F

>  <Energy>  (55) 
114.38873736702973

>  <Genealogy>  (55) 
CCOC(=O)C1=C(c2cccc(-c3ccccc3)c2)N=C(C)[C@@H](C(=O)NCc2ccc(OC)c(OC)c2)[C@H]1c1ccccc1C(F)(F)F (chirality)
CCOC(=O)C1=C(c2cccc(-c3ccccc3)c2)N=C(C)[C@@H](C(=O)NCc2ccc(OC)c(OC)c2)[C@H]1c1ccccc1C(F)(F)F (3D coordinates assigned)
CCOC(=O)C1=C(c2cccc(-c3ccccc3)c2)N=C(C)[C@@H](C(=O)NCc2ccc(OC)c(OC)c2)[C@H]1c1ccccc1C(F)(F)F (nonaromatic ring conformer: 114.38873736702973 kcal/mol)

>  <smiles>  (55) 
CCOC(=O)C1=C(c2cccc(-c3ccccc3)c2)N=C(C)C(C(=O)NCc2ccc(OC)c(OC)c2)C1c1ccccc1C(F)(F)F

>  <score_type>  (55) 
oracle

>  <origin>  (55) 
adg

>  <m_score__min__energy>  (55) 
-9.25

>  <m_primary>  (55) 
energy

$$$$
55:0
     RDKit          3D

 42 45  0  0  0  0  0  0  0  0999 V2000
   60.4370   27.5320   49.0100 O   0  0  0  0  0  0  0  0  0  0  0  0
   59.9390   28.8260   48.4290 S   0  0  0  0  0  0  0  0  0  0  0  0
   58.5170   29.0990   48.8290 O   0  0  0  0  0  0  0  0  0  0  0  0
   60.9690   30.1330   48.8490 N   0  0  0  0  0  0  0  0  0  0  0  0
   61.5050   30.6350   47.7830 C   0  0  0  0  0  0  0  0  0  0  0  0
   62.4330   31.7750   47.8540 C   0  0  0  0  0  0  0  0  0  0  0  0
   63.3990   31.9810   48.8310 C   0  0  0  0  0  0  0  0  0  0  0  0
   64.1370   33.1560   48.6400 C   0  0  0  0  0  0  0  0  0  0  0  0
   63.7550   33.8780   47.5170 C   0  0  0  0  0  0  0  0  0  0  0  0
   62.5000   33.0520   46.7620 S   0  0  0  0  0  0  0  0  0  0  0  0
   61.1430   30.0220   46.5360 N   0  0  0  0  0  0  0  0  0  0  0  0
   60.2080   28.9110   46.6780 C   0  0  2  0  0  0  0  0  0  0  0  0
   58.9250   29.1760   45.9240 C   0  0  0  0  0  0  0  0  0  0  0  0
   57.8700   28.2460   45.9380 C   0  0  0  0  0  0  0  0  0  0  0  0
   56.6970   28.4980   45.2230 C   0  0  0  0  0  0  0  0  0  0  0  0
   56.5680   29.6720   44.4770 C   0  0  0  0  0  0  0  0  0  0  0  0
   57.6240   30.5960   44.4260 C   0  0  0  0  0  0  0  0  0  0  0  0
   57.4740   31.8740   43.6550 C   0  0  0  0  0  0  0  0  0  0  0  0
   57.1170   32.9210   44.5540 O   0  0  0  0  0  0  0  0  0  0  0  0
   57.9980   33.5160   45.4680 C   0  0  0  0  0  0  0  0  0  0  0  0
   58.7380   34.6290   45.0480 C   0  0  0  0  0  0  0  0  0  0  0  0
   59.6290   35.2580   45.9220 C   0  0  0  0  0  0  0  0  0  0  0  0
   59.7890   34.7800   47.2230 C   0  0  0  0  0  0  0  0  0  0  0  0
   59.0560   33.6690   47.6560 C   0  0  0  0  0  0  0  0  0  0  0  0
   59.2590   33.0680   49.2910 Cl  0  0  0  0  0  0  0  0  0  0  0  0
   58.1630   33.0370   46.7830 C   0  0  0  0  0  0  0  0  0  0  0  0
   58.7950   30.3470   45.1580 C   0  0  0  0  0  0  0  0  0  0  0  0
   63.5674   31.2904   49.6705 H   0  0  0  0  0  0  0  0  0  0  0  0
   64.9433   33.4767   49.3160 H   0  0  0  0  0  0  0  0  0  0  0  0
   64.1973   34.8269   47.1795 H   0  0  0  0  0  0  0  0  0  0  0  0
   61.5240   30.3230   45.6110 H   0  0  0  0  0  0  0  0  0  0  0  0
   60.5900   27.9668   46.2625 H   0  0  0  0  0  0  0  0  0  0  0  0
   57.9693   27.3150   46.5153 H   0  0  0  0  0  0  0  0  0  0  0  0
   55.8726   27.7701   45.2474 H   0  0  0  0  0  0  0  0  0  0  0  0
   55.6363   29.8732   43.9279 H   0  0  0  0  0  0  0  0  0  0  0  0
   58.4257   32.1205   43.1615 H   0  0  0  0  0  0  0  0  0  0  0  0
   56.6904   31.7571   42.8919 H   0  0  0  0  0  0  0  0  0  0  0  0
   58.6169   35.0104   44.0234 H   0  0  0  0  0  0  0  0  0  0  0  0
   60.2053   36.1317   45.5835 H   0  0  0  0  0  0  0  0  0  0  0  0
   60.4914   35.2764   47.9086 H   0  0  0  0  0  0  0  0  0  0  0  0
   57.5881   32.1636   47.1245 H   0  0  0  0  0  0  0  0  0  0  0  0
   59.6190   31.0753   45.1320 H   0  0  0  0  0  0  0  0  0  0  0  0
  1  2  2  0
  2  3  2  0
  2  4  1  0
  4  5  2  0
  5  6  1  0
  6  7  2  0
  7  8  1  0
  8  9  2  0
  9 10  1  0
  5 11  1  0
 11 12  1  0
 12 13  1  0
 13 14  2  0
 14 15  1  0
 15 16  2  0
 16 17  1  0
 17 18  1  0
 18 19  1  0
 19 20  1  0
 20 21  2  0
 21 22  1  0
 22 23  2  0
 23 24  1  0
 24 25  1  0
 24 26  2  0
 17 27  2  0
 12  2  1  0
 27 13  1  0
 10  6  1  0
 26 20  1  0
  7 28  1  0
  8 29  1  0
  9 30  1  0
 11 31  1  0
 12 32  1  6
 14 33  1  0
 15 34  1  0
 16 35  1  0
 18 36  1  0
 18 37  1  0
 21 38  1  0
 22 39  1  0
 23 40  1  0
 26 41  1  0
 27 42  1  0
M  END
>  <UniqueID>  (56) 
50

>  <SMILES>  (56) 
O=S1(=O)N=C(c2cccs2)N[C@@H]1c1cccc(COc2cccc(Cl)c2)c1

>  <Energy>  (56) 
81.33283212405829

>  <Genealogy>  (56) 
O=S1(=O)N=C(c2cccs2)N[C@@H]1c1cccc(COc2cccc(Cl)c2)c1 (chirality)
O=S1(=O)N=C(c2cccs2)N[C@@H]1c1cccc(COc2cccc(Cl)c2)c1 (3D coordinates assigned)
O=S1(=O)N=C(c2cccs2)N[C@@H]1c1cccc(COc2cccc(Cl)c2)c1 (nonaromatic ring conformer: 81.33283212405829 kcal/mol)

>  <smiles>  (56) 
O=S1(=O)N=C(c2cccs2)NC1c1cccc(COc2cccc(Cl)c2)c1

>  <score_type>  (56) 
oracle

>  <origin>  (56) 
adg

>  <m_score__min__energy>  (56) 
-8.8699999999999992

>  <m_primary>  (56) 
energy

$$$$
56:0
     RDKit          3D

 61 63  0  0  0  0  0  0  0  0999 V2000
   57.6960   26.4020   46.5520 C   0  0  0  0  0  0  0  0  0  0  0  0
   58.8610   27.2070   46.6770 O   0  0  0  0  0  0  0  0  0  0  0  0
   59.3790   27.6680   47.8940 C   0  0  0  0  0  0  0  0  0  0  0  0
   60.4070   26.9940   48.5840 C   0  0  0  0  0  0  0  0  0  0  0  0
   60.8720   27.4860   49.8050 C   0  0  0  0  0  0  0  0  0  0  0  0
   60.3350   28.6600   50.3420 C   0  0  0  0  0  0  0  0  0  0  0  0
   59.3400   29.3640   49.6500 C   0  0  0  0  0  0  0  0  0  0  0  0
   58.8340   30.5920   50.2010 N   0  0  0  0  0  0  0  0  0  0  0  0
   57.7710   30.6520   51.1690 C   0  0  0  0  0  0  0  0  0  0  0  0
   57.2540   29.5980   51.6200 O   0  0  0  0  0  0  0  0  0  0  0  0
   57.2090   31.9720   51.5970 C   0  0  0  0  0  0  0  0  0  0  0  0
   58.1540   32.6470   52.4980 N   0  0  0  0  0  0  0  0  0  0  0  0
   58.4770   32.0110   53.7750 C   0  0  0  0  0  0  0  0  0  0  0  0
   58.8170   33.8710   52.0990 C   0  0  0  0  0  0  0  0  0  0  0  0
   58.9740   34.8030   52.9340 O   0  0  0  0  0  0  0  0  0  0  0  0
   59.2670   34.1040   50.6850 C   0  0  0  0  0  0  0  0  0  0  0  0
   60.2350   33.1180   50.3350 O   0  0  0  0  0  0  0  0  0  0  0  0
   61.1930   33.2470   49.3120 C   0  0  0  0  0  0  0  0  0  0  0  0
   62.4770   33.7640   49.5780 C   0  0  0  0  0  0  0  0  0  0  0  0
   63.4280   33.8600   48.5640 C   0  0  0  0  0  0  0  0  0  0  0  0
   63.1180   33.4410   47.2740 C   0  0  0  0  0  0  0  0  0  0  0  0
   61.8490   32.9360   46.9880 C   0  0  0  0  0  0  0  0  0  0  0  0
   60.8680   32.8370   47.9950 C   0  0  0  0  0  0  0  0  0  0  0  0
   59.5200   32.3150   47.6430 C   0  0  0  0  0  0  0  0  0  0  0  0
   58.4970   32.8260   48.1650 O   0  0  0  0  0  0  0  0  0  0  0  0
   59.3840   31.1830   46.7780 N   0  0  0  0  0  0  0  0  0  0  0  0
   58.4810   31.0310   45.6710 C   0  0  0  0  0  0  0  0  0  0  0  0
   57.6840   29.8810   45.5150 C   0  0  0  0  0  0  0  0  0  0  0  0
   56.7780   29.7880   44.4590 C   0  0  0  0  0  0  0  0  0  0  0  0
   56.6470   30.8440   43.5570 C   0  0  0  0  0  0  0  0  0  0  0  0
   57.4180   31.9980   43.7110 C   0  0  0  0  0  0  0  0  0  0  0  0
   58.3350   32.1020   44.7750 C   0  0  0  0  0  0  0  0  0  0  0  0
   59.1020   33.2600   44.9850 O   0  0  0  0  0  0  0  0  0  0  0  0
   58.5640   34.5500   45.2500 C   0  0  0  0  0  0  0  0  0  0  0  0
   58.8480   28.8440   48.4390 C   0  0  0  0  0  0  0  0  0  0  0  0
   57.3205   26.1425   47.5528 H   0  0  0  0  0  0  0  0  0  0  0  0
   56.9224   26.9592   46.0032 H   0  0  0  0  0  0  0  0  0  0  0  0
   57.9436   25.4814   46.0032 H   0  0  0  0  0  0  0  0  0  0  0  0
   60.8439   26.0781   48.1593 H   0  0  0  0  0  0  0  0  0  0  0  0
   61.6639   26.9480   50.3467 H   0  0  0  0  0  0  0  0  0  0  0  0
   60.6951   29.0329   51.3122 H   0  0  0  0  0  0  0  0  0  0  0  0
   59.1180   31.4810   49.7380 H   0  0  0  0  0  0  0  0  0  0  0  0
   57.0372   32.6004   50.7107 H   0  0  0  0  0  0  0  0  0  0  0  0
   56.2580   31.8078   52.1250 H   0  0  0  0  0  0  0  0  0  0  0  0
   58.1480   32.6588   54.6009 H   0  0  0  0  0  0  0  0  0  0  0  0
   57.9622   31.0412   53.8422 H   0  0  0  0  0  0  0  0  0  0  0  0
   59.5638   31.8546   53.8422 H   0  0  0  0  0  0  0  0  0  0  0  0
   58.4040   34.0300   50.0069 H   0  0  0  0  0  0  0  0  0  0  0  0
   59.7111   35.1066   50.5980 H   0  0  0  0  0  0  0  0  0  0  0  0
   62.7308   34.0949   50.5959 H   0  0  0  0  0  0  0  0  0  0  0  0
   64.4257   34.2678   48.7839 H   0  0  0  0  0  0  0  0  0  0  0  0
   63.8745   33.5079   46.4782 H   0  0  0  0  0  0  0  0  0  0  0  0
   61.6115   32.6113   45.9642 H   0  0  0  0  0  0  0  0  0  0  0  0
   57.7765   29.0507   46.2305 H   0  0  0  0  0  0  0  0  0  0  0  0
   56.1665   28.8818   44.3373 H   0  0  0  0  0  0  0  0  0  0  0  0
   55.9346   30.7675   42.7224 H   0  0  0  0  0  0  0  0  0  0  0  0
   57.3088   32.8290   42.9986 H   0  0  0  0  0  0  0  0  0  0  0  0
   58.4997   34.7042   46.3372 H   0  0  0  0  0  0  0  0  0  0  0  0
   59.2171   35.3174   44.8088 H   0  0  0  0  0  0  0  0  0  0  0  0
   57.5592   34.6259   44.8088 H   0  0  0  0  0  0  0  0  0  0  0  0
   58.0359   29.3676   47.9134 H   0  0  0  0  0  0  0  0  0  0  0  0
  1  2  1  0
  2  3  1  0
  3  4  2  0
  4  5  1  0
  5  6  2  0
  6  7  1  0
  7  8  1  0
  8  9  1  0
  9 10  2  0
  9 11  1  0
 11 12  1  0
 12 13  1  0
 12 14  1  0
 14 15  2  0
 14 16  1  0
 16 17  1  0
 17 18  1  0
 18 19  2  0
 19 20  1  0
 20 21  2  0
 21 22  1  0
 22 23  2  0
 23 24  1  0
 24 25  2  0
 24 26  1  0
 26 27  1  0
 27 28  2  0
 28 29  1  0
 29 30  2  0
 30 31  1  0
 31 32  2  0
 32 33  1  0
 33 34  1  0
  7 35  2  0
 35  3  1  0
 23 18  1  0
 32 27  1  0
  1 36  1  0
  1 37  1  0
  1 38  1  0
  4 39  1  0
  5 40  1  0
  6 41  1  0
  8 42  1  0
 11 43  1  0
 11 44  1  0
 13 45  1  0
 13 46  1  0
 13 47  1  0
 16 48  1  0
 16 49  1  0
 19 50  1  0
 20 51  1  0
 21 52  1  0
 22 53  1  0
 28 54  1  0
 29 55  1  0
 30 56  1  0
 31 57  1  0
 34 58  1  0
 34 59  1  0
 34 60  1  0
 35 61  1  0
M  CHG  1  26  -1
M  END
>  <UniqueID>  (57) 
51

>  <SMILES>  (57) 
COc1cccc(NC(=O)CN(C)C(=O)COc2ccccc2C(=O)[N-]c2ccccc2OC)c1

>  <Energy>  (57) 
64.16145249031838

>  <Genealogy>  (57) 
COc1cccc(NC(=O)CN(C)C(=O)COc2ccccc2C(=O)[N-]c2ccccc2OC)c1 (protonated)
COc1cccc(NC(=O)CN(C)C(=O)COc2ccccc2C(=O)[N-]c2ccccc2OC)c1 (3D coordinates assigned)
COc1cccc(NC(=O)CN(C)C(=O)COc2ccccc2C(=O)[N-]c2ccccc2OC)c1 (optimized conformer: 64.16145249031838 kcal/mol)

>  <smiles>  (57) 
COc1cccc(NC(=O)CN(C)C(=O)COc2ccccc2C(=O)Nc2ccccc2OC)c1

>  <score_type>  (57) 
oracle

>  <origin>  (57) 
adg

>  <m_score__min__energy>  (57) 
-9.0500000000000007

>  <m_primary>  (57) 
energy

$$$$
57:0
     RDKit          3D

 38 40  0  0  0  0  0  0  0  0999 V2000
   59.1710   31.8940   49.3230 C   0  0  0  0  0  0  0  0  0  0  0  0
   59.0210   32.4050   47.9500 N   0  0  0  0  0  0  0  0  0  0  0  0
   58.5870   31.5640   46.9510 C   0  0  0  0  0  0  0  0  0  0  0  0
   58.2920   30.3620   47.1950 O   0  0  0  0  0  0  0  0  0  0  0  0
   58.4880   32.0710   45.6590 C   0  0  0  0  0  0  0  0  0  0  0  0
   58.8260   33.3590   45.4070 C   0  0  0  0  0  0  0  0  0  0  0  0
   58.6790   33.6230   44.0950 N   0  0  0  0  0  0  0  0  0  0  0  0
   58.2400   32.4550   43.5680 C   0  0  0  0  0  0  0  0  0  0  0  0
   58.1080   31.4810   44.5040 N   0  0  0  0  0  0  0  0  0  0  0  0
   57.7020   30.0960   44.2580 C   0  0  0  0  0  0  0  0  0  0  0  0
   56.2750   29.8680   44.6850 C   0  0  0  0  0  0  0  0  0  0  0  0
   55.4220   30.7750   44.4960 O   0  0  0  0  0  0  0  0  0  0  0  0
   55.8260   28.5910   45.1580 N   0  0  0  0  0  0  0  0  0  0  0  0
   56.6560   27.5410   45.6690 C   0  0  0  0  0  0  0  0  0  0  0  0
   58.0240   27.7490   45.9120 C   0  0  0  0  0  0  0  0  0  0  0  0
   58.8100   26.7210   46.4420 C   0  0  0  0  0  0  0  0  0  0  0  0
   60.1310   26.9250   46.6690 F   0  0  0  0  0  0  0  0  0  0  0  0
   58.2300   25.4870   46.7520 C   0  0  0  0  0  0  0  0  0  0  0  0
   56.8640   25.2840   46.5410 C   0  0  0  0  0  0  0  0  0  0  0  0
   56.0760   26.3110   46.0100 C   0  0  0  0  0  0  0  0  0  0  0  0
   54.7480   26.1050   45.8150 F   0  0  0  0  0  0  0  0  0  0  0  0
   59.2720   34.2040   46.3750 N   0  0  0  0  0  0  0  0  0  0  0  0
   59.6550   35.5810   46.0300 C   0  0  0  0  0  0  0  0  0  0  0  0
   59.3910   33.7090   47.6570 C   0  0  0  0  0  0  0  0  0  0  0  0
   59.8460   34.4490   48.5740 O   0  0  0  0  0  0  0  0  0  0  0  0
   58.9360   32.6945   50.0399 H   0  0  0  0  0  0  0  0  0  0  0  0
   58.4827   31.0499   49.4773 H   0  0  0  0  0  0  0  0  0  0  0  0
   60.2063   31.5559   49.4773 H   0  0  0  0  0  0  0  0  0  0  0  0
   58.8690   34.5130   43.5840 H   0  0  0  0  0  0  0  0  0  0  0  0
   58.0155   32.3118   42.5007 H   0  0  0  0  0  0  0  0  0  0  0  0
   57.7951   29.8792   43.1836 H   0  0  0  0  0  0  0  0  0  0  0  0
   58.3537   29.4304   44.8431 H   0  0  0  0  0  0  0  0  0  0  0  0
   58.4787   28.7244   45.6844 H   0  0  0  0  0  0  0  0  0  0  0  0
   58.8495   24.6758   47.1621 H   0  0  0  0  0  0  0  0  0  0  0  0
   56.4073   24.3154   46.7927 H   0  0  0  0  0  0  0  0  0  0  0  0
   59.8157   36.1588   46.9521 H   0  0  0  0  0  0  0  0  0  0  0  0
   60.5832   35.5665   45.4399 H   0  0  0  0  0  0  0  0  0  0  0  0
   58.8526   36.0478   45.4399 H   0  0  0  0  0  0  0  0  0  0  0  0
  1  2  1  0
  2  3  1  0
  3  4  2  0
  3  5  1  0
  5  6  2  0
  6  7  1  0
  7  8  2  0
  8  9  1  0
  9 10  1  0
 10 11  1  0
 11 12  2  0
 11 13  1  0
 13 14  1  0
 14 15  2  0
 15 16  1  0
 16 17  1  0
 16 18  2  0
 18 19  1  0
 19 20  2  0
 20 21  1  0
  6 22  1  0
 22 23  1  0
 22 24  1  0
 24 25  2  0
 24  2  1  0
  9  5  1  0
 20 14  1  0
  1 26  1  0
  1 27  1  0
  1 28  1  0
  7 29  1  0
  8 30  1  0
 10 31  1  0
 10 32  1  0
 15 33  1  0
 18 34  1  0
 19 35  1  0
 23 36  1  0
 23 37  1  0
 23 38  1  0
M  CHG  2   7   1  13  -1
M  END
>  <UniqueID>  (58) 
52

>  <SMILES>  (58) 
Cn1c(=O)c2c([nH+]cn2CC(=O)[N-]c2cc(F)ccc2F)n(C)c1=O

>  <Energy>  (58) 
92.98457592987054

>  <Genealogy>  (58) 
Cn1c(=O)c2c([nH+]cn2CC(=O)[N-]c2cc(F)ccc2F)n(C)c1=O (protonated)
Cn1c(=O)c2c([nH+]cn2CC(=O)[N-]c2cc(F)ccc2F)n(C)c1=O (3D coordinates assigned)
Cn1c(=O)c2c([nH+]cn2CC(=O)[N-]c2cc(F)ccc2F)n(C)c1=O (optimized conformer: 92.98457592987054 kcal/mol)

>  <smiles>  (58) 
Cn1c(=O)c2c(ncn2CC(=O)Nc2cc(F)ccc2F)n(C)c1=O

>  <score_type>  (58) 
oracle

>  <origin>  (58) 
adg

>  <m_score__min__energy>  (58) 
-7.71

>  <m_primary>  (58) 
energy

$$$$
58:0
     RDKit          3D

 51 53  0  0  0  0  0  0  0  0999 V2000
   59.9640   21.8160   45.1980 N   0  0  0  0  0  0  0  0  0  0  0  0
   58.6280   22.2500   44.9450 C   0  0  0  0  0  0  0  0  0  0  0  0
   57.9080   21.7450   43.8590 C   0  0  0  0  0  0  0  0  0  0  0  0
   56.6050   22.2050   43.6500 C   0  0  0  0  0  0  0  0  0  0  0  0
   55.9290   21.7750   42.6800 O   0  0  0  0  0  0  0  0  0  0  0  0
   56.0670   23.1210   44.4980 N   0  0  0  0  0  0  0  0  0  0  0  0
   56.7780   23.5960   45.5530 C   0  0  0  0  0  0  0  0  0  0  0  0
   56.0460   24.7960   46.6650 S   0  0  0  0  0  0  0  0  0  0  0  0
   57.4560   25.9620   46.6030 C   0  0  0  0  0  0  0  0  0  0  0  0
   57.0690   27.2840   46.0160 C   0  0  0  0  0  0  0  0  0  0  0  0
   55.8910   27.4540   45.6010 O   0  0  0  0  0  0  0  0  0  0  0  0
   58.0540   28.3120   45.8520 N   0  0  0  0  0  0  0  0  0  0  0  0
   57.8280   29.6230   45.3110 C   0  0  0  0  0  0  0  0  0  0  0  0
   58.1640   30.7820   46.0360 C   0  0  0  0  0  0  0  0  0  0  0  0
   57.9740   32.0520   45.4770 C   0  0  0  0  0  0  0  0  0  0  0  0
   58.3660   33.4920   46.4130 S   0  0  0  0  0  0  0  0  0  0  0  0
   57.2910   33.7300   47.4350 O   0  0  0  0  0  0  0  0  0  0  0  0
   58.4090   34.6760   45.4870 O   0  0  0  0  0  0  0  0  0  0  0  0
   59.9300   33.2910   47.1700 N   0  0  0  0  0  0  0  0  0  0  0  0
   60.1130   33.9890   48.4540 C   0  0  0  0  0  0  0  0  0  0  0  0
   60.8820   33.1880   49.5100 C   0  0  0  0  0  0  0  0  0  0  0  0
   62.4000   33.4050   49.4530 C   0  0  0  0  0  0  0  0  0  0  0  0
   62.9850   33.0510   48.0800 C   0  0  0  0  0  0  0  0  0  0  0  0
   62.4040   33.8210   46.8750 C   0  0  0  0  0  0  0  0  0  0  0  0
   61.0900   33.2960   46.2620 C   0  0  0  0  0  0  0  0  0  0  0  0
   57.4470   32.1680   44.1860 C   0  0  0  0  0  0  0  0  0  0  0  0
   57.1310   31.0240   43.4510 C   0  0  0  0  0  0  0  0  0  0  0  0
   57.3250   29.7520   44.0020 C   0  0  0  0  0  0  0  0  0  0  0  0
   57.0050   28.6330   43.2320 O   0  0  0  0  0  0  0  0  0  0  0  0
   58.0490   23.1650   45.7670 N   0  0  0  0  0  0  0  0  0  0  0  0
   60.7780   22.4350   44.9910 H   0  0  0  0  0  0  0  0  0  0  0  0
   60.1430   20.8630   45.5860 H   0  0  0  0  0  0  0  0  0  0  0  0
   58.3569   21.0018   43.1836 H   0  0  0  0  0  0  0  0  0  0  0  0
   57.8280   26.1233   47.6256 H   0  0  0  0  0  0  0  0  0  0  0  0
   58.2322   25.5206   45.9606 H   0  0  0  0  0  0  0  0  0  0  0  0
   58.5794   30.6893   47.0503 H   0  0  0  0  0  0  0  0  0  0  0  0
   60.6636   34.9218   48.2623 H   0  0  0  0  0  0  0  0  0  0  0  0
   59.1062   34.1594   48.8631 H   0  0  0  0  0  0  0  0  0  0  0  0
   60.5238   33.4893   50.5054 H   0  0  0  0  0  0  0  0  0  0  0  0
   60.6983   32.1226   49.3071 H   0  0  0  0  0  0  0  0  0  0  0  0
   62.6150   34.4622   49.6677 H   0  0  0  0  0  0  0  0  0  0  0  0
   62.8639   32.7425   50.1986 H   0  0  0  0  0  0  0  0  0  0  0  0
   64.0667   33.2479   48.1147 H   0  0  0  0  0  0  0  0  0  0  0  0
   62.7232   31.9961   47.9105 H   0  0  0  0  0  0  0  0  0  0  0  0
   62.2253   34.8564   47.2006 H   0  0  0  0  0  0  0  0  0  0  0  0
   63.1528   33.7014   46.0781 H   0  0  0  0  0  0  0  0  0  0  0  0
   60.8419   33.9286   45.3970 H   0  0  0  0  0  0  0  0  0  0  0  0
   61.2756   32.2440   45.9996 H   0  0  0  0  0  0  0  0  0  0  0  0
   57.2812   33.1637   43.7489 H   0  0  0  0  0  0  0  0  0  0  0  0
   56.7271   31.1228   42.4326 H   0  0  0  0  0  0  0  0  0  0  0  0
   56.7860   27.7360   43.6460 H   0  0  0  0  0  0  0  0  0  0  0  0
  1  2  1  0
  2  3  2  0
  3  4  1  0
  4  5  2  0
  4  6  1  0
  6  7  1  0
  7  8  1  0
  8  9  1  0
  9 10  1  0
 10 11  2  0
 10 12  1  0
 12 13  1  0
 13 14  2  0
 14 15  1  0
 15 16  1  0
 16 17  2  0
 16 18  2  0
 16 19  1  0
 19 20  1  0
 20 21  1  0
 21 22  1  0
 22 23  1  0
 23 24  1  0
 24 25  1  0
 15 26  2  0
 26 27  1  0
 27 28  2  0
 28 29  1  0
  7 30  2  0
 30  2  1  0
 28 13  1  0
 25 19  1  0
  1 31  1  0
  1 32  1  0
  3 33  1  0
  9 34  1  0
  9 35  1  0
 14 36  1  0
 20 37  1  0
 20 38  1  0
 21 39  1  0
 21 40  1  0
 22 41  1  0
 22 42  1  0
 23 43  1  0
 23 44  1  0
 24 45  1  0
 24 46  1  0
 25 47  1  0
 25 48  1  0
 26 49  1  0
 27 50  1  0
 29 51  1  0
M  CHG  2   6  -1  12  -1
M  END
>  <UniqueID>  (59) 
53

>  <SMILES>  (59) 
Nc1cc(=O)[n-]c(SCC(=O)[N-]c2cc(S(=O)(=O)N3CCCCCC3)ccc2O)n1

>  <Energy>  (59) 
59.349599957257446

>  <Genealogy>  (59) 
Nc1cc(=O)[n-]c(SCC(=O)[N-]c2cc(S(=O)(=O)N3CCCCCC3)ccc2O)n1 (protonated)
Nc1cc(=O)[n-]c(SCC(=O)[N-]c2cc(S(=O)(=O)N3CCCCCC3)ccc2O)n1 (3D coordinates assigned)
Nc1cc(=O)[n-]c(SCC(=O)[N-]c2cc(S(=O)(=O)N3CCCCCC3)ccc2O)n1 (nonaromatic ring conformer: 59.349599957257446 kcal/mol)

>  <smiles>  (59) 
Nc1cc(=O)[nH]c(SCC(=O)Nc2cc(S(=O)(=O)N3CCCCCC3)ccc2O)n1

>  <score_type>  (59) 
oracle

>  <origin>  (59) 
adg

>  <m_score__min__energy>  (59) 
-10.77

>  <m_primary>  (59) 
energy

$$$$
59:0
     RDKit          3D

 44 47  0  0  0  0  0  0  0  0999 V2000
   65.7630   32.5900   50.4570 C   0  0  0  0  0  0  0  0  0  0  0  0
   64.6820   32.5890   49.4830 N   0  0  0  0  0  0  0  0  0  0  0  0
   63.6340   31.7470   49.4680 C   0  0  0  0  0  0  0  0  0  0  0  0
   62.8370   32.0660   48.3800 C   0  0  0  0  0  0  0  0  0  0  0  0
   61.5490   31.4360   47.9800 C   0  0  0  0  0  0  0  0  0  0  0  0
   60.3460   31.7960   48.6190 C   0  0  0  0  0  0  0  0  0  0  0  0
   59.1320   31.2250   48.2320 C   0  0  0  0  0  0  0  0  0  0  0  0
   59.0950   30.2840   47.2020 C   0  0  0  0  0  0  0  0  0  0  0  0
   57.9120   29.7390   46.8240 N   0  0  0  0  0  0  0  0  0  0  0  0
   57.8390   28.8350   45.8120 C   0  0  0  0  0  0  0  0  0  0  0  0
   56.5470   28.2320   45.4300 C   0  0  0  0  0  0  0  0  0  0  0  0
   56.3480   27.0150   45.6880 O   0  0  0  0  0  0  0  0  0  0  0  0
   55.5000   28.9710   44.7830 N   0  0  0  0  0  0  0  0  0  0  0  0
   55.5960   29.7010   43.5210 C   0  0  0  0  0  0  0  0  0  0  0  0
   56.5710   30.8400   43.6470 C   0  0  0  0  0  0  0  0  0  0  0  0
   56.6710   31.5390   44.8620 C   0  0  0  0  0  0  0  0  0  0  0  0
   57.5390   32.6270   44.9830 C   0  0  0  0  0  0  0  0  0  0  0  0
   58.3100   33.0420   43.8860 C   0  0  0  0  0  0  0  0  0  0  0  0
   59.1770   34.1750   44.0050 N   0  0  0  0  0  0  0  0  0  0  0  0
   58.2140   32.3470   42.6710 C   0  0  0  0  0  0  0  0  0  0  0  0
   57.3500   31.2520   42.5530 C   0  0  0  0  0  0  0  0  0  0  0  0
   58.9790   28.4400   45.1810 N   0  0  0  0  0  0  0  0  0  0  0  0
   60.1920   28.9530   45.5200 C   0  0  0  0  0  0  0  0  0  0  0  0
   61.2190   28.5660   44.8990 O   0  0  0  0  0  0  0  0  0  0  0  0
   60.2840   29.9070   46.5510 C   0  0  0  0  0  0  0  0  0  0  0  0
   61.5060   30.4800   46.9440 C   0  0  0  0  0  0  0  0  0  0  0  0
   63.4940   33.1260   47.7660 C   0  0  0  0  0  0  0  0  0  0  0  0
   64.6150   33.4190   48.4540 N   0  0  0  0  0  0  0  0  0  0  0  0
   65.3412   32.5896   51.4729 H   0  0  0  0  0  0  0  0  0  0  0  0
   66.3833   31.6924   50.3172 H   0  0  0  0  0  0  0  0  0  0  0  0
   66.3817   33.4887   50.3172 H   0  0  0  0  0  0  0  0  0  0  0  0
   63.4422   30.9433   50.1942 H   0  0  0  0  0  0  0  0  0  0  0  0
   60.3634   32.5360   49.4327 H   0  0  0  0  0  0  0  0  0  0  0  0
   58.2017   31.5178   48.7406 H   0  0  0  0  0  0  0  0  0  0  0  0
   55.9387   29.0162   42.7313 H   0  0  0  0  0  0  0  0  0  0  0  0
   54.6053   30.1057   43.2666 H   0  0  0  0  0  0  0  0  0  0  0  0
   56.0619   31.2275   45.7234 H   0  0  0  0  0  0  0  0  0  0  0  0
   57.6185   33.1605   45.9417 H   0  0  0  0  0  0  0  0  0  0  0  0
   58.7890   35.1220   44.2240 H   0  0  0  0  0  0  0  0  0  0  0  0
   60.2090   34.0790   43.8710 H   0  0  0  0  0  0  0  0  0  0  0  0
   58.8193   32.6634   41.8088 H   0  0  0  0  0  0  0  0  0  0  0  0
   57.2806   30.7109   41.5978 H   0  0  0  0  0  0  0  0  0  0  0  0
   62.4363   30.1803   46.4394 H   0  0  0  0  0  0  0  0  0  0  0  0
   63.1517   33.6454   46.8587 H   0  0  0  0  0  0  0  0  0  0  0  0
  1  2  1  0
  2  3  1  0
  3  4  2  0
  4  5  1  0
  5  6  2  0
  6  7  1  0
  7  8  2  0
  8  9  1  0
  9 10  1  0
 10 11  1  0
 11 12  2  0
 11 13  1  0
 13 14  1  0
 14 15  1  0
 15 16  2  0
 16 17  1  0
 17 18  2  0
 18 19  1  0
 18 20  1  0
 20 21  2  0
 10 22  2  0
 22 23  1  0
 23 24  2  0
 23 25  1  0
 25 26  2  0
  4 27  1  0
 27 28  2  0
 28  2  1  0
 26  5  1  0
 25  8  1  0
 21 15  1  0
  1 29  1  0
  1 30  1  0
  1 31  1  0
  3 32  1  0
  6 33  1  0
  7 34  1  0
 14 35  1  0
 14 36  1  0
 16 37  1  0
 17 38  1  0
 19 39  1  0
 19 40  1  0
 20 41  1  0
 21 42  1  0
 26 43  1  0
 27 44  1  0
M  CHG  2   9  -1  13  -1
M  END
>  <UniqueID>  (60) 
54

>  <SMILES>  (60) 
Cn1cc(-c2ccc3[n-]c(C(=O)[N-]Cc4ccc(N)cc4)nc(=O)c3c2)cn1

>  <Energy>  (60) 
83.44452609227852

>  <Genealogy>  (60) 
Cn1cc(-c2ccc3[n-]c(C(=O)[N-]Cc4ccc(N)cc4)nc(=O)c3c2)cn1 (protonated)
Cn1cc(-c2ccc3[n-]c(C(=O)[N-]Cc4ccc(N)cc4)nc(=O)c3c2)cn1 (3D coordinates assigned)
Cn1cc(-c2ccc3[n-]c(C(=O)[N-]Cc4ccc(N)cc4)nc(=O)c3c2)cn1 (optimized conformer: 83.44452609227852 kcal/mol)

>  <smiles>  (60) 
Cn1cc(-c2ccc3[nH]c(C(=O)NCc4ccc(N)cc4)nc(=O)c3c2)cn1

>  <score_type>  (60) 
oracle

>  <origin>  (60) 
adg

>  <m_score__min__energy>  (60) 
-11.210000000000001

>  <m_primary>  (60) 
energy

$$$$
60:0
     RDKit          3D

 51 54  0  0  0  0  0  0  0  0999 V2000
   57.3150   22.2200   48.1090 N   0  0  0  0  0  0  0  0  0  0  0  0
   56.4780   23.0530   47.3100 C   0  0  0  0  0  0  0  0  0  0  0  0
   55.6420   23.8070   47.8780 O   0  0  0  0  0  0  0  0  0  0  0  0
   56.5680   23.0040   45.8300 C   0  0  0  0  0  0  0  0  0  0  0  0
   56.3320   21.7810   45.1740 C   0  0  0  0  0  0  0  0  0  0  0  0
   56.3350   21.7050   43.7800 C   0  0  0  0  0  0  0  0  0  0  0  0
   56.5720   22.8480   43.0190 C   0  0  0  0  0  0  0  0  0  0  0  0
   56.8210   24.0680   43.6480 C   0  0  0  0  0  0  0  0  0  0  0  0
   56.8360   24.1590   45.0490 C   0  0  0  0  0  0  0  0  0  0  0  0
   57.1780   25.4160   45.6550 N   0  0  0  0  0  0  0  0  0  0  0  0
   56.3310   26.4210   45.9620 C   0  0  0  0  0  0  0  0  0  0  0  0
   54.9520   26.3540   45.7980 O   0  0  0  0  0  0  0  0  0  0  0  0
   57.0140   27.5190   46.4500 C   0  0  0  0  0  0  0  0  0  0  0  0
   58.3510   27.1560   46.4310 C   0  0  0  0  0  0  0  0  0  0  0  0
   59.4790   27.9840   46.7520 N   0  0  0  0  0  0  0  0  0  0  0  0
   59.4250   29.4170   46.8340 C   0  0  0  0  0  0  0  0  0  0  0  0
   59.9380   30.1040   47.9490 C   0  0  0  0  0  0  0  0  0  0  0  0
   59.9010   31.5000   47.9960 C   0  0  0  0  0  0  0  0  0  0  0  0
   59.3570   32.2320   46.9290 C   0  0  0  0  0  0  0  0  0  0  0  0
   59.3510   33.7360   46.9640 C   0  0  0  0  0  0  0  0  0  0  0  0
   60.6660   34.2940   46.4130 C   0  0  0  0  0  0  0  0  0  0  0  0
   61.8170   33.9130   47.3040 C   0  0  0  0  0  0  0  0  0  0  0  0
   63.0080   33.4160   46.7500 C   0  0  0  0  0  0  0  0  0  0  0  0
   64.0890   33.0940   47.5770 C   0  0  0  0  0  0  0  0  0  0  0  0
   63.9930   33.2750   48.9600 C   0  0  0  0  0  0  0  0  0  0  0  0
   65.3510   32.8730   49.9960 Cl  0  0  0  0  0  0  0  0  0  0  0  0
   62.8150   33.7830   49.5180 C   0  0  0  0  0  0  0  0  0  0  0  0
   61.7320   34.1060   48.6930 C   0  0  0  0  0  0  0  0  0  0  0  0
   58.8810   31.5480   45.8000 C   0  0  0  0  0  0  0  0  0  0  0  0
   58.9190   30.1510   45.7530 C   0  0  0  0  0  0  0  0  0  0  0  0
   58.4160   25.8780   45.9170 C   0  0  0  0  0  0  0  0  0  0  0  0
   59.5850   25.1640   45.6730 O   0  0  0  0  0  0  0  0  0  0  0  0
   57.4050   21.1990   47.9080 H   0  0  0  0  0  0  0  0  0  0  0  0
   56.1429   20.8741   45.7671 H   0  0  0  0  0  0  0  0  0  0  0  0
   56.1501   20.7418   43.2819 H   0  0  0  0  0  0  0  0  0  0  0  0
   56.5627   22.7882   41.9207 H   0  0  0  0  0  0  0  0  0  0  0  0
   57.0072   24.9664   43.0412 H   0  0  0  0  0  0  0  0  0  0  0  0
   56.5872   28.4767   46.7825 H   0  0  0  0  0  0  0  0  0  0  0  0
   60.4060   27.5170   46.8770 H   0  0  0  0  0  0  0  0  0  0  0  0
   60.3705   29.5395   48.7882 H   0  0  0  0  0  0  0  0  0  0  0  0
   60.3005   32.0284   48.8742 H   0  0  0  0  0  0  0  0  0  0  0  0
   58.5160   34.1083   46.3524 H   0  0  0  0  0  0  0  0  0  0  0  0
   59.2358   34.0656   48.0071 H   0  0  0  0  0  0  0  0  0  0  0  0
   60.8380   33.8864   45.4059 H   0  0  0  0  0  0  0  0  0  0  0  0
   60.5967   35.3911   46.3725 H   0  0  0  0  0  0  0  0  0  0  0  0
   63.0910   33.2795   45.6617 H   0  0  0  0  0  0  0  0  0  0  0  0
   65.0166   32.6975   47.1384 H   0  0  0  0  0  0  0  0  0  0  0  0
   62.7401   33.9286   50.6058 H   0  0  0  0  0  0  0  0  0  0  0  0
   60.8100   34.5128   49.1339 H   0  0  0  0  0  0  0  0  0  0  0  0
   58.4760   32.1135   44.9478 H   0  0  0  0  0  0  0  0  0  0  0  0
   58.5490   29.6244   44.8609 H   0  0  0  0  0  0  0  0  0  0  0  0
  1  2  1  0
  2  3  2  0
  2  4  1  0
  4  5  2  0
  5  6  1  0
  6  7  2  0
  7  8  1  0
  8  9  2  0
  9 10  1  0
 10 11  1  0
 11 12  1  0
 11 13  2  0
 13 14  1  0
 14 15  1  0
 15 16  1  0
 16 17  2  0
 17 18  1  0
 18 19  2  0
 19 20  1  0
 20 21  1  0
 21 22  1  0
 22 23  2  0
 23 24  1  0
 24 25  2  0
 25 26  1  0
 25 27  1  0
 27 28  2  0
 19 29  1  0
 29 30  2  0
 14 31  2  0
 31 32  1  0
  9  4  1  0
 31 10  1  0
 30 16  1  0
 28 22  1  0
  1 33  1  0
  5 34  1  0
  6 35  1  0
  7 36  1  0
  8 37  1  0
 13 38  1  0
 15 39  1  0
 17 40  1  0
 18 41  1  0
 20 42  1  0
 20 43  1  0
 21 44  1  0
 21 45  1  0
 23 46  1  0
 24 47  1  0
 27 48  1  0
 28 49  1  0
 29 50  1  0
 30 51  1  0
M  CHG  3   1  -1  12  -1  32  -1
M  END
>  <UniqueID>  (61) 
55

>  <SMILES>  (61) 
[NH-]C(=O)c1ccccc1-n1c([O-])cc(Nc2ccc(CCc3ccc(Cl)cc3)cc2)c1[O-]

>  <Energy>  (61) 
95.31339756050002

>  <Genealogy>  (61) 
[NH-]C(=O)c1ccccc1-n1c([O-])cc(Nc2ccc(CCc3ccc(Cl)cc3)cc2)c1[O-] (protonated)
[NH-]C(=O)c1ccccc1-n1c([O-])cc(Nc2ccc(CCc3ccc(Cl)cc3)cc2)c1[O-] (3D coordinates assigned)
[NH-]C(=O)c1ccccc1-n1c([O-])cc(Nc2ccc(CCc3ccc(Cl)cc3)cc2)c1[O-] (optimized conformer: 95.31339756050002 kcal/mol)

>  <smiles>  (61) 
NC(=O)c1ccccc1-n1c(O)cc(Nc2ccc(CCc3ccc(Cl)cc3)cc2)c1O

>  <score_type>  (61) 
oracle

>  <origin>  (61) 
adg

>  <m_score__min__energy>  (61) 
-15.94

>  <m_primary>  (61) 
energy

$$$$
61:0
     RDKit          3D

 35 36  0  0  0  0  0  0  0  0999 V2000
   54.5050   26.1830   45.9930 N   0  0  0  0  0  0  0  0  0  0  0  0
   55.9000   25.1660   46.0410 S   0  0  0  0  0  0  0  0  0  0  0  0
   55.8780   24.2260   44.8670 O   0  0  0  0  0  0  0  0  0  0  0  0
   55.8890   24.3560   47.3070 O   0  0  0  0  0  0  0  0  0  0  0  0
   57.3500   26.1610   45.9800 C   0  0  0  0  0  0  0  0  0  0  0  0
   58.5470   25.6960   46.5380 C   0  0  0  0  0  0  0  0  0  0  0  0
   59.6980   26.4870   46.4900 C   0  0  0  0  0  0  0  0  0  0  0  0
   59.6560   27.7520   45.9010 C   0  0  0  0  0  0  0  0  0  0  0  0
   58.4520   28.2440   45.3650 C   0  0  0  0  0  0  0  0  0  0  0  0
   58.3700   29.5290   44.7330 N   0  0  0  0  0  0  0  0  0  0  0  0
   57.6070   30.6520   45.1910 C   0  0  0  0  0  0  0  0  0  0  0  0
   56.4260   30.8350   44.7930 O   0  0  0  0  0  0  0  0  0  0  0  0
   58.2470   31.6530   46.1010 C   0  0  0  0  0  0  0  0  0  0  0  0
   57.6570   32.9910   45.8790 N   0  0  0  0  0  0  0  0  0  0  0  0
   57.7170   33.8460   47.0810 C   0  0  0  0  0  0  0  0  0  0  0  0
   59.1580   34.1600   47.5270 C   0  0  0  0  0  0  0  0  0  0  0  0
   60.3430   34.4060   46.1490 S   0  0  0  0  0  0  0  0  0  0  0  0
   59.1060   34.8290   44.8860 C   0  0  0  0  0  0  0  0  0  0  0  0
   58.1480   33.6520   44.6410 C   0  0  0  0  0  0  0  0  0  0  0  0
   57.3080   27.4340   45.3940 C   0  0  0  0  0  0  0  0  0  0  0  0
   54.7740   27.0920   46.4320 H   0  0  0  0  0  0  0  0  0  0  0  0
   58.5815   24.7056   47.0153 H   0  0  0  0  0  0  0  0  0  0  0  0
   60.6396   26.1119   46.9174 H   0  0  0  0  0  0  0  0  0  0  0  0
   60.5675   28.3661   45.8559 H   0  0  0  0  0  0  0  0  0  0  0  0
   58.0830   31.3518   47.1462 H   0  0  0  0  0  0  0  0  0  0  0  0
   59.3255   31.6951   45.8887 H   0  0  0  0  0  0  0  0  0  0  0  0
   57.2036   34.7940   46.8625 H   0  0  0  0  0  0  0  0  0  0  0  0
   57.2323   33.2950   47.9004 H   0  0  0  0  0  0  0  0  0  0  0  0
   59.1382   35.0788   48.1315 H   0  0  0  0  0  0  0  0  0  0  0  0
   59.5098   33.2828   48.0899 H   0  0  0  0  0  0  0  0  0  0  0  0
   58.5268   35.7000   45.2265 H   0  0  0  0  0  0  0  0  0  0  0  0
   59.6282   35.0589   43.9455 H   0  0  0  0  0  0  0  0  0  0  0  0
   57.2775   34.0275   44.0832 H   0  0  0  0  0  0  0  0  0  0  0  0
   58.7189   32.8933   44.0856 H   0  0  0  0  0  0  0  0  0  0  0  0
   56.3692   27.8005   44.9531 H   0  0  0  0  0  0  0  0  0  0  0  0
  1  2  1  0
  2  3  2  0
  2  4  2  0
  2  5  1  0
  5  6  2  0
  6  7  1  0
  7  8  2  0
  8  9  1  0
  9 10  1  0
 10 11  1  0
 11 12  2  0
 11 13  1  0
 13 14  1  0
 14 15  1  0
 15 16  1  0
 16 17  1  0
 17 18  1  0
 18 19  1  0
  9 20  2  0
 20  5  1  0
 19 14  1  0
  1 21  1  0
  6 22  1  0
  7 23  1  0
  8 24  1  0
 13 25  1  0
 13 26  1  0
 15 27  1  0
 15 28  1  0
 16 29  1  0
 16 30  1  0
 18 31  1  0
 18 32  1  0
 19 33  1  0
 19 34  1  0
 20 35  1  0
M  CHG  2   1  -1  10  -1
M  END
>  <UniqueID>  (62) 
56

>  <SMILES>  (62) 
[NH-]S(=O)(=O)c1cccc([N-]C(=O)CN2CCSCC2)c1

>  <Energy>  (62) 
45.05117654245876

>  <Genealogy>  (62) 
[NH-]S(=O)(=O)c1cccc([N-]C(=O)CN2CCSCC2)c1 (protonated)
[NH-]S(=O)(=O)c1cccc([N-]C(=O)CN2CCSCC2)c1 (3D coordinates assigned)
[NH-]S(=O)(=O)c1cccc([N-]C(=O)CN2CCSCC2)c1 (nonaromatic ring conformer: 45.05117654245876 kcal/mol)

>  <smiles>  (62) 
NS(=O)(=O)c1cccc(NC(=O)CN2CCSCC2)c1

>  <score_type>  (62) 
oracle

>  <origin>  (62) 
adg

>  <m_score__min__energy>  (62) 
-11.970000000000001

>  <m_primary>  (62) 
energy

$$$$
62:0
     RDKit          3D

 36 38  0  0  0  0  0  0  0  0999 V2000
   55.2320   29.3410   44.8570 N   0  0  0  0  0  0  0  0  0  0  0  0
   56.4600   29.9780   44.5110 C   0  0  0  0  0  0  0  0  0  0  0  0
   56.5430   31.2340   44.5560 O   0  0  0  0  0  0  0  0  0  0  0  0
   57.5970   29.1770   44.1680 N   0  0  0  0  0  0  0  0  0  0  0  0
   58.2540   28.2160   45.0070 C   0  0  0  0  0  0  0  0  0  0  0  0
   58.1490   26.8320   44.7810 C   0  0  0  0  0  0  0  0  0  0  0  0
   58.7880   25.9310   45.6350 C   0  0  0  0  0  0  0  0  0  0  0  0
   59.5200   26.3980   46.7280 C   0  0  0  0  0  0  0  0  0  0  0  0
   59.6130   27.7700   46.9860 C   0  0  0  0  0  0  0  0  0  0  0  0
   60.3480   28.1850   48.1090 O   0  0  0  0  0  0  0  0  0  0  0  0
   60.0070   29.2830   48.9550 C   0  0  0  0  0  0  0  0  0  0  0  0
   60.2710   30.5900   48.2640 C   0  0  0  0  0  0  0  0  0  0  0  0
   61.5760   31.0330   48.0430 C   0  0  0  0  0  0  0  0  0  0  0  0
   61.7760   32.2600   47.4090 C   0  0  0  0  0  0  0  0  0  0  0  0
   62.9590   32.6510   47.2030 O   0  0  0  0  0  0  0  0  0  0  0  0
   60.7010   33.0220   47.0220 N   0  0  0  0  0  0  0  0  0  0  0  0
   60.8870   34.2310   46.3970 C   0  0  0  0  0  0  0  0  0  0  0  0
   59.7950   35.0070   46.0040 C   0  0  0  0  0  0  0  0  0  0  0  0
   58.5040   34.5520   46.2510 C   0  0  0  0  0  0  0  0  0  0  0  0
   58.3120   33.3270   46.8850 C   0  0  0  0  0  0  0  0  0  0  0  0
   57.0530   32.8810   47.1260 F   0  0  0  0  0  0  0  0  0  0  0  0
   59.4240   32.5660   47.2670 C   0  0  0  0  0  0  0  0  0  0  0  0
   59.2300   31.3710   47.8830 N   0  0  0  0  0  0  0  0  0  0  0  0
   58.9710   28.6770   46.1190 C   0  0  0  0  0  0  0  0  0  0  0  0
   55.1560   28.3000   44.8410 H   0  0  0  0  0  0  0  0  0  0  0  0
   54.3990   29.9100   45.1270 H   0  0  0  0  0  0  0  0  0  0  0  0
   57.5619   26.4583   43.9292 H   0  0  0  0  0  0  0  0  0  0  0  0
   58.7144   24.8499   45.4459 H   0  0  0  0  0  0  0  0  0  0  0  0
   60.0274   25.6821   47.3913 H   0  0  0  0  0  0  0  0  0  0  0  0
   58.9397   29.2210   49.2140 H   0  0  0  0  0  0  0  0  0  0  0  0
   60.6247   29.2333   49.8638 H   0  0  0  0  0  0  0  0  0  0  0  0
   62.4341   30.4240   48.3638 H   0  0  0  0  0  0  0  0  0  0  0  0
   61.9080   34.5919   46.2039 H   0  0  0  0  0  0  0  0  0  0  0  0
   59.9546   35.9726   45.5019 H   0  0  0  0  0  0  0  0  0  0  0  0
   57.6377   35.1577   45.9466 H   0  0  0  0  0  0  0  0  0  0  0  0
   59.0335   29.7572   46.3173 H   0  0  0  0  0  0  0  0  0  0  0  0
  1  2  1  0
  2  3  2  0
  2  4  1  0
  4  5  1  0
  5  6  2  0
  6  7  1  0
  7  8  2  0
  8  9  1  0
  9 10  1  0
 10 11  1  0
 11 12  1  0
 12 13  2  0
 13 14  1  0
 14 15  2  0
 14 16  1  0
 16 17  1  0
 17 18  2  0
 18 19  1  0
 19 20  2  0
 20 21  1  0
 20 22  1  0
 22 23  2  0
  9 24  2  0
 24  5  1  0
 23 12  1  0
 22 16  1  0
  1 25  1  0
  1 26  1  0
  6 27  1  0
  7 28  1  0
  8 29  1  0
 11 30  1  0
 11 31  1  0
 13 32  1  0
 17 33  1  0
 18 34  1  0
 19 35  1  0
 24 36  1  0
M  CHG  1   4  -1
M  END
>  <UniqueID>  (63) 
57

>  <SMILES>  (63) 
NC(=O)[N-]c1cccc(OCc2cc(=O)n3cccc(F)c3n2)c1

>  <Energy>  (63) 
45.51106722197077

>  <Genealogy>  (63) 
NC(=O)[N-]c1cccc(OCc2cc(=O)n3cccc(F)c3n2)c1 (protonated)
NC(=O)[N-]c1cccc(OCc2cc(=O)n3cccc(F)c3n2)c1 (3D coordinates assigned)
NC(=O)[N-]c1cccc(OCc2cc(=O)n3cccc(F)c3n2)c1 (optimized conformer: 45.51106722197077 kcal/mol)

>  <smiles>  (63) 
NC(=O)Nc1cccc(OCc2cc(=O)n3cccc(F)c3n2)c1

>  <score_type>  (63) 
oracle

>  <origin>  (63) 
adg

>  <m_score__min__energy>  (63) 
-10.220000000000001

>  <m_primary>  (63) 
energy

$$$$
63:0
     RDKit          3D

 78 80  0  0  1  0  0  0  0  0999 V2000
   60.7560   28.2810   48.0120 C   0  0  0  0  0  0  0  0  0  0  0  0
   60.0450   29.6120   48.1240 C   0  0  0  0  0  0  0  0  0  0  0  0
   60.5610   30.4760   46.9860 C   0  0  0  0  0  0  0  0  0  0  0  0
   58.5620   29.3750   47.9790 C   0  0  0  0  0  0  0  0  0  0  0  0
   60.3770   30.1810   49.4610 C   0  0  0  0  0  0  0  0  0  0  0  0
   61.4130   29.7050   50.2390 C   0  0  0  0  0  0  0  0  0  0  0  0
   61.7270   30.2260   51.4840 C   0  0  0  0  0  0  0  0  0  0  0  0
   62.8680   29.6190   52.2020 C   0  0  0  0  0  0  0  0  0  0  0  0
   63.7460   30.6320   52.8190 C   0  0  0  0  0  0  0  0  0  0  0  0
   63.8150   30.6570   54.0870 O   0  0  0  0  0  0  0  0  0  0  0  0
   64.4720   31.5260   52.0600 O   0  0  0  0  0  0  0  0  0  0  0  0
   63.9340   32.1030   50.8900 C   0  0  0  0  0  0  0  0  0  0  0  0
   63.2250   33.2920   50.9410 C   0  0  0  0  0  0  0  0  0  0  0  0
   62.7160   33.8150   49.7490 C   0  0  0  0  0  0  0  0  0  0  0  0
   62.8990   33.1820   48.5340 C   0  0  0  0  0  0  0  0  0  0  0  0
   62.3440   33.8020   47.3510 C   0  0  0  0  0  0  0  0  0  0  0  0
   63.1740   34.2690   46.5100 O   0  0  0  0  0  0  0  0  0  0  0  0
   60.9620   33.9270   47.0680 N   0  0  0  0  0  0  0  0  0  0  0  0
   60.4890   34.0190   45.8050 C   0  0  0  0  0  0  0  0  0  0  0  0
   59.1150   34.1460   45.8450 C   0  0  0  0  0  0  0  0  0  0  0  0
   58.1560   34.2870   44.6970 C   0  0  0  0  0  0  0  0  0  0  0  0
   58.1330   32.8970   44.0440 C   0  0  0  0  0  0  0  0  0  0  0  0
   57.3660   31.9060   44.8650 C   0  0  0  0  0  0  0  0  0  0  0  0
   56.4010   31.0610   44.0870 C   0  0  0  0  0  0  0  0  0  0  0  0
   56.3690   29.6430   44.4950 C   0  0  0  0  0  0  0  0  0  0  0  0
   55.2240   28.9870   44.8550 O   0  0  0  0  0  0  0  0  0  0  0  0
   57.4790   28.9880   44.5100 N   0  0  0  0  0  0  0  0  0  0  0  0
   57.5610   27.6340   44.3920 O   0  0  0  0  0  0  0  0  0  0  0  0
   58.8000   34.1250   47.1530 N   0  0  0  0  0  0  0  0  0  0  0  0
   59.9140   33.9950   47.8510 N   0  0  0  0  0  0  0  0  0  0  0  0
   63.6110   32.0060   48.5470 C   0  0  0  0  0  0  0  0  0  0  0  0
   64.1380   31.4430   49.6980 C   0  0  0  0  0  0  0  0  0  0  0  0
   60.9760   31.2720   51.9790 C   0  0  0  0  0  0  0  0  0  0  0  0
   59.9270   31.7760   51.2250 C   0  0  0  0  0  0  0  0  0  0  0  0
   59.1220   32.8990   51.7560 C   0  0  0  0  0  0  0  0  0  0  0  0
   57.6550   32.5480   51.8750 C   0  0  0  0  0  0  0  0  0  0  0  0
   59.2680   34.1130   50.8650 C   0  0  0  0  0  0  0  0  0  0  0  0
   59.6100   33.2760   53.1380 C   0  0  0  0  0  0  0  0  0  0  0  0
   59.6460   31.2280   49.9860 C   0  0  0  0  0  0  0  0  0  0  0  0
   58.5910   31.7090   49.1900 O   0  0  0  0  0  0  0  0  0  0  0  0
   60.9645   27.8908   49.0191 H   0  0  0  0  0  0  0  0  0  0  0  0
   60.1180   27.5691   47.4677 H   0  0  0  0  0  0  0  0  0  0  0  0
   61.7024   28.4155   47.4677 H   0  0  0  0  0  0  0  0  0  0  0  0
   61.0839   31.3515   47.3984 H   0  0  0  0  0  0  0  0  0  0  0  0
   61.2575   29.8905   46.3678 H   0  0  0  0  0  0  0  0  0  0  0  0
   59.7153   30.8116   46.3678 H   0  0  0  0  0  0  0  0  0  0  0  0
   58.1032   29.3017   48.9761 H   0  0  0  0  0  0  0  0  0  0  0  0
   58.1091   30.2122   47.4276 H   0  0  0  0  0  0  0  0  0  0  0  0
   58.3925   28.4384   47.4276 H   0  0  0  0  0  0  0  0  0  0  0  0
   62.0184   28.8721   49.8521 H   0  0  0  0  0  0  0  0  0  0  0  0
   62.4784   28.9604   52.9922 H   0  0  0  0  0  0  0  0  0  0  0  0
   63.4660   29.0578   51.4689 H   0  0  0  0  0  0  0  0  0  0  0  0
   63.0663   33.8123   51.8971 H   0  0  0  0  0  0  0  0  0  0  0  0
   62.1525   34.7593   49.7787 H   0  0  0  0  0  0  0  0  0  0  0  0
   61.1012   33.9963   44.8914 H   0  0  0  0  0  0  0  0  0  0  0  0
   57.1546   34.5637   45.0584 H   0  0  0  0  0  0  0  0  0  0  0  0
   58.4590   35.0757   43.9926 H   0  0  0  0  0  0  0  0  0  0  0  0
   57.6625   32.9775   43.0530 H   0  0  0  0  0  0  0  0  0  0  0  0
   59.1708   32.5415   43.9629 H   0  0  0  0  0  0  0  0  0  0  0  0
   58.0875   31.2373   45.3572 H   0  0  0  0  0  0  0  0  0  0  0  0
   56.7638   32.4910   45.5757 H   0  0  0  0  0  0  0  0  0  0  0  0
   55.3925   31.4801   44.2186 H   0  0  0  0  0  0  0  0  0  0  0  0
   56.7388   31.0799   43.0403 H   0  0  0  0  0  0  0  0  0  0  0  0
   55.1380   27.9620   44.8750 H   0  0  0  0  0  0  0  0  0  0  0  0
   56.8030   27.1400   43.9420 H   0  0  0  0  0  0  0  0  0  0  0  0
   63.7709   31.4839   47.5921 H   0  0  0  0  0  0  0  0  0  0  0  0
   64.7014   30.4990   49.6613 H   0  0  0  0  0  0  0  0  0  0  0  0
   61.2075   31.7029   52.9642 H   0  0  0  0  0  0  0  0  0  0  0  0
   57.3788   32.4819   52.9377 H   0  0  0  0  0  0  0  0  0  0  0  0
   57.0508   33.3269   51.3869 H   0  0  0  0  0  0  0  0  0  0  0  0
   57.4688   31.5800   51.3869 H   0  0  0  0  0  0  0  0  0  0  0  0
   59.3763   35.0136   51.4872 H   0  0  0  0  0  0  0  0  0  0  0  0
   60.1586   33.9968   50.2300 H   0  0  0  0  0  0  0  0  0  0  0  0
   58.3752   34.2113   50.2300 H   0  0  0  0  0  0  0  0  0  0  0  0
   58.9788   32.7883   53.8954 H   0  0  0  0  0  0  0  0  0  0  0  0
   60.6521   32.9461   53.2615 H   0  0  0  0  0  0  0  0  0  0  0  0
   59.5539   34.3676   53.2615 H   0  0  0  0  0  0  0  0  0  0  0  0
   58.7110   32.5050   48.6030 H   0  0  0  0  0  0  0  0  0  0  0  0
  1  2  1  0
  2  3  1  0
  2  4  1  0
  2  5  1  0
  5  6  2  0
  6  7  1  0
  7  8  1  0
  8  9  1  0
  9 10  2  0
  9 11  1  0
 11 12  1  0
 12 13  2  0
 13 14  1  0
 14 15  2  0
 15 16  1  0
 16 17  2  0
 16 18  1  0
 18 19  1  0
 19 20  2  0
 20 21  1  0
 21 22  1  0
 22 23  1  0
 23 24  1  0
 24 25  1  0
 25 26  1  0
 25 27  2  0
 27 28  1  0
 20 29  1  0
 29 30  2  0
 15 31  1  0
 31 32  2  0
  7 33  2  0
 33 34  1  0
 34 35  1  0
 35 36  1  0
 35 37  1  0
 35 38  1  0
 34 39  2  0
 39 40  1  0
 39  5  1  0
 32 12  1  0
 30 18  1  0
  1 41  1  0
  1 42  1  0
  1 43  1  0
  3 44  1  0
  3 45  1  0
  3 46  1  0
  4 47  1  0
  4 48  1  0
  4 49  1  0
  6 50  1  0
  8 51  1  0
  8 52  1  0
 13 53  1  0
 14 54  1  0
 19 55  1  0
 21 56  1  0
 21 57  1  0
 22 58  1  0
 22 59  1  0
 23 60  1  0
 23 61  1  0
 24 62  1  0
 24 63  1  0
 26 64  1  0
 28 65  1  0
 31 66  1  0
 32 67  1  0
 33 68  1  0
 36 69  1  0
 36 70  1  0
 36 71  1  0
 37 72  1  0
 37 73  1  0
 37 74  1  0
 38 75  1  0
 38 76  1  0
 38 77  1  0
 40 78  1  0
M  END
>  <smiles>  (64) 
CC(C)(C)c1cc(CC(=O)Oc2ccc(C(=O)n3cc(CCCCC(O)=NO)nn3)cc2)cc(C(C)(C)C)c1O

>  <score_type>  (64) 
oracle

>  <origin>  (64) 
adg

>  <m_score__min__energy>  (64) 
-13.06

>  <m_primary>  (64) 
energy

$$$$
64:0
     RDKit          3D

 24 26  0  0  0  0  0  0  0  0999 V2000
   58.4910   26.0000   47.1750 C   0  0  0  0  0  0  0  0  0  0  0  0
   57.4050   25.8630   46.2020 N   0  0  0  0  0  0  0  0  0  0  0  0
   56.5710   27.0270   45.8720 C   0  0  0  0  0  0  0  0  0  0  0  0
   55.1570   26.6860   46.0120 N   0  0  0  0  0  0  0  0  0  0  0  0
   54.6860   25.3870   45.6470 C   0  0  0  0  0  0  0  0  0  0  0  0
   53.4480   25.1650   45.5850 O   0  0  0  0  0  0  0  0  0  0  0  0
   55.6670   24.3200   45.3740 C   0  0  0  0  0  0  0  0  0  0  0  0
   55.2770   23.0570   44.8650 C   0  0  0  0  0  0  0  0  0  0  0  0
   56.2120   22.0950   44.6120 N   0  0  0  0  0  0  0  0  0  0  0  0
   57.5190   22.3580   44.8590 C   0  0  0  0  0  0  0  0  0  0  0  0
   58.5420   21.5260   44.6170 N   0  0  0  0  0  0  0  0  0  0  0  0
   59.6540   22.2140   44.9580 C   0  0  0  0  0  0  0  0  0  0  0  0
   59.3270   23.4860   45.4170 C   0  0  0  0  0  0  0  0  0  0  0  0
   57.9470   23.5600   45.3560 C   0  0  0  0  0  0  0  0  0  0  0  0
   57.0300   24.5820   45.6470 C   0  0  0  0  0  0  0  0  0  0  0  0
   58.0793   25.9481   48.1937 H   0  0  0  0  0  0  0  0  0  0  0  0
   59.2171   25.1863   47.0310 H   0  0  0  0  0  0  0  0  0  0  0  0
   58.9923   26.9685   47.0310 H   0  0  0  0  0  0  0  0  0  0  0  0
   56.8151   27.8548   46.5540 H   0  0  0  0  0  0  0  0  0  0  0  0
   56.7680   27.3286   44.8327 H   0  0  0  0  0  0  0  0  0  0  0  0
   54.2140   22.8500   44.6724 H   0  0  0  0  0  0  0  0  0  0  0  0
   58.4950   20.5590   44.2270 H   0  0  0  0  0  0  0  0  0  0  0  0
   60.6788   21.8215   44.8828 H   0  0  0  0  0  0  0  0  0  0  0  0
   60.0207   24.2690   45.7572 H   0  0  0  0  0  0  0  0  0  0  0  0
  1  2  1  0
  2  3  1  0
  3  4  1  0
  4  5  1  0
  5  6  2  0
  5  7  1  0
  7  8  2  0
  8  9  1  0
  9 10  2  0
 10 11  1  0
 11 12  1  0
 12 13  2  0
 13 14  1  0
 14 15  2  0
 15  2  1  0
 15  7  1  0
 14 10  1  0
  1 16  1  0
  1 17  1  0
  1 18  1  0
  3 19  1  0
  3 20  1  0
  8 21  1  0
 11 22  1  0
 12 23  1  0
 13 24  1  0
M  CHG  1   4  -1
M  END
>  <UniqueID>  (65) 
58

>  <SMILES>  (65) 
CN1C[N-]C(=O)c2cnc3[nH]ccc3c21

>  <Energy>  (65) 
65.859567395707

>  <Genealogy>  (65) 
CN1C[N-]C(=O)c2cnc3[nH]ccc3c21 (protonated)
CN1C[N-]C(=O)c2cnc3[nH]ccc3c21 (3D coordinates assigned)
CN1C[N-]C(=O)c2cnc3[nH]ccc3c21 (nonaromatic ring conformer: 65.859567395707 kcal/mol)

>  <smiles>  (65) 
CN1CNC(=O)c2cnc3[nH]ccc3c21

>  <score_type>  (65) 
oracle

>  <origin>  (65) 
adg

>  <m_score__min__energy>  (65) 
-8.3800000000000008

>  <m_primary>  (65) 
energy

$$$$
65:0
     RDKit          3D

 45 48  0  0  0  0  0  0  0  0999 V2000
   58.8910   33.0860   48.6440 C   0  0  0  0  0  0  0  0  0  0  0  0
   60.0140   33.3770   47.6940 C   0  0  0  0  0  0  0  0  0  0  0  0
   59.9250   33.7550   46.3500 C   0  0  0  0  0  0  0  0  0  0  0  0
   58.6870   33.9760   45.5730 C   0  0  0  0  0  0  0  0  0  0  0  0
   58.5910   34.9810   44.8210 O   0  0  0  0  0  0  0  0  0  0  0  0
   57.5510   33.1120   45.7130 N   0  0  0  0  0  0  0  0  0  0  0  0
   57.5310   31.6950   45.4860 C   0  0  0  0  0  0  0  0  0  0  0  0
   58.3150   30.8140   46.2490 C   0  0  0  0  0  0  0  0  0  0  0  0
   58.2790   29.4390   46.0000 C   0  0  0  0  0  0  0  0  0  0  0  0
   57.4750   28.9280   44.9650 C   0  0  0  0  0  0  0  0  0  0  0  0
   57.4020   27.5250   44.6750 N   0  0  0  0  0  0  0  0  0  0  0  0
   56.8610   26.3030   45.7800 S   0  0  0  0  0  0  0  0  0  0  0  0
   55.3800   26.4470   45.9870 O   0  0  0  0  0  0  0  0  0  0  0  0
   57.5520   26.4900   47.1010 O   0  0  0  0  0  0  0  0  0  0  0  0
   57.1900   24.7090   45.1120 C   0  0  0  0  0  0  0  0  0  0  0  0
   58.2780   23.9490   45.5660 C   0  0  0  0  0  0  0  0  0  0  0  0
   58.5310   22.6880   45.0170 C   0  0  0  0  0  0  0  0  0  0  0  0
   57.6980   22.1790   44.0150 C   0  0  0  0  0  0  0  0  0  0  0  0
   56.6110   22.9330   43.5610 C   0  0  0  0  0  0  0  0  0  0  0  0
   56.3580   24.1950   44.1070 C   0  0  0  0  0  0  0  0  0  0  0  0
   56.7250   29.8140   44.1820 C   0  0  0  0  0  0  0  0  0  0  0  0
   56.7560   31.1880   44.4380 C   0  0  0  0  0  0  0  0  0  0  0  0
   61.1340   33.8850   45.8360 O   0  0  0  0  0  0  0  0  0  0  0  0
   62.0050   33.6100   46.7750 C   0  0  0  0  0  0  0  0  0  0  0  0
   63.3930   33.6240   46.6740 C   0  0  0  0  0  0  0  0  0  0  0  0
   64.1400   33.2840   47.8170 C   0  0  0  0  0  0  0  0  0  0  0  0
   63.4870   32.9370   49.0210 C   0  0  0  0  0  0  0  0  0  0  0  0
   64.2190   32.6110   50.1140 F   0  0  0  0  0  0  0  0  0  0  0  0
   62.0820   32.9330   49.0930 C   0  0  0  0  0  0  0  0  0  0  0  0
   61.3690   33.2820   47.9440 C   0  0  0  0  0  0  0  0  0  0  0  0
   59.2525   33.1797   49.6787 H   0  0  0  0  0  0  0  0  0  0  0  0
   58.0731   33.8019   48.4751 H   0  0  0  0  0  0  0  0  0  0  0  0
   58.5236   32.0630   48.4751 H   0  0  0  0  0  0  0  0  0  0  0  0
   58.9611   31.2084   47.0471 H   0  0  0  0  0  0  0  0  0  0  0  0
   58.8813   28.7544   46.6153 H   0  0  0  0  0  0  0  0  0  0  0  0
   58.9334   24.3456   46.3554 H   0  0  0  0  0  0  0  0  0  0  0  0
   59.3864   22.0954   45.3736 H   0  0  0  0  0  0  0  0  0  0  0  0
   57.8977   21.1866   43.5845 H   0  0  0  0  0  0  0  0  0  0  0  0
   55.9548   22.5329   42.7740 H   0  0  0  0  0  0  0  0  0  0  0  0
   55.5034   24.7867   43.7470 H   0  0  0  0  0  0  0  0  0  0  0  0
   56.1067   29.4259   43.3591 H   0  0  0  0  0  0  0  0  0  0  0  0
   56.1674   31.8744   43.8115 H   0  0  0  0  0  0  0  0  0  0  0  0
   63.8905   33.8924   45.7303 H   0  0  0  0  0  0  0  0  0  0  0  0
   65.2391   33.2884   47.7729 H   0  0  0  0  0  0  0  0  0  0  0  0
   61.5619   32.6637   50.0241 H   0  0  0  0  0  0  0  0  0  0  0  0
  1  2  1  0
  2  3  2  0
  3  4  1  0
  4  5  2  0
  4  6  1  0
  6  7  1  0
  7  8  2  0
  8  9  1  0
  9 10  2  0
 10 11  1  0
 11 12  1  0
 12 13  2  0
 12 14  2  0
 12 15  1  0
 15 16  2  0
 16 17  1  0
 17 18  2  0
 18 19  1  0
 19 20  2  0
 10 21  1  0
 21 22  2  0
  3 23  1  0
 23 24  1  0
 24 25  2  0
 25 26  1  0
 26 27  2  0
 27 28  1  0
 27 29  1  0
 29 30  2  0
 30  2  1  0
 22  7  1  0
 30 24  1  0
 20 15  1  0
  1 31  1  0
  1 32  1  0
  1 33  1  0
  8 34  1  0
  9 35  1  0
 16 36  1  0
 17 37  1  0
 18 38  1  0
 19 39  1  0
 20 40  1  0
 21 41  1  0
 22 42  1  0
 25 43  1  0
 26 44  1  0
 29 45  1  0
M  CHG  2   6  -1  11  -1
M  END
>  <UniqueID>  (66) 
59

>  <SMILES>  (66) 
Cc1c(C(=O)[N-]c2ccc([N-]S(=O)(=O)c3ccccc3)cc2)oc2ccc(F)cc12

>  <Energy>  (66) 
91.34424007429644

>  <Genealogy>  (66) 
Cc1c(C(=O)[N-]c2ccc([N-]S(=O)(=O)c3ccccc3)cc2)oc2ccc(F)cc12 (protonated)
Cc1c(C(=O)[N-]c2ccc([N-]S(=O)(=O)c3ccccc3)cc2)oc2ccc(F)cc12 (3D coordinates assigned)
Cc1c(C(=O)[N-]c2ccc([N-]S(=O)(=O)c3ccccc3)cc2)oc2ccc(F)cc12 (optimized conformer: 91.34424007429644 kcal/mol)

>  <smiles>  (66) 
Cc1c(C(=O)Nc2ccc(NS(=O)(=O)c3ccccc3)cc2)oc2ccc(F)cc12

>  <score_type>  (66) 
oracle

>  <origin>  (66) 
adg

>  <m_score__min__energy>  (66) 
-11.619999999999999

>  <m_primary>  (66) 
energy

$$$$
66:0
     RDKit          3D

 57 60  0  0  0  0  0  0  0  0999 V2000
   55.2830   24.5390   46.7160 O   0  0  0  0  0  0  0  0  0  0  0  0
   55.6690   25.4320   45.9170 C   0  0  0  0  0  0  0  0  0  0  0  0
   55.1120   26.7060   45.9850 O   0  0  0  0  0  0  0  0  0  0  0  0
   56.7020   25.1150   44.8820 C   0  0  0  0  0  0  0  0  0  0  0  0
   57.7210   26.2170   44.8010 C   0  0  0  0  0  0  0  0  0  0  0  0
   57.9170   26.7550   43.6740 O   0  0  0  0  0  0  0  0  0  0  0  0
   58.4700   26.7160   45.9880 C   0  0  0  0  0  0  0  0  0  0  0  0
   58.6570   25.8710   47.0980 C   0  0  0  0  0  0  0  0  0  0  0  0
   59.3370   26.3240   48.2280 C   0  0  0  0  0  0  0  0  0  0  0  0
   59.8520   27.6200   48.2670 C   0  0  0  0  0  0  0  0  0  0  0  0
   59.7000   28.4740   47.1640 C   0  0  0  0  0  0  0  0  0  0  0  0
   60.2110   29.7810   47.1500 O   0  0  0  0  0  0  0  0  0  0  0  0
   60.2650   30.6160   45.9930 C   0  0  0  0  0  0  0  0  0  0  0  0
   59.5730   31.9290   46.2810 C   0  0  0  0  0  0  0  0  0  0  0  0
   60.1340   32.7540   47.2710 C   0  0  0  0  0  0  0  0  0  0  0  0
   59.5110   33.9420   47.6670 C   0  0  0  0  0  0  0  0  0  0  0  0
   60.1280   34.7100   48.6670 O   0  0  0  0  0  0  0  0  0  0  0  0
   60.6220   34.2050   49.9060 C   0  0  0  0  0  0  0  0  0  0  0  0
   61.9750   33.5750   49.7200 C   0  0  0  0  0  0  0  0  0  0  0  0
   62.8250   33.9970   48.6850 C   0  0  0  0  0  0  0  0  0  0  0  0
   64.0730   33.3920   48.5100 C   0  0  0  0  0  0  0  0  0  0  0  0
   64.4770   32.3580   49.3600 C   0  0  0  0  0  0  0  0  0  0  0  0
   63.6340   31.9280   50.3880 C   0  0  0  0  0  0  0  0  0  0  0  0
   64.0230   30.9180   51.2040 F   0  0  0  0  0  0  0  0  0  0  0  0
   62.3870   32.5340   50.5690 C   0  0  0  0  0  0  0  0  0  0  0  0
   58.3040   34.3200   47.0540 C   0  0  0  0  0  0  0  0  0  0  0  0
   57.7350   33.5140   46.0670 C   0  0  0  0  0  0  0  0  0  0  0  0
   58.3550   32.3180   45.6670 C   0  0  0  0  0  0  0  0  0  0  0  0
   57.7000   31.5130   44.6130 C   0  0  0  0  0  0  0  0  0  0  0  0
   57.6600   31.9730   43.2870 C   0  0  0  0  0  0  0  0  0  0  0  0
   57.0180   31.2180   42.3000 C   0  0  0  0  0  0  0  0  0  0  0  0
   56.4070   30.0060   42.6320 C   0  0  0  0  0  0  0  0  0  0  0  0
   56.4290   29.5510   43.9520 C   0  0  0  0  0  0  0  0  0  0  0  0
   57.0640   30.3070   44.9440 C   0  0  0  0  0  0  0  0  0  0  0  0
   59.0020   28.0220   46.0380 C   0  0  0  0  0  0  0  0  0  0  0  0
   57.2061   24.1747   45.1497 H   0  0  0  0  0  0  0  0  0  0  0  0
   56.2075   25.0150   43.9045 H   0  0  0  0  0  0  0  0  0  0  0  0
   58.2632   24.8442   47.0739 H   0  0  0  0  0  0  0  0  0  0  0  0
   59.4679   25.6565   49.0925 H   0  0  0  0  0  0  0  0  0  0  0  0
   60.3790   27.9736   49.1655 H   0  0  0  0  0  0  0  0  0  0  0  0
   61.3155   30.8065   45.7280 H   0  0  0  0  0  0  0  0  0  0  0  0
   59.7589   30.1128   45.1560 H   0  0  0  0  0  0  0  0  0  0  0  0
   61.0824   32.4593   47.7440 H   0  0  0  0  0  0  0  0  0  0  0  0
   60.7045   35.0323   50.6263 H   0  0  0  0  0  0  0  0  0  0  0  0
   59.9243   33.4417   50.2809 H   0  0  0  0  0  0  0  0  0  0  0  0
   62.5080   34.8058   48.0102 H   0  0  0  0  0  0  0  0  0  0  0  0
   64.7385   33.7301   47.7020 H   0  0  0  0  0  0  0  0  0  0  0  0
   65.4590   31.8828   49.2194 H   0  0  0  0  0  0  0  0  0  0  0  0
   61.7256   32.1943   51.3796 H   0  0  0  0  0  0  0  0  0  0  0  0
   57.8062   35.2542   47.3532 H   0  0  0  0  0  0  0  0  0  0  0  0
   56.7888   33.8189   45.5960 H   0  0  0  0  0  0  0  0  0  0  0  0
   58.1348   32.9297   43.0237 H   0  0  0  0  0  0  0  0  0  0  0  0
   56.9941   31.5788   41.2611 H   0  0  0  0  0  0  0  0  0  0  0  0
   55.9085   29.4101   41.8533 H   0  0  0  0  0  0  0  0  0  0  0  0
   55.9467   28.5973   44.2125 H   0  0  0  0  0  0  0  0  0  0  0  0
   57.0644   29.9547   45.9861 H   0  0  0  0  0  0  0  0  0  0  0  0
   58.8661   28.6953   45.1788 H   0  0  0  0  0  0  0  0  0  0  0  0
  1  2  2  0
  2  3  1  0
  2  4  1  0
  4  5  1  0
  5  6  2  0
  5  7  1  0
  7  8  2  0
  8  9  1  0
  9 10  2  0
 10 11  1  0
 11 12  1  0
 12 13  1  0
 13 14  1  0
 14 15  2  0
 15 16  1  0
 16 17  1  0
 17 18  1  0
 18 19  1  0
 19 20  2  0
 20 21  1  0
 21 22  2  0
 22 23  1  0
 23 24  1  0
 23 25  2  0
 16 26  2  0
 26 27  1  0
 27 28  2  0
 28 29  1  0
 29 30  2  0
 30 31  1  0
 31 32  2  0
 32 33  1  0
 33 34  2  0
 11 35  2  0
 35  7  1  0
 28 14  1  0
 34 29  1  0
 25 19  1  0
  4 36  1  0
  4 37  1  0
  8 38  1  0
  9 39  1  0
 10 40  1  0
 13 41  1  0
 13 42  1  0
 15 43  1  0
 18 44  1  0
 18 45  1  0
 20 46  1  0
 21 47  1  0
 22 48  1  0
 25 49  1  0
 26 50  1  0
 27 51  1  0
 30 52  1  0
 31 53  1  0
 32 54  1  0
 33 55  1  0
 34 56  1  0
 35 57  1  0
M  CHG  1   3  -1
M  END
>  <UniqueID>  (67) 
60

>  <SMILES>  (67) 
O=C([O-])CC(=O)c1cccc(OCc2cc(OCc3cccc(F)c3)ccc2-c2ccccc2)c1

>  <Energy>  (67) 
69.37892868386167

>  <Genealogy>  (67) 
O=C([O-])CC(=O)c1cccc(OCc2cc(OCc3cccc(F)c3)ccc2-c2ccccc2)c1 (protonated)
O=C([O-])CC(=O)c1cccc(OCc2cc(OCc3cccc(F)c3)ccc2-c2ccccc2)c1 (3D coordinates assigned)
O=C([O-])CC(=O)c1cccc(OCc2cc(OCc3cccc(F)c3)ccc2-c2ccccc2)c1 (optimized conformer: 69.37892868386167 kcal/mol)

>  <smiles>  (67) 
O=C(O)CC(=O)c1cccc(OCc2cc(OCc3cccc(F)c3)ccc2-c2ccccc2)c1

>  <score_type>  (67) 
oracle

>  <origin>  (67) 
adg

>  <m_score__min__energy>  (67) 
-12.66

>  <m_primary>  (67) 
energy

$$$$
67:0
     RDKit          3D

 52 56  0  0  0  0  0  0  0  0999 V2000
   59.5080   33.5480   49.4390 C   0  0  0  0  0  0  0  0  0  0  0  0
   58.6630   32.4890   49.1150 C   0  0  0  0  0  0  0  0  0  0  0  0
   58.1730   32.3440   47.8150 C   0  0  0  0  0  0  0  0  0  0  0  0
   58.5280   33.2670   46.8020 C   0  0  0  0  0  0  0  0  0  0  0  0
   58.0720   33.1530   45.4560 C   0  0  0  0  0  0  0  0  0  0  0  0
   57.1350   32.0680   44.9720 C   0  0  0  0  0  0  0  0  0  0  0  0
   57.3960   30.8650   45.6930 O   0  0  0  0  0  0  0  0  0  0  0  0
   57.9150   29.7230   45.0780 C   0  0  0  0  0  0  0  0  0  0  0  0
   57.2910   29.2160   43.9790 N   0  0  0  0  0  0  0  0  0  0  0  0
   57.7720   28.1150   43.3420 C   0  0  0  0  0  0  0  0  0  0  0  0
   58.8940   27.5040   43.7950 N   0  0  0  0  0  0  0  0  0  0  0  0
   59.5580   27.9700   44.8800 C   0  0  0  0  0  0  0  0  0  0  0  0
   59.0800   29.0940   45.5750 C   0  0  0  0  0  0  0  0  0  0  0  0
   59.7260   29.5010   46.8500 C   0  0  0  0  0  0  0  0  0  0  0  0
   59.4460   28.8580   48.0150 N   0  0  0  0  0  0  0  0  0  0  0  0
   60.1080   29.1580   49.1640 C   0  0  0  0  0  0  0  0  0  0  0  0
   61.1140   30.1150   49.1610 C   0  0  0  0  0  0  0  0  0  0  0  0
   61.3760   30.8090   47.9640 C   0  0  0  0  0  0  0  0  0  0  0  0
   62.3520   31.8820   47.8860 N   0  0  0  0  0  0  0  0  0  0  0  0
   62.3220   32.8290   46.7560 C   0  0  0  0  0  0  0  0  0  0  0  0
   63.3510   33.9490   46.9030 C   0  0  0  0  0  0  0  0  0  0  0  0
   63.4250   34.3610   48.2480 O   0  0  0  0  0  0  0  0  0  0  0  0
   64.0950   33.3620   48.9860 C   0  0  0  0  0  0  0  0  0  0  0  0
   63.3110   32.0310   49.0060 C   0  0  0  0  0  0  0  0  0  0  0  0
   60.6690   30.4750   46.8470 N   0  0  0  0  0  0  0  0  0  0  0  0
   58.4490   34.1310   44.5170 C   0  0  0  0  0  0  0  0  0  0  0  0
   59.2790   35.1910   44.8830 C   0  0  0  0  0  0  0  0  0  0  0  0
   59.7400   35.3060   46.1920 C   0  0  0  0  0  0  0  0  0  0  0  0
   59.3800   34.3560   47.1540 C   0  0  0  0  0  0  0  0  0  0  0  0
   59.8640   34.4810   48.4660 C   0  0  0  0  0  0  0  0  0  0  0  0
   59.8949   33.6483   50.4638 H   0  0  0  0  0  0  0  0  0  0  0  0
   58.3793   31.7610   49.8893 H   0  0  0  0  0  0  0  0  0  0  0  0
   57.5044   31.5039   47.5759 H   0  0  0  0  0  0  0  0  0  0  0  0
   56.0936   32.3793   45.1409 H   0  0  0  0  0  0  0  0  0  0  0  0
   57.2937   31.8958   43.8972 H   0  0  0  0  0  0  0  0  0  0  0  0
   56.4300   29.6750   43.6100 H   0  0  0  0  0  0  0  0  0  0  0  0
   57.2500   27.7198   42.4581 H   0  0  0  0  0  0  0  0  0  0  0  0
   60.4754   27.4663   45.2185 H   0  0  0  0  0  0  0  0  0  0  0  0
   59.8458   28.6410   50.0989 H   0  0  0  0  0  0  0  0  0  0  0  0
   61.6928   30.3261   50.0723 H   0  0  0  0  0  0  0  0  0  0  0  0
   62.5315   32.2772   45.8278 H   0  0  0  0  0  0  0  0  0  0  0  0
   61.3246   33.2924   46.7350 H   0  0  0  0  0  0  0  0  0  0  0  0
   64.3366   33.5831   46.5792 H   0  0  0  0  0  0  0  0  0  0  0  0
   63.0472   34.8029   46.2797 H   0  0  0  0  0  0  0  0  0  0  0  0
   65.0811   33.1862   48.5313 H   0  0  0  0  0  0  0  0  0  0  0  0
   64.1915   33.7143   50.0236 H   0  0  0  0  0  0  0  0  0  0  0  0
   64.0333   31.2028   48.9560 H   0  0  0  0  0  0  0  0  0  0  0  0
   62.7214   32.0217   49.9346 H   0  0  0  0  0  0  0  0  0  0  0  0
   58.0848   34.0588   43.4816 H   0  0  0  0  0  0  0  0  0  0  0  0
   59.5711   35.9406   44.1328 H   0  0  0  0  0  0  0  0  0  0  0  0
   60.3905   36.1480   46.4711 H   0  0  0  0  0  0  0  0  0  0  0  0
   60.5271   35.3188   48.7275 H   0  0  0  0  0  0  0  0  0  0  0  0
  1  2  2  0
  2  3  1  0
  3  4  2  0
  4  5  1  0
  5  6  1  0
  6  7  1  0
  7  8  1  0
  8  9  2  0
  9 10  1  0
 10 11  2  0
 11 12  1  0
 12 13  2  0
 13 14  1  0
 14 15  2  0
 15 16  1  0
 16 17  2  0
 17 18  1  0
 18 19  1  0
 19 20  1  0
 20 21  1  0
 21 22  1  0
 22 23  1  0
 23 24  1  0
 18 25  2  0
  5 26  2  0
 26 27  1  0
 27 28  2  0
 28 29  1  0
 29 30  2  0
 30  1  1  0
 29  4  1  0
 13  8  1  0
 25 14  1  0
 24 19  1  0
  1 31  1  0
  2 32  1  0
  3 33  1  0
  6 34  1  0
  6 35  1  0
  9 36  1  0
 10 37  1  0
 12 38  1  0
 16 39  1  0
 17 40  1  0
 20 41  1  0
 20 42  1  0
 21 43  1  0
 21 44  1  0
 23 45  1  0
 23 46  1  0
 24 47  1  0
 24 48  1  0
 26 49  1  0
 27 50  1  0
 28 51  1  0
 30 52  1  0
M  CHG  1   9   1
M  END
>  <UniqueID>  (68) 
61

>  <SMILES>  (68) 
c1ccc2c(COc3[nH+]cncc3-c3nccc(N4CCOCC4)n3)cccc2c1

>  <Energy>  (68) 
81.83484479826689

>  <Genealogy>  (68) 
c1ccc2c(COc3[nH+]cncc3-c3nccc(N4CCOCC4)n3)cccc2c1 (protonated)
c1ccc2c(COc3[nH+]cncc3-c3nccc(N4CCOCC4)n3)cccc2c1 (3D coordinates assigned)
c1ccc2c(COc3[nH+]cncc3-c3nccc(N4CCOCC4)n3)cccc2c1 (nonaromatic ring conformer: 81.83484479826689 kcal/mol)

>  <smiles>  (68) 
c1ccc2c(COc3ncncc3-c3nccc(N4CCOCC4)n3)cccc2c1

>  <score_type>  (68) 
oracle

>  <origin>  (68) 
adg

>  <m_score__min__energy>  (68) 
-7.25

>  <m_primary>  (68) 
energy

$$$$
68:0
     RDKit          3D

 60 63  0  0  0  0  0  0  0  0999 V2000
   59.8800   33.8260   50.5080 C   0  0  0  0  0  0  0  0  0  0  0  0
   61.2160   33.5270   49.9050 C   0  0  0  0  0  0  0  0  0  0  0  0
   62.3020   33.2180   50.6400 N   0  0  0  0  0  0  0  0  0  0  0  0
   63.3080   32.9950   49.8090 N   0  0  0  0  0  0  0  0  0  0  0  0
   64.6120   32.6010   50.2650 C   0  0  0  0  0  0  0  0  0  0  0  0
   65.7200   33.4500   50.1000 C   0  0  0  0  0  0  0  0  0  0  0  0
   66.9890   33.0420   50.5210 C   0  0  0  0  0  0  0  0  0  0  0  0
   67.1650   31.7800   51.0960 C   0  0  0  0  0  0  0  0  0  0  0  0
   66.0720   30.9220   51.2440 C   0  0  0  0  0  0  0  0  0  0  0  0
   64.8010   31.3270   50.8240 C   0  0  0  0  0  0  0  0  0  0  0  0
   62.8920   33.1790   48.5320 C   0  0  0  0  0  0  0  0  0  0  0  0
   63.7650   33.0880   47.3110 C   0  0  0  0  0  0  0  0  0  0  0  0
   61.5410   33.5050   48.5550 C   0  0  0  0  0  0  0  0  0  0  0  0
   60.6380   33.7500   47.4100 C   0  0  0  0  0  0  0  0  0  0  0  0
   61.1000   33.7970   46.2380 O   0  0  0  0  0  0  0  0  0  0  0  0
   59.2650   33.9140   47.6290 O   0  0  0  0  0  0  0  0  0  0  0  0
   58.4000   34.5850   46.7170 C   0  0  0  0  0  0  0  0  0  0  0  0
   57.9820   33.6530   45.6210 C   0  0  0  0  0  0  0  0  0  0  0  0
   57.0360   33.9880   44.8560 O   0  0  0  0  0  0  0  0  0  0  0  0
   58.6480   32.3950   45.4460 N   0  0  0  0  0  0  0  0  0  0  0  0
   58.1110   31.3200   44.6590 C   0  0  0  0  0  0  0  0  0  0  0  0
   57.3070   31.5930   43.5370 C   0  0  0  0  0  0  0  0  0  0  0  0
   56.7210   30.5500   42.8140 C   0  0  0  0  0  0  0  0  0  0  0  0
   56.9210   29.2260   43.2110 C   0  0  0  0  0  0  0  0  0  0  0  0
   57.7080   28.9420   44.3280 C   0  0  0  0  0  0  0  0  0  0  0  0
   58.3080   29.9800   45.0570 C   0  0  0  0  0  0  0  0  0  0  0  0
   59.1420   29.6600   46.1800 N   0  0  0  0  0  0  0  0  0  0  0  0
   60.6000   29.6330   46.0270 C   0  0  0  0  0  0  0  0  0  0  0  0
   61.2620   30.5330   47.0790 C   0  0  0  0  0  0  0  0  0  0  0  0
   60.6520   30.3840   48.4940 C   0  0  0  0  0  0  0  0  0  0  0  0
   59.5910   29.2800   48.5900 C   0  0  0  0  0  0  0  0  0  0  0  0
   58.5270   29.4550   47.4990 C   0  0  0  0  0  0  0  0  0  0  0  0
   59.9605   33.8080   51.6049 H   0  0  0  0  0  0  0  0  0  0  0  0
   59.5447   34.8214   50.1812 H   0  0  0  0  0  0  0  0  0  0  0  0
   59.1524   33.0685   50.1812 H   0  0  0  0  0  0  0  0  0  0  0  0
   65.5880   34.4394   49.6378 H   0  0  0  0  0  0  0  0  0  0  0  0
   67.8505   33.7151   50.3996 H   0  0  0  0  0  0  0  0  0  0  0  0
   68.1633   31.4626   51.4317 H   0  0  0  0  0  0  0  0  0  0  0  0
   66.2115   29.9268   51.6914 H   0  0  0  0  0  0  0  0  0  0  0  0
   63.9454   30.6442   50.9321 H   0  0  0  0  0  0  0  0  0  0  0  0
   64.8154   32.9785   47.6186 H   0  0  0  0  0  0  0  0  0  0  0  0
   63.4660   32.2162   46.7106 H   0  0  0  0  0  0  0  0  0  0  0  0
   63.6522   34.0028   46.7106 H   0  0  0  0  0  0  0  0  0  0  0  0
   57.5074   34.9373   47.2548 H   0  0  0  0  0  0  0  0  0  0  0  0
   58.9347   35.4399   46.2774 H   0  0  0  0  0  0  0  0  0  0  0  0
   59.5900   32.2690   45.8820 H   0  0  0  0  0  0  0  0  0  0  0  0
   57.1384   32.6347   43.2266 H   0  0  0  0  0  0  0  0  0  0  0  0
   56.1022   30.7721   41.9321 H   0  0  0  0  0  0  0  0  0  0  0  0
   56.4577   28.4061   42.6426 H   0  0  0  0  0  0  0  0  0  0  0  0
   57.8589   27.8977   44.6389 H   0  0  0  0  0  0  0  0  0  0  0  0
   60.9593   28.6011   46.1542 H   0  0  0  0  0  0  0  0  0  0  0  0
   60.8617   30.0019   45.0243 H   0  0  0  0  0  0  0  0  0  0  0  0
   62.3306   30.2777   47.1323 H   0  0  0  0  0  0  0  0  0  0  0  0
   61.0958   31.5737   46.7639 H   0  0  0  0  0  0  0  0  0  0  0  0
   61.4627   30.1501   49.1997 H   0  0  0  0  0  0  0  0  0  0  0  0
   60.1524   31.3345   48.7326 H   0  0  0  0  0  0  0  0  0  0  0  0
   60.0766   28.3007   48.4671 H   0  0  0  0  0  0  0  0  0  0  0  0
   59.1028   29.3429   49.5737 H   0  0  0  0  0  0  0  0  0  0  0  0
   57.8977   28.5534   47.4645 H   0  0  0  0  0  0  0  0  0  0  0  0
   57.9238   30.3422   47.7420 H   0  0  0  0  0  0  0  0  0  0  0  0
  1  2  1  0
  2  3  2  0
  3  4  1  0
  4  5  1  0
  5  6  2  0
  6  7  1  0
  7  8  2  0
  8  9  1  0
  9 10  2  0
  4 11  1  0
 11 12  1  0
 11 13  2  0
 13 14  1  0
 14 15  2  0
 14 16  1  0
 16 17  1  0
 17 18  1  0
 18 19  2  0
 18 20  1  0
 20 21  1  0
 21 22  2  0
 22 23  1  0
 23 24  2  0
 24 25  1  0
 25 26  2  0
 26 27  1  0
 27 28  1  0
 28 29  1  0
 29 30  1  0
 30 31  1  0
 31 32  1  0
 13  2  1  0
 26 21  1  0
 32 27  1  0
 10  5  1  0
  1 33  1  0
  1 34  1  0
  1 35  1  0
  6 36  1  0
  7 37  1  0
  8 38  1  0
  9 39  1  0
 10 40  1  0
 12 41  1  0
 12 42  1  0
 12 43  1  0
 17 44  1  0
 17 45  1  0
 20 46  1  0
 22 47  1  0
 23 48  1  0
 24 49  1  0
 25 50  1  0
 28 51  1  0
 28 52  1  0
 29 53  1  0
 29 54  1  0
 30 55  1  0
 30 56  1  0
 31 57  1  0
 31 58  1  0
 32 59  1  0
 32 60  1  0
M  END
>  <UniqueID>  (69) 
62

>  <SMILES>  (69) 
Cc1nn(-c2ccccc2)c(C)c1C(=O)OCC(=O)Nc1ccccc1N1CCCCC1

>  <Energy>  (69) 
104.82508814633712

>  <Genealogy>  (69) 
Cc1nn(-c2ccccc2)c(C)c1C(=O)OCC(=O)Nc1ccccc1N1CCCCC1 (3D coordinates assigned)
Cc1nn(-c2ccccc2)c(C)c1C(=O)OCC(=O)Nc1ccccc1N1CCCCC1 (nonaromatic ring conformer: 104.82508814633712 kcal/mol)

>  <smiles>  (69) 
Cc1nn(-c2ccccc2)c(C)c1C(=O)OCC(=O)Nc1ccccc1N1CCCCC1

>  <score_type>  (69) 
oracle

>  <origin>  (69) 
adg

>  <m_score__min__energy>  (69) 
-8.2599999999999998

>  <m_primary>  (69) 
energy

$$$$
69:0
     RDKit          3D

 51 54  0  0  0  0  0  0  0  0999 V2000
   58.1230   29.3380   53.2180 C   0  0  0  0  0  0  0  0  0  0  0  0
   57.5580   29.4630   51.9180 O   0  0  0  0  0  0  0  0  0  0  0  0
   58.0850   30.2680   50.8950 C   0  0  0  0  0  0  0  0  0  0  0  0
   58.6170   29.7200   49.7130 C   0  0  0  0  0  0  0  0  0  0  0  0
   59.1370   30.5520   48.7190 C   0  0  0  0  0  0  0  0  0  0  0  0
   59.1270   31.9420   48.8840 C   0  0  0  0  0  0  0  0  0  0  0  0
   59.7420   32.8320   47.8380 C   0  0  0  0  0  0  0  0  0  0  0  0
   58.9740   32.7210   46.5500 C   0  0  0  0  0  0  0  0  0  0  0  0
   58.1730   33.7830   46.1030 C   0  0  0  0  0  0  0  0  0  0  0  0
   57.4270   33.6540   44.9300 C   0  0  0  0  0  0  0  0  0  0  0  0
   57.4530   32.4590   44.2080 C   0  0  0  0  0  0  0  0  0  0  0  0
   58.2240   31.3750   44.6580 C   0  0  0  0  0  0  0  0  0  0  0  0
   58.2200   30.0710   43.9000 C   0  0  0  0  0  0  0  0  0  0  0  0
   58.9150   28.9780   44.6880 C   0  0  0  0  0  0  0  0  0  0  0  0
   60.3200   28.9790   44.7360 C   0  0  0  0  0  0  0  0  0  0  0  0
   60.9950   28.0010   45.3910 N   0  0  0  0  0  0  0  0  0  0  0  0
   60.3540   26.9850   46.0210 C   0  0  0  0  0  0  0  0  0  0  0  0
   58.9570   26.9180   46.0090 C   0  0  0  0  0  0  0  0  0  0  0  0
   58.2950   25.8610   46.6510 C   0  0  0  0  0  0  0  0  0  0  0  0
   56.9010   25.7930   46.6380 C   0  0  0  0  0  0  0  0  0  0  0  0
   56.2550   24.7400   47.2750 O   0  0  0  0  0  0  0  0  0  0  0  0
   56.1590   26.7810   45.9870 C   0  0  0  0  0  0  0  0  0  0  0  0
   54.7710   26.7160   45.9800 O   0  0  0  0  0  0  0  0  0  0  0  0
   56.8070   27.8410   45.3430 C   0  0  0  0  0  0  0  0  0  0  0  0
   58.2160   27.9250   45.3380 C   0  0  0  0  0  0  0  0  0  0  0  0
   59.0010   31.5220   45.8180 C   0  0  0  0  0  0  0  0  0  0  0  0
   58.6060   32.4930   50.0650 C   0  0  0  0  0  0  0  0  0  0  0  0
   58.0780   31.6600   51.0720 C   0  0  0  0  0  0  0  0  0  0  0  0
   57.5460   32.1780   52.2630 O   0  0  0  0  0  0  0  0  0  0  0  0
   57.7750   33.5000   52.7410 C   0  0  0  0  0  0  0  0  0  0  0  0
   57.3435   29.5105   53.9747 H   0  0  0  0  0  0  0  0  0  0  0  0
   58.5371   28.3265   53.3421 H   0  0  0  0  0  0  0  0  0  0  0  0
   58.9252   30.0804   53.3421 H   0  0  0  0  0  0  0  0  0  0  0  0
   58.6233   28.6292   49.5710 H   0  0  0  0  0  0  0  0  0  0  0  0
   59.5565   30.1128   47.8019 H   0  0  0  0  0  0  0  0  0  0  0  0
   59.7179   33.8747   48.1874 H   0  0  0  0  0  0  0  0  0  0  0  0
   60.7825   32.5195   47.6653 H   0  0  0  0  0  0  0  0  0  0  0  0
   58.1328   34.7196   46.6784 H   0  0  0  0  0  0  0  0  0  0  0  0
   56.8166   34.4967   44.5733 H   0  0  0  0  0  0  0  0  0  0  0  0
   56.8665   32.3663   43.2820 H   0  0  0  0  0  0  0  0  0  0  0  0
   57.1794   29.7698   43.7093 H   0  0  0  0  0  0  0  0  0  0  0  0
   58.7609   30.2162   42.9532 H   0  0  0  0  0  0  0  0  0  0  0  0
   60.8796   29.7833   44.2359 H   0  0  0  0  0  0  0  0  0  0  0  0
   60.9352   26.2108   46.5434 H   0  0  0  0  0  0  0  0  0  0  0  0
   58.8767   25.0827   47.1667 H   0  0  0  0  0  0  0  0  0  0  0  0
   56.2130   28.6157   44.8361 H   0  0  0  0  0  0  0  0  0  0  0  0
   59.6368   30.6908   46.1569 H   0  0  0  0  0  0  0  0  0  0  0  0
   58.6098   33.5839   50.2059 H   0  0  0  0  0  0  0  0  0  0  0  0
   57.7745   33.4974   53.8410 H   0  0  0  0  0  0  0  0  0  0  0  0
   58.7486   33.8585   52.3756 H   0  0  0  0  0  0  0  0  0  0  0  0
   56.9787   34.1651   52.3756 H   0  0  0  0  0  0  0  0  0  0  0  0
  1  2  1  0
  2  3  1  0
  3  4  2  0
  4  5  1  0
  5  6  2  0
  6  7  1  0
  7  8  1  0
  8  9  2  0
  9 10  1  0
 10 11  2  0
 11 12  1  0
 12 13  1  0
 13 14  1  0
 14 15  2  0
 15 16  1  0
 16 17  2  0
 17 18  1  0
 18 19  2  0
 19 20  1  0
 20 21  1  0
 20 22  2  0
 22 23  1  0
 22 24  1  0
 24 25  2  0
 12 26  2  0
  6 27  1  0
 27 28  2  0
 28 29  1  0
 29 30  1  0
 28  3  1  0
 26  8  1  0
 25 14  1  0
 25 18  1  0
  1 31  1  0
  1 32  1  0
  1 33  1  0
  4 34  1  0
  5 35  1  0
  7 36  1  0
  7 37  1  0
  9 38  1  0
 10 39  1  0
 11 40  1  0
 13 41  1  0
 13 42  1  0
 15 43  1  0
 17 44  1  0
 19 45  1  0
 24 46  1  0
 26 47  1  0
 27 48  1  0
 30 49  1  0
 30 50  1  0
 30 51  1  0
M  CHG  2  21  -1  23  -1
M  END
>  <UniqueID>  (70) 
63

>  <SMILES>  (70) 
COc1ccc(Cc2cccc(Cc3cncc4cc([O-])c([O-])cc34)c2)cc1OC

>  <Energy>  (70) 
56.781370910060346

>  <Genealogy>  (70) 
COc1ccc(Cc2cccc(Cc3cncc4cc([O-])c([O-])cc34)c2)cc1OC (protonated)
COc1ccc(Cc2cccc(Cc3cncc4cc([O-])c([O-])cc34)c2)cc1OC (3D coordinates assigned)
COc1ccc(Cc2cccc(Cc3cncc4cc([O-])c([O-])cc34)c2)cc1OC (optimized conformer: 56.781370910060346 kcal/mol)

>  <smiles>  (70) 
COc1ccc(Cc2cccc(Cc3cncc4cc(O)c(O)cc34)c2)cc1OC

>  <score_type>  (70) 
oracle

>  <origin>  (70) 
adg

>  <m_score__min__energy>  (70) 
-14.609999999999999

>  <m_primary>  (70) 
energy

$$$$
70:0
     RDKit          3D

 35 36  0  0  0  0  0  0  0  0999 V2000
   57.7720   28.1890   44.0810 C   0  0  0  0  0  0  0  0  0  0  0  0
   56.8990   28.4740   45.2990 C   0  0  0  0  0  0  0  0  0  0  0  0
   55.7470   29.3060   44.9260 N   0  0  0  0  0  0  0  0  0  0  0  0
   55.9210   29.8950   43.5920 C   0  0  0  0  0  0  0  0  0  0  0  0
   56.7470   31.1800   43.6950 C   0  0  0  0  0  0  0  0  0  0  0  0
   56.9180   31.5620   45.0600 O   0  0  0  0  0  0  0  0  0  0  0  0
   58.1280   31.9620   45.6510 C   0  0  0  0  0  0  0  0  0  0  0  0
   58.5110   33.3110   45.7720 C   0  0  0  0  0  0  0  0  0  0  0  0
   59.7280   33.6500   46.3700 C   0  0  0  0  0  0  0  0  0  0  0  0
   60.5880   32.6500   46.8600 C   0  0  0  0  0  0  0  0  0  0  0  0
   61.8450   32.9990   47.4770 N   0  0  0  0  0  0  0  0  0  0  0  0
   62.0380   33.8170   48.5340 C   0  0  0  0  0  0  0  0  0  0  0  0
   63.3890   33.8760   48.7990 C   0  0  0  0  0  0  0  0  0  0  0  0
   64.0340   33.1000   47.9100 N   0  0  0  0  0  0  0  0  0  0  0  0
   63.0780   32.5780   47.1180 C   0  0  0  0  0  0  0  0  0  0  0  0
   60.1980   31.3040   46.7390 C   0  0  0  0  0  0  0  0  0  0  0  0
   58.9810   30.9680   46.1420 C   0  0  0  0  0  0  0  0  0  0  0  0
   58.7690   27.8635   44.4126 H   0  0  0  0  0  0  0  0  0  0  0  0
   57.3095   27.3952   43.4760 H   0  0  0  0  0  0  0  0  0  0  0  0
   57.8670   29.1028   43.4760 H   0  0  0  0  0  0  0  0  0  0  0  0
   56.5378   27.5222   45.7156 H   0  0  0  0  0  0  0  0  0  0  0  0
   57.4988   29.0134   46.0469 H   0  0  0  0  0  0  0  0  0  0  0  0
   55.6880   30.0940   45.6130 H   0  0  0  0  0  0  0  0  0  0  0  0
   56.4421   29.1773   42.9413 H   0  0  0  0  0  0  0  0  0  0  0  0
   54.9338   30.1313   43.1682 H   0  0  0  0  0  0  0  0  0  0  0  0
   57.7346   31.0118   43.2407 H   0  0  0  0  0  0  0  0  0  0  0  0
   56.2158   31.9852   43.1663 H   0  0  0  0  0  0  0  0  0  0  0  0
   57.8485   34.1034   45.3936 H   0  0  0  0  0  0  0  0  0  0  0  0
   60.0160   34.7080   46.4583 H   0  0  0  0  0  0  0  0  0  0  0  0
   61.2500   34.3466   49.0895 H   0  0  0  0  0  0  0  0  0  0  0  0
   63.8608   34.4600   49.6030 H   0  0  0  0  0  0  0  0  0  0  0  0
   65.0630   32.9390   47.8440 H   0  0  0  0  0  0  0  0  0  0  0  0
   63.2765   31.8925   46.2809 H   0  0  0  0  0  0  0  0  0  0  0  0
   60.8573   30.5091   47.1179 H   0  0  0  0  0  0  0  0  0  0  0  0
   58.6901   29.9106   46.0570 H   0  0  0  0  0  0  0  0  0  0  0  0
  1  2  1  0
  2  3  1  0
  3  4  1  0
  4  5  1  0
  5  6  1  0
  6  7  1  0
  7  8  2  0
  8  9  1  0
  9 10  2  0
 10 11  1  0
 11 12  1  0
 12 13  2  0
 13 14  1  0
 14 15  2  0
 10 16  1  0
 16 17  2  0
 17  7  1  0
 15 11  1  0
  1 18  1  0
  1 19  1  0
  1 20  1  0
  2 21  1  0
  2 22  1  0
  3 23  1  0
  4 24  1  0
  4 25  1  0
  5 26  1  0
  5 27  1  0
  8 28  1  0
  9 29  1  0
 12 30  1  0
 13 31  1  0
 14 32  1  0
 15 33  1  0
 16 34  1  0
 17 35  1  0
M  CHG  1  14   1
M  END
>  <UniqueID>  (71) 
64

>  <SMILES>  (71) 
CCNCCOc1ccc(-n2cc[nH+]c2)cc1

>  <Energy>  (71) 
63.753388824233284

>  <Genealogy>  (71) 
CCNCCOc1ccc(-n2cc[nH+]c2)cc1 (protonated)
CCNCCOc1ccc(-n2cc[nH+]c2)cc1 (3D coordinates assigned)
CCNCCOc1ccc(-n2cc[nH+]c2)cc1 (optimized conformer: 63.753388824233284 kcal/mol)

>  <smiles>  (71) 
CCNCCOc1ccc(-n2ccnc2)cc1

>  <score_type>  (71) 
oracle

>  <origin>  (71) 
adg

>  <m_score__min__energy>  (71) 
-5.0499999999999998

>  <m_primary>  (71) 
energy

$$$$
71:0
     RDKit          3D

 76 80  0  0  0  0  0  0  0  0999 V2000
   69.3660   33.8120   52.1540 C   0  0  0  0  0  0  0  0  0  0  0  0
   67.9890   33.6370   51.5980 C   0  0  0  0  0  0  0  0  0  0  0  0
   67.7580   32.7760   50.5170 C   0  0  0  0  0  0  0  0  0  0  0  0
   66.5010   32.6650   50.0130 N   0  0  0  0  0  0  0  0  0  0  0  0
   65.4570   33.3680   50.5280 C   0  0  0  0  0  0  0  0  0  0  0  0
   64.1080   33.2140   49.9480 C   0  0  0  0  0  0  0  0  0  0  0  0
   63.3390   34.2150   49.8920 O   0  0  0  0  0  0  0  0  0  0  0  0
   63.6870   31.9440   49.4130 N   0  0  0  0  0  0  0  0  0  0  0  0
   62.3240   31.6460   49.0880 C   0  0  0  0  0  0  0  0  0  0  0  0
   61.2200   32.1860   49.7150 C   0  0  0  0  0  0  0  0  0  0  0  0
   60.1240   31.6810   49.0320 C   0  0  0  0  0  0  0  0  0  0  0  0
   58.7180   31.9730   49.3630 C   0  0  0  0  0  0  0  0  0  0  0  0
   58.2270   31.5180   50.4280 O   0  0  0  0  0  0  0  0  0  0  0  0
   57.8730   32.6980   48.4610 N   0  0  0  0  0  0  0  0  0  0  0  0
   58.2690   33.2140   47.1840 C   0  0  0  0  0  0  0  0  0  0  0  0
   58.9820   34.4180   47.0570 C   0  0  0  0  0  0  0  0  0  0  0  0
   59.2710   34.9120   45.7830 C   0  0  0  0  0  0  0  0  0  0  0  0
   58.8430   34.2160   44.6510 C   0  0  0  0  0  0  0  0  0  0  0  0
   58.1300   33.0190   44.8090 C   0  0  0  0  0  0  0  0  0  0  0  0
   57.6450   32.2530   43.6520 C   0  0  0  0  0  0  0  0  0  0  0  0
   58.0770   32.5010   42.4960 O   0  0  0  0  0  0  0  0  0  0  0  0
   56.6960   31.2000   43.8630 N   0  0  0  0  0  0  0  0  0  0  0  0
   56.9900   29.8660   44.2890 C   0  0  0  0  0  0  0  0  0  0  0  0
   56.1170   28.9580   44.8570 C   0  0  0  0  0  0  0  0  0  0  0  0
   56.8960   27.8780   45.2400 C   0  0  0  0  0  0  0  0  0  0  0  0
   56.3910   26.7130   45.9880 C   0  0  0  0  0  0  0  0  0  0  0  0
   55.1530   26.5190   46.1020 O   0  0  0  0  0  0  0  0  0  0  0  0
   57.3200   25.8020   46.5800 N   0  0  0  0  0  0  0  0  0  0  0  0
   56.9550   24.5180   47.1690 C   0  0  0  0  0  0  0  0  0  0  0  0
   56.6410   23.4830   46.0790 C   0  0  0  0  0  0  0  0  0  0  0  0
   57.6130   23.6060   44.9640 N   0  0  0  0  0  0  0  0  0  0  0  0
   57.0110   24.1950   43.7530 C   0  0  0  0  0  0  0  0  0  0  0  0
   56.1270   23.1840   42.9890 C   0  0  0  0  0  0  0  0  0  0  0  0
   56.1850   21.8860   43.5500 O   0  0  0  0  0  0  0  0  0  0  0  0
   57.5290   21.4710   43.6490 C   0  0  0  0  0  0  0  0  0  0  0  0
   58.3150   22.3460   44.6450 C   0  0  0  0  0  0  0  0  0  0  0  0
   58.1960   28.1070   44.9250 N   0  0  0  0  0  0  0  0  0  0  0  0
   59.3510   27.3070   45.3130 C   0  0  0  0  0  0  0  0  0  0  0  0
   58.2560   29.3270   44.3580 C   0  0  0  0  0  0  0  0  0  0  0  0
   57.8620   32.5600   46.0620 N   0  0  0  0  0  0  0  0  0  0  0  0
   60.5260   30.8910   48.0120 N   0  0  0  0  0  0  0  0  0  0  0  0
   59.6720   30.1050   47.1200 C   0  0  0  0  0  0  0  0  0  0  0  0
   61.8730   30.8500   48.0470 C   0  0  0  0  0  0  0  0  0  0  0  0
   65.6920   34.2250   51.6130 C   0  0  0  0  0  0  0  0  0  0  0  0
   66.9510   34.3490   52.1100 N   0  0  0  0  0  0  0  0  0  0  0  0
   69.3211   33.8063   53.2531 H   0  0  0  0  0  0  0  0  0  0  0  0
   70.0082   32.9882   51.8090 H   0  0  0  0  0  0  0  0  0  0  0  0
   69.7817   34.7702   51.8090 H   0  0  0  0  0  0  0  0  0  0  0  0
   68.5851   32.1963   50.0812 H   0  0  0  0  0  0  0  0  0  0  0  0
   64.4110   31.2160   49.1970 H   0  0  0  0  0  0  0  0  0  0  0  0
   61.2111   32.8720   50.5748 H   0  0  0  0  0  0  0  0  0  0  0  0
   59.3095   34.9664   47.9526 H   0  0  0  0  0  0  0  0  0  0  0  0
   59.8358   35.8493   45.6715 H   0  0  0  0  0  0  0  0  0  0  0  0
   59.0629   34.6028   43.6450 H   0  0  0  0  0  0  0  0  0  0  0  0
   55.0295   29.0694   44.9796 H   0  0  0  0  0  0  0  0  0  0  0  0
   57.7919   24.1524   47.7821 H   0  0  0  0  0  0  0  0  0  0  0  0
   56.0569   24.6587   47.7883 H   0  0  0  0  0  0  0  0  0  0  0  0
   56.7052   22.4721   46.5078 H   0  0  0  0  0  0  0  0  0  0  0  0
   55.6264   23.6623   45.6937 H   0  0  0  0  0  0  0  0  0  0  0  0
   56.3917   25.0550   44.0478 H   0  0  0  0  0  0  0  0  0  0  0  0
   57.8290   24.5009   43.0842 H   0  0  0  0  0  0  0  0  0  0  0  0
   55.0847   23.5346   43.0164 H   0  0  0  0  0  0  0  0  0  0  0  0
   56.5037   23.1211   41.9574 H   0  0  0  0  0  0  0  0  0  0  0  0
   57.5567   20.4259   43.9912 H   0  0  0  0  0  0  0  0  0  0  0  0
   57.9959   21.5693   42.6579 H   0  0  0  0  0  0  0  0  0  0  0  0
   58.4611   21.7778   45.5755 H   0  0  0  0  0  0  0  0  0  0  0  0
   59.2756   22.6067   44.1767 H   0  0  0  0  0  0  0  0  0  0  0  0
   59.4146   27.2629   46.4103 H   0  0  0  0  0  0  0  0  0  0  0  0
   59.2436   26.2888   44.9108 H   0  0  0  0  0  0  0  0  0  0  0  0
   60.2664   27.7655   44.9108 H   0  0  0  0  0  0  0  0  0  0  0  0
   59.1747   29.8178   44.0043 H   0  0  0  0  0  0  0  0  0  0  0  0
   58.9931   29.4801   47.7189 H   0  0  0  0  0  0  0  0  0  0  0  0
   59.0824   30.7830   46.4854 H   0  0  0  0  0  0  0  0  0  0  0  0
   60.2988   29.4613   46.4854 H   0  0  0  0  0  0  0  0  0  0  0  0
   62.5119   30.2765   47.3593 H   0  0  0  0  0  0  0  0  0  0  0  0
   64.8625   34.7933   52.0590 H   0  0  0  0  0  0  0  0  0  0  0  0
  1  2  1  0
  2  3  2  0
  3  4  1  0
  4  5  2  0
  5  6  1  0
  6  7  2  0
  6  8  1  0
  8  9  1  0
  9 10  1  0
 10 11  2  0
 11 12  1  0
 12 13  2  0
 12 14  1  0
 14 15  1  0
 15 16  2  0
 16 17  1  0
 17 18  2  0
 18 19  1  0
 19 20  1  0
 20 21  2  0
 20 22  1  0
 22 23  1  0
 23 24  1  0
 24 25  2  0
 25 26  1  0
 26 27  2  0
 26 28  1  0
 28 29  1  0
 29 30  1  0
 30 31  1  0
 31 32  1  0
 32 33  1  0
 33 34  1  0
 34 35  1  0
 35 36  1  0
 25 37  1  0
 37 38  1  0
 37 39  1  0
 19 40  2  0
 11 41  1  0
 41 42  1  0
 41 43  1  0
  5 44  1  0
 44 45  2  0
 45  2  1  0
 43  9  2  0
 40 15  1  0
 39 23  2  0
 36 31  1  0
  1 46  1  0
  1 47  1  0
  1 48  1  0
  3 49  1  0
  8 50  1  0
 10 51  1  0
 16 52  1  0
 17 53  1  0
 18 54  1  0
 24 55  1  0
 29 56  1  0
 29 57  1  0
 30 58  1  0
 30 59  1  0
 32 60  1  0
 32 61  1  0
 33 62  1  0
 33 63  1  0
 35 64  1  0
 35 65  1  0
 36 66  1  0
 36 67  1  0
 38 68  1  0
 38 69  1  0
 38 70  1  0
 39 71  1  0
 42 72  1  0
 42 73  1  0
 42 74  1  0
 43 75  1  0
 44 76  1  0
M  CHG  3  14  -1  22  -1  28  -1
M  END
>  <UniqueID>  (72) 
65

>  <SMILES>  (72) 
Cc1cnc(C(=O)Nc2cc(C(=O)[N-]c3cccc(C(=O)[N-]c4cc(C(=O)[N-]CCN5CCOCC5)n(C)c4)n3)n(C)c2)cn1

>  <Energy>  (72) 
161.09431279576464

>  <Genealogy>  (72) 
Cc1cnc(C(=O)Nc2cc(C(=O)[N-]c3cccc(C(=O)[N-]c4cc(C(=O)[N-]CCN5CCOCC5)n(C)c4)n3)n(C)c2)cn1 (protonated)
Cc1cnc(C(=O)Nc2cc(C(=O)[N-]c3cccc(C(=O)[N-]c4cc(C(=O)[N-]CCN5CCOCC5)n(C)c4)n3)n(C)c2)cn1 (3D coordinates assigned)
Cc1cnc(C(=O)Nc2cc(C(=O)[N-]c3cccc(C(=O)[N-]c4cc(C(=O)[N-]CCN5CCOCC5)n(C)c4)n3)n(C)c2)cn1 (nonaromatic ring conformer: 161.09431279576464 kcal/mol)

>  <smiles>  (72) 
Cc1cnc(C(=O)Nc2cc(C(=O)Nc3cccc(C(=O)Nc4cc(C(=O)NCCN5CCOCC5)n(C)c4)n3)n(C)c2)cn1

>  <score_type>  (72) 
oracle

>  <origin>  (72) 
adg

>  <m_score__min__energy>  (72) 
-15.460000000000001

>  <m_primary>  (72) 
energy

$$$$
72:0
     RDKit          3D

 41 44  0  0  0  0  0  0  0  0999 V2000
   56.2000   31.5550   44.7770 O   0  0  0  0  0  0  0  0  0  0  0  0
   57.6600   31.4030   44.4590 S   0  0  0  0  0  0  0  0  0  0  0  0
   57.8650   31.7160   43.0020 O   0  0  0  0  0  0  0  0  0  0  0  0
   58.5540   32.5990   45.4020 C   0  0  0  0  0  0  0  0  0  0  0  0
   59.0050   33.7760   44.7800 C   0  0  0  0  0  0  0  0  0  0  0  0
   59.6510   34.7670   45.5220 C   0  0  0  0  0  0  0  0  0  0  0  0
   59.8460   34.5980   46.8920 C   0  0  0  0  0  0  0  0  0  0  0  0
   59.3980   33.4370   47.5230 C   0  0  0  0  0  0  0  0  0  0  0  0
   58.7370   32.4360   46.7880 C   0  0  0  0  0  0  0  0  0  0  0  0
   58.3490   31.1500   47.4600 C   0  0  0  0  0  0  0  0  0  0  0  0
   59.2920   30.0320   47.0040 C   0  0  0  0  0  0  0  0  0  0  0  0
   58.7620   29.1840   45.8640 C   0  0  0  0  0  0  0  0  0  0  0  0
   59.0310   27.8000   45.9270 C   0  0  0  0  0  0  0  0  0  0  0  0
   58.6320   26.9270   44.9100 C   0  0  0  0  0  0  0  0  0  0  0  0
   58.9310   25.5240   45.0240 N   0  0  0  0  0  0  0  0  0  0  0  0
   57.9850   24.4800   44.7570 C   0  0  0  0  0  0  0  0  0  0  0  0
   56.6770   24.8170   44.3900 C   0  0  0  0  0  0  0  0  0  0  0  0
   55.7450   23.8140   44.1250 C   0  0  0  0  0  0  0  0  0  0  0  0
   56.1340   22.4770   44.2140 C   0  0  0  0  0  0  0  0  0  0  0  0
   57.4150   22.1580   44.5450 N   0  0  0  0  0  0  0  0  0  0  0  0
   58.3470   23.1180   44.8100 C   0  0  0  0  0  0  0  0  0  0  0  0
   60.0040   22.6250   45.1440 Cl  0  0  0  0  0  0  0  0  0  0  0  0
   57.9850   27.4470   43.7830 C   0  0  0  0  0  0  0  0  0  0  0  0
   57.7250   28.8120   43.6890 C   0  0  0  0  0  0  0  0  0  0  0  0
   58.1140   29.7020   44.7040 C   0  0  0  0  0  0  0  0  0  0  0  0
   58.8479   33.9176   43.7005 H   0  0  0  0  0  0  0  0  0  0  0  0
   60.0063   35.6818   45.0251 H   0  0  0  0  0  0  0  0  0  0  0  0
   60.3533   35.3803   47.4757 H   0  0  0  0  0  0  0  0  0  0  0  0
   59.5627   33.3035   48.6024 H   0  0  0  0  0  0  0  0  0  0  0  0
   58.4223   31.2695   48.5510 H   0  0  0  0  0  0  0  0  0  0  0  0
   57.3148   30.8915   47.1886 H   0  0  0  0  0  0  0  0  0  0  0  0
   60.2370   30.4917   46.6790 H   0  0  0  0  0  0  0  0  0  0  0  0
   59.4135   29.3569   47.8640 H   0  0  0  0  0  0  0  0  0  0  0  0
   59.5683   27.3976   46.7984 H   0  0  0  0  0  0  0  0  0  0  0  0
   59.9220   25.2420   45.2030 H   0  0  0  0  0  0  0  0  0  0  0  0
   56.3838   25.8742   44.3105 H   0  0  0  0  0  0  0  0  0  0  0  0
   54.7127   24.0745   43.8484 H   0  0  0  0  0  0  0  0  0  0  0  0
   55.4035   21.6788   44.0161 H   0  0  0  0  0  0  0  0  0  0  0  0
   57.6890   21.1510   44.5860 H   0  0  0  0  0  0  0  0  0  0  0  0
   57.6804   26.7743   42.9677 H   0  0  0  0  0  0  0  0  0  0  0  0
   57.2043   29.2013   42.8017 H   0  0  0  0  0  0  0  0  0  0  0  0
  1  2  2  0
  2  3  2  0
  2  4  1  0
  4  5  2  0
  5  6  1  0
  6  7  2  0
  7  8  1  0
  8  9  2  0
  9 10  1  0
 10 11  1  0
 11 12  1  0
 12 13  2  0
 13 14  1  0
 14 15  1  0
 15 16  1  0
 16 17  2  0
 17 18  1  0
 18 19  2  0
 19 20  1  0
 20 21  2  0
 21 22  1  0
 14 23  2  0
 23 24  1  0
 24 25  2  0
 25  2  1  0
  9  4  1  0
 25 12  1  0
 21 16  1  0
  5 26  1  0
  6 27  1  0
  7 28  1  0
  8 29  1  0
 10 30  1  0
 10 31  1  0
 11 32  1  0
 11 33  1  0
 13 34  1  0
 15 35  1  0
 17 36  1  0
 18 37  1  0
 19 38  1  0
 20 39  1  0
 23 40  1  0
 24 41  1  0
M  CHG  1  20   1
M  END
>  <UniqueID>  (73) 
66

>  <SMILES>  (73) 
O=S1(=O)c2ccccc2CCc2cc(Nc3ccc[nH+]c3Cl)ccc21

>  <Energy>  (73) 
67.23903847356421

>  <Genealogy>  (73) 
O=S1(=O)c2ccccc2CCc2cc(Nc3ccc[nH+]c3Cl)ccc21 (protonated)
O=S1(=O)c2ccccc2CCc2cc(Nc3ccc[nH+]c3Cl)ccc21 (3D coordinates assigned)
O=S1(=O)c2ccccc2CCc2cc(Nc3ccc[nH+]c3Cl)ccc21 (nonaromatic ring conformer: 67.23903847356421 kcal/mol)

>  <smiles>  (73) 
O=S1(=O)c2ccccc2CCc2cc(Nc3cccnc3Cl)ccc21

>  <score_type>  (73) 
oracle

>  <origin>  (73) 
adg

>  <m_score__min__energy>  (73) 
-6.2400000000000002

>  <m_primary>  (73) 
energy

$$$$
73:0
     RDKit          3D

 46 47  0  0  0  0  0  0  0  0999 V2000
   61.9340   31.2160   48.7640 N   0  0  0  0  0  0  0  0  0  0  0  0
   61.9970   31.9920   50.0040 C   0  0  0  0  0  0  0  0  0  0  0  0
   63.0490   33.1180   49.9410 C   0  0  0  0  0  0  0  0  0  0  0  0
   64.1950   32.8350   48.9590 C   0  0  0  0  0  0  0  0  0  0  0  0
   63.6740   32.6190   47.6030 N   0  0  0  0  0  0  0  0  0  0  0  0
   63.3440   33.8860   46.9270 C   0  0  0  0  0  0  0  0  0  0  0  0
   61.9160   33.8300   46.3730 C   0  0  0  0  0  0  0  0  0  0  0  0
   60.8790   34.2560   47.4140 C   0  0  0  0  0  0  0  0  0  0  0  0
   59.6360   34.5850   46.7550 N   0  0  0  0  0  0  0  0  0  0  0  0
   58.6010   33.8080   46.6890 C   0  0  0  0  0  0  0  0  0  0  0  0
   58.4080   32.5940   47.5670 C   0  0  0  0  0  0  0  0  0  0  0  0
   58.8510   31.3460   46.8590 C   0  0  0  0  0  0  0  0  0  0  0  0
   59.9690   30.8430   47.1540 O   0  0  0  0  0  0  0  0  0  0  0  0
   58.0800   30.7710   45.7330 C   0  0  0  0  0  0  0  0  0  0  0  0
   57.7650   29.4030   45.8030 C   0  0  0  0  0  0  0  0  0  0  0  0
   57.0310   28.7860   44.7900 C   0  0  0  0  0  0  0  0  0  0  0  0
   56.5950   29.5280   43.6960 C   0  0  0  0  0  0  0  0  0  0  0  0
   56.8840   30.8910   43.6130 C   0  0  0  0  0  0  0  0  0  0  0  0
   57.6230   31.5410   44.6220 C   0  0  0  0  0  0  0  0  0  0  0  0
   57.8570   33.0150   44.4780 C   0  0  0  0  0  0  0  0  0  0  0  0
   58.2630   33.4630   43.3710 O   0  0  0  0  0  0  0  0  0  0  0  0
   57.6190   34.0110   45.5780 C   0  0  0  0  0  0  0  0  0  0  0  0
   61.2550   30.4290   48.8540 H   0  0  0  0  0  0  0  0  0  0  0  0
   62.8780   30.8090   48.5720 H   0  0  0  0  0  0  0  0  0  0  0  0
   61.6670   31.8290   47.9590 H   0  0  0  0  0  0  0  0  0  0  0  0
   61.0101   32.4408   50.1902 H   0  0  0  0  0  0  0  0  0  0  0  0
   62.2879   31.3066   50.8137 H   0  0  0  0  0  0  0  0  0  0  0  0
   62.5467   34.0462   49.6309 H   0  0  0  0  0  0  0  0  0  0  0  0
   63.4956   33.1984   50.9431 H   0  0  0  0  0  0  0  0  0  0  0  0
   64.8827   33.6935   48.9493 H   0  0  0  0  0  0  0  0  0  0  0  0
   64.7236   31.9268   49.2840 H   0  0  0  0  0  0  0  0  0  0  0  0
   64.4140   32.1250   47.0490 H   0  0  0  0  0  0  0  0  0  0  0  0
   63.4229   34.7140   47.6469 H   0  0  0  0  0  0  0  0  0  0  0  0
   64.0470   34.0449   46.0960 H   0  0  0  0  0  0  0  0  0  0  0  0
   61.8452   34.5027   45.5056 H   0  0  0  0  0  0  0  0  0  0  0  0
   61.7031   32.7890   46.0884 H   0  0  0  0  0  0  0  0  0  0  0  0
   60.7107   33.4309   48.1217 H   0  0  0  0  0  0  0  0  0  0  0  0
   61.2486   35.1382   47.9573 H   0  0  0  0  0  0  0  0  0  0  0  0
   58.9999   32.7163   48.4861 H   0  0  0  0  0  0  0  0  0  0  0  0
   57.3389   32.5009   47.8086 H   0  0  0  0  0  0  0  0  0  0  0  0
   58.1015   28.8116   46.6673 H   0  0  0  0  0  0  0  0  0  0  0  0
   56.7967   27.7132   44.8557 H   0  0  0  0  0  0  0  0  0  0  0  0
   56.0213   29.0390   42.8949 H   0  0  0  0  0  0  0  0  0  0  0  0
   56.5292   31.4674   42.7459 H   0  0  0  0  0  0  0  0  0  0  0  0
   57.7323   35.0286   45.1759 H   0  0  0  0  0  0  0  0  0  0  0  0
   56.6016   33.8705   45.9718 H   0  0  0  0  0  0  0  0  0  0  0  0
  1  2  1  0
  2  3  1  0
  3  4  1  0
  4  5  1  0
  5  6  1  0
  6  7  1  0
  7  8  1  0
  8  9  1  0
  9 10  2  3
 10 11  1  0
 11 12  1  0
 12 13  2  0
 12 14  1  0
 14 15  2  0
 15 16  1  0
 16 17  2  0
 17 18  1  0
 18 19  2  0
 19 20  1  0
 20 21  2  0
 20 22  1  0
 22 10  1  0
 19 14  1  0
  1 23  1  0
  1 24  1  0
  1 25  1  0
  2 26  1  0
  2 27  1  0
  3 28  1  0
  3 29  1  0
  4 30  1  0
  4 31  1  0
  5 32  1  0
  6 33  1  0
  6 34  1  0
  7 35  1  0
  7 36  1  0
  8 37  1  0
  8 38  1  0
 11 39  1  0
 11 40  1  0
 15 41  1  0
 16 42  1  0
 17 43  1  0
 18 44  1  0
 22 45  1  0
 22 46  1  0
M  CHG  1   1   1
M  END
>  <UniqueID>  (74) 
67

>  <SMILES>  (74) 
[NH3+]CCCNCCCN=C1CC(=O)c2ccccc2C(=O)C1

>  <Energy>  (74) 
49.31103147154858

>  <Genealogy>  (74) 
[NH3+]CCCNCCCN=C1CC(=O)c2ccccc2C(=O)C1 (protonated)
[NH3+]CCCNCCCN=C1CC(=O)c2ccccc2C(=O)C1 (3D coordinates assigned)
[NH3+]CCCNCCCN=C1CC(=O)c2ccccc2C(=O)C1 (nonaromatic ring conformer: 49.31103147154858 kcal/mol)

>  <smiles>  (74) 
NCCCNCCCN=C1CC(=O)c2ccccc2C(=O)C1

>  <score_type>  (74) 
oracle

>  <origin>  (74) 
adg

>  <m_score__min__energy>  (74) 
-3.0299999999999998

>  <m_primary>  (74) 
energy

$$$$
74:0
     RDKit          3D

 56 59  0  0  0  0  0  0  0  0999 V2000
   57.3850   31.9710   41.8480 C   0  0  0  0  0  0  0  0  0  0  0  0
   58.4130   32.4820   42.6920 O   0  0  0  0  0  0  0  0  0  0  0  0
   58.2600   32.7420   44.0660 C   0  0  0  0  0  0  0  0  0  0  0  0
   58.4340   34.0350   44.6110 C   0  0  0  0  0  0  0  0  0  0  0  0
   58.2860   34.2520   45.9850 C   0  0  0  0  0  0  0  0  0  0  0  0
   57.9710   33.1840   46.8290 C   0  0  0  0  0  0  0  0  0  0  0  0
   57.7890   31.8980   46.2980 C   0  0  0  0  0  0  0  0  0  0  0  0
   57.9270   31.6740   44.9150 C   0  0  0  0  0  0  0  0  0  0  0  0
   57.6070   30.3950   44.3310 N   0  0  0  0  0  0  0  0  0  0  0  0
   56.9470   29.3230   45.0140 C   0  0  0  0  0  0  0  0  0  0  0  0
   55.7100   29.4060   45.2250 O   0  0  0  0  0  0  0  0  0  0  0  0
   57.7360   28.1450   45.4770 C   0  0  0  0  0  0  0  0  0  0  0  0
   57.0340   26.9670   45.8140 C   0  0  0  0  0  0  0  0  0  0  0  0
   57.7110   25.8210   46.2550 C   0  0  0  0  0  0  0  0  0  0  0  0
   56.8180   24.3830   46.7410 S   0  0  0  0  0  0  0  0  0  0  0  0
   56.9280   24.2280   48.2310 O   0  0  0  0  0  0  0  0  0  0  0  0
   55.3720   24.5870   46.3800 O   0  0  0  0  0  0  0  0  0  0  0  0
   57.4650   22.9730   45.9270 N   0  0  0  0  0  0  0  0  0  0  0  0
   56.6200   21.7780   46.1180 C   0  0  0  0  0  0  0  0  0  0  0  0
   55.4410   21.7200   45.1280 C   0  0  0  0  0  0  0  0  0  0  0  0
   55.8810   21.8730   43.7970 O   0  0  0  0  0  0  0  0  0  0  0  0
   56.4940   23.1360   43.6430 C   0  0  0  0  0  0  0  0  0  0  0  0
   57.7590   23.2210   44.5040 C   0  0  0  0  0  0  0  0  0  0  0  0
   59.1010   25.8340   46.3440 C   0  0  0  0  0  0  0  0  0  0  0  0
   59.8150   26.9840   46.0120 C   0  0  0  0  0  0  0  0  0  0  0  0
   59.1550   28.1520   45.6090 C   0  0  0  0  0  0  0  0  0  0  0  0
   60.1910   29.5860   45.2490 S   0  0  0  0  0  0  0  0  0  0  0  0
   60.3520   30.0710   46.9730 C   0  0  0  0  0  0  0  0  0  0  0  0
   61.3110   31.0190   47.3550 C   0  0  0  0  0  0  0  0  0  0  0  0
   61.4480   31.3700   48.6970 C   0  0  0  0  0  0  0  0  0  0  0  0
   60.6110   30.7980   49.6610 C   0  0  0  0  0  0  0  0  0  0  0  0
   59.6330   29.8800   49.2820 C   0  0  0  0  0  0  0  0  0  0  0  0
   59.5010   29.5200   47.9420 C   0  0  0  0  0  0  0  0  0  0  0  0
   56.5704   31.5661   42.4664 H   0  0  0  0  0  0  0  0  0  0  0  0
   56.9957   32.7805   41.2130 H   0  0  0  0  0  0  0  0  0  0  0  0
   57.7953   31.1720   41.2130 H   0  0  0  0  0  0  0  0  0  0  0  0
   58.6876   34.8766   43.9496 H   0  0  0  0  0  0  0  0  0  0  0  0
   58.4174   35.2620   46.4004 H   0  0  0  0  0  0  0  0  0  0  0  0
   57.8656   33.3515   47.9110 H   0  0  0  0  0  0  0  0  0  0  0  0
   57.5373   31.0608   46.9656 H   0  0  0  0  0  0  0  0  0  0  0  0
   55.9374   26.9481   45.7291 H   0  0  0  0  0  0  0  0  0  0  0  0
   57.2416   20.8813   45.9781 H   0  0  0  0  0  0  0  0  0  0  0  0
   56.1996   21.8268   47.1333 H   0  0  0  0  0  0  0  0  0  0  0  0
   54.9360   20.7480   45.2289 H   0  0  0  0  0  0  0  0  0  0  0  0
   54.7505   22.5437   45.3621 H   0  0  0  0  0  0  0  0  0  0  0  0
   56.7634   23.2824   42.5866 H   0  0  0  0  0  0  0  0  0  0  0  0
   55.7894   23.9175   43.9636 H   0  0  0  0  0  0  0  0  0  0  0  0
   58.4811   22.4694   44.1525 H   0  0  0  0  0  0  0  0  0  0  0  0
   58.1714   24.2364   44.4100 H   0  0  0  0  0  0  0  0  0  0  0  0
   59.6372   24.9333   46.6776 H   0  0  0  0  0  0  0  0  0  0  0  0
   60.9136   26.9743   46.0673 H   0  0  0  0  0  0  0  0  0  0  0  0
   61.9556   31.4860   46.5958 H   0  0  0  0  0  0  0  0  0  0  0  0
   62.2155   32.0980   48.9986 H   0  0  0  0  0  0  0  0  0  0  0  0
   60.7249   31.0732   50.7199 H   0  0  0  0  0  0  0  0  0  0  0  0
   58.9667   29.4405   50.0389 H   0  0  0  0  0  0  0  0  0  0  0  0
   58.7252   28.7998   47.6429 H   0  0  0  0  0  0  0  0  0  0  0  0
  1  2  1  0
  2  3  1  0
  3  4  2  0
  4  5  1  0
  5  6  2  0
  6  7  1  0
  7  8  2  0
  8  9  1  0
  9 10  1  0
 10 11  2  0
 10 12  1  0
 12 13  2  0
 13 14  1  0
 14 15  1  0
 15 16  2  0
 15 17  2  0
 15 18  1  0
 18 19  1  0
 19 20  1  0
 20 21  1  0
 21 22  1  0
 22 23  1  0
 14 24  2  0
 24 25  1  0
 25 26  2  0
 26 27  1  0
 27 28  1  0
 28 29  2  0
 29 30  1  0
 30 31  2  0
 31 32  1  0
 32 33  2  0
  8  3  1  0
 26 12  1  0
 33 28  1  0
 23 18  1  0
  1 34  1  0
  1 35  1  0
  1 36  1  0
  4 37  1  0
  5 38  1  0
  6 39  1  0
  7 40  1  0
 13 41  1  0
 19 42  1  0
 19 43  1  0
 20 44  1  0
 20 45  1  0
 22 46  1  0
 22 47  1  0
 23 48  1  0
 23 49  1  0
 24 50  1  0
 25 51  1  0
 29 52  1  0
 30 53  1  0
 31 54  1  0
 32 55  1  0
 33 56  1  0
M  CHG  1   9  -1
M  END
>  <UniqueID>  (75) 
68

>  <SMILES>  (75) 
COc1ccccc1[N-]C(=O)c1cc(S(=O)(=O)N2CCOCC2)ccc1Sc1ccccc1

>  <Energy>  (75) 
70.75919860194342

>  <Genealogy>  (75) 
COc1ccccc1[N-]C(=O)c1cc(S(=O)(=O)N2CCOCC2)ccc1Sc1ccccc1 (protonated)
COc1ccccc1[N-]C(=O)c1cc(S(=O)(=O)N2CCOCC2)ccc1Sc1ccccc1 (3D coordinates assigned)
COc1ccccc1[N-]C(=O)c1cc(S(=O)(=O)N2CCOCC2)ccc1Sc1ccccc1 (nonaromatic ring conformer: 70.75919860194342 kcal/mol)

>  <smiles>  (75) 
COc1ccccc1NC(=O)c1cc(S(=O)(=O)N2CCOCC2)ccc1Sc1ccccc1

>  <score_type>  (75) 
oracle

>  <origin>  (75) 
adg

>  <m_score__min__energy>  (75) 
-11.07

>  <m_primary>  (75) 
energy

$$$$
75:0
     RDKit          3D

 50 52  0  0  0  0  0  0  0  0999 V2000
   59.6650   35.7060   45.6400 C   0  0  0  0  0  0  0  0  0  0  0  0
   59.1360   34.7170   46.5190 O   0  0  0  0  0  0  0  0  0  0  0  0
   58.6800   33.4570   46.1070 C   0  0  0  0  0  0  0  0  0  0  0  0
   57.4190   33.2670   45.5090 C   0  0  0  0  0  0  0  0  0  0  0  0
   57.0120   31.9880   45.1170 C   0  0  0  0  0  0  0  0  0  0  0  0
   57.8550   30.8870   45.3120 C   0  0  0  0  0  0  0  0  0  0  0  0
   57.3070   29.2830   44.8440 S   0  0  0  0  0  0  0  0  0  0  0  0
   58.1490   28.7480   43.7180 O   0  0  0  0  0  0  0  0  0  0  0  0
   55.8820   29.3740   44.3770 O   0  0  0  0  0  0  0  0  0  0  0  0
   57.4090   28.2360   46.2360 N   0  0  0  0  0  0  0  0  0  0  0  0
   58.5420   28.5820   47.0900 C   0  0  0  0  0  0  0  0  0  0  0  0
   58.8930   27.3230   47.8600 C   0  0  0  0  0  0  0  0  0  0  0  0
   58.4050   26.1750   46.9890 C   0  0  0  0  0  0  0  0  0  0  0  0
   57.6040   26.8320   45.8610 C   0  0  1  0  0  0  0  0  0  0  0  0
   56.2820   26.1400   45.6240 C   0  0  0  0  0  0  0  0  0  0  0  0
   55.2310   26.7170   46.0180 O   0  0  0  0  0  0  0  0  0  0  0  0
   56.1810   24.8500   44.9830 N   0  0  0  0  0  0  0  0  0  0  0  0
   55.0580   23.9680   45.3210 C   0  0  0  0  0  0  0  0  0  0  0  0
   55.4740   22.5070   45.1250 C   0  0  0  0  0  0  0  0  0  0  0  0
   55.9180   22.2240   43.7390 N   0  0  0  0  0  0  0  0  0  0  0  0
   56.8570   21.0900   43.7190 C   0  0  0  0  0  0  0  0  0  0  0  0
   56.4730   23.3940   43.0130 C   0  0  0  0  0  0  0  0  0  0  0  0
   57.1290   24.4200   43.9450 C   0  0  0  0  0  0  0  0  0  0  0  0
   59.1060   31.0710   45.9140 C   0  0  0  0  0  0  0  0  0  0  0  0
   59.5150   32.3500   46.3040 C   0  0  0  0  0  0  0  0  0  0  0  0
   60.1028   36.5246   46.2301 H   0  0  0  0  0  0  0  0  0  0  0  0
   60.4422   35.2548   45.0057 H   0  0  0  0  0  0  0  0  0  0  0  0
   58.8583   36.1020   45.0057 H   0  0  0  0  0  0  0  0  0  0  0  0
   56.7523   34.1274   45.3499 H   0  0  0  0  0  0  0  0  0  0  0  0
   56.0247   31.8460   44.6532 H   0  0  0  0  0  0  0  0  0  0  0  0
   59.3966   28.9047   46.4772 H   0  0  0  0  0  0  0  0  0  0  0  0
   58.2930   29.4105   47.7694 H   0  0  0  0  0  0  0  0  0  0  0  0
   59.9800   27.2554   48.0142 H   0  0  0  0  0  0  0  0  0  0  0  0
   58.4301   27.3082   48.8577 H   0  0  0  0  0  0  0  0  0  0  0  0
   59.2575   25.6136   46.5791 H   0  0  0  0  0  0  0  0  0  0  0  0
   57.7957   25.4589   47.5599 H   0  0  0  0  0  0  0  0  0  0  0  0
   58.1548   26.7519   44.9122 H   0  0  0  0  0  0  0  0  0  0  0  0
   54.7694   24.1287   46.3702 H   0  0  0  0  0  0  0  0  0  0  0  0
   54.2049   24.1957   44.6650 H   0  0  0  0  0  0  0  0  0  0  0  0
   56.3013   22.2804   45.8136 H   0  0  0  0  0  0  0  0  0  0  0  0
   54.5943   21.8788   45.3289 H   0  0  0  0  0  0  0  0  0  0  0  0
   57.0998   20.7968   44.7510 H   0  0  0  0  0  0  0  0  0  0  0  0
   56.3946   20.2402   43.1955 H   0  0  0  0  0  0  0  0  0  0  0  0
   57.7781   21.3858   43.1955 H   0  0  0  0  0  0  0  0  0  0  0  0
   57.2283   23.0368   42.2975 H   0  0  0  0  0  0  0  0  0  0  0  0
   55.6348   23.8963   42.5078 H   0  0  0  0  0  0  0  0  0  0  0  0
   58.0084   23.9645   44.4237 H   0  0  0  0  0  0  0  0  0  0  0  0
   57.4319   25.2966   43.3535 H   0  0  0  0  0  0  0  0  0  0  0  0
   59.7678   30.2082   46.0803 H   0  0  0  0  0  0  0  0  0  0  0  0
   60.5019   32.4880   46.7699 H   0  0  0  0  0  0  0  0  0  0  0  0
  1  2  1  0
  2  3  1  0
  3  4  2  0
  4  5  1  0
  5  6  2  0
  6  7  1  0
  7  8  2  0
  7  9  2  0
  7 10  1  0
 10 11  1  0
 11 12  1  0
 12 13  1  0
 13 14  1  0
 14 15  1  0
 15 16  2  0
 15 17  1  0
 17 18  1  0
 18 19  1  0
 19 20  1  0
 20 21  1  0
 20 22  1  0
 22 23  1  0
  6 24  1  0
 24 25  2  0
 25  3  1  0
 14 10  1  0
 23 17  1  0
  1 26  1  0
  1 27  1  0
  1 28  1  0
  4 29  1  0
  5 30  1  0
 11 31  1  0
 11 32  1  0
 12 33  1  0
 12 34  1  0
 13 35  1  0
 13 36  1  0
 14 37  1  6
 18 38  1  0
 18 39  1  0
 19 40  1  0
 19 41  1  0
 21 42  1  0
 21 43  1  0
 21 44  1  0
 22 45  1  0
 22 46  1  0
 23 47  1  0
 23 48  1  0
 24 49  1  0
 25 50  1  0
M  END
>  <UniqueID>  (76) 
69

>  <SMILES>  (76) 
COc1ccc(S(=O)(=O)N2CCC[C@H]2C(=O)N2CCN(C)CC2)cc1

>  <Energy>  (76) 
55.98153532212483

>  <Genealogy>  (76) 
COc1ccc(S(=O)(=O)N2CCC[C@H]2C(=O)N2CCN(C)CC2)cc1 (chirality)
COc1ccc(S(=O)(=O)N2CCC[C@H]2C(=O)N2CCN(C)CC2)cc1 (3D coordinates assigned)
COc1ccc(S(=O)(=O)N2CCC[C@H]2C(=O)N2CCN(C)CC2)cc1 (nonaromatic ring conformer: 55.98153532212483 kcal/mol)

>  <smiles>  (76) 
COc1ccc(S(=O)(=O)N2CCCC2C(=O)N2CCN(C)CC2)cc1

>  <score_type>  (76) 
oracle

>  <origin>  (76) 
adg

>  <m_score__min__energy>  (76) 
-9.3200000000000003

>  <m_primary>  (76) 
energy

$$$$
76:0
     RDKit          3D

 53 53  0  0  0  0  0  0  0  0999 V2000
   58.1430   26.9160   43.8050 C   0  0  0  0  0  0  0  0  0  0  0  0
   57.4310   27.6020   44.7980 N   0  0  0  0  0  0  0  0  0  0  0  0
   57.8660   27.6990   46.1070 C   0  0  0  0  0  0  0  0  0  0  0  0
   58.7270   28.8130   46.5550 C   0  0  0  0  0  0  0  0  0  0  0  0
   59.6730   29.2530   45.4960 C   0  0  0  0  0  0  0  0  0  0  0  0
   61.0330   29.6820   45.9770 C   0  0  0  0  0  0  0  0  0  0  0  0
   61.0060   30.5950   47.1790 C   0  0  0  0  0  0  0  0  0  0  0  0
   62.2590   31.4140   47.3030 C   0  0  0  0  0  0  0  0  0  0  0  0
   62.0150   32.8790   47.5700 C   0  0  0  0  0  0  0  0  0  0  0  0
   61.0160   33.4310   46.5830 C   0  0  0  0  0  0  0  0  0  0  0  0
   60.1690   34.5250   47.2040 C   0  0  0  0  0  0  0  0  0  0  0  0
   58.9870   34.8930   46.3550 C   0  0  0  0  0  0  0  0  0  0  0  0
   57.8400   33.9260   46.5800 C   0  0  0  0  0  0  0  0  0  0  0  0
   57.3760   33.3300   45.2650 C   0  0  0  0  0  0  0  0  0  0  0  0
   57.9970   31.9780   45.0570 C   0  0  0  0  0  0  0  0  0  0  0  0
   57.1330   31.1340   44.1720 C   0  0  0  0  0  0  0  0  0  0  0  0
   57.1480   31.0150   42.8030 C   0  0  0  0  0  0  0  0  0  0  0  0
   56.1750   30.1300   42.5040 N   0  0  0  0  0  0  0  0  0  0  0  0
   55.5690   29.7050   43.6320 C   0  0  0  0  0  0  0  0  0  0  0  0
   56.1590   30.3220   44.6650 N   0  0  0  0  0  0  0  0  0  0  0  0
   58.8585   26.2266   44.2769 H   0  0  0  0  0  0  0  0  0  0  0  0
   57.4415   26.3447   43.1793 H   0  0  0  0  0  0  0  0  0  0  0  0
   58.6879   27.6382   43.1793 H   0  0  0  0  0  0  0  0  0  0  0  0
   56.5690   28.0910   44.4960 H   0  0  0  0  0  0  0  0  0  0  0  0
   56.9618   27.7351   46.7324 H   0  0  0  0  0  0  0  0  0  0  0  0
   58.5364   26.8316   46.1977 H   0  0  0  0  0  0  0  0  0  0  0  0
   58.0884   29.6637   46.8351 H   0  0  0  0  0  0  0  0  0  0  0  0
   59.3198   28.4582   47.4110 H   0  0  0  0  0  0  0  0  0  0  0  0
   59.8101   28.4160   44.7955 H   0  0  0  0  0  0  0  0  0  0  0  0
   59.2199   30.1452   45.0392 H   0  0  0  0  0  0  0  0  0  0  0  0
   61.6053   28.7806   46.2416 H   0  0  0  0  0  0  0  0  0  0  0  0
   61.4920   30.2536   45.1568 H   0  0  0  0  0  0  0  0  0  0  0  0
   60.1467   31.2755   47.0867 H   0  0  0  0  0  0  0  0  0  0  0  0
   60.9262   29.9652   48.0773 H   0  0  0  0  0  0  0  0  0  0  0  0
   62.8569   31.0070   48.1318 H   0  0  0  0  0  0  0  0  0  0  0  0
   62.7760   31.3505   46.3341 H   0  0  0  0  0  0  0  0  0  0  0  0
   61.6230   33.0017   48.5904 H   0  0  0  0  0  0  0  0  0  0  0  0
   62.9637   33.4254   47.4630 H   0  0  0  0  0  0  0  0  0  0  0  0
   61.5575   33.8447   45.7195 H   0  0  0  0  0  0  0  0  0  0  0  0
   60.3498   32.6130   46.2715 H   0  0  0  0  0  0  0  0  0  0  0  0
   59.8053   34.1765   48.1819 H   0  0  0  0  0  0  0  0  0  0  0  0
   60.8007   35.4203   47.3011 H   0  0  0  0  0  0  0  0  0  0  0  0
   58.6580   35.9097   46.6161 H   0  0  0  0  0  0  0  0  0  0  0  0
   59.2848   34.8467   45.2971 H   0  0  0  0  0  0  0  0  0  0  0  0
   58.1753   33.1165   47.2451 H   0  0  0  0  0  0  0  0  0  0  0  0
   57.0013   34.4720   47.0365 H   0  0  0  0  0  0  0  0  0  0  0  0
   56.2808   33.2279   45.2793 H   0  0  0  0  0  0  0  0  0  0  0  0
   57.6820   33.9944   44.4434 H   0  0  0  0  0  0  0  0  0  0  0  0
   58.9842   32.1015   44.5877 H   0  0  0  0  0  0  0  0  0  0  0  0
   58.1001   31.4803   46.0325 H   0  0  0  0  0  0  0  0  0  0  0  0
   57.8145   31.5334   42.0980 H   0  0  0  0  0  0  0  0  0  0  0  0
   55.8870   29.7870   41.5560 H   0  0  0  0  0  0  0  0  0  0  0  0
   54.7411   28.9832   43.6927 H   0  0  0  0  0  0  0  0  0  0  0  0
  1  2  1  0
  2  3  1  0
  3  4  1  0
  4  5  1  0
  5  6  1  0
  6  7  1  0
  7  8  1  0
  8  9  1  0
  9 10  1  0
 10 11  1  0
 11 12  1  0
 12 13  1  0
 13 14  1  0
 14 15  1  0
 15 16  1  0
 16 17  2  0
 17 18  1  0
 18 19  1  0
 19 20  2  0
 20 16  1  0
  1 21  1  0
  1 22  1  0
  1 23  1  0
  2 24  1  0
  3 25  1  0
  3 26  1  0
  4 27  1  0
  4 28  1  0
  5 29  1  0
  5 30  1  0
  6 31  1  0
  6 32  1  0
  7 33  1  0
  7 34  1  0
  8 35  1  0
  8 36  1  0
  9 37  1  0
  9 38  1  0
 10 39  1  0
 10 40  1  0
 11 41  1  0
 11 42  1  0
 12 43  1  0
 12 44  1  0
 13 45  1  0
 13 46  1  0
 14 47  1  0
 14 48  1  0
 15 49  1  0
 15 50  1  0
 17 51  1  0
 18 52  1  0
 19 53  1  0
M  END
>  <smiles>  (77) 
CNCCCCCCCCCCCCCc1c[nH]cn1

>  <score_type>  (77) 
oracle

>  <origin>  (77) 
adg

>  <m_score__min__energy>  (77) 
-6.21

>  <m_primary>  (77) 
energy

$$$$
77:0
     RDKit          3D

 49 52  0  0  1  0  0  0  0  0999 V2000
   60.6920   29.5840   46.4820 C   0  0  0  0  0  0  0  0  0  0  0  0
   59.6340   29.4770   47.3580 C   0  0  0  0  0  0  0  0  0  0  0  0
   58.4370   28.9110   46.9410 C   0  0  0  0  0  0  0  0  0  0  0  0
   58.2750   28.4430   45.6490 C   0  0  0  0  0  0  0  0  0  0  0  0
   56.9890   27.8310   45.1910 C   0  0  0  0  0  0  0  0  0  0  0  0
   56.0880   28.9580   45.0000 N   0  0  0  0  0  0  0  0  0  0  0  0
   56.5800   30.0100   44.4410 C   0  0  0  0  0  0  0  0  0  0  0  0
   56.4700   30.0740   43.0550 C   0  0  0  0  0  0  0  0  0  0  0  0
   57.0020   31.2100   42.4700 C   0  0  0  0  0  0  0  0  0  0  0  0
   57.5780   32.1590   43.2430 N   0  0  0  0  0  0  0  0  0  0  0  0
   57.6720   32.0740   44.5760 C   0  0  0  0  0  0  0  0  0  0  0  0
   58.2660   33.0460   45.4110 N   0  0  0  0  0  0  0  0  0  0  0  0
   57.8980   33.1100   46.8210 C   0  0  0  0  0  0  0  0  0  0  0  0
   59.0690   33.0070   47.7330 C   0  0  0  0  0  0  0  0  0  0  0  0
   60.2790   33.5180   47.1560 N   0  0  0  0  0  0  0  0  0  0  0  0
   61.4110   33.6310   48.0470 C   0  0  0  0  0  0  0  0  0  0  0  0
   62.6890   33.3050   47.6310 C   0  0  0  0  0  0  0  0  0  0  0  0
   63.7700   33.4110   48.4760 C   0  0  0  0  0  0  0  0  0  0  0  0
   63.6130   33.8470   49.7750 C   0  0  0  0  0  0  0  0  0  0  0  0
   62.3520   34.1770   50.2080 C   0  0  0  0  0  0  0  0  0  0  0  0
   61.2790   34.0640   49.3470 C   0  0  0  0  0  0  0  0  0  0  0  0
   60.4950   33.9270   45.7990 C   0  0  0  0  0  0  0  0  0  0  0  0
   59.2440   34.0260   44.9850 C   0  0  0  0  0  0  0  0  0  0  0  0
   57.1590   30.9780   45.1620 N   0  0  0  0  0  0  0  0  0  0  0  0
   59.3560   28.5580   44.7710 C   0  0  0  0  0  0  0  0  0  0  0  0
   60.5520   29.1220   45.1830 C   0  0  0  0  0  0  0  0  0  0  0  0
   61.6408   30.0328   46.8112 H   0  0  0  0  0  0  0  0  0  0  0  0
   59.7381   29.8411   48.3908 H   0  0  0  0  0  0  0  0  0  0  0  0
   57.6009   28.8330   47.6516 H   0  0  0  0  0  0  0  0  0  0  0  0
   57.1339   27.2863   44.2464 H   0  0  0  0  0  0  0  0  0  0  0  0
   56.5949   27.1025   45.9149 H   0  0  0  0  0  0  0  0  0  0  0  0
   55.9933   29.2770   42.4654 H   0  0  0  0  0  0  0  0  0  0  0  0
   56.9565   31.3409   41.3788 H   0  0  0  0  0  0  0  0  0  0  0  0
   57.9550   32.9830   42.7350 H   0  0  0  0  0  0  0  0  0  0  0  0
   57.3915   34.0684   47.0079 H   0  0  0  0  0  0  0  0  0  0  0  0
   57.2425   32.2515   47.0291 H   0  0  0  0  0  0  0  0  0  0  0  0
   58.8505   33.5759   48.6488 H   0  0  0  0  0  0  0  0  0  0  0  0
   59.2302   31.9388   47.9400 H   0  0  0  0  0  0  0  0  0  0  0  0
   62.8451   32.9528   46.6007 H   0  0  0  0  0  0  0  0  0  0  0  0
   64.7727   33.1444   48.1105 H   0  0  0  0  0  0  0  0  0  0  0  0
   64.4783   33.9286   50.4492 H   0  0  0  0  0  0  0  0  0  0  0  0
   62.1976   34.5304   51.2382 H   0  0  0  0  0  0  0  0  0  0  0  0
   60.2773   34.3309   49.7148 H   0  0  0  0  0  0  0  0  0  0  0  0
   60.9800   34.9143   45.8087 H   0  0  0  0  0  0  0  0  0  0  0  0
   61.1188   33.1521   45.3294 H   0  0  0  0  0  0  0  0  0  0  0  0
   58.8179   35.0333   45.1022 H   0  0  0  0  0  0  0  0  0  0  0  0
   59.4962   33.8331   43.9318 H   0  0  0  0  0  0  0  0  0  0  0  0
   59.2556   28.1952   43.7374 H   0  0  0  0  0  0  0  0  0  0  0  0
   61.3923   29.2034   44.4778 H   0  0  0  0  0  0  0  0  0  0  0  0
  1  2  2  0
  2  3  1  0
  3  4  2  0
  4  5  1  0
  5  6  1  0
  6  7  2  0
  7  8  1  0
  8  9  2  0
  9 10  1  0
 10 11  1  0
 11 12  1  0
 12 13  1  0
 13 14  1  0
 14 15  1  0
 15 16  1  0
 16 17  2  0
 17 18  1  0
 18 19  2  0
 19 20  1  0
 20 21  2  0
 15 22  1  0
 22 23  1  0
 11 24  2  0
  4 25  1  0
 25 26  2  0
 26  1  1  0
 24  7  1  0
 23 12  1  0
 21 16  1  0
  1 27  1  0
  2 28  1  0
  3 29  1  0
  5 30  1  0
  5 31  1  0
  8 32  1  0
  9 33  1  0
 10 34  1  0
 13 35  1  0
 13 36  1  0
 14 37  1  0
 14 38  1  0
 17 39  1  0
 18 40  1  0
 19 41  1  0
 20 42  1  0
 21 43  1  0
 22 44  1  0
 22 45  1  0
 23 46  1  0
 23 47  1  0
 25 48  1  0
 26 49  1  0
M  END
>  <smiles>  (78) 
c1ccc(CN=c2cc[nH]c(N3CCN(c4ccccc4)CC3)n2)cc1

>  <score_type>  (78) 
oracle

>  <origin>  (78) 
adg

>  <m_score__min__energy>  (78) 
-8.5600000000000005

>  <m_primary>  (78) 
energy

$$$$
78:0
     RDKit          3D

 41 43  0  0  0  0  0  0  0  0999 V2000
   55.7360   27.4270   45.6290 O   0  0  0  0  0  0  0  0  0  0  0  0
   55.3880   26.2260   45.7860 C   0  0  0  0  0  0  0  0  0  0  0  0
   54.0420   25.9420   45.9700 O   0  0  0  0  0  0  0  0  0  0  0  0
   56.4050   25.1460   45.7160 C   0  0  0  0  0  0  0  0  0  0  0  0
   56.1920   23.9970   46.5020 C   0  0  0  0  0  0  0  0  0  0  0  0
   57.0970   22.9370   46.4850 C   0  0  0  0  0  0  0  0  0  0  0  0
   58.2290   22.9990   45.6790 C   0  0  0  0  0  0  0  0  0  0  0  0
   58.4590   24.1200   44.8830 C   0  0  0  0  0  0  0  0  0  0  0  0
   57.5600   25.2070   44.8800 C   0  0  0  0  0  0  0  0  0  0  0  0
   57.7930   26.2930   43.9470 N   0  0  0  0  0  0  0  0  0  0  0  0
   58.8740   27.1880   44.3990 C   0  0  0  0  0  0  0  0  0  0  0  0
   58.4080   28.6210   44.5030 C   0  0  0  0  0  0  0  0  0  0  0  0
   59.0820   29.5230   45.3390 C   0  0  0  0  0  0  0  0  0  0  0  0
   58.7200   30.8720   45.3580 C   0  0  0  0  0  0  0  0  0  0  0  0
   57.6740   31.3360   44.5440 C   0  0  0  0  0  0  0  0  0  0  0  0
   57.3480   32.8030   44.4920 C   0  0  0  0  0  0  0  0  0  0  0  0
   58.1650   33.5220   45.4660 N   0  0  0  0  0  0  0  0  0  0  0  0
   57.9650   33.5590   46.7980 C   0  0  0  0  0  0  0  0  0  0  0  0
   58.9940   34.2520   47.4020 C   0  0  0  0  0  0  0  0  0  0  0  0
   59.8560   34.6390   46.3930 C   0  0  0  0  0  0  0  0  0  0  0  0
   59.3200   34.1670   45.2130 C   0  0  0  0  0  0  0  0  0  0  0  0
   57.0040   30.4350   43.7040 C   0  0  0  0  0  0  0  0  0  0  0  0
   57.3670   29.0860   43.6850 C   0  0  0  0  0  0  0  0  0  0  0  0
   55.2975   23.9351   47.1392 H   0  0  0  0  0  0  0  0  0  0  0  0
   56.9157   22.0501   47.1099 H   0  0  0  0  0  0  0  0  0  0  0  0
   58.9434   22.1626   45.6697 H   0  0  0  0  0  0  0  0  0  0  0  0
   59.3558   24.1575   44.2471 H   0  0  0  0  0  0  0  0  0  0  0  0
   58.0110   25.9210   42.9980 H   0  0  0  0  0  0  0  0  0  0  0  0
   56.9210   26.8600   43.8230 H   0  0  0  0  0  0  0  0  0  0  0  0
   59.2229   26.8543   45.3874 H   0  0  0  0  0  0  0  0  0  0  0  0
   59.6861   27.1451   43.6583 H   0  0  0  0  0  0  0  0  0  0  0  0
   59.8996   29.1665   45.9828 H   0  0  0  0  0  0  0  0  0  0  0  0
   59.2566   31.5738   46.0134 H   0  0  0  0  0  0  0  0  0  0  0  0
   57.5569   33.1888   43.4833 H   0  0  0  0  0  0  0  0  0  0  0  0
   56.2839   32.9491   44.7294 H   0  0  0  0  0  0  0  0  0  0  0  0
   57.1116   33.1059   47.3237 H   0  0  0  0  0  0  0  0  0  0  0  0
   59.1065   34.4566   48.4769 H   0  0  0  0  0  0  0  0  0  0  0  0
   60.7879   35.2118   46.5086 H   0  0  0  0  0  0  0  0  0  0  0  0
   59.7678   34.2975   44.2168 H   0  0  0  0  0  0  0  0  0  0  0  0
   56.1890   30.7919   43.0572 H   0  0  0  0  0  0  0  0  0  0  0  0
   56.8342   28.3850   43.0256 H   0  0  0  0  0  0  0  0  0  0  0  0
  1  2  2  0
  2  3  1  0
  2  4  1  0
  4  5  2  0
  5  6  1  0
  6  7  2  0
  7  8  1  0
  8  9  2  0
  9 10  1  0
 10 11  1  0
 11 12  1  0
 12 13  2  0
 13 14  1  0
 14 15  2  0
 15 16  1  0
 16 17  1  0
 17 18  1  0
 18 19  2  0
 19 20  1  0
 20 21  2  0
 15 22  1  0
 22 23  2  0
  9  4  1  0
 23 12  1  0
 21 17  1  0
  5 24  1  0
  6 25  1  0
  7 26  1  0
  8 27  1  0
 10 28  1  0
 10 29  1  0
 11 30  1  0
 11 31  1  0
 13 32  1  0
 14 33  1  0
 16 34  1  0
 16 35  1  0
 18 36  1  0
 19 37  1  0
 20 38  1  0
 21 39  1  0
 22 40  1  0
 23 41  1  0
M  CHG  2   3  -1  10   1
M  END
>  <UniqueID>  (79) 
70

>  <SMILES>  (79) 
O=C([O-])c1ccccc1[NH2+]Cc1ccc(Cn2cccc2)cc1

>  <Energy>  (79) 
73.25514336647451

>  <Genealogy>  (79) 
O=C([O-])c1ccccc1[NH2+]Cc1ccc(Cn2cccc2)cc1 (protonated)
O=C([O-])c1ccccc1[NH2+]Cc1ccc(Cn2cccc2)cc1 (3D coordinates assigned)
O=C([O-])c1ccccc1[NH2+]Cc1ccc(Cn2cccc2)cc1 (optimized conformer: 73.25514336647451 kcal/mol)

>  <smiles>  (79) 
O=C(O)c1ccccc1NCc1ccc(Cn2cccc2)cc1

>  <score_type>  (79) 
oracle

>  <origin>  (79) 
adg

>  <m_score__min__energy>  (79) 
-9.8100000000000005

>  <m_primary>  (79) 
energy

$$$$
79:0
     RDKit          3D

 45 46  0  0  0  0  0  0  0  0999 V2000
   56.6630   29.4170   42.9860 C   0  0  0  0  0  0  0  0  0  0  0  0
   55.6480   29.7100   44.0860 C   0  0  0  0  0  0  0  0  0  0  0  0
   55.8230   28.8170   45.1830 O   0  0  0  0  0  0  0  0  0  0  0  0
   56.9980   28.0860   45.4060 C   0  0  0  0  0  0  0  0  0  0  0  0
   57.0050   26.8350   45.2410 O   0  0  0  0  0  0  0  0  0  0  0  0
   58.2310   28.7860   45.8300 C   0  0  0  0  0  0  0  0  0  0  0  0
   58.1650   29.8420   46.7540 C   0  0  0  0  0  0  0  0  0  0  0  0
   59.3270   30.5050   47.1580 C   0  0  0  0  0  0  0  0  0  0  0  0
   60.5800   30.1140   46.6560 C   0  0  0  0  0  0  0  0  0  0  0  0
   61.7880   30.7920   47.0390 N   0  0  0  0  0  0  0  0  0  0  0  0
   62.0140   31.3600   48.3370 C   0  0  0  0  0  0  0  0  0  0  0  0
   61.1930   31.1830   49.2750 O   0  0  0  0  0  0  0  0  0  0  0  0
   63.5120   32.2950   48.6510 S   0  0  0  0  0  0  0  0  0  0  0  0
   62.6600   33.9030   48.8140 C   0  0  0  0  0  0  0  0  0  0  0  0
   61.4380   33.9550   47.9390 C   0  0  0  0  0  0  0  0  0  0  0  0
   60.1610   34.0870   48.5050 C   0  0  0  0  0  0  0  0  0  0  0  0
   59.0260   34.1080   47.6890 C   0  0  0  0  0  0  0  0  0  0  0  0
   59.1520   33.9840   46.2930 C   0  0  0  0  0  0  0  0  0  0  0  0
   58.0430   34.0090   45.4330 O   0  0  0  0  0  0  0  0  0  0  0  0
   57.5500   32.9110   44.7170 C   0  0  0  0  0  0  0  0  0  0  0  0
   58.1050   32.6150   43.3650 C   0  0  0  0  0  0  0  0  0  0  0  0
   56.7200   32.1150   45.2340 O   0  0  0  0  0  0  0  0  0  0  0  0
   60.4280   33.8700   45.7310 C   0  0  0  0  0  0  0  0  0  0  0  0
   61.5640   33.8470   46.5460 C   0  0  0  0  0  0  0  0  0  0  0  0
   60.6450   29.0760   45.7170 C   0  0  0  0  0  0  0  0  0  0  0  0
   59.4830   28.4110   45.3110 C   0  0  0  0  0  0  0  0  0  0  0  0
   57.6257   29.1391   43.4399 H   0  0  0  0  0  0  0  0  0  0  0  0
   56.2986   28.5874   42.3624 H   0  0  0  0  0  0  0  0  0  0  0  0
   56.7968   30.3132   42.3624 H   0  0  0  0  0  0  0  0  0  0  0  0
   55.7836   30.7438   44.4366 H   0  0  0  0  0  0  0  0  0  0  0  0
   54.6353   29.5754   43.6781 H   0  0  0  0  0  0  0  0  0  0  0  0
   57.1911   30.1494   47.1627 H   0  0  0  0  0  0  0  0  0  0  0  0
   59.2604   31.3380   47.8733 H   0  0  0  0  0  0  0  0  0  0  0  0
   62.5950   30.7760   46.3750 H   0  0  0  0  0  0  0  0  0  0  0  0
   62.3586   34.0460   49.8622 H   0  0  0  0  0  0  0  0  0  0  0  0
   63.3506   34.6996   48.5002 H   0  0  0  0  0  0  0  0  0  0  0  0
   60.0523   34.1744   49.5961 H   0  0  0  0  0  0  0  0  0  0  0  0
   58.0294   34.2220   48.1405 H   0  0  0  0  0  0  0  0  0  0  0  0
   59.0712   32.0997   43.4700 H   0  0  0  0  0  0  0  0  0  0  0  0
   57.4040   31.9710   42.8138 H   0  0  0  0  0  0  0  0  0  0  0  0
   58.2493   33.5559   42.8138 H   0  0  0  0  0  0  0  0  0  0  0  0
   60.5386   33.7979   44.6390 H   0  0  0  0  0  0  0  0  0  0  0  0
   62.5610   33.7438   46.0928 H   0  0  0  0  0  0  0  0  0  0  0  0
   61.6175   28.7816   45.2957 H   0  0  0  0  0  0  0  0  0  0  0  0
   59.5491   27.5902   44.5817 H   0  0  0  0  0  0  0  0  0  0  0  0
  1  2  1  0
  2  3  1  0
  3  4  1  0
  4  5  2  0
  4  6  1  0
  6  7  2  0
  7  8  1  0
  8  9  2  0
  9 10  1  0
 10 11  1  0
 11 12  2  0
 11 13  1  0
 13 14  1  0
 14 15  1  0
 15 16  2  0
 16 17  1  0
 17 18  2  0
 18 19  1  0
 19 20  1  0
 20 21  1  0
 20 22  2  0
 18 23  1  0
 23 24  2  0
  9 25  1  0
 25 26  2  0
 26  6  1  0
 24 15  1  0
  1 27  1  0
  1 28  1  0
  1 29  1  0
  2 30  1  0
  2 31  1  0
  7 32  1  0
  8 33  1  0
 10 34  1  0
 14 35  1  0
 14 36  1  0
 16 37  1  0
 17 38  1  0
 21 39  1  0
 21 40  1  0
 21 41  1  0
 23 42  1  0
 24 43  1  0
 25 44  1  0
 26 45  1  0
M  END
>  <UniqueID>  (80) 
71

>  <SMILES>  (80) 
CCOC(=O)c1ccc(NC(=O)SCc2ccc(OC(C)=O)cc2)cc1

>  <Energy>  (80) 
42.8209483511744

>  <Genealogy>  (80) 
CCOC(=O)c1ccc(NC(=O)SCc2ccc(OC(C)=O)cc2)cc1 (3D coordinates assigned)
CCOC(=O)c1ccc(NC(=O)SCc2ccc(OC(C)=O)cc2)cc1 (optimized conformer: 42.8209483511744 kcal/mol)

>  <smiles>  (80) 
CCOC(=O)c1ccc(NC(=O)SCc2ccc(OC(C)=O)cc2)cc1

>  <score_type>  (80) 
oracle

>  <origin>  (80) 
adg

>  <m_score__min__energy>  (80) 
-8.2899999999999991

>  <m_primary>  (80) 
energy

$$$$
80:0
     RDKit          3D

 37 39  0  0  0  0  0  0  0  0999 V2000
   57.2970   31.4160   53.4730 O   0  0  0  0  0  0  0  0  0  0  0  0
   57.0910   31.0070   52.3010 C   0  0  0  0  0  0  0  0  0  0  0  0
   55.7340   31.1890   51.6810 C   0  0  0  0  0  0  0  0  0  0  0  0
   54.5430   29.9710   52.3460 S   0  0  0  0  0  0  0  0  0  0  0  0
   53.1070   30.6820   51.5390 C   0  0  0  0  0  0  0  0  0  0  0  0
   52.6250   30.1350   50.3480 C   0  0  0  0  0  0  0  0  0  0  0  0
   51.5110   30.7250   49.7490 C   0  0  0  0  0  0  0  0  0  0  0  0
   51.0460   30.2570   48.6770 O   0  0  0  0  0  0  0  0  0  0  0  0
   50.9260   31.8080   50.3250 N   0  0  0  0  0  0  0  0  0  0  0  0
   51.4140   32.3300   51.4820 C   0  0  0  0  0  0  0  0  0  0  0  0
   50.8600   33.3340   51.9990 O   0  0  0  0  0  0  0  0  0  0  0  0
   52.4960   31.7690   52.0790 N   0  0  0  0  0  0  0  0  0  0  0  0
   58.1770   30.4090   51.5800 N   0  0  0  0  0  0  0  0  0  0  0  0
   58.5050   30.6240   50.2000 C   0  0  0  0  0  0  0  0  0  0  0  0
   58.7890   31.9050   49.7010 C   0  0  0  0  0  0  0  0  0  0  0  0
   59.0860   32.0820   48.3470 C   0  0  0  0  0  0  0  0  0  0  0  0
   59.0740   30.9890   47.4770 C   0  0  0  0  0  0  0  0  0  0  0  0
   58.7390   29.7090   47.9540 C   0  0  0  0  0  0  0  0  0  0  0  0
   58.7230   28.5570   47.1000 N   0  0  0  0  0  0  0  0  0  0  0  0
   57.6220   28.0940   46.3050 C   0  0  0  0  0  0  0  0  0  0  0  0
   57.1730   26.9260   46.4450 O   0  0  0  0  0  0  0  0  0  0  0  0
   57.0450   28.9700   45.2800 C   0  0  0  0  0  0  0  0  0  0  0  0
   57.7510   29.7340   44.3720 C   0  0  0  0  0  0  0  0  0  0  0  0
   56.7990   30.3850   43.6160 C   0  0  0  0  0  0  0  0  0  0  0  0
   55.5760   29.9790   44.1090 C   0  0  0  0  0  0  0  0  0  0  0  0
   55.7550   29.1350   45.0990 O   0  0  0  0  0  0  0  0  0  0  0  0
   58.4660   29.5360   49.3180 C   0  0  0  0  0  0  0  0  0  0  0  0
   55.3712   32.2040   51.9003 H   0  0  0  0  0  0  0  0  0  0  0  0
   55.8211   31.0380   50.5949 H   0  0  0  0  0  0  0  0  0  0  0  0
   53.1118   29.2599   49.8927 H   0  0  0  0  0  0  0  0  0  0  0  0
   58.7777   32.7721   50.3778 H   0  0  0  0  0  0  0  0  0  0  0  0
   59.3298   33.0844   47.9653 H   0  0  0  0  0  0  0  0  0  0  0  0
   59.3273   31.1299   46.4159 H   0  0  0  0  0  0  0  0  0  0  0  0
   58.8440   29.8079   44.2725 H   0  0  0  0  0  0  0  0  0  0  0  0
   56.9784   31.0861   42.7876 H   0  0  0  0  0  0  0  0  0  0  0  0
   54.5985   30.3120   43.7300 H   0  0  0  0  0  0  0  0  0  0  0  0
   58.2183   28.5347   49.7003 H   0  0  0  0  0  0  0  0  0  0  0  0
  1  2  2  0
  2  3  1  0
  3  4  1  0
  4  5  1  0
  5  6  2  0
  6  7  1  0
  7  8  2  0
  7  9  1  0
  9 10  1  0
 10 11  2  0
 10 12  1  0
  2 13  1  0
 13 14  1  0
 14 15  2  0
 15 16  1  0
 16 17  2  0
 17 18  1  0
 18 19  1  0
 19 20  1  0
 20 21  2  0
 20 22  1  0
 22 23  2  0
 23 24  1  0
 24 25  2  0
 25 26  1  0
 18 27  2  0
 12  5  1  0
 27 14  1  0
 26 22  1  0
  3 28  1  0
  3 29  1  0
  6 30  1  0
 15 31  1  0
 16 32  1  0
 17 33  1  0
 23 34  1  0
 24 35  1  0
 25 36  1  0
 27 37  1  0
M  CHG  4   9  -1  12  -1  13  -1  19  -1
M  END
>  <UniqueID>  (81) 
72

>  <SMILES>  (81) 
O=C(CSc1cc(=O)[n-]c(=O)[n-]1)[N-]c1cccc([N-]C(=O)c2ccco2)c1

>  <Energy>  (81) 
70.94417723955355

>  <Genealogy>  (81) 
O=C(CSc1cc(=O)[n-]c(=O)[n-]1)[N-]c1cccc([N-]C(=O)c2ccco2)c1 (protonated)
O=C(CSc1cc(=O)[n-]c(=O)[n-]1)[N-]c1cccc([N-]C(=O)c2ccco2)c1 (3D coordinates assigned)
O=C(CSc1cc(=O)[n-]c(=O)[n-]1)[N-]c1cccc([N-]C(=O)c2ccco2)c1 (optimized conformer: 70.94417723955355 kcal/mol)

>  <smiles>  (81) 
O=C(CSc1cc(=O)[nH]c(=O)[nH]1)Nc1cccc(NC(=O)c2ccco2)c1

>  <score_type>  (81) 
oracle

>  <origin>  (81) 
adg

>  <m_score__min__energy>  (81) 
-15.48

>  <m_primary>  (81) 
energy

$$$$
81:0
     RDKit          3D

 47 49  0  0  0  0  0  0  0  0999 V2000
   56.7670   24.8440   44.4590 C   0  0  0  0  0  0  0  0  0  0  0  0
   56.7130   25.8360   45.9360 S   0  0  0  0  0  0  0  0  0  0  0  0
   55.8950   25.1180   46.9700 O   0  0  0  0  0  0  0  0  0  0  0  0
   56.0730   27.1660   45.6520 O   0  0  0  0  0  0  0  0  0  0  0  0
   58.3150   26.0720   46.5570 N   0  0  0  0  0  0  0  0  0  0  0  0
   58.9820   27.3340   46.7020 C   0  0  0  0  0  0  0  0  0  0  0  0
   59.7840   27.8800   45.6870 C   0  0  0  0  0  0  0  0  0  0  0  0
   60.4160   29.1150   45.8730 C   0  0  0  0  0  0  0  0  0  0  0  0
   60.2550   29.8260   47.0750 C   0  0  0  0  0  0  0  0  0  0  0  0
   60.9250   31.1380   47.2710 C   0  0  0  0  0  0  0  0  0  0  0  0
   62.3270   31.2150   47.3740 C   0  0  0  0  0  0  0  0  0  0  0  0
   62.9550   32.4450   47.5740 C   0  0  0  0  0  0  0  0  0  0  0  0
   62.1970   33.6130   47.6720 C   0  0  0  0  0  0  0  0  0  0  0  0
   60.8000   33.5600   47.5600 C   0  0  0  0  0  0  0  0  0  0  0  0
   59.9880   34.8190   47.7060 C   0  0  0  0  0  0  0  0  0  0  0  0
   59.5750   35.3060   46.3950 N   0  0  0  0  0  0  0  0  0  0  0  0
   59.0970   34.4550   45.3490 C   0  0  0  0  0  0  0  0  0  0  0  0
   59.4870   34.6290   44.1630 O   0  0  0  0  0  0  0  0  0  0  0  0
   58.1320   33.4390   45.6580 N   0  0  0  0  0  0  0  0  0  0  0  0
   57.7320   32.4010   44.7470 C   0  0  0  0  0  0  0  0  0  0  0  0
   57.7000   32.6140   43.3560 C   0  0  0  0  0  0  0  0  0  0  0  0
   57.3310   31.5780   42.4930 C   0  0  0  0  0  0  0  0  0  0  0  0
   57.0050   30.3200   43.0060 C   0  0  0  0  0  0  0  0  0  0  0  0
   57.0570   30.0930   44.3830 C   0  0  0  0  0  0  0  0  0  0  0  0
   57.4250   31.1260   45.2510 C   0  0  0  0  0  0  0  0  0  0  0  0
   60.1700   32.3210   47.3660 C   0  0  0  0  0  0  0  0  0  0  0  0
   59.4510   29.2740   48.0880 C   0  0  0  0  0  0  0  0  0  0  0  0
   58.8230   28.0400   47.9000 C   0  0  0  0  0  0  0  0  0  0  0  0
   56.8249   23.7804   44.7336 H   0  0  0  0  0  0  0  0  0  0  0  0
   55.8579   25.0205   43.8653 H   0  0  0  0  0  0  0  0  0  0  0  0
   57.6516   25.1181   43.8653 H   0  0  0  0  0  0  0  0  0  0  0  0
   59.9163   27.3345   44.7410 H   0  0  0  0  0  0  0  0  0  0  0  0
   61.0438   29.5326   45.0721 H   0  0  0  0  0  0  0  0  0  0  0  0
   62.9315   30.2993   47.2963 H   0  0  0  0  0  0  0  0  0  0  0  0
   64.0509   32.4943   47.6547 H   0  0  0  0  0  0  0  0  0  0  0  0
   62.6972   34.5786   47.8377 H   0  0  0  0  0  0  0  0  0  0  0  0
   59.0953   34.6074   48.3129 H   0  0  0  0  0  0  0  0  0  0  0  0
   60.6024   35.5877   48.1976 H   0  0  0  0  0  0  0  0  0  0  0  0
   57.6360   33.5120   46.5750 H   0  0  0  0  0  0  0  0  0  0  0  0
   57.9664   33.5995   42.9464 H   0  0  0  0  0  0  0  0  0  0  0  0
   57.2972   31.7536   41.4076 H   0  0  0  0  0  0  0  0  0  0  0  0
   56.7075   29.5086   42.3255 H   0  0  0  0  0  0  0  0  0  0  0  0
   56.8081   29.1000   44.7856 H   0  0  0  0  0  0  0  0  0  0  0  0
   57.4743   30.9393   46.3339 H   0  0  0  0  0  0  0  0  0  0  0  0
   59.0738   32.2745   47.2874 H   0  0  0  0  0  0  0  0  0  0  0  0
   59.3155   29.8173   49.0348 H   0  0  0  0  0  0  0  0  0  0  0  0
   58.1976   27.6194   48.7013 H   0  0  0  0  0  0  0  0  0  0  0  0
  1  2  1  0
  2  3  2  0
  2  4  2  0
  2  5  1  0
  5  6  1  0
  6  7  2  0
  7  8  1  0
  8  9  2  0
  9 10  1  0
 10 11  2  0
 11 12  1  0
 12 13  2  0
 13 14  1  0
 14 15  1  0
 15 16  1  0
 16 17  1  0
 17 18  2  0
 17 19  1  0
 19 20  1  0
 20 21  2  0
 21 22  1  0
 22 23  2  0
 23 24  1  0
 24 25  2  0
 14 26  2  0
  9 27  1  0
 27 28  2  0
 28  6  1  0
 26 10  1  0
 25 20  1  0
  1 29  1  0
  1 30  1  0
  1 31  1  0
  7 32  1  0
  8 33  1  0
 11 34  1  0
 12 35  1  0
 13 36  1  0
 15 37  1  0
 15 38  1  0
 19 39  1  0
 21 40  1  0
 22 41  1  0
 23 42  1  0
 24 43  1  0
 25 44  1  0
 26 45  1  0
 27 46  1  0
 28 47  1  0
M  CHG  2   5  -1  16  -1
M  END
>  <UniqueID>  (82) 
73

>  <SMILES>  (82) 
CS(=O)(=O)[N-]c1ccc(-c2cccc(C[N-]C(=O)Nc3ccccc3)c2)cc1

>  <Energy>  (82) 
54.21806163623924

>  <Genealogy>  (82) 
CS(=O)(=O)[N-]c1ccc(-c2cccc(C[N-]C(=O)Nc3ccccc3)c2)cc1 (protonated)
CS(=O)(=O)[N-]c1ccc(-c2cccc(C[N-]C(=O)Nc3ccccc3)c2)cc1 (3D coordinates assigned)
CS(=O)(=O)[N-]c1ccc(-c2cccc(C[N-]C(=O)Nc3ccccc3)c2)cc1 (optimized conformer: 54.21806163623924 kcal/mol)

>  <smiles>  (82) 
CS(=O)(=O)Nc1ccc(-c2cccc(CNC(=O)Nc3ccccc3)c2)cc1

>  <score_type>  (82) 
oracle

>  <origin>  (82) 
adg

>  <m_score__min__energy>  (82) 
-11.460000000000001

>  <m_primary>  (82) 
energy

$$$$
82:0
     RDKit          3D

 56 59  0  0  0  0  0  0  0  0999 V2000
   61.2688   28.3649   50.0876 H   0  0  0  0  0  0  0  0  0  0  0  0
   60.3960   29.0220   49.9590 C   0  0  0  0  0  0  0  0  0  0  0  0
   60.0170   29.3890   48.5830 C   0  0  0  0  0  0  0  0  0  0  0  0
   59.7590   28.4700   47.7610 O   0  0  0  0  0  0  0  0  0  0  0  0
   59.8810   30.7700   48.2000 N   0  0  0  0  0  0  0  0  0  0  0  0
   60.1930   31.5000   48.8740 H   0  0  0  0  0  0  0  0  0  0  0  0
   59.2390   31.2000   46.9870 C   0  0  0  0  0  0  0  0  0  0  0  0
   58.3940   30.3200   46.2870 C   0  0  0  0  0  0  0  0  0  0  0  0
   58.2498   29.2948   46.6588 H   0  0  0  0  0  0  0  0  0  0  0  0
   57.7330   30.7330   45.1210 C   0  0  0  0  0  0  0  0  0  0  0  0
   56.6520   29.6260   44.2720 S   0  0  0  0  0  0  0  0  0  0  0  0
   56.5570   30.0370   42.8280 O   0  0  0  0  0  0  0  0  0  0  0  0
   55.2760   29.7180   44.8720 O   0  0  0  0  0  0  0  0  0  0  0  0
   57.2170   27.9720   44.3650 N   0  0  0  0  0  0  0  0  0  0  0  0
   57.0790   27.4580   45.7410 C   0  0  0  0  0  0  0  0  0  0  0  0
   57.3399   28.2553   46.4525 H   0  0  0  0  0  0  0  0  0  0  0  0
   56.0391   27.1346   45.8959 H   0  0  0  0  0  0  0  0  0  0  0  0
   58.0100   26.2560   45.9660 C   0  0  0  0  0  0  0  0  0  0  0  0
   57.8645   25.8934   46.9943 H   0  0  0  0  0  0  0  0  0  0  0  0
   57.7453   25.5022   45.2098 H   0  0  0  0  0  0  0  0  0  0  0  0
   59.3900   26.5520   45.7870 O   0  0  0  0  0  0  0  0  0  0  0  0
   59.6330   27.6720   44.9460 C   0  0  0  0  0  0  0  0  0  0  0  0
   59.6238   28.5818   45.5643 H   0  0  0  0  0  0  0  0  0  0  0  0
   60.6073   27.5111   44.4613 H   0  0  0  0  0  0  0  0  0  0  0  0
   58.5870   27.8300   43.8280 C   0  0  0  0  0  0  0  0  0  0  0  0
   58.8312   28.7254   43.2376 H   0  0  0  0  0  0  0  0  0  0  0  0
   58.6152   26.9227   43.2067 H   0  0  0  0  0  0  0  0  0  0  0  0
   57.9250   32.0350   44.6460 C   0  0  0  0  0  0  0  0  0  0  0  0
   57.4250   32.3604   43.7218 H   0  0  0  0  0  0  0  0  0  0  0  0
   58.7480   32.9220   45.3400 C   0  0  0  0  0  0  0  0  0  0  0  0
   58.8854   33.9461   44.9627 H   0  0  0  0  0  0  0  0  0  0  0  0
   59.4020   32.5210   46.5140 C   0  0  0  0  0  0  0  0  0  0  0  0
   60.2450   33.4640   47.1970 N   0  0  0  0  0  0  0  0  0  0  0  0
   61.5940   33.7510   46.6990 C   0  0  0  0  0  0  0  0  0  0  0  0
   61.8529   33.0184   45.9204 H   0  0  0  0  0  0  0  0  0  0  0  0
   61.6051   34.7716   46.2888 H   0  0  0  0  0  0  0  0  0  0  0  0
   62.6380   33.6680   47.8380 C   0  0  0  0  0  0  0  0  0  0  0  0
   63.2422   32.7613   47.6868 H   0  0  0  0  0  0  0  0  0  0  0  0
   63.2346   34.5908   47.7879 H   0  0  0  0  0  0  0  0  0  0  0  0
   62.0750   33.6160   49.1410 O   0  0  0  0  0  0  0  0  0  0  0  0
   61.0180   34.5440   49.2600 C   0  0  0  0  0  0  0  0  0  0  0  0
   60.7486   34.6616   50.3200 H   0  0  0  0  0  0  0  0  0  0  0  0
   61.3322   35.5178   48.8562 H   0  0  0  0  0  0  0  0  0  0  0  0
   59.8100   34.0280   48.4790 C   0  0  0  0  0  0  0  0  0  0  0  0
   59.3024   33.2486   49.0663 H   0  0  0  0  0  0  0  0  0  0  0  0
   59.1188   34.8626   48.2903 H   0  0  0  0  0  0  0  0  0  0  0  0
   59.7580   29.4280   51.0660 C   0  0  0  0  0  0  0  0  0  0  0  0
   59.7090   28.7244   51.9101 H   0  0  0  0  0  0  0  0  0  0  0  0
   59.1170   30.7440   51.2400 C   0  0  0  0  0  0  0  0  0  0  0  0
   59.8990   32.2130   51.5050 S   0  0  0  0  0  0  0  0  0  0  0  0
   58.5090   33.1220   51.7610 C   0  0  0  0  0  0  0  0  0  0  0  0
   58.4740   34.2010   51.9722 H   0  0  0  0  0  0  0  0  0  0  0  0
   57.4130   32.2770   51.6600 C   0  0  0  0  0  0  0  0  0  0  0  0
   56.3753   32.6203   51.7835 H   0  0  0  0  0  0  0  0  0  0  0  0
   57.7520   30.9460   51.3860 C   0  0  0  0  0  0  0  0  0  0  0  0
   57.0091   30.1399   51.2954 H   0  0  0  0  0  0  0  0  0  0  0  0
  1  2  1  0
  2  3  1  0
  3  4  2  0
  3  5  1  0
  5  6  1  0
  5  7  1  0
  7  8  2  0
  8  9  1  0
  8 10  1  0
 10 11  1  0
 11 12  2  0
 11 13  2  0
 11 14  1  0
 14 15  1  0
 15 16  1  0
 15 17  1  0
 15 18  1  0
 18 19  1  0
 18 20  1  0
 18 21  1  0
 21 22  1  0
 22 23  1  0
 22 24  1  0
 22 25  1  0
 25 26  1  0
 25 27  1  0
 10 28  2  0
 28 29  1  0
 28 30  1  0
 30 31  1  0
 30 32  2  0
 32 33  1  0
 33 34  1  0
 34 35  1  0
 34 36  1  0
 34 37  1  0
 37 38  1  0
 37 39  1  0
 37 40  1  0
 40 41  1  0
 41 42  1  0
 41 43  1  0
 41 44  1  0
 44 45  1  0
 44 46  1  0
  2 47  2  0
 47 48  1  0
 47 49  1  0
 49 50  1  0
 50 51  1  0
 51 52  1  0
 51 53  2  0
 53 54  1  0
 53 55  1  0
 55 56  1  0
 32  7  1  0
 44 33  1  0
 55 49  2  0
 25 14  1  0
M  END
>  <UniqueID>  (83) 
74

>  <SMILES>  (83) 
O=C(/C=C\c1cccs1)Nc1cc(S(=O)(=O)N2CCOCC2)ccc1N1CCOCC1

>  <Energy>  (83) 
116.84455260528472

>  <Genealogy>  (83) 
O=C(/C=C\c1cccs1)Nc1cc(S(=O)(=O)N2CCOCC2)ccc1N1CCOCC1 (cis-trans isomerization)
O=C(/C=C\c1cccs1)Nc1cc(S(=O)(=O)N2CCOCC2)ccc1N1CCOCC1 (3D coordinates assigned)
O=C(/C=C\c1cccs1)Nc1cc(S(=O)(=O)N2CCOCC2)ccc1N1CCOCC1 (nonaromatic ring conformer: 116.84455260528472 kcal/mol)

>  <smiles>  (83) 
O=C(C=Cc1cccs1)Nc1cc(S(=O)(=O)N2CCOCC2)ccc1N1CCOCC1

>  <score_type>  (83) 
oracle

>  <origin>  (83) 
adg

>  <m_score__min__energy>  (83) 
-10.119999999999999

>  <m_primary>  (83) 
energy

$$$$
83:0
     RDKit          3D

 44 46  0  0  0  0  0  0  0  0999 V2000
   63.9431   33.2154   46.8770 H   0  0  0  0  0  0  0  0  0  0  0  0
   62.9110   32.9170   47.1130 C   0  0  0  0  0  0  0  0  0  0  0  0
   62.6530   31.6410   47.6200 C   0  0  0  0  0  0  0  0  0  0  0  0
   63.4805   30.9308   47.7644 H   0  0  0  0  0  0  0  0  0  0  0  0
   61.3400   31.2620   47.9460 C   0  0  0  0  0  0  0  0  0  0  0  0
   61.0400   29.9320   48.3960 N   0  0  0  0  0  0  0  0  0  0  0  0
   60.5450   28.9520   47.6910 C   0  0  0  0  0  0  0  0  0  0  0  0
   60.7320   28.9660   46.3040 C   0  0  0  0  0  0  0  0  0  0  0  0
   61.2877   29.7885   45.8301 H   0  0  0  0  0  0  0  0  0  0  0  0
   60.2110   27.9330   45.5250 C   0  0  0  0  0  0  0  0  0  0  0  0
   60.3632   27.9329   44.4356 H   0  0  0  0  0  0  0  0  0  0  0  0
   59.4970   26.9010   46.1310 C   0  0  0  0  0  0  0  0  0  0  0  0
   59.0892   26.0773   45.5266 H   0  0  0  0  0  0  0  0  0  0  0  0
   59.3050   26.9240   47.5130 C   0  0  0  0  0  0  0  0  0  0  0  0
   58.7363   26.1181   47.9999 H   0  0  0  0  0  0  0  0  0  0  0  0
   59.8180   27.9390   48.2620 N   0  0  0  0  0  0  0  0  0  0  0  0
   59.6050   27.9310   49.2830 H   0  0  0  0  0  0  0  0  0  0  0  0
   60.2870   32.1540   47.7070 C   0  0  0  0  0  0  0  0  0  0  0  0
   59.2522   31.8447   47.9158 H   0  0  0  0  0  0  0  0  0  0  0  0
   60.5410   33.4400   47.2030 C   0  0  0  0  0  0  0  0  0  0  0  0
   59.4010   34.3810   46.9090 C   0  0  0  0  0  0  0  0  0  0  0  0
   59.5822   34.8686   45.9398 H   0  0  0  0  0  0  0  0  0  0  0  0
   59.3506   35.1225   47.7200 H   0  0  0  0  0  0  0  0  0  0  0  0
   58.0560   33.6430   46.8510 C   0  0  0  0  0  0  0  0  0  0  0  0
   57.2421   34.3819   46.8895 H   0  0  0  0  0  0  0  0  0  0  0  0
   58.0052   32.9553   47.7080 H   0  0  0  0  0  0  0  0  0  0  0  0
   57.9190   32.8300   45.5870 C   0  0  0  0  0  0  0  0  0  0  0  0
   57.9770   33.4560   44.3320 C   0  0  0  0  0  0  0  0  0  0  0  0
   58.0843   34.5490   44.2693 H   0  0  0  0  0  0  0  0  0  0  0  0
   57.8990   32.6960   43.1620 C   0  0  0  0  0  0  0  0  0  0  0  0
   57.9385   33.1927   42.1813 H   0  0  0  0  0  0  0  0  0  0  0  0
   57.7710   31.3070   43.2350 C   0  0  0  0  0  0  0  0  0  0  0  0
   57.7005   30.7139   42.3113 H   0  0  0  0  0  0  0  0  0  0  0  0
   57.7320   30.6650   44.4830 C   0  0  0  0  0  0  0  0  0  0  0  0
   57.5750   29.1720   44.5620 C   0  0  0  0  0  0  0  0  0  0  0  0
   58.3319   28.7624   45.2471 H   0  0  0  0  0  0  0  0  0  0  0  0
   57.7072   28.7428   43.5579 H   0  0  0  0  0  0  0  0  0  0  0  0
   56.2110   28.8240   45.0670 C   0  0  0  0  0  0  0  0  0  0  0  0
   56.0050   27.7130   45.6210 O   0  0  0  0  0  0  0  0  0  0  0  0
   55.1570   29.7090   44.8830 O   0  0  0  0  0  0  0  0  0  0  0  0
   57.7980   31.4330   45.6560 C   0  0  0  0  0  0  0  0  0  0  0  0
   57.7546   30.9366   46.6367 H   0  0  0  0  0  0  0  0  0  0  0  0
   61.8610   33.8150   46.9050 C   0  0  0  0  0  0  0  0  0  0  0  0
   62.0690   34.8190   46.5065 H   0  0  0  0  0  0  0  0  0  0  0  0
  1  2  1  0
  2  3  2  0
  3  4  1  0
  3  5  1  0
  5  6  1  0
  6  7  2  0
  7  8  1  0
  8  9  1  0
  8 10  2  0
 10 11  1  0
 10 12  1  0
 12 13  1  0
 12 14  2  0
 14 15  1  0
 14 16  1  0
 16 17  1  0
  5 18  2  0
 18 19  1  0
 18 20  1  0
 20 21  1  0
 21 22  1  0
 21 23  1  0
 21 24  1  0
 24 25  1  0
 24 26  1  0
 24 27  1  0
 27 28  2  0
 28 29  1  0
 28 30  1  0
 30 31  1  0
 30 32  2  0
 32 33  1  0
 32 34  1  0
 34 35  1  0
 35 36  1  0
 35 37  1  0
 35 38  1  0
 38 39  2  0
 38 40  1  0
 34 41  2  0
 41 42  1  0
 20 43  2  0
 43 44  1  0
 43  2  1  0
 16  7  1  0
 41 27  1  0
M  CHG  1  40  -1
M  END
>  <UniqueID>  (84) 
75

>  <SMILES>  (84) 
O=C([O-])Cc1cccc(CCc2cccc(/N=c3/cccc[nH]3)c2)c1

>  <Energy>  (84) 
49.62824991497688

>  <Genealogy>  (84) 
O=C([O-])Cc1cccc(CCc2cccc(N=c3cccc[nH]3)c2)c1 (protonated)
O=C([O-])Cc1cccc(CCc2cccc(/N=c3/cccc[nH]3)c2)c1 (cis-trans isomerization)
O=C([O-])Cc1cccc(CCc2cccc(/N=c3/cccc[nH]3)c2)c1 (3D coordinates assigned)
O=C([O-])Cc1cccc(CCc2cccc(/N=c3/cccc[nH]3)c2)c1 (optimized conformer: 49.62824991497688 kcal/mol)

>  <smiles>  (84) 
O=C(O)Cc1cccc(CCc2cccc(N=c3cccc[nH]3)c2)c1

>  <score_type>  (84) 
oracle

>  <origin>  (84) 
adg

>  <m_score__min__energy>  (84) 
-11.92

>  <m_primary>  (84) 
energy

$$$$
84:0
     RDKit          3D

 50 53  0  0  0  0  0  0  0  0999 V2000
   55.9700   21.8670   43.5860 O   0  0  0  0  0  0  0  0  0  0  0  0
   56.4250   22.1000   44.7380 C   0  0  0  0  0  0  0  0  0  0  0  0
   57.8770   21.8870   45.0270 C   0  0  0  0  0  0  0  0  0  0  0  0
   58.6590   23.0200   44.6480 O   0  0  0  0  0  0  0  0  0  0  0  0
   58.6130   24.2790   45.2710 C   0  0  0  0  0  0  0  0  0  0  0  0
   59.7490   24.7180   45.9620 C   0  0  0  0  0  0  0  0  0  0  0  0
   59.7680   25.9790   46.5660 C   0  0  0  0  0  0  0  0  0  0  0  0
   58.6470   26.8100   46.4910 C   0  0  0  0  0  0  0  0  0  0  0  0
   57.4990   26.3770   45.8170 C   0  0  0  0  0  0  0  0  0  0  0  0
   56.3000   27.2250   45.7830 C   0  0  0  0  0  0  0  0  0  0  0  0
   55.1760   26.6980   45.9890 O   0  0  0  0  0  0  0  0  0  0  0  0
   56.3740   28.6330   45.5290 N   0  0  0  0  0  0  0  0  0  0  0  0
   55.6710   29.3480   44.4640 C   0  0  0  0  0  0  0  0  0  0  0  0
   56.6300   30.1230   43.5490 C   0  0  0  0  0  0  0  0  0  0  0  0
   57.2420   31.3060   44.2380 C   0  0  0  0  0  0  0  0  0  0  0  0
   57.0890   31.5380   45.5690 N   0  0  0  0  0  0  0  0  0  0  0  0
   57.8030   32.6570   45.7500 C   0  0  0  0  0  0  0  0  0  0  0  0
   58.0190   33.3460   46.9420 C   0  0  0  0  0  0  0  0  0  0  0  0
   58.8150   34.5050   46.8930 C   0  0  0  0  0  0  0  0  0  0  0  0
   59.3750   34.9340   45.6670 C   0  0  0  0  0  0  0  0  0  0  0  0
   59.1470   34.2050   44.4840 C   0  0  0  0  0  0  0  0  0  0  0  0
   58.3500   33.0650   44.5720 C   0  0  0  0  0  0  0  0  0  0  0  0
   58.0130   32.2200   43.5880 N   0  0  0  0  0  0  0  0  0  0  0  0
   57.4760   25.1090   45.2220 C   0  0  0  0  0  0  0  0  0  0  0  0
   55.5850   22.6580   45.7550 N   0  0  0  0  0  0  0  0  0  0  0  0
   54.1770   22.9080   45.6410 C   0  0  0  0  0  0  0  0  0  0  0  0
   53.7280   23.8110   44.6690 C   0  0  0  0  0  0  0  0  0  0  0  0
   52.3640   24.0920   44.5400 C   0  0  0  0  0  0  0  0  0  0  0  0
   51.4410   23.4860   45.3980 C   0  0  0  0  0  0  0  0  0  0  0  0
   51.8830   22.6040   46.3880 C   0  0  0  0  0  0  0  0  0  0  0  0
   53.2470   22.3190   46.5170 C   0  0  0  0  0  0  0  0  0  0  0  0
   58.0043   21.7096   46.1051 H   0  0  0  0  0  0  0  0  0  0  0  0
   58.2209   21.0202   44.4435 H   0  0  0  0  0  0  0  0  0  0  0  0
   60.6326   24.0664   46.0302 H   0  0  0  0  0  0  0  0  0  0  0  0
   60.6673   26.3176   47.1013 H   0  0  0  0  0  0  0  0  0  0  0  0
   58.6667   27.8041   46.9615 H   0  0  0  0  0  0  0  0  0  0  0  0
   55.1145   28.6191   43.8565 H   0  0  0  0  0  0  0  0  0  0  0  0
   54.9960   30.0764   44.9372 H   0  0  0  0  0  0  0  0  0  0  0  0
   57.4348   29.4464   43.2258 H   0  0  0  0  0  0  0  0  0  0  0  0
   56.0501   30.4955   42.6917 H   0  0  0  0  0  0  0  0  0  0  0  0
   57.5821   32.9956   47.8887 H   0  0  0  0  0  0  0  0  0  0  0  0
   59.0026   35.0799   47.8118 H   0  0  0  0  0  0  0  0  0  0  0  0
   59.9930   35.8435   45.6375 H   0  0  0  0  0  0  0  0  0  0  0  0
   59.5821   34.5237   43.5253 H   0  0  0  0  0  0  0  0  0  0  0  0
   56.5651   24.7596   44.7138 H   0  0  0  0  0  0  0  0  0  0  0  0
   54.4526   24.3022   44.0030 H   0  0  0  0  0  0  0  0  0  0  0  0
   52.0173   24.7898   43.7635 H   0  0  0  0  0  0  0  0  0  0  0  0
   50.3677   23.7033   45.2938 H   0  0  0  0  0  0  0  0  0  0  0  0
   51.1572   22.1329   47.0672 H   0  0  0  0  0  0  0  0  0  0  0  0
   53.5926   21.6333   47.3046 H   0  0  0  0  0  0  0  0  0  0  0  0
  1  2  2  0
  2  3  1  0
  3  4  1  0
  4  5  1  0
  5  6  2  0
  6  7  1  0
  7  8  2  0
  8  9  1  0
  9 10  1  0
 10 11  2  0
 10 12  1  0
 12 13  1  0
 13 14  1  0
 14 15  1  0
 15 16  2  0
 16 17  1  0
 17 18  2  0
 18 19  1  0
 19 20  2  0
 20 21  1  0
 21 22  2  0
 22 23  1  0
  9 24  2  0
  2 25  1  0
 25 26  1  0
 26 27  2  0
 27 28  1  0
 28 29  2  0
 29 30  1  0
 30 31  2  0
 24  5  1  0
 31 26  1  0
 23 15  1  0
 22 17  1  0
  3 32  1  0
  3 33  1  0
  6 34  1  0
  7 35  1  0
  8 36  1  0
 13 37  1  0
 13 38  1  0
 14 39  1  0
 14 40  1  0
 18 41  1  0
 19 42  1  0
 20 43  1  0
 21 44  1  0
 24 45  1  0
 27 46  1  0
 28 47  1  0
 29 48  1  0
 30 49  1  0
 31 50  1  0
M  CHG  3  12  -1  23  -1  25  -1
M  END
>  <UniqueID>  (85) 
76

>  <SMILES>  (85) 
O=C(COc1cccc(C(=O)[N-]CCc2nc3ccccc3[n-]2)c1)[N-]c1ccccc1

>  <Energy>  (85) 
91.77424177374156

>  <Genealogy>  (85) 
O=C(COc1cccc(C(=O)[N-]CCc2nc3ccccc3[n-]2)c1)[N-]c1ccccc1 (protonated)
O=C(COc1cccc(C(=O)[N-]CCc2nc3ccccc3[n-]2)c1)[N-]c1ccccc1 (3D coordinates assigned)
O=C(COc1cccc(C(=O)[N-]CCc2nc3ccccc3[n-]2)c1)[N-]c1ccccc1 (optimized conformer: 91.77424177374156 kcal/mol)

>  <smiles>  (85) 
O=C(COc1cccc(C(=O)NCCc2nc3ccccc3[nH]2)c1)Nc1ccccc1

>  <score_type>  (85) 
oracle

>  <origin>  (85) 
adg

>  <m_score__min__energy>  (85) 
-12.94

>  <m_primary>  (85) 
energy

$$$$
85:0
     RDKit          3D

 44 46  0  0  0  0  0  0  0  0999 V2000
   55.8940   19.5130   44.4890 C   0  0  0  0  0  0  0  0  0  0  0  0
   56.1910   20.6610   43.7000 O   0  0  0  0  0  0  0  0  0  0  0  0
   56.9210   21.7750   44.1470 C   0  0  0  0  0  0  0  0  0  0  0  0
   58.2410   21.6420   44.6150 C   0  0  0  0  0  0  0  0  0  0  0  0
   58.9610   22.7460   45.0770 C   0  0  0  0  0  0  0  0  0  0  0  0
   60.2760   22.5390   45.4980 O   0  0  0  0  0  0  0  0  0  0  0  0
   58.3540   24.0180   45.0990 C   0  0  0  0  0  0  0  0  0  0  0  0
   59.1990   25.4390   45.7300 S   0  0  0  0  0  0  0  0  0  0  0  0
   60.6290   25.0720   46.0050 O   0  0  0  0  0  0  0  0  0  0  0  0
   58.5570   25.9060   47.0070 O   0  0  0  0  0  0  0  0  0  0  0  0
   59.1770   26.7460   44.5900 N   0  0  0  0  0  0  0  0  0  0  0  0
   58.6600   28.0600   44.8440 C   0  0  0  0  0  0  0  0  0  0  0  0
   57.5270   28.5600   44.1780 C   0  0  0  0  0  0  0  0  0  0  0  0
   57.0670   29.8540   44.4450 C   0  0  0  0  0  0  0  0  0  0  0  0
   57.7190   30.6590   45.3830 C   0  0  0  0  0  0  0  0  0  0  0  0
   57.2370   31.9570   45.6080 O   0  0  0  0  0  0  0  0  0  0  0  0
   58.0300   33.0920   45.8370 C   0  0  0  0  0  0  0  0  0  0  0  0
   58.5200   33.8840   44.7810 C   0  0  0  0  0  0  0  0  0  0  0  0
   59.3220   34.9970   45.0510 C   0  0  0  0  0  0  0  0  0  0  0  0
   59.6490   35.3220   46.3700 C   0  0  0  0  0  0  0  0  0  0  0  0
   59.1810   34.5280   47.4210 C   0  0  0  0  0  0  0  0  0  0  0  0
   58.3790   33.4140   47.1540 C   0  0  0  0  0  0  0  0  0  0  0  0
   58.8650   30.1670   46.0340 C   0  0  0  0  0  0  0  0  0  0  0  0
   59.3250   28.8760   45.7670 C   0  0  0  0  0  0  0  0  0  0  0  0
   57.0480   24.1590   44.6070 C   0  0  0  0  0  0  0  0  0  0  0  0
   56.3180   23.0550   44.1330 C   0  0  0  0  0  0  0  0  0  0  0  0
   54.9710   23.2540   43.6510 N   0  0  0  0  0  0  0  0  0  0  0  0
   54.7230   23.3260   42.4300 O   0  0  0  0  0  0  0  0  0  0  0  0
   53.9300   23.3990   44.5390 O   0  0  0  0  0  0  0  0  0  0  0  0
   55.9614   19.7737   45.5555 H   0  0  0  0  0  0  0  0  0  0  0  0
   54.8761   19.1643   44.2604 H   0  0  0  0  0  0  0  0  0  0  0  0
   56.6151   18.7144   44.2604 H   0  0  0  0  0  0  0  0  0  0  0  0
   58.7152   20.6494   44.6171 H   0  0  0  0  0  0  0  0  0  0  0  0
   61.0610   23.0860   45.1720 H   0  0  0  0  0  0  0  0  0  0  0  0
   57.0005   27.9316   43.4446 H   0  0  0  0  0  0  0  0  0  0  0  0
   56.1855   30.2407   43.9126 H   0  0  0  0  0  0  0  0  0  0  0  0
   58.2712   33.6264   43.7409 H   0  0  0  0  0  0  0  0  0  0  0  0
   59.6962   35.6178   44.2236 H   0  0  0  0  0  0  0  0  0  0  0  0
   60.2743   36.2020   46.5812 H   0  0  0  0  0  0  0  0  0  0  0  0
   59.4438   34.7797   48.4591 H   0  0  0  0  0  0  0  0  0  0  0  0
   58.0203   32.7871   47.9836 H   0  0  0  0  0  0  0  0  0  0  0  0
   59.4004   30.8014   46.7557 H   0  0  0  0  0  0  0  0  0  0  0  0
   60.2175   28.4968   46.2863 H   0  0  0  0  0  0  0  0  0  0  0  0
   56.5843   25.1564   44.5917 H   0  0  0  0  0  0  0  0  0  0  0  0
  1  2  1  0
  2  3  1  0
  3  4  2  0
  4  5  1  0
  5  6  1  0
  5  7  2  0
  7  8  1  0
  8  9  2  0
  8 10  2  0
  8 11  1  0
 11 12  1  0
 12 13  2  0
 13 14  1  0
 14 15  2  0
 15 16  1  0
 16 17  1  0
 17 18  2  0
 18 19  1  0
 19 20  2  0
 20 21  1  0
 21 22  2  0
 15 23  1  0
 23 24  2  0
  7 25  1  0
 25 26  2  0
 26 27  1  0
 27 28  2  0
 27 29  1  0
 26  3  1  0
 24 12  1  0
 22 17  1  0
  1 30  1  0
  1 31  1  0
  1 32  1  0
  4 33  1  0
  6 34  1  0
 13 35  1  0
 14 36  1  0
 18 37  1  0
 19 38  1  0
 20 39  1  0
 21 40  1  0
 22 41  1  0
 23 42  1  0
 24 43  1  0
 25 44  1  0
M  CHG  3  11  -1  27   1  29  -1
M  END
>  <UniqueID>  (86) 
77

>  <SMILES>  (86) 
COc1cc(O)c(S(=O)(=O)[N-]c2ccc(Oc3ccccc3)cc2)cc1[N+](=O)[O-]

>  <Energy>  (86) 
61.180508771674795

>  <Genealogy>  (86) 
COc1cc(O)c(S(=O)(=O)[N-]c2ccc(Oc3ccccc3)cc2)cc1[N+](=O)[O-] (protonated)
COc1cc(O)c(S(=O)(=O)[N-]c2ccc(Oc3ccccc3)cc2)cc1[N+](=O)[O-] (3D coordinates assigned)
COc1cc(O)c(S(=O)(=O)[N-]c2ccc(Oc3ccccc3)cc2)cc1[N+](=O)[O-] (optimized conformer: 61.180508771674795 kcal/mol)

>  <smiles>  (86) 
COc1cc(O)c(S(=O)(=O)Nc2ccc(Oc3ccccc3)cc2)cc1[N+](=O)[O-]

>  <score_type>  (86) 
oracle

>  <origin>  (86) 
adg

>  <m_score__min__energy>  (86) 
-10.550000000000001

>  <m_primary>  (86) 
energy

$$$$
86:0
     RDKit          3D

 41 43  0  0  0  0  0  0  0  0999 V2000
   55.1930   30.0660   43.7960 C   0  0  0  0  0  0  0  0  0  0  0  0
   56.5830   29.8380   44.3240 C   0  0  0  0  0  0  0  0  0  0  0  0
   57.6020   30.7580   44.0350 C   0  0  0  0  0  0  0  0  0  0  0  0
   58.8970   30.5540   44.5140 C   0  0  0  0  0  0  0  0  0  0  0  0
   59.1920   29.4350   45.2940 C   0  0  0  0  0  0  0  0  0  0  0  0
   58.1870   28.5030   45.6110 C   0  0  0  0  0  0  0  0  0  0  0  0
   58.4400   27.3650   46.4110 C   0  0  0  0  0  0  0  0  0  0  0  0
   59.7450   27.1260   47.0580 C   0  0  0  0  0  0  0  0  0  0  0  0
   60.6720   26.6020   46.3870 O   0  0  0  0  0  0  0  0  0  0  0  0
   59.9660   27.4180   48.4450 N   0  0  0  0  0  0  0  0  0  0  0  0
   60.7320   28.5500   48.9680 C   0  0  0  0  0  0  0  0  0  0  0  0
   60.2660   29.8500   48.3650 C   0  0  0  0  0  0  0  0  0  0  0  0
   58.9450   30.2880   48.5540 C   0  0  0  0  0  0  0  0  0  0  0  0
   58.5330   31.5240   48.0510 C   0  0  0  0  0  0  0  0  0  0  0  0
   59.4340   32.3340   47.3480 C   0  0  0  0  0  0  0  0  0  0  0  0
   58.9140   33.8980   46.7270 S   0  0  0  0  0  0  0  0  0  0  0  0
   57.2280   33.8420   46.3520 N   0  0  0  0  0  0  0  0  0  0  0  0
   59.6910   34.2390   45.4870 O   0  0  0  0  0  0  0  0  0  0  0  0
   59.1650   34.9610   47.7590 O   0  0  0  0  0  0  0  0  0  0  0  0
   60.7430   31.8860   47.1280 C   0  0  0  0  0  0  0  0  0  0  0  0
   61.1570   30.6500   47.6320 C   0  0  0  0  0  0  0  0  0  0  0  0
   57.4070   26.4500   46.6520 C   0  0  0  0  0  0  0  0  0  0  0  0
   56.1340   26.6870   46.1340 C   0  0  0  0  0  0  0  0  0  0  0  0
   55.1970   25.8790   46.3650 O   0  0  0  0  0  0  0  0  0  0  0  0
   55.8990   27.7960   45.3860 N   0  0  0  0  0  0  0  0  0  0  0  0
   56.8760   28.7030   45.1070 C   0  0  0  0  0  0  0  0  0  0  0  0
   54.4950   30.1805   44.6384 H   0  0  0  0  0  0  0  0  0  0  0  0
   55.1792   30.9784   43.1817 H   0  0  0  0  0  0  0  0  0  0  0  0
   54.8884   29.2058   43.1817 H   0  0  0  0  0  0  0  0  0  0  0  0
   57.3787   31.6467   43.4264 H   0  0  0  0  0  0  0  0  0  0  0  0
   59.6892   31.2790   44.2755 H   0  0  0  0  0  0  0  0  0  0  0  0
   60.2166   29.2808   45.6632 H   0  0  0  0  0  0  0  0  0  0  0  0
   60.6049   28.5952   50.0597 H   0  0  0  0  0  0  0  0  0  0  0  0
   61.7903   28.4046   48.7058 H   0  0  0  0  0  0  0  0  0  0  0  0
   58.2313   29.6543   49.1009 H   0  0  0  0  0  0  0  0  0  0  0  0
   57.4981   31.8624   48.2073 H   0  0  0  0  0  0  0  0  0  0  0  0
   56.9930   32.8430   46.1510 H   0  0  0  0  0  0  0  0  0  0  0  0
   56.7130   34.1020   47.2220 H   0  0  0  0  0  0  0  0  0  0  0  0
   61.4471   32.5090   46.5568 H   0  0  0  0  0  0  0  0  0  0  0  0
   62.1853   30.3025   47.4536 H   0  0  0  0  0  0  0  0  0  0  0  0
   57.5996   25.5462   47.2487 H   0  0  0  0  0  0  0  0  0  0  0  0
  1  2  1  0
  2  3  2  0
  3  4  1  0
  4  5  2  0
  5  6  1  0
  6  7  1  0
  7  8  1  0
  8  9  2  0
  8 10  1  0
 10 11  1  0
 11 12  1  0
 12 13  2  0
 13 14  1  0
 14 15  2  0
 15 16  1  0
 16 17  1  0
 16 18  2  0
 16 19  2  0
 15 20  1  0
 20 21  2  0
  7 22  2  0
 22 23  1  0
 23 24  2  0
 23 25  1  0
 25 26  1  0
 26  2  1  0
 26  6  2  0
 21 12  1  0
  1 27  1  0
  1 28  1  0
  1 29  1  0
  3 30  1  0
  4 31  1  0
  5 32  1  0
 11 33  1  0
 11 34  1  0
 13 35  1  0
 14 36  1  0
 17 37  1  0
 17 38  1  0
 20 39  1  0
 21 40  1  0
 22 41  1  0
M  CHG  2  10  -1  25  -1
M  END
>  <UniqueID>  (87) 
78

>  <SMILES>  (87) 
Cc1cccc2c(C(=O)[N-]Cc3ccc(S(N)(=O)=O)cc3)cc(=O)[n-]c12

>  <Energy>  (87) 
49.03501682687414

>  <Genealogy>  (87) 
Cc1cccc2c(C(=O)[N-]Cc3ccc(S(N)(=O)=O)cc3)cc(=O)[n-]c12 (protonated)
Cc1cccc2c(C(=O)[N-]Cc3ccc(S(N)(=O)=O)cc3)cc(=O)[n-]c12 (3D coordinates assigned)
Cc1cccc2c(C(=O)[N-]Cc3ccc(S(N)(=O)=O)cc3)cc(=O)[n-]c12 (optimized conformer: 49.03501682687414 kcal/mol)

>  <smiles>  (87) 
Cc1cccc2c(C(=O)NCc3ccc(S(N)(=O)=O)cc3)cc(=O)[nH]c12

>  <score_type>  (87) 
oracle

>  <origin>  (87) 
adg

>  <m_score__min__energy>  (87) 
-11.82

>  <m_primary>  (87) 
energy

$$$$
87:0
     RDKit          3D

 25 27  0  0  0  0  0  0  0  0999 V2000
   55.5160   24.2270   46.8390 O   0  0  0  0  0  0  0  0  0  0  0  0
   55.9230   25.3220   46.3710 C   0  0  0  0  0  0  0  0  0  0  0  0
   55.0870   26.3360   46.0580 N   0  0  0  0  0  0  0  0  0  0  0  0
   55.9270   27.2810   45.6100 C   0  0  0  0  0  0  0  0  0  0  0  0
   55.5200   28.5380   45.1800 O   0  0  0  0  0  0  0  0  0  0  0  0
   57.2230   26.8260   45.6520 C   0  0  0  0  0  0  0  0  0  0  0  0
   58.4540   27.6000   45.3040 C   0  0  0  0  0  0  0  0  0  0  0  0
   58.3690   28.9840   45.8690 C   0  0  0  0  0  0  0  0  0  0  0  0
   58.6640   29.3690   47.1760 C   0  0  0  0  0  0  0  0  0  0  0  0
   58.5560   30.7120   47.3100 N   0  0  0  0  0  0  0  0  0  0  0  0
   58.2090   31.1700   46.0960 C   0  0  0  0  0  0  0  0  0  0  0  0
   58.0130   32.4690   45.7520 N   0  0  0  0  0  0  0  0  0  0  0  0
   57.6850   32.7720   44.4580 C   0  0  0  0  0  0  0  0  0  0  0  0
   57.5580   31.7490   43.4930 C   0  0  0  0  0  0  0  0  0  0  0  0
   57.7660   30.4080   43.8610 C   0  0  0  0  0  0  0  0  0  0  0  0
   58.0910   30.1530   45.1900 C   0  0  0  0  0  0  0  0  0  0  0  0
   57.2320   25.5770   46.1500 N   0  0  0  0  0  0  0  0  0  0  0  0
   59.3346   27.0900   45.7218 H   0  0  0  0  0  0  0  0  0  0  0  0
   58.5420   27.6630   44.2093 H   0  0  0  0  0  0  0  0  0  0  0  0
   58.9451   28.6786   47.9849 H   0  0  0  0  0  0  0  0  0  0  0  0
   58.7250   31.2750   48.1740 H   0  0  0  0  0  0  0  0  0  0  0  0
   58.1130   33.2280   46.4620 H   0  0  0  0  0  0  0  0  0  0  0  0
   57.5192   33.8200   44.1678 H   0  0  0  0  0  0  0  0  0  0  0  0
   57.2967   32.0009   42.4546 H   0  0  0  0  0  0  0  0  0  0  0  0
   57.6755   29.5930   43.1278 H   0  0  0  0  0  0  0  0  0  0  0  0
  1  2  2  0
  2  3  1  0
  3  4  1  0
  4  5  1  0
  4  6  2  0
  6  7  1  0
  7  8  1  0
  8  9  2  0
  9 10  1  0
 10 11  1  0
 11 12  2  0
 12 13  1  0
 13 14  2  0
 14 15  1  0
 15 16  2  0
  6 17  1  0
 17  2  1  0
 16  8  1  0
 16 11  1  0
  7 18  1  0
  7 19  1  0
  9 20  1  0
 10 21  1  0
 12 22  1  0
 13 23  1  0
 14 24  1  0
 15 25  1  0
M  CHG  4   3  -1   5  -1  12   1  17  -1
M  END
>  <UniqueID>  (88) 
79

>  <SMILES>  (88) 
O=c1[n-]c([O-])c(Cc2c[nH]c3[nH+]cccc23)[n-]1

>  <Energy>  (88) 
88.62531891291404

>  <Genealogy>  (88) 
O=c1[n-]c([O-])c(Cc2c[nH]c3[nH+]cccc23)[n-]1 (protonated)
O=c1[n-]c([O-])c(Cc2c[nH]c3[nH+]cccc23)[n-]1 (3D coordinates assigned)
O=c1[n-]c([O-])c(Cc2c[nH]c3[nH+]cccc23)[n-]1 (optimized conformer: 88.62531891291404 kcal/mol)

>  <smiles>  (88) 
O=c1[nH]c(O)c(Cc2c[nH]c3ncccc23)[nH]1

>  <score_type>  (88) 
oracle

>  <origin>  (88) 
adg

>  <m_score__min__energy>  (88) 
-13.9

>  <m_primary>  (88) 
energy

$$$$
88:0
     RDKit          3D

 39 41  0  0  0  0  0  0  0  0999 V2000
   54.7870   26.3340   45.9870 O   0  0  0  0  0  0  0  0  0  0  0  0
   55.9990   26.0260   46.1510 C   0  0  0  0  0  0  0  0  0  0  0  0
   56.3690   24.6560   46.3630 N   0  0  0  0  0  0  0  0  0  0  0  0
   56.7500   23.7060   45.3580 C   0  0  0  0  0  0  0  0  0  0  0  0
   57.8640   22.8590   45.5130 C   0  0  0  0  0  0  0  0  0  0  0  0
   58.1850   21.9310   44.5170 C   0  0  0  0  0  0  0  0  0  0  0  0
   57.3930   21.8300   43.3710 C   0  0  0  0  0  0  0  0  0  0  0  0
   56.2720   22.6510   43.2220 C   0  0  0  0  0  0  0  0  0  0  0  0
   55.9480   23.5790   44.2150 C   0  0  0  0  0  0  0  0  0  0  0  0
   57.0340   27.0870   46.1780 C   0  0  0  0  0  0  0  0  0  0  0  0
   56.9860   28.1540   45.2640 C   0  0  0  0  0  0  0  0  0  0  0  0
   57.9630   29.1550   45.2870 C   0  0  0  0  0  0  0  0  0  0  0  0
   59.0110   29.1040   46.2250 C   0  0  0  0  0  0  0  0  0  0  0  0
   60.0210   30.0770   46.2880 O   0  0  0  0  0  0  0  0  0  0  0  0
   60.0130   31.2190   47.1460 C   0  0  0  0  0  0  0  0  0  0  0  0
   59.3750   32.4020   46.4630 C   0  0  0  0  0  0  0  0  0  0  0  0
   58.0560   32.3040   45.9880 C   0  0  0  0  0  0  0  0  0  0  0  0
   57.4550   33.3870   45.3400 C   0  0  0  0  0  0  0  0  0  0  0  0
   58.1700   34.5720   45.1480 C   0  0  0  0  0  0  0  0  0  0  0  0
   59.4870   34.6740   45.6000 C   0  0  0  0  0  0  0  0  0  0  0  0
   60.0950   33.5940   46.2500 C   0  0  0  0  0  0  0  0  0  0  0  0
   61.3790   33.7150   46.6710 F   0  0  0  0  0  0  0  0  0  0  0  0
   59.0570   28.0430   47.1360 C   0  0  0  0  0  0  0  0  0  0  0  0
   58.0810   27.0430   47.1150 C   0  0  0  0  0  0  0  0  0  0  0  0
   58.4833   22.9273   46.4195 H   0  0  0  0  0  0  0  0  0  0  0  0
   59.0631   21.2793   44.6365 H   0  0  0  0  0  0  0  0  0  0  0  0
   57.6516   21.1043   42.5858 H   0  0  0  0  0  0  0  0  0  0  0  0
   55.6444   22.5666   42.3226 H   0  0  0  0  0  0  0  0  0  0  0  0
   55.0575   24.2144   44.0992 H   0  0  0  0  0  0  0  0  0  0  0  0
   56.1732   28.2022   44.5244 H   0  0  0  0  0  0  0  0  0  0  0  0
   57.9119   29.9862   44.5683 H   0  0  0  0  0  0  0  0  0  0  0  0
   59.4454   30.9804   48.0575 H   0  0  0  0  0  0  0  0  0  0  0  0
   61.0525   31.4770   47.3966 H   0  0  0  0  0  0  0  0  0  0  0  0
   57.4930   31.3693   46.1270 H   0  0  0  0  0  0  0  0  0  0  0  0
   56.4184   33.3063   44.9810 H   0  0  0  0  0  0  0  0  0  0  0  0
   57.6951   35.4247   44.6406 H   0  0  0  0  0  0  0  0  0  0  0  0
   60.0489   35.6068   45.4446 H   0  0  0  0  0  0  0  0  0  0  0  0
   59.8694   27.9955   47.8761 H   0  0  0  0  0  0  0  0  0  0  0  0
   58.1325   26.2150   47.8373 H   0  0  0  0  0  0  0  0  0  0  0  0
  1  2  2  0
  2  3  1  0
  3  4  1  0
  4  5  2  0
  5  6  1  0
  6  7  2  0
  7  8  1  0
  8  9  2  0
  2 10  1  0
 10 11  2  0
 11 12  1  0
 12 13  2  0
 13 14  1  0
 14 15  1  0
 15 16  1  0
 16 17  2  0
 17 18  1  0
 18 19  2  0
 19 20  1  0
 20 21  2  0
 21 22  1  0
 13 23  1  0
 23 24  2  0
  9  4  1  0
 24 10  1  0
 21 16  1  0
  5 25  1  0
  6 26  1  0
  7 27  1  0
  8 28  1  0
  9 29  1  0
 11 30  1  0
 12 31  1  0
 15 32  1  0
 15 33  1  0
 17 34  1  0
 18 35  1  0
 19 36  1  0
 20 37  1  0
 23 38  1  0
 24 39  1  0
M  CHG  1   3  -1
M  END
>  <UniqueID>  (89) 
80

>  <SMILES>  (89) 
O=C([N-]c1ccccc1)c1ccc(OCc2ccccc2F)cc1

>  <Energy>  (89) 
46.69769763311095

>  <Genealogy>  (89) 
O=C([N-]c1ccccc1)c1ccc(OCc2ccccc2F)cc1 (protonated)
O=C([N-]c1ccccc1)c1ccc(OCc2ccccc2F)cc1 (3D coordinates assigned)
O=C([N-]c1ccccc1)c1ccc(OCc2ccccc2F)cc1 (optimized conformer: 46.69769763311095 kcal/mol)

>  <smiles>  (89) 
O=C(Nc1ccccc1)c1ccc(OCc2ccccc2F)cc1

>  <score_type>  (89) 
oracle

>  <origin>  (89) 
adg

>  <m_score__min__energy>  (89) 
-9.4100000000000001

>  <m_primary>  (89) 
energy

$$$$
89:0
     RDKit          3D

 45 47  0  0  0  0  0  0  0  0999 V2000
   57.3030   27.7710   45.8550 C   0  0  0  0  0  0  0  0  0  0  0  0
   57.2210   29.2190   45.7360 N   0  0  0  0  0  0  0  0  0  0  0  0
   56.2860   29.8720   44.8750 C   0  0  0  0  0  0  0  0  0  0  0  0
   55.1620   29.3460   44.6470 O   0  0  0  0  0  0  0  0  0  0  0  0
   56.6170   31.1240   44.3410 O   0  0  0  0  0  0  0  0  0  0  0  0
   57.3580   32.1180   44.9980 C   0  0  0  0  0  0  0  0  0  0  0  0
   57.6490   33.3080   44.2940 C   0  0  0  0  0  0  0  0  0  0  0  0
   58.3860   34.3410   44.8980 C   0  0  0  0  0  0  0  0  0  0  0  0
   58.7990   34.1640   46.2160 C   0  0  0  0  0  0  0  0  0  0  0  0
   59.5180   35.0180   46.9620 N   0  0  0  0  0  0  0  0  0  0  0  0
   59.6750   34.4230   48.1660 C   0  0  0  0  0  0  0  0  0  0  0  0
   59.0350   33.1860   48.1860 C   0  0  0  0  0  0  0  0  0  0  0  0
   58.9590   32.2350   49.3540 C   0  0  0  0  0  0  0  0  0  0  0  0
   59.9090   31.0130   49.2490 C   0  0  1  0  0  0  0  0  0  0  0  0
   59.2630   29.7160   49.7910 C   0  0  0  0  0  0  0  0  0  0  0  0
   60.0160   28.4830   49.2890 C   0  0  0  0  0  0  0  0  0  0  0  0
   60.0290   28.4160   47.7430 C   0  0  0  0  0  0  0  0  0  0  0  0
   59.8090   29.7350   47.0980 N   0  0  2  0  0  0  0  0  0  0  0  0
   60.2510   29.6990   45.6930 C   0  0  0  0  0  0  0  0  0  0  0  0
   60.5070   30.8140   47.8290 C   0  0  0  0  0  0  0  0  0  0  0  0
   58.4950   33.0280   46.9210 C   0  0  0  0  0  0  0  0  0  0  0  0
   57.7830   31.9760   46.3400 C   0  0  0  0  0  0  0  0  0  0  0  0
   57.3189   27.4908   46.9186 H   0  0  0  0  0  0  0  0  0  0  0  0
   56.4294   27.3130   45.3682 H   0  0  0  0  0  0  0  0  0  0  0  0
   58.2228   27.4146   45.3682 H   0  0  0  0  0  0  0  0  0  0  0  0
   57.2941   33.4275   43.2597 H   0  0  0  0  0  0  0  0  0  0  0  0
   58.6292   35.2612   44.3465 H   0  0  0  0  0  0  0  0  0  0  0  0
   59.8900   35.9510   46.6730 H   0  0  0  0  0  0  0  0  0  0  0  0
   60.2304   34.8553   49.0114 H   0  0  0  0  0  0  0  0  0  0  0  0
   59.2142   32.7915   50.2678 H   0  0  0  0  0  0  0  0  0  0  0  0
   57.9342   31.8355   49.3670 H   0  0  0  0  0  0  0  0  0  0  0  0
   60.7607   31.2491   49.9039 H   0  0  0  0  0  0  0  0  0  0  0  0
   59.2899   29.7320   50.8906 H   0  0  0  0  0  0  0  0  0  0  0  0
   58.2239   29.6640   49.4340 H   0  0  0  0  0  0  0  0  0  0  0  0
   61.0530   28.5246   49.6536 H   0  0  0  0  0  0  0  0  0  0  0  0
   59.5027   27.5872   49.6687 H   0  0  0  0  0  0  0  0  0  0  0  0
   61.0052   28.0266   47.4182 H   0  0  0  0  0  0  0  0  0  0  0  0
   59.2000   27.7607   47.4375 H   0  0  0  0  0  0  0  0  0  0  0  0
   58.7810   29.9370   47.0880 H   0  0  0  0  0  0  0  0  0  0  0  0
   61.3467   29.6098   45.6555 H   0  0  0  0  0  0  0  0  0  0  0  0
   59.7952   28.8350   45.1873 H   0  0  0  0  0  0  0  0  0  0  0  0
   59.9410   30.6254   45.1873 H   0  0  0  0  0  0  0  0  0  0  0  0
   61.5716   30.5532   47.9220 H   0  0  0  0  0  0  0  0  0  0  0  0
   60.3833   31.7509   47.2660 H   0  0  0  0  0  0  0  0  0  0  0  0
   57.5589   31.0624   46.9101 H   0  0  0  0  0  0  0  0  0  0  0  0
  1  2  1  0
  2  3  1  0
  3  4  2  0
  3  5  1  0
  5  6  1  0
  6  7  2  0
  7  8  1  0
  8  9  2  0
  9 10  1  0
 10 11  1  0
 11 12  2  0
 12 13  1  0
 13 14  1  0
 14 15  1  0
 15 16  1  0
 16 17  1  0
 17 18  1  0
 18 19  1  0
 18 20  1  0
 12 21  1  0
 21 22  2  0
 22  6  1  0
 21  9  1  0
 20 14  1  0
  1 23  1  0
  1 24  1  0
  1 25  1  0
  7 26  1  0
  8 27  1  0
 10 28  1  0
 11 29  1  0
 13 30  1  0
 13 31  1  0
 14 32  1  1
 15 33  1  0
 15 34  1  0
 16 35  1  0
 16 36  1  0
 17 37  1  0
 17 38  1  0
 18 39  1  6
 19 40  1  0
 19 41  1  0
 19 42  1  0
 20 43  1  0
 20 44  1  0
 22 45  1  0
M  CHG  2   2  -1  18   1
M  END
>  <UniqueID>  (90) 
81

>  <SMILES>  (90) 
C[N-]C(=O)Oc1ccc2[nH]cc(C[C@H]3CCC[N@H+](C)C3)c2c1

>  <Energy>  (90) 
84.2810662309356

>  <Genealogy>  (90) 
C[N-]C(=O)Oc1ccc2[nH]cc(CC3CCC[NH+](C)C3)c2c1 (protonated)
C[N-]C(=O)Oc1ccc2[nH]cc(C[C@H]3CCC[N@H+](C)C3)c2c1 (chirality)
C[N-]C(=O)Oc1ccc2[nH]cc(C[C@H]3CCC[N@H+](C)C3)c2c1 (3D coordinates assigned)
C[N-]C(=O)Oc1ccc2[nH]cc(C[C@H]3CCC[N@H+](C)C3)c2c1 (nonaromatic ring conformer: 84.2810662309356 kcal/mol)

>  <smiles>  (90) 
CNC(=O)Oc1ccc2[nH]cc(CC3CCCN(C)C3)c2c1

>  <score_type>  (90) 
oracle

>  <origin>  (90) 
adg

>  <m_score__min__energy>  (90) 
-8.0899999999999999

>  <m_primary>  (90) 
energy

$$$$
90:0
     RDKit          3D

 29 30  0  0  0  0  0  0  0  0999 V2000
   56.2832   30.6956   42.4094 H   0  0  0  0  0  0  0  0  0  0  0  0
   56.7380   30.5230   43.3960 C   0  0  0  0  0  0  0  0  0  0  0  0
   56.0140   29.6830   44.3730 C   0  0  0  0  0  0  0  0  0  0  0  0
   54.8320   29.3370   44.1100 O   0  0  0  0  0  0  0  0  0  0  0  0
   56.5970   29.2530   45.6120 N   0  0  0  0  0  0  0  0  0  0  0  0
   57.7380   28.3960   45.7600 C   0  0  0  0  0  0  0  0  0  0  0  0
   59.0100   28.9830   45.7960 C   0  0  0  0  0  0  0  0  0  0  0  0
   59.1082   30.0769   45.7340 H   0  0  0  0  0  0  0  0  0  0  0  0
   60.1540   28.1900   45.9100 C   0  0  0  0  0  0  0  0  0  0  0  0
   61.1491   28.6586   45.9194 H   0  0  0  0  0  0  0  0  0  0  0  0
   60.0350   26.8030   46.0120 C   0  0  0  0  0  0  0  0  0  0  0  0
   60.9369   26.1782   46.0908 H   0  0  0  0  0  0  0  0  0  0  0  0
   58.7710   26.2080   46.0140 C   0  0  0  0  0  0  0  0  0  0  0  0
   58.6807   25.1156   46.1064 H   0  0  0  0  0  0  0  0  0  0  0  0
   57.6180   26.9950   45.8990 C   0  0  0  0  0  0  0  0  0  0  0  0
   56.0550   26.1960   46.0300 Cl  0  0  0  0  0  0  0  0  0  0  0  0
   57.9260   31.0830   43.6630 C   0  0  0  0  0  0  0  0  0  0  0  0
   58.8164   30.6688   43.1674 H   0  0  0  0  0  0  0  0  0  0  0  0
   58.1110   32.2280   44.5870 C   0  0  0  0  0  0  0  0  0  0  0  0
   58.5350   33.5000   44.1490 C   0  0  0  0  0  0  0  0  0  0  0  0
   58.7469   33.6696   43.0830 H   0  0  0  0  0  0  0  0  0  0  0  0
   58.6870   34.5460   45.0640 C   0  0  0  0  0  0  0  0  0  0  0  0
   59.0221   35.5342   44.7159 H   0  0  0  0  0  0  0  0  0  0  0  0
   58.4150   34.3410   46.4180 C   0  0  0  0  0  0  0  0  0  0  0  0
   58.5419   35.1648   47.1358 H   0  0  0  0  0  0  0  0  0  0  0  0
   57.9820   33.0900   46.8600 C   0  0  0  0  0  0  0  0  0  0  0  0
   57.7631   32.9298   47.9260 H   0  0  0  0  0  0  0  0  0  0  0  0
   57.8260   32.0400   45.9500 C   0  0  0  0  0  0  0  0  0  0  0  0
   57.4773   31.0586   46.3040 H   0  0  0  0  0  0  0  0  0  0  0  0
  1  2  1  0
  2  3  1  0
  3  4  2  0
  3  5  1  0
  5  6  1  0
  6  7  2  0
  7  8  1  0
  7  9  1  0
  9 10  1  0
  9 11  2  0
 11 12  1  0
 11 13  1  0
 13 14  1  0
 13 15  2  0
 15 16  1  0
  2 17  2  0
 17 18  1  0
 17 19  1  0
 19 20  2  0
 20 21  1  0
 20 22  1  0
 22 23  1  0
 22 24  2  0
 24 25  1  0
 24 26  1  0
 26 27  1  0
 26 28  2  0
 28 29  1  0
 15  6  1  0
 28 19  1  0
M  CHG  1   5  -1
M  END
>  <UniqueID>  (91) 
82

>  <SMILES>  (91) 
O=C(/C=C/c1ccccc1)[N-]c1ccccc1Cl

>  <Energy>  (91) 
40.6646593725686

>  <Genealogy>  (91) 
O=C(C=Cc1ccccc1)[N-]c1ccccc1Cl (protonated)
O=C(/C=C/c1ccccc1)[N-]c1ccccc1Cl (cis-trans isomerization)
O=C(/C=C/c1ccccc1)[N-]c1ccccc1Cl (3D coordinates assigned)
O=C(/C=C/c1ccccc1)[N-]c1ccccc1Cl (optimized conformer: 40.6646593725686 kcal/mol)

>  <smiles>  (91) 
O=C(C=Cc1ccccc1)Nc1ccccc1Cl

>  <score_type>  (91) 
oracle

>  <origin>  (91) 
adg

>  <m_score__min__energy>  (91) 
-9.1699999999999999

>  <m_primary>  (91) 
energy

$$$$
91:0
     RDKit          3D

 45 48  0  0  0  0  0  0  0  0999 V2000
   49.9590   32.7500   52.0140 O   0  0  0  0  0  0  0  0  0  0  0  0
   51.1700   32.1000   52.2170 C   0  0  0  0  0  0  0  0  0  0  0  0
   51.4610   31.5380   53.4630 C   0  0  0  0  0  0  0  0  0  0  0  0
   52.6800   30.8830   53.6700 C   0  0  0  0  0  0  0  0  0  0  0  0
   53.6190   30.7840   52.6280 C   0  0  0  0  0  0  0  0  0  0  0  0
   54.9080   30.0980   52.8400 C   0  0  0  0  0  0  0  0  0  0  0  0
   56.1030   30.7280   52.8400 N   0  0  0  0  0  0  0  0  0  0  0  0
   56.9790   29.7290   53.0550 C   0  0  0  0  0  0  0  0  0  0  0  0
   58.4740   29.9060   53.1100 C   0  0  0  0  0  0  0  0  0  0  0  0
   59.1170   29.8560   51.7790 N   0  0  0  0  0  0  0  0  0  0  0  0
   60.3690   30.6450   51.7120 C   0  0  0  0  0  0  0  0  0  0  0  0
   60.7770   30.9610   50.2710 C   0  0  0  0  0  0  0  0  0  0  0  0
   59.6940   31.6830   49.5910 N   0  0  0  0  0  0  0  0  0  0  0  0
   59.9880   32.6250   48.5360 C   0  0  0  0  0  0  0  0  0  0  0  0
   58.9630   33.4040   47.9640 C   0  0  0  0  0  0  0  0  0  0  0  0
   59.2500   34.3150   46.9440 C   0  0  0  0  0  0  0  0  0  0  0  0
   60.5590   34.4610   46.4810 C   0  0  0  0  0  0  0  0  0  0  0  0
   61.5880   33.6950   47.0390 C   0  0  0  0  0  0  0  0  0  0  0  0
   63.2310   33.8750   46.4560 Cl  0  0  0  0  0  0  0  0  0  0  0  0
   61.3040   32.7820   48.0620 C   0  0  0  0  0  0  0  0  0  0  0  0
   58.3030   31.4270   49.9910 C   0  0  0  0  0  0  0  0  0  0  0  0
   58.1760   30.0440   50.6470 C   0  0  0  0  0  0  0  0  0  0  0  0
   56.2970   28.5390   53.1810 C   0  0  0  0  0  0  0  0  0  0  0  0
   55.0220   28.8020   53.0430 O   0  0  0  0  0  0  0  0  0  0  0  0
   53.3170   31.3520   51.3780 C   0  0  0  0  0  0  0  0  0  0  0  0
   52.0970   32.0060   51.1760 C   0  0  0  0  0  0  0  0  0  0  0  0
   50.7306   31.6107   54.2823 H   0  0  0  0  0  0  0  0  0  0  0  0
   52.9049   30.4433   54.6529 H   0  0  0  0  0  0  0  0  0  0  0  0
   58.6937   30.8818   53.5678 H   0  0  0  0  0  0  0  0  0  0  0  0
   58.8800   29.0713   53.7002 H   0  0  0  0  0  0  0  0  0  0  0  0
   60.2211   31.5908   52.2538 H   0  0  0  0  0  0  0  0  0  0  0  0
   61.1711   30.0447   52.1661 H   0  0  0  0  0  0  0  0  0  0  0  0
   61.6832   31.5845   50.2770 H   0  0  0  0  0  0  0  0  0  0  0  0
   60.9760   30.0203   49.7367 H   0  0  0  0  0  0  0  0  0  0  0  0
   57.9290   33.2943   48.3230 H   0  0  0  0  0  0  0  0  0  0  0  0
   58.4423   34.9188   46.5046 H   0  0  0  0  0  0  0  0  0  0  0  0
   60.7813   35.1784   45.6773 H   0  0  0  0  0  0  0  0  0  0  0  0
   62.1162   32.1824   48.4989 H   0  0  0  0  0  0  0  0  0  0  0  0
   57.9851   32.1981   50.7082 H   0  0  0  0  0  0  0  0  0  0  0  0
   57.6651   31.4550   49.0953 H   0  0  0  0  0  0  0  0  0  0  0  0
   57.1483   29.9253   51.0208 H   0  0  0  0  0  0  0  0  0  0  0  0
   58.4218   29.2914   49.8834 H   0  0  0  0  0  0  0  0  0  0  0  0
   56.7418   27.5497   53.3639 H   0  0  0  0  0  0  0  0  0  0  0  0
   54.0434   31.2818   50.5549 H   0  0  0  0  0  0  0  0  0  0  0  0
   51.8670   32.4474   50.1950 H   0  0  0  0  0  0  0  0  0  0  0  0
  1  2  1  0
  2  3  2  0
  3  4  1  0
  4  5  2  0
  5  6  1  0
  6  7  2  0
  7  8  1  0
  8  9  1  0
  9 10  1  0
 10 11  1  0
 11 12  1  0
 12 13  1  0
 13 14  1  0
 14 15  2  0
 15 16  1  0
 16 17  2  0
 17 18  1  0
 18 19  1  0
 18 20  2  0
 13 21  1  0
 21 22  1  0
  8 23  2  0
 23 24  1  0
  5 25  1  0
 25 26  2  0
 26  2  1  0
 24  6  1  0
 22 10  1  0
 20 14  1  0
  3 27  1  0
  4 28  1  0
  9 29  1  0
  9 30  1  0
 11 31  1  0
 11 32  1  0
 12 33  1  0
 12 34  1  0
 15 35  1  0
 16 36  1  0
 17 37  1  0
 20 38  1  0
 21 39  1  0
 21 40  1  0
 22 41  1  0
 22 42  1  0
 23 43  1  0
 25 44  1  0
 26 45  1  0
M  CHG  1   1  -1
M  END
>  <UniqueID>  (92) 
83

>  <SMILES>  (92) 
[O-]c1ccc(-c2nc(CN3CCN(c4cccc(Cl)c4)CC3)co2)cc1

>  <Energy>  (92) 
89.0573572134985

>  <Genealogy>  (92) 
[O-]c1ccc(-c2nc(CN3CCN(c4cccc(Cl)c4)CC3)co2)cc1 (protonated)
[O-]c1ccc(-c2nc(CN3CCN(c4cccc(Cl)c4)CC3)co2)cc1 (3D coordinates assigned)
[O-]c1ccc(-c2nc(CN3CCN(c4cccc(Cl)c4)CC3)co2)cc1 (nonaromatic ring conformer: 89.0573572134985 kcal/mol)

>  <smiles>  (92) 
Oc1ccc(-c2nc(CN3CCN(c4cccc(Cl)c4)CC3)co2)cc1

>  <score_type>  (92) 
oracle

>  <origin>  (92) 
adg

>  <m_score__min__energy>  (92) 
-11.779999999999999

>  <m_primary>  (92) 
energy

$$$$
92:0
     RDKit          3D

 29 30  0  0  0  0  0  0  0  0999 V2000
   57.2454   32.0276   42.4067 H   0  0  0  0  0  0  0  0  0  0  0  0
   57.4080   31.5600   43.3890 C   0  0  0  0  0  0  0  0  0  0  0  0
   57.0190   30.2340   43.6020 C   0  0  0  0  0  0  0  0  0  0  0  0
   56.5618   29.6605   42.7822 H   0  0  0  0  0  0  0  0  0  0  0  0
   57.2080   29.6290   44.8560 C   0  0  0  0  0  0  0  0  0  0  0  0
   56.8380   28.2590   45.0930 N   0  0  0  0  0  0  0  0  0  0  0  0
   56.0740   27.8540   44.5060 H   0  0  0  0  0  0  0  0  0  0  0  0
   57.5310   27.3830   45.9960 C   0  0  0  0  0  0  0  0  0  0  0  0
   58.6620   27.7000   46.4540 O   0  0  0  0  0  0  0  0  0  0  0  0
   56.9510   26.0860   46.3660 C   0  0  0  0  0  0  0  0  0  0  0  0
   55.6450   25.7720   46.2450 N   0  0  0  0  0  0  0  0  0  0  0  0
   55.5150   24.5280   46.6800 N   0  0  0  0  0  0  0  0  0  0  0  0
   56.7480   24.1390   47.0480 C   0  0  0  0  0  0  0  0  0  0  0  0
   57.0110   22.9650   47.5290 N   0  0  0  0  0  0  0  0  0  0  0  0
   57.0030   21.7570   46.7140 C   0  0  0  0  0  0  0  0  0  0  0  0
   56.9971   20.8730   47.3687 H   0  0  0  0  0  0  0  0  0  0  0  0
   56.1048   21.7490   46.0791 H   0  0  0  0  0  0  0  0  0  0  0  0
   57.9010   21.7371   46.0791 H   0  0  0  0  0  0  0  0  0  0  0  0
   57.6390   25.0850   46.8620 O   0  0  0  0  0  0  0  0  0  0  0  0
   57.8240   30.3610   45.8790 C   0  0  0  0  0  0  0  0  0  0  0  0
   58.0038   29.8886   46.8560 H   0  0  0  0  0  0  0  0  0  0  0  0
   58.2120   31.6870   45.6680 C   0  0  0  0  0  0  0  0  0  0  0  0
   58.6825   32.2541   46.4847 H   0  0  0  0  0  0  0  0  0  0  0  0
   58.0070   32.2990   44.4270 C   0  0  0  0  0  0  0  0  0  0  0  0
   58.4150   33.6350   44.2710 O   0  0  0  0  0  0  0  0  0  0  0  0
   59.0070   34.4400   45.2870 C   0  0  0  0  0  0  0  0  0  0  0  0
   59.2410   35.7160   44.8060 F   0  0  0  0  0  0  0  0  0  0  0  0
   60.1940   33.8720   45.7140 F   0  0  0  0  0  0  0  0  0  0  0  0
   58.1410   34.5200   46.3590 F   0  0  0  0  0  0  0  0  0  0  0  0
  1  2  1  0
  2  3  2  0
  3  4  1  0
  3  5  1  0
  5  6  1  0
  6  7  1  0
  6  8  1  0
  8  9  2  0
  8 10  1  0
 10 11  2  0
 11 12  1  0
 12 13  1  0
 13 14  2  0
 14 15  1  0
 15 16  1  0
 15 17  1  0
 15 18  1  0
 13 19  1  0
  5 20  2  0
 20 21  1  0
 20 22  1  0
 22 23  1  0
 22 24  2  0
 24 25  1  0
 25 26  1  0
 26 27  1  0
 26 28  1  0
 26 29  1  0
 24  2  1  0
 19 10  1  0
M  CHG  1  12  -1
M  END
>  <UniqueID>  (93) 
84

>  <SMILES>  (93) 
C/N=c1/[n-]nc(C(=O)Nc2ccc(OC(F)(F)F)cc2)o1

>  <Energy>  (93) 
65.17541632560776

>  <Genealogy>  (93) 
CN=c1[n-]nc(C(=O)Nc2ccc(OC(F)(F)F)cc2)o1 (protonated)
C/N=c1/[n-]nc(C(=O)Nc2ccc(OC(F)(F)F)cc2)o1 (cis-trans isomerization)
C/N=c1/[n-]nc(C(=O)Nc2ccc(OC(F)(F)F)cc2)o1 (3D coordinates assigned)
C/N=c1/[n-]nc(C(=O)Nc2ccc(OC(F)(F)F)cc2)o1 (optimized conformer: 65.17541632560776 kcal/mol)

>  <smiles>  (93) 
CN=c1[nH]nc(C(=O)Nc2ccc(OC(F)(F)F)cc2)o1

>  <score_type>  (93) 
oracle

>  <origin>  (93) 
adg

>  <m_score__min__energy>  (93) 
-7.6500000000000004

>  <m_primary>  (93) 
energy

$$$$
93:0
     RDKit          3D

 50 51  0  0  0  0  0  0  0  0999 V2000
   62.9708   33.8070   45.3089 H   0  0  0  0  0  0  0  0  0  0  0  0
   63.2810   33.8300   46.3640 C   0  0  0  0  0  0  0  0  0  0  0  0
   63.5410   34.7869   46.8401 H   0  0  0  0  0  0  0  0  0  0  0  0
   63.3420   32.6960   47.0670 C   0  0  0  0  0  0  0  0  0  0  0  0
   63.0797   31.7450   46.5803 H   0  0  0  0  0  0  0  0  0  0  0  0
   63.7620   32.6940   48.5100 C   0  0  0  0  0  0  0  0  0  0  0  0
   64.3733   31.8007   48.7056 H   0  0  0  0  0  0  0  0  0  0  0  0
   64.3414   33.6079   48.7079 H   0  0  0  0  0  0  0  0  0  0  0  0
   62.6250   32.6800   49.3730 O   0  0  0  0  0  0  0  0  0  0  0  0
   61.5300   31.8020   49.2620 C   0  0  0  0  0  0  0  0  0  0  0  0
   61.6900   30.4050   49.1690 C   0  0  0  0  0  0  0  0  0  0  0  0
   62.7013   29.9752   49.1187 H   0  0  0  0  0  0  0  0  0  0  0  0
   60.5760   29.5590   49.1400 C   0  0  0  0  0  0  0  0  0  0  0  0
   60.7690   28.0980   49.1180 C   0  0  0  0  0  0  0  0  0  0  0  0
   61.0950   27.5270   50.1980 O   0  0  0  0  0  0  0  0  0  0  0  0
   60.6580   27.2760   47.8870 C   0  0  0  0  0  0  0  0  0  0  0  0
   60.8103   26.1927   48.0020 H   0  0  0  0  0  0  0  0  0  0  0  0
   60.3910   27.7180   46.6480 C   0  0  0  0  0  0  0  0  0  0  0  0
   61.2399   27.8552   45.9620 H   0  0  0  0  0  0  0  0  0  0  0  0
   59.0440   28.0330   46.1390 C   0  0  0  0  0  0  0  0  0  0  0  0
   58.0450   27.0450   46.1290 C   0  0  0  0  0  0  0  0  0  0  0  0
   58.2820   26.0215   46.4548 H   0  0  0  0  0  0  0  0  0  0  0  0
   56.7510   27.3600   45.7060 C   0  0  0  0  0  0  0  0  0  0  0  0
   55.9681   26.5874   45.7125 H   0  0  0  0  0  0  0  0  0  0  0  0
   56.4490   28.6570   45.2740 C   0  0  0  0  0  0  0  0  0  0  0  0
   55.1590   28.9720   44.8720 O   0  0  0  0  0  0  0  0  0  0  0  0
   57.4530   29.6350   45.2440 C   0  0  0  0  0  0  0  0  0  0  0  0
   57.2194   30.6517   44.8949 H   0  0  0  0  0  0  0  0  0  0  0  0
   58.7530   29.3190   45.6580 C   0  0  0  0  0  0  0  0  0  0  0  0
   59.5464   30.0791   45.6062 H   0  0  0  0  0  0  0  0  0  0  0  0
   59.2830   30.1100   49.1290 C   0  0  0  0  0  0  0  0  0  0  0  0
   58.1630   29.2860   49.0890 O   0  0  0  0  0  0  0  0  0  0  0  0
   59.1190   31.4970   49.1700 C   0  0  0  0  0  0  0  0  0  0  0  0
   58.1067   31.9261   49.1380 H   0  0  0  0  0  0  0  0  0  0  0  0
   60.2370   32.3530   49.2520 C   0  0  0  0  0  0  0  0  0  0  0  0
   60.1050   33.7500   49.3340 O   0  0  0  0  0  0  0  0  0  0  0  0
   59.6640   34.5950   48.2710 C   0  0  0  0  0  0  0  0  0  0  0  0
   58.6082   34.8572   48.4338 H   0  0  0  0  0  0  0  0  0  0  0  0
   60.2877   35.5010   48.2605 H   0  0  0  0  0  0  0  0  0  0  0  0
   59.8010   33.8990   46.9360 C   0  0  0  0  0  0  0  0  0  0  0  0
   60.7884   33.5086   46.6487 H   0  0  0  0  0  0  0  0  0  0  0  0
   58.7710   33.7330   46.0790 C   0  0  0  0  0  0  0  0  0  0  0  0
   58.9320   34.1820   44.6470 C   0  0  0  0  0  0  0  0  0  0  0  0
   59.3032   35.2173   44.6269 H   0  0  0  0  0  0  0  0  0  0  0  0
   59.6505   33.5248   44.1352 H   0  0  0  0  0  0  0  0  0  0  0  0
   57.9596   34.1311   44.1352 H   0  0  0  0  0  0  0  0  0  0  0  0
   57.4600   33.1360   46.5340 C   0  0  0  0  0  0  0  0  0  0  0  0
   57.4261   33.1206   47.6334 H   0  0  0  0  0  0  0  0  0  0  0  0
   56.6274   33.7438   46.1500 H   0  0  0  0  0  0  0  0  0  0  0  0
   57.3719   32.1090   46.1500 H   0  0  0  0  0  0  0  0  0  0  0  0
  1  2  1  0
  2  3  1  0
  2  4  2  0
  4  5  1  0
  4  6  1  0
  6  7  1  0
  6  8  1  0
  6  9  1  0
  9 10  1  0
 10 11  2  0
 11 12  1  0
 11 13  1  0
 13 14  1  0
 14 15  2  0
 14 16  1  0
 16 17  1  0
 16 18  2  0
 18 19  1  0
 18 20  1  0
 20 21  2  0
 21 22  1  0
 21 23  1  0
 23 24  1  0
 23 25  2  0
 25 26  1  0
 25 27  1  0
 27 28  1  0
 27 29  2  0
 29 30  1  0
 13 31  2  0
 31 32  1  0
 31 33  1  0
 33 34  1  0
 33 35  2  0
 35 36  1  0
 36 37  1  0
 37 38  1  0
 37 39  1  0
 37 40  1  0
 40 41  1  0
 40 42  2  3
 42 43  1  0
 43 44  1  0
 43 45  1  0
 43 46  1  0
 42 47  1  0
 47 48  1  0
 47 49  1  0
 47 50  1  0
 35 10  1  0
 29 20  1  0
M  CHG  2  26  -1  32  -1
M  END
>  <UniqueID>  (94) 
85

>  <SMILES>  (94) 
C=CCOc1cc(C(=O)/C=C\c2ccc([O-])cc2)c([O-])cc1OCC=C(C)C

>  <Energy>  (94) 
56.05926673622816

>  <Genealogy>  (94) 
C=CCOc1cc(C(=O)C=Cc2ccc([O-])cc2)c([O-])cc1OCC=C(C)C (protonated)
C=CCOc1cc(C(=O)/C=C\c2ccc([O-])cc2)c([O-])cc1OCC=C(C)C (cis-trans isomerization)
C=CCOc1cc(C(=O)/C=C\c2ccc([O-])cc2)c([O-])cc1OCC=C(C)C (3D coordinates assigned)
C=CCOc1cc(C(=O)/C=C\c2ccc([O-])cc2)c([O-])cc1OCC=C(C)C (optimized conformer: 56.05926673622816 kcal/mol)

>  <smiles>  (94) 
C=CCOc1cc(C(=O)C=Cc2ccc(O)cc2)c(O)cc1OCC=C(C)C

>  <score_type>  (94) 
oracle

>  <origin>  (94) 
adg

>  <m_score__min__energy>  (94) 
-13.07

>  <m_primary>  (94) 
energy

$$$$
