0:0
     RDKit          3D

 54 57  0  0  0  0  0  0  0  0999 V2000
   54.8260   30.2990   45.3890 H   0  0  0  0  0  0  0  0  0  0  0  0
   55.1630   29.5700   44.7190 N   0  0  0  0  0  0  0  0  0  0  0  0
   56.1170   28.7570   45.0360 C   0  0  0  0  0  0  0  0  0  0  0  0
   55.8940   27.5470   45.5920 N   0  0  0  0  0  0  0  0  0  0  0  0
   57.1310   27.0450   45.7550 C   0  0  0  0  0  0  0  0  0  0  0  0
   57.3688   26.0633   46.1907 H   0  0  0  0  0  0  0  0  0  0  0  0
   58.0530   27.9570   45.2890 C   0  0  0  0  0  0  0  0  0  0  0  0
   59.5470   27.7930   45.2850 C   0  0  0  0  0  0  0  0  0  0  0  0
   59.8512   27.3577   44.3217 H   0  0  0  0  0  0  0  0  0  0  0  0
   59.9920   28.7871   45.4392 H   0  0  0  0  0  0  0  0  0  0  0  0
   60.0450   26.8770   46.4200 C   0  0  0  0  0  0  0  0  0  0  0  0
   59.7228   25.8482   46.2016 H   0  0  0  0  0  0  0  0  0  0  0  0
   61.1398   26.9778   46.4550 H   0  0  0  0  0  0  0  0  0  0  0  0
   59.5150   27.2660   47.8130 C   0  0  0  0  0  0  0  0  0  0  0  0
   58.4258   27.1135   47.8301 H   0  0  0  0  0  0  0  0  0  0  0  0
   60.0268   26.6317   48.5517 H   0  0  0  0  0  0  0  0  0  0  0  0
   59.8060   28.7010   48.1670 C   0  0  0  0  0  0  0  0  0  0  0  0
   58.8120   29.5090   48.7360 C   0  0  0  0  0  0  0  0  0  0  0  0
   57.8275   29.0790   48.9724 H   0  0  0  0  0  0  0  0  0  0  0  0
   59.0630   30.8570   49.0050 C   0  0  0  0  0  0  0  0  0  0  0  0
   58.2832   31.4704   49.4800 H   0  0  0  0  0  0  0  0  0  0  0  0
   60.3040   31.4410   48.6750 C   0  0  0  0  0  0  0  0  0  0  0  0
   60.6020   32.9150   48.9980 C   0  0  2  0  0  0  0  0  0  0  0  0
   59.3000   33.7210   48.6790 C   0  0  0  0  0  0  0  0  0  0  0  0
   58.4938   33.3215   49.3118 H   0  0  0  0  0  0  0  0  0  0  0  0
   59.5484   34.7743   48.8762 H   0  0  0  0  0  0  0  0  0  0  0  0
   58.8260   33.6770   47.2440 C   0  0  0  0  0  0  0  0  0  0  0  0
   59.4620   34.4550   46.2600 C   0  0  0  0  0  0  0  0  0  0  0  0
   60.3073   35.1020   46.5374 H   0  0  0  0  0  0  0  0  0  0  0  0
   59.0280   34.4120   44.9330 C   0  0  0  0  0  0  0  0  0  0  0  0
   59.5232   35.0334   44.1724 H   0  0  0  0  0  0  0  0  0  0  0  0
   57.9650   33.5800   44.5710 C   0  0  0  0  0  0  0  0  0  0  0  0
   57.6217   33.5516   43.5263 H   0  0  0  0  0  0  0  0  0  0  0  0
   57.3370   32.7840   45.5330 C   0  0  0  0  0  0  0  0  0  0  0  0
   56.2830   31.9540   45.1560 O   0  0  0  0  0  0  0  0  0  0  0  0
   56.3410   30.9470   45.2530 H   0  0  0  0  0  0  0  0  0  0  0  0
   57.7730   32.8250   46.8650 C   0  0  0  0  0  0  0  0  0  0  0  0
   57.2884   32.1867   47.6185 H   0  0  0  0  0  0  0  0  0  0  0  0
   61.8280   33.4470   48.2280 C   0  0  0  0  0  0  0  0  0  0  0  0
   61.4988   33.9245   47.2933 H   0  0  0  0  0  0  0  0  0  0  0  0
   62.5070   32.6160   47.9865 H   0  0  0  0  0  0  0  0  0  0  0  0
   62.5200   34.4270   49.0630 N   0  0  0  0  0  0  0  0  0  0  0  0
   62.2320   35.3890   48.7680 H   0  0  0  0  0  0  0  0  0  0  0  0
   62.0910   34.2050   50.4440 C   0  0  0  0  0  0  0  0  0  0  0  0
   61.6458   35.1267   50.8469 H   0  0  0  0  0  0  0  0  0  0  0  0
   62.9539   33.9259   51.0664 H   0  0  0  0  0  0  0  0  0  0  0  0
   61.0570   33.0880   50.4550 C   0  0  0  0  0  0  0  0  0  0  0  0
   60.2033   33.3642   51.0914 H   0  0  0  0  0  0  0  0  0  0  0  0
   61.4773   32.1550   50.8584 H   0  0  0  0  0  0  0  0  0  0  0  0
   61.3210   30.5990   48.1780 C   0  0  0  0  0  0  0  0  0  0  0  0
   62.3240   31.0110   47.9928 H   0  0  0  0  0  0  0  0  0  0  0  0
   61.0720   29.2500   47.9180 C   0  0  0  0  0  0  0  0  0  0  0  0
   61.8740   28.6139   47.5153 H   0  0  0  0  0  0  0  0  0  0  0  0
   57.4170   29.0540   44.8370 N   0  0  0  0  0  0  0  0  0  0  0  0
  1  2  1  0
  2  3  2  0
  3  4  1  0
  4  5  1  0
  5  6  1  0
  5  7  2  0
  7  8  1  0
  8  9  1  0
  8 10  1  0
  8 11  1  0
 11 12  1  0
 11 13  1  0
 11 14  1  0
 14 15  1  0
 14 16  1  0
 14 17  1  0
 17 18  2  0
 18 19  1  0
 18 20  1  0
 20 21  1  0
 20 22  2  0
 22 23  1  0
 23 24  1  1
 24 25  1  0
 24 26  1  0
 24 27  1  0
 27 28  2  0
 28 29  1  0
 28 30  1  0
 30 31  1  0
 30 32  2  0
 32 33  1  0
 32 34  1  0
 34 35  1  0
 35 36  1  0
 34 37  2  0
 37 38  1  0
 23 39  1  0
 39 40  1  0
 39 41  1  0
 39 42  1  0
 42 43  1  0
 42 44  1  0
 44 45  1  0
 44 46  1  0
 44 47  1  0
 47 48  1  0
 47 49  1  0
 22 50  1  0
 50 51  1  0
 50 52  2  0
 52 53  1  0
  7 54  1  0
 54  3  1  0
 52 17  1  0
 47 23  1  0
 37 27  1  0
M  CHG  2   4  -1  54  -1
M  END
>  <UniqueID>  (1) 
1

>  <SMILES>  (1) 
[H]/N=c1\[n-]cc(CCCc2ccc([C@@]3(Cc4cccc(O)c4)CCNC3)cc2)[n-]1

>  <Energy>  (1) 
83.68760822397883

>  <Genealogy>  (1) 
N=c1[n-]cc(CCCc2ccc(C3(Cc4cccc(O)c4)CCNC3)cc2)[n-]1 (protonated)
N=c1[n-]cc(CCCc2ccc([C@@]3(Cc4cccc(O)c4)CCNC3)cc2)[n-]1 (chirality)
[H]/N=c1\[n-]cc(CCCc2ccc([C@@]3(Cc4cccc(O)c4)CCNC3)cc2)[n-]1 (cis-trans isomerization)
[H]/N=c1\[n-]cc(CCCc2ccc([C@@]3(Cc4cccc(O)c4)CCNC3)cc2)[n-]1 (3D coordinates assigned)
[H]/N=c1\[n-]cc(CCCc2ccc([C@@]3(Cc4cccc(O)c4)CCNC3)cc2)[n-]1 (nonaromatic ring conformer: 83.68760822397883 kcal/mol)

>  <smiles>  (1) 
N=c1[nH]cc(CCCc2ccc(C3(Cc4cccc(O)c4)CCNC3)cc2)[nH]1

>  <score_type>  (1) 
oracle

>  <origin>  (1) 
adg

>  <m_score__min__energy>  (1) 
-14.359999999999999

>  <m_primary>  (1) 
energy

$$$$
1:0
     RDKit          3D

 43 45  0  0  0  0  0  0  0  0999 V2000
   59.8880   27.4260   44.1260 H   0  0  0  0  0  0  0  0  0  0  0  0
   59.5360   28.3670   44.2330 O   0  0  0  0  0  0  0  0  0  0  0  0
   58.2350   28.6420   44.6670 C   0  0  0  0  0  0  0  0  0  0  0  0
   57.4840   27.6090   45.2690 C   0  0  0  0  0  0  0  0  0  0  0  0
   58.1020   26.2830   45.5770 C   0  0  0  0  0  0  0  0  0  0  0  0
   58.4830   25.5560   44.6170 O   0  0  0  0  0  0  0  0  0  0  0  0
   58.3960   25.8490   46.9200 N   0  0  0  0  0  0  0  0  0  0  0  0
   59.0720   26.4660   47.8510 C   0  0  0  0  0  0  0  0  0  0  0  0
   59.3929   25.8734   48.7204 H   0  0  0  0  0  0  0  0  0  0  0  0
   59.4420   27.9030   47.8300 C   0  0  0  0  0  0  0  0  0  0  0  0
   58.8780   28.8310   48.7330 C   0  0  0  0  0  0  0  0  0  0  0  0
   58.1313   28.4966   49.4682 H   0  0  0  0  0  0  0  0  0  0  0  0
   59.2650   30.1690   48.6950 C   0  0  0  0  0  0  0  0  0  0  0  0
   58.8223   30.8883   49.3997 H   0  0  0  0  0  0  0  0  0  0  0  0
   60.2130   30.5990   47.7650 C   0  0  0  0  0  0  0  0  0  0  0  0
   60.4769   31.6650   47.7019 H   0  0  0  0  0  0  0  0  0  0  0  0
   60.8270   29.6760   46.9140 C   0  0  0  0  0  0  0  0  0  0  0  0
   61.6103   30.0071   46.2162 H   0  0  0  0  0  0  0  0  0  0  0  0
   60.4460   28.3350   46.9500 C   0  0  0  0  0  0  0  0  0  0  0  0
   60.9363   27.6103   46.2834 H   0  0  0  0  0  0  0  0  0  0  0  0
   56.1090   27.8110   45.5000 C   0  0  0  0  0  0  0  0  0  0  0  0
   55.3090   26.7920   46.0160 O   0  0  0  0  0  0  0  0  0  0  0  0
   55.5400   29.0060   45.2120 N   0  0  0  0  0  0  0  0  0  0  0  0
   56.2530   30.0470   44.7230 C   0  0  0  0  0  0  0  0  0  0  0  0
   55.6500   31.1240   44.4540 O   0  0  0  0  0  0  0  0  0  0  0  0
   57.6390   29.9160   44.4600 C   0  0  0  0  0  0  0  0  0  0  0  0
   58.4080   31.0900   43.8640 C   0  0  0  0  0  0  0  0  0  0  0  0
   59.3570   30.7096   43.4580 H   0  0  0  0  0  0  0  0  0  0  0  0
   57.7597   31.5322   43.0932 H   0  0  0  0  0  0  0  0  0  0  0  0
   58.7140   32.1620   44.8220 N   0  0  0  0  0  0  0  0  0  0  0  0
   58.5160   33.4830   44.2020 C   0  0  0  0  0  0  0  0  0  0  0  0
   59.1169   33.5531   43.2833 H   0  0  0  0  0  0  0  0  0  0  0  0
   57.4541   33.6201   43.9499 H   0  0  0  0  0  0  0  0  0  0  0  0
   58.9590   34.5700   45.1910 C   0  0  0  0  0  0  0  0  0  0  0  0
   60.0066   34.3968   45.4782 H   0  0  0  0  0  0  0  0  0  0  0  0
   58.8628   35.5559   44.7127 H   0  0  0  0  0  0  0  0  0  0  0  0
   58.1420   34.5310   46.3480 O   0  0  0  0  0  0  0  0  0  0  0  0
   58.2960   33.2800   47.0060 C   0  0  0  0  0  0  0  0  0  0  0  0
   59.3409   33.1826   47.3356 H   0  0  0  0  0  0  0  0  0  0  0  0
   57.5970   33.2642   47.8552 H   0  0  0  0  0  0  0  0  0  0  0  0
   57.9490   32.0720   46.0920 C   0  0  0  0  0  0  0  0  0  0  0  0
   58.2096   31.1368   46.6091 H   0  0  0  0  0  0  0  0  0  0  0  0
   56.8722   32.0856   45.8676 H   0  0  0  0  0  0  0  0  0  0  0  0
  1  2  1  0
  2  3  1  0
  3  4  1  0
  4  5  1  0
  5  6  2  0
  5  7  1  0
  7  8  2  0
  8  9  1  0
  8 10  1  0
 10 11  2  0
 11 12  1  0
 11 13  1  0
 13 14  1  0
 13 15  2  0
 15 16  1  0
 15 17  1  0
 17 18  1  0
 17 19  2  0
 19 20  1  0
  4 21  2  0
 21 22  1  0
 21 23  1  0
 23 24  1  0
 24 25  2  0
 24 26  1  0
 26 27  1  0
 27 28  1  0
 27 29  1  0
 27 30  1  0
 30 31  1  0
 31 32  1  0
 31 33  1  0
 31 34  1  0
 34 35  1  0
 34 36  1  0
 34 37  1  0
 37 38  1  0
 38 39  1  0
 38 40  1  0
 38 41  1  0
 41 42  1  0
 41 43  1  0
 26  3  2  0
 41 30  1  0
 19 10  1  0
M  CHG  2  22  -1  23  -1
M  END
>  <UniqueID>  (2) 
2

>  <SMILES>  (2) 
O=C(/N=C\c1ccccc1)c1c([O-])[n-]c(=O)c(CN2CCOCC2)c1O

>  <Energy>  (2) 
70.16567072866734

>  <Genealogy>  (2) 
O=C(N=Cc1ccccc1)c1c([O-])[n-]c(=O)c(CN2CCOCC2)c1O (protonated)
O=C(/N=C\c1ccccc1)c1c([O-])[n-]c(=O)c(CN2CCOCC2)c1O (cis-trans isomerization)
O=C(/N=C\c1ccccc1)c1c([O-])[n-]c(=O)c(CN2CCOCC2)c1O (3D coordinates assigned)
O=C(/N=C\c1ccccc1)c1c([O-])[n-]c(=O)c(CN2CCOCC2)c1O (nonaromatic ring conformer: 70.16567072866734 kcal/mol)

>  <smiles>  (2) 
O=C(N=Cc1ccccc1)c1c(O)[nH]c(=O)c(CN2CCOCC2)c1O

>  <score_type>  (2) 
oracle

>  <origin>  (2) 
adg

>  <m_score__min__energy>  (2) 
-13.470000000000001

>  <m_primary>  (2) 
energy

$$$$
2:0
     RDKit          3D

 41 43  0  0  0  0  0  0  0  0999 V2000
   59.6370   35.3000   46.5020 C   0  0  0  0  0  0  0  0  0  0  0  0
   58.8530   34.1640   46.0320 N   0  0  0  0  0  0  0  0  0  0  0  0
   59.0470   32.8760   46.3660 C   0  0  0  0  0  0  0  0  0  0  0  0
   58.1500   32.0980   45.6460 C   0  0  0  0  0  0  0  0  0  0  0  0
   57.9960   30.6210   45.6840 C   0  0  0  0  0  0  0  0  0  0  0  0
   57.1280   29.9670   44.7920 C   0  0  0  0  0  0  0  0  0  0  0  0
   56.9830   28.5770   44.8270 C   0  0  0  0  0  0  0  0  0  0  0  0
   57.7050   27.8080   45.7540 C   0  0  0  0  0  0  0  0  0  0  0  0
   57.5460   26.3330   45.7910 C   0  0  0  0  0  0  0  0  0  0  0  0
   58.6190   25.5400   45.6320 C   0  0  0  0  0  0  0  0  0  0  0  0
   58.4960   24.0750   45.6340 C   0  0  0  0  0  0  0  0  0  0  0  0
   59.5320   23.3600   45.5870 O   0  0  0  0  0  0  0  0  0  0  0  0
   57.1390   23.4310   45.6080 C   0  0  0  0  0  0  0  0  0  0  0  0
   56.0930   24.2530   46.4050 C   0  0  0  0  0  0  0  0  0  0  0  0
   56.3390   24.1010   47.9190 C   0  0  0  0  0  0  0  0  0  0  0  0
   54.6840   23.7150   46.0710 C   0  0  0  0  0  0  0  0  0  0  0  0
   56.2100   25.7250   46.0370 C   0  0  0  0  0  0  0  0  0  0  0  0
   55.1790   26.4510   45.9960 O   0  0  0  0  0  0  0  0  0  0  0  0
   58.5690   28.4580   46.6500 C   0  0  0  0  0  0  0  0  0  0  0  0
   58.7140   29.8480   46.6150 C   0  0  0  0  0  0  0  0  0  0  0  0
   57.4380   33.0040   44.8690 C   0  0  0  0  0  0  0  0  0  0  0  0
   57.8960   34.2440   45.1230 N   0  0  0  0  0  0  0  0  0  0  0  0
   59.6443   35.3105   47.6019 H   0  0  0  0  0  0  0  0  0  0  0  0
   60.6683   35.2131   46.1293 H   0  0  0  0  0  0  0  0  0  0  0  0
   59.1899   36.2334   46.1293 H   0  0  0  0  0  0  0  0  0  0  0  0
   59.7895   32.5024   47.0865 H   0  0  0  0  0  0  0  0  0  0  0  0
   56.5569   30.5553   44.0587 H   0  0  0  0  0  0  0  0  0  0  0  0
   56.2981   28.0818   44.1230 H   0  0  0  0  0  0  0  0  0  0  0  0
   59.6106   25.9967   45.4975 H   0  0  0  0  0  0  0  0  0  0  0  0
   56.8048   23.3479   44.5633 H   0  0  0  0  0  0  0  0  0  0  0  0
   57.2232   22.4399   46.0777 H   0  0  0  0  0  0  0  0  0  0  0  0
   55.5309   24.6003   48.4737 H   0  0  0  0  0  0  0  0  0  0  0  0
   56.3587   23.0331   48.1819 H   0  0  0  0  0  0  0  0  0  0  0  0
   57.3029   24.5612   48.1819 H   0  0  0  0  0  0  0  0  0  0  0  0
   54.1401   23.5073   47.0043 H   0  0  0  0  0  0  0  0  0  0  0  0
   54.1339   24.4664   45.4854 H   0  0  0  0  0  0  0  0  0  0  0  0
   54.7747   22.7882   45.4854 H   0  0  0  0  0  0  0  0  0  0  0  0
   59.1363   27.8687   47.3854 H   0  0  0  0  0  0  0  0  0  0  0  0
   59.3962   30.3423   47.3223 H   0  0  0  0  0  0  0  0  0  0  0  0
   56.6334   32.7498   44.1633 H   0  0  0  0  0  0  0  0  0  0  0  0
   57.5670   35.1270   44.6720 H   0  0  0  0  0  0  0  0  0  0  0  0
  1  2  1  0
  2  3  1  0
  3  4  2  0
  4  5  1  0
  5  6  2  0
  6  7  1  0
  7  8  2  0
  8  9  1  0
  9 10  2  0
 10 11  1  0
 11 12  2  0
 11 13  1  0
 13 14  1  0
 14 15  1  0
 14 16  1  0
 14 17  1  0
 17 18  2  0
  8 19  1  0
 19 20  2  0
  4 21  1  0
 21 22  2  0
 22  2  1  0
 20  5  1  0
 17  9  1  0
  1 23  1  0
  1 24  1  0
  1 25  1  0
  3 26  1  0
  6 27  1  0
  7 28  1  0
 10 29  1  0
 13 30  1  0
 13 31  1  0
 15 32  1  0
 15 33  1  0
 15 34  1  0
 16 35  1  0
 16 36  1  0
 16 37  1  0
 19 38  1  0
 20 39  1  0
 21 40  1  0
 22 41  1  0
M  CHG  1  22   1
M  END
>  <UniqueID>  (3) 
3

>  <SMILES>  (3) 
Cn1cc(-c2ccc(C3=CC(=O)CC(C)(C)C3=O)cc2)c[nH+]1

>  <Energy>  (3) 
78.04969270787083

>  <Genealogy>  (3) 
Cn1cc(-c2ccc(C3=CC(=O)CC(C)(C)C3=O)cc2)c[nH+]1 (protonated)
Cn1cc(-c2ccc(C3=CC(=O)CC(C)(C)C3=O)cc2)c[nH+]1 (3D coordinates assigned)
Cn1cc(-c2ccc(C3=CC(=O)CC(C)(C)C3=O)cc2)c[nH+]1 (nonaromatic ring conformer: 78.04969270787083 kcal/mol)

>  <smiles>  (3) 
Cn1cc(-c2ccc(C3=CC(=O)CC(C)(C)C3=O)cc2)cn1

>  <score_type>  (3) 
oracle

>  <origin>  (3) 
adg

>  <m_score__min__energy>  (3) 
-6.7800000000000002

>  <m_primary>  (3) 
energy

$$$$
3:0
     RDKit          3D

 50 54  0  0  0  0  0  0  0  0999 V2000
   59.8510   22.7840   51.9860 C   0  0  0  0  0  0  0  0  0  0  0  0
   61.0750   22.8700   52.5160 C   0  0  0  0  0  0  0  0  0  0  0  0
   61.5460   24.1050   53.2300 C   0  0  0  0  0  0  0  0  0  0  0  0
   61.0770   25.2980   52.5310 N   0  0  0  0  0  0  0  0  0  0  0  0
   61.8590   25.9460   51.5140 C   0  0  0  0  0  0  0  0  0  0  0  0
   63.0170   25.5240   51.2530 O   0  0  0  0  0  0  0  0  0  0  0  0
   61.3370   27.1060   50.7660 C   0  0  0  0  0  0  0  0  0  0  0  0
   61.5060   28.4540   51.0730 C   0  0  0  0  0  0  0  0  0  0  0  0
   60.8750   29.3220   50.1640 C   0  0  0  0  0  0  0  0  0  0  0  0
   60.9360   30.8140   50.3180 C   0  0  0  0  0  0  0  0  0  0  0  0
   60.2000   28.6520   49.1340 C   0  0  0  0  0  0  0  0  0  0  0  0
   59.4320   29.2310   48.0130 C   0  0  0  0  0  0  0  0  0  0  0  0
   59.2420   30.5820   47.9180 N   0  0  0  0  0  0  0  0  0  0  0  0
   58.5340   31.1250   46.8900 C   0  0  0  0  0  0  0  0  0  0  0  0
   58.3850   32.4180   46.8410 N   0  0  0  0  0  0  0  0  0  0  0  0
   58.7700   33.2960   45.7410 C   0  0  0  0  0  0  0  0  0  0  0  0
   58.8940   34.7580   46.1310 C   0  0  0  0  0  0  0  0  0  0  0  0
   57.6720   34.2730   45.3660 C   0  0  0  0  0  0  0  0  0  0  0  0
   58.0210   30.2760   45.9540 N   0  0  0  0  0  0  0  0  0  0  0  0
   57.3110   30.5560   44.8720 N   0  0  0  0  0  0  0  0  0  0  0  0
   57.0350   29.3800   44.2580 C   0  0  0  0  0  0  0  0  0  0  0  0
   57.5960   28.3240   44.9840 C   0  0  0  0  0  0  0  0  0  0  0  0
   57.5750   27.0020   44.7480 C   0  0  0  0  0  0  0  0  0  0  0  0
   57.1340   25.9700   45.7090 C   0  0  0  0  0  0  0  0  0  0  0  0
   57.8940   24.9760   46.2030 N   0  0  0  0  0  0  0  0  0  0  0  0
   57.0520   24.3120   47.0230 C   0  0  0  0  0  0  0  0  0  0  0  0
   57.4040   23.2980   47.6810 O   0  0  0  0  0  0  0  0  0  0  0  0
   55.8040   24.8210   47.0850 N   0  0  0  0  0  0  0  0  0  0  0  0
   55.8730   25.8680   46.2480 C   0  0  0  0  0  0  0  0  0  0  0  0
   54.8040   26.7140   45.9820 O   0  0  0  0  0  0  0  0  0  0  0  0
   58.2050   28.9570   46.0440 C   0  0  0  0  0  0  0  0  0  0  0  0
   58.9060   28.4050   47.0630 N   0  0  0  0  0  0  0  0  0  0  0  0
   60.4010   26.9980   49.3740 S   0  0  0  0  0  0  0  0  0  0  0  0
   59.5386   21.8643   51.4697 H   0  0  0  0  0  0  0  0  0  0  0  0
   59.1561   23.6329   52.0661 H   0  0  0  0  0  0  0  0  0  0  0  0
   61.7572   22.0117   52.4268 H   0  0  0  0  0  0  0  0  0  0  0  0
   61.1500   24.1053   54.2563 H   0  0  0  0  0  0  0  0  0  0  0  0
   62.6457   24.1102   53.2533 H   0  0  0  0  0  0  0  0  0  0  0  0
   60.1540   25.6940   52.8150 H   0  0  0  0  0  0  0  0  0  0  0  0
   62.0786   28.8062   51.9437 H   0  0  0  0  0  0  0  0  0  0  0  0
   60.9466   31.0721   51.3872 H   0  0  0  0  0  0  0  0  0  0  0  0
   61.8505   31.1949   49.8398 H   0  0  0  0  0  0  0  0  0  0  0  0
   60.0557   31.2683   49.8398 H   0  0  0  0  0  0  0  0  0  0  0  0
   59.4114   32.5843   45.2005 H   0  0  0  0  0  0  0  0  0  0  0  0
   58.8005   35.0561   47.1857 H   0  0  0  0  0  0  0  0  0  0  0  0
   59.6481   35.5438   45.9763 H   0  0  0  0  0  0  0  0  0  0  0  0
   56.6943   34.2206   45.8673 H   0  0  0  0  0  0  0  0  0  0  0  0
   57.1755   34.5630   44.4282 H   0  0  0  0  0  0  0  0  0  0  0  0
   56.4568   29.2720   43.3285 H   0  0  0  0  0  0  0  0  0  0  0  0
   57.9136   26.6598   43.7589 H   0  0  0  0  0  0  0  0  0  0  0  0
  1  2  2  0
  2  3  1  0
  3  4  1  0
  4  5  1  0
  5  6  2  0
  5  7  1  0
  7  8  2  0
  8  9  1  0
  9 10  1  0
  9 11  2  0
 11 12  1  0
 12 13  2  0
 13 14  1  0
 14 15  2  3
 15 16  1  0
 16 17  1  0
 17 18  1  0
 14 19  1  0
 19 20  1  0
 20 21  2  0
 21 22  1  0
 22 23  2  3
 23 24  1  0
 24 25  1  0
 25 26  1  0
 26 27  2  0
 26 28  1  0
 28 29  1  0
 29 30  1  0
 22 31  1  0
 31 32  2  0
 11 33  1  0
 33  7  1  0
 32 12  1  0
 18 16  1  0
 31 19  1  0
 29 24  2  0
  1 34  1  0
  1 35  1  0
  2 36  1  0
  3 37  1  0
  3 38  1  0
  4 39  1  0
  8 40  1  0
 10 41  1  0
 10 42  1  0
 10 43  1  0
 16 44  1  0
 17 45  1  0
 17 46  1  0
 18 47  1  0
 18 48  1  0
 21 49  1  0
 23 50  1  0
M  CHG  3  25  -1  28  -1  30  -1
M  END
>  <UniqueID>  (4) 
4

>  <SMILES>  (4) 
C=CCNC(=O)c1cc(C)c(-c2nc(=NC3CC3)n3ncc(=Cc4[n-]c(=O)[n-]c4[O-])c3n2)s1

>  <Energy>  (4) 
414.35758488274195

>  <Genealogy>  (4) 
C=CCNC(=O)c1cc(C)c(-c2nc(=NC3CC3)n3ncc(=Cc4[n-]c(=O)[n-]c4[O-])c3n2)s1 (protonated)
C=CCNC(=O)c1cc(C)c(-c2nc(=NC3CC3)n3ncc(=Cc4[n-]c(=O)[n-]c4[O-])c3n2)s1 (3D coordinates assigned)
C=CCNC(=O)c1cc(C)c(-c2nc(=NC3CC3)n3ncc(=Cc4[n-]c(=O)[n-]c4[O-])c3n2)s1 (nonaromatic ring conformer: 414.35758488274195 kcal/mol)

>  <smiles>  (4) 
C=CCNC(=O)c1cc(C)c(-c2nc(=NC3CC3)n3ncc(=Cc4[nH]c(=O)[nH]c4O)c3n2)s1

>  <score_type>  (4) 
oracle

>  <origin>  (4) 
adg

>  <m_score__min__energy>  (4) 
-17.170000000000002

>  <m_primary>  (4) 
energy

$$$$
4:0
     RDKit          3D

 46 48  0  0  0  0  0  0  0  0999 V2000
   58.4850   28.0760   47.7510 C   0  0  0  0  0  0  0  0  0  0  0  0
   58.8440   26.9160   46.9430 N   0  0  0  0  0  0  0  0  0  0  0  0
   57.9810   26.3920   45.9230 C   0  0  0  0  0  0  0  0  0  0  0  0
   58.1020   24.8140   45.5060 S   0  0  0  0  0  0  0  0  0  0  0  0
   56.9190   27.1790   45.3660 N   0  0  0  0  0  0  0  0  0  0  0  0
   57.1060   28.5000   44.8290 C   0  0  0  0  0  0  0  0  0  0  0  0
   56.0110   29.3310   44.5270 C   0  0  0  0  0  0  0  0  0  0  0  0
   56.2210   30.6180   44.0240 C   0  0  0  0  0  0  0  0  0  0  0  0
   57.5220   31.0940   43.8300 C   0  0  0  0  0  0  0  0  0  0  0  0
   57.7890   32.7470   43.1900 S   0  0  0  0  0  0  0  0  0  0  0  0
   58.3020   33.3840   44.7850 C   0  0  0  0  0  0  0  0  0  0  0  0
   59.2420   34.4180   44.8570 C   0  0  0  0  0  0  0  0  0  0  0  0
   59.6470   34.9130   46.1000 C   0  0  0  0  0  0  0  0  0  0  0  0
   59.1080   34.3770   47.2870 C   0  0  0  0  0  0  0  0  0  0  0  0
   59.4790   34.8380   48.5580 O   0  0  0  0  0  0  0  0  0  0  0  0
   60.3810   34.1620   49.4290 C   0  0  0  0  0  0  0  0  0  0  0  0
   61.3910   33.4150   48.6080 C   0  0  0  0  0  0  0  0  0  0  0  0
   61.1650   32.0760   48.2510 C   0  0  0  0  0  0  0  0  0  0  0  0
   62.1250   31.3710   47.5180 C   0  0  0  0  0  0  0  0  0  0  0  0
   63.3200   31.9920   47.1480 C   0  0  0  0  0  0  0  0  0  0  0  0
   63.5610   33.3200   47.5150 C   0  0  0  0  0  0  0  0  0  0  0  0
   62.6030   34.0290   48.2480 C   0  0  0  0  0  0  0  0  0  0  0  0
   58.1640   33.3460   47.2040 C   0  0  0  0  0  0  0  0  0  0  0  0
   57.7610   32.8520   45.9590 C   0  0  0  0  0  0  0  0  0  0  0  0
   58.6150   30.2770   44.1420 C   0  0  0  0  0  0  0  0  0  0  0  0
   58.4080   28.9900   44.6470 C   0  0  0  0  0  0  0  0  0  0  0  0
   58.5646   27.8188   48.8175 H   0  0  0  0  0  0  0  0  0  0  0  0
   59.1678   28.9076   47.5224 H   0  0  0  0  0  0  0  0  0  0  0  0
   57.4518   28.3765   47.5224 H   0  0  0  0  0  0  0  0  0  0  0  0
   59.6760   26.3550   47.2340 H   0  0  0  0  0  0  0  0  0  0  0  0
   55.9810   26.7300   45.2640 H   0  0  0  0  0  0  0  0  0  0  0  0
   54.9858   28.9661   44.6875 H   0  0  0  0  0  0  0  0  0  0  0  0
   55.3607   31.2585   43.7799 H   0  0  0  0  0  0  0  0  0  0  0  0
   59.6631   34.8422   43.9336 H   0  0  0  0  0  0  0  0  0  0  0  0
   60.3888   35.7235   46.1520 H   0  0  0  0  0  0  0  0  0  0  0  0
   60.8954   34.8953   50.0676 H   0  0  0  0  0  0  0  0  0  0  0  0
   59.8244   33.4562   50.0631 H   0  0  0  0  0  0  0  0  0  0  0  0
   60.2296   31.5798   48.5489 H   0  0  0  0  0  0  0  0  0  0  0  0
   61.9385   30.3252   47.2323 H   0  0  0  0  0  0  0  0  0  0  0  0
   64.0717   31.4367   46.5679 H   0  0  0  0  0  0  0  0  0  0  0  0
   64.5042   33.8073   47.2272 H   0  0  0  0  0  0  0  0  0  0  0  0
   62.7990   35.0703   48.5435 H   0  0  0  0  0  0  0  0  0  0  0  0
   57.7364   32.9216   48.1244 H   0  0  0  0  0  0  0  0  0  0  0  0
   57.0171   32.0435   45.9037 H   0  0  0  0  0  0  0  0  0  0  0  0
   59.6391   30.6485   43.9895 H   0  0  0  0  0  0  0  0  0  0  0  0
   59.2710   28.3578   44.9032 H   0  0  0  0  0  0  0  0  0  0  0  0
  1  2  1  0
  2  3  1  0
  3  4  2  0
  3  5  1  0
  5  6  1  0
  6  7  2  0
  7  8  1  0
  8  9  2  0
  9 10  1  0
 10 11  1  0
 11 12  2  0
 12 13  1  0
 13 14  2  0
 14 15  1  0
 15 16  1  0
 16 17  1  0
 17 18  2  0
 18 19  1  0
 19 20  2  0
 20 21  1  0
 21 22  2  0
 14 23  1  0
 23 24  2  0
  9 25  1  0
 25 26  2  0
 26  6  1  0
 24 11  1  0
 22 17  1  0
  1 27  1  0
  1 28  1  0
  1 29  1  0
  2 30  1  0
  5 31  1  0
  7 32  1  0
  8 33  1  0
 12 34  1  0
 13 35  1  0
 16 36  1  0
 16 37  1  0
 18 38  1  0
 19 39  1  0
 20 40  1  0
 21 41  1  0
 22 42  1  0
 23 43  1  0
 24 44  1  0
 25 45  1  0
 26 46  1  0
M  END
>  <UniqueID>  (5) 
5

>  <SMILES>  (5) 
CNC(=S)Nc1ccc(Sc2ccc(OCc3ccccc3)cc2)cc1

>  <Energy>  (5) 
45.637477889244195

>  <Genealogy>  (5) 
CNC(=S)Nc1ccc(Sc2ccc(OCc3ccccc3)cc2)cc1 (3D coordinates assigned)
CNC(=S)Nc1ccc(Sc2ccc(OCc3ccccc3)cc2)cc1 (optimized conformer: 45.637477889244195 kcal/mol)

>  <smiles>  (5) 
CNC(=S)Nc1ccc(Sc2ccc(OCc3ccccc3)cc2)cc1

>  <score_type>  (5) 
oracle

>  <origin>  (5) 
adg

>  <m_score__min__energy>  (5) 
-8.75

>  <m_primary>  (5) 
energy

$$$$
5:0
     RDKit          3D

 48 50  0  0  1  0  0  0  0  0999 V2000
   57.4900   31.9650   50.8500 C   0  0  0  0  0  0  0  0  0  0  0  0
   58.0580   31.9810   49.5690 O   0  0  0  0  0  0  0  0  0  0  0  0
   59.3370   31.4870   49.3820 C   0  0  0  0  0  0  0  0  0  0  0  0
   60.2630   31.6200   50.4190 C   0  0  0  0  0  0  0  0  0  0  0  0
   61.5540   31.1590   50.3240 C   0  0  0  0  0  0  0  0  0  0  0  0
   61.9220   30.5470   49.1530 C   0  0  0  0  0  0  0  0  0  0  0  0
   61.0130   30.4190   48.1400 C   0  0  0  0  0  0  0  0  0  0  0  0
   59.7160   30.8590   48.1770 C   0  0  0  0  0  0  0  0  0  0  0  0
   58.7370   30.7200   47.2050 N   0  0  0  0  0  0  0  0  0  0  0  0
   58.6610   29.4430   46.0220 S   0  0  0  0  0  0  0  0  0  0  0  0
   60.0920   29.1620   45.6980 O   0  0  0  0  0  0  0  0  0  0  0  0
   58.0180   28.3190   46.8400 O   0  0  0  0  0  0  0  0  0  0  0  0
   57.6640   29.9110   44.7120 C   0  0  0  0  0  0  0  0  0  0  0  0
   56.7520   29.2540   43.9280 C   0  0  0  0  0  0  0  0  0  0  0  0
   56.2370   30.0470   42.9740 N   0  0  0  0  0  0  0  0  0  0  0  0
   56.7920   31.2260   43.1100 N   0  0  0  0  0  0  0  0  0  0  0  0
   57.6770   31.2070   44.1620 C   0  0  0  0  0  0  0  0  0  0  0  0
   58.2890   32.2410   44.5150 N   0  0  0  0  0  0  0  0  0  0  0  0
   57.9930   33.1340   45.5280 C   0  0  0  0  0  0  0  0  0  0  0  0
   57.0090   33.1790   46.2900 O   0  0  0  0  0  0  0  0  0  0  0  0
   59.0090   34.2160   45.7620 C   0  0  0  0  0  0  0  0  0  0  0  0
   59.4410   34.5000   46.9600 C   0  0  0  0  0  0  0  0  0  0  0  0
   60.7690   34.1960   47.4740 C   0  0  0  0  0  0  0  0  0  0  0  0
   61.1190   34.4910   48.7980 C   0  0  0  0  0  0  0  0  0  0  0  0
   62.3740   34.2090   49.2970 C   0  0  0  0  0  0  0  0  0  0  0  0
   63.3380   33.6260   48.5210 C   0  0  0  0  0  0  0  0  0  0  0  0
   64.6140   33.3180   48.9650 O   0  0  0  0  0  0  0  0  0  0  0  0
   63.0210   33.3250   47.2130 C   0  0  0  0  0  0  0  0  0  0  0  0
   63.9770   32.7340   46.3980 O   0  0  0  0  0  0  0  0  0  0  0  0
   61.7620   33.6110   46.7190 C   0  0  0  0  0  0  0  0  0  0  0  0
   58.2890   31.9875   51.6057 H   0  0  0  0  0  0  0  0  0  0  0  0
   56.8423   32.8453   50.9749 H   0  0  0  0  0  0  0  0  0  0  0  0
   56.8929   31.0497   50.9749 H   0  0  0  0  0  0  0  0  0  0  0  0
   59.9461   32.1138   51.3495 H   0  0  0  0  0  0  0  0  0  0  0  0
   62.2650   31.2763   51.1551 H   0  0  0  0  0  0  0  0  0  0  0  0
   62.9445   30.1607   49.0295 H   0  0  0  0  0  0  0  0  0  0  0  0
   61.3509   29.9216   47.2189 H   0  0  0  0  0  0  0  0  0  0  0  0
   57.9710   31.4760   47.2050 H   0  0  0  0  0  0  0  0  0  0  0  0
   56.4737   28.1986   44.0643 H   0  0  0  0  0  0  0  0  0  0  0  0
   55.5220   29.7750   42.2490 H   0  0  0  0  0  0  0  0  0  0  0  0
   56.5650   32.0330   42.4880 H   0  0  0  0  0  0  0  0  0  0  0  0
   59.3979   34.7822   44.9028 H   0  0  0  0  0  0  0  0  0  0  0  0
   58.7432   35.0122   47.6388 H   0  0  0  0  0  0  0  0  0  0  0  0
   60.3736   34.9598   49.4572 H   0  0  0  0  0  0  0  0  0  0  0  0
   62.6048   34.4588   50.3431 H   0  0  0  0  0  0  0  0  0  0  0  0
   65.3380   32.9080   48.4180 H   0  0  0  0  0  0  0  0  0  0  0  0
   64.8940   32.4410   46.7440 H   0  0  0  0  0  0  0  0  0  0  0  0
   61.5420   33.3590   45.6711 H   0  0  0  0  0  0  0  0  0  0  0  0
  1  2  1  0
  2  3  1  0
  3  4  2  0
  4  5  1  0
  5  6  2  0
  6  7  1  0
  7  8  2  0
  8  9  1  0
  9 10  1  0
 10 11  2  0
 10 12  2  0
 10 13  1  0
 13 14  2  0
 14 15  1  0
 15 16  1  0
 16 17  1  0
 17 18  2  0
 18 19  1  0
 19 20  2  0
 19 21  1  0
 21 22  2  0
 22 23  1  0
 23 24  2  0
 24 25  1  0
 25 26  2  0
 26 27  1  0
 26 28  1  0
 28 29  1  0
 28 30  2  0
  8  3  1  0
 17 13  1  0
 30 23  1  0
  1 31  1  0
  1 32  1  0
  1 33  1  0
  4 34  1  0
  5 35  1  0
  6 36  1  0
  7 37  1  0
  9 38  1  0
 14 39  1  0
 15 40  1  0
 16 41  1  0
 21 42  1  0
 22 43  1  0
 24 44  1  0
 25 45  1  0
 27 46  1  0
 29 47  1  0
 30 48  1  0
M  END
>  <smiles>  (6) 
COc1ccccc1NS(=O)(=O)c1c[nH][nH]c1=NC(=O)C=Cc1ccc(O)c(O)c1

>  <score_type>  (6) 
oracle

>  <origin>  (6) 
adg

>  <m_score__min__energy>  (6) 
-9.4499999999999993

>  <m_primary>  (6) 
energy

$$$$
6:0
     RDKit          3D

 38 40  0  0  0  0  0  0  0  0999 V2000
   59.7740   26.6870   46.4750 C   0  0  0  0  0  0  0  0  0  0  0  0
   58.9680   27.7680   46.3840 C   0  0  0  0  0  0  0  0  0  0  0  0
   59.3710   28.9900   46.9780 C   0  0  0  0  0  0  0  0  0  0  0  0
   60.4900   29.0730   47.5580 O   0  0  0  0  0  0  0  0  0  0  0  0
   58.5180   30.1140   46.8810 C   0  0  0  0  0  0  0  0  0  0  0  0
   58.7820   31.3230   47.4220 C   0  0  0  0  0  0  0  0  0  0  0  0
   58.9350   32.5910   46.6800 C   0  0  0  0  0  0  0  0  0  0  0  0
   60.1520   33.2830   46.7550 C   0  0  0  0  0  0  0  0  0  0  0  0
   60.3330   34.4670   46.0340 C   0  0  0  0  0  0  0  0  0  0  0  0
   59.3080   34.9570   45.2190 C   0  0  0  0  0  0  0  0  0  0  0  0
   59.4910   36.1340   44.5050 O   0  0  0  0  0  0  0  0  0  0  0  0
   58.1010   34.2590   45.1200 C   0  0  0  0  0  0  0  0  0  0  0  0
   57.9120   33.0690   45.8380 C   0  0  0  0  0  0  0  0  0  0  0  0
   56.7160   32.3610   45.7160 O   0  0  0  0  0  0  0  0  0  0  0  0
   57.3640   29.9890   46.1820 N   0  0  0  0  0  0  0  0  0  0  0  0
   56.9810   28.8260   45.6050 C   0  0  0  0  0  0  0  0  0  0  0  0
   55.8870   28.7890   44.9770 O   0  0  0  0  0  0  0  0  0  0  0  0
   57.7660   27.7090   45.7090 N   0  0  0  0  0  0  0  0  0  0  0  0
   57.2980   26.4890   45.0970 C   0  0  0  0  0  0  0  0  0  0  0  0
   57.8110   26.0800   43.8600 C   0  0  0  0  0  0  0  0  0  0  0  0
   57.3600   24.8980   43.2660 C   0  0  0  0  0  0  0  0  0  0  0  0
   56.3880   24.1060   43.9050 C   0  0  0  0  0  0  0  0  0  0  0  0
   55.9060   22.8540   43.2800 C   0  0  0  0  0  0  0  0  0  0  0  0
   55.1500   22.8900   42.2730 O   0  0  0  0  0  0  0  0  0  0  0  0
   56.2820   21.6190   43.7960 O   0  0  0  0  0  0  0  0  0  0  0  0
   55.8800   24.5210   45.1480 C   0  0  0  0  0  0  0  0  0  0  0  0
   56.3330   25.7030   45.7410 C   0  0  0  0  0  0  0  0  0  0  0  0
   59.4699   25.7341   46.0172 H   0  0  0  0  0  0  0  0  0  0  0  0
   60.7341   26.7600   47.0069 H   0  0  0  0  0  0  0  0  0  0  0  0
   58.8933   31.3675   48.5155 H   0  0  0  0  0  0  0  0  0  0  0  0
   60.9667   32.8932   47.3829 H   0  0  0  0  0  0  0  0  0  0  0  0
   61.2842   35.0145   46.1081 H   0  0  0  0  0  0  0  0  0  0  0  0
   57.2964   34.6444   44.4766 H   0  0  0  0  0  0  0  0  0  0  0  0
   56.7040   31.3530   45.6160 H   0  0  0  0  0  0  0  0  0  0  0  0
   58.5722   26.6916   43.3536 H   0  0  0  0  0  0  0  0  0  0  0  0
   57.7672   24.5849   42.2933 H   0  0  0  0  0  0  0  0  0  0  0  0
   55.1200   23.9109   45.6582 H   0  0  0  0  0  0  0  0  0  0  0  0
   55.9310   26.0169   46.7156 H   0  0  0  0  0  0  0  0  0  0  0  0
  1  2  2  0
  2  3  1  0
  3  4  2  0
  3  5  1  0
  5  6  2  3
  6  7  1  0
  7  8  2  0
  8  9  1  0
  9 10  2  0
 10 11  1  0
 10 12  1  0
 12 13  2  0
 13 14  1  0
  5 15  1  0
 15 16  1  0
 16 17  2  0
 16 18  1  0
 18 19  1  0
 19 20  2  0
 20 21  1  0
 21 22  2  0
 22 23  1  0
 23 24  2  0
 23 25  1  0
 22 26  1  0
 26 27  2  0
 18  2  1  0
 27 19  1  0
 13  7  1  0
  1 28  1  0
  1 29  1  0
  6 30  1  0
  8 31  1  0
  9 32  1  0
 12 33  1  0
 14 34  1  0
 20 35  1  0
 21 36  1  0
 26 37  1  0
 27 38  1  0
M  CHG  3  11  -1  15  -1  25  -1
M  END
>  <UniqueID>  (7) 
6

>  <SMILES>  (7) 
C=c1c(=O)c(=Cc2ccc([O-])cc2O)[n-]c(=O)n1-c1ccc(C(=O)[O-])cc1

>  <Energy>  (7) 
70.52483667190276

>  <Genealogy>  (7) 
C=c1c(=O)c(=Cc2ccc([O-])cc2O)[n-]c(=O)n1-c1ccc(C(=O)[O-])cc1 (protonated)
C=c1c(=O)c(=Cc2ccc([O-])cc2O)[n-]c(=O)n1-c1ccc(C(=O)[O-])cc1 (3D coordinates assigned)
C=c1c(=O)c(=Cc2ccc([O-])cc2O)[n-]c(=O)n1-c1ccc(C(=O)[O-])cc1 (optimized conformer: 70.52483667190276 kcal/mol)

>  <smiles>  (7) 
C=c1c(=O)c(=Cc2ccc(O)cc2O)[nH]c(=O)n1-c1ccc(C(=O)O)cc1

>  <score_type>  (7) 
oracle

>  <origin>  (7) 
adg

>  <m_score__min__energy>  (7) 
-12.84

>  <m_primary>  (7) 
energy

$$$$
7:0
     RDKit          3D

 38 40  0  0  0  0  0  0  0  0999 V2000
   55.6570   29.8990   44.4460 C   0  0  0  0  0  0  0  0  0  0  0  0
   56.8740   29.7040   44.9590 C   0  0  0  0  0  0  0  0  0  0  0  0
   57.5820   30.7180   45.5050 N   0  0  0  0  0  0  0  0  0  0  0  0
   58.7840   30.2650   45.8260 N   0  0  0  0  0  0  0  0  0  0  0  0
   59.8080   31.0890   46.4160 C   0  0  0  0  0  0  0  0  0  0  0  0
   59.7410   32.4940   46.3520 C   0  0  0  0  0  0  0  0  0  0  0  0
   60.7500   33.2760   46.9190 C   0  0  0  0  0  0  0  0  0  0  0  0
   61.8410   32.6710   47.5540 C   0  0  0  0  0  0  0  0  0  0  0  0
   63.1190   33.6610   48.2540 S   0  0  0  0  0  0  0  0  0  0  0  0
   64.2960   32.6410   49.0000 N   0  0  0  0  0  0  0  0  0  0  0  0
   63.7730   34.4810   47.1780 O   0  0  0  0  0  0  0  0  0  0  0  0
   62.5380   34.5900   49.2830 O   0  0  0  0  0  0  0  0  0  0  0  0
   61.9260   31.2750   47.6000 C   0  0  0  0  0  0  0  0  0  0  0  0
   60.9190   30.4890   47.0330 C   0  0  0  0  0  0  0  0  0  0  0  0
   58.8660   28.9650   45.4740 C   0  0  0  0  0  0  0  0  0  0  0  0
   59.8990   28.2550   45.5990 O   0  0  0  0  0  0  0  0  0  0  0  0
   57.6620   28.5430   44.9400 C   0  0  0  0  0  0  0  0  0  0  0  0
   57.4000   27.2880   44.5210 C   0  0  0  0  0  0  0  0  0  0  0  0
   57.3980   26.0880   45.3760 C   0  0  0  0  0  0  0  0  0  0  0  0
   58.5590   25.3070   45.4970 C   0  0  0  0  0  0  0  0  0  0  0  0
   58.5460   24.1410   46.2650 C   0  0  0  0  0  0  0  0  0  0  0  0
   57.3710   23.7300   46.9000 C   0  0  0  0  0  0  0  0  0  0  0  0
   57.3750   22.5680   47.6620 O   0  0  0  0  0  0  0  0  0  0  0  0
   56.1960   24.4890   46.7620 C   0  0  0  0  0  0  0  0  0  0  0  0
   55.0090   24.0920   47.3800 O   0  0  0  0  0  0  0  0  0  0  0  0
   56.2090   25.6610   45.9930 C   0  0  0  0  0  0  0  0  0  0  0  0
   55.0410   26.4040   45.8510 O   0  0  0  0  0  0  0  0  0  0  0  0
   55.1032   29.0556   44.0079 H   0  0  0  0  0  0  0  0  0  0  0  0
   55.2080   30.9031   44.4614 H   0  0  0  0  0  0  0  0  0  0  0  0
   58.8891   32.9786   45.8526 H   0  0  0  0  0  0  0  0  0  0  0  0
   60.6869   34.3729   46.8662 H   0  0  0  0  0  0  0  0  0  0  0  0
   64.8530   32.2050   48.2310 H   0  0  0  0  0  0  0  0  0  0  0  0
   62.7888   30.7944   48.0843 H   0  0  0  0  0  0  0  0  0  0  0  0
   60.9966   29.3924   47.0700 H   0  0  0  0  0  0  0  0  0  0  0  0
   57.1691   27.1491   43.4545 H   0  0  0  0  0  0  0  0  0  0  0  0
   59.4823   25.6152   44.9846 H   0  0  0  0  0  0  0  0  0  0  0  0
   59.4638   23.5439   46.3705 H   0  0  0  0  0  0  0  0  0  0  0  0
   54.1120   24.4850   47.1230 H   0  0  0  0  0  0  0  0  0  0  0  0
  1  2  2  0
  2  3  1  0
  3  4  1  0
  4  5  1  0
  5  6  2  0
  6  7  1  0
  7  8  2  0
  8  9  1  0
  9 10  1  0
  9 11  2  0
  9 12  2  0
  8 13  1  0
 13 14  2  0
  4 15  1  0
 15 16  2  0
 15 17  1  0
 17 18  2  3
 18 19  1  0
 19 20  2  0
 20 21  1  0
 21 22  2  0
 22 23  1  0
 22 24  1  0
 24 25  1  0
 24 26  2  0
 26 27  1  0
 17  2  1  0
 26 19  1  0
 14  5  1  0
  1 28  1  0
  1 29  1  0
  6 30  1  0
  7 31  1  0
 10 32  1  0
 13 33  1  0
 14 34  1  0
 18 35  1  0
 20 36  1  0
 21 37  1  0
 25 38  1  0
M  CHG  4   3  -1  10  -1  23  -1  27  -1
M  END
>  <UniqueID>  (8) 
7

>  <SMILES>  (8) 
C=c1[n-]n(-c2ccc(S([NH-])(=O)=O)cc2)c(=O)c1=Cc1ccc([O-])c(O)c1[O-]

>  <Energy>  (8) 
91.02182697452187

>  <Genealogy>  (8) 
C=c1[n-]n(-c2ccc(S([NH-])(=O)=O)cc2)c(=O)c1=Cc1ccc([O-])c(O)c1[O-] (protonated)
C=c1[n-]n(-c2ccc(S([NH-])(=O)=O)cc2)c(=O)c1=Cc1ccc([O-])c(O)c1[O-] (3D coordinates assigned)
C=c1[n-]n(-c2ccc(S([NH-])(=O)=O)cc2)c(=O)c1=Cc1ccc([O-])c(O)c1[O-] (optimized conformer: 91.02182697452187 kcal/mol)

>  <smiles>  (8) 
C=c1[nH]n(-c2ccc(S(N)(=O)=O)cc2)c(=O)c1=Cc1ccc(O)c(O)c1O

>  <score_type>  (8) 
oracle

>  <origin>  (8) 
adg

>  <m_score__min__energy>  (8) 
-15.199999999999999

>  <m_primary>  (8) 
energy

$$$$
8:0
     RDKit          3D

 46 48  0  0  0  0  0  0  0  0999 V2000
   56.0220   29.6970   52.1440 O   0  0  0  0  0  0  0  0  0  0  0  0
   57.0770   30.5030   51.7360 C   0  0  0  0  0  0  0  0  0  0  0  0
   57.0550   31.8740   52.0090 C   0  0  0  0  0  0  0  0  0  0  0  0
   58.1200   32.6860   51.6040 C   0  0  0  0  0  0  0  0  0  0  0  0
   59.2080   32.1270   50.9270 C   0  0  0  0  0  0  0  0  0  0  0  0
   59.2350   30.7510   50.6430 C   0  0  0  0  0  0  0  0  0  0  0  0
   60.3970   30.1520   49.8940 C   0  0  0  0  0  0  0  0  0  0  0  0
   61.1020   31.1760   48.9900 C   0  0  0  0  0  0  0  0  0  0  0  0
   60.2970   31.5420   47.7970 N   0  0  0  0  0  0  0  0  0  0  0  0
   60.7520   30.7570   46.6200 C   0  0  0  0  0  0  0  0  0  0  0  0
   59.8230   29.5630   46.3750 C   0  0  0  0  0  0  0  0  0  0  0  0
   58.6680   29.9430   45.4840 C   0  0  0  0  0  0  0  0  0  0  0  0
   58.8300   30.9190   44.4890 C   0  0  0  0  0  0  0  0  0  0  0  0
   57.7700   31.2450   43.6400 C   0  0  0  0  0  0  0  0  0  0  0  0
   56.5380   30.6000   43.7790 C   0  0  0  0  0  0  0  0  0  0  0  0
   56.3670   29.6240   44.7650 C   0  0  0  0  0  0  0  0  0  0  0  0
   55.1450   28.9760   44.8960 O   0  0  0  0  0  0  0  0  0  0  0  0
   57.4290   29.2950   45.6160 C   0  0  0  0  0  0  0  0  0  0  0  0
   60.3870   32.9940   47.5220 C   0  0  0  0  0  0  0  0  0  0  0  0
   59.2250   33.4510   46.6890 C   0  0  0  0  0  0  0  0  0  0  0  0
   57.8860   33.1670   46.9280 C   0  0  0  0  0  0  0  0  0  0  0  0
   57.0270   33.7210   45.9730 C   0  0  0  0  0  0  0  0  0  0  0  0
   57.6820   34.4360   44.9790 C   0  0  0  0  0  0  0  0  0  0  0  0
   59.3340   34.3810   45.2940 S   0  0  0  0  0  0  0  0  0  0  0  0
   58.1600   29.9430   51.0510 C   0  0  0  0  0  0  0  0  0  0  0  0
   56.1999   32.3146   52.5425 H   0  0  0  0  0  0  0  0  0  0  0  0
   58.1012   33.7647   51.8184 H   0  0  0  0  0  0  0  0  0  0  0  0
   60.0466   32.7670   50.6153 H   0  0  0  0  0  0  0  0  0  0  0  0
   61.1243   29.7639   50.6222 H   0  0  0  0  0  0  0  0  0  0  0  0
   60.0042   29.3510   49.2505 H   0  0  0  0  0  0  0  0  0  0  0  0
   61.2962   32.0867   49.5756 H   0  0  0  0  0  0  0  0  0  0  0  0
   62.0339   30.7145   48.6314 H   0  0  0  0  0  0  0  0  0  0  0  0
   60.7500   31.4048   45.7310 H   0  0  0  0  0  0  0  0  0  0  0  0
   61.7673   30.3816   46.8156 H   0  0  0  0  0  0  0  0  0  0  0  0
   60.3956   28.7557   45.8950 H   0  0  0  0  0  0  0  0  0  0  0  0
   59.4205   29.2311   47.3434 H   0  0  0  0  0  0  0  0  0  0  0  0
   59.7975   31.4303   44.3770 H   0  0  0  0  0  0  0  0  0  0  0  0
   57.9050   32.0101   42.8613 H   0  0  0  0  0  0  0  0  0  0  0  0
   55.7027   30.8604   43.1124 H   0  0  0  0  0  0  0  0  0  0  0  0
   57.2925   28.5262   46.3908 H   0  0  0  0  0  0  0  0  0  0  0  0
   60.3853   33.5426   48.4755 H   0  0  0  0  0  0  0  0  0  0  0  0
   61.3171   33.1914   46.9688 H   0  0  0  0  0  0  0  0  0  0  0  0
   57.5369   32.5674   47.7816 H   0  0  0  0  0  0  0  0  0  0  0  0
   55.9340   33.6013   46.0063 H   0  0  0  0  0  0  0  0  0  0  0  0
   57.2036   34.9496   44.1320 H   0  0  0  0  0  0  0  0  0  0  0  0
   58.1705   28.8654   50.8306 H   0  0  0  0  0  0  0  0  0  0  0  0
  1  2  1  0
  2  3  2  0
  3  4  1  0
  4  5  2  0
  5  6  1  0
  6  7  1  0
  7  8  1  0
  8  9  1  0
  9 10  1  0
 10 11  1  0
 11 12  1  0
 12 13  2  0
 13 14  1  0
 14 15  2  0
 15 16  1  0
 16 17  1  0
 16 18  2  0
  9 19  1  0
 19 20  1  0
 20 21  2  0
 21 22  1  0
 22 23  2  0
 23 24  1  0
  6 25  2  0
 25  2  1  0
 18 12  1  0
 24 20  1  0
  3 26  1  0
  4 27  1  0
  5 28  1  0
  7 29  1  0
  7 30  1  0
  8 31  1  0
  8 32  1  0
 10 33  1  0
 10 34  1  0
 11 35  1  0
 11 36  1  0
 13 37  1  0
 14 38  1  0
 15 39  1  0
 18 40  1  0
 19 41  1  0
 19 42  1  0
 21 43  1  0
 22 44  1  0
 23 45  1  0
 25 46  1  0
M  CHG  2   1  -1  17  -1
M  END
>  <UniqueID>  (9) 
8

>  <SMILES>  (9) 
[O-]c1cccc(CCN(CCc2cccc([O-])c2)Cc2cccs2)c1

>  <Energy>  (9) 
65.05372106483858

>  <Genealogy>  (9) 
[O-]c1cccc(CCN(CCc2cccc([O-])c2)Cc2cccs2)c1 (protonated)
[O-]c1cccc(CCN(CCc2cccc([O-])c2)Cc2cccs2)c1 (3D coordinates assigned)
[O-]c1cccc(CCN(CCc2cccc([O-])c2)Cc2cccs2)c1 (optimized conformer: 65.05372106483858 kcal/mol)

>  <smiles>  (9) 
Oc1cccc(CCN(CCc2cccc(O)c2)Cc2cccs2)c1

>  <score_type>  (9) 
oracle

>  <origin>  (9) 
adg

>  <m_score__min__energy>  (9) 
-15.4

>  <m_primary>  (9) 
energy

$$$$
9:0
     RDKit          3D

 60 63  0  0  0  0  0  0  0  0999 V2000
   54.0520   31.2160   51.7420 C   0  0  0  0  0  0  0  0  0  0  0  0
   53.8070   30.1160   52.4700 C   0  0  0  0  0  0  0  0  0  0  0  0
   52.5570   29.5230   52.7180 C   0  0  0  0  0  0  0  0  0  0  0  0
   51.3060   29.9630   52.4820 C   0  0  0  0  0  0  0  0  0  0  0  0
   50.8100   31.3240   52.7290 C   0  0  0  0  0  0  0  0  0  0  0  0
   50.5260   31.8010   53.9530 N   0  0  0  0  0  0  0  0  0  0  0  0
   50.2500   33.1040   53.7270 C   0  0  0  0  0  0  0  0  0  0  0  0
   49.9200   33.8960   54.6470 O   0  0  0  0  0  0  0  0  0  0  0  0
   50.3730   33.4950   52.4400 N   0  0  0  0  0  0  0  0  0  0  0  0
   50.7440   32.3610   51.8230 C   0  0  0  0  0  0  0  0  0  0  0  0
   51.0440   32.2830   50.4690 O   0  0  0  0  0  0  0  0  0  0  0  0
   52.8200   28.2950   53.3030 C   0  0  0  0  0  0  0  0  0  0  0  0
   54.1880   28.2080   53.4560 C   0  0  0  0  0  0  0  0  0  0  0  0
   54.9020   27.0410   54.0680 C   0  0  0  0  0  0  0  0  0  0  0  0
   54.7880   29.3090   52.9520 N   0  0  0  0  0  0  0  0  0  0  0  0
   56.2070   29.5460   52.9120 C   0  0  0  0  0  0  0  0  0  0  0  0
   56.6980   30.8350   52.6630 C   0  0  0  0  0  0  0  0  0  0  0  0
   58.0760   31.0710   52.6380 C   0  0  0  0  0  0  0  0  0  0  0  0
   58.9800   30.0220   52.8690 C   0  0  0  0  0  0  0  0  0  0  0  0
   60.4380   30.2620   52.8290 C   0  0  0  0  0  0  0  0  0  0  0  0
   61.1370   29.9700   53.8380 O   0  0  0  0  0  0  0  0  0  0  0  0
   61.0740   30.8190   51.6640 N   0  0  0  0  0  0  0  0  0  0  0  0
   61.9690   31.9790   51.8220 C   0  0  0  0  0  0  0  0  0  0  0  0
   62.8760   32.1670   50.6020 C   0  0  0  0  0  0  0  0  0  0  0  0
   62.0620   32.1530   49.3700 N   0  0  0  0  0  0  0  0  0  0  0  0
   62.0470   33.2560   48.3570 C   0  0  0  0  0  0  0  0  0  0  0  0
   62.7130   34.5190   48.9460 C   0  0  0  0  0  0  0  0  0  0  0  0
   60.6160   33.6530   47.9180 C   0  0  0  0  0  0  0  0  0  0  0  0
   62.8020   32.8080   47.0840 C   0  0  0  0  0  0  0  0  0  0  0  0
   61.2320   30.9760   49.2280 C   0  0  0  0  0  0  0  0  0  0  0  0
   60.7160   30.6670   48.1210 O   0  0  0  0  0  0  0  0  0  0  0  0
   61.0200   30.0650   50.4030 C   0  0  0  0  0  0  0  0  0  0  0  0
   58.4850   28.7270   53.0970 C   0  0  0  0  0  0  0  0  0  0  0  0
   57.1070   28.4930   53.1250 C   0  0  0  0  0  0  0  0  0  0  0  0
   55.0836   31.5793   51.6244 H   0  0  0  0  0  0  0  0  0  0  0  0
   53.2213   31.7546   51.2627 H   0  0  0  0  0  0  0  0  0  0  0  0
   50.5908   29.2377   52.0667 H   0  0  0  0  0  0  0  0  0  0  0  0
   52.0791   27.5345   53.5906 H   0  0  0  0  0  0  0  0  0  0  0  0
   54.8557   27.1167   55.1644 H   0  0  0  0  0  0  0  0  0  0  0  0
   54.4211   26.1061   53.7444 H   0  0  0  0  0  0  0  0  0  0  0  0
   55.9533   27.0436   53.7444 H   0  0  0  0  0  0  0  0  0  0  0  0
   55.9968   31.6639   52.4866 H   0  0  0  0  0  0  0  0  0  0  0  0
   58.4538   32.0842   52.4362 H   0  0  0  0  0  0  0  0  0  0  0  0
   61.3586   32.8844   51.9549 H   0  0  0  0  0  0  0  0  0  0  0  0
   62.6081   31.8012   52.6995 H   0  0  0  0  0  0  0  0  0  0  0  0
   63.4017   33.1299   50.6821 H   0  0  0  0  0  0  0  0  0  0  0  0
   63.6093   31.3480   50.5635 H   0  0  0  0  0  0  0  0  0  0  0  0
   62.6866   34.4690   50.0445 H   0  0  0  0  0  0  0  0  0  0  0  0
   63.7578   34.5748   48.6065 H   0  0  0  0  0  0  0  0  0  0  0  0
   62.1689   35.4127   48.6065 H   0  0  0  0  0  0  0  0  0  0  0  0
   59.9939   33.8256   48.8086 H   0  0  0  0  0  0  0  0  0  0  0  0
   60.6589   34.5732   47.3168 H   0  0  0  0  0  0  0  0  0  0  0  0
   60.1787   32.8422   47.3168 H   0  0  0  0  0  0  0  0  0  0  0  0
   63.7152   32.2661   47.3709 H   0  0  0  0  0  0  0  0  0  0  0  0
   62.1556   32.1472   46.4878 H   0  0  0  0  0  0  0  0  0  0  0  0
   63.0722   33.6920   46.4878 H   0  0  0  0  0  0  0  0  0  0  0  0
   60.0353   29.5831   50.3128 H   0  0  0  0  0  0  0  0  0  0  0  0
   61.8175   29.3074   50.4105 H   0  0  0  0  0  0  0  0  0  0  0  0
   59.1851   27.8932   53.2542 H   0  0  0  0  0  0  0  0  0  0  0  0
   56.7275   27.4782   53.3150 H   0  0  0  0  0  0  0  0  0  0  0  0
  1  2  2  0
  2  3  1  0
  3  4  2  3
  4  5  1  0
  5  6  1  0
  6  7  1  0
  7  8  2  0
  7  9  1  0
  9 10  1  0
 10 11  1  0
  3 12  1  0
 12 13  2  0
 13 14  1  0
 13 15  1  0
 15 16  1  0
 16 17  2  0
 17 18  1  0
 18 19  2  0
 19 20  1  0
 20 21  2  0
 20 22  1  0
 22 23  1  0
 23 24  1  0
 24 25  1  0
 25 26  1  0
 26 27  1  0
 26 28  1  0
 26 29  1  0
 25 30  1  0
 30 31  2  0
 30 32  1  0
 19 33  1  0
 33 34  2  0
 15  2  1  0
 34 16  1  0
 10  5  2  0
 32 22  1  0
  1 35  1  0
  1 36  1  0
  4 37  1  0
 12 38  1  0
 14 39  1  0
 14 40  1  0
 14 41  1  0
 17 42  1  0
 18 43  1  0
 23 44  1  0
 23 45  1  0
 24 46  1  0
 24 47  1  0
 27 48  1  0
 27 49  1  0
 27 50  1  0
 28 51  1  0
 28 52  1  0
 28 53  1  0
 29 54  1  0
 29 55  1  0
 29 56  1  0
 32 57  1  0
 32 58  1  0
 33 59  1  0
 34 60  1  0
M  CHG  3   6  -1   9  -1  11  -1
M  END
>  <UniqueID>  (10) 
9

>  <SMILES>  (10) 
C=c1c(=Cc2[n-]c(=O)[n-]c2[O-])cc(C)n1-c1ccc(C(=O)N2CCN(C(C)(C)C)C(=O)C2)cc1

>  <Energy>  (10) 
146.93188617729876

>  <Genealogy>  (10) 
C=c1c(=Cc2[n-]c(=O)[n-]c2[O-])cc(C)n1-c1ccc(C(=O)N2CCN(C(C)(C)C)C(=O)C2)cc1 (protonated)
C=c1c(=Cc2[n-]c(=O)[n-]c2[O-])cc(C)n1-c1ccc(C(=O)N2CCN(C(C)(C)C)C(=O)C2)cc1 (3D coordinates assigned)
C=c1c(=Cc2[n-]c(=O)[n-]c2[O-])cc(C)n1-c1ccc(C(=O)N2CCN(C(C)(C)C)C(=O)C2)cc1 (nonaromatic ring conformer: 146.93188617729876 kcal/mol)

>  <smiles>  (10) 
C=c1c(=Cc2[nH]c(=O)[nH]c2O)cc(C)n1-c1ccc(C(=O)N2CCN(C(C)(C)C)C(=O)C2)cc1

>  <score_type>  (10) 
oracle

>  <origin>  (10) 
adg

>  <m_score__min__energy>  (10) 
-16.34

>  <m_primary>  (10) 
energy

$$$$
10:0
     RDKit          3D

 55 59  0  0  0  0  0  0  0  0999 V2000
   65.9550   32.9990   49.7460 C   0  0  0  0  0  0  0  0  0  0  0  0
   64.4780   33.2520   49.7800 C   0  0  0  0  0  0  0  0  0  0  0  0
   63.7960   33.2810   51.0220 C   0  0  0  0  0  0  0  0  0  0  0  0
   62.4040   33.4820   51.0810 C   0  0  0  0  0  0  0  0  0  0  0  0
   61.7140   33.6500   49.8780 C   0  0  0  0  0  0  0  0  0  0  0  0
   62.3820   33.5970   48.6660 C   0  0  0  0  0  0  0  0  0  0  0  0
   63.7550   33.3920   48.5740 C   0  0  0  0  0  0  0  0  0  0  0  0
   61.4100   33.7380   47.7080 C   0  0  0  0  0  0  0  0  0  0  0  0
   61.4710   33.7100   46.3580 N   0  0  0  0  0  0  0  0  0  0  0  0
   60.3290   33.8350   45.6700 N   0  0  0  0  0  0  0  0  0  0  0  0
   59.1200   33.9830   46.3070 C   0  0  0  0  0  0  0  0  0  0  0  0
   57.6200   34.1660   45.3490 S   0  0  0  0  0  0  0  0  0  0  0  0
   57.9140   32.6720   44.3400 C   0  0  0  0  0  0  0  0  0  0  0  0
   57.1880   31.4980   44.9330 C   0  0  0  0  0  0  0  0  0  0  0  0
   56.0770   31.1520   44.4510 O   0  0  0  0  0  0  0  0  0  0  0  0
   57.7690   30.7030   45.9730 N   0  0  0  0  0  0  0  0  0  0  0  0
   58.1850   29.3430   45.8050 C   0  0  0  0  0  0  0  0  0  0  0  0
   57.6250   28.5840   44.7700 C   0  0  0  0  0  0  0  0  0  0  0  0
   58.0460   27.2700   44.5520 C   0  0  0  0  0  0  0  0  0  0  0  0
   59.0240   26.7040   45.3710 C   0  0  0  0  0  0  0  0  0  0  0  0
   59.5730   27.4440   46.4210 C   0  0  0  0  0  0  0  0  0  0  0  0
   59.1480   28.7630   46.6580 C   0  0  0  0  0  0  0  0  0  0  0  0
   59.6650   29.4950   47.7830 N   0  0  0  0  0  0  0  0  0  0  0  0
   60.8370   30.3590   47.6100 C   0  0  0  0  0  0  0  0  0  0  0  0
   61.5930   30.4640   48.9400 C   0  0  0  0  0  0  0  0  0  0  0  0
   60.7230   30.8570   49.9850 O   0  0  0  0  0  0  0  0  0  0  0  0
   59.7380   29.8600   50.1960 C   0  0  0  0  0  0  0  0  0  0  0  0
   58.8330   29.7220   48.9660 C   0  0  0  0  0  0  0  0  0  0  0  0
   59.0590   33.9930   47.6730 N   0  0  0  0  0  0  0  0  0  0  0  0
   60.2200   33.8730   48.3580 C   0  0  0  0  0  0  0  0  0  0  0  0
   60.3790   33.8360   49.6990 N   0  0  0  0  0  0  0  0  0  0  0  0
   59.3260   33.8150   50.7120 C   0  0  0  0  0  0  0  0  0  0  0  0
   66.3395   32.9331   50.7745 H   0  0  0  0  0  0  0  0  0  0  0  0
   66.1531   32.0538   49.2193 H   0  0  0  0  0  0  0  0  0  0  0  0
   66.4564   33.8243   49.2193 H   0  0  0  0  0  0  0  0  0  0  0  0
   64.3633   33.1443   51.9545 H   0  0  0  0  0  0  0  0  0  0  0  0
   61.8754   33.5061   52.0454 H   0  0  0  0  0  0  0  0  0  0  0  0
   64.2595   33.3408   47.5978 H   0  0  0  0  0  0  0  0  0  0  0  0
   57.5495   32.8463   43.3169 H   0  0  0  0  0  0  0  0  0  0  0  0
   58.9925   32.4565   44.3212 H   0  0  0  0  0  0  0  0  0  0  0  0
   56.8500   29.0246   44.1256 H   0  0  0  0  0  0  0  0  0  0  0  0
   57.6062   26.6808   43.7339 H   0  0  0  0  0  0  0  0  0  0  0  0
   59.3631   25.6735   45.1894 H   0  0  0  0  0  0  0  0  0  0  0  0
   60.3416   26.9925   47.0655 H   0  0  0  0  0  0  0  0  0  0  0  0
   61.4996   29.9297   46.8441 H   0  0  0  0  0  0  0  0  0  0  0  0
   60.5115   31.3605   47.2923 H   0  0  0  0  0  0  0  0  0  0  0  0
   62.0301   29.4846   49.1843 H   0  0  0  0  0  0  0  0  0  0  0  0
   62.3834   31.2220   48.8365 H   0  0  0  0  0  0  0  0  0  0  0  0
   60.2343   28.8974   50.3888 H   0  0  0  0  0  0  0  0  0  0  0  0
   59.1201   30.1508   51.0583 H   0  0  0  0  0  0  0  0  0  0  0  0
   58.1498   28.8711   49.1048 H   0  0  0  0  0  0  0  0  0  0  0  0
   58.2437   30.6414   48.8341 H   0  0  0  0  0  0  0  0  0  0  0  0
   59.7806   33.8241   51.7136 H   0  0  0  0  0  0  0  0  0  0  0  0
   58.6845   34.7005   50.5924 H   0  0  0  0  0  0  0  0  0  0  0  0
   58.7203   32.9046   50.5924 H   0  0  0  0  0  0  0  0  0  0  0  0
  1  2  1  0
  2  3  2  0
  3  4  1  0
  4  5  2  0
  5  6  1  0
  6  7  2  0
  6  8  1  0
  8  9  2  0
  9 10  1  0
 10 11  2  0
 11 12  1  0
 12 13  1  0
 13 14  1  0
 14 15  2  0
 14 16  1  0
 16 17  1  0
 17 18  2  0
 18 19  1  0
 19 20  2  0
 20 21  1  0
 21 22  2  0
 22 23  1  0
 23 24  1  0
 24 25  1  0
 25 26  1  0
 26 27  1  0
 27 28  1  0
 11 29  1  0
 29 30  2  0
 30 31  1  0
 31 32  1  0
  7  2  1  0
 30  8  1  0
 31  5  1  0
 22 17  1  0
 28 23  1  0
  1 33  1  0
  1 34  1  0
  1 35  1  0
  3 36  1  0
  4 37  1  0
  7 38  1  0
 13 39  1  0
 13 40  1  0
 18 41  1  0
 19 42  1  0
 20 43  1  0
 21 44  1  0
 24 45  1  0
 24 46  1  0
 25 47  1  0
 25 48  1  0
 27 49  1  0
 27 50  1  0
 28 51  1  0
 28 52  1  0
 32 53  1  0
 32 54  1  0
 32 55  1  0
M  CHG  1  16  -1
M  END
>  <UniqueID>  (11) 
10

>  <SMILES>  (11) 
Cc1ccc2c(c1)c1nnc(SCC(=O)[N-]c3ccccc3N3CCOCC3)nc1n2C

>  <Energy>  (11) 
113.56097006040171

>  <Genealogy>  (11) 
Cc1ccc2c(c1)c1nnc(SCC(=O)[N-]c3ccccc3N3CCOCC3)nc1n2C (protonated)
Cc1ccc2c(c1)c1nnc(SCC(=O)[N-]c3ccccc3N3CCOCC3)nc1n2C (3D coordinates assigned)
Cc1ccc2c(c1)c1nnc(SCC(=O)[N-]c3ccccc3N3CCOCC3)nc1n2C (nonaromatic ring conformer: 113.56097006040171 kcal/mol)

>  <smiles>  (11) 
Cc1ccc2c(c1)c1nnc(SCC(=O)Nc3ccccc3N3CCOCC3)nc1n2C

>  <score_type>  (11) 
oracle

>  <origin>  (11) 
adg

>  <m_score__min__energy>  (11) 
-10.93

>  <m_primary>  (11) 
energy

$$$$
11:0
     RDKit          3D

 29 30  0  0  0  0  0  0  0  0999 V2000
   58.1170   32.3420   43.5570 C   0  0  0  0  0  0  0  0  0  0  0  0
   57.7580   33.0650   45.1410 S   0  0  0  0  0  0  0  0  0  0  0  0
   58.4970   34.3670   45.2650 O   0  0  0  0  0  0  0  0  0  0  0  0
   56.2780   33.3010   45.2490 O   0  0  0  0  0  0  0  0  0  0  0  0
   58.2730   31.9730   46.3860 N   0  0  0  0  0  0  0  0  0  0  0  0
   58.7290   30.6280   46.1750 C   0  0  0  0  0  0  0  0  0  0  0  0
   60.0100   30.2130   46.5770 C   0  0  0  0  0  0  0  0  0  0  0  0
   60.4270   28.9030   46.3500 C   0  0  0  0  0  0  0  0  0  0  0  0
   59.5760   27.9920   45.7280 C   0  0  0  0  0  0  0  0  0  0  0  0
   58.2860   28.3780   45.3270 C   0  0  0  0  0  0  0  0  0  0  0  0
   57.4030   27.3640   44.6390 C   0  0  0  0  0  0  0  0  0  0  0  0
   57.1170   26.2020   45.5440 C   0  0  0  0  0  0  0  0  0  0  0  0
   58.2470   25.0500   46.0390 S   0  0  0  0  0  0  0  0  0  0  0  0
   57.1340   24.2570   47.0170 C   0  0  0  0  0  0  0  0  0  0  0  0
   57.3940   23.2320   47.6990 O   0  0  0  0  0  0  0  0  0  0  0  0
   55.9170   24.8410   47.0000 N   0  0  0  0  0  0  0  0  0  0  0  0
   55.9100   25.9280   46.1860 C   0  0  0  0  0  0  0  0  0  0  0  0
   54.7700   26.7040   46.0200 O   0  0  0  0  0  0  0  0  0  0  0  0
   57.8660   29.7150   45.5450 C   0  0  0  0  0  0  0  0  0  0  0  0
   56.6050   30.1660   45.1440 O   0  0  0  0  0  0  0  0  0  0  0  0
   58.6020   31.3653   43.7012 H   0  0  0  0  0  0  0  0  0  0  0  0
   57.1811   32.2073   42.9949 H   0  0  0  0  0  0  0  0  0  0  0  0
   58.7900   33.0061   42.9949 H   0  0  0  0  0  0  0  0  0  0  0  0
   60.6861   30.9251   47.0728 H   0  0  0  0  0  0  0  0  0  0  0  0
   61.4328   28.5866   46.6634 H   0  0  0  0  0  0  0  0  0  0  0  0
   59.9170   26.9616   45.5493 H   0  0  0  0  0  0  0  0  0  0  0  0
   56.4539   27.8442   44.3585 H   0  0  0  0  0  0  0  0  0  0  0  0
   57.9247   26.9929   43.7445 H   0  0  0  0  0  0  0  0  0  0  0  0
   56.2920   31.1200   45.2550 H   0  0  0  0  0  0  0  0  0  0  0  0
  1  2  1  0
  2  3  2  0
  2  4  2  0
  2  5  1  0
  5  6  1  0
  6  7  2  0
  7  8  1  0
  8  9  2  0
  9 10  1  0
 10 11  1  0
 11 12  1  0
 12 13  1  0
 13 14  1  0
 14 15  2  0
 14 16  1  0
 16 17  1  0
 17 18  1  0
 10 19  2  0
 19 20  1  0
 19  6  1  0
 17 12  2  0
  1 21  1  0
  1 22  1  0
  1 23  1  0
  7 24  1  0
  8 25  1  0
  9 26  1  0
 11 27  1  0
 11 28  1  0
 20 29  1  0
M  CHG  3   5  -1  16  -1  18  -1
M  END
>  <UniqueID>  (12) 
11

>  <SMILES>  (12) 
CS(=O)(=O)[N-]c1cccc(Cc2sc(=O)[n-]c2[O-])c1O

>  <Energy>  (12) 
60.00995981359464

>  <Genealogy>  (12) 
CS(=O)(=O)[N-]c1cccc(Cc2sc(=O)[n-]c2[O-])c1O (protonated)
CS(=O)(=O)[N-]c1cccc(Cc2sc(=O)[n-]c2[O-])c1O (3D coordinates assigned)
CS(=O)(=O)[N-]c1cccc(Cc2sc(=O)[n-]c2[O-])c1O (optimized conformer: 60.00995981359464 kcal/mol)

>  <smiles>  (12) 
CS(=O)(=O)Nc1cccc(Cc2sc(=O)[nH]c2O)c1O

>  <score_type>  (12) 
oracle

>  <origin>  (12) 
adg

>  <m_score__min__energy>  (12) 
-14.880000000000001

>  <m_primary>  (12) 
energy

$$$$
12:0
     RDKit          3D

 44 47  0  0  0  0  0  0  0  0999 V2000
   63.9940   35.6370   54.6440 C   0  0  0  0  0  0  0  0  0  0  0  0
   63.8980   34.9340   53.3580 N   0  0  0  0  0  0  0  0  0  0  0  0
   64.6040   35.4840   52.1940 C   0  0  0  0  0  0  0  0  0  0  0  0
   63.1170   33.7160   53.2400 C   0  0  0  0  0  0  0  0  0  0  0  0
   62.7700   33.1970   51.9750 C   0  0  0  0  0  0  0  0  0  0  0  0
   62.0170   32.0250   51.8640 C   0  0  0  0  0  0  0  0  0  0  0  0
   61.5740   31.3520   53.0090 C   0  0  0  0  0  0  0  0  0  0  0  0
   60.8080   30.0970   52.8560 C   0  0  0  0  0  0  0  0  0  0  0  0
   59.4670   30.0310   52.8160 C   0  0  0  0  0  0  0  0  0  0  0  0
   58.4920   29.7910   51.4170 S   0  0  0  0  0  0  0  0  0  0  0  0
   57.0810   29.8010   52.3250 C   0  0  0  0  0  0  0  0  0  0  0  0
   57.3160   29.9660   53.6200 N   0  0  0  0  0  0  0  0  0  0  0  0
   58.6220   30.1000   53.9400 C   0  0  0  0  0  0  0  0  0  0  0  0
   59.0200   30.2680   55.1240 O   0  0  0  0  0  0  0  0  0  0  0  0
   56.0680   29.9800   54.2660 C   0  0  0  0  0  0  0  0  0  0  0  0
   55.8730   30.2310   55.4840 O   0  0  0  0  0  0  0  0  0  0  0  0
   55.0950   29.7850   53.1860 C   0  0  0  0  0  0  0  0  0  0  0  0
   53.7580   29.7620   53.2390 C   0  0  0  0  0  0  0  0  0  0  0  0
   52.8740   30.4000   52.2430 C   0  0  0  0  0  0  0  0  0  0  0  0
   52.7760   29.9030   50.9310 C   0  0  0  0  0  0  0  0  0  0  0  0
   51.9660   30.5480   49.9920 C   0  0  0  0  0  0  0  0  0  0  0  0
   51.2660   31.7050   50.3470 C   0  0  0  0  0  0  0  0  0  0  0  0
   50.4620   32.3420   49.4080 O   0  0  0  0  0  0  0  0  0  0  0  0
   51.3820   32.2230   51.6420 C   0  0  0  0  0  0  0  0  0  0  0  0
   50.6970   33.3790   51.9970 O   0  0  0  0  0  0  0  0  0  0  0  0
   52.1930   31.5780   52.5840 C   0  0  0  0  0  0  0  0  0  0  0  0
   55.8400   29.6910   51.9570 N   0  0  0  0  0  0  0  0  0  0  0  0
   61.9400   31.8420   54.2730 C   0  0  0  0  0  0  0  0  0  0  0  0
   62.6940   33.0130   54.3870 C   0  0  0  0  0  0  0  0  0  0  0  0
   63.8951   34.9128   55.4660 H   0  0  0  0  0  0  0  0  0  0  0  0
   64.9693   36.1408   54.7145 H   0  0  0  0  0  0  0  0  0  0  0  0
   63.1895   36.3839   54.7145 H   0  0  0  0  0  0  0  0  0  0  0  0
   65.4289   36.1266   52.5355 H   0  0  0  0  0  0  0  0  0  0  0  0
   65.0080   34.6602   51.5873 H   0  0  0  0  0  0  0  0  0  0  0  0
   63.9040   36.0772   51.5873 H   0  0  0  0  0  0  0  0  0  0  0  0
   63.0962   33.7213   51.0647 H   0  0  0  0  0  0  0  0  0  0  0  0
   61.7702   31.6278   50.8684 H   0  0  0  0  0  0  0  0  0  0  0  0
   61.3724   29.1568   52.7693 H   0  0  0  0  0  0  0  0  0  0  0  0
   53.2863   29.2328   54.0801 H   0  0  0  0  0  0  0  0  0  0  0  0
   53.3390   29.0031   50.6426 H   0  0  0  0  0  0  0  0  0  0  0  0
   51.8792   30.1447   48.9723 H   0  0  0  0  0  0  0  0  0  0  0  0
   52.2965   31.9970   53.5958 H   0  0  0  0  0  0  0  0  0  0  0  0
   61.6312   31.3005   55.1793 H   0  0  0  0  0  0  0  0  0  0  0  0
   62.9611   33.3915   55.3847 H   0  0  0  0  0  0  0  0  0  0  0  0
  1  2  1  0
  2  3  1  0
  2  4  1  0
  4  5  2  0
  5  6  1  0
  6  7  2  0
  7  8  1  0
  8  9  2  3
  9 10  1  0
 10 11  1  0
 11 12  1  0
 12 13  1  0
 13 14  2  0
 12 15  1  0
 15 16  2  0
 15 17  1  0
 17 18  2  3
 18 19  1  0
 19 20  2  0
 20 21  1  0
 21 22  2  0
 22 23  1  0
 22 24  1  0
 24 25  1  0
 24 26  2  0
 17 27  1  0
  7 28  1  0
 28 29  2  0
 29  4  1  0
 13  9  1  0
 26 19  1  0
 27 11  2  0
  1 30  1  0
  1 31  1  0
  1 32  1  0
  3 33  1  0
  3 34  1  0
  3 35  1  0
  5 36  1  0
  6 37  1  0
  8 38  1  0
 18 39  1  0
 20 40  1  0
 21 41  1  0
 26 42  1  0
 28 43  1  0
 29 44  1  0
M  CHG  2  23  -1  25  -1
M  END
>  <UniqueID>  (13) 
12

>  <SMILES>  (13) 
CN(C)c1ccc(C=c2sc3n(c2=O)C(=O)C(=Cc2ccc([O-])c([O-])c2)N=3)cc1

>  <Energy>  (13) 
141.8867776221945

>  <Genealogy>  (13) 
CN(C)c1ccc(C=c2sc3n(c2=O)C(=O)C(=Cc2ccc([O-])c([O-])c2)N=3)cc1 (protonated)
CN(C)c1ccc(C=c2sc3n(c2=O)C(=O)C(=Cc2ccc([O-])c([O-])c2)N=3)cc1 (3D coordinates assigned)
CN(C)c1ccc(C=c2sc3n(c2=O)C(=O)C(=Cc2ccc([O-])c([O-])c2)N=3)cc1 (nonaromatic ring conformer: 141.8867776221945 kcal/mol)

>  <smiles>  (13) 
CN(C)c1ccc(C=c2sc3n(c2=O)C(=O)C(=Cc2ccc(O)c(O)c2)N=3)cc1

>  <score_type>  (13) 
oracle

>  <origin>  (13) 
adg

>  <m_score__min__energy>  (13) 
-15.59

>  <m_primary>  (13) 
energy

$$$$
13:0
     RDKit          3D

 52 55  0  0  0  0  0  0  0  0999 V2000
   58.2410   30.1470   47.0660 C   0  0  0  0  0  0  0  0  0  0  0  0
   58.9390   29.0850   47.5020 C   0  0  0  0  0  0  0  0  0  0  0  0
   58.8560   27.7670   47.0140 C   0  0  0  0  0  0  0  0  0  0  0  0
   58.2160   27.2540   45.9440 C   0  0  0  0  0  0  0  0  0  0  0  0
   57.0450   26.3570   45.9870 C   0  0  0  0  0  0  0  0  0  0  0  0
   55.7650   26.8120   45.6250 C   0  0  0  0  0  0  0  0  0  0  0  0
   55.5620   28.1350   45.2490 O   0  0  0  0  0  0  0  0  0  0  0  0
   54.7140   25.9530   45.6350 N   0  0  0  0  0  0  0  0  0  0  0  0
   54.8780   24.6490   45.9750 C   0  0  0  0  0  0  0  0  0  0  0  0
   53.5940   23.6410   45.9800 S   0  0  0  0  0  0  0  0  0  0  0  0
   56.1090   24.1790   46.3000 N   0  0  0  0  0  0  0  0  0  0  0  0
   57.1940   24.9980   46.3050 C   0  0  0  0  0  0  0  0  0  0  0  0
   58.3230   24.5280   46.6060 O   0  0  0  0  0  0  0  0  0  0  0  0
   59.6150   26.9890   47.8680 C   0  0  0  0  0  0  0  0  0  0  0  0
   60.1750   27.8380   48.7960 C   0  0  0  0  0  0  0  0  0  0  0  0
   61.0490   27.3870   49.9290 C   0  0  0  0  0  0  0  0  0  0  0  0
   59.7740   29.1130   48.5810 N   0  0  0  0  0  0  0  0  0  0  0  0
   60.1340   30.2650   49.4250 C   0  0  0  0  0  0  0  0  0  0  0  0
   60.1160   31.5440   48.6240 C   0  0  0  0  0  0  0  0  0  0  0  0
   60.9500   31.6940   47.5060 C   0  0  0  0  0  0  0  0  0  0  0  0
   60.9270   32.8750   46.7590 C   0  0  0  0  0  0  0  0  0  0  0  0
   60.0710   33.9320   47.1210 C   0  0  0  0  0  0  0  0  0  0  0  0
   60.0240   35.1650   46.3760 N   0  0  0  0  0  0  0  0  0  0  0  0
   59.2770   35.3500   45.1320 C   0  0  0  0  0  0  0  0  0  0  0  0
   58.4920   34.1130   44.7990 C   0  0  0  0  0  0  0  0  0  0  0  0
   57.3970   33.7220   45.5840 C   0  0  0  0  0  0  0  0  0  0  0  0
   56.6830   32.5720   45.2380 C   0  0  0  0  0  0  0  0  0  0  0  0
   57.0580   31.8320   44.1150 C   0  0  0  0  0  0  0  0  0  0  0  0
   58.1450   32.2570   43.3490 C   0  0  0  0  0  0  0  0  0  0  0  0
   58.8300   33.3780   43.7010 N   0  0  0  0  0  0  0  0  0  0  0  0
   59.2390   33.7770   48.2400 C   0  0  0  0  0  0  0  0  0  0  0  0
   59.2620   32.5970   48.9870 C   0  0  0  0  0  0  0  0  0  0  0  0
   58.3934   31.1331   47.5290 H   0  0  0  0  0  0  0  0  0  0  0  0
   57.5171   30.0304   46.2460 H   0  0  0  0  0  0  0  0  0  0  0  0
   58.6009   27.5284   44.9507 H   0  0  0  0  0  0  0  0  0  0  0  0
   59.7467   25.8981   47.8160 H   0  0  0  0  0  0  0  0  0  0  0  0
   60.5666   27.6359   50.8857 H   0  0  0  0  0  0  0  0  0  0  0  0
   61.1987   26.2991   49.8660 H   0  0  0  0  0  0  0  0  0  0  0  0
   62.0224   27.8954   49.8660 H   0  0  0  0  0  0  0  0  0  0  0  0
   59.4117   30.3466   50.2506 H   0  0  0  0  0  0  0  0  0  0  0  0
   61.1496   30.1099   49.8179 H   0  0  0  0  0  0  0  0  0  0  0  0
   61.6265   30.8767   47.2154 H   0  0  0  0  0  0  0  0  0  0  0  0
   61.5826   32.9792   45.8819 H   0  0  0  0  0  0  0  0  0  0  0  0
   60.5720   35.9820   46.7290 H   0  0  0  0  0  0  0  0  0  0  0  0
   58.5851   36.1972   45.2481 H   0  0  0  0  0  0  0  0  0  0  0  0
   59.9883   35.5494   44.3169 H   0  0  0  0  0  0  0  0  0  0  0  0
   57.1036   34.3148   46.4629 H   0  0  0  0  0  0  0  0  0  0  0  0
   55.8270   32.2502   45.8492 H   0  0  0  0  0  0  0  0  0  0  0  0
   56.5030   30.9240   43.8368 H   0  0  0  0  0  0  0  0  0  0  0  0
   58.4478   31.6846   42.4598 H   0  0  0  0  0  0  0  0  0  0  0  0
   58.5617   34.5931   48.5320 H   0  0  0  0  0  0  0  0  0  0  0  0
   58.6072   32.4924   49.8646 H   0  0  0  0  0  0  0  0  0  0  0  0
  1  2  2  0
  2  3  1  0
  3  4  2  3
  4  5  1  0
  5  6  2  0
  6  7  1  0
  6  8  1  0
  8  9  1  0
  9 10  2  0
  9 11  1  0
 11 12  1  0
 12 13  2  0
  3 14  1  0
 14 15  2  0
 15 16  1  0
 15 17  1  0
 17 18  1  0
 18 19  1  0
 19 20  2  0
 20 21  1  0
 21 22  2  0
 22 23  1  0
 23 24  1  0
 24 25  1  0
 25 26  2  0
 26 27  1  0
 27 28  2  0
 28 29  1  0
 29 30  2  0
 22 31  1  0
 31 32  2  0
 17  2  1  0
 32 19  1  0
 12  5  1  0
 30 25  1  0
  1 33  1  0
  1 34  1  0
  4 35  1  0
 14 36  1  0
 16 37  1  0
 16 38  1  0
 16 39  1  0
 18 40  1  0
 18 41  1  0
 20 42  1  0
 21 43  1  0
 23 44  1  0
 24 45  1  0
 24 46  1  0
 26 47  1  0
 27 48  1  0
 28 49  1  0
 29 50  1  0
 31 51  1  0
 32 52  1  0
M  CHG  3   7  -1   8  -1  11  -1
M  END
>  <UniqueID>  (14) 
13

>  <SMILES>  (14) 
C=c1c(=Cc2c([O-])[n-]c(=S)[n-]c2=O)cc(C)n1Cc1ccc(NCc2ccccn2)cc1

>  <Energy>  (14) 
98.62475824886964

>  <Genealogy>  (14) 
C=c1c(=Cc2c([O-])[n-]c(=S)[n-]c2=O)cc(C)n1Cc1ccc(NCc2ccccn2)cc1 (protonated)
C=c1c(=Cc2c([O-])[n-]c(=S)[n-]c2=O)cc(C)n1Cc1ccc(NCc2ccccn2)cc1 (3D coordinates assigned)
C=c1c(=Cc2c([O-])[n-]c(=S)[n-]c2=O)cc(C)n1Cc1ccc(NCc2ccccn2)cc1 (optimized conformer: 98.62475824886964 kcal/mol)

>  <smiles>  (14) 
C=c1c(=Cc2c(O)[nH]c(=S)[nH]c2=O)cc(C)n1Cc1ccc(NCc2ccccn2)cc1

>  <score_type>  (14) 
oracle

>  <origin>  (14) 
adg

>  <m_score__min__energy>  (14) 
-16.370000000000001

>  <m_primary>  (14) 
energy

$$$$
14:0
     RDKit          3D

 45 47  0  0  0  0  0  0  0  0999 V2000
   57.9530   26.6940   44.8150 C   0  0  0  0  0  0  0  0  0  0  0  0
   56.7790   27.1900   45.6540 C   0  0  0  0  0  0  0  0  0  0  0  0
   56.3740   28.5350   45.2370 N   0  0  0  0  0  0  0  0  0  0  0  0
   57.0080   29.6540   45.4480 C   0  0  0  0  0  0  0  0  0  0  0  0
   58.0890   29.7640   46.3470 C   0  0  0  0  0  0  0  0  0  0  0  0
   58.6980   30.9670   46.5140 N   0  0  0  0  0  0  0  0  0  0  0  0
   58.2890   32.0710   45.8390 C   0  0  0  0  0  0  0  0  0  0  0  0
   59.1270   33.5990   46.0750 S   0  0  0  0  0  0  0  0  0  0  0  0
   59.5900   34.1340   44.7470 O   0  0  0  0  0  0  0  0  0  0  0  0
   58.1650   34.5830   46.6800 O   0  0  0  0  0  0  0  0  0  0  0  0
   60.4890   33.3720   47.1430 N   0  0  0  0  0  0  0  0  0  0  0  0
   60.4180   34.3340   48.2590 C   0  0  0  0  0  0  0  0  0  0  0  0
   61.4760   33.9900   49.3170 C   0  0  0  0  0  0  0  0  0  0  0  0
   62.7010   33.4830   48.6830 N   0  0  0  0  0  0  0  0  0  0  0  0
   63.6510   32.7170   49.4490 C   0  0  0  0  0  0  0  0  0  0  0  0
   63.2310   31.6050   50.2030 C   0  0  0  0  0  0  0  0  0  0  0  0
   64.1570   30.8570   50.9350 C   0  0  0  0  0  0  0  0  0  0  0  0
   65.5100   31.2040   50.9180 C   0  0  0  0  0  0  0  0  0  0  0  0
   65.9390   32.3010   50.1640 C   0  0  0  0  0  0  0  0  0  0  0  0
   65.0160   33.0520   49.4300 C   0  0  0  0  0  0  0  0  0  0  0  0
   62.9680   33.8370   47.2840 C   0  0  0  0  0  0  0  0  0  0  0  0
   61.7590   33.4960   46.3880 C   0  0  0  0  0  0  0  0  0  0  0  0
   57.2160   31.9670   44.9480 C   0  0  0  0  0  0  0  0  0  0  0  0
   56.6050   30.7670   44.7780 N   0  0  0  0  0  0  0  0  0  0  0  0
   58.7604   26.3529   45.4796 H   0  0  0  0  0  0  0  0  0  0  0  0
   57.6229   25.8584   44.1803 H   0  0  0  0  0  0  0  0  0  0  0  0
   58.3220   27.5131   44.1803 H   0  0  0  0  0  0  0  0  0  0  0  0
   55.9297   26.5023   45.5283 H   0  0  0  0  0  0  0  0  0  0  0  0
   57.0892   27.2259   46.7087 H   0  0  0  0  0  0  0  0  0  0  0  0
   58.4360   28.8837   46.9080 H   0  0  0  0  0  0  0  0  0  0  0  0
   60.4160   32.4000   47.5290 H   0  0  0  0  0  0  0  0  0  0  0  0
   60.6014   35.3491   47.8771 H   0  0  0  0  0  0  0  0  0  0  0  0
   59.4192   34.2825   48.7171 H   0  0  0  0  0  0  0  0  0  0  0  0
   61.7165   34.8949   49.8943 H   0  0  0  0  0  0  0  0  0  0  0  0
   61.0724   33.2099   49.9792 H   0  0  0  0  0  0  0  0  0  0  0  0
   62.1678   31.3232   50.2161 H   0  0  0  0  0  0  0  0  0  0  0  0
   63.8196   29.9928   51.5261 H   0  0  0  0  0  0  0  0  0  0  0  0
   66.2369   30.6153   51.4968 H   0  0  0  0  0  0  0  0  0  0  0  0
   67.0046   32.5735   50.1484 H   0  0  0  0  0  0  0  0  0  0  0  0
   65.3601   33.9102   48.8341 H   0  0  0  0  0  0  0  0  0  0  0  0
   63.1717   34.9160   47.2183 H   0  0  0  0  0  0  0  0  0  0  0  0
   63.8369   33.2594   46.9356 H   0  0  0  0  0  0  0  0  0  0  0  0
   61.6437   34.2927   45.6383 H   0  0  0  0  0  0  0  0  0  0  0  0
   61.9607   32.5189   45.9248 H   0  0  0  0  0  0  0  0  0  0  0  0
   56.8704   32.8497   44.3900 H   0  0  0  0  0  0  0  0  0  0  0  0
  1  2  1  0
  2  3  1  0
  3  4  2  3
  4  5  1  0
  5  6  2  0
  6  7  1  0
  7  8  1  0
  8  9  2  0
  8 10  2  0
  8 11  1  0
 11 12  1  0
 12 13  1  0
 13 14  1  0
 14 15  1  0
 15 16  2  0
 16 17  1  0
 17 18  2  0
 18 19  1  0
 19 20  2  0
 14 21  1  0
 21 22  1  0
  7 23  2  0
 23 24  1  0
 24  4  1  0
 22 11  1  0
 20 15  1  0
  1 25  1  0
  1 26  1  0
  1 27  1  0
  2 28  1  0
  2 29  1  0
  5 30  1  0
 11 31  1  0
 12 32  1  0
 12 33  1  0
 13 34  1  0
 13 35  1  0
 16 36  1  0
 17 37  1  0
 18 38  1  0
 19 39  1  0
 20 40  1  0
 21 41  1  0
 21 42  1  0
 22 43  1  0
 22 44  1  0
 23 45  1  0
M  CHG  2  11   1  24  -1
M  END
>  <UniqueID>  (15) 
14

>  <SMILES>  (15) 
CCN=c1cnc(S(=O)(=O)[NH+]2CCN(c3ccccc3)CC2)c[n-]1

>  <Energy>  (15) 
55.70071617842753

>  <Genealogy>  (15) 
CCN=c1cnc(S(=O)(=O)[NH+]2CCN(c3ccccc3)CC2)c[n-]1 (protonated)
CCN=c1cnc(S(=O)(=O)[NH+]2CCN(c3ccccc3)CC2)c[n-]1 (3D coordinates assigned)
CCN=c1cnc(S(=O)(=O)[NH+]2CCN(c3ccccc3)CC2)c[n-]1 (nonaromatic ring conformer: 55.70071617842753 kcal/mol)

>  <smiles>  (15) 
CCN=c1cnc(S(=O)(=O)N2CCN(c3ccccc3)CC2)c[nH]1

>  <score_type>  (15) 
oracle

>  <origin>  (15) 
adg

>  <m_score__min__energy>  (15) 
-7.6699999999999999

>  <m_primary>  (15) 
energy

$$$$
15:0
     RDKit          3D

 49 52  0  0  0  0  0  0  0  0999 V2000
   56.7182   33.8861   44.6038 H   0  0  0  0  0  0  0  0  0  0  0  0
   57.6450   33.6320   45.1390 C   0  0  0  0  0  0  0  0  0  0  0  0
   57.9760   32.3300   45.3450 N   0  0  0  0  0  0  0  0  0  0  0  0
   59.1120   31.9640   46.0090 C   0  0  0  0  0  0  0  0  0  0  0  0
   59.4210   30.7080   46.1710 N   0  0  0  0  0  0  0  0  0  0  0  0
   59.1070   29.6140   45.2920 C   0  0  0  0  0  0  0  0  0  0  0  0
   59.9800   29.1210   44.5240 O   0  0  0  0  0  0  0  0  0  0  0  0
   57.7430   29.0630   45.2940 C   0  0  0  0  0  0  0  0  0  0  0  0
   56.6130   29.6530   44.7570 C   0  0  0  0  0  0  0  0  0  0  0  0
   56.6001   30.6270   44.2460 H   0  0  0  0  0  0  0  0  0  0  0  0
   55.5270   28.8710   44.9450 N   0  0  0  0  0  0  0  0  0  0  0  0
   55.9870   27.7890   45.6090 C   0  0  0  0  0  0  0  0  0  0  0  0
   55.1710   26.7320   45.9940 O   0  0  0  0  0  0  0  0  0  0  0  0
   57.3440   27.8610   45.8430 C   0  0  0  0  0  0  0  0  0  0  0  0
   57.9735   27.1196   46.3569 H   0  0  0  0  0  0  0  0  0  0  0  0
   59.9750   32.9610   46.5070 C   0  0  0  0  0  0  0  0  0  0  0  0
   61.1740   32.6160   47.2220 N   0  0  0  0  0  0  0  0  0  0  0  0
   61.1330   31.5600   48.2380 C   0  0  0  0  0  0  0  0  0  0  0  0
   60.0972   31.4333   48.5860 H   0  0  0  0  0  0  0  0  0  0  0  0
   61.5019   30.6246   47.7921 H   0  0  0  0  0  0  0  0  0  0  0  0
   62.0250   31.9240   49.4320 C   0  0  0  0  0  0  0  0  0  0  0  0
   61.4865   32.6527   50.0558 H   0  0  0  0  0  0  0  0  0  0  0  0
   62.2405   30.9857   49.9640 H   0  0  0  0  0  0  0  0  0  0  0  0
   63.4020   32.5420   49.0350 C   0  0  0  0  0  0  0  0  0  0  0  0
   63.3611   33.5926   49.3585 H   0  0  0  0  0  0  0  0  0  0  0  0
   64.5840   31.8520   49.7610 C   0  0  0  0  0  0  0  0  0  0  0  0
   64.1831   31.1708   50.5260 H   0  0  0  0  0  0  0  0  0  0  0  0
   65.1718   31.3025   49.0110 H   0  0  0  0  0  0  0  0  0  0  0  0
   65.4970   32.8570   50.4300 C   0  0  0  0  0  0  0  0  0  0  0  0
   66.8800   32.8390   50.1780 C   0  0  0  0  0  0  0  0  0  0  0  0
   67.3023   32.1005   49.4806 H   0  0  0  0  0  0  0  0  0  0  0  0
   67.7220   33.7630   50.8160 C   0  0  0  0  0  0  0  0  0  0  0  0
   68.8034   33.7461   50.6153 H   0  0  0  0  0  0  0  0  0  0  0  0
   67.1930   34.7090   51.7090 C   0  0  0  0  0  0  0  0  0  0  0  0
   67.8586   35.4273   52.2100 H   0  0  0  0  0  0  0  0  0  0  0  0
   65.8190   34.7350   51.9590 C   0  0  0  0  0  0  0  0  0  0  0  0
   65.3050   35.6540   52.8190 F   0  0  0  0  0  0  0  0  0  0  0  0
   64.9710   33.8120   51.3230 C   0  0  0  0  0  0  0  0  0  0  0  0
   63.8897   33.8352   51.5236 H   0  0  0  0  0  0  0  0  0  0  0  0
   63.6380   32.5120   47.5100 C   0  0  0  0  0  0  0  0  0  0  0  0
   64.5597   33.0654   47.2770 H   0  0  0  0  0  0  0  0  0  0  0  0
   63.7281   31.4639   47.1884 H   0  0  0  0  0  0  0  0  0  0  0  0
   62.4620   33.1560   46.7620 C   0  0  0  0  0  0  0  0  0  0  0  0
   62.4780   34.2419   46.9370 H   0  0  0  0  0  0  0  0  0  0  0  0
   62.5687   32.9320   45.6903 H   0  0  0  0  0  0  0  0  0  0  0  0
   59.6510   34.3090   46.2900 C   0  0  0  0  0  0  0  0  0  0  0  0
   60.3197   35.1006   46.6589 H   0  0  0  0  0  0  0  0  0  0  0  0
   58.4820   34.6470   45.6070 C   0  0  0  0  0  0  0  0  0  0  0  0
   58.2224   35.7026   45.4389 H   0  0  0  0  0  0  0  0  0  0  0  0
  1  2  1  0
  2  3  1  0
  3  4  1  0
  4  5  2  0
  5  6  1  0
  6  7  2  0
  6  8  1  0
  8  9  2  0
  9 10  1  0
  9 11  1  0
 11 12  1  0
 12 13  1  0
 12 14  2  0
 14 15  1  0
  4 16  1  0
 16 17  1  0
 17 18  1  0
 18 19  1  0
 18 20  1  0
 18 21  1  0
 21 22  1  0
 21 23  1  0
 21 24  1  0
 24 25  1  0
 24 26  1  0
 26 27  1  0
 26 28  1  0
 26 29  1  0
 29 30  2  0
 30 31  1  0
 30 32  1  0
 32 33  1  0
 32 34  2  0
 34 35  1  0
 34 36  1  0
 36 37  1  0
 36 38  2  0
 38 39  1  0
 24 40  1  0
 40 41  1  0
 40 42  1  0
 40 43  1  0
 43 44  1  0
 43 45  1  0
 16 46  2  0
 46 47  1  0
 46 48  1  0
 48 49  1  0
 48  2  2  0
 14  8  1  0
 43 17  1  0
 38 29  1  0
M  CHG  3   3  -1  11  -1  13  -1
M  END
>  <UniqueID>  (16) 
15

>  <SMILES>  (16) 
O=C(/N=c1\[n-]cccc1N1CCC(Cc2cccc(F)c2)CC1)c1c[n-]c([O-])c1

>  <Energy>  (16) 
85.32750551788331

>  <Genealogy>  (16) 
O=C(N=c1[n-]cccc1N1CCC(Cc2cccc(F)c2)CC1)c1c[n-]c([O-])c1 (protonated)
O=C(/N=c1\[n-]cccc1N1CCC(Cc2cccc(F)c2)CC1)c1c[n-]c([O-])c1 (cis-trans isomerization)
O=C(/N=c1\[n-]cccc1N1CCC(Cc2cccc(F)c2)CC1)c1c[n-]c([O-])c1 (3D coordinates assigned)
O=C(/N=c1\[n-]cccc1N1CCC(Cc2cccc(F)c2)CC1)c1c[n-]c([O-])c1 (nonaromatic ring conformer: 85.32750551788331 kcal/mol)

>  <smiles>  (16) 
O=C(N=c1[nH]cccc1N1CCC(Cc2cccc(F)c2)CC1)c1c[nH]c(O)c1

>  <score_type>  (16) 
oracle

>  <origin>  (16) 
adg

>  <m_score__min__energy>  (16) 
-15.859999999999999

>  <m_primary>  (16) 
energy

$$$$
16:0
     RDKit          3D

 70 73  0  0  0  0  0  0  0  0999 V2000
   63.0430   31.8910   53.0330 C   0  0  0  0  0  0  0  0  0  0  0  0
   61.9480   31.5850   51.6650 S   0  0  0  0  0  0  0  0  0  0  0  0
   62.5630   32.1540   50.4160 O   0  0  0  0  0  0  0  0  0  0  0  0
   61.7750   30.1050   51.4670 O   0  0  0  0  0  0  0  0  0  0  0  0
   60.3820   32.3670   51.9580 C   0  0  0  0  0  0  0  0  0  0  0  0
   60.3550   33.4810   52.8110 C   0  0  0  0  0  0  0  0  0  0  0  0
   59.1670   34.1830   53.0330 C   0  0  0  0  0  0  0  0  0  0  0  0
   57.9910   33.7790   52.4020 C   0  0  0  0  0  0  0  0  0  0  0  0
   57.9960   32.6690   51.5570 C   0  0  0  0  0  0  0  0  0  0  0  0
   59.1780   31.9400   51.3390 C   0  0  0  0  0  0  0  0  0  0  0  0
   59.1100   30.7530   50.4650 C   0  0  0  0  0  0  0  0  0  0  0  0
   58.1320   29.9620   50.5600 O   0  0  0  0  0  0  0  0  0  0  0  0
   60.1660   30.4980   49.5250 N   0  0  0  0  0  0  0  0  0  0  0  0
   60.1750   29.3670   48.6430 C   0  0  0  0  0  0  0  0  0  0  0  0
   60.0570   28.0760   49.1780 C   0  0  0  0  0  0  0  0  0  0  0  0
   60.0580   26.9610   48.3370 C   0  0  0  0  0  0  0  0  0  0  0  0
   60.1980   27.1180   46.9500 C   0  0  0  0  0  0  0  0  0  0  0  0
   60.2150   25.9090   46.0530 C   0  0  0  0  0  0  0  0  0  0  0  0
   58.8570   25.6410   45.4800 C   0  0  0  0  0  0  0  0  0  0  0  0
   58.5370   26.1260   44.3610 O   0  0  0  0  0  0  0  0  0  0  0  0
   57.9430   24.7970   46.1880 N   0  0  0  0  0  0  0  0  0  0  0  0
   56.8150   25.2940   46.9700 C   0  0  0  0  0  0  0  0  0  0  0  0
   56.3490   26.6190   46.4290 C   0  0  0  0  0  0  0  0  0  0  0  0
   55.1750   26.7240   45.9860 O   0  0  0  0  0  0  0  0  0  0  0  0
   57.1700   27.7920   46.4860 N   0  0  0  0  0  0  0  0  0  0  0  0
   57.1840   28.8640   45.5320 C   0  0  0  0  0  0  0  0  0  0  0  0
   56.9940   28.5670   44.1770 C   0  0  0  0  0  0  0  0  0  0  0  0
   57.0530   29.5810   43.2180 C   0  0  0  0  0  0  0  0  0  0  0  0
   57.3210   30.8970   43.6050 C   0  0  0  0  0  0  0  0  0  0  0  0
   57.5330   31.2050   44.9540 C   0  0  0  0  0  0  0  0  0  0  0  0
   57.9140   32.8610   45.4160 S   0  0  0  0  0  0  0  0  0  0  0  0
   58.5850   33.5420   44.2550 O   0  0  0  0  0  0  0  0  0  0  0  0
   56.6540   33.6110   45.7530 O   0  0  0  0  0  0  0  0  0  0  0  0
   58.9860   32.8480   46.7930 N   0  0  0  0  0  0  0  0  0  0  0  0
   58.8260   34.0900   47.5650 C   0  0  0  0  0  0  0  0  0  0  0  0
   59.8220   34.1200   48.7440 C   0  0  0  0  0  0  0  0  0  0  0  0
   60.6590   32.9780   48.7570 O   0  0  0  0  0  0  0  0  0  0  0  0
   61.3540   32.8820   47.5270 C   0  0  0  0  0  0  0  0  0  0  0  0
   60.3790   32.7090   46.3440 C   0  0  0  0  0  0  0  0  0  0  0  0
   57.4740   30.1850   45.9160 C   0  0  0  0  0  0  0  0  0  0  0  0
   60.3560   28.4090   46.4160 C   0  0  0  0  0  0  0  0  0  0  0  0
   60.3380   29.5270   47.2560 C   0  0  0  0  0  0  0  0  0  0  0  0
   62.5006   31.7394   53.9779 H   0  0  0  0  0  0  0  0  0  0  0  0
   63.8945   31.1964   52.9836 H   0  0  0  0  0  0  0  0  0  0  0  0
   63.4111   32.9264   52.9836 H   0  0  0  0  0  0  0  0  0  0  0  0
   61.2796   33.8055   53.3107 H   0  0  0  0  0  0  0  0  0  0  0  0
   59.1597   35.0537   53.7051 H   0  0  0  0  0  0  0  0  0  0  0  0
   57.0578   34.3364   52.5708 H   0  0  0  0  0  0  0  0  0  0  0  0
   57.0661   32.3612   51.0565 H   0  0  0  0  0  0  0  0  0  0  0  0
   61.0490   31.0490   49.6260 H   0  0  0  0  0  0  0  0  0  0  0  0
   59.9632   27.9409   50.2656 H   0  0  0  0  0  0  0  0  0  0  0  0
   59.9483   25.9535   48.7648 H   0  0  0  0  0  0  0  0  0  0  0  0
   60.9239   26.0827   45.2300 H   0  0  0  0  0  0  0  0  0  0  0  0
   60.5199   25.0366   46.6496 H   0  0  0  0  0  0  0  0  0  0  0  0
   55.9891   24.5694   46.9169 H   0  0  0  0  0  0  0  0  0  0  0  0
   57.1336   25.4256   48.0146 H   0  0  0  0  0  0  0  0  0  0  0  0
   56.7973   27.5303   43.8662 H   0  0  0  0  0  0  0  0  0  0  0  0
   56.8883   29.3434   42.1567 H   0  0  0  0  0  0  0  0  0  0  0  0
   57.3655   31.6931   42.8472 H   0  0  0  0  0  0  0  0  0  0  0  0
   59.0147   34.9522   46.9085 H   0  0  0  0  0  0  0  0  0  0  0  0
   57.8009   34.1354   47.9613 H   0  0  0  0  0  0  0  0  0  0  0  0
   60.4491   35.0196   48.6571 H   0  0  0  0  0  0  0  0  0  0  0  0
   59.2431   34.1292   49.6793 H   0  0  0  0  0  0  0  0  0  0  0  0
   61.9422   33.7991   47.3753 H   0  0  0  0  0  0  0  0  0  0  0  0
   62.0107   32.0005   47.5673 H   0  0  0  0  0  0  0  0  0  0  0  0
   60.5920   33.4766   45.5855 H   0  0  0  0  0  0  0  0  0  0  0  0
   60.5144   31.7036   45.9187 H   0  0  0  0  0  0  0  0  0  0  0  0
   57.6554   30.4201   46.9752 H   0  0  0  0  0  0  0  0  0  0  0  0
   60.4944   28.5403   45.3327 H   0  0  0  0  0  0  0  0  0  0  0  0
   60.4518   30.5348   46.8300 H   0  0  0  0  0  0  0  0  0  0  0  0
  1  2  1  0
  2  3  2  0
  2  4  2  0
  2  5  1  0
  5  6  2  0
  6  7  1  0
  7  8  2  0
  8  9  1  0
  9 10  2  0
 10 11  1  0
 11 12  2  0
 11 13  1  0
 13 14  1  0
 14 15  2  0
 15 16  1  0
 16 17  2  0
 17 18  1  0
 18 19  1  0
 19 20  2  0
 19 21  1  0
 21 22  1  0
 22 23  1  0
 23 24  2  0
 23 25  1  0
 25 26  1  0
 26 27  2  0
 27 28  1  0
 28 29  2  0
 29 30  1  0
 30 31  1  0
 31 32  2  0
 31 33  2  0
 31 34  1  0
 34 35  1  0
 35 36  1  0
 36 37  1  0
 37 38  1  0
 38 39  1  0
 30 40  2  0
 17 41  1  0
 41 42  2  0
 10  5  1  0
 42 14  1  0
 40 26  1  0
 39 34  1  0
  1 43  1  0
  1 44  1  0
  1 45  1  0
  6 46  1  0
  7 47  1  0
  8 48  1  0
  9 49  1  0
 13 50  1  0
 15 51  1  0
 16 52  1  0
 18 53  1  0
 18 54  1  0
 22 55  1  0
 22 56  1  0
 27 57  1  0
 28 58  1  0
 29 59  1  0
 35 60  1  0
 35 61  1  0
 36 62  1  0
 36 63  1  0
 38 64  1  0
 38 65  1  0
 39 66  1  0
 39 67  1  0
 40 68  1  0
 41 69  1  0
 42 70  1  0
M  CHG  2  21  -1  25  -1
M  END
>  <UniqueID>  (17) 
16

>  <SMILES>  (17) 
CS(=O)(=O)c1ccccc1C(=O)Nc1ccc(CC(=O)[N-]CC(=O)[N-]c2cccc(S(=O)(=O)N3CCOCC3)c2)cc1

>  <Energy>  (17) 
90.8900965827332

>  <Genealogy>  (17) 
CS(=O)(=O)c1ccccc1C(=O)Nc1ccc(CC(=O)[N-]CC(=O)[N-]c2cccc(S(=O)(=O)N3CCOCC3)c2)cc1 (protonated)
CS(=O)(=O)c1ccccc1C(=O)Nc1ccc(CC(=O)[N-]CC(=O)[N-]c2cccc(S(=O)(=O)N3CCOCC3)c2)cc1 (3D coordinates assigned)
CS(=O)(=O)c1ccccc1C(=O)Nc1ccc(CC(=O)[N-]CC(=O)[N-]c2cccc(S(=O)(=O)N3CCOCC3)c2)cc1 (nonaromatic ring conformer: 90.8900965827332 kcal/mol)

>  <smiles>  (17) 
CS(=O)(=O)c1ccccc1C(=O)Nc1ccc(CC(=O)NCC(=O)Nc2cccc(S(=O)(=O)N3CCOCC3)c2)cc1

>  <score_type>  (17) 
oracle

>  <origin>  (17) 
adg

>  <m_score__min__energy>  (17) 
-13.710000000000001

>  <m_primary>  (17) 
energy

$$$$
17:0
     RDKit          3D

 51 53  0  0  0  0  0  0  0  0999 V2000
   62.0780   33.7020   47.3060 C   0  0  0  0  0  0  0  0  0  0  0  0
   61.1380   33.8470   46.1130 C   0  0  0  0  0  0  0  0  0  0  0  0
   59.9730   34.6860   46.4760 N   0  0  0  0  0  0  0  0  0  0  0  0
   59.0520   33.9890   47.3990 C   0  0  0  0  0  0  0  0  0  0  0  0
   58.3930   32.7730   46.7260 C   0  0  0  0  0  0  0  0  0  0  0  0
   58.0900   33.0610   45.3180 N   0  0  0  0  0  0  0  0  0  0  0  0
   58.0860   32.0020   44.3400 C   0  0  0  0  0  0  0  0  0  0  0  0
   58.5350   32.2230   43.1820 O   0  0  0  0  0  0  0  0  0  0  0  0
   57.5970   30.6460   44.6720 C   0  0  0  0  0  0  0  0  0  0  0  0
   58.4780   29.6890   45.1980 C   0  0  0  0  0  0  0  0  0  0  0  0
   58.0220   28.4070   45.5180 C   0  0  0  0  0  0  0  0  0  0  0  0
   56.6760   28.0580   45.3020 C   0  0  0  0  0  0  0  0  0  0  0  0
   56.1600   26.7600   45.6280 N   0  0  0  0  0  0  0  0  0  0  0  0
   57.0340   25.5220   46.4710 S   0  0  0  0  0  0  0  0  0  0  0  0
   56.2510   25.1360   47.6940 O   0  0  0  0  0  0  0  0  0  0  0  0
   58.3650   26.0760   46.8930 O   0  0  0  0  0  0  0  0  0  0  0  0
   57.3080   24.1210   45.4190 C   0  0  0  0  0  0  0  0  0  0  0  0
   58.5940   23.5590   45.3670 C   0  0  0  0  0  0  0  0  0  0  0  0
   58.8620   22.4700   44.5360 C   0  0  0  0  0  0  0  0  0  0  0  0
   57.8470   21.9230   43.7530 C   0  0  0  0  0  0  0  0  0  0  0  0
   56.5590   22.4550   43.8070 C   0  0  0  0  0  0  0  0  0  0  0  0
   56.2670   23.5440   44.6470 C   0  0  0  0  0  0  0  0  0  0  0  0
   54.8640   24.0890   44.6660 C   0  0  0  0  0  0  0  0  0  0  0  0
   55.8050   29.0080   44.7570 C   0  0  0  0  0  0  0  0  0  0  0  0
   56.2600   30.2910   44.4380 C   0  0  0  0  0  0  0  0  0  0  0  0
   57.9920   34.4630   44.9010 C   0  0  0  0  0  0  0  0  0  0  0  0
   59.2720   35.2340   45.2830 C   0  0  0  0  0  0  0  0  0  0  0  0
   61.5025   33.7908   48.2392 H   0  0  0  0  0  0  0  0  0  0  0  0
   62.5677   32.7177   47.2695 H   0  0  0  0  0  0  0  0  0  0  0  0
   62.8415   34.4930   47.2695 H   0  0  0  0  0  0  0  0  0  0  0  0
   61.6793   34.3187   45.2796 H   0  0  0  0  0  0  0  0  0  0  0  0
   60.7819   32.8499   45.8146 H   0  0  0  0  0  0  0  0  0  0  0  0
   59.6178   33.6478   48.2785 H   0  0  0  0  0  0  0  0  0  0  0  0
   58.2592   34.6929   47.6924 H   0  0  0  0  0  0  0  0  0  0  0  0
   59.0788   31.9146   46.7797 H   0  0  0  0  0  0  0  0  0  0  0  0
   57.4537   32.5438   47.2506 H   0  0  0  0  0  0  0  0  0  0  0  0
   59.5345   29.9493   45.3596 H   0  0  0  0  0  0  0  0  0  0  0  0
   58.7184   27.6677   45.9405 H   0  0  0  0  0  0  0  0  0  0  0  0
   59.3982   23.9813   45.9874 H   0  0  0  0  0  0  0  0  0  0  0  0
   59.8751   22.0431   44.4991 H   0  0  0  0  0  0  0  0  0  0  0  0
   58.0621   21.0707   43.0917 H   0  0  0  0  0  0  0  0  0  0  0  0
   55.7632   22.0180   43.1859 H   0  0  0  0  0  0  0  0  0  0  0  0
   54.5344   24.2170   45.7076 H   0  0  0  0  0  0  0  0  0  0  0  0
   54.8413   25.0613   44.1521 H   0  0  0  0  0  0  0  0  0  0  0  0
   54.1909   23.3869   44.1521 H   0  0  0  0  0  0  0  0  0  0  0  0
   54.7526   28.7429   44.5779 H   0  0  0  0  0  0  0  0  0  0  0  0
   55.5667   31.0252   44.0017 H   0  0  0  0  0  0  0  0  0  0  0  0
   57.8554   34.5070   43.8104 H   0  0  0  0  0  0  0  0  0  0  0  0
   57.1341   34.9254   45.4110 H   0  0  0  0  0  0  0  0  0  0  0  0
   59.9643   35.2006   44.4288 H   0  0  0  0  0  0  0  0  0  0  0  0
   58.9635   36.2589   45.5369 H   0  0  0  0  0  0  0  0  0  0  0  0
  1  2  1  0
  2  3  1  0
  3  4  1  0
  4  5  1  0
  5  6  1  0
  6  7  1  0
  7  8  2  0
  7  9  1  0
  9 10  2  0
 10 11  1  0
 11 12  2  0
 12 13  1  0
 13 14  1  0
 14 15  2  0
 14 16  2  0
 14 17  1  0
 17 18  2  0
 18 19  1  0
 19 20  2  0
 20 21  1  0
 21 22  2  0
 22 23  1  0
 12 24  1  0
 24 25  2  0
  6 26  1  0
 26 27  1  0
 27  3  1  0
 25  9  1  0
 22 17  1  0
  1 28  1  0
  1 29  1  0
  1 30  1  0
  2 31  1  0
  2 32  1  0
  4 33  1  0
  4 34  1  0
  5 35  1  0
  5 36  1  0
 10 37  1  0
 11 38  1  0
 18 39  1  0
 19 40  1  0
 20 41  1  0
 21 42  1  0
 23 43  1  0
 23 44  1  0
 23 45  1  0
 24 46  1  0
 25 47  1  0
 26 48  1  0
 26 49  1  0
 27 50  1  0
 27 51  1  0
M  CHG  1  13  -1
M  END
>  <UniqueID>  (18) 
17

>  <SMILES>  (18) 
CCN1CCN(C(=O)c2ccc([N-]S(=O)(=O)c3ccccc3C)cc2)CC1

>  <Energy>  (18) 
68.31953912003088

>  <Genealogy>  (18) 
CCN1CCN(C(=O)c2ccc([N-]S(=O)(=O)c3ccccc3C)cc2)CC1 (protonated)
CCN1CCN(C(=O)c2ccc([N-]S(=O)(=O)c3ccccc3C)cc2)CC1 (3D coordinates assigned)
CCN1CCN(C(=O)c2ccc([N-]S(=O)(=O)c3ccccc3C)cc2)CC1 (nonaromatic ring conformer: 68.31953912003088 kcal/mol)

>  <smiles>  (18) 
CCN1CCN(C(=O)c2ccc(NS(=O)(=O)c3ccccc3C)cc2)CC1

>  <score_type>  (18) 
oracle

>  <origin>  (18) 
adg

>  <m_score__min__energy>  (18) 
-10.4

>  <m_primary>  (18) 
energy

$$$$
18:0
     RDKit          3D

 52 55  0  0  0  0  0  0  0  0999 V2000
   63.6430   33.0460   47.1900 C   0  0  0  0  0  0  0  0  0  0  0  0
   62.1460   32.6930   47.1140 C   0  0  0  0  0  0  0  0  0  0  0  0
   61.8790   31.3620   47.8240 C   0  0  0  0  0  0  0  0  0  0  0  0
   61.2110   33.8340   47.6380 C   0  0  2  0  0  0  0  0  0  0  0  0
   61.6580   34.3480   49.0470 C   0  0  0  0  0  0  0  0  0  0  0  0
   60.7330   33.7450   49.9600 O   0  0  0  0  0  0  0  0  0  0  0  0
   59.6570   33.2510   49.2510 C   0  0  0  0  0  0  0  0  0  0  0  0
   58.6660   32.7070   49.8040 O   0  0  0  0  0  0  0  0  0  0  0  0
   59.8280   33.3770   47.8510 N   0  0  0  0  0  0  0  0  0  0  0  0
   58.8510   32.9960   46.8700 C   0  0  0  0  0  0  0  0  0  0  0  0
   58.0540   33.9620   46.2460 C   0  0  0  0  0  0  0  0  0  0  0  0
   57.1010   33.5320   45.3150 C   0  0  0  0  0  0  0  0  0  0  0  0
   56.9640   32.2140   45.0380 N   0  0  0  0  0  0  0  0  0  0  0  0
   57.7640   31.2820   45.6310 C   0  0  0  0  0  0  0  0  0  0  0  0
   57.6550   30.0260   45.3110 N   0  0  0  0  0  0  0  0  0  0  0  0
   58.7630   29.1480   45.0480 C   0  0  0  0  0  0  0  0  0  0  0  0
   59.9240   29.6120   44.9160 O   0  0  0  0  0  0  0  0  0  0  0  0
   58.5320   27.6960   44.9740 C   0  0  0  0  0  0  0  0  0  0  0  0
   58.0470   27.0760   43.8730 N   0  0  0  0  0  0  0  0  0  0  0  0
   57.8010   25.7680   44.1180 C   0  0  0  0  0  0  0  0  0  0  0  0
   58.0650   25.3500   45.4130 C   0  0  0  0  0  0  0  0  0  0  0  0
   58.6190   26.6580   46.2990 S   0  0  0  0  0  0  0  0  0  0  0  0
   57.6870   24.0010   45.9040 C   0  0  0  0  0  0  0  0  0  0  0  0
   56.4550   23.5430   45.2220 N   0  0  0  0  0  0  0  0  0  0  0  0
   55.0070   24.2840   45.8740 S   0  0  0  0  0  0  0  0  0  0  0  0
   53.5490   23.9670   44.8970 C   0  0  0  0  0  0  0  0  0  0  0  0
   54.7710   23.7470   47.2590 O   0  0  0  0  0  0  0  0  0  0  0  0
   55.1950   25.7760   45.9680 O   0  0  0  0  0  0  0  0  0  0  0  0
   56.5210   23.5800   43.7370 C   0  0  0  0  0  0  0  0  0  0  0  0
   57.1950   24.8390   43.1230 C   0  0  0  0  0  0  0  0  0  0  0  0
   58.6780   31.6790   46.5550 N   0  0  0  0  0  0  0  0  0  0  0  0
   63.9496   33.1183   48.2439 H   0  0  0  0  0  0  0  0  0  0  0  0
   64.2305   32.2618   46.6902 H   0  0  0  0  0  0  0  0  0  0  0  0
   63.8182   34.0101   46.6902 H   0  0  0  0  0  0  0  0  0  0  0  0
   61.8940   32.5808   46.0491 H   0  0  0  0  0  0  0  0  0  0  0  0
   61.9096   31.5147   48.9129 H   0  0  0  0  0  0  0  0  0  0  0  0
   60.8872   30.9845   47.5344 H   0  0  0  0  0  0  0  0  0  0  0  0
   62.6484   30.6312   47.5344 H   0  0  0  0  0  0  0  0  0  0  0  0
   61.2729   34.6109   46.8617 H   0  0  0  0  0  0  0  0  0  0  0  0
   62.6870   34.0286   49.2687 H   0  0  0  0  0  0  0  0  0  0  0  0
   61.6535   35.4461   49.1120 H   0  0  0  0  0  0  0  0  0  0  0  0
   58.1730   35.0301   46.4805 H   0  0  0  0  0  0  0  0  0  0  0  0
   56.4609   34.2680   44.8065 H   0  0  0  0  0  0  0  0  0  0  0  0
   58.5038   23.2946   45.6946 H   0  0  0  0  0  0  0  0  0  0  0  0
   57.5046   24.0482   46.9877 H   0  0  0  0  0  0  0  0  0  0  0  0
   52.6941   23.7811   45.5638 H   0  0  0  0  0  0  0  0  0  0  0  0
   53.3360   24.8398   44.2623 H   0  0  0  0  0  0  0  0  0  0  0  0
   53.7176   23.0845   44.2623 H   0  0  0  0  0  0  0  0  0  0  0  0
   57.0852   22.6973   43.4018 H   0  0  0  0  0  0  0  0  0  0  0  0
   55.4770   23.6002   43.3911 H   0  0  0  0  0  0  0  0  0  0  0  0
   57.9888   24.5038   42.4393 H   0  0  0  0  0  0  0  0  0  0  0  0
   56.3976   25.4028   42.6167 H   0  0  0  0  0  0  0  0  0  0  0  0
  1  2  1  0
  2  3  1  0
  2  4  1  0
  4  5  1  0
  5  6  1  0
  6  7  1  0
  7  8  2  0
  7  9  1  0
  9 10  1  0
 10 11  1  0
 11 12  2  0
 12 13  1  0
 13 14  1  0
 14 15  2  3
 15 16  1  0
 16 17  2  0
 16 18  1  0
 18 19  2  0
 19 20  1  0
 20 21  2  0
 21 22  1  0
 21 23  1  0
 23 24  1  0
 24 25  1  0
 25 26  1  0
 25 27  2  0
 25 28  2  0
 24 29  1  0
 29 30  1  0
 14 31  1  0
  9  4  1  0
 31 10  2  0
 22 18  1  0
 30 20  1  0
  1 32  1  0
  1 33  1  0
  1 34  1  0
  2 35  1  0
  3 36  1  0
  3 37  1  0
  3 38  1  0
  4 39  1  6
  5 40  1  0
  5 41  1  0
 11 42  1  0
 12 43  1  0
 23 44  1  0
 23 45  1  0
 26 46  1  0
 26 47  1  0
 26 48  1  0
 29 49  1  0
 29 50  1  0
 30 51  1  0
 30 52  1  0
M  CHG  1  13  -1
M  END
>  <UniqueID>  (19) 
18

>  <SMILES>  (19) 
CC(C)[C@@H]1COC(=O)N1c1cc[n-]c(=NC(=O)c2nc3c(s2)CN(S(C)(=O)=O)CC3)n1

>  <Energy>  (19) 
115.48123211934269

>  <Genealogy>  (19) 
CC(C)C1COC(=O)N1c1cc[n-]c(=NC(=O)c2nc3c(s2)CN(S(C)(=O)=O)CC3)n1 (protonated)
CC(C)[C@@H]1COC(=O)N1c1cc[n-]c(=NC(=O)c2nc3c(s2)CN(S(C)(=O)=O)CC3)n1 (chirality)
CC(C)[C@@H]1COC(=O)N1c1cc[n-]c(=NC(=O)c2nc3c(s2)CN(S(C)(=O)=O)CC3)n1 (3D coordinates assigned)
CC(C)[C@@H]1COC(=O)N1c1cc[n-]c(=NC(=O)c2nc3c(s2)CN(S(C)(=O)=O)CC3)n1 (nonaromatic ring conformer: 115.48123211934269 kcal/mol)

>  <smiles>  (19) 
CC(C)C1COC(=O)N1c1cc[nH]c(=NC(=O)c2nc3c(s2)CN(S(C)(=O)=O)CC3)n1

>  <score_type>  (19) 
oracle

>  <origin>  (19) 
adg

>  <m_score__min__energy>  (19) 
-11.08

>  <m_primary>  (19) 
energy

$$$$
19:0
     RDKit          3D

 37 39  0  0  0  0  0  0  0  0999 V2000
   57.0197   29.9597   43.7665 H   0  0  0  0  0  0  0  0  0  0  0  0
   57.2890   30.9620   44.1310 C   0  0  0  0  0  0  0  0  0  0  0  0
   57.4230   31.2510   45.4530 N   0  0  0  0  0  0  0  0  0  0  0  0
   57.7680   32.5400   45.6560 C   0  0  0  0  0  0  0  0  0  0  0  0
   57.9210   33.0260   46.8540 N   0  0  0  0  0  0  0  0  0  0  0  0
   58.9730   33.8660   47.3550 C   0  0  0  0  0  0  0  0  0  0  0  0
   58.8940   34.2660   48.5470 O   0  0  0  0  0  0  0  0  0  0  0  0
   60.1690   34.2580   46.5200 C   0  0  0  0  0  0  0  0  0  0  0  0
   59.8928   34.2031   45.4566 H   0  0  0  0  0  0  0  0  0  0  0  0
   60.4606   35.2800   46.8037 H   0  0  0  0  0  0  0  0  0  0  0  0
   61.3540   33.3500   46.7640 C   0  0  0  0  0  0  0  0  0  0  0  0
   62.6390   33.9090   46.6220 C   0  0  0  0  0  0  0  0  0  0  0  0
   62.7425   34.9722   46.3594 H   0  0  0  0  0  0  0  0  0  0  0  0
   63.7820   33.1320   46.8100 C   0  0  0  0  0  0  0  0  0  0  0  0
   64.7785   33.5850   46.7009 H   0  0  0  0  0  0  0  0  0  0  0  0
   63.6630   31.7860   47.1350 C   0  0  0  0  0  0  0  0  0  0  0  0
   64.5657   31.1722   47.2702 H   0  0  0  0  0  0  0  0  0  0  0  0
   62.4020   31.2120   47.2900 C   0  0  0  0  0  0  0  0  0  0  0  0
   62.3211   30.1418   47.5309 H   0  0  0  0  0  0  0  0  0  0  0  0
   61.2270   31.9810   47.1430 C   0  0  0  0  0  0  0  0  0  0  0  0
   59.9400   31.3180   47.2810 N   0  0  0  0  0  0  0  0  0  0  0  0
   59.3970   31.3730   46.3880 H   0  0  0  0  0  0  0  0  0  0  0  0
   59.3930   31.8670   47.9780 H   0  0  0  0  0  0  0  0  0  0  0  0
   60.0340   29.9120   47.6330 C   0  0  0  0  0  0  0  0  0  0  0  0
   60.0930   28.9030   46.6320 C   0  0  0  0  0  0  0  0  0  0  0  0
   59.9990   29.2600   44.9120 Cl  0  0  0  0  0  0  0  0  0  0  0  0
   60.1750   27.5540   46.9930 C   0  0  0  0  0  0  0  0  0  0  0  0
   60.2608   26.7849   46.2113 H   0  0  0  0  0  0  0  0  0  0  0  0
   60.1490   27.1760   48.3330 C   0  0  0  0  0  0  0  0  0  0  0  0
   60.2344   26.1141   48.6070 H   0  0  0  0  0  0  0  0  0  0  0  0
   60.0150   28.1420   49.3250 C   0  0  0  0  0  0  0  0  0  0  0  0
   59.9653   27.8364   50.3805 H   0  0  0  0  0  0  0  0  0  0  0  0
   59.9430   29.4980   48.9920 C   0  0  0  0  0  0  0  0  0  0  0  0
   59.7090   30.6320   50.3220 Cl  0  0  0  0  0  0  0  0  0  0  0  0
   57.8990   33.3850   44.1980 S   0  0  0  0  0  0  0  0  0  0  0  0
   57.5190   32.0320   43.2790 C   0  0  0  0  0  0  0  0  0  0  0  0
   57.4230   31.9910   41.5310 Cl  0  0  0  0  0  0  0  0  0  0  0  0
  1  2  1  0
  2  3  1  0
  3  4  1  0
  4  5  2  0
  5  6  1  0
  6  7  2  0
  6  8  1  0
  8  9  1  0
  8 10  1  0
  8 11  1  0
 11 12  2  0
 12 13  1  0
 12 14  1  0
 14 15  1  0
 14 16  2  0
 16 17  1  0
 16 18  1  0
 18 19  1  0
 18 20  2  0
 20 21  1  0
 21 22  1  0
 21 23  1  0
 21 24  1  0
 24 25  2  0
 25 26  1  0
 25 27  1  0
 27 28  1  0
 27 29  2  0
 29 30  1  0
 29 31  1  0
 31 32  1  0
 31 33  2  0
 33 34  1  0
  4 35  1  0
 35 36  1  0
 36 37  1  0
 36  2  2  0
 20 11  1  0
 33 24  1  0
M  CHG  2   3  -1  21   1
M  END
>  <UniqueID>  (20) 
19

>  <SMILES>  (20) 
O=C(Cc1ccccc1[NH2+]c1c(Cl)cccc1Cl)/N=c1/[n-]cc(Cl)s1

>  <Energy>  (20) 
84.70618072476626

>  <Genealogy>  (20) 
O=C(Cc1ccccc1[NH2+]c1c(Cl)cccc1Cl)N=c1[n-]cc(Cl)s1 (protonated)
O=C(Cc1ccccc1[NH2+]c1c(Cl)cccc1Cl)/N=c1/[n-]cc(Cl)s1 (cis-trans isomerization)
O=C(Cc1ccccc1[NH2+]c1c(Cl)cccc1Cl)/N=c1/[n-]cc(Cl)s1 (3D coordinates assigned)
O=C(Cc1ccccc1[NH2+]c1c(Cl)cccc1Cl)/N=c1/[n-]cc(Cl)s1 (optimized conformer: 84.70618072476626 kcal/mol)

>  <smiles>  (20) 
O=C(Cc1ccccc1Nc1c(Cl)cccc1Cl)N=c1[nH]cc(Cl)s1

>  <score_type>  (20) 
oracle

>  <origin>  (20) 
adg

>  <m_score__min__energy>  (20) 
-7.3499999999999996

>  <m_primary>  (20) 
energy

$$$$
20:0
     RDKit          3D

 48 50  0  0  0  0  0  0  0  0999 V2000
   55.9330   22.6590   48.1510 C   0  0  0  0  0  0  0  0  0  0  0  0
   56.9520   22.9990   47.2170 O   0  0  0  0  0  0  0  0  0  0  0  0
   56.7840   23.0200   45.8240 C   0  0  0  0  0  0  0  0  0  0  0  0
   57.5450   22.1090   45.0770 C   0  0  0  0  0  0  0  0  0  0  0  0
   57.4520   22.0690   43.6860 C   0  0  0  0  0  0  0  0  0  0  0  0
   56.5850   22.9330   43.0200 C   0  0  0  0  0  0  0  0  0  0  0  0
   55.7990   23.8320   43.7440 C   0  0  0  0  0  0  0  0  0  0  0  0
   55.8740   23.8840   45.1500 C   0  0  0  0  0  0  0  0  0  0  0  0
   54.9380   24.8080   45.8860 C   0  0  0  0  0  0  0  0  0  0  0  0
   55.5390   26.1310   45.9960 N   0  0  0  0  0  0  0  0  0  0  0  0
   56.8210   26.4010   46.5730 C   0  0  0  0  0  0  0  0  0  0  0  0
   57.2310   25.6690   47.5120 O   0  0  0  0  0  0  0  0  0  0  0  0
   57.6890   27.5330   46.0990 C   0  0  0  0  0  0  0  0  0  0  0  0
   56.8340   28.5450   44.8410 S   0  0  0  0  0  0  0  0  0  0  0  0
   57.3940   30.1130   45.5010 C   0  0  0  0  0  0  0  0  0  0  0  0
   57.0200   31.2710   44.9060 N   0  0  0  0  0  0  0  0  0  0  0  0
   57.4350   32.4720   45.3830 C   0  0  0  0  0  0  0  0  0  0  0  0
   57.0620   33.5230   44.7950 O   0  0  0  0  0  0  0  0  0  0  0  0
   58.2680   32.5340   46.5200 C   0  0  0  0  0  0  0  0  0  0  0  0
   58.7130   33.8720   47.0780 C   0  0  0  0  0  0  0  0  0  0  0  0
   60.1860   33.8680   47.4030 C   0  0  0  0  0  0  0  0  0  0  0  0
   60.6290   34.1020   48.7170 C   0  0  0  0  0  0  0  0  0  0  0  0
   61.9960   34.0900   49.0130 C   0  0  0  0  0  0  0  0  0  0  0  0
   62.9290   33.8290   48.0060 C   0  0  0  0  0  0  0  0  0  0  0  0
   62.4980   33.5810   46.7010 C   0  0  0  0  0  0  0  0  0  0  0  0
   61.1330   33.5990   46.3990 C   0  0  0  0  0  0  0  0  0  0  0  0
   58.6310   31.3090   47.1270 C   0  0  0  0  0  0  0  0  0  0  0  0
   59.4400   31.2470   48.2630 O   0  0  0  0  0  0  0  0  0  0  0  0
   58.1860   30.1390   46.6000 N   0  0  0  0  0  0  0  0  0  0  0  0
   56.3160   22.7868   49.1742 H   0  0  0  0  0  0  0  0  0  0  0  0
   55.0635   23.3157   48.0003 H   0  0  0  0  0  0  0  0  0  0  0  0
   55.6320   21.6118   48.0003 H   0  0  0  0  0  0  0  0  0  0  0  0
   58.2245   21.4165   45.5954 H   0  0  0  0  0  0  0  0  0  0  0  0
   58.0633   21.3551   43.1144 H   0  0  0  0  0  0  0  0  0  0  0  0
   56.5196   22.9069   41.9223 H   0  0  0  0  0  0  0  0  0  0  0  0
   55.1136   24.5071   43.2106 H   0  0  0  0  0  0  0  0  0  0  0  0
   53.9891   24.8822   45.3346 H   0  0  0  0  0  0  0  0  0  0  0  0
   54.7498   24.4087   46.8935 H   0  0  0  0  0  0  0  0  0  0  0  0
   57.9461   28.1709   46.9575 H   0  0  0  0  0  0  0  0  0  0  0  0
   58.5957   27.1077   45.6441 H   0  0  0  0  0  0  0  0  0  0  0  0
   58.5127   34.6556   46.3324 H   0  0  0  0  0  0  0  0  0  0  0  0
   58.1535   34.0648   48.0052 H   0  0  0  0  0  0  0  0  0  0  0  0
   59.8974   34.2953   49.5154 H   0  0  0  0  0  0  0  0  0  0  0  0
   62.3372   34.2863   50.0402 H   0  0  0  0  0  0  0  0  0  0  0  0
   64.0035   33.8189   48.2413 H   0  0  0  0  0  0  0  0  0  0  0  0
   63.2331   33.3713   45.9100 H   0  0  0  0  0  0  0  0  0  0  0  0
   60.7980   33.4016   45.3700 H   0  0  0  0  0  0  0  0  0  0  0  0
   60.3430   30.7980   48.2820 H   0  0  0  0  0  0  0  0  0  0  0  0
  1  2  1  0
  2  3  1  0
  3  4  2  0
  4  5  1  0
  5  6  2  0
  6  7  1  0
  7  8  2  0
  8  9  1  0
  9 10  1  0
 10 11  1  0
 11 12  2  0
 11 13  1  0
 13 14  1  0
 14 15  1  0
 15 16  2  0
 16 17  1  0
 17 18  2  0
 17 19  1  0
 19 20  1  0
 20 21  1  0
 21 22  2  0
 22 23  1  0
 23 24  2  0
 24 25  1  0
 25 26  2  0
 19 27  2  0
 27 28  1  0
 27 29  1  0
  8  3  1  0
 29 15  1  0
 26 21  1  0
  1 30  1  0
  1 31  1  0
  1 32  1  0
  4 33  1  0
  5 34  1  0
  6 35  1  0
  7 36  1  0
  9 37  1  0
  9 38  1  0
 13 39  1  0
 13 40  1  0
 20 41  1  0
 20 42  1  0
 22 43  1  0
 23 44  1  0
 24 45  1  0
 25 46  1  0
 26 47  1  0
 28 48  1  0
M  CHG  2  10  -1  29  -1
M  END
>  <UniqueID>  (21) 
20

>  <SMILES>  (21) 
COc1ccccc1C[N-]C(=O)CSc1nc(=O)c(Cc2ccccc2)c(O)[n-]1

>  <Energy>  (21) 
54.416754496114955

>  <Genealogy>  (21) 
COc1ccccc1C[N-]C(=O)CSc1nc(=O)c(Cc2ccccc2)c(O)[n-]1 (protonated)
COc1ccccc1C[N-]C(=O)CSc1nc(=O)c(Cc2ccccc2)c(O)[n-]1 (3D coordinates assigned)
COc1ccccc1C[N-]C(=O)CSc1nc(=O)c(Cc2ccccc2)c(O)[n-]1 (optimized conformer: 54.416754496114955 kcal/mol)

>  <smiles>  (21) 
COc1ccccc1CNC(=O)CSc1nc(=O)c(Cc2ccccc2)c(O)[nH]1

>  <score_type>  (21) 
oracle

>  <origin>  (21) 
adg

>  <m_score__min__energy>  (21) 
-12.49

>  <m_primary>  (21) 
energy

$$$$
21:0
     RDKit          3D

 41 43  0  0  0  0  0  0  0  0999 V2000
   55.3050   29.0840   44.8900 O   0  0  0  0  0  0  0  0  0  0  0  0
   56.5390   28.9620   45.1180 C   0  0  0  0  0  0  0  0  0  0  0  0
   57.0160   27.8990   46.0580 C   0  0  0  0  0  0  0  0  0  0  0  0
   56.4990   26.5890   45.6480 N   0  0  0  0  0  0  0  0  0  0  0  0
   55.2350   26.2820   45.9610 N   0  0  0  0  0  0  0  0  0  0  0  0
   54.6970   25.0770   45.6440 C   0  0  0  0  0  0  0  0  0  0  0  0
   53.4980   24.8200   45.9480 O   0  0  0  0  0  0  0  0  0  0  0  0
   55.4890   24.1410   44.9810 C   0  0  0  0  0  0  0  0  0  0  0  0
   55.0300   23.0100   44.6680 O   0  0  0  0  0  0  0  0  0  0  0  0
   56.7730   24.4580   44.6760 N   0  0  0  0  0  0  0  0  0  0  0  0
   57.2870   25.6700   45.0050 C   0  0  0  0  0  0  0  0  0  0  0  0
   58.4890   25.9300   44.7190 O   0  0  0  0  0  0  0  0  0  0  0  0
   57.4860   29.8630   44.5300 N   0  0  0  0  0  0  0  0  0  0  0  0
   58.0690   31.0120   45.1600 C   0  0  0  0  0  0  0  0  0  0  0  0
   58.8540   30.8250   46.3050 C   0  0  0  0  0  0  0  0  0  0  0  0
   59.4600   31.9170   46.9350 C   0  0  0  0  0  0  0  0  0  0  0  0
   59.3050   33.2070   46.4110 C   0  0  0  0  0  0  0  0  0  0  0  0
   60.0640   34.5850   47.2060 S   0  0  0  0  0  0  0  0  0  0  0  0
   59.2910   34.9320   48.4500 O   0  0  0  0  0  0  0  0  0  0  0  0
   60.0340   35.7700   46.2790 O   0  0  0  0  0  0  0  0  0  0  0  0
   61.7200   34.1960   47.5960 N   0  0  0  0  0  0  0  0  0  0  0  0
   62.3980   33.5550   46.4690 C   0  0  0  0  0  0  0  0  0  0  0  0
   63.4900   32.6780   47.0600 C   0  0  0  0  0  0  0  0  0  0  0  0
   63.1040   32.4770   48.5190 C   0  0  0  0  0  0  0  0  0  0  0  0
   61.7930   33.2270   48.6910 C   0  0  0  0  0  0  0  0  0  0  0  0
   58.5330   33.3960   45.2570 C   0  0  0  0  0  0  0  0  0  0  0  0
   57.9250   32.3070   44.6290 C   0  0  0  0  0  0  0  0  0  0  0  0
   58.1157   27.8740   46.0500 H   0  0  0  0  0  0  0  0  0  0  0  0
   56.6522   28.1268   47.0708 H   0  0  0  0  0  0  0  0  0  0  0  0
   58.9948   29.8126   46.7114 H   0  0  0  0  0  0  0  0  0  0  0  0
   60.0597   31.7625   47.8441 H   0  0  0  0  0  0  0  0  0  0  0  0
   61.6863   32.9413   45.8973 H   0  0  0  0  0  0  0  0  0  0  0  0
   62.8193   34.3037   45.7820 H   0  0  0  0  0  0  0  0  0  0  0  0
   63.5323   31.7114   46.5367 H   0  0  0  0  0  0  0  0  0  0  0  0
   64.4834   33.1397   46.9602 H   0  0  0  0  0  0  0  0  0  0  0  0
   62.9684   31.4077   48.7384 H   0  0  0  0  0  0  0  0  0  0  0  0
   63.8814   32.8452   49.2046 H   0  0  0  0  0  0  0  0  0  0  0  0
   60.9455   32.5278   48.6365 H   0  0  0  0  0  0  0  0  0  0  0  0
   61.7477   33.7286   49.6689 H   0  0  0  0  0  0  0  0  0  0  0  0
   58.4053   34.4074   44.8437 H   0  0  0  0  0  0  0  0  0  0  0  0
   57.3314   32.4621   43.7160 H   0  0  0  0  0  0  0  0  0  0  0  0
  1  2  2  0
  2  3  1  0
  3  4  1  0
  4  5  1  0
  5  6  1  0
  6  7  2  0
  6  8  1  0
  8  9  2  0
  8 10  1  0
 10 11  1  0
 11 12  2  0
  2 13  1  0
 13 14  1  0
 14 15  2  0
 15 16  1  0
 16 17  2  0
 17 18  1  0
 18 19  2  0
 18 20  2  0
 18 21  1  0
 21 22  1  0
 22 23  1  0
 23 24  1  0
 24 25  1  0
 17 26  1  0
 26 27  2  0
 11  4  1  0
 27 14  1  0
 25 21  1  0
  3 28  1  0
  3 29  1  0
 15 30  1  0
 16 31  1  0
 22 32  1  0
 22 33  1  0
 23 34  1  0
 23 35  1  0
 24 36  1  0
 24 37  1  0
 25 38  1  0
 25 39  1  0
 26 40  1  0
 27 41  1  0
M  CHG  3   5  -1  10  -1  13  -1
M  END
>  <UniqueID>  (22) 
21

>  <SMILES>  (22) 
O=C(Cn1[n-]c(=O)c(=O)[n-]c1=O)[N-]c1ccc(S(=O)(=O)N2CCCC2)cc1

>  <Energy>  (22) 
48.33298047851942

>  <Genealogy>  (22) 
O=C(Cn1[n-]c(=O)c(=O)[n-]c1=O)[N-]c1ccc(S(=O)(=O)N2CCCC2)cc1 (protonated)
O=C(Cn1[n-]c(=O)c(=O)[n-]c1=O)[N-]c1ccc(S(=O)(=O)N2CCCC2)cc1 (3D coordinates assigned)
O=C(Cn1[n-]c(=O)c(=O)[n-]c1=O)[N-]c1ccc(S(=O)(=O)N2CCCC2)cc1 (nonaromatic ring conformer: 48.33298047851942 kcal/mol)

>  <smiles>  (22) 
O=C(Cn1[nH]c(=O)c(=O)[nH]c1=O)Nc1ccc(S(=O)(=O)N2CCCC2)cc1

>  <score_type>  (22) 
oracle

>  <origin>  (22) 
adg

>  <m_score__min__energy>  (22) 
-13.66

>  <m_primary>  (22) 
energy

$$$$
22:0
     RDKit          3D

 40 41  0  0  0  0  0  0  0  0999 V2000
   56.6129   20.7355   46.7238 H   0  0  0  0  0  0  0  0  0  0  0  0
   56.8250   21.8050   46.5780 C   0  0  0  0  0  0  0  0  0  0  0  0
   56.4640   23.0420   47.6610 S   0  0  0  0  0  0  0  0  0  0  0  0
   57.0940   24.2350   46.6630 C   0  0  0  0  0  0  0  0  0  0  0  0
   57.0980   25.4980   46.9690 N   0  0  0  0  0  0  0  0  0  0  0  0
   56.3800   26.5340   46.2800 C   0  0  0  0  0  0  0  0  0  0  0  0
   55.1560   26.4100   46.0050 O   0  0  0  0  0  0  0  0  0  0  0  0
   57.0880   27.8050   45.9280 C   0  0  0  0  0  0  0  0  0  0  0  0
   57.2176   28.4119   46.8362 H   0  0  0  0  0  0  0  0  0  0  0  0
   58.0694   27.5605   45.4956 H   0  0  0  0  0  0  0  0  0  0  0  0
   56.2740   28.5990   44.9010 C   0  0  0  0  0  0  0  0  0  0  0  0
   56.6988   28.4302   43.9005 H   0  0  0  0  0  0  0  0  0  0  0  0
   55.2304   28.2542   44.9466 H   0  0  0  0  0  0  0  0  0  0  0  0
   56.2970   30.0350   45.1920 N   0  0  0  0  0  0  0  0  0  0  0  0
   57.5540   30.8680   44.3200 S   0  0  0  0  0  0  0  0  0  0  0  0
   58.7180   29.9330   44.1410 O   0  0  0  0  0  0  0  0  0  0  0  0
   57.0490   31.2510   42.9570 O   0  0  0  0  0  0  0  0  0  0  0  0
   58.1160   32.3010   45.1830 C   0  0  0  0  0  0  0  0  0  0  0  0
   58.4980   33.4540   44.4790 C   0  0  0  0  0  0  0  0  0  0  0  0
   58.4738   33.4595   43.3793 H   0  0  0  0  0  0  0  0  0  0  0  0
   58.9090   34.5950   45.1740 C   0  0  0  0  0  0  0  0  0  0  0  0
   59.2077   35.4974   44.6204 H   0  0  0  0  0  0  0  0  0  0  0  0
   58.9410   34.5910   46.5710 C   0  0  0  0  0  0  0  0  0  0  0  0
   59.2662   35.4894   47.1160 H   0  0  0  0  0  0  0  0  0  0  0  0
   58.5600   33.4460   47.2760 C   0  0  0  0  0  0  0  0  0  0  0  0
   58.5843   33.4440   48.3757 H   0  0  0  0  0  0  0  0  0  0  0  0
   58.1480   32.3030   46.5840 C   0  0  0  0  0  0  0  0  0  0  0  0
   57.8482   31.4030   47.1408 H   0  0  0  0  0  0  0  0  0  0  0  0
   57.5800   23.7260   45.5090 N   0  0  0  0  0  0  0  0  0  0  0  0
   57.4400   22.3740   45.4640 C   0  0  0  0  0  0  0  0  0  0  0  0
   57.8500   21.5820   44.2630 C   0  0  0  0  0  0  0  0  0  0  0  0
   58.3730   20.6705   44.5880 H   0  0  0  0  0  0  0  0  0  0  0  0
   58.5196   22.1912   43.6380 H   0  0  0  0  0  0  0  0  0  0  0  0
   56.6420   21.2040   43.4680 C   0  0  0  0  0  0  0  0  0  0  0  0
   56.1440   20.0520   43.5920 O   0  0  0  0  0  0  0  0  0  0  0  0
   56.0500   22.1510   42.6270 O   0  0  0  0  0  0  0  0  0  0  0  0
   55.8690   23.5090   43.0080 C   0  0  0  0  0  0  0  0  0  0  0  0
   55.8590   23.5837   44.1054 H   0  0  0  0  0  0  0  0  0  0  0  0
   56.6942   24.1155   42.6067 H   0  0  0  0  0  0  0  0  0  0  0  0
   54.9137   23.8782   42.6067 H   0  0  0  0  0  0  0  0  0  0  0  0
  1  2  1  0
  2  3  1  0
  3  4  1  0
  4  5  2  0
  5  6  1  0
  6  7  2  0
  6  8  1  0
  8  9  1  0
  8 10  1  0
  8 11  1  0
 11 12  1  0
 11 13  1  0
 11 14  1  0
 14 15  1  0
 15 16  2  0
 15 17  2  0
 15 18  1  0
 18 19  2  0
 19 20  1  0
 19 21  1  0
 21 22  1  0
 21 23  2  0
 23 24  1  0
 23 25  1  0
 25 26  1  0
 25 27  2  0
 27 28  1  0
  4 29  1  0
 29 30  1  0
 30 31  1  0
 31 32  1  0
 31 33  1  0
 31 34  1  0
 34 35  2  0
 34 36  1  0
 36 37  1  0
 37 38  1  0
 37 39  1  0
 37 40  1  0
 30  2  2  0
 27 18  1  0
M  CHG  2  14  -1  29  -1
M  END
>  <UniqueID>  (23) 
22

>  <SMILES>  (23) 
COC(=O)Cc1cs/c(=N/C(=O)CC[N-]S(=O)(=O)c2ccccc2)[n-]1

>  <Energy>  (23) 
63.53365723518721

>  <Genealogy>  (23) 
COC(=O)Cc1csc(=NC(=O)CC[N-]S(=O)(=O)c2ccccc2)[n-]1 (protonated)
COC(=O)Cc1cs/c(=N/C(=O)CC[N-]S(=O)(=O)c2ccccc2)[n-]1 (cis-trans isomerization)
COC(=O)Cc1cs/c(=N/C(=O)CC[N-]S(=O)(=O)c2ccccc2)[n-]1 (3D coordinates assigned)
COC(=O)Cc1cs/c(=N/C(=O)CC[N-]S(=O)(=O)c2ccccc2)[n-]1 (optimized conformer: 63.53365723518721 kcal/mol)

>  <smiles>  (23) 
COC(=O)Cc1csc(=NC(=O)CCNS(=O)(=O)c2ccccc2)[nH]1

>  <score_type>  (23) 
oracle

>  <origin>  (23) 
adg

>  <m_score__min__energy>  (23) 
-11.550000000000001

>  <m_primary>  (23) 
energy

$$$$
23:0
     RDKit          3D

 39 41  0  0  0  0  0  0  0  0999 V2000
   59.9115   35.6280   47.5796 H   0  0  0  0  0  0  0  0  0  0  0  0
   59.2830   34.8080   47.2020 C   0  0  0  0  0  0  0  0  0  0  0  0
   58.3035   34.6092   47.6615 H   0  0  0  0  0  0  0  0  0  0  0  0
   59.7090   34.0540   46.1860 C   0  0  0  0  0  0  0  0  0  0  0  0
   60.6911   34.2669   45.7385 H   0  0  0  0  0  0  0  0  0  0  0  0
   58.8860   32.9220   45.6350 C   0  0  0  0  0  0  0  0  0  0  0  0
   57.8480   33.0248   45.9843 H   0  0  0  0  0  0  0  0  0  0  0  0
   58.9198   32.9577   44.5361 H   0  0  0  0  0  0  0  0  0  0  0  0
   59.4210   31.6380   46.0850 N   0  0  0  0  0  0  0  0  0  0  0  0
   59.5760   31.3110   47.3320 C   0  0  0  0  0  0  0  0  0  0  0  0
   58.6770   31.5890   48.3030 N   0  0  0  0  0  0  0  0  0  0  0  0
   59.0940   31.1350   49.5170 C   0  0  0  0  0  0  0  0  0  0  0  0
   58.2900   31.3200   50.7410 C   0  0  0  0  0  0  0  0  0  0  0  0
   57.2610   30.4680   51.0110 N   0  0  0  0  0  0  0  0  0  0  0  0
   56.4800   30.5820   52.1190 C   0  0  0  0  0  0  0  0  0  0  0  0
   55.5160   29.7210   52.2890 N   0  0  0  0  0  0  0  0  0  0  0  0
   54.2570   29.9310   53.0070 C   0  0  0  0  0  0  0  0  0  0  0  0
   53.9234   28.9746   53.4360 H   0  0  0  0  0  0  0  0  0  0  0  0
   54.4259   30.6714   53.8028 H   0  0  0  0  0  0  0  0  0  0  0  0
   53.1900   30.4550   52.0810 C   0  0  0  0  0  0  0  0  0  0  0  0
   53.0030   29.8830   50.8100 C   0  0  0  0  0  0  0  0  0  0  0  0
   53.6340   29.0408   50.4898 H   0  0  0  0  0  0  0  0  0  0  0  0
   52.0180   30.3810   49.9520 C   0  0  0  0  0  0  0  0  0  0  0  0
   51.8717   29.9252   48.9616 H   0  0  0  0  0  0  0  0  0  0  0  0
   51.2190   31.4560   50.3490 C   0  0  0  0  0  0  0  0  0  0  0  0
   50.4424   31.8433   49.6731 H   0  0  0  0  0  0  0  0  0  0  0  0
   51.4070   32.0400   51.6070 C   0  0  0  0  0  0  0  0  0  0  0  0
   50.6170   33.1130   51.9990 O   0  0  0  0  0  0  0  0  0  0  0  0
   52.3920   31.5450   52.4690 C   0  0  0  0  0  0  0  0  0  0  0  0
   52.5423   32.0108   53.4541 H   0  0  0  0  0  0  0  0  0  0  0  0
   56.7430   31.6200   53.0350 C   0  0  0  0  0  0  0  0  0  0  0  0
   56.1282   31.7296   53.9405 H   0  0  0  0  0  0  0  0  0  0  0  0
   57.7890   32.5070   52.7840 C   0  0  0  0  0  0  0  0  0  0  0  0
   57.9999   33.3218   53.4923 H   0  0  0  0  0  0  0  0  0  0  0  0
   58.5680   32.3630   51.6370 C   0  0  0  0  0  0  0  0  0  0  0  0
   59.3938   33.0614   51.4362 H   0  0  0  0  0  0  0  0  0  0  0  0
   60.3330   30.4900   49.5040 C   0  0  0  0  0  0  0  0  0  0  0  0
   60.8409   30.0530   50.3764 H   0  0  0  0  0  0  0  0  0  0  0  0
   60.9160   30.4960   47.9240 S   0  0  0  0  0  0  0  0  0  0  0  0
  1  2  1  0
  2  3  1  0
  2  4  2  0
  4  5  1  0
  4  6  1  0
  6  7  1  0
  6  8  1  0
  6  9  1  0
  9 10  2  3
 10 11  1  0
 11 12  1  0
 12 13  1  0
 13 14  1  0
 14 15  1  0
 15 16  2  0
 16 17  1  0
 17 18  1  0
 17 19  1  0
 17 20  1  0
 20 21  2  0
 21 22  1  0
 21 23  1  0
 23 24  1  0
 23 25  2  0
 25 26  1  0
 25 27  1  0
 27 28  1  0
 27 29  2  0
 29 30  1  0
 15 31  1  0
 31 32  1  0
 31 33  2  0
 33 34  1  0
 33 35  1  0
 35 36  1  0
 12 37  2  0
 37 38  1  0
 37 39  1  0
 39 10  1  0
 35 13  2  0
 29 20  1  0
M  CHG  3  11  -1  14  -1  28  -1
M  END
>  <UniqueID>  (24) 
23

>  <SMILES>  (24) 
C=CCN=c1[n-]c(-c2ccc/c(=N\Cc3cccc([O-])c3)[n-]2)cs1

>  <Energy>  (24) 
70.6434532903929

>  <Genealogy>  (24) 
C=CCN=c1[n-]c(-c2cccc(=NCc3cccc([O-])c3)[n-]2)cs1 (protonated)
C=CCN=c1[n-]c(-c2ccc/c(=N\Cc3cccc([O-])c3)[n-]2)cs1 (cis-trans isomerization)
C=CCN=c1[n-]c(-c2ccc/c(=N\Cc3cccc([O-])c3)[n-]2)cs1 (3D coordinates assigned)
C=CCN=c1[n-]c(-c2ccc/c(=N\Cc3cccc([O-])c3)[n-]2)cs1 (optimized conformer: 70.6434532903929 kcal/mol)

>  <smiles>  (24) 
C=CCN=c1[nH]c(-c2cccc(=NCc3cccc(O)c3)[nH]2)cs1

>  <score_type>  (24) 
oracle

>  <origin>  (24) 
adg

>  <m_score__min__energy>  (24) 
-13.359999999999999

>  <m_primary>  (24) 
energy

$$$$
24:0
     RDKit          3D

 57 60  0  0  0  0  0  0  0  0999 V2000
   54.0720   27.9030   53.8770 C   0  0  0  0  0  0  0  0  0  0  0  0
   54.3570   28.9850   54.9200 C   0  0  0  0  0  0  0  0  0  0  0  0
   55.0800   30.1340   54.3320 N   0  0  0  0  0  0  0  0  0  0  0  0
   56.5530   29.9700   54.4630 C   0  0  0  0  0  0  0  0  0  0  0  0
   57.2270   29.4980   53.1680 C   0  0  0  0  0  0  0  0  0  0  0  0
   56.9190   30.4280   52.0740 N   0  0  0  0  0  0  0  0  0  0  0  0
   57.8410   30.6000   50.9760 C   0  0  0  0  0  0  0  0  0  0  0  0
   58.5450   29.5000   50.4500 C   0  0  0  0  0  0  0  0  0  0  0  0
   59.4250   29.6660   49.3780 C   0  0  0  0  0  0  0  0  0  0  0  0
   59.6080   30.9270   48.8000 C   0  0  0  0  0  0  0  0  0  0  0  0
   60.5200   31.0590   47.7000 N   0  0  0  0  0  0  0  0  0  0  0  0
   60.7310   32.2420   46.9150 C   0  0  0  0  0  0  0  0  0  0  0  0
   61.9020   32.6860   46.7980 O   0  0  0  0  0  0  0  0  0  0  0  0
   59.6240   32.8870   46.1730 C   0  0  0  0  0  0  0  0  0  0  0  0
   59.6840   34.2720   45.9370 C   0  0  0  0  0  0  0  0  0  0  0  0
   58.6830   34.9110   45.2040 C   0  0  0  0  0  0  0  0  0  0  0  0
   57.6130   34.1770   44.6940 C   0  0  0  0  0  0  0  0  0  0  0  0
   57.5410   32.8000   44.9140 C   0  0  0  0  0  0  0  0  0  0  0  0
   58.5420   32.1410   45.6490 C   0  0  0  0  0  0  0  0  0  0  0  0
   58.4600   30.7190   45.8380 N   0  0  0  0  0  0  0  0  0  0  0  0
   57.3420   29.9420   45.3780 C   0  0  0  0  0  0  0  0  0  0  0  0
   56.4610   30.4820   44.6530 O   0  0  0  0  0  0  0  0  0  0  0  0
   57.2300   28.5090   45.7270 C   0  0  0  0  0  0  0  0  0  0  0  0
   58.3440   27.7810   46.1700 C   0  0  0  0  0  0  0  0  0  0  0  0
   58.1790   26.4310   46.4860 C   0  0  0  0  0  0  0  0  0  0  0  0
   59.1580   25.7510   46.8880 O   0  0  0  0  0  0  0  0  0  0  0  0
   56.9580   25.8490   46.3590 N   0  0  0  0  0  0  0  0  0  0  0  0
   55.8880   26.5640   45.9280 C   0  0  0  0  0  0  0  0  0  0  0  0
   54.7640   26.0090   45.8170 O   0  0  0  0  0  0  0  0  0  0  0  0
   56.0280   27.8790   45.6180 N   0  0  0  0  0  0  0  0  0  0  0  0
   58.9370   32.0350   49.3420 C   0  0  0  0  0  0  0  0  0  0  0  0
   58.0550   31.8710   50.4130 C   0  0  0  0  0  0  0  0  0  0  0  0
   55.6630   31.1850   52.1250 C   0  0  0  0  0  0  0  0  0  0  0  0
   54.6200   30.4200   52.9470 C   0  0  0  0  0  0  0  0  0  0  0  0
   53.8236   26.9598   54.3856 H   0  0  0  0  0  0  0  0  0  0  0  0
   53.2252   28.2143   53.2477 H   0  0  0  0  0  0  0  0  0  0  0  0
   54.9623   27.7568   53.2477 H   0  0  0  0  0  0  0  0  0  0  0  0
   53.4024   29.3395   55.3361 H   0  0  0  0  0  0  0  0  0  0  0  0
   54.9903   28.5464   55.7052 H   0  0  0  0  0  0  0  0  0  0  0  0
   56.9882   30.9384   54.7506 H   0  0  0  0  0  0  0  0  0  0  0  0
   56.7289   29.1952   55.2238 H   0  0  0  0  0  0  0  0  0  0  0  0
   58.3161   29.4591   53.3174 H   0  0  0  0  0  0  0  0  0  0  0  0
   56.8502   28.4976   52.9086 H   0  0  0  0  0  0  0  0  0  0  0  0
   58.4007   28.5010   50.8871 H   0  0  0  0  0  0  0  0  0  0  0  0
   59.9777   28.7997   48.9856 H   0  0  0  0  0  0  0  0  0  0  0  0
   60.5271   34.8567   46.3335 H   0  0  0  0  0  0  0  0  0  0  0  0
   58.7383   35.9955   45.0284 H   0  0  0  0  0  0  0  0  0  0  0  0
   56.8246   34.6832   44.1177 H   0  0  0  0  0  0  0  0  0  0  0  0
   56.6943   32.2263   44.5090 H   0  0  0  0  0  0  0  0  0  0  0  0
   59.2610   30.2310   46.2950 H   0  0  0  0  0  0  0  0  0  0  0  0
   59.3277   28.2638   46.2665 H   0  0  0  0  0  0  0  0  0  0  0  0
   59.1066   33.0371   48.9213 H   0  0  0  0  0  0  0  0  0  0  0  0
   57.5231   32.7438   50.8196 H   0  0  0  0  0  0  0  0  0  0  0  0
   55.8470   32.1641   52.5914 H   0  0  0  0  0  0  0  0  0  0  0  0
   55.2841   31.3232   51.1016 H   0  0  0  0  0  0  0  0  0  0  0  0
   53.7011   31.0225   52.9985 H   0  0  0  0  0  0  0  0  0  0  0  0
   54.4455   29.4552   52.4483 H   0  0  0  0  0  0  0  0  0  0  0  0
  1  2  1  0
  2  3  1  0
  3  4  1  0
  4  5  1  0
  5  6  1  0
  6  7  1  0
  7  8  2  0
  8  9  1  0
  9 10  2  0
 10 11  1  0
 11 12  1  0
 12 13  2  0
 12 14  1  0
 14 15  2  0
 15 16  1  0
 16 17  2  0
 17 18  1  0
 18 19  2  0
 19 20  1  0
 20 21  1  0
 21 22  2  0
 21 23  1  0
 23 24  2  0
 24 25  1  0
 25 26  2  0
 25 27  1  0
 27 28  1  0
 28 29  2  0
 28 30  1  0
 10 31  1  0
 31 32  2  0
  6 33  1  0
 33 34  1  0
 34  3  1  0
 32  7  1  0
 19 14  1  0
 30 23  1  0
  1 35  1  0
  1 36  1  0
  1 37  1  0
  2 38  1  0
  2 39  1  0
  4 40  1  0
  4 41  1  0
  5 42  1  0
  5 43  1  0
  8 44  1  0
  9 45  1  0
 15 46  1  0
 16 47  1  0
 17 48  1  0
 18 49  1  0
 20 50  1  0
 24 51  1  0
 31 52  1  0
 32 53  1  0
 33 54  1  0
 33 55  1  0
 34 56  1  0
 34 57  1  0
M  CHG  3  11  -1  27  -1  30  -1
M  END
>  <UniqueID>  (25) 
24

>  <SMILES>  (25) 
CCN1CCN(c2ccc([N-]C(=O)c3ccccc3NC(=O)c3cc(=O)[n-]c(=O)[n-]3)cc2)CC1

>  <Energy>  (25) 
84.65987481098628

>  <Genealogy>  (25) 
CCN1CCN(c2ccc([N-]C(=O)c3ccccc3NC(=O)c3cc(=O)[n-]c(=O)[n-]3)cc2)CC1 (protonated)
CCN1CCN(c2ccc([N-]C(=O)c3ccccc3NC(=O)c3cc(=O)[n-]c(=O)[n-]3)cc2)CC1 (3D coordinates assigned)
CCN1CCN(c2ccc([N-]C(=O)c3ccccc3NC(=O)c3cc(=O)[n-]c(=O)[n-]3)cc2)CC1 (nonaromatic ring conformer: 84.65987481098628 kcal/mol)

>  <smiles>  (25) 
CCN1CCN(c2ccc(NC(=O)c3ccccc3NC(=O)c3cc(=O)[nH]c(=O)[nH]3)cc2)CC1

>  <score_type>  (25) 
oracle

>  <origin>  (25) 
adg

>  <m_score__min__energy>  (25) 
-14.51

>  <m_primary>  (25) 
energy

$$$$
25:0
     RDKit          3D

 48 51  0  0  0  0  0  0  0  0999 V2000
   51.4640   24.0990   44.1300 C   0  0  0  0  0  0  0  0  0  0  0  0
   52.2140   22.9680   44.5590 O   0  0  0  0  0  0  0  0  0  0  0  0
   53.0380   22.9420   45.6950 C   0  0  0  0  0  0  0  0  0  0  0  0
   52.5830   22.4600   46.9370 C   0  0  0  0  0  0  0  0  0  0  0  0
   53.4300   22.4580   48.0450 C   0  0  0  0  0  0  0  0  0  0  0  0
   54.7420   22.9140   47.9270 C   0  0  0  0  0  0  0  0  0  0  0  0
   55.2250   23.3700   46.6940 C   0  0  0  0  0  0  0  0  0  0  0  0
   56.6350   23.8110   46.6140 C   0  0  0  0  0  0  0  0  0  0  0  0
   57.0670   25.0890   46.5990 C   0  0  0  0  0  0  0  0  0  0  0  0
   58.3830   25.3110   46.8660 N   0  0  0  0  0  0  0  0  0  0  0  0
   58.9240   26.5540   46.9030 C   0  0  0  0  0  0  0  0  0  0  0  0
   60.1510   26.6840   47.1670 O   0  0  0  0  0  0  0  0  0  0  0  0
   58.1070   27.6710   46.6450 C   0  0  0  0  0  0  0  0  0  0  0  0
   58.5900   28.9270   46.7010 C   0  0  0  0  0  0  0  0  0  0  0  0
   58.4290   29.9110   45.6130 C   0  0  0  0  0  0  0  0  0  0  0  0
   58.3260   29.6050   44.2610 C   0  0  0  0  0  0  0  0  0  0  0  0
   58.1450   30.7290   43.5330 N   0  0  0  0  0  0  0  0  0  0  0  0
   58.1100   31.7420   44.4160 C   0  0  0  0  0  0  0  0  0  0  0  0
   57.8950   33.0920   44.1380 C   0  0  0  0  0  0  0  0  0  0  0  0
   57.8350   33.9860   45.2220 C   0  0  0  0  0  0  0  0  0  0  0  0
   57.9710   33.5130   46.5450 C   0  0  0  0  0  0  0  0  0  0  0  0
   58.1810   32.1450   46.7970 C   0  0  0  0  0  0  0  0  0  0  0  0
   58.2690   31.2850   45.6990 C   0  0  0  0  0  0  0  0  0  0  0  0
   56.7950   27.4540   46.3590 N   0  0  0  0  0  0  0  0  0  0  0  0
   56.2510   26.2110   46.3130 C   0  0  0  0  0  0  0  0  0  0  0  0
   55.0410   26.0930   45.9850 O   0  0  0  0  0  0  0  0  0  0  0  0
   54.3510   23.4280   45.5790 C   0  0  0  0  0  0  0  0  0  0  0  0
   54.7680   23.9230   44.3360 O   0  0  0  0  0  0  0  0  0  0  0  0
   55.8670   23.4280   43.6260 C   0  0  0  0  0  0  0  0  0  0  0  0
   57.0420   24.3120   43.3850 C   0  0  0  0  0  0  0  0  0  0  0  0
   55.9020   22.2250   43.2470 O   0  0  0  0  0  0  0  0  0  0  0  0
   51.0980   24.6509   45.0083 H   0  0  0  0  0  0  0  0  0  0  0  0
   52.1057   24.7565   43.5251 H   0  0  0  0  0  0  0  0  0  0  0  0
   50.6086   23.7637   43.5251 H   0  0  0  0  0  0  0  0  0  0  0  0
   51.5542   22.0830   47.0340 H   0  0  0  0  0  0  0  0  0  0  0  0
   53.0613   22.0952   49.0158 H   0  0  0  0  0  0  0  0  0  0  0  0
   55.4017   22.9157   48.8072 H   0  0  0  0  0  0  0  0  0  0  0  0
   57.4019   23.0242   46.5619 H   0  0  0  0  0  0  0  0  0  0  0  0
   59.1335   29.2359   47.6061 H   0  0  0  0  0  0  0  0  0  0  0  0
   58.3838   28.5895   43.8421 H   0  0  0  0  0  0  0  0  0  0  0  0
   58.0340   30.7910   42.4960 H   0  0  0  0  0  0  0  0  0  0  0  0
   57.7761   33.4462   43.1034 H   0  0  0  0  0  0  0  0  0  0  0  0
   57.6813   35.0595   45.0379 H   0  0  0  0  0  0  0  0  0  0  0  0
   57.9123   34.2198   47.3858 H   0  0  0  0  0  0  0  0  0  0  0  0
   58.2730   31.7646   47.8250 H   0  0  0  0  0  0  0  0  0  0  0  0
   57.4652   24.6304   44.3491 H   0  0  0  0  0  0  0  0  0  0  0  0
   57.8041   23.7614   42.8140 H   0  0  0  0  0  0  0  0  0  0  0  0
   56.7242   25.1968   42.8140 H   0  0  0  0  0  0  0  0  0  0  0  0
  1  2  1  0
  2  3  1  0
  3  4  2  0
  4  5  1  0
  5  6  2  0
  6  7  1  0
  7  8  1  0
  8  9  2  3
  9 10  1  0
 10 11  1  0
 11 12  2  0
 11 13  1  0
 13 14  2  3
 14 15  1  0
 15 16  2  0
 16 17  1  0
 17 18  1  0
 18 19  2  0
 19 20  1  0
 20 21  2  0
 21 22  1  0
 22 23  2  0
 13 24  1  0
 24 25  1  0
 25 26  2  0
  7 27  2  0
 27 28  1  0
 28 29  1  0
 29 30  1  0
 29 31  2  0
 27  3  1  0
 25  9  1  0
 23 15  1  0
 23 18  1  0
  1 32  1  0
  1 33  1  0
  1 34  1  0
  4 35  1  0
  5 36  1  0
  6 37  1  0
  8 38  1  0
 14 39  1  0
 16 40  1  0
 17 41  1  0
 19 42  1  0
 20 43  1  0
 21 44  1  0
 22 45  1  0
 30 46  1  0
 30 47  1  0
 30 48  1  0
M  CHG  2  10  -1  24  -1
M  END
>  <UniqueID>  (26) 
25

>  <SMILES>  (26) 
COc1cccc(C=c2[n-]c(=O)c(=Cc3c[nH]c4ccccc34)[n-]c2=O)c1OC(C)=O

>  <Energy>  (26) 
110.86466254939047

>  <Genealogy>  (26) 
COc1cccc(C=c2[n-]c(=O)c(=Cc3c[nH]c4ccccc34)[n-]c2=O)c1OC(C)=O (protonated)
COc1cccc(C=c2[n-]c(=O)c(=Cc3c[nH]c4ccccc34)[n-]c2=O)c1OC(C)=O (3D coordinates assigned)
COc1cccc(C=c2[n-]c(=O)c(=Cc3c[nH]c4ccccc34)[n-]c2=O)c1OC(C)=O (optimized conformer: 110.86466254939047 kcal/mol)

>  <smiles>  (26) 
COc1cccc(C=c2[nH]c(=O)c(=Cc3c[nH]c4ccccc34)[nH]c2=O)c1OC(C)=O

>  <score_type>  (26) 
oracle

>  <origin>  (26) 
adg

>  <m_score__min__energy>  (26) 
-12.42

>  <m_primary>  (26) 
energy

$$$$
26:0
     RDKit          3D

 34 36  0  0  0  0  0  0  0  0999 V2000
   56.9640   31.5240   43.7170 O   0  0  0  0  0  0  0  0  0  0  0  0
   57.2940   31.2120   44.8940 C   0  0  0  0  0  0  0  0  0  0  0  0
   56.6730   30.0860   45.5230 N   0  0  0  0  0  0  0  0  0  0  0  0
   56.3200   28.8700   44.8040 C   0  0  0  0  0  0  0  0  0  0  0  0
   56.9740   27.6910   45.4670 C   0  0  0  0  0  0  0  0  0  0  0  0
   58.3760   27.5840   45.4830 C   0  0  0  0  0  0  0  0  0  0  0  0
   58.9930   26.4750   46.0690 C   0  0  0  0  0  0  0  0  0  0  0  0
   58.2180   25.4590   46.6330 C   0  0  0  0  0  0  0  0  0  0  0  0
   56.8250   25.5470   46.6090 C   0  0  0  0  0  0  0  0  0  0  0  0
   56.2000   26.6540   46.0240 C   0  0  0  0  0  0  0  0  0  0  0  0
   54.8090   26.7160   45.9950 O   0  0  0  0  0  0  0  0  0  0  0  0
   58.3170   32.0040   45.6270 C   0  0  0  0  0  0  0  0  0  0  0  0
   59.5180   31.3960   46.0300 C   0  0  0  0  0  0  0  0  0  0  0  0
   60.4820   32.1370   46.7190 C   0  0  0  0  0  0  0  0  0  0  0  0
   61.6910   31.5610   47.1350 C   0  0  0  0  0  0  0  0  0  0  0  0
   62.6360   32.3360   47.8240 C   0  0  0  0  0  0  0  0  0  0  0  0
   63.8410   31.7780   48.2450 O   0  0  0  0  0  0  0  0  0  0  0  0
   62.3680   33.6840   48.0940 C   0  0  0  0  0  0  0  0  0  0  0  0
   61.1640   34.2610   47.6800 C   0  0  0  0  0  0  0  0  0  0  0  0
   60.2180   33.4930   46.9930 C   0  0  0  0  0  0  0  0  0  0  0  0
   59.0740   34.0440   46.6010 O   0  0  0  0  0  0  0  0  0  0  0  0
   58.1340   33.3710   45.9440 C   0  0  0  0  0  0  0  0  0  0  0  0
   57.0800   33.9750   45.6120 O   0  0  0  0  0  0  0  0  0  0  0  0
   55.2278   28.7395   44.8175 H   0  0  0  0  0  0  0  0  0  0  0  0
   56.6664   28.9450   43.7627 H   0  0  0  0  0  0  0  0  0  0  0  0
   58.9904   28.3772   45.0320 H   0  0  0  0  0  0  0  0  0  0  0  0
   60.0905   26.4023   46.0860 H   0  0  0  0  0  0  0  0  0  0  0  0
   58.7057   24.5888   47.0965 H   0  0  0  0  0  0  0  0  0  0  0  0
   56.2170   24.7440   47.0511 H   0  0  0  0  0  0  0  0  0  0  0  0
   59.6997   30.3352   45.8028 H   0  0  0  0  0  0  0  0  0  0  0  0
   61.8983   30.5021   46.9212 H   0  0  0  0  0  0  0  0  0  0  0  0
   64.6840   31.8590   47.6890 H   0  0  0  0  0  0  0  0  0  0  0  0
   63.1087   34.2916   48.6345 H   0  0  0  0  0  0  0  0  0  0  0  0
   60.9602   35.3204   47.8947 H   0  0  0  0  0  0  0  0  0  0  0  0
  1  2  2  0
  2  3  1  0
  3  4  1  0
  4  5  1  0
  5  6  2  0
  6  7  1  0
  7  8  2  0
  8  9  1  0
  9 10  2  0
 10 11  1  0
  2 12  1  0
 12 13  2  0
 13 14  1  0
 14 15  2  0
 15 16  1  0
 16 17  1  0
 16 18  2  0
 18 19  1  0
 19 20  2  0
 20 21  1  0
 21 22  1  0
 22 23  2  0
 10  5  1  0
 22 12  1  0
 20 14  1  0
  4 24  1  0
  4 25  1  0
  6 26  1  0
  7 27  1  0
  8 28  1  0
  9 29  1  0
 13 30  1  0
 15 31  1  0
 17 32  1  0
 18 33  1  0
 19 34  1  0
M  CHG  2   3  -1  11  -1
M  END
>  <UniqueID>  (27) 
26

>  <SMILES>  (27) 
O=C([N-]Cc1ccccc1[O-])c1cc2cc(O)ccc2oc1=O

>  <Energy>  (27) 
40.96639856309885

>  <Genealogy>  (27) 
O=C([N-]Cc1ccccc1[O-])c1cc2cc(O)ccc2oc1=O (protonated)
O=C([N-]Cc1ccccc1[O-])c1cc2cc(O)ccc2oc1=O (3D coordinates assigned)
O=C([N-]Cc1ccccc1[O-])c1cc2cc(O)ccc2oc1=O (optimized conformer: 40.96639856309885 kcal/mol)

>  <smiles>  (27) 
O=C(NCc1ccccc1O)c1cc2cc(O)ccc2oc1=O

>  <score_type>  (27) 
oracle

>  <origin>  (27) 
adg

>  <m_score__min__energy>  (27) 
-12.9

>  <m_primary>  (27) 
energy

$$$$
27:0
     RDKit          3D

 35 37  0  0  0  0  0  0  0  0999 V2000
   58.5288   26.0187   44.2802 H   0  0  0  0  0  0  0  0  0  0  0  0
   58.1210   26.8100   43.6340 C   0  0  0  0  0  0  0  0  0  0  0  0
   57.9983   26.6308   42.5557 H   0  0  0  0  0  0  0  0  0  0  0  0
   57.7720   27.9980   44.1630 C   0  0  0  0  0  0  0  0  0  0  0  0
   58.0190   28.3390   45.5360 C   0  0  0  0  0  0  0  0  0  0  0  0
   58.1680   27.4040   46.5200 C   0  0  0  0  0  0  0  0  0  0  0  0
   58.9370   27.5989   47.2820 H   0  0  0  0  0  0  0  0  0  0  0  0
   57.3920   26.1560   46.6550 C   0  0  0  0  0  0  0  0  0  0  0  0
   57.9020   25.0200   47.1610 N   0  0  0  0  0  0  0  0  0  0  0  0
   56.8400   24.1850   47.1930 C   0  0  0  0  0  0  0  0  0  0  0  0
   56.9230   22.9980   47.6010 O   0  0  0  0  0  0  0  0  0  0  0  0
   55.6800   24.7270   46.7650 N   0  0  0  0  0  0  0  0  0  0  0  0
   56.0420   25.9790   46.4410 C   0  0  0  0  0  0  0  0  0  0  0  0
   55.1500   26.9460   45.9920 O   0  0  0  0  0  0  0  0  0  0  0  0
   58.0500   29.7310   45.8710 C   0  0  0  0  0  0  0  0  0  0  0  0
   58.5030   30.2230   47.2460 C   0  0  0  0  0  0  0  0  0  0  0  0
   57.6693   30.7739   47.7058 H   0  0  0  0  0  0  0  0  0  0  0  0
   58.7950   29.3298   47.8178 H   0  0  0  0  0  0  0  0  0  0  0  0
   59.7100   31.1300   47.2190 C   0  0  0  0  0  0  0  0  0  0  0  0
   59.5820   32.4770   46.8440 C   0  0  0  0  0  0  0  0  0  0  0  0
   58.5923   32.8825   46.5870 H   0  0  0  0  0  0  0  0  0  0  0  0
   60.7080   33.3050   46.7960 C   0  0  0  0  0  0  0  0  0  0  0  0
   60.6017   34.3602   46.5040 H   0  0  0  0  0  0  0  0  0  0  0  0
   61.9700   32.7930   47.1190 C   0  0  0  0  0  0  0  0  0  0  0  0
   63.3810   33.8330   47.0570 Cl  0  0  0  0  0  0  0  0  0  0  0  0
   62.1040   31.4520   47.4880 C   0  0  0  0  0  0  0  0  0  0  0  0
   63.0957   31.0492   47.7414 H   0  0  0  0  0  0  0  0  0  0  0  0
   60.9810   30.6210   47.5360 C   0  0  0  0  0  0  0  0  0  0  0  0
   61.0925   29.5649   47.8229 H   0  0  0  0  0  0  0  0  0  0  0  0
   57.5290   30.6550   44.9460 C   0  0  0  0  0  0  0  0  0  0  0  0
   57.4436   31.7159   45.2240 H   0  0  0  0  0  0  0  0  0  0  0  0
   57.1220   30.2390   43.6860 C   0  0  0  0  0  0  0  0  0  0  0  0
   56.6420   31.0760   42.8740 O   0  0  0  0  0  0  0  0  0  0  0  0
   57.2710   28.9440   43.3140 N   0  0  0  0  0  0  0  0  0  0  0  0
   57.0270   28.6900   42.3280 H   0  0  0  0  0  0  0  0  0  0  0  0
  1  2  1  0
  2  3  1  0
  2  4  2  0
  4  5  1  0
  5  6  2  0
  6  7  1  0
  6  8  1  0
  8  9  1  0
  9 10  1  0
 10 11  2  0
 10 12  1  0
 12 13  1  0
 13 14  1  0
  5 15  1  0
 15 16  1  0
 16 17  1  0
 16 18  1  0
 16 19  1  0
 19 20  2  0
 20 21  1  0
 20 22  1  0
 22 23  1  0
 22 24  2  0
 24 25  1  0
 24 26  1  0
 26 27  1  0
 26 28  2  0
 28 29  1  0
 15 30  2  0
 30 31  1  0
 30 32  1  0
 32 33  2  0
 32 34  1  0
 34 35  1  0
 34  4  1  0
 13  8  2  0
 28 19  1  0
M  CHG  3   9  -1  12  -1  14  -1
M  END
>  <UniqueID>  (28) 
27

>  <SMILES>  (28) 
C=c1[nH]c(=O)cc(Cc2ccc(Cl)cc2)/c1=C/c1[n-]c(=O)[n-]c1[O-]

>  <Energy>  (28) 
96.37366191055143

>  <Genealogy>  (28) 
C=c1[nH]c(=O)cc(Cc2ccc(Cl)cc2)c1=Cc1[n-]c(=O)[n-]c1[O-] (protonated)
C=c1[nH]c(=O)cc(Cc2ccc(Cl)cc2)/c1=C/c1[n-]c(=O)[n-]c1[O-] (cis-trans isomerization)
C=c1[nH]c(=O)cc(Cc2ccc(Cl)cc2)/c1=C/c1[n-]c(=O)[n-]c1[O-] (3D coordinates assigned)
C=c1[nH]c(=O)cc(Cc2ccc(Cl)cc2)/c1=C/c1[n-]c(=O)[n-]c1[O-] (optimized conformer: 96.37366191055143 kcal/mol)

>  <smiles>  (28) 
C=c1[nH]c(=O)cc(Cc2ccc(Cl)cc2)c1=Cc1[nH]c(=O)[nH]c1O

>  <score_type>  (28) 
oracle

>  <origin>  (28) 
adg

>  <m_score__min__energy>  (28) 
-15.890000000000001

>  <m_primary>  (28) 
energy

$$$$
28:0
     RDKit          3D

 66 69  0  0  0  0  0  0  0  0999 V2000
   56.7150   34.5200   44.7830 O   0  0  0  0  0  0  0  0  0  0  0  0
   57.6330   33.8310   45.3010 C   0  0  0  0  0  0  0  0  0  0  0  0
   58.1560   34.2060   46.6650 C   0  0  0  0  0  0  0  0  0  0  0  0
   58.8010   33.0190   47.3960 C   0  0  0  0  0  0  0  0  0  0  0  0
   60.2610   33.2650   47.7170 C   0  0  0  0  0  0  0  0  0  0  0  0
   61.2380   32.7370   46.8520 C   0  0  0  0  0  0  0  0  0  0  0  0
   62.5940   32.9400   47.1010 C   0  0  0  0  0  0  0  0  0  0  0  0
   62.9980   33.6800   48.2100 C   0  0  0  0  0  0  0  0  0  0  0  0
   62.0480   34.1960   49.0920 C   0  0  0  0  0  0  0  0  0  0  0  0
   60.6750   33.9740   48.8770 C   0  0  0  0  0  0  0  0  0  0  0  0
   59.7140   34.4810   49.8200 N   0  0  0  0  0  0  0  0  0  0  0  0
   59.3480   33.6900   51.3230 S   0  0  0  0  0  0  0  0  0  0  0  0
   58.4950   34.6140   52.1450 O   0  0  0  0  0  0  0  0  0  0  0  0
   60.6110   33.4090   52.0860 O   0  0  0  0  0  0  0  0  0  0  0  0
   58.4180   32.1870   51.0520 C   0  0  0  0  0  0  0  0  0  0  0  0
   59.2270   31.1500   50.3230 C   0  0  0  0  0  0  0  0  0  0  0  0
   58.5910   30.2180   49.4870 C   0  0  0  0  0  0  0  0  0  0  0  0
   59.3420   29.2570   48.8020 C   0  0  0  0  0  0  0  0  0  0  0  0
   60.7320   29.2210   48.9470 C   0  0  0  0  0  0  0  0  0  0  0  0
   61.3720   30.1410   49.7800 C   0  0  0  0  0  0  0  0  0  0  0  0
   60.6240   31.1000   50.4680 C   0  0  0  0  0  0  0  0  0  0  0  0
   58.1470   32.7120   44.5630 N   0  0  0  0  0  0  0  0  0  0  0  0
   57.8930   31.3230   44.8160 C   0  0  0  0  0  0  0  0  0  0  0  0
   56.6430   30.7910   44.4730 C   0  0  0  0  0  0  0  0  0  0  0  0
   56.3640   29.4390   44.6910 C   0  0  0  0  0  0  0  0  0  0  0  0
   57.3260   28.6100   45.2840 C   0  0  0  0  0  0  0  0  0  0  0  0
   56.9790   26.9160   45.6160 S   0  0  0  0  0  0  0  0  0  0  0  0
   57.3200   26.0970   44.4020 O   0  0  0  0  0  0  0  0  0  0  0  0
   55.5220   26.7250   45.9410 O   0  0  0  0  0  0  0  0  0  0  0  0
   57.9520   26.3910   46.9550 N   0  0  0  0  0  0  0  0  0  0  0  0
   57.4430   25.1230   47.4770 C   0  0  0  0  0  0  0  0  0  0  0  0
   57.3780   24.1220   46.3610 C   0  0  0  0  0  0  0  0  0  0  0  0
   58.5640   23.6940   45.7350 C   0  0  0  0  0  0  0  0  0  0  0  0
   58.5110   22.7770   44.6800 C   0  0  0  0  0  0  0  0  0  0  0  0
   57.2770   22.2910   44.2370 C   0  0  0  0  0  0  0  0  0  0  0  0
   56.0930   22.7250   44.8440 C   0  0  0  0  0  0  0  0  0  0  0  0
   56.1410   23.6430   45.8980 C   0  0  0  0  0  0  0  0  0  0  0  0
   58.5610   29.1480   45.6710 C   0  0  0  0  0  0  0  0  0  0  0  0
   58.8430   30.4980   45.4450 C   0  0  0  0  0  0  0  0  0  0  0  0
   58.9090   34.9992   46.5479 H   0  0  0  0  0  0  0  0  0  0  0  0
   57.3010   34.5448   47.2685 H   0  0  0  0  0  0  0  0  0  0  0  0
   58.2568   32.8446   48.3359 H   0  0  0  0  0  0  0  0  0  0  0  0
   58.7457   32.1445   46.7311 H   0  0  0  0  0  0  0  0  0  0  0  0
   60.9277   32.1578   45.9698 H   0  0  0  0  0  0  0  0  0  0  0  0
   63.3467   32.5152   46.4206 H   0  0  0  0  0  0  0  0  0  0  0  0
   64.0684   33.8579   48.3907 H   0  0  0  0  0  0  0  0  0  0  0  0
   62.3752   34.7818   49.9636 H   0  0  0  0  0  0  0  0  0  0  0  0
   59.0960   35.2780   49.5570 H   0  0  0  0  0  0  0  0  0  0  0  0
   58.1111   31.7783   52.0261 H   0  0  0  0  0  0  0  0  0  0  0  0
   57.5436   32.4346   50.4322 H   0  0  0  0  0  0  0  0  0  0  0  0
   57.4975   30.2438   49.3703 H   0  0  0  0  0  0  0  0  0  0  0  0
   58.8385   28.5291   48.1488 H   0  0  0  0  0  0  0  0  0  0  0  0
   61.3219   28.4675   48.4046 H   0  0  0  0  0  0  0  0  0  0  0  0
   62.4656   30.1108   49.8947 H   0  0  0  0  0  0  0  0  0  0  0  0
   61.1315   31.8199   51.1269 H   0  0  0  0  0  0  0  0  0  0  0  0
   55.8757   31.4422   44.0289 H   0  0  0  0  0  0  0  0  0  0  0  0
   55.3882   29.0250   44.3968 H   0  0  0  0  0  0  0  0  0  0  0  0
   58.1154   24.7528   48.2649 H   0  0  0  0  0  0  0  0  0  0  0  0
   56.4381   25.2730   47.8986 H   0  0  0  0  0  0  0  0  0  0  0  0
   59.5351   24.0817   46.0764 H   0  0  0  0  0  0  0  0  0  0  0  0
   59.4403   22.4381   44.1988 H   0  0  0  0  0  0  0  0  0  0  0  0
   57.2368   21.5665   43.4102 H   0  0  0  0  0  0  0  0  0  0  0  0
   55.1233   22.3436   44.4916 H   0  0  0  0  0  0  0  0  0  0  0  0
   55.2081   23.9908   46.3656 H   0  0  0  0  0  0  0  0  0  0  0  0
   59.3113   28.5051   46.1545 H   0  0  0  0  0  0  0  0  0  0  0  0
   59.8103   30.9165   45.7598 H   0  0  0  0  0  0  0  0  0  0  0  0
  1  2  2  0
  2  3  1  0
  3  4  1  0
  4  5  1  0
  5  6  2  0
  6  7  1  0
  7  8  2  0
  8  9  1  0
  9 10  2  0
 10 11  1  0
 11 12  1  0
 12 13  2  0
 12 14  2  0
 12 15  1  0
 15 16  1  0
 16 17  2  0
 17 18  1  0
 18 19  2  0
 19 20  1  0
 20 21  2  0
  2 22  1  0
 22 23  1  0
 23 24  2  0
 24 25  1  0
 25 26  2  0
 26 27  1  0
 27 28  2  0
 27 29  2  0
 27 30  1  0
 30 31  1  0
 31 32  1  0
 32 33  2  0
 33 34  1  0
 34 35  2  0
 35 36  1  0
 36 37  2  0
 26 38  1  0
 38 39  2  0
 10  5  1  0
 21 16  1  0
 39 23  1  0
 37 32  1  0
  3 40  1  0
  3 41  1  0
  4 42  1  0
  4 43  1  0
  6 44  1  0
  7 45  1  0
  8 46  1  0
  9 47  1  0
 11 48  1  0
 15 49  1  0
 15 50  1  0
 17 51  1  0
 18 52  1  0
 19 53  1  0
 20 54  1  0
 21 55  1  0
 24 56  1  0
 25 57  1  0
 31 58  1  0
 31 59  1  0
 33 60  1  0
 34 61  1  0
 35 62  1  0
 36 63  1  0
 37 64  1  0
 38 65  1  0
 39 66  1  0
M  CHG  2  22  -1  30  -1
M  END
>  <UniqueID>  (29) 
28

>  <SMILES>  (29) 
O=C(CCc1ccccc1NS(=O)(=O)Cc1ccccc1)[N-]c1ccc(S(=O)(=O)[N-]Cc2ccccc2)cc1

>  <Energy>  (29) 
65.13531483223547

>  <Genealogy>  (29) 
O=C(CCc1ccccc1NS(=O)(=O)Cc1ccccc1)[N-]c1ccc(S(=O)(=O)[N-]Cc2ccccc2)cc1 (protonated)
O=C(CCc1ccccc1NS(=O)(=O)Cc1ccccc1)[N-]c1ccc(S(=O)(=O)[N-]Cc2ccccc2)cc1 (3D coordinates assigned)
O=C(CCc1ccccc1NS(=O)(=O)Cc1ccccc1)[N-]c1ccc(S(=O)(=O)[N-]Cc2ccccc2)cc1 (optimized conformer: 65.13531483223547 kcal/mol)

>  <smiles>  (29) 
O=C(CCc1ccccc1NS(=O)(=O)Cc1ccccc1)Nc1ccc(S(=O)(=O)NCc2ccccc2)cc1

>  <score_type>  (29) 
oracle

>  <origin>  (29) 
adg

>  <m_score__min__energy>  (29) 
-12.92

>  <m_primary>  (29) 
energy

$$$$
29:0
     RDKit          3D

 53 57  0  0  0  0  0  0  0  0999 V2000
   54.3630   26.0830   45.9250 N   0  0  0  0  0  0  0  0  0  0  0  0
   55.8440   25.1950   45.9820 S   0  0  0  0  0  0  0  0  0  0  0  0
   55.9110   24.2570   44.8090 O   0  0  0  0  0  0  0  0  0  0  0  0
   55.9020   24.3880   47.2490 O   0  0  0  0  0  0  0  0  0  0  0  0
   57.2000   26.3160   45.9280 C   0  0  0  0  0  0  0  0  0  0  0  0
   57.7990   26.6370   44.7040 C   0  0  0  0  0  0  0  0  0  0  0  0
   58.8640   27.5400   44.6600 C   0  0  0  0  0  0  0  0  0  0  0  0
   59.3310   28.1590   45.8330 C   0  0  0  0  0  0  0  0  0  0  0  0
   60.4790   29.1400   45.7570 C   0  0  0  0  0  0  0  0  0  0  0  0
   60.0450   30.5270   46.1470 C   0  0  0  0  0  0  0  0  0  0  0  0
   60.7120   31.2860   46.9790 O   0  0  0  0  0  0  0  0  0  0  0  0
   60.0440   32.4090   47.1000 C   0  0  0  0  0  0  0  0  0  0  0  0
   60.5290   33.5690   47.9050 C   0  0  0  0  0  0  0  0  0  0  0  0
   62.0220   33.5080   48.0070 C   0  0  0  0  0  0  0  0  0  0  0  0
   62.9190   33.3590   46.9540 C   0  0  0  0  0  0  0  0  0  0  0  0
   64.1780   33.2000   47.4240 N   0  0  0  0  0  0  0  0  0  0  0  0
   64.0810   33.2320   48.7650 C   0  0  0  0  0  0  0  0  0  0  0  0
   65.1090   33.0600   49.6910 C   0  0  0  0  0  0  0  0  0  0  0  0
   64.7740   33.0830   51.0580 C   0  0  0  0  0  0  0  0  0  0  0  0
   63.4340   33.2720   51.4630 C   0  0  0  0  0  0  0  0  0  0  0  0
   62.4180   33.4420   50.5060 C   0  0  0  0  0  0  0  0  0  0  0  0
   62.7810   33.4160   49.1580 C   0  0  0  0  0  0  0  0  0  0  0  0
   58.9140   32.4320   46.3610 N   0  0  0  0  0  0  0  0  0  0  0  0
   58.9210   31.2340   45.7460 C   0  0  0  0  0  0  0  0  0  0  0  0
   57.8670   30.8040   44.8100 C   0  0  0  0  0  0  0  0  0  0  0  0
   56.8750   29.8960   45.2120 C   0  0  0  0  0  0  0  0  0  0  0  0
   55.8890   29.4840   44.3110 C   0  0  0  0  0  0  0  0  0  0  0  0
   55.8970   29.9640   42.9980 C   0  0  0  0  0  0  0  0  0  0  0  0
   56.8960   30.8480   42.5830 C   0  0  0  0  0  0  0  0  0  0  0  0
   57.8830   31.2620   43.4830 C   0  0  0  0  0  0  0  0  0  0  0  0
   58.7440   27.8070   47.0670 C   0  0  0  0  0  0  0  0  0  0  0  0
   59.2140   28.3440   48.2610 O   0  0  0  0  0  0  0  0  0  0  0  0
   57.6770   26.9010   47.1060 C   0  0  0  0  0  0  0  0  0  0  0  0
   54.3550   26.7200   46.7530 H   0  0  0  0  0  0  0  0  0  0  0  0
   54.4050   26.6920   45.0770 H   0  0  0  0  0  0  0  0  0  0  0  0
   57.4303   26.1773   43.7751 H   0  0  0  0  0  0  0  0  0  0  0  0
   59.3428   27.7694   43.6966 H   0  0  0  0  0  0  0  0  0  0  0  0
   61.2769   28.8101   46.4385 H   0  0  0  0  0  0  0  0  0  0  0  0
   60.8394   29.1701   44.7182 H   0  0  0  0  0  0  0  0  0  0  0  0
   60.2318   34.5074   47.4140 H   0  0  0  0  0  0  0  0  0  0  0  0
   60.0880   33.5302   48.9120 H   0  0  0  0  0  0  0  0  0  0  0  0
   62.6435   33.3690   45.8891 H   0  0  0  0  0  0  0  0  0  0  0  0
   65.0430   33.0520   46.8580 H   0  0  0  0  0  0  0  0  0  0  0  0
   66.1486   32.9111   49.3638 H   0  0  0  0  0  0  0  0  0  0  0  0
   65.5607   32.9530   51.8157 H   0  0  0  0  0  0  0  0  0  0  0  0
   63.1837   33.2863   52.5341 H   0  0  0  0  0  0  0  0  0  0  0  0
   61.3712   33.5907   50.8094 H   0  0  0  0  0  0  0  0  0  0  0  0
   56.8735   29.5068   46.2409 H   0  0  0  0  0  0  0  0  0  0  0  0
   55.1066   28.7820   44.6351 H   0  0  0  0  0  0  0  0  0  0  0  0
   55.1164   29.6455   42.2914 H   0  0  0  0  0  0  0  0  0  0  0  0
   56.9062   31.2187   41.5474 H   0  0  0  0  0  0  0  0  0  0  0  0
   58.6749   31.9491   43.1500 H   0  0  0  0  0  0  0  0  0  0  0  0
   57.2106   26.6475   48.0695 H   0  0  0  0  0  0  0  0  0  0  0  0
  1  2  1  0
  2  3  2  0
  2  4  2  0
  2  5  1  0
  5  6  2  0
  6  7  1  0
  7  8  2  0
  8  9  1  0
  9 10  1  0
 10 11  1  0
 11 12  1  0
 12 13  1  0
 13 14  1  0
 14 15  2  0
 15 16  1  0
 16 17  1  0
 17 18  2  0
 18 19  1  0
 19 20  2  0
 20 21  1  0
 21 22  2  0
 12 23  2  0
 23 24  1  0
 24 25  1  0
 25 26  2  0
 26 27  1  0
 27 28  2  0
 28 29  1  0
 29 30  2  0
  8 31  1  0
 31 32  1  0
 31 33  2  0
 33  5  1  0
 24 10  2  0
 30 25  1  0
 22 14  1  0
 22 17  1  0
  1 34  1  0
  1 35  1  0
  6 36  1  0
  7 37  1  0
  9 38  1  0
  9 39  1  0
 13 40  1  0
 13 41  1  0
 15 42  1  0
 16 43  1  0
 18 44  1  0
 19 45  1  0
 20 46  1  0
 21 47  1  0
 26 48  1  0
 27 49  1  0
 28 50  1  0
 29 51  1  0
 30 52  1  0
 33 53  1  0
M  CHG  1  32  -1
M  END
>  <UniqueID>  (30) 
29

>  <SMILES>  (30) 
NS(=O)(=O)c1ccc(Cc2oc(Cc3c[nH]c4ccccc34)nc2-c2ccccc2)c([O-])c1

>  <Energy>  (30) 
121.18335517713523

>  <Genealogy>  (30) 
NS(=O)(=O)c1ccc(Cc2oc(Cc3c[nH]c4ccccc34)nc2-c2ccccc2)c([O-])c1 (protonated)
NS(=O)(=O)c1ccc(Cc2oc(Cc3c[nH]c4ccccc34)nc2-c2ccccc2)c([O-])c1 (3D coordinates assigned)
NS(=O)(=O)c1ccc(Cc2oc(Cc3c[nH]c4ccccc34)nc2-c2ccccc2)c([O-])c1 (optimized conformer: 121.18335517713523 kcal/mol)

>  <smiles>  (30) 
NS(=O)(=O)c1ccc(Cc2oc(Cc3c[nH]c4ccccc34)nc2-c2ccccc2)c(O)c1

>  <score_type>  (30) 
oracle

>  <origin>  (30) 
adg

>  <m_score__min__energy>  (30) 
-13.56

>  <m_primary>  (30) 
energy

$$$$
30:0
     RDKit          3D

 57 59  0  0  0  0  0  0  0  0999 V2000
   62.7520   33.5530   52.1480 C   0  0  0  0  0  0  0  0  0  0  0  0
   62.4560   33.8460   50.7090 C   0  0  0  0  0  0  0  0  0  0  0  0
   61.2850   34.1660   50.3770 O   0  0  0  0  0  0  0  0  0  0  0  0
   63.4710   33.8000   49.7000 N   0  0  0  0  0  0  0  0  0  0  0  0
   63.2790   33.0560   48.1450 S   0  0  0  0  0  0  0  0  0  0  0  0
   64.1960   33.7190   47.1580 O   0  0  0  0  0  0  0  0  0  0  0  0
   63.6530   31.6040   48.2460 O   0  0  0  0  0  0  0  0  0  0  0  0
   61.6010   33.1740   47.6260 C   0  0  0  0  0  0  0  0  0  0  0  0
   60.6270   32.3070   48.1410 C   0  0  0  0  0  0  0  0  0  0  0  0
   59.3090   32.3780   47.6810 C   0  0  0  0  0  0  0  0  0  0  0  0
   58.9470   33.3250   46.7090 C   0  0  0  0  0  0  0  0  0  0  0  0
   57.5420   33.3530   46.1610 C   0  0  0  0  0  0  0  0  0  0  0  0
   57.4480   32.6170   44.8460 C   0  0  0  0  0  0  0  0  0  0  0  0
   58.0870   33.0440   43.8470 O   0  0  0  0  0  0  0  0  0  0  0  0
   56.7800   31.3520   44.7390 N   0  0  0  0  0  0  0  0  0  0  0  0
   57.2970   30.0910   45.1790 C   0  0  0  0  0  0  0  0  0  0  0  0
   58.6580   29.9870   45.4830 C   0  0  0  0  0  0  0  0  0  0  0  0
   59.2010   28.7650   45.8850 C   0  0  0  0  0  0  0  0  0  0  0  0
   58.3920   27.6190   45.9570 C   0  0  0  0  0  0  0  0  0  0  0  0
   58.9150   26.3570   46.3950 N   0  0  0  0  0  0  0  0  0  0  0  0
   58.3680   25.0640   46.1000 C   0  0  0  0  0  0  0  0  0  0  0  0
   59.0900   24.0490   46.2830 O   0  0  0  0  0  0  0  0  0  0  0  0
   56.9530   24.8970   45.7020 C   0  0  0  0  0  0  0  0  0  0  0  0
   56.0500   25.2140   46.5190 O   0  0  0  0  0  0  0  0  0  0  0  0
   56.5640   24.3590   44.4310 N   0  0  0  0  0  0  0  0  0  0  0  0
   55.6250   22.9230   44.1800 S   0  0  0  0  0  0  0  0  0  0  0  0
   55.8920   22.3990   42.7960 O   0  0  0  0  0  0  0  0  0  0  0  0
   54.1630   23.2550   44.2980 O   0  0  0  0  0  0  0  0  0  0  0  0
   56.0900   21.6760   45.3390 C   0  0  0  0  0  0  0  0  0  0  0  0
   56.5190   22.0310   46.6280 C   0  0  0  0  0  0  0  0  0  0  0  0
   56.9010   21.0420   47.5460 C   0  0  0  0  0  0  0  0  0  0  0  0
   57.3210   21.3870   48.8290 O   0  0  0  0  0  0  0  0  0  0  0  0
   56.8580   19.6960   47.1740 C   0  0  0  0  0  0  0  0  0  0  0  0
   56.4230   19.3360   45.8940 C   0  0  0  0  0  0  0  0  0  0  0  0
   56.0300   20.3180   44.9810 C   0  0  0  0  0  0  0  0  0  0  0  0
   55.5870   19.9380   43.7170 O   0  0  0  0  0  0  0  0  0  0  0  0
   57.0310   27.7210   45.6450 C   0  0  0  0  0  0  0  0  0  0  0  0
   56.4860   28.9430   45.2330 C   0  0  0  0  0  0  0  0  0  0  0  0
   55.1490   29.0010   44.8570 O   0  0  0  0  0  0  0  0  0  0  0  0
   59.9240   34.1940   46.1980 C   0  0  0  0  0  0  0  0  0  0  0  0
   61.2430   34.1190   46.6550 C   0  0  0  0  0  0  0  0  0  0  0  0
   62.1164   34.1821   52.7885 H   0  0  0  0  0  0  0  0  0  0  0  0
   62.5466   32.4926   52.3560 H   0  0  0  0  0  0  0  0  0  0  0  0
   63.8103   33.7692   52.3560 H   0  0  0  0  0  0  0  0  0  0  0  0
   60.9008   31.5688   48.9092 H   0  0  0  0  0  0  0  0  0  0  0  0
   58.5515   31.6887   48.0823 H   0  0  0  0  0  0  0  0  0  0  0  0
   56.8655   32.8773   46.8864 H   0  0  0  0  0  0  0  0  0  0  0  0
   57.2578   34.4020   45.9913 H   0  0  0  0  0  0  0  0  0  0  0  0
   59.3048   30.8733   45.4050 H   0  0  0  0  0  0  0  0  0  0  0  0
   60.2674   28.6995   46.1466 H   0  0  0  0  0  0  0  0  0  0  0  0
   56.5557   23.0910   46.9195 H   0  0  0  0  0  0  0  0  0  0  0  0
   56.8590   21.0230   49.6540 H   0  0  0  0  0  0  0  0  0  0  0  0
   57.1665   18.9185   47.8883 H   0  0  0  0  0  0  0  0  0  0  0  0
   56.3902   18.2751   45.6051 H   0  0  0  0  0  0  0  0  0  0  0  0
   56.3849   26.8342   45.7242 H   0  0  0  0  0  0  0  0  0  0  0  0
   59.6504   34.9372   45.4346 H   0  0  0  0  0  0  0  0  0  0  0  0
   62.0027   34.8043   46.2510 H   0  0  0  0  0  0  0  0  0  0  0  0
  1  2  1  0
  2  3  2  0
  2  4  1  0
  4  5  1  0
  5  6  2  0
  5  7  2  0
  5  8  1  0
  8  9  2  0
  9 10  1  0
 10 11  2  0
 11 12  1  0
 12 13  1  0
 13 14  2  0
 13 15  1  0
 15 16  1  0
 16 17  2  0
 17 18  1  0
 18 19  2  0
 19 20  1  0
 20 21  1  0
 21 22  2  0
 21 23  1  0
 23 24  2  0
 23 25  1  0
 25 26  1  0
 26 27  2  0
 26 28  2  0
 26 29  1  0
 29 30  2  0
 30 31  1  0
 31 32  1  0
 31 33  2  0
 33 34  1  0
 34 35  2  0
 35 36  1  0
 19 37  1  0
 37 38  2  0
 38 39  1  0
 11 40  1  0
 40 41  2  0
 41  8  1  0
 38 16  1  0
 35 29  1  0
  1 42  1  0
  1 43  1  0
  1 44  1  0
  9 45  1  0
 10 46  1  0
 12 47  1  0
 12 48  1  0
 17 49  1  0
 18 50  1  0
 30 51  1  0
 32 52  1  0
 33 53  1  0
 34 54  1  0
 37 55  1  0
 40 56  1  0
 41 57  1  0
M  CHG  6   4  -1  15  -1  20  -1  25  -1  36  -1  39  -1
M  END
>  <UniqueID>  (31) 
30

>  <SMILES>  (31) 
CC(=O)[N-]S(=O)(=O)c1ccc(CC(=O)[N-]c2ccc([N-]C(=O)C(=O)[N-]S(=O)(=O)c3cc(O)ccc3[O-])cc2[O-])cc1

>  <Energy>  (31) 
75.66000531377779

>  <Genealogy>  (31) 
CC(=O)[N-]S(=O)(=O)c1ccc(CC(=O)[N-]c2ccc([N-]C(=O)C(=O)[N-]S(=O)(=O)c3cc(O)ccc3[O-])cc2[O-])cc1 (protonated)
CC(=O)[N-]S(=O)(=O)c1ccc(CC(=O)[N-]c2ccc([N-]C(=O)C(=O)[N-]S(=O)(=O)c3cc(O)ccc3[O-])cc2[O-])cc1 (3D coordinates assigned)
CC(=O)[N-]S(=O)(=O)c1ccc(CC(=O)[N-]c2ccc([N-]C(=O)C(=O)[N-]S(=O)(=O)c3cc(O)ccc3[O-])cc2[O-])cc1 (optimized conformer: 75.66000531377779 kcal/mol)

>  <smiles>  (31) 
CC(=O)NS(=O)(=O)c1ccc(CC(=O)Nc2ccc(NC(=O)C(=O)NS(=O)(=O)c3cc(O)ccc3O)cc2O)cc1

>  <score_type>  (31) 
oracle

>  <origin>  (31) 
adg

>  <m_score__min__energy>  (31) 
-21.260000000000002

>  <m_primary>  (31) 
energy

$$$$
31:0
     RDKit          3D

 61 64  0  0  1  0  0  0  0  0999 V2000
   57.6070   32.2600   41.4880 C   0  0  0  0  0  0  0  0  0  0  0  0
   57.7670   31.9480   42.9400 C   0  0  0  0  0  0  0  0  0  0  0  0
   57.7830   32.9700   43.8700 C   0  0  0  0  0  0  0  0  0  0  0  0
   57.9350   32.6000   45.1900 C   0  0  0  0  0  0  0  0  0  0  0  0
   57.9560   33.5080   46.0980 N   0  0  0  0  0  0  0  0  0  0  0  0
   58.8970   34.6210   46.0740 C   0  0  0  0  0  0  0  0  0  0  0  0
   59.9910   34.2790   47.0210 C   0  0  0  0  0  0  0  0  0  0  0  0
   59.8510   34.3570   48.3890 C   0  0  0  0  0  0  0  0  0  0  0  0
   60.9050   34.0250   49.2270 C   0  0  0  0  0  0  0  0  0  0  0  0
   62.1130   33.6080   48.7160 C   0  0  0  0  0  0  0  0  0  0  0  0
   63.2570   33.2450   49.5430 C   0  0  0  0  0  0  0  0  0  0  0  0
   63.2520   33.4330   50.8030 O   0  0  0  0  0  0  0  0  0  0  0  0
   64.4380   32.6670   49.0090 N   0  0  0  0  0  0  0  0  0  0  0  0
   65.4840   32.3620   49.9400 C   0  0  0  0  0  0  0  0  0  0  0  0
   66.6810   33.0470   49.9120 C   0  0  0  0  0  0  0  0  0  0  0  0
   67.6410   32.7140   50.8230 C   0  0  0  0  0  0  0  0  0  0  0  0
   67.4170   31.7070   51.7560 C   0  0  0  0  0  0  0  0  0  0  0  0
   66.2090   31.0140   51.7840 C   0  0  0  0  0  0  0  0  0  0  0  0
   65.2430   31.3600   50.8570 C   0  0  0  0  0  0  0  0  0  0  0  0
   63.9720   30.6790   50.8370 N   0  0  0  0  0  0  0  0  0  0  0  0
   62.2470   33.5310   47.3460 C   0  0  0  0  0  0  0  0  0  0  0  0
   61.2050   33.8590   46.4930 C   0  0  0  0  0  0  0  0  0  0  0  0
   58.0660   31.3230   45.5920 N   0  0  0  0  0  0  0  0  0  0  0  0
   58.0480   30.3480   44.6650 C   0  0  0  0  0  0  0  0  0  0  0  0
   58.1850   28.9700   45.0380 N   0  0  0  0  0  0  0  0  0  0  0  0
   57.0170   28.2390   45.4910 C   0  0  0  0  0  0  0  0  0  0  0  0
   57.3770   26.9620   46.1770 C   0  0  0  0  0  0  0  0  0  0  0  0
   58.6660   27.0400   46.7950 N   0  0  0  0  0  0  0  0  0  0  0  0
   58.8130   28.0560   47.7900 C   0  0  0  0  0  0  0  0  0  0  0  0
   59.6450   27.1050   45.7340 C   0  0  0  0  0  0  0  0  0  0  0  0
   59.5000   28.3610   44.9450 C   0  0  0  0  0  0  0  0  0  0  0  0
   57.9000   30.6840   43.3660 N   0  0  0  0  0  0  0  0  0  0  0  0
   57.1077   33.2336   41.3750 H   0  0  0  0  0  0  0  0  0  0  0  0
   58.5969   32.2979   41.0099 H   0  0  0  0  0  0  0  0  0  0  0  0
   56.9985   31.4782   41.0099 H   0  0  0  0  0  0  0  0  0  0  0  0
   57.6799   34.0241   43.5729 H   0  0  0  0  0  0  0  0  0  0  0  0
   59.3016   34.7530   45.0597 H   0  0  0  0  0  0  0  0  0  0  0  0
   58.4041   35.5609   46.3631 H   0  0  0  0  0  0  0  0  0  0  0  0
   58.8942   34.6857   48.8209 H   0  0  0  0  0  0  0  0  0  0  0  0
   60.7735   34.0960   50.3168 H   0  0  0  0  0  0  0  0  0  0  0  0
   64.5240   32.4800   47.9860 H   0  0  0  0  0  0  0  0  0  0  0  0
   66.8575   33.8425   49.1731 H   0  0  0  0  0  0  0  0  0  0  0  0
   68.6027   33.2479   50.8194 H   0  0  0  0  0  0  0  0  0  0  0  0
   68.2044   31.4545   52.4815 H   0  0  0  0  0  0  0  0  0  0  0  0
   66.0292   30.2167   52.5202 H   0  0  0  0  0  0  0  0  0  0  0  0
   63.9280   29.6210   50.7800 H   0  0  0  0  0  0  0  0  0  0  0  0
   63.0900   31.2530   50.8810 H   0  0  0  0  0  0  0  0  0  0  0  0
   63.2054   33.2008   46.9190 H   0  0  0  0  0  0  0  0  0  0  0  0
   61.3388   33.7871   45.4035 H   0  0  0  0  0  0  0  0  0  0  0  0
   56.4547   28.8715   46.1937 H   0  0  0  0  0  0  0  0  0  0  0  0
   56.4144   27.9867   44.6060 H   0  0  0  0  0  0  0  0  0  0  0  0
   56.6236   26.7470   46.9491 H   0  0  0  0  0  0  0  0  0  0  0  0
   57.4057   26.1625   45.4220 H   0  0  0  0  0  0  0  0  0  0  0  0
   58.7473   27.6022   48.7899 H   0  0  0  0  0  0  0  0  0  0  0  0
   59.7913   28.5451   47.6728 H   0  0  0  0  0  0  0  0  0  0  0  0
   58.0135   28.8024   47.6728 H   0  0  0  0  0  0  0  0  0  0  0  0
   60.6530   27.0711   46.1730 H   0  0  0  0  0  0  0  0  0  0  0  0
   59.4870   26.2497   45.0606 H   0  0  0  0  0  0  0  0  0  0  0  0
   60.2431   29.0857   45.3092 H   0  0  0  0  0  0  0  0  0  0  0  0
   59.6516   28.0922   43.8892 H   0  0  0  0  0  0  0  0  0  0  0  0
   57.8800   29.9460   42.6000 H   0  0  0  0  0  0  0  0  0  0  0  0
  1  2  1  0
  2  3  2  0
  3  4  1  0
  4  5  2  0
  5  6  1  0
  6  7  1  0
  7  8  2  0
  8  9  1  0
  9 10  2  0
 10 11  1  0
 11 12  2  0
 11 13  1  0
 13 14  1  0
 14 15  2  0
 15 16  1  0
 16 17  2  0
 17 18  1  0
 18 19  2  0
 19 20  1  0
 10 21  1  0
 21 22  2  0
  4 23  1  0
 23 24  2  0
 24 25  1  0
 25 26  1  0
 26 27  1  0
 27 28  1  0
 28 29  1  0
 28 30  1  0
 30 31  1  0
 24 32  1  0
 32  2  1  0
 22  7  1  0
 31 25  1  0
 19 14  1  0
  1 33  1  0
  1 34  1  0
  1 35  1  0
  3 36  1  0
  6 37  1  0
  6 38  1  0
  8 39  1  0
  9 40  1  0
 13 41  1  0
 15 42  1  0
 16 43  1  0
 17 44  1  0
 18 45  1  0
 20 46  1  0
 20 47  1  0
 21 48  1  0
 22 49  1  0
 26 50  1  0
 26 51  1  0
 27 52  1  0
 27 53  1  0
 29 54  1  0
 29 55  1  0
 29 56  1  0
 30 57  1  0
 30 58  1  0
 31 59  1  0
 31 60  1  0
 32 61  1  0
M  END
>  <smiles>  (32) 
Cc1cc(=NCc2ccc(C(=O)Nc3ccccc3N)cc2)nc(N2CCN(C)CC2)[nH]1

>  <score_type>  (32) 
oracle

>  <origin>  (32) 
adg

>  <m_score__min__energy>  (32) 
-9.3499999999999996

>  <m_primary>  (32) 
energy

$$$$
32:0
     RDKit          3D

 50 53  0  0  0  0  0  0  0  0999 V2000
   59.2130   34.1470   51.4640 C   0  0  0  0  0  0  0  0  0  0  0  0
   59.1500   33.1200   50.4160 N   0  0  0  0  0  0  0  0  0  0  0  0
   59.4740   33.4130   49.1080 C   0  0  0  0  0  0  0  0  0  0  0  0
   59.8660   34.5780   48.8140 O   0  0  0  0  0  0  0  0  0  0  0  0
   59.3720   32.4480   48.1160 N   0  0  0  0  0  0  0  0  0  0  0  0
   59.7080   32.7970   46.7180 C   0  0  0  0  0  0  0  0  0  0  0  0
   58.4660   33.1270   45.9260 C   0  0  0  0  0  0  0  0  0  0  0  0
   57.8250   34.1710   46.2240 O   0  0  0  0  0  0  0  0  0  0  0  0
   57.9610   32.2500   44.8410 C   0  0  0  0  0  0  0  0  0  0  0  0
   57.4910   30.9590   45.1480 C   0  0  0  0  0  0  0  0  0  0  0  0
   57.0290   30.1130   44.1350 C   0  0  0  0  0  0  0  0  0  0  0  0
   57.0240   30.5460   42.8070 C   0  0  0  0  0  0  0  0  0  0  0  0
   57.4740   31.8300   42.4900 C   0  0  0  0  0  0  0  0  0  0  0  0
   57.4470   32.3840   40.8270 Cl  0  0  0  0  0  0  0  0  0  0  0  0
   57.9360   32.6810   43.5010 C   0  0  0  0  0  0  0  0  0  0  0  0
   58.9750   31.1680   48.4430 C   0  0  0  0  0  0  0  0  0  0  0  0
   58.9230   30.2490   47.5810 O   0  0  0  0  0  0  0  0  0  0  0  0
   58.6330   30.9000   49.7570 C   0  0  0  0  0  0  0  0  0  0  0  0
   58.1980   29.7500   50.2920 N   0  0  0  0  0  0  0  0  0  0  0  0
   58.0260   30.0930   51.5950 C   0  0  0  0  0  0  0  0  0  0  0  0
   57.6080   29.2410   52.4810 N   0  0  0  0  0  0  0  0  0  0  0  0
   56.7590   29.5840   53.6210 C   0  0  0  0  0  0  0  0  0  0  0  0
   55.4050   30.0470   53.1520 C   0  0  0  0  0  0  0  0  0  0  0  0
   54.3270   30.1320   54.0490 C   0  0  0  0  0  0  0  0  0  0  0  0
   53.0660   30.5340   53.5980 C   0  0  0  0  0  0  0  0  0  0  0  0
   52.8670   30.8520   52.2480 C   0  0  0  0  0  0  0  0  0  0  0  0
   51.2870   31.3640   51.6660 S   0  0  0  0  0  0  0  0  0  0  0  0
   51.2010   33.0900   51.6840 N   0  0  0  0  0  0  0  0  0  0  0  0
   50.2000   30.8070   52.5420 O   0  0  0  0  0  0  0  0  0  0  0  0
   51.0850   30.8640   50.2630 O   0  0  0  0  0  0  0  0  0  0  0  0
   53.9410   30.7660   51.3520 C   0  0  0  0  0  0  0  0  0  0  0  0
   55.2020   30.3630   51.8000 C   0  0  0  0  0  0  0  0  0  0  0  0
   58.3310   31.3870   51.8910 N   0  0  0  0  0  0  0  0  0  0  0  0
   58.7140   31.8630   50.6970 C   0  0  0  0  0  0  0  0  0  0  0  0
   59.1834   33.6647   52.4522 H   0  0  0  0  0  0  0  0  0  0  0  0
   60.1478   34.7177   51.3624 H   0  0  0  0  0  0  0  0  0  0  0  0
   58.3549   34.8277   51.3624 H   0  0  0  0  0  0  0  0  0  0  0  0
   60.3773   33.6700   46.7167 H   0  0  0  0  0  0  0  0  0  0  0  0
   60.2002   31.9313   46.2507 H   0  0  0  0  0  0  0  0  0  0  0  0
   57.4872   30.6133   46.1922 H   0  0  0  0  0  0  0  0  0  0  0  0
   56.6686   29.1041   44.3845 H   0  0  0  0  0  0  0  0  0  0  0  0
   56.6659   29.8763   42.0112 H   0  0  0  0  0  0  0  0  0  0  0  0
   58.2820   33.6937   43.2466 H   0  0  0  0  0  0  0  0  0  0  0  0
   56.6366   28.6974   54.2605 H   0  0  0  0  0  0  0  0  0  0  0  0
   57.2361   30.3978   54.1868 H   0  0  0  0  0  0  0  0  0  0  0  0
   54.4755   29.8814   55.1097 H   0  0  0  0  0  0  0  0  0  0  0  0
   52.2268   30.6009   54.3060 H   0  0  0  0  0  0  0  0  0  0  0  0
   50.2370   33.3430   51.9960 H   0  0  0  0  0  0  0  0  0  0  0  0
   53.7909   31.0168   50.2915 H   0  0  0  0  0  0  0  0  0  0  0  0
   56.0390   30.2932   51.0897 H   0  0  0  0  0  0  0  0  0  0  0  0
  1  2  1  0
  2  3  1  0
  3  4  2  0
  3  5  1  0
  5  6  1  0
  6  7  1  0
  7  8  2  0
  7  9  1  0
  9 10  2  0
 10 11  1  0
 11 12  2  0
 12 13  1  0
 13 14  1  0
 13 15  2  0
  5 16  1  0
 16 17  2  0
 16 18  1  0
 18 19  1  0
 19 20  1  0
 20 21  2  3
 21 22  1  0
 22 23  1  0
 23 24  2  0
 24 25  1  0
 25 26  2  0
 26 27  1  0
 27 28  1  0
 27 29  2  0
 27 30  2  0
 26 31  1  0
 31 32  2  0
 20 33  1  0
 33 34  1  0
 34  2  1  0
 15  9  1  0
 34 18  2  0
 32 23  1  0
  1 35  1  0
  1 36  1  0
  1 37  1  0
  6 38  1  0
  6 39  1  0
 10 40  1  0
 11 41  1  0
 12 42  1  0
 15 43  1  0
 22 44  1  0
 22 45  1  0
 24 46  1  0
 25 47  1  0
 28 48  1  0
 31 49  1  0
 32 50  1  0
M  CHG  3  19  -1  28  -1  33  -1
M  END
>  <UniqueID>  (33) 
31

>  <SMILES>  (33) 
Cn1c(=O)n(CC(=O)c2cccc(Cl)c2)c(=O)c2[n-]c(=NCc3ccc(S([NH-])(=O)=O)cc3)[n-]c21

>  <Energy>  (33) 
97.52992140811548

>  <Genealogy>  (33) 
Cn1c(=O)n(CC(=O)c2cccc(Cl)c2)c(=O)c2[n-]c(=NCc3ccc(S([NH-])(=O)=O)cc3)[n-]c21 (protonated)
Cn1c(=O)n(CC(=O)c2cccc(Cl)c2)c(=O)c2[n-]c(=NCc3ccc(S([NH-])(=O)=O)cc3)[n-]c21 (3D coordinates assigned)
Cn1c(=O)n(CC(=O)c2cccc(Cl)c2)c(=O)c2[n-]c(=NCc3ccc(S([NH-])(=O)=O)cc3)[n-]c21 (optimized conformer: 97.52992140811548 kcal/mol)

>  <smiles>  (33) 
Cn1c(=O)n(CC(=O)c2cccc(Cl)c2)c(=O)c2[nH]c(=NCc3ccc(S(N)(=O)=O)cc3)[nH]c21

>  <score_type>  (33) 
oracle

>  <origin>  (33) 
adg

>  <m_score__min__energy>  (33) 
-14.15

>  <m_primary>  (33) 
energy

$$$$
33:0
     RDKit          3D

 73 78  0  0  0  0  0  0  0  0999 V2000
   57.2380   24.2728   46.7187 H   0  0  0  0  0  0  0  0  0  0  0  0
   57.8130   25.1780   46.4740 C   0  0  0  0  0  0  0  0  0  0  0  0
   58.0630   25.5050   45.1390 C   0  0  0  0  0  0  0  0  0  0  0  0
   57.6755   24.8635   44.3338 H   0  0  0  0  0  0  0  0  0  0  0  0
   58.8040   26.6450   44.8270 C   0  0  0  0  0  0  0  0  0  0  0  0
   58.9943   26.9006   43.7742 H   0  0  0  0  0  0  0  0  0  0  0  0
   59.3090   27.4690   45.8460 C   0  0  0  0  0  0  0  0  0  0  0  0
   60.3120   28.8660   45.4160 S   0  0  0  0  0  0  0  0  0  0  0  0
   60.9570   29.3760   46.6710 O   0  0  0  0  0  0  0  0  0  0  0  0
   61.4000   28.4850   44.4550 O   0  0  0  0  0  0  0  0  0  0  0  0
   59.3730   30.1670   44.7510 N   0  0  0  0  0  0  0  0  0  0  0  0
   58.1120   30.2600   44.4260 C   0  0  0  0  0  0  0  0  0  0  0  0
   57.1860   29.5270   45.0850 N   0  0  0  0  0  0  0  0  0  0  0  0
   56.0290   29.8700   44.4960 C   0  0  0  0  0  0  0  0  0  0  0  0
   54.7940   29.3550   44.8560 O   0  0  0  0  0  0  0  0  0  0  0  0
   56.2430   30.7930   43.5050 C   0  0  0  0  0  0  0  0  0  0  0  0
   55.4706   31.2492   42.8684 H   0  0  0  0  0  0  0  0  0  0  0  0
   57.5660   31.0430   43.4480 N   0  0  0  0  0  0  0  0  0  0  0  0
   58.1560   32.0380   42.5530 C   0  0  0  0  0  0  0  0  0  0  0  0
   58.6276   32.8333   43.1489 H   0  0  0  0  0  0  0  0  0  0  0  0
   58.9146   31.5564   41.9185 H   0  0  0  0  0  0  0  0  0  0  0  0
   57.3695   32.4726   41.9185 H   0  0  0  0  0  0  0  0  0  0  0  0
   59.0300   27.1480   47.1960 C   0  0  0  0  0  0  0  0  0  0  0  0
   59.4930   28.0050   48.3020 C   0  0  0  0  0  0  0  0  0  0  0  0
   60.6960   27.7120   48.9600 C   0  0  0  0  0  0  0  0  0  0  0  0
   61.3211   26.8760   48.6132 H   0  0  0  0  0  0  0  0  0  0  0  0
   61.1030   28.4780   50.0540 C   0  0  0  0  0  0  0  0  0  0  0  0
   62.0475   28.2420   50.5661 H   0  0  0  0  0  0  0  0  0  0  0  0
   60.3130   29.5480   50.5040 C   0  0  0  0  0  0  0  0  0  0  0  0
   60.7310   30.3530   51.7100 C   0  0  0  0  0  0  0  0  0  0  0  0
   61.3538   29.7220   52.3611 H   0  0  0  0  0  0  0  0  0  0  0  0
   59.8215   30.6834   52.2332 H   0  0  0  0  0  0  0  0  0  0  0  0
   61.5360   31.6050   51.3100 C   0  0  2  0  0  0  0  0  0  0  0  0
   61.4680   32.3342   52.1308 H   0  0  0  0  0  0  0  0  0  0  0  0
   60.9820   32.2170   50.0950 N   0  0  0  0  0  0  0  0  0  0  0  0
   61.3130   31.8590   49.1770 H   0  0  0  0  0  0  0  0  0  0  0  0
   60.0320   33.2990   50.1550 C   0  0  0  0  0  0  0  0  0  0  0  0
   59.7450   33.8020   51.2770 O   0  0  0  0  0  0  0  0  0  0  0  0
   59.2750   33.8010   48.9310 C   0  0  2  0  0  0  0  0  0  0  0  0
   58.4905   34.4348   49.3703 H   0  0  0  0  0  0  0  0  0  0  0  0
   58.5460   32.7100   48.0870 C   0  0  2  0  0  0  0  0  0  0  0  0
   57.9218   32.1015   48.7579 H   0  0  0  0  0  0  0  0  0  0  0  0
   59.5730   31.7870   47.3780 C   0  0  0  0  0  0  0  0  0  0  0  0
   59.0366   31.0330   46.7832 H   0  0  0  0  0  0  0  0  0  0  0  0
   60.1957   31.2878   48.1350 H   0  0  0  0  0  0  0  0  0  0  0  0
   60.4750   32.6250   46.4490 C   0  0  1  0  0  0  0  0  0  0  0  0
   61.2056   31.9688   45.9534 H   0  0  0  0  0  0  0  0  0  0  0  0
   59.6050   33.3230   45.3810 C   0  0  0  0  0  0  0  0  0  0  0  0
   59.0733   32.5641   44.7882 H   0  0  0  0  0  0  0  0  0  0  0  0
   60.2479   33.9218   44.7191 H   0  0  0  0  0  0  0  0  0  0  0  0
   58.5780   34.2470   46.0750 C   0  0  1  0  0  0  0  0  0  0  0  0
   57.9536   34.7418   45.3166 H   0  0  0  0  0  0  0  0  0  0  0  0
   57.6800   33.4060   47.0110 C   0  0  0  0  0  0  0  0  0  0  0  0
   57.1503   32.6441   46.4204 H   0  0  0  0  0  0  0  0  0  0  0  0
   56.9521   34.0670   47.5042 H   0  0  0  0  0  0  0  0  0  0  0  0
   59.3300   35.3130   46.9030 C   0  0  0  0  0  0  0  0  0  0  0  0
   58.6018   35.9776   47.3909 H   0  0  0  0  0  0  0  0  0  0  0  0
   59.9784   35.9007   46.2366 H   0  0  0  0  0  0  0  0  0  0  0  0
   60.1970   34.6210   47.9810 C   0  0  2  0  0  0  0  0  0  0  0  0
   60.7401   35.3722   48.5733 H   0  0  0  0  0  0  0  0  0  0  0  0
   61.2210   33.6890   47.2840 C   0  0  0  0  0  0  0  0  0  0  0  0
   61.8377   33.1893   48.0456 H   0  0  0  0  0  0  0  0  0  0  0  0
   61.8638   34.2865   46.6208 H   0  0  0  0  0  0  0  0  0  0  0  0
   63.0060   31.2350   51.0810 C   0  0  0  0  0  0  0  0  0  0  0  0
   63.5078   31.1087   52.0517 H   0  0  0  0  0  0  0  0  0  0  0  0
   63.0632   30.2944   50.5135 H   0  0  0  0  0  0  0  0  0  0  0  0
   63.5017   32.0364   50.5135 H   0  0  0  0  0  0  0  0  0  0  0  0
   59.1280   29.8620   49.8190 C   0  0  0  0  0  0  0  0  0  0  0  0
   58.5172   30.7162   50.1465 H   0  0  0  0  0  0  0  0  0  0  0  0
   58.7200   29.0960   48.7240 C   0  0  0  0  0  0  0  0  0  0  0  0
   57.7910   29.3493   48.1922 H   0  0  0  0  0  0  0  0  0  0  0  0
   58.2910   25.9970   47.4980 C   0  0  0  0  0  0  0  0  0  0  0  0
   58.0865   25.7374   48.5472 H   0  0  0  0  0  0  0  0  0  0  0  0
  1  2  1  0
  2  3  2  0
  3  4  1  0
  3  5  1  0
  5  6  1  0
  5  7  2  0
  7  8  1  0
  8  9  2  0
  8 10  2  0
  8 11  1  0
 11 12  2  0
 12 13  1  0
 13 14  1  0
 14 15  1  0
 14 16  2  0
 16 17  1  0
 16 18  1  0
 18 19  1  0
 19 20  1  0
 19 21  1  0
 19 22  1  0
  7 23  1  0
 23 24  1  0
 24 25  2  0
 25 26  1  0
 25 27  1  0
 27 28  1  0
 27 29  2  0
 29 30  1  0
 30 31  1  0
 30 32  1  0
 30 33  1  0
 33 34  1  1
 33 35  1  0
 35 36  1  0
 35 37  1  0
 37 38  2  0
 37 39  1  0
 39 40  1  1
 39 41  1  0
 41 42  1  1
 41 43  1  0
 43 44  1  0
 43 45  1  0
 43 46  1  0
 46 47  1  6
 46 48  1  0
 48 49  1  0
 48 50  1  0
 48 51  1  0
 51 52  1  6
 51 53  1  0
 53 54  1  0
 53 55  1  0
 51 56  1  0
 56 57  1  0
 56 58  1  0
 56 59  1  0
 59 60  1  1
 59 61  1  0
 61 62  1  0
 61 63  1  0
 33 64  1  0
 64 65  1  0
 64 66  1  0
 64 67  1  0
 29 68  1  0
 68 69  1  0
 68 70  2  0
 70 71  1  0
 23 72  2  0
 72 73  1  0
 72  2  1  0
 18 12  1  0
 70 24  1  0
 59 39  1  0
 53 41  1  0
 61 46  1  0
M  CHG  2  13  -1  15  -1
M  END
>  <UniqueID>  (34) 
32

>  <SMILES>  (34) 
C[C@H](Cc1ccc(-c2ccccc2S(=O)(=O)/N=c2/[n-]c([O-])cn2C)cc1)NC(=O)C1C2CC3CC(C2)CC1C3

>  <Energy>  (34) 
125.72178352196212

>  <Genealogy>  (34) 
CC(Cc1ccc(-c2ccccc2S(=O)(=O)N=c2[n-]c([O-])cn2C)cc1)NC(=O)C1C2CC3CC(C2)CC1C3 (protonated)
C[C@H](Cc1ccc(-c2ccccc2S(=O)(=O)N=c2[n-]c([O-])cn2C)cc1)NC(=O)C1C2CC3CC(C2)CC1C3 (chirality)
C[C@H](Cc1ccc(-c2ccccc2S(=O)(=O)/N=c2/[n-]c([O-])cn2C)cc1)NC(=O)C1C2CC3CC(C2)CC1C3 (cis-trans isomerization)
C[C@H](Cc1ccc(-c2ccccc2S(=O)(=O)/N=c2/[n-]c([O-])cn2C)cc1)NC(=O)C1C2CC3CC(C2)CC1C3 (3D coordinates assigned)
C[C@H](Cc1ccc(-c2ccccc2S(=O)(=O)/N=c2/[n-]c([O-])cn2C)cc1)NC(=O)C1C2CC3CC(C2)CC1C3 (nonaromatic ring conformer: 125.72178352196212 kcal/mol)

>  <smiles>  (34) 
CC(Cc1ccc(-c2ccccc2S(=O)(=O)N=c2[nH]c(O)cn2C)cc1)NC(=O)C1C2CC3CC(C2)CC1C3

>  <score_type>  (34) 
oracle

>  <origin>  (34) 
adg

>  <m_score__min__energy>  (34) 
-16.57

>  <m_primary>  (34) 
energy

$$$$
34:0
     RDKit          3D

 43 45  0  0  0  0  0  0  0  0999 V2000
   56.2490   21.1770   43.0510 O   0  0  0  0  0  0  0  0  0  0  0  0
   56.3470   20.6290   44.1800 C   0  0  0  0  0  0  0  0  0  0  0  0
   56.1670   21.3780   45.3890 N   0  0  0  0  0  0  0  0  0  0  0  0
   56.0630   22.8110   45.4490 C   0  0  0  0  0  0  0  0  0  0  0  0
   57.2040   23.6280   45.5180 C   0  0  0  0  0  0  0  0  0  0  0  0
   57.0750   25.0190   45.5980 C   0  0  0  0  0  0  0  0  0  0  0  0
   55.8010   25.6130   45.6080 C   0  0  0  0  0  0  0  0  0  0  0  0
   55.6280   27.0330   45.7130 N   0  0  0  0  0  0  0  0  0  0  0  0
   56.6670   28.0150   45.6430 C   0  0  0  0  0  0  0  0  0  0  0  0
   57.7470   27.8040   46.2570 O   0  0  0  0  0  0  0  0  0  0  0  0
   56.4420   29.2650   44.9770 N   0  0  0  0  0  0  0  0  0  0  0  0
   57.1790   30.4800   45.1700 C   0  0  0  0  0  0  0  0  0  0  0  0
   56.9950   31.6050   44.3460 C   0  0  0  0  0  0  0  0  0  0  0  0
   57.7160   32.7790   44.5840 C   0  0  0  0  0  0  0  0  0  0  0  0
   58.6230   32.8460   45.6510 C   0  0  0  0  0  0  0  0  0  0  0  0
   59.5210   34.3270   45.9620 S   0  0  0  0  0  0  0  0  0  0  0  0
   59.2610   35.3080   44.8540 O   0  0  0  0  0  0  0  0  0  0  0  0
   59.0720   34.9230   47.2670 O   0  0  0  0  0  0  0  0  0  0  0  0
   61.2120   33.9510   46.0350 N   0  0  0  0  0  0  0  0  0  0  0  0
   61.8610   33.6870   47.1270 C   0  0  0  0  0  0  0  0  0  0  0  0
   61.5140   34.2200   48.3960 N   0  0  0  0  0  0  0  0  0  0  0  0
   62.4910   33.9160   49.4230 C   0  0  0  0  0  0  0  0  0  0  0  0
   63.7790   33.4730   48.7200 C   0  0  0  0  0  0  0  0  0  0  0  0
   63.3490   32.7230   47.1080 S   0  0  0  0  0  0  0  0  0  0  0  0
   58.7840   31.7380   46.4930 C   0  0  0  0  0  0  0  0  0  0  0  0
   58.0610   30.5650   46.2550 C   0  0  0  0  0  0  0  0  0  0  0  0
   54.6660   24.7950   45.5890 C   0  0  0  0  0  0  0  0  0  0  0  0
   54.7940   23.4060   45.5090 C   0  0  0  0  0  0  0  0  0  0  0  0
   56.5752   19.5546   44.2401 H   0  0  0  0  0  0  0  0  0  0  0  0
   56.0120   20.8310   46.2670 H   0  0  0  0  0  0  0  0  0  0  0  0
   58.2047   23.1714   45.5091 H   0  0  0  0  0  0  0  0  0  0  0  0
   57.9742   25.6502   45.6533 H   0  0  0  0  0  0  0  0  0  0  0  0
   56.2807   31.5609   43.5107 H   0  0  0  0  0  0  0  0  0  0  0  0
   57.5712   33.6530   43.9319 H   0  0  0  0  0  0  0  0  0  0  0  0
   60.6020   34.6750   48.6190 H   0  0  0  0  0  0  0  0  0  0  0  0
   62.6851   34.8107   50.0328 H   0  0  0  0  0  0  0  0  0  0  0  0
   62.1197   33.1211   50.0865 H   0  0  0  0  0  0  0  0  0  0  0  0
   64.4302   34.3449   48.5593 H   0  0  0  0  0  0  0  0  0  0  0  0
   64.3086   32.7372   49.3431 H   0  0  0  0  0  0  0  0  0  0  0  0
   59.4804   31.7908   47.3429 H   0  0  0  0  0  0  0  0  0  0  0  0
   58.1859   29.7018   46.9253 H   0  0  0  0  0  0  0  0  0  0  0  0
   53.6652   25.2490   45.6374 H   0  0  0  0  0  0  0  0  0  0  0  0
   53.8934   22.7746   45.4929 H   0  0  0  0  0  0  0  0  0  0  0  0
  1  2  2  0
  2  3  1  0
  3  4  1  0
  4  5  2  0
  5  6  1  0
  6  7  2  0
  7  8  1  0
  8  9  1  0
  9 10  2  0
  9 11  1  0
 11 12  1  0
 12 13  2  0
 13 14  1  0
 14 15  2  0
 15 16  1  0
 16 17  2  0
 16 18  2  0
 16 19  1  0
 19 20  2  3
 20 21  1  0
 21 22  1  0
 22 23  1  0
 23 24  1  0
 15 25  1  0
 25 26  2  0
  7 27  1  0
 27 28  2  0
 28  4  1  0
 26 12  1  0
 24 20  1  0
  2 29  1  0
  3 30  1  0
  5 31  1  0
  6 32  1  0
 13 33  1  0
 14 34  1  0
 21 35  1  0
 22 36  1  0
 22 37  1  0
 23 38  1  0
 23 39  1  0
 25 40  1  0
 26 41  1  0
 27 42  1  0
 28 43  1  0
M  CHG  2   8  -1  11  -1
M  END
>  <UniqueID>  (35) 
33

>  <SMILES>  (35) 
O=CNc1ccc([N-]C(=O)[N-]c2ccc(S(=O)(=O)N=C3NCCS3)cc2)cc1

>  <Energy>  (35) 
63.924023097438976

>  <Genealogy>  (35) 
O=CNc1ccc([N-]C(=O)[N-]c2ccc(S(=O)(=O)N=C3NCCS3)cc2)cc1 (protonated)
O=CNc1ccc([N-]C(=O)[N-]c2ccc(S(=O)(=O)N=C3NCCS3)cc2)cc1 (3D coordinates assigned)
O=CNc1ccc([N-]C(=O)[N-]c2ccc(S(=O)(=O)N=C3NCCS3)cc2)cc1 (nonaromatic ring conformer: 63.924023097438976 kcal/mol)

>  <smiles>  (35) 
O=CNc1ccc(NC(=O)Nc2ccc(S(=O)(=O)N=C3NCCS3)cc2)cc1

>  <score_type>  (35) 
oracle

>  <origin>  (35) 
adg

>  <m_score__min__energy>  (35) 
-12.01

>  <m_primary>  (35) 
energy

$$$$
35:0
     RDKit          3D

 38 40  0  0  0  0  0  0  0  0999 V2000
   59.2450   35.3660   46.7860 N   0  0  0  0  0  0  0  0  0  0  0  0
   60.0760   34.3670   46.1980 C   0  0  0  0  0  0  0  0  0  0  0  0
   59.8660   34.0120   45.0070 O   0  0  0  0  0  0  0  0  0  0  0  0
   61.2150   33.7980   46.9490 C   0  0  0  0  0  0  0  0  0  0  0  0
   62.5030   33.8980   46.3930 C   0  0  0  0  0  0  0  0  0  0  0  0
   63.6220   33.4520   47.1000 C   0  0  0  0  0  0  0  0  0  0  0  0
   63.4700   32.9040   48.3730 C   0  0  0  0  0  0  0  0  0  0  0  0
   62.1970   32.7780   48.9320 C   0  0  0  0  0  0  0  0  0  0  0  0
   61.0610   33.1930   48.2220 C   0  0  0  0  0  0  0  0  0  0  0  0
   59.4430   32.8660   48.9510 S   0  0  0  0  0  0  0  0  0  0  0  0
   59.1230   31.4460   47.8860 C   0  0  0  0  0  0  0  0  0  0  0  0
   59.7500   30.2310   48.1890 C   0  0  0  0  0  0  0  0  0  0  0  0
   59.5900   29.1230   47.3560 C   0  0  0  0  0  0  0  0  0  0  0  0
   58.7820   29.2090   46.2140 C   0  0  0  0  0  0  0  0  0  0  0  0
   58.6580   28.0320   45.2850 C   0  0  0  0  0  0  0  0  0  0  0  0
   57.5350   27.1460   45.7270 C   0  0  0  0  0  0  0  0  0  0  0  0
   57.7090   25.5660   46.2850 S   0  0  0  0  0  0  0  0  0  0  0  0
   56.0490   25.3440   46.4220 C   0  0  0  0  0  0  0  0  0  0  0  0
   55.5060   24.2840   46.8270 O   0  0  0  0  0  0  0  0  0  0  0  0
   55.3450   26.4320   46.0440 N   0  0  0  0  0  0  0  0  0  0  0  0
   56.1740   27.4350   45.6490 C   0  0  0  0  0  0  0  0  0  0  0  0
   55.6870   28.6570   45.1960 O   0  0  0  0  0  0  0  0  0  0  0  0
   58.1360   30.4170   45.9170 C   0  0  0  0  0  0  0  0  0  0  0  0
   58.2830   31.5330   46.7550 C   0  0  0  0  0  0  0  0  0  0  0  0
   57.5540   32.7290   46.4550 N   0  0  0  0  0  0  0  0  0  0  0  0
   59.6490   36.2640   47.1320 H   0  0  0  0  0  0  0  0  0  0  0  0
   62.6305   34.3322   45.3904 H   0  0  0  0  0  0  0  0  0  0  0  0
   64.6235   33.5331   46.6523 H   0  0  0  0  0  0  0  0  0  0  0  0
   64.3536   32.5708   48.9372 H   0  0  0  0  0  0  0  0  0  0  0  0
   62.0839   32.3492   49.9387 H   0  0  0  0  0  0  0  0  0  0  0  0
   60.3739   30.1494   49.0913 H   0  0  0  0  0  0  0  0  0  0  0  0
   60.0999   28.1785   47.5965 H   0  0  0  0  0  0  0  0  0  0  0  0
   58.4577   28.3925   44.2652 H   0  0  0  0  0  0  0  0  0  0  0  0
   59.5970   27.4593   45.3009 H   0  0  0  0  0  0  0  0  0  0  0  0
   54.7570   28.9680   45.4500 H   0  0  0  0  0  0  0  0  0  0  0  0
   57.5072   30.4910   45.0175 H   0  0  0  0  0  0  0  0  0  0  0  0
   58.0570   33.6190   46.2420 H   0  0  0  0  0  0  0  0  0  0  0  0
   56.5170   32.7260   46.3450 H   0  0  0  0  0  0  0  0  0  0  0  0
  1  2  1  0
  2  3  2  0
  2  4  1  0
  4  5  2  0
  5  6  1  0
  6  7  2  0
  7  8  1  0
  8  9  2  0
  9 10  1  0
 10 11  1  0
 11 12  2  0
 12 13  1  0
 13 14  2  0
 14 15  1  0
 15 16  1  0
 16 17  1  0
 17 18  1  0
 18 19  2  0
 18 20  1  0
 20 21  1  0
 21 22  1  0
 14 23  1  0
 23 24  2  0
 24 25  1  0
  9  4  1  0
 24 11  1  0
 21 16  2  0
  1 26  1  0
  5 27  1  0
  6 28  1  0
  7 29  1  0
  8 30  1  0
 12 31  1  0
 13 32  1  0
 15 33  1  0
 15 34  1  0
 22 35  1  0
 23 36  1  0
 25 37  1  0
 25 38  1  0
M  CHG  2   1  -1  20  -1
M  END
>  <UniqueID>  (36) 
34

>  <SMILES>  (36) 
[NH-]C(=O)c1ccccc1Sc1ccc(Cc2sc(=O)[n-]c2O)cc1N

>  <Energy>  (36) 
70.07403276090238

>  <Genealogy>  (36) 
[NH-]C(=O)c1ccccc1Sc1ccc(Cc2sc(=O)[n-]c2O)cc1N (protonated)
[NH-]C(=O)c1ccccc1Sc1ccc(Cc2sc(=O)[n-]c2O)cc1N (3D coordinates assigned)
[NH-]C(=O)c1ccccc1Sc1ccc(Cc2sc(=O)[n-]c2O)cc1N (optimized conformer: 70.07403276090238 kcal/mol)

>  <smiles>  (36) 
NC(=O)c1ccccc1Sc1ccc(Cc2sc(=O)[nH]c2O)cc1N

>  <score_type>  (36) 
oracle

>  <origin>  (36) 
adg

>  <m_score__min__energy>  (36) 
-12.31

>  <m_primary>  (36) 
energy

$$$$
36:0
     RDKit          3D

 54 57  0  0  0  0  0  0  0  0999 V2000
   55.8510   27.0710   45.0980 H   0  0  0  0  0  0  0  0  0  0  0  0
   55.6360   26.6890   46.0090 O   0  0  0  0  0  0  0  0  0  0  0  0
   56.3920   25.6640   46.5740 C   0  0  0  0  0  0  0  0  0  0  0  0
   55.8510   24.5330   47.0530 N   0  0  0  0  0  0  0  0  0  0  0  0
   56.9280   23.8470   47.4900 C   0  0  0  0  0  0  0  0  0  0  0  0
   56.8390   22.7080   48.0180 O   0  0  0  0  0  0  0  0  0  0  0  0
   58.1080   24.4760   47.3130 N   0  0  0  0  0  0  0  0  0  0  0  0
   57.7630   25.6430   46.7380 C   0  0  0  0  0  0  0  0  0  0  0  0
   58.7150   26.6750   46.2710 C   0  0  0  0  0  0  0  0  0  0  0  0
   59.1832   26.5271   45.2867 H   0  0  0  0  0  0  0  0  0  0  0  0
   59.0520   27.7840   46.9620 C   0  0  0  0  0  0  0  0  0  0  0  0
   58.5170   28.2110   48.1730 C   0  0  0  0  0  0  0  0  0  0  0  0
   57.7501   27.6952   48.7695 H   0  0  0  0  0  0  0  0  0  0  0  0
   59.1340   29.4070   48.4820 C   0  0  0  0  0  0  0  0  0  0  0  0
   58.8490   30.2240   49.7050 C   0  0  0  0  0  0  0  0  0  0  0  0
   59.0581   29.6246   50.6033 H   0  0  0  0  0  0  0  0  0  0  0  0
   59.4878   31.1195   49.7048 H   0  0  0  0  0  0  0  0  0  0  0  0
   57.7918   30.5278   49.7048 H   0  0  0  0  0  0  0  0  0  0  0  0
   60.0290   29.7370   47.5260 N   0  0  0  0  0  0  0  0  0  0  0  0
   60.8350   30.9290   47.5080 C   0  0  0  0  0  0  0  0  0  0  0  0
   60.5600   31.9670   46.6040 C   0  0  0  0  0  0  0  0  0  0  0  0
   59.4920   31.8410   45.7120 O   0  0  0  0  0  0  0  0  0  0  0  0
   58.1310   31.8140   46.1280 C   0  0  0  0  0  0  0  0  0  0  0  0
   57.9015   30.8336   46.5709 H   0  0  0  0  0  0  0  0  0  0  0  0
   57.9587   32.6014   46.8765 H   0  0  0  0  0  0  0  0  0  0  0  0
   57.2300   32.0510   44.9200 C   0  0  0  0  0  0  0  0  0  0  0  0
   56.1779   31.9599   45.2278 H   0  0  0  0  0  0  0  0  0  0  0  0
   57.4188   33.0595   44.5233 H   0  0  0  0  0  0  0  0  0  0  0  0
   57.5190   31.0540   43.8640 N   0  0  0  0  0  0  0  0  0  0  0  0
   58.1350   29.8140   44.4010 C   0  0  0  0  0  0  0  0  0  0  0  0
   58.8571   29.4342   43.6632 H   0  0  0  0  0  0  0  0  0  0  0  0
   58.6179   30.0745   45.3544 H   0  0  0  0  0  0  0  0  0  0  0  0
   57.1050   28.7040   44.6960 C   0  0  0  0  0  0  0  0  0  0  0  0
   57.0114   28.0525   43.8146 H   0  0  0  0  0  0  0  0  0  0  0  0
   57.4478   28.1196   45.5626 H   0  0  0  0  0  0  0  0  0  0  0  0
   55.7990   29.2900   45.0040 N   0  0  0  0  0  0  0  0  0  0  0  0
   55.1440   28.5140   45.2580 H   0  0  0  0  0  0  0  0  0  0  0  0
   55.2470   29.9920   43.8340 C   0  0  0  0  0  0  0  0  0  0  0  0
   54.7740   29.2538   43.1697 H   0  0  0  0  0  0  0  0  0  0  0  0
   54.5183   30.7308   44.1989 H   0  0  0  0  0  0  0  0  0  0  0  0
   56.3320   30.7530   43.0380 C   0  0  0  0  0  0  0  0  0  0  0  0
   56.6427   30.1355   42.1824 H   0  0  0  0  0  0  0  0  0  0  0  0
   55.9001   31.7083   42.7050 H   0  0  0  0  0  0  0  0  0  0  0  0
   61.3340   33.0900   46.6080 N   0  0  0  0  0  0  0  0  0  0  0  0
   62.3730   33.2430   47.4720 C   0  0  0  0  0  0  0  0  0  0  0  0
   62.9783   34.1612   47.4465 H   0  0  0  0  0  0  0  0  0  0  0  0
   62.6720   32.2360   48.3910 C   0  0  0  0  0  0  0  0  0  0  0  0
   63.5098   32.3557   49.0937 H   0  0  0  0  0  0  0  0  0  0  0  0
   61.8970   31.0760   48.4090 C   0  0  0  0  0  0  0  0  0  0  0  0
   62.1202   30.2767   49.1310 H   0  0  0  0  0  0  0  0  0  0  0  0
   59.9890   28.7570   46.5880 C   0  0  0  0  0  0  0  0  0  0  0  0
   60.7700   28.7370   45.4950 C   0  0  0  0  0  0  0  0  0  0  0  0
   61.4720   29.5624   45.3055 H   0  0  0  0  0  0  0  0  0  0  0  0
   60.7074   27.8952   44.7897 H   0  0  0  0  0  0  0  0  0  0  0  0
  1  2  1  0
  2  3  1  0
  3  4  1  0
  4  5  1  0
  5  6  2  0
  5  7  1  0
  7  8  1  0
  8  9  1  0
  9 10  1  0
  9 11  2  0
 11 12  1  0
 12 13  1  0
 12 14  2  0
 14 15  1  0
 15 16  1  0
 15 17  1  0
 15 18  1  0
 14 19  1  0
 19 20  1  0
 20 21  1  0
 21 22  1  0
 22 23  1  0
 23 24  1  0
 23 25  1  0
 23 26  1  0
 26 27  1  0
 26 28  1  0
 26 29  1  0
 29 30  1  0
 30 31  1  0
 30 32  1  0
 30 33  1  0
 33 34  1  0
 33 35  1  0
 33 36  1  0
 36 37  1  0
 36 38  1  0
 38 39  1  0
 38 40  1  0
 38 41  1  0
 41 42  1  0
 41 43  1  0
 21 44  2  0
 44 45  1  0
 45 46  1  0
 45 47  2  0
 47 48  1  0
 47 49  1  0
 49 50  1  0
 19 51  1  0
 51 52  2  0
 52 53  1  0
 52 54  1  0
  8  3  2  0
 51 11  1  0
 49 20  2  0
 41 29  1  0
M  CHG  2   4  -1   7  -1
M  END
>  <UniqueID>  (37) 
35

>  <SMILES>  (37) 
C=c1/c(=C/c2[n-]c(=O)[n-]c2O)cc(C)n1-c1cccnc1OCCN1CCNCC1

>  <Energy>  (37) 
131.12091073238045

>  <Genealogy>  (37) 
C=c1c(=Cc2[n-]c(=O)[n-]c2O)cc(C)n1-c1cccnc1OCCN1CCNCC1 (protonated)
C=c1/c(=C/c2[n-]c(=O)[n-]c2O)cc(C)n1-c1cccnc1OCCN1CCNCC1 (cis-trans isomerization)
C=c1/c(=C/c2[n-]c(=O)[n-]c2O)cc(C)n1-c1cccnc1OCCN1CCNCC1 (3D coordinates assigned)
C=c1/c(=C/c2[n-]c(=O)[n-]c2O)cc(C)n1-c1cccnc1OCCN1CCNCC1 (nonaromatic ring conformer: 131.12091073238045 kcal/mol)

>  <smiles>  (37) 
C=c1c(=Cc2[nH]c(=O)[nH]c2O)cc(C)n1-c1cccnc1OCCN1CCNCC1

>  <score_type>  (37) 
oracle

>  <origin>  (37) 
adg

>  <m_score__min__energy>  (37) 
-13.859999999999999

>  <m_primary>  (37) 
energy

$$$$
37:0
     RDKit          3D

 48 51  0  0  0  0  0  0  0  0999 V2000
   64.9877   32.6831   48.4814 H   0  0  0  0  0  0  0  0  0  0  0  0
   63.9630   33.0610   48.3500 C   0  0  0  0  0  0  0  0  0  0  0  0
   63.3710   33.0480   47.0850 C   0  0  0  0  0  0  0  0  0  0  0  0
   63.9291   32.6572   46.2214 H   0  0  0  0  0  0  0  0  0  0  0  0
   62.0700   33.5310   46.9150 C   0  0  0  0  0  0  0  0  0  0  0  0
   61.6021   33.5034   45.9198 H   0  0  0  0  0  0  0  0  0  0  0  0
   61.3560   34.0520   48.0090 C   0  0  0  0  0  0  0  0  0  0  0  0
   59.9510   34.5650   47.8260 C   0  0  0  0  0  0  0  0  0  0  0  0
   59.9874   35.5094   47.2631 H   0  0  0  0  0  0  0  0  0  0  0  0
   59.5096   34.7149   48.8224 H   0  0  0  0  0  0  0  0  0  0  0  0
   59.0910   33.5850   47.0770 C   0  0  0  0  0  0  0  0  0  0  0  0
   58.1330   33.9880   45.7530 S   0  0  0  0  0  0  0  0  0  0  0  0
   57.4890   32.4350   45.6220 C   0  0  0  0  0  0  0  0  0  0  0  0
   56.6290   32.0410   44.7310 N   0  0  0  0  0  0  0  0  0  0  0  0
   56.8780   31.0140   43.7200 C   0  0  0  0  0  0  0  0  0  0  0  0
   57.6148   31.3916   42.9957 H   0  0  0  0  0  0  0  0  0  0  0  0
   55.9301   30.7795   43.2136 H   0  0  0  0  0  0  0  0  0  0  0  0
   57.4120   29.7530   44.3590 C   0  0  0  0  0  0  0  0  0  0  0  0
   58.8000   29.5460   44.4060 C   0  0  0  0  0  0  0  0  0  0  0  0
   59.4796   30.3044   43.9901 H   0  0  0  0  0  0  0  0  0  0  0  0
   59.3230   28.3860   44.9760 C   0  0  0  0  0  0  0  0  0  0  0  0
   60.4118   28.2317   45.0036 H   0  0  0  0  0  0  0  0  0  0  0  0
   58.4710   27.4210   45.5110 C   0  0  0  0  0  0  0  0  0  0  0  0
   58.8901   26.5030   45.9486 H   0  0  0  0  0  0  0  0  0  0  0  0
   57.0810   27.6150   45.4940 C   0  0  0  0  0  0  0  0  0  0  0  0
   56.1690   26.5560   46.0460 C   0  0  0  0  0  0  0  0  0  0  0  0
   56.1951   26.5863   47.1453 H   0  0  0  0  0  0  0  0  0  0  0  0
   55.1416   26.7393   45.6984 H   0  0  0  0  0  0  0  0  0  0  0  0
   56.5027   25.5672   45.6984 H   0  0  0  0  0  0  0  0  0  0  0  0
   56.5490   28.7800   44.9090 C   0  0  0  0  0  0  0  0  0  0  0  0
   55.1710   28.9660   44.8740 O   0  0  0  0  0  0  0  0  0  0  0  0
   57.9730   31.6070   46.5710 N   0  0  0  0  0  0  0  0  0  0  0  0
   58.8730   32.2320   47.3780 C   0  0  0  0  0  0  0  0  0  0  0  0
   59.5180   31.5130   48.4870 C   0  0  0  0  0  0  0  0  0  0  0  0
   59.1490   31.7920   49.8120 C   0  0  0  0  0  0  0  0  0  0  0  0
   58.3865   32.5572   50.0195 H   0  0  0  0  0  0  0  0  0  0  0  0
   59.7480   31.1000   50.8690 C   0  0  0  0  0  0  0  0  0  0  0  0
   59.4629   31.3284   51.9066 H   0  0  0  0  0  0  0  0  0  0  0  0
   60.7090   30.1180   50.6090 C   0  0  0  0  0  0  0  0  0  0  0  0
   61.4600   29.2500   51.9360 Cl  0  0  0  0  0  0  0  0  0  0  0  0
   61.0620   29.8190   49.2880 C   0  0  0  0  0  0  0  0  0  0  0  0
   61.8121   29.0413   49.0819 H   0  0  0  0  0  0  0  0  0  0  0  0
   60.4620   30.5080   48.2310 C   0  0  0  0  0  0  0  0  0  0  0  0
   60.7312   30.2611   47.1934 H   0  0  0  0  0  0  0  0  0  0  0  0
   61.9550   34.0410   49.2830 C   0  0  0  0  0  0  0  0  0  0  0  0
   61.3971   34.4180   50.1528 H   0  0  0  0  0  0  0  0  0  0  0  0
   63.2540   33.5540   49.4490 C   0  0  0  0  0  0  0  0  0  0  0  0
   63.7192   33.5586   50.4458 H   0  0  0  0  0  0  0  0  0  0  0  0
  1  2  1  0
  2  3  2  0
  3  4  1  0
  3  5  1  0
  5  6  1  0
  5  7  2  0
  7  8  1  0
  8  9  1  0
  8 10  1  0
  8 11  1  0
 11 12  1  0
 12 13  1  0
 13 14  2  0
 14 15  1  0
 15 16  1  0
 15 17  1  0
 15 18  1  0
 18 19  2  0
 19 20  1  0
 19 21  1  0
 21 22  1  0
 21 23  2  0
 23 24  1  0
 23 25  1  0
 25 26  1  0
 26 27  1  0
 26 28  1  0
 26 29  1  0
 25 30  2  0
 30 31  1  0
 13 32  1  0
 32 33  1  0
 33 34  1  0
 34 35  2  0
 35 36  1  0
 35 37  1  0
 37 38  1  0
 37 39  2  0
 39 40  1  0
 39 41  1  0
 41 42  1  0
 41 43  2  0
 43 44  1  0
  7 45  1  0
 45 46  1  0
 45 47  2  0
 47 48  1  0
 47  2  1  0
 33 11  2  0
 43 34  1  0
 30 18  1  0
M  CHG  2  31  -1  32  -1
M  END
>  <UniqueID>  (38) 
36

>  <SMILES>  (38) 
Cc1cccc(C/N=c2/[n-]c(-c3ccc(Cl)cc3)c(Cc3ccccc3)s2)c1[O-]

>  <Energy>  (38) 
87.03467153994764

>  <Genealogy>  (38) 
Cc1cccc(CN=c2[n-]c(-c3ccc(Cl)cc3)c(Cc3ccccc3)s2)c1[O-] (protonated)
Cc1cccc(C/N=c2/[n-]c(-c3ccc(Cl)cc3)c(Cc3ccccc3)s2)c1[O-] (cis-trans isomerization)
Cc1cccc(C/N=c2/[n-]c(-c3ccc(Cl)cc3)c(Cc3ccccc3)s2)c1[O-] (3D coordinates assigned)
Cc1cccc(C/N=c2/[n-]c(-c3ccc(Cl)cc3)c(Cc3ccccc3)s2)c1[O-] (optimized conformer: 87.03467153994764 kcal/mol)

>  <smiles>  (38) 
Cc1cccc(CN=c2[nH]c(-c3ccc(Cl)cc3)c(Cc3ccccc3)s2)c1O

>  <score_type>  (38) 
oracle

>  <origin>  (38) 
adg

>  <m_score__min__energy>  (38) 
-14.369999999999999

>  <m_primary>  (38) 
energy

$$$$
38:0
     RDKit          3D

 53 55  0  0  0  0  0  0  0  0999 V2000
   60.0770   32.6300   52.2740 C   0  0  0  0  0  0  0  0  0  0  0  0
   60.2850   33.6620   50.7880 S   0  0  0  0  0  0  0  0  0  0  0  0
   61.9940   33.1620   50.5310 C   0  0  0  0  0  0  0  0  0  0  0  0
   63.0030   34.1240   50.6630 C   0  0  0  0  0  0  0  0  0  0  0  0
   64.3420   33.7760   50.4770 C   0  0  0  0  0  0  0  0  0  0  0  0
   64.6820   32.4610   50.1570 C   0  0  0  0  0  0  0  0  0  0  0  0
   63.6850   31.4910   50.0320 C   0  0  0  0  0  0  0  0  0  0  0  0
   62.3330   31.8230   50.2320 C   0  0  0  0  0  0  0  0  0  0  0  0
   61.3070   30.8270   50.0660 N   0  0  0  0  0  0  0  0  0  0  0  0
   61.4040   29.4940   50.5920 C   0  0  0  0  0  0  0  0  0  0  0  0
   62.2080   29.2330   51.5260 O   0  0  0  0  0  0  0  0  0  0  0  0
   60.5590   28.3970   50.0210 C   0  0  0  0  0  0  0  0  0  0  0  0
   59.2280   28.9040   49.7120 N   0  0  0  0  0  0  0  0  0  0  0  0
   58.9380   29.7410   48.5850 C   0  0  0  0  0  0  0  0  0  0  0  0
   58.5320   30.9210   48.7700 O   0  0  0  0  0  0  0  0  0  0  0  0
   59.0550   29.2020   47.2090 C   0  0  0  0  0  0  0  0  0  0  0  0
   58.2320   28.1250   46.8280 C   0  0  0  0  0  0  0  0  0  0  0  0
   58.2290   27.6640   45.5110 C   0  0  0  0  0  0  0  0  0  0  0  0
   59.0370   28.2760   44.5530 C   0  0  0  0  0  0  0  0  0  0  0  0
   59.8740   29.3320   44.9160 C   0  0  0  0  0  0  0  0  0  0  0  0
   59.9210   29.7770   46.2440 C   0  0  0  0  0  0  0  0  0  0  0  0
   60.8680   30.7960   46.5860 N   0  0  0  0  0  0  0  0  0  0  0  0
   60.5070   32.1550   46.8610 C   0  0  0  0  0  0  0  0  0  0  0  0
   60.6730   32.6040   48.0240 O   0  0  0  0  0  0  0  0  0  0  0  0
   59.7110   32.9730   45.8810 C   0  0  0  0  0  0  0  0  0  0  0  0
   57.9340   33.0950   46.2880 S   0  0  0  0  0  0  0  0  0  0  0  0
   57.3700   32.0630   44.9390 C   0  0  0  0  0  0  0  0  0  0  0  0
   56.6450   30.9440   45.2010 N   0  0  0  0  0  0  0  0  0  0  0  0
   56.2400   30.1200   44.1980 C   0  0  0  0  0  0  0  0  0  0  0  0
   55.4630   28.9620   44.5010 N   0  0  0  0  0  0  0  0  0  0  0  0
   56.5890   30.4170   42.8770 C   0  0  0  0  0  0  0  0  0  0  0  0
   57.3470   31.5630   42.6300 C   0  0  0  0  0  0  0  0  0  0  0  0
   57.6900   31.8530   41.4540 O   0  0  0  0  0  0  0  0  0  0  0  0
   57.7180   32.3640   43.6610 N   0  0  0  0  0  0  0  0  0  0  0  0
   60.2023   33.2518   53.1727 H   0  0  0  0  0  0  0  0  0  0  0  0
   59.0711   32.1849   52.2734 H   0  0  0  0  0  0  0  0  0  0  0  0
   60.8320   31.8300   52.2734 H   0  0  0  0  0  0  0  0  0  0  0  0
   62.7385   35.1615   50.9151 H   0  0  0  0  0  0  0  0  0  0  0  0
   65.1285   34.5378   50.5826 H   0  0  0  0  0  0  0  0  0  0  0  0
   65.7364   32.1881   50.0030 H   0  0  0  0  0  0  0  0  0  0  0  0
   63.9598   30.4574   49.7747 H   0  0  0  0  0  0  0  0  0  0  0  0
   60.4450   31.0760   49.5330 H   0  0  0  0  0  0  0  0  0  0  0  0
   61.0272   28.0177   49.1008 H   0  0  0  0  0  0  0  0  0  0  0  0
   60.4744   27.5848   50.7580 H   0  0  0  0  0  0  0  0  0  0  0  0
   57.5853   27.6425   47.5756 H   0  0  0  0  0  0  0  0  0  0  0  0
   57.5880   26.8161   45.2278 H   0  0  0  0  0  0  0  0  0  0  0  0
   59.0145   27.9260   43.5104 H   0  0  0  0  0  0  0  0  0  0  0  0
   60.5012   29.8184   44.1544 H   0  0  0  0  0  0  0  0  0  0  0  0
   60.1311   33.9893   45.8567 H   0  0  0  0  0  0  0  0  0  0  0  0
   59.7812   32.4631   44.9089 H   0  0  0  0  0  0  0  0  0  0  0  0
   54.4200   29.0090   44.5380 H   0  0  0  0  0  0  0  0  0  0  0  0
   55.9340   28.0500   44.6970 H   0  0  0  0  0  0  0  0  0  0  0  0
   56.2735   29.7625   42.0511 H   0  0  0  0  0  0  0  0  0  0  0  0
  1  2  1  0
  2  3  1  0
  3  4  2  0
  4  5  1  0
  5  6  2  0
  6  7  1  0
  7  8  2  0
  8  9  1  0
  9 10  1  0
 10 11  2  0
 10 12  1  0
 12 13  1  0
 13 14  1  0
 14 15  2  0
 14 16  1  0
 16 17  2  0
 17 18  1  0
 18 19  2  0
 19 20  1  0
 20 21  2  0
 21 22  1  0
 22 23  1  0
 23 24  2  0
 23 25  1  0
 25 26  1  0
 26 27  1  0
 27 28  2  0
 28 29  1  0
 29 30  1  0
 29 31  2  0
 31 32  1  0
 32 33  2  0
 32 34  1  0
  8  3  1  0
 21 16  1  0
 34 27  1  0
  1 35  1  0
  1 36  1  0
  1 37  1  0
  4 38  1  0
  5 39  1  0
  6 40  1  0
  7 41  1  0
  9 42  1  0
 12 43  1  0
 12 44  1  0
 17 45  1  0
 18 46  1  0
 19 47  1  0
 20 48  1  0
 25 49  1  0
 25 50  1  0
 30 51  1  0
 30 52  1  0
 31 53  1  0
M  CHG  3  13  -1  22  -1  34  -1
M  END
>  <UniqueID>  (39) 
37

>  <SMILES>  (39) 
CSc1ccccc1NC(=O)C[N-]C(=O)c1ccccc1[N-]C(=O)CSc1nc(N)cc(=O)[n-]1

>  <Energy>  (39) 
59.37880719805847

>  <Genealogy>  (39) 
CSc1ccccc1NC(=O)C[N-]C(=O)c1ccccc1[N-]C(=O)CSc1nc(N)cc(=O)[n-]1 (protonated)
CSc1ccccc1NC(=O)C[N-]C(=O)c1ccccc1[N-]C(=O)CSc1nc(N)cc(=O)[n-]1 (3D coordinates assigned)
CSc1ccccc1NC(=O)C[N-]C(=O)c1ccccc1[N-]C(=O)CSc1nc(N)cc(=O)[n-]1 (optimized conformer: 59.37880719805847 kcal/mol)

>  <smiles>  (39) 
CSc1ccccc1NC(=O)CNC(=O)c1ccccc1NC(=O)CSc1nc(N)cc(=O)[nH]1

>  <score_type>  (39) 
oracle

>  <origin>  (39) 
adg

>  <m_score__min__energy>  (39) 
-15

>  <m_primary>  (39) 
energy

$$$$
39:0
     RDKit          3D

 48 50  0  0  0  0  0  0  0  0999 V2000
   54.0210   26.3410   46.4280 H   0  0  0  0  0  0  0  0  0  0  0  0
   54.8660   26.4060   45.8730 O   0  0  0  0  0  0  0  0  0  0  0  0
   56.0420   25.7350   46.2100 C   0  0  0  0  0  0  0  0  0  0  0  0
   55.9670   24.6640   47.0430 N   0  0  0  0  0  0  0  0  0  0  0  0
   57.0770   23.9690   47.3990 C   0  0  0  0  0  0  0  0  0  0  0  0
   56.9780   22.9820   48.1740 O   0  0  0  0  0  0  0  0  0  0  0  0
   58.2920   24.3320   46.9160 N   0  0  0  0  0  0  0  0  0  0  0  0
   58.4250   25.3940   46.0810 C   0  0  0  0  0  0  0  0  0  0  0  0
   59.5680   25.7000   45.6460 O   0  0  0  0  0  0  0  0  0  0  0  0
   57.2960   26.1430   45.7140 C   0  0  0  0  0  0  0  0  0  0  0  0
   57.4230   27.2760   44.7800 C   0  0  0  0  0  0  0  0  0  0  0  0
   57.4764   27.0524   43.7043 H   0  0  0  0  0  0  0  0  0  0  0  0
   57.4780   28.5700   45.1590 C   0  0  0  0  0  0  0  0  0  0  0  0
   58.0870   29.1380   46.2840 C   0  0  0  0  0  0  0  0  0  0  0  0
   58.8540   28.4530   47.3730 C   0  0  0  0  0  0  0  0  0  0  0  0
   58.4794   28.7876   48.3516 H   0  0  0  0  0  0  0  0  0  0  0  0
   58.7247   27.3643   47.2836 H   0  0  0  0  0  0  0  0  0  0  0  0
   59.9212   28.7041   47.2836 H   0  0  0  0  0  0  0  0  0  0  0  0
   57.9030   30.4720   46.2730 N   0  0  0  0  0  0  0  0  0  0  0  0
   57.2030   30.7860   45.1950 N   0  0  0  0  0  0  0  0  0  0  0  0
   56.8480   32.1670   44.8590 C   0  0  0  0  0  0  0  0  0  0  0  0
   56.2488   32.1691   43.9366 H   0  0  0  0  0  0  0  0  0  0  0  0
   56.2741   32.5923   45.6955 H   0  0  0  0  0  0  0  0  0  0  0  0
   58.0810   33.0120   44.6470 C   0  0  0  0  0  0  0  0  0  0  0  0
   58.5420   33.1280   43.4770 O   0  0  0  0  0  0  0  0  0  0  0  0
   58.7730   33.6280   45.7580 N   0  0  0  0  0  0  0  0  0  0  0  0
   59.9390   34.4970   45.5240 C   0  0  0  0  0  0  0  0  0  0  0  0
   60.2567   34.3973   44.4756 H   0  0  0  0  0  0  0  0  0  0  0  0
   59.6503   35.5355   45.7435 H   0  0  0  0  0  0  0  0  0  0  0  0
   61.1110   34.1110   46.4430 C   0  0  0  0  0  0  0  0  0  0  0  0
   61.6733   33.2957   45.9644 H   0  0  0  0  0  0  0  0  0  0  0  0
   61.7202   35.0161   46.5833 H   0  0  0  0  0  0  0  0  0  0  0  0
   60.6700   33.6390   47.8540 C   0  0  0  0  0  0  0  0  0  0  0  0
   60.7039   32.5395   47.8502 H   0  0  0  0  0  0  0  0  0  0  0  0
   61.6320   34.1470   48.9350 C   0  0  0  0  0  0  0  0  0  0  0  0
   61.2156   33.9271   49.9291 H   0  0  0  0  0  0  0  0  0  0  0  0
   62.6046   33.6449   48.8256 H   0  0  0  0  0  0  0  0  0  0  0  0
   61.7658   35.2333   48.8256 H   0  0  0  0  0  0  0  0  0  0  0  0
   59.2260   34.0580   48.1730 C   0  0  0  0  0  0  0  0  0  0  0  0
   58.9522   33.6894   49.1726 H   0  0  0  0  0  0  0  0  0  0  0  0
   59.1545   35.1554   48.1474 H   0  0  0  0  0  0  0  0  0  0  0  0
   58.2650   33.4660   47.1320 C   0  0  0  0  0  0  0  0  0  0  0  0
   58.1344   32.3935   47.3384 H   0  0  0  0  0  0  0  0  0  0  0  0
   57.3087   34.0044   47.2068 H   0  0  0  0  0  0  0  0  0  0  0  0
   56.9310   29.6630   44.4850 C   0  0  0  0  0  0  0  0  0  0  0  0
   56.2530   29.6450   43.3270 C   0  0  0  0  0  0  0  0  0  0  0  0
   55.8715   30.5835   42.8984 H   0  0  0  0  0  0  0  0  0  0  0  0
   56.0787   28.6918   42.8065 H   0  0  0  0  0  0  0  0  0  0  0  0
  1  2  1  0
  2  3  1  0
  3  4  1  0
  4  5  1  0
  5  6  2  0
  5  7  1  0
  7  8  1  0
  8  9  2  0
  8 10  1  0
 10 11  1  0
 11 12  1  0
 11 13  2  0
 13 14  1  0
 14 15  1  0
 15 16  1  0
 15 17  1  0
 15 18  1  0
 14 19  2  0
 19 20  1  0
 20 21  1  0
 21 22  1  0
 21 23  1  0
 21 24  1  0
 24 25  2  0
 24 26  1  0
 26 27  1  0
 27 28  1  0
 27 29  1  0
 27 30  1  0
 30 31  1  0
 30 32  1  0
 30 33  1  0
 33 34  1  0
 33 35  1  0
 35 36  1  0
 35 37  1  0
 35 38  1  0
 33 39  1  0
 39 40  1  0
 39 41  1  0
 39 42  1  0
 42 43  1  0
 42 44  1  0
 20 45  1  0
 45 46  2  0
 46 47  1  0
 46 48  1  0
 10  3  2  0
 45 13  1  0
 42 26  1  0
M  CHG  2   4  -1   7  -1
M  END
>  <UniqueID>  (40) 
38

>  <SMILES>  (40) 
C=c1/c(=C/c2c(O)[n-]c(=O)[n-]c2=O)c(C)nn1CC(=O)N1CCC(C)CC1

>  <Energy>  (40) 
94.03372429544643

>  <Genealogy>  (40) 
C=c1c(=Cc2c(O)[n-]c(=O)[n-]c2=O)c(C)nn1CC(=O)N1CCC(C)CC1 (protonated)
C=c1/c(=C/c2c(O)[n-]c(=O)[n-]c2=O)c(C)nn1CC(=O)N1CCC(C)CC1 (cis-trans isomerization)
C=c1/c(=C/c2c(O)[n-]c(=O)[n-]c2=O)c(C)nn1CC(=O)N1CCC(C)CC1 (3D coordinates assigned)
C=c1/c(=C/c2c(O)[n-]c(=O)[n-]c2=O)c(C)nn1CC(=O)N1CCC(C)CC1 (nonaromatic ring conformer: 94.03372429544643 kcal/mol)

>  <smiles>  (40) 
C=c1c(=Cc2c(O)[nH]c(=O)[nH]c2=O)c(C)nn1CC(=O)N1CCC(C)CC1

>  <score_type>  (40) 
oracle

>  <origin>  (40) 
adg

>  <m_score__min__energy>  (40) 
-13.85

>  <m_primary>  (40) 
energy

$$$$
40:0
     RDKit          3D

 34 36  0  0  0  0  0  0  0  0999 V2000
   58.3870   29.9010   46.1450 H   0  0  0  0  0  0  0  0  0  0  0  0
   58.3520   30.7110   46.7490 O   0  0  0  0  0  0  0  0  0  0  0  0
   59.1480   31.8350   46.5350 C   0  0  0  0  0  0  0  0  0  0  0  0
   58.7300   32.9230   45.7610 C   0  0  0  0  0  0  0  0  0  0  0  0
   57.4150   33.1140   45.1300 C   0  0  0  0  0  0  0  0  0  0  0  0
   57.0980   34.2680   44.7380 O   0  0  0  0  0  0  0  0  0  0  0  0
   56.4490   32.0590   45.0080 N   0  0  0  0  0  0  0  0  0  0  0  0
   56.4060   31.0130   43.9870 C   0  0  0  0  0  0  0  0  0  0  0  0
   56.8449   31.4028   43.0567 H   0  0  0  0  0  0  0  0  0  0  0  0
   55.3561   30.7235   43.8324 H   0  0  0  0  0  0  0  0  0  0  0  0
   57.1710   29.7990   44.4150 C   0  0  0  0  0  0  0  0  0  0  0  0
   58.3530   29.6370   44.0130 O   0  0  0  0  0  0  0  0  0  0  0  0
   56.5920   28.9200   45.3910 N   0  0  0  0  0  0  0  0  0  0  0  0
   57.0190   27.7850   45.8740 C   0  0  0  0  0  0  0  0  0  0  0  0
   58.3470   27.6930   46.1650 N   0  0  0  0  0  0  0  0  0  0  0  0
   58.9080   26.5780   46.7020 C   0  0  0  0  0  0  0  0  0  0  0  0
   59.9865   26.5538   46.9169 H   0  0  0  0  0  0  0  0  0  0  0  0
   58.1180   25.4670   46.9800 C   0  0  0  0  0  0  0  0  0  0  0  0
   58.5667   24.5576   47.4063 H   0  0  0  0  0  0  0  0  0  0  0  0
   56.7520   25.5200   46.7120 C   0  0  0  0  0  0  0  0  0  0  0  0
   56.1183   24.6468   46.9264 H   0  0  0  0  0  0  0  0  0  0  0  0
   56.1820   26.6770   46.1720 C   0  0  0  0  0  0  0  0  0  0  0  0
   54.8050   26.7070   46.0010 O   0  0  0  0  0  0  0  0  0  0  0  0
   60.0070   34.0200   45.6130 S   0  0  0  0  0  0  0  0  0  0  0  0
   61.0640   33.1610   46.5940 C   0  0  0  0  0  0  0  0  0  0  0  0
   62.3530   33.5170   46.9790 C   0  0  0  0  0  0  0  0  0  0  0  0
   62.8107   34.4518   46.6231 H   0  0  0  0  0  0  0  0  0  0  0  0
   63.0530   32.6520   47.8330 C   0  0  0  0  0  0  0  0  0  0  0  0
   64.0724   32.9085   48.1570 H   0  0  0  0  0  0  0  0  0  0  0  0
   62.4560   31.4570   48.2770 C   0  0  0  0  0  0  0  0  0  0  0  0
   63.0136   30.7840   48.9450 H   0  0  0  0  0  0  0  0  0  0  0  0
   61.1540   31.1170   47.8740 C   0  0  0  0  0  0  0  0  0  0  0  0
   60.6890   30.1813   48.2178 H   0  0  0  0  0  0  0  0  0  0  0  0
   60.4570   31.9890   47.0270 C   0  0  0  0  0  0  0  0  0  0  0  0
  1  2  1  0
  2  3  1  0
  3  4  2  0
  4  5  1  0
  5  6  2  0
  5  7  1  0
  7  8  1  0
  8  9  1  0
  8 10  1  0
  8 11  1  0
 11 12  2  0
 11 13  1  0
 13 14  2  0
 14 15  1  0
 15 16  1  0
 16 17  1  0
 16 18  2  0
 18 19  1  0
 18 20  1  0
 20 21  1  0
 20 22  2  0
 22 23  1  0
  4 24  1  0
 24 25  1  0
 25 26  2  0
 26 27  1  0
 26 28  1  0
 28 29  1  0
 28 30  2  0
 30 31  1  0
 30 32  1  0
 32 33  1  0
 32 34  2  0
 34  3  1  0
 22 14  1  0
 34 25  1  0
M  CHG  3   7  -1  15  -1  23  -1
M  END
>  <UniqueID>  (41) 
39

>  <SMILES>  (41) 
O=C(C[N-]C(=O)c1sc2ccccc2c1O)/N=c1/[n-]cccc1[O-]

>  <Energy>  (41) 
79.6309701151265

>  <Genealogy>  (41) 
O=C(C[N-]C(=O)c1sc2ccccc2c1O)N=c1[n-]cccc1[O-] (protonated)
O=C(C[N-]C(=O)c1sc2ccccc2c1O)/N=c1/[n-]cccc1[O-] (cis-trans isomerization)
O=C(C[N-]C(=O)c1sc2ccccc2c1O)/N=c1/[n-]cccc1[O-] (3D coordinates assigned)
O=C(C[N-]C(=O)c1sc2ccccc2c1O)/N=c1/[n-]cccc1[O-] (optimized conformer: 79.6309701151265 kcal/mol)

>  <smiles>  (41) 
O=C(CNC(=O)c1sc2ccccc2c1O)N=c1[nH]cccc1O

>  <score_type>  (41) 
oracle

>  <origin>  (41) 
adg

>  <m_score__min__energy>  (41) 
-14.140000000000001

>  <m_primary>  (41) 
energy

$$$$
41:0
     RDKit          3D

 48 50  0  0  0  0  0  0  0  0999 V2000
   52.3830   24.4870   45.2350 C   0  0  0  0  0  0  0  0  0  0  0  0
   53.7220   24.0300   45.6470 N   0  0  0  0  0  0  0  0  0  0  0  0
   54.7190   24.9490   45.8260 C   0  0  0  0  0  0  0  0  0  0  0  0
   54.4620   26.3050   45.6270 O   0  0  0  0  0  0  0  0  0  0  0  0
   56.0000   24.5390   46.2230 C   0  0  0  0  0  0  0  0  0  0  0  0
   57.0980   25.5280   46.3800 C   0  0  0  0  0  0  0  0  0  0  0  0
   57.8700   25.4480   47.3730 O   0  0  0  0  0  0  0  0  0  0  0  0
   57.3150   26.5370   45.3800 N   0  0  0  0  0  0  0  0  0  0  0  0
   58.1210   27.7100   45.5880 C   0  0  0  0  0  0  0  0  0  0  0  0
   59.3950   27.6290   46.1780 C   0  0  0  0  0  0  0  0  0  0  0  0
   60.1480   28.7870   46.3870 C   0  0  0  0  0  0  0  0  0  0  0  0
   59.6370   30.0340   46.0180 C   0  0  0  0  0  0  0  0  0  0  0  0
   58.3640   30.1310   45.4420 C   0  0  0  0  0  0  0  0  0  0  0  0
   57.7210   31.7010   44.9620 S   0  0  0  0  0  0  0  0  0  0  0  0
   56.2990   31.5340   44.5050 O   0  0  0  0  0  0  0  0  0  0  0  0
   58.5200   32.2150   43.7960 O   0  0  0  0  0  0  0  0  0  0  0  0
   57.7770   32.8780   46.2600 N   0  0  0  0  0  0  0  0  0  0  0  0
   58.8650   32.6100   47.2200 C   0  0  0  0  0  0  0  0  0  0  0  0
   60.2360   33.1500   46.7470 C   0  0  0  0  0  0  0  0  0  0  0  0
   60.1490   33.9780   45.6050 O   0  0  0  0  0  0  0  0  0  0  0  0
   59.1370   34.9390   45.7900 C   0  0  0  0  0  0  0  0  0  0  0  0
   57.7520   34.2730   45.7710 C   0  0  0  0  0  0  0  0  0  0  0  0
   57.6040   28.9690   45.2440 C   0  0  0  0  0  0  0  0  0  0  0  0
   56.2150   23.1710   46.4540 C   0  0  0  0  0  0  0  0  0  0  0  0
   57.3740   22.7620   46.7470 O   0  0  0  0  0  0  0  0  0  0  0  0
   55.1800   22.2800   46.3440 N   0  0  0  0  0  0  0  0  0  0  0  0
   55.4170   20.8460   46.5930 C   0  0  0  0  0  0  0  0  0  0  0  0
   53.9460   22.7070   45.9260 C   0  0  0  0  0  0  0  0  0  0  0  0
   53.0060   21.8720   45.7940 O   0  0  0  0  0  0  0  0  0  0  0  0
   51.7754   24.6944   46.1282 H   0  0  0  0  0  0  0  0  0  0  0  0
   52.4771   25.4039   44.6346 H   0  0  0  0  0  0  0  0  0  0  0  0
   51.8969   23.7039   44.6346 H   0  0  0  0  0  0  0  0  0  0  0  0
   56.9550   26.3530   44.4160 H   0  0  0  0  0  0  0  0  0  0  0  0
   59.7999   26.6506   46.4759 H   0  0  0  0  0  0  0  0  0  0  0  0
   61.1463   28.7169   46.8435 H   0  0  0  0  0  0  0  0  0  0  0  0
   60.2362   30.9421   46.1803 H   0  0  0  0  0  0  0  0  0  0  0  0
   58.6122   33.0871   48.1784 H   0  0  0  0  0  0  0  0  0  0  0  0
   58.9571   31.5181   47.3163 H   0  0  0  0  0  0  0  0  0  0  0  0
   60.6832   33.7319   47.5664 H   0  0  0  0  0  0  0  0  0  0  0  0
   60.8504   32.2801   46.4716 H   0  0  0  0  0  0  0  0  0  0  0  0
   59.2851   35.4387   46.7587 H   0  0  0  0  0  0  0  0  0  0  0  0
   59.1899   35.6731   44.9725 H   0  0  0  0  0  0  0  0  0  0  0  0
   57.0732   34.8567   46.4101 H   0  0  0  0  0  0  0  0  0  0  0  0
   57.4115   34.2499   44.7253 H   0  0  0  0  0  0  0  0  0  0  0  0
   56.5938   29.0448   44.8153 H   0  0  0  0  0  0  0  0  0  0  0  0
   55.4474   20.6622   47.6771 H   0  0  0  0  0  0  0  0  0  0  0  0
   54.6041   20.2566   46.1438 H   0  0  0  0  0  0  0  0  0  0  0  0
   56.3763   20.5495   46.1438 H   0  0  0  0  0  0  0  0  0  0  0  0
  1  2  1  0
  2  3  1  0
  3  4  1  0
  3  5  2  0
  5  6  1  0
  6  7  2  0
  6  8  1  0
  8  9  1  0
  9 10  2  0
 10 11  1  0
 11 12  2  0
 12 13  1  0
 13 14  1  0
 14 15  2  0
 14 16  2  0
 14 17  1  0
 17 18  1  0
 18 19  1  0
 19 20  1  0
 20 21  1  0
 21 22  1  0
 13 23  2  0
  5 24  1  0
 24 25  2  0
 24 26  1  0
 26 27  1  0
 26 28  1  0
 28 29  2  0
 28  2  1  0
 23  9  1  0
 22 17  1  0
  1 30  1  0
  1 31  1  0
  1 32  1  0
  8 33  1  0
 10 34  1  0
 11 35  1  0
 12 36  1  0
 18 37  1  0
 18 38  1  0
 19 39  1  0
 19 40  1  0
 21 41  1  0
 21 42  1  0
 22 43  1  0
 22 44  1  0
 23 45  1  0
 27 46  1  0
 27 47  1  0
 27 48  1  0
M  CHG  1   4  -1
M  END
>  <UniqueID>  (42) 
40

>  <SMILES>  (42) 
Cn1c([O-])c(C(=O)Nc2cccc(S(=O)(=O)N3CCOCC3)c2)c(=O)n(C)c1=O

>  <Energy>  (42) 
75.84833983692603

>  <Genealogy>  (42) 
Cn1c([O-])c(C(=O)Nc2cccc(S(=O)(=O)N3CCOCC3)c2)c(=O)n(C)c1=O (protonated)
Cn1c([O-])c(C(=O)Nc2cccc(S(=O)(=O)N3CCOCC3)c2)c(=O)n(C)c1=O (3D coordinates assigned)
Cn1c([O-])c(C(=O)Nc2cccc(S(=O)(=O)N3CCOCC3)c2)c(=O)n(C)c1=O (nonaromatic ring conformer: 75.84833983692603 kcal/mol)

>  <smiles>  (42) 
Cn1c(O)c(C(=O)Nc2cccc(S(=O)(=O)N3CCOCC3)c2)c(=O)n(C)c1=O

>  <score_type>  (42) 
oracle

>  <origin>  (42) 
adg

>  <m_score__min__energy>  (42) 
-12.49

>  <m_primary>  (42) 
energy

$$$$
42:0
     RDKit          3D

 51 54  0  0  0  0  0  0  0  0999 V2000
   58.1630   32.4160   42.6430 C   0  0  0  0  0  0  0  0  0  0  0  0
   57.6040   31.2000   43.3210 C   0  0  0  0  0  0  0  0  0  0  0  0
   56.2730   30.8190   43.1020 C   0  0  0  0  0  0  0  0  0  0  0  0
   55.7420   29.7060   43.7550 C   0  0  0  0  0  0  0  0  0  0  0  0
   56.5270   28.9710   44.6490 C   0  0  0  0  0  0  0  0  0  0  0  0
   56.0080   27.9060   45.2550 O   0  0  0  0  0  0  0  0  0  0  0  0
   56.6960   27.1690   46.1190 C   0  0  0  0  0  0  0  0  0  0  0  0
   56.1480   26.1750   46.6630 O   0  0  0  0  0  0  0  0  0  0  0  0
   58.0170   27.4950   46.4340 C   0  0  0  0  0  0  0  0  0  0  0  0
   58.6180   28.6010   45.8190 C   0  0  0  0  0  0  0  0  0  0  0  0
   59.9570   28.9820   46.1810 N   0  0  0  0  0  0  0  0  0  0  0  0
   60.2840   29.7160   47.3750 C   0  0  0  0  0  0  0  0  0  0  0  0
   59.5030   29.6050   48.5370 C   0  0  0  0  0  0  0  0  0  0  0  0
   59.8500   30.3110   49.6910 C   0  0  0  0  0  0  0  0  0  0  0  0
   60.9850   31.1250   49.7010 C   0  0  0  0  0  0  0  0  0  0  0  0
   61.7920   31.2380   48.5550 C   0  0  0  0  0  0  0  0  0  0  0  0
   63.0020   32.0940   48.5660 C   0  0  0  0  0  0  0  0  0  0  0  0
   64.1180   31.6060   48.8940 O   0  0  0  0  0  0  0  0  0  0  0  0
   62.9120   33.4730   48.1930 N   0  0  0  0  0  0  0  0  0  0  0  0
   61.6550   34.1520   47.8970 C   0  0  0  0  0  0  0  0  0  0  0  0
   61.2790   33.9630   46.4250 C   0  0  0  0  0  0  0  0  0  0  0  0
   59.7890   33.8090   46.2770 C   0  0  0  0  0  0  0  0  0  0  0  0
   59.0980   34.5160   45.2770 C   0  0  0  0  0  0  0  0  0  0  0  0
   57.7180   34.3440   45.1200 C   0  0  0  0  0  0  0  0  0  0  0  0
   57.0250   33.4570   45.9470 C   0  0  0  0  0  0  0  0  0  0  0  0
   57.7080   32.7400   46.9340 C   0  0  0  0  0  0  0  0  0  0  0  0
   59.0860   32.9100   47.0980 C   0  0  0  0  0  0  0  0  0  0  0  0
   61.4350   30.5210   47.3970 C   0  0  0  0  0  0  0  0  0  0  0  0
   57.8620   29.3630   44.9050 C   0  0  0  0  0  0  0  0  0  0  0  0
   58.3940   30.4780   44.2310 C   0  0  0  0  0  0  0  0  0  0  0  0
   58.4954   33.1390   43.4024 H   0  0  0  0  0  0  0  0  0  0  0  0
   59.0178   32.1251   42.0147 H   0  0  0  0  0  0  0  0  0  0  0  0
   57.3857   32.8754   42.0147 H   0  0  0  0  0  0  0  0  0  0  0  0
   55.6439   31.4003   42.4119 H   0  0  0  0  0  0  0  0  0  0  0  0
   54.7010   29.4053   43.5657 H   0  0  0  0  0  0  0  0  0  0  0  0
   58.5805   26.8888   47.1585 H   0  0  0  0  0  0  0  0  0  0  0  0
   60.7220   28.7740   45.4990 H   0  0  0  0  0  0  0  0  0  0  0  0
   58.6131   28.9584   48.5382 H   0  0  0  0  0  0  0  0  0  0  0  0
   59.2279   30.2258   50.5942 H   0  0  0  0  0  0  0  0  0  0  0  0
   61.2495   31.6818   50.6121 H   0  0  0  0  0  0  0  0  0  0  0  0
   60.8592   33.7336   48.5308 H   0  0  0  0  0  0  0  0  0  0  0  0
   61.7742   35.2267   48.0993 H   0  0  0  0  0  0  0  0  0  0  0  0
   61.6110   34.8407   45.8510 H   0  0  0  0  0  0  0  0  0  0  0  0
   61.7699   33.0544   46.0463 H   0  0  0  0  0  0  0  0  0  0  0  0
   59.6435   35.2060   44.6165 H   0  0  0  0  0  0  0  0  0  0  0  0
   57.1786   34.9078   44.3446 H   0  0  0  0  0  0  0  0  0  0  0  0
   55.9405   33.3224   45.8216 H   0  0  0  0  0  0  0  0  0  0  0  0
   57.1601   32.0408   47.5828 H   0  0  0  0  0  0  0  0  0  0  0  0
   59.6213   32.3391   47.8710 H   0  0  0  0  0  0  0  0  0  0  0  0
   62.0653   30.5921   46.4983 H   0  0  0  0  0  0  0  0  0  0  0  0
   59.4335   30.7857   44.4176 H   0  0  0  0  0  0  0  0  0  0  0  0
  1  2  1  0
  2  3  2  0
  3  4  1  0
  4  5  2  0
  5  6  1  0
  6  7  1  0
  7  8  2  0
  7  9  1  0
  9 10  2  0
 10 11  1  0
 11 12  1  0
 12 13  2  0
 13 14  1  0
 14 15  2  0
 15 16  1  0
 16 17  1  0
 17 18  2  0
 17 19  1  0
 19 20  1  0
 20 21  1  0
 21 22  1  0
 22 23  2  0
 23 24  1  0
 24 25  2  0
 25 26  1  0
 26 27  2  0
 16 28  2  0
 10 29  1  0
 29 30  2  0
 30  2  1  0
 29  5  1  0
 28 12  1  0
 27 22  1  0
  1 31  1  0
  1 32  1  0
  1 33  1  0
  3 34  1  0
  4 35  1  0
  9 36  1  0
 11 37  1  0
 13 38  1  0
 14 39  1  0
 15 40  1  0
 20 41  1  0
 20 42  1  0
 21 43  1  0
 21 44  1  0
 23 45  1  0
 24 46  1  0
 25 47  1  0
 26 48  1  0
 27 49  1  0
 28 50  1  0
 30 51  1  0
M  CHG  1  19  -1
M  END
>  <UniqueID>  (43) 
41

>  <SMILES>  (43) 
Cc1ccc2oc(=O)cc(Nc3cccc(C(=O)[N-]CCc4ccccc4)c3)c2c1

>  <Energy>  (43) 
62.57159477421312

>  <Genealogy>  (43) 
Cc1ccc2oc(=O)cc(Nc3cccc(C(=O)[N-]CCc4ccccc4)c3)c2c1 (protonated)
Cc1ccc2oc(=O)cc(Nc3cccc(C(=O)[N-]CCc4ccccc4)c3)c2c1 (3D coordinates assigned)
Cc1ccc2oc(=O)cc(Nc3cccc(C(=O)[N-]CCc4ccccc4)c3)c2c1 (optimized conformer: 62.57159477421312 kcal/mol)

>  <smiles>  (43) 
Cc1ccc2oc(=O)cc(Nc3cccc(C(=O)NCCc4ccccc4)c3)c2c1

>  <score_type>  (43) 
oracle

>  <origin>  (43) 
adg

>  <m_score__min__energy>  (43) 
-11.23

>  <m_primary>  (43) 
energy

$$$$
43:0
     RDKit          3D

 45 47  0  0  0  0  0  0  0  0999 V2000
   56.9880   30.9130   44.8630 O   0  0  0  0  0  0  0  0  0  0  0  0
   57.5560   29.9620   45.4650 C   0  0  0  0  0  0  0  0  0  0  0  0
   57.1530   28.5640   45.2060 C   0  0  0  0  0  0  0  0  0  0  0  0
   57.5400   27.4940   45.9190 C   0  0  0  0  0  0  0  0  0  0  0  0
   57.1210   26.0990   45.6600 C   0  0  0  0  0  0  0  0  0  0  0  0
   58.0670   25.1210   45.2970 C   0  0  0  0  0  0  0  0  0  0  0  0
   57.6570   23.8150   45.0160 C   0  0  0  0  0  0  0  0  0  0  0  0
   56.3030   23.4780   45.0710 C   0  0  0  0  0  0  0  0  0  0  0  0
   55.3540   24.4480   45.4010 C   0  0  0  0  0  0  0  0  0  0  0  0
   55.7570   25.7580   45.6870 C   0  0  0  0  0  0  0  0  0  0  0  0
   54.7960   26.7130   46.0070 O   0  0  0  0  0  0  0  0  0  0  0  0
   58.6140   30.2260   46.4000 N   0  0  0  0  0  0  0  0  0  0  0  0
   59.1760   31.5290   46.6270 C   0  0  0  0  0  0  0  0  0  0  0  0
   58.3210   32.6340   46.7610 C   0  0  0  0  0  0  0  0  0  0  0  0
   58.8440   33.9100   46.9780 C   0  0  0  0  0  0  0  0  0  0  0  0
   60.2260   34.0960   47.0720 C   0  0  0  0  0  0  0  0  0  0  0  0
   61.0920   33.0000   46.9620 C   0  0  0  0  0  0  0  0  0  0  0  0
   62.8380   33.2330   47.0620 S   0  0  0  0  0  0  0  0  0  0  0  0
   63.5290   31.9270   46.7870 O   0  0  0  0  0  0  0  0  0  0  0  0
   63.2660   34.2140   46.0050 O   0  0  0  0  0  0  0  0  0  0  0  0
   63.3300   33.8240   48.6360 N   0  0  0  0  0  0  0  0  0  0  0  0
   64.4760   33.0680   49.1500 C   0  0  0  0  0  0  0  0  0  0  0  0
   63.9550   32.0060   50.1060 C   0  0  0  0  0  0  0  0  0  0  0  0
   62.5390   32.4180   50.4490 C   0  0  0  0  0  0  0  0  0  0  0  0
   62.2560   33.6660   49.6240 C   0  0  0  0  0  0  0  0  0  0  0  0
   60.5630   31.7170   46.7600 C   0  0  0  0  0  0  0  0  0  0  0  0
   56.4780   28.3845   44.3562 H   0  0  0  0  0  0  0  0  0  0  0  0
   58.2232   27.6687   46.7632 H   0  0  0  0  0  0  0  0  0  0  0  0
   59.1327   25.3861   45.2344 H   0  0  0  0  0  0  0  0  0  0  0  0
   58.4025   23.0508   44.7509 H   0  0  0  0  0  0  0  0  0  0  0  0
   55.9837   22.4479   44.8543 H   0  0  0  0  0  0  0  0  0  0  0  0
   54.2872   24.1821   45.4363 H   0  0  0  0  0  0  0  0  0  0  0  0
   58.9050   29.4500   47.0370 H   0  0  0  0  0  0  0  0  0  0  0  0
   57.2320   32.4937   46.6946 H   0  0  0  0  0  0  0  0  0  0  0  0
   58.1667   34.7713   47.0753 H   0  0  0  0  0  0  0  0  0  0  0  0
   60.6346   35.1046   47.2326 H   0  0  0  0  0  0  0  0  0  0  0  0
   65.0100   32.5887   48.3163 H   0  0  0  0  0  0  0  0  0  0  0  0
   65.1715   33.7412   49.6726 H   0  0  0  0  0  0  0  0  0  0  0  0
   63.9598   31.0187   49.6211 H   0  0  0  0  0  0  0  0  0  0  0  0
   64.5830   31.9283   51.0057 H   0  0  0  0  0  0  0  0  0  0  0  0
   61.8329   31.6168   50.1853 H   0  0  0  0  0  0  0  0  0  0  0  0
   62.4242   32.6111   51.5258 H   0  0  0  0  0  0  0  0  0  0  0  0
   61.2902   33.5590   49.1084 H   0  0  0  0  0  0  0  0  0  0  0  0
   62.2128   34.5490   50.2786 H   0  0  0  0  0  0  0  0  0  0  0  0
   61.2387   30.8507   46.7052 H   0  0  0  0  0  0  0  0  0  0  0  0
  1  2  2  0
  2  3  1  0
  3  4  2  3
  4  5  1  0
  5  6  2  0
  6  7  1  0
  7  8  2  0
  8  9  1  0
  9 10  2  0
 10 11  1  0
  2 12  1  0
 12 13  1  0
 13 14  2  0
 14 15  1  0
 15 16  2  0
 16 17  1  0
 17 18  1  0
 18 19  2  0
 18 20  2  0
 18 21  1  0
 21 22  1  0
 22 23  1  0
 23 24  1  0
 24 25  1  0
 17 26  2  0
 10  5  1  0
 26 13  1  0
 25 21  1  0
  3 27  1  0
  4 28  1  0
  6 29  1  0
  7 30  1  0
  8 31  1  0
  9 32  1  0
 12 33  1  0
 14 34  1  0
 15 35  1  0
 16 36  1  0
 22 37  1  0
 22 38  1  0
 23 39  1  0
 23 40  1  0
 24 41  1  0
 24 42  1  0
 25 43  1  0
 25 44  1  0
 26 45  1  0
M  CHG  1  11  -1
M  END
>  <UniqueID>  (44) 
42

>  <SMILES>  (44) 
O=C(C=Cc1ccccc1[O-])Nc1cccc(S(=O)(=O)N2CCCC2)c1

>  <Energy>  (44) 
57.0098068770602

>  <Genealogy>  (44) 
O=C(C=Cc1ccccc1[O-])Nc1cccc(S(=O)(=O)N2CCCC2)c1 (protonated)
O=C(C=Cc1ccccc1[O-])Nc1cccc(S(=O)(=O)N2CCCC2)c1 (3D coordinates assigned)
O=C(C=Cc1ccccc1[O-])Nc1cccc(S(=O)(=O)N2CCCC2)c1 (nonaromatic ring conformer: 57.0098068770602 kcal/mol)

>  <smiles>  (44) 
O=C(C=Cc1ccccc1O)Nc1cccc(S(=O)(=O)N2CCCC2)c1

>  <score_type>  (44) 
oracle

>  <origin>  (44) 
adg

>  <m_score__min__energy>  (44) 
-12.73

>  <m_primary>  (44) 
energy

$$$$
44:0
     RDKit          3D

 53 56  0  0  0  0  0  0  0  0999 V2000
   59.2600   23.3920   45.5160 C   0  0  0  0  0  0  0  0  0  0  0  0
   58.3700   24.5720   45.8150 C   0  0  0  0  0  0  0  0  0  0  0  0
   56.9800   24.4160   45.7020 C   0  0  0  0  0  0  0  0  0  0  0  0
   56.1240   25.4800   45.9720 C   0  0  0  0  0  0  0  0  0  0  0  0
   56.6410   26.7180   46.3470 C   0  0  0  0  0  0  0  0  0  0  0  0
   58.0290   26.9090   46.4570 C   0  0  0  0  0  0  0  0  0  0  0  0
   58.5640   28.1850   46.8460 N   0  0  0  0  0  0  0  0  0  0  0  0
   59.1750   29.1530   45.9840 C   0  0  0  0  0  0  0  0  0  0  0  0
   60.4300   29.2040   45.8680 O   0  0  0  0  0  0  0  0  0  0  0  0
   58.3220   30.1060   45.2390 C   0  0  0  0  0  0  0  0  0  0  0  0
   58.2790   31.4360   45.5170 C   0  0  0  0  0  0  0  0  0  0  0  0
   59.0080   32.0580   46.6500 C   0  0  0  0  0  0  0  0  0  0  0  0
   59.1940   31.4260   47.7260 O   0  0  0  0  0  0  0  0  0  0  0  0
   59.4400   33.4230   46.5220 N   0  0  0  0  0  0  0  0  0  0  0  0
   59.9680   34.1660   47.6720 C   0  0  0  0  0  0  0  0  0  0  0  0
   61.4240   33.8400   47.8730 C   0  0  0  0  0  0  0  0  0  0  0  0
   61.9770   33.8590   49.1650 C   0  0  0  0  0  0  0  0  0  0  0  0
   63.3180   33.5130   49.3610 C   0  0  0  0  0  0  0  0  0  0  0  0
   64.1130   33.1420   48.2740 C   0  0  0  0  0  0  0  0  0  0  0  0
   63.5680   33.1130   46.9860 C   0  0  0  0  0  0  0  0  0  0  0  0
   62.2270   33.4590   46.7850 C   0  0  0  0  0  0  0  0  0  0  0  0
   59.2130   34.0930   45.2370 C   0  0  0  0  0  0  0  0  0  0  0  0
   57.7620   33.8670   44.8000 C   0  0  0  0  0  0  0  0  0  0  0  0
   57.4010   32.3600   44.6700 C   0  0  1  0  0  0  0  0  0  0  0  0
   57.4200   31.9020   43.2030 C   0  0  0  0  0  0  0  0  0  0  0  0
   57.0700   30.5230   43.1310 O   0  0  0  0  0  0  0  0  0  0  0  0
   57.5720   29.6100   44.0610 C   0  0  0  0  0  0  0  0  0  0  0  0
   57.3890   28.3770   43.8790 O   0  0  0  0  0  0  0  0  0  0  0  0
   58.9030   25.8180   46.2390 C   0  0  0  0  0  0  0  0  0  0  0  0
   60.3980   26.0070   46.3710 C   0  0  0  0  0  0  0  0  0  0  0  0
   59.6002   22.9409   46.4598 H   0  0  0  0  0  0  0  0  0  0  0  0
   58.6974   22.6463   44.9350 H   0  0  0  0  0  0  0  0  0  0  0  0
   60.1316   23.7280   44.9350 H   0  0  0  0  0  0  0  0  0  0  0  0
   56.5633   23.4446   45.3975 H   0  0  0  0  0  0  0  0  0  0  0  0
   55.0358   25.3428   45.8890 H   0  0  0  0  0  0  0  0  0  0  0  0
   55.9571   27.5531   46.5588 H   0  0  0  0  0  0  0  0  0  0  0  0
   59.8584   35.2452   47.4895 H   0  0  0  0  0  0  0  0  0  0  0  0
   59.4068   33.8806   48.5740 H   0  0  0  0  0  0  0  0  0  0  0  0
   61.3535   34.1468   50.0243 H   0  0  0  0  0  0  0  0  0  0  0  0
   63.7476   33.5331   50.3735 H   0  0  0  0  0  0  0  0  0  0  0  0
   65.1679   32.8726   48.4309 H   0  0  0  0  0  0  0  0  0  0  0  0
   64.1938   32.8181   46.1308 H   0  0  0  0  0  0  0  0  0  0  0  0
   61.8002   33.4326   45.7715 H   0  0  0  0  0  0  0  0  0  0  0  0
   59.4006   35.1714   45.3462 H   0  0  0  0  0  0  0  0  0  0  0  0
   59.8955   33.6802   44.4795 H   0  0  0  0  0  0  0  0  0  0  0  0
   57.0949   34.3255   45.5448 H   0  0  0  0  0  0  0  0  0  0  0  0
   57.6395   34.3244   43.8071 H   0  0  0  0  0  0  0  0  0  0  0  0
   56.3785   32.2759   45.0667 H   0  0  0  0  0  0  0  0  0  0  0  0
   56.6960   32.4946   42.6245 H   0  0  0  0  0  0  0  0  0  0  0  0
   58.4280   32.0464   42.7870 H   0  0  0  0  0  0  0  0  0  0  0  0
   60.6706   26.0415   47.4361 H   0  0  0  0  0  0  0  0  0  0  0  0
   60.9179   25.1674   45.8864 H   0  0  0  0  0  0  0  0  0  0  0  0
   60.6926   26.9495   45.8864 H   0  0  0  0  0  0  0  0  0  0  0  0
  1  2  1  0
  2  3  2  0
  3  4  1  0
  4  5  2  0
  5  6  1  0
  6  7  1  0
  7  8  1  0
  8  9  2  0
  8 10  1  0
 10 11  2  0
 11 12  1  0
 12 13  2  0
 12 14  1  0
 14 15  1  0
 15 16  1  0
 16 17  2  0
 17 18  1  0
 18 19  2  0
 19 20  1  0
 20 21  2  0
 14 22  1  0
 22 23  1  0
 23 24  1  0
 24 25  1  0
 25 26  1  0
 26 27  1  0
 27 28  2  0
  6 29  2  0
 29 30  1  0
 29  2  1  0
 27 10  1  0
 24 11  1  0
 21 16  1  0
  1 31  1  0
  1 32  1  0
  1 33  1  0
  3 34  1  0
  4 35  1  0
  5 36  1  0
 15 37  1  0
 15 38  1  0
 17 39  1  0
 18 40  1  0
 19 41  1  0
 20 42  1  0
 21 43  1  0
 22 44  1  0
 22 45  1  0
 23 46  1  0
 23 47  1  0
 24 48  1  1
 25 49  1  0
 25 50  1  0
 30 51  1  0
 30 52  1  0
 30 53  1  0
M  CHG  1   7  -1
M  END
>  <UniqueID>  (45) 
43

>  <SMILES>  (45) 
Cc1cccc([N-]C(=O)C2=C3C(=O)N(Cc4ccccc4)CC[C@H]3COC2=O)c1C

>  <Energy>  (45) 
72.49219559545088

>  <Genealogy>  (45) 
Cc1cccc([N-]C(=O)C2=C3C(=O)N(Cc4ccccc4)CCC3COC2=O)c1C (protonated)
Cc1cccc([N-]C(=O)C2=C3C(=O)N(Cc4ccccc4)CC[C@H]3COC2=O)c1C (chirality)
Cc1cccc([N-]C(=O)C2=C3C(=O)N(Cc4ccccc4)CC[C@H]3COC2=O)c1C (3D coordinates assigned)
Cc1cccc([N-]C(=O)C2=C3C(=O)N(Cc4ccccc4)CC[C@H]3COC2=O)c1C (nonaromatic ring conformer: 72.49219559545088 kcal/mol)

>  <smiles>  (45) 
Cc1cccc(NC(=O)C2=C3C(=O)N(Cc4ccccc4)CCC3COC2=O)c1C

>  <score_type>  (45) 
oracle

>  <origin>  (45) 
adg

>  <m_score__min__energy>  (45) 
-11

>  <m_primary>  (45) 
energy

$$$$
45:0
     RDKit          3D

 37 39  0  0  0  0  0  0  0  0999 V2000
   55.4250   23.8260   44.2390 C   0  0  0  0  0  0  0  0  0  0  0  0
   55.2570   24.6040   45.8310 S   0  0  0  0  0  0  0  0  0  0  0  0
   54.3740   23.7820   46.7270 O   0  0  0  0  0  0  0  0  0  0  0  0
   54.6280   25.9550   45.6420 O   0  0  0  0  0  0  0  0  0  0  0  0
   56.8150   24.8130   46.5620 N   0  0  0  0  0  0  0  0  0  0  0  0
   57.6260   25.9940   46.4910 C   0  0  0  0  0  0  0  0  0  0  0  0
   58.8650   25.9900   47.1370 C   0  0  0  0  0  0  0  0  0  0  0  0
   59.6910   27.1140   47.0920 C   0  0  0  0  0  0  0  0  0  0  0  0
   59.2930   28.2650   46.3910 C   0  0  0  0  0  0  0  0  0  0  0  0
   60.1050   29.4110   46.3730 O   0  0  0  0  0  0  0  0  0  0  0  0
   59.9050   30.5630   47.1470 C   0  0  0  0  0  0  0  0  0  0  0  0
   60.2830   31.8400   46.6910 C   0  0  0  0  0  0  0  0  0  0  0  0
   60.0520   32.9690   47.4840 C   0  0  0  0  0  0  0  0  0  0  0  0
   59.4330   32.8340   48.7300 C   0  0  0  0  0  0  0  0  0  0  0  0
   59.2080   33.9290   49.4970 F   0  0  0  0  0  0  0  0  0  0  0  0
   59.0390   31.5710   49.1810 C   0  0  0  0  0  0  0  0  0  0  0  0
   59.2680   30.4400   48.3900 C   0  0  0  0  0  0  0  0  0  0  0  0
   58.8780   29.2190   48.8350 F   0  0  0  0  0  0  0  0  0  0  0  0
   58.0350   28.2900   45.7530 C   0  0  0  0  0  0  0  0  0  0  0  0
   57.5910   29.4940   45.0110 C   0  0  0  0  0  0  0  0  0  0  0  0
   58.4220   30.4590   44.5730 N   0  0  0  0  0  0  0  0  0  0  0  0
   57.6000   31.3360   43.9610 C   0  0  0  0  0  0  0  0  0  0  0  0
   58.0190   32.3900   43.4140 O   0  0  0  0  0  0  0  0  0  0  0  0
   56.2940   30.9980   43.9820 N   0  0  0  0  0  0  0  0  0  0  0  0
   56.3000   29.8330   44.6510 C   0  0  0  0  0  0  0  0  0  0  0  0
   55.1500   29.1090   44.9480 O   0  0  0  0  0  0  0  0  0  0  0  0
   57.2170   27.1460   45.7960 C   0  0  0  0  0  0  0  0  0  0  0  0
   55.6554   22.7590   44.3748 H   0  0  0  0  0  0  0  0  0  0  0  0
   54.4838   23.9295   43.6791 H   0  0  0  0  0  0  0  0  0  0  0  0
   56.2396   24.3087   43.6791 H   0  0  0  0  0  0  0  0  0  0  0  0
   59.1918   25.0941   47.6852 H   0  0  0  0  0  0  0  0  0  0  0  0
   60.6615   27.0988   47.6095 H   0  0  0  0  0  0  0  0  0  0  0  0
   60.7620   31.9506   45.7070 H   0  0  0  0  0  0  0  0  0  0  0  0
   60.3576   33.9635   47.1269 H   0  0  0  0  0  0  0  0  0  0  0  0
   58.5480   31.4661   50.1597 H   0  0  0  0  0  0  0  0  0  0  0  0
   55.1430   28.0990   44.8780 H   0  0  0  0  0  0  0  0  0  0  0  0
   56.2457   27.1529   45.2797 H   0  0  0  0  0  0  0  0  0  0  0  0
  1  2  1  0
  2  3  2  0
  2  4  2  0
  2  5  1  0
  5  6  1  0
  6  7  2  0
  7  8  1  0
  8  9  2  0
  9 10  1  0
 10 11  1  0
 11 12  2  0
 12 13  1  0
 13 14  2  0
 14 15  1  0
 14 16  1  0
 16 17  2  0
 17 18  1  0
  9 19  1  0
 19 20  1  0
 20 21  1  0
 21 22  1  0
 22 23  2  0
 22 24  1  0
 24 25  1  0
 25 26  1  0
 19 27  2  0
 27  6  1  0
 17 11  1  0
 25 20  2  0
  1 28  1  0
  1 29  1  0
  1 30  1  0
  7 31  1  0
  8 32  1  0
 12 33  1  0
 13 34  1  0
 16 35  1  0
 26 36  1  0
 27 37  1  0
M  CHG  3   5  -1  21  -1  24  -1
M  END
>  <UniqueID>  (46) 
44

>  <SMILES>  (46) 
CS(=O)(=O)[N-]c1ccc(Oc2ccc(F)cc2F)c(-c2[n-]c(=O)[n-]c2O)c1

>  <Energy>  (46) 
77.69152478470382

>  <Genealogy>  (46) 
CS(=O)(=O)[N-]c1ccc(Oc2ccc(F)cc2F)c(-c2[n-]c(=O)[n-]c2O)c1 (protonated)
CS(=O)(=O)[N-]c1ccc(Oc2ccc(F)cc2F)c(-c2[n-]c(=O)[n-]c2O)c1 (3D coordinates assigned)
CS(=O)(=O)[N-]c1ccc(Oc2ccc(F)cc2F)c(-c2[n-]c(=O)[n-]c2O)c1 (optimized conformer: 77.69152478470382 kcal/mol)

>  <smiles>  (46) 
CS(=O)(=O)Nc1ccc(Oc2ccc(F)cc2F)c(-c2[nH]c(=O)[nH]c2O)c1

>  <score_type>  (46) 
oracle

>  <origin>  (46) 
adg

>  <m_score__min__energy>  (46) 
-12.529999999999999

>  <m_primary>  (46) 
energy

$$$$
46:0
     RDKit          3D

 52 54  0  0  0  0  0  0  0  0999 V2000
   60.2502   30.3168   44.6357 H   0  0  0  0  0  0  0  0  0  0  0  0
   59.1860   30.0460   44.7000 C   0  0  0  0  0  0  0  0  0  0  0  0
   58.8200   28.7350   44.8440 N   0  0  0  0  0  0  0  0  0  0  0  0
   57.5180   28.3340   44.9490 C   0  0  0  0  0  0  0  0  0  0  0  0
   57.2690   27.0500   45.0750 N   0  0  0  0  0  0  0  0  0  0  0  0
   56.6200   26.3790   46.1650 C   0  0  0  0  0  0  0  0  0  0  0  0
   55.3550   26.3160   46.2000 O   0  0  0  0  0  0  0  0  0  0  0  0
   57.4320   25.6080   47.1700 C   0  0  0  0  0  0  0  0  0  0  0  0
   56.9903   25.7434   48.1683 H   0  0  0  0  0  0  0  0  0  0  0  0
   57.4240   24.5459   46.8839 H   0  0  0  0  0  0  0  0  0  0  0  0
   58.8840   26.0930   47.1960 C   0  0  0  0  0  0  0  0  0  0  0  0
   59.4337   25.5334   47.9671 H   0  0  0  0  0  0  0  0  0  0  0  0
   59.3217   25.9234   46.2012 H   0  0  0  0  0  0  0  0  0  0  0  0
   58.9680   27.5230   47.4960 N   0  0  0  0  0  0  0  0  0  0  0  0
   58.4230   28.1680   46.8900 H   0  0  0  0  0  0  0  0  0  0  0  0
   59.6890   28.0340   48.6320 C   0  0  0  0  0  0  0  0  0  0  0  0
   60.3970   27.2480   49.3170 O   0  0  0  0  0  0  0  0  0  0  0  0
   59.6000   29.4640   49.0320 C   0  0  0  0  0  0  0  0  0  0  0  0
   58.7060   29.8910   50.0310 C   0  0  0  0  0  0  0  0  0  0  0  0
   58.0766   29.1562   50.5543 H   0  0  0  0  0  0  0  0  0  0  0  0
   58.6150   31.2530   50.3620 C   0  0  0  0  0  0  0  0  0  0  0  0
   57.9189   31.5774   51.1496 H   0  0  0  0  0  0  0  0  0  0  0  0
   59.4040   32.2030   49.6970 C   0  0  0  0  0  0  0  0  0  0  0  0
   59.3255   33.2670   49.9648 H   0  0  0  0  0  0  0  0  0  0  0  0
   60.2920   31.7980   48.6920 C   0  0  0  0  0  0  0  0  0  0  0  0
   61.2300   33.0000   47.7930 S   0  0  0  0  0  0  0  0  0  0  0  0
   62.0930   32.3000   46.7760 O   0  0  0  0  0  0  0  0  0  0  0  0
   62.1360   33.7360   48.7420 O   0  0  0  0  0  0  0  0  0  0  0  0
   60.1810   34.1530   46.9860 N   0  0  0  0  0  0  0  0  0  0  0  0
   60.0730   33.8380   45.5400 C   0  0  0  0  0  0  0  0  0  0  0  0
   60.9800   34.1944   45.0298 H   0  0  0  0  0  0  0  0  0  0  0  0
   59.9613   32.7486   45.4361 H   0  0  0  0  0  0  0  0  0  0  0  0
   58.8480   34.5050   44.8980 C   0  0  0  0  0  0  0  0  0  0  0  0
   58.9286   35.5951   45.0209 H   0  0  0  0  0  0  0  0  0  0  0  0
   58.8244   34.2329   43.8324 H   0  0  0  0  0  0  0  0  0  0  0  0
   57.5400   34.0230   45.5500 C   0  0  0  0  0  0  0  0  0  0  0  0
   56.8279   34.8611   45.5714 H   0  0  0  0  0  0  0  0  0  0  0  0
   57.1608   33.1818   44.9511 H   0  0  0  0  0  0  0  0  0  0  0  0
   57.7450   33.5140   46.9890 C   0  0  0  0  0  0  0  0  0  0  0  0
   56.8131   33.6535   47.5565 H   0  0  0  0  0  0  0  0  0  0  0  0
   58.0152   32.4484   46.9496 H   0  0  0  0  0  0  0  0  0  0  0  0
   58.8810   34.2840   47.6880 C   0  0  0  0  0  0  0  0  0  0  0  0
   58.6098   35.3492   47.7296 H   0  0  0  0  0  0  0  0  0  0  0  0
   59.0027   33.8543   48.6933 H   0  0  0  0  0  0  0  0  0  0  0  0
   60.3950   30.4290   48.3740 C   0  0  0  0  0  0  0  0  0  0  0  0
   61.1068   30.1061   47.6000 H   0  0  0  0  0  0  0  0  0  0  0  0
   56.5000   29.3210   44.8720 C   0  0  0  0  0  0  0  0  0  0  0  0
   55.1440   28.9860   44.8630 O   0  0  0  0  0  0  0  0  0  0  0  0
   56.8630   30.6700   44.7230 C   0  0  0  0  0  0  0  0  0  0  0  0
   56.0821   31.4433   44.6752 H   0  0  0  0  0  0  0  0  0  0  0  0
   58.2090   31.0370   44.6350 C   0  0  0  0  0  0  0  0  0  0  0  0
   58.4927   32.0931   44.5161 H   0  0  0  0  0  0  0  0  0  0  0  0
  1  2  1  0
  2  3  1  0
  3  4  1  0
  4  5  2  0
  5  6  1  0
  6  7  2  0
  6  8  1  0
  8  9  1  0
  8 10  1  0
  8 11  1  0
 11 12  1  0
 11 13  1  0
 11 14  1  0
 14 15  1  0
 14 16  1  0
 16 17  2  0
 16 18  1  0
 18 19  2  0
 19 20  1  0
 19 21  1  0
 21 22  1  0
 21 23  2  0
 23 24  1  0
 23 25  1  0
 25 26  1  0
 26 27  2  0
 26 28  2  0
 26 29  1  0
 29 30  1  0
 30 31  1  0
 30 32  1  0
 30 33  1  0
 33 34  1  0
 33 35  1  0
 33 36  1  0
 36 37  1  0
 36 38  1  0
 36 39  1  0
 39 40  1  0
 39 41  1  0
 39 42  1  0
 42 43  1  0
 42 44  1  0
 25 45  2  0
 45 46  1  0
  4 47  1  0
 47 48  1  0
 47 49  2  0
 49 50  1  0
 49 51  1  0
 51 52  1  0
 51  2  2  0
 45 18  1  0
 42 29  1  0
M  CHG  2   3  -1  48  -1
M  END
>  <UniqueID>  (47) 
45

>  <SMILES>  (47) 
O=C(CCNC(=O)c1cccc(S(=O)(=O)N2CCCCC2)c1)/N=c1/[n-]cccc1[O-]

>  <Energy>  (47) 
67.6290186684417

>  <Genealogy>  (47) 
O=C(CCNC(=O)c1cccc(S(=O)(=O)N2CCCCC2)c1)N=c1[n-]cccc1[O-] (protonated)
O=C(CCNC(=O)c1cccc(S(=O)(=O)N2CCCCC2)c1)/N=c1/[n-]cccc1[O-] (cis-trans isomerization)
O=C(CCNC(=O)c1cccc(S(=O)(=O)N2CCCCC2)c1)/N=c1/[n-]cccc1[O-] (3D coordinates assigned)
O=C(CCNC(=O)c1cccc(S(=O)(=O)N2CCCCC2)c1)/N=c1/[n-]cccc1[O-] (nonaromatic ring conformer: 67.6290186684417 kcal/mol)

>  <smiles>  (47) 
O=C(CCNC(=O)c1cccc(S(=O)(=O)N2CCCCC2)c1)N=c1[nH]cccc1O

>  <score_type>  (47) 
oracle

>  <origin>  (47) 
adg

>  <m_score__min__energy>  (47) 
-14.15

>  <m_primary>  (47) 
energy

$$$$
47:0
     RDKit          3D

 36 37  0  0  0  0  0  0  0  0999 V2000
   53.7251   29.2276   55.4726 H   0  0  0  0  0  0  0  0  0  0  0  0
   53.5840   29.2520   54.3820 C   0  0  0  0  0  0  0  0  0  0  0  0
   54.7710   29.0340   53.5330 C   0  0  0  0  0  0  0  0  0  0  0  0
   55.0990   27.8500   53.2580 O   0  0  0  0  0  0  0  0  0  0  0  0
   55.5710   30.1310   53.0460 N   0  0  0  0  0  0  0  0  0  0  0  0
   55.0170   31.0400   52.0350 C   0  0  0  0  0  0  0  0  0  0  0  0
   54.5070   31.8769   52.5345 H   0  0  0  0  0  0  0  0  0  0  0  0
   55.8314   31.4295   51.4065 H   0  0  0  0  0  0  0  0  0  0  0  0
   54.2975   30.4947   51.4065 H   0  0  0  0  0  0  0  0  0  0  0  0
   56.9160   30.3680   53.5920 C   0  0  0  0  0  0  0  0  0  0  0  0
   56.8227   30.8012   54.5988 H   0  0  0  0  0  0  0  0  0  0  0  0
   57.4496   29.4068   53.6296 H   0  0  0  0  0  0  0  0  0  0  0  0
   57.7040   31.3170   52.7190 C   0  0  0  0  0  0  0  0  0  0  0  0
   58.0740   32.5790   53.2170 C   0  0  0  0  0  0  0  0  0  0  0  0
   57.7701   32.8754   54.2318 H   0  0  0  0  0  0  0  0  0  0  0  0
   58.8240   33.4590   52.4340 C   0  0  0  0  0  0  0  0  0  0  0  0
   59.1096   34.4430   52.8342 H   0  0  0  0  0  0  0  0  0  0  0  0
   59.2120   33.0920   51.1440 C   0  0  0  0  0  0  0  0  0  0  0  0
   59.8060   33.7853   50.5304 H   0  0  0  0  0  0  0  0  0  0  0  0
   58.8460   31.8440   50.6320 C   0  0  0  0  0  0  0  0  0  0  0  0
   59.2310   31.4880   49.3450 O   0  0  0  0  0  0  0  0  0  0  0  0
   58.0920   30.9560   51.4120 C   0  0  0  0  0  0  0  0  0  0  0  0
   57.7250   29.7260   50.8780 O   0  0  0  0  0  0  0  0  0  0  0  0
   52.3440   29.4780   53.9190 C   0  0  0  0  0  0  0  0  0  0  0  0
   51.5068   29.0090   54.4568 H   0  0  0  0  0  0  0  0  0  0  0  0
   52.0190   30.3110   52.7390 C   0  0  0  0  0  0  0  0  0  0  0  0
   52.1860   29.8290   51.4280 C   0  0  0  0  0  0  0  0  0  0  0  0
   52.5762   28.8139   51.2631 H   0  0  0  0  0  0  0  0  0  0  0  0
   51.8580   30.6350   50.3340 C   0  0  0  0  0  0  0  0  0  0  0  0
   52.0086   30.2596   49.3111 H   0  0  0  0  0  0  0  0  0  0  0  0
   51.3390   31.9170   50.5370 C   0  0  0  0  0  0  0  0  0  0  0  0
   51.0180   32.7140   49.4450 O   0  0  0  0  0  0  0  0  0  0  0  0
   51.1370   32.3910   51.8390 C   0  0  0  0  0  0  0  0  0  0  0  0
   50.6120   33.6610   52.0460 O   0  0  0  0  0  0  0  0  0  0  0  0
   51.4660   31.5860   52.9340 C   0  0  0  0  0  0  0  0  0  0  0  0
   51.2901   31.9547   53.9553 H   0  0  0  0  0  0  0  0  0  0  0  0
  1  2  1  0
  2  3  1  0
  3  4  2  0
  3  5  1  0
  5  6  1  0
  6  7  1  0
  6  8  1  0
  6  9  1  0
  5 10  1  0
 10 11  1  0
 10 12  1  0
 10 13  1  0
 13 14  2  0
 14 15  1  0
 14 16  1  0
 16 17  1  0
 16 18  2  0
 18 19  1  0
 18 20  1  0
 20 21  1  0
 20 22  2  0
 22 23  1  0
  2 24  2  0
 24 25  1  0
 24 26  1  0
 26 27  2  0
 27 28  1  0
 27 29  1  0
 29 30  1  0
 29 31  2  0
 31 32  1  0
 31 33  1  0
 33 34  1  0
 33 35  2  0
 35 36  1  0
 22 13  1  0
 35 26  1  0
M  CHG  4  21  -1  23  -1  32  -1  34  -1
M  END
>  <UniqueID>  (48) 
46

>  <SMILES>  (48) 
CN(Cc1cccc([O-])c1[O-])C(=O)/C=C\c1ccc([O-])c([O-])c1

>  <Energy>  (48) 
46.445256284126394

>  <Genealogy>  (48) 
CN(Cc1cccc([O-])c1[O-])C(=O)C=Cc1ccc([O-])c([O-])c1 (protonated)
CN(Cc1cccc([O-])c1[O-])C(=O)/C=C\c1ccc([O-])c([O-])c1 (cis-trans isomerization)
CN(Cc1cccc([O-])c1[O-])C(=O)/C=C\c1ccc([O-])c([O-])c1 (3D coordinates assigned)
CN(Cc1cccc([O-])c1[O-])C(=O)/C=C\c1ccc([O-])c([O-])c1 (optimized conformer: 46.445256284126394 kcal/mol)

>  <smiles>  (48) 
CN(Cc1cccc(O)c1O)C(=O)C=Cc1ccc(O)c(O)c1

>  <score_type>  (48) 
oracle

>  <origin>  (48) 
adg

>  <m_score__min__energy>  (48) 
-16.859999999999999

>  <m_primary>  (48) 
energy

$$$$
48:0
     RDKit          3D

 63 66  0  0  0  0  0  0  0  0999 V2000
   58.6220   27.5170   46.8250 C   0  0  0  0  0  0  0  0  0  0  0  0
   58.2370   28.5870   47.6790 O   0  0  0  0  0  0  0  0  0  0  0  0
   58.8440   29.8470   47.6330 C   0  0  0  0  0  0  0  0  0  0  0  0
   59.0360   30.4160   46.5200 O   0  0  0  0  0  0  0  0  0  0  0  0
   59.1690   30.5430   48.9060 C   0  0  0  0  0  0  0  0  0  0  0  0
   60.1320   30.1160   49.7640 C   0  0  0  0  0  0  0  0  0  0  0  0
   60.7670   28.7530   49.6090 C   0  0  0  0  0  0  0  0  0  0  0  0
   60.5250   30.9700   50.8680 N   0  0  0  0  0  0  0  0  0  0  0  0
   61.8850   30.9130   51.4370 C   0  0  0  0  0  0  0  0  0  0  0  0
   62.8290   31.7560   50.6200 C   0  0  0  0  0  0  0  0  0  0  0  0
   63.8580   32.4720   51.2530 C   0  0  0  0  0  0  0  0  0  0  0  0
   64.6960   33.3030   50.5100 C   0  0  0  0  0  0  0  0  0  0  0  0
   64.5180   33.4260   49.1290 C   0  0  0  0  0  0  0  0  0  0  0  0
   63.4910   32.7210   48.4760 C   0  0  0  0  0  0  0  0  0  0  0  0
   63.3410   32.7950   46.9750 C   0  0  0  0  0  0  0  0  0  0  0  0
   62.0220   32.5820   46.6100 F   0  0  0  0  0  0  0  0  0  0  0  0
   64.1330   31.8220   46.3940 F   0  0  0  0  0  0  0  0  0  0  0  0
   63.7270   34.0370   46.5000 F   0  0  0  0  0  0  0  0  0  0  0  0
   62.6630   31.8690   49.2290 C   0  0  0  0  0  0  0  0  0  0  0  0
   59.6070   31.9940   51.3020 C   0  0  0  0  0  0  0  0  0  0  0  0
   59.7090   32.5500   52.6190 N   0  0  0  0  0  0  0  0  0  0  0  0
   58.7350   32.2090   53.6530 C   0  0  0  0  0  0  0  0  0  0  0  0
   57.6980   31.2880   53.0890 C   0  0  0  0  0  0  0  0  0  0  0  0
   57.8930   29.9990   52.6330 C   0  0  0  0  0  0  0  0  0  0  0  0
   56.7680   29.5670   52.0310 N   0  0  0  0  0  0  0  0  0  0  0  0
   55.8850   30.5560   52.0810 N   0  0  0  0  0  0  0  0  0  0  0  0
   54.5370   30.4710   51.5370 C   0  0  0  0  0  0  0  0  0  0  0  0
   56.4130   31.6190   52.7150 C   0  0  0  0  0  0  0  0  0  0  0  0
   58.6130   32.3410   50.5420 N   0  0  0  0  0  0  0  0  0  0  0  0
   58.4310   31.8430   49.1750 C   0  0  1  0  0  0  0  0  0  0  0  0
   58.8450   32.9090   48.1810 C   0  0  0  0  0  0  0  0  0  0  0  0
   59.9990   33.6860   48.3990 C   0  0  0  0  0  0  0  0  0  0  0  0
   60.3770   34.6660   47.4820 C   0  0  0  0  0  0  0  0  0  0  0  0
   59.6150   34.8740   46.3290 C   0  0  0  0  0  0  0  0  0  0  0  0
   58.4700   34.1070   46.0980 C   0  0  0  0  0  0  0  0  0  0  0  0
   58.0800   33.1310   47.0230 C   0  0  0  0  0  0  0  0  0  0  0  0
   58.9321   26.6551   47.4341 H   0  0  0  0  0  0  0  0  0  0  0  0
   57.7707   27.2300   46.1902 H   0  0  0  0  0  0  0  0  0  0  0  0
   59.4609   27.8382   46.1902 H   0  0  0  0  0  0  0  0  0  0  0  0
   60.9659   28.3260   50.6030 H   0  0  0  0  0  0  0  0  0  0  0  0
   60.0844   28.0913   49.0556 H   0  0  0  0  0  0  0  0  0  0  0  0
   61.7127   28.8499   49.0556 H   0  0  0  0  0  0  0  0  0  0  0  0
   61.8624   31.2908   52.4699 H   0  0  0  0  0  0  0  0  0  0  0  0
   62.2346   29.8701   51.4249 H   0  0  0  0  0  0  0  0  0  0  0  0
   64.0036   32.3770   52.3392 H   0  0  0  0  0  0  0  0  0  0  0  0
   65.4989   33.8630   51.0118 H   0  0  0  0  0  0  0  0  0  0  0  0
   65.1862   34.0791   48.5486 H   0  0  0  0  0  0  0  0  0  0  0  0
   61.8784   31.2859   48.7246 H   0  0  0  0  0  0  0  0  0  0  0  0
   60.5410   33.1260   52.8740 H   0  0  0  0  0  0  0  0  0  0  0  0
   59.2488   31.7121   54.4891 H   0  0  0  0  0  0  0  0  0  0  0  0
   58.2483   33.1283   54.0108 H   0  0  0  0  0  0  0  0  0  0  0  0
   58.8200   29.4173   52.7438 H   0  0  0  0  0  0  0  0  0  0  0  0
   53.8109   30.4252   52.3620 H   0  0  0  0  0  0  0  0  0  0  0  0
   54.3344   31.3582   50.9190 H   0  0  0  0  0  0  0  0  0  0  0  0
   54.4474   29.5654   50.9190 H   0  0  0  0  0  0  0  0  0  0  0  0
   55.9099   32.5793   52.9013 H   0  0  0  0  0  0  0  0  0  0  0  0
   57.9420   33.0640   50.8850 H   0  0  0  0  0  0  0  0  0  0  0  0
   57.3614   31.6162   49.0549 H   0  0  0  0  0  0  0  0  0  0  0  0
   60.6072   33.5185   49.3001 H   0  0  0  0  0  0  0  0  0  0  0  0
   61.2744   35.2750   47.6659 H   0  0  0  0  0  0  0  0  0  0  0  0
   59.9170   35.6426   45.6023 H   0  0  0  0  0  0  0  0  0  0  0  0
   57.8741   34.2703   45.1879 H   0  0  0  0  0  0  0  0  0  0  0  0
   57.1723   32.5363   46.8429 H   0  0  0  0  0  0  0  0  0  0  0  0
  1  2  1  0
  2  3  1  0
  3  4  2  0
  3  5  1  0
  5  6  2  0
  6  7  1  0
  6  8  1  0
  8  9  1  0
  9 10  1  0
 10 11  2  0
 11 12  1  0
 12 13  2  0
 13 14  1  0
 14 15  1  0
 15 16  1  0
 15 17  1  0
 15 18  1  0
 14 19  2  0
  8 20  1  0
 20 21  1  0
 21 22  1  0
 22 23  1  0
 23 24  1  0
 24 25  2  0
 25 26  1  0
 26 27  1  0
 26 28  1  0
 20 29  2  0
 29 30  1  0
 30 31  1  0
 31 32  2  0
 32 33  1  0
 33 34  2  0
 34 35  1  0
 35 36  2  0
 30  5  1  0
 36 31  1  0
 19 10  1  0
 28 23  2  0
  1 37  1  0
  1 38  1  0
  1 39  1  0
  7 40  1  0
  7 41  1  0
  7 42  1  0
  9 43  1  0
  9 44  1  0
 11 45  1  0
 12 46  1  0
 13 47  1  0
 19 48  1  0
 21 49  1  0
 22 50  1  0
 22 51  1  0
 24 52  1  0
 27 53  1  0
 27 54  1  0
 27 55  1  0
 28 56  1  0
 29 57  1  0
 30 58  1  6
 32 59  1  0
 33 60  1  0
 34 61  1  0
 35 62  1  0
 36 63  1  0
M  CHG  1  29   1
M  END
>  <UniqueID>  (49) 
47

>  <SMILES>  (49) 
COC(=O)C1=C(C)N(Cc2cccc(C(F)(F)F)c2)C(NCc2cnn(C)c2)=[NH+][C@H]1c1ccccc1

>  <Energy>  (49) 
102.34444579993215

>  <Genealogy>  (49) 
COC(=O)C1=C(C)N(Cc2cccc(C(F)(F)F)c2)C(NCc2cnn(C)c2)=[NH+]C1c1ccccc1 (protonated)
COC(=O)C1=C(C)N(Cc2cccc(C(F)(F)F)c2)C(NCc2cnn(C)c2)=[NH+][C@H]1c1ccccc1 (chirality)
COC(=O)C1=C(C)N(Cc2cccc(C(F)(F)F)c2)C(NCc2cnn(C)c2)=[NH+][C@H]1c1ccccc1 (3D coordinates assigned)
COC(=O)C1=C(C)N(Cc2cccc(C(F)(F)F)c2)C(NCc2cnn(C)c2)=[NH+][C@H]1c1ccccc1 (nonaromatic ring conformer: 102.34444579993215 kcal/mol)

>  <smiles>  (49) 
COC(=O)C1=C(C)N(Cc2cccc(C(F)(F)F)c2)C(NCc2cnn(C)c2)=NC1c1ccccc1

>  <score_type>  (49) 
oracle

>  <origin>  (49) 
adg

>  <m_score__min__energy>  (49) 
-6.9199999999999999

>  <m_primary>  (49) 
energy

$$$$
49:0
     RDKit          3D

 54 57  0  0  0  0  0  0  0  0999 V2000
   56.7950   24.6990   44.6970 C   0  0  0  0  0  0  0  0  0  0  0  0
   56.5810   25.9600   45.9320 S   0  0  0  0  0  0  0  0  0  0  0  0
   55.1340   26.3650   45.9960 O   0  0  0  0  0  0  0  0  0  0  0  0
   56.9910   25.4200   47.2730 O   0  0  0  0  0  0  0  0  0  0  0  0
   57.5670   27.3580   45.5160 C   0  0  0  0  0  0  0  0  0  0  0  0
   58.9270   27.1900   45.2190 C   0  0  0  0  0  0  0  0  0  0  0  0
   59.7160   28.2950   44.8950 C   0  0  0  0  0  0  0  0  0  0  0  0
   59.1580   29.5760   44.8780 C   0  0  0  0  0  0  0  0  0  0  0  0
   57.8000   29.7590   45.2000 C   0  0  0  0  0  0  0  0  0  0  0  0
   57.2010   31.0270   45.1860 O   0  0  0  0  0  0  0  0  0  0  0  0
   57.8740   32.2440   45.3740 C   0  0  0  0  0  0  0  0  0  0  0  0
   57.4290   33.3720   44.6790 C   0  0  0  0  0  0  0  0  0  0  0  0
   58.0680   34.6020   44.8480 C   0  0  0  0  0  0  0  0  0  0  0  0
   59.1520   34.7170   45.7220 C   0  0  0  0  0  0  0  0  0  0  0  0
   59.6020   33.6010   46.4470 C   0  0  0  0  0  0  0  0  0  0  0  0
   60.7710   33.7390   47.4060 C   0  0  2  0  0  0  0  0  0  0  0  0
   62.1290   33.7970   46.6950 C   0  0  0  0  0  0  0  0  0  0  0  0
   63.1070   33.0770   47.6160 C   0  0  0  0  0  0  0  0  0  0  0  0
   62.2920   32.3230   48.5580 N   0  0  0  0  0  0  0  0  0  0  0  0
   62.7990   31.4150   49.5570 C   0  0  0  0  0  0  0  0  0  0  0  0
   62.1320   30.3850   49.8470 O   0  0  0  0  0  0  0  0  0  0  0  0
   64.0790   31.6730   50.3160 C   0  0  2  0  0  0  0  0  0  0  0  0
   63.9380   32.8260   51.3060 C   0  0  0  0  0  0  0  0  0  0  0  0
   65.1760   33.6540   51.0840 C   0  0  0  0  0  0  0  0  0  0  0  0
   65.9960   32.8340   50.1080 C   0  0  0  0  0  0  0  0  0  0  0  0
   65.1370   31.9510   49.4310 O   0  0  0  0  0  0  0  0  0  0  0  0
   60.8700   32.5830   48.4020 C   0  0  0  0  0  0  0  0  0  0  0  0
   58.9490   32.3650   46.2720 C   0  0  0  0  0  0  0  0  0  0  0  0
   57.0090   28.6440   45.5030 C   0  0  0  0  0  0  0  0  0  0  0  0
   56.9597   23.7287   45.1884 H   0  0  0  0  0  0  0  0  0  0  0  0
   55.8934   24.6438   44.0693 H   0  0  0  0  0  0  0  0  0  0  0  0
   57.6644   24.9443   44.0693 H   0  0  0  0  0  0  0  0  0  0  0  0
   59.3733   26.1849   45.2414 H   0  0  0  0  0  0  0  0  0  0  0  0
   60.7800   28.1570   44.6524 H   0  0  0  0  0  0  0  0  0  0  0  0
   59.7810   30.4428   44.6125 H   0  0  0  0  0  0  0  0  0  0  0  0
   56.5711   33.2904   43.9954 H   0  0  0  0  0  0  0  0  0  0  0  0
   57.7168   35.4833   44.2912 H   0  0  0  0  0  0  0  0  0  0  0  0
   59.6561   35.6872   45.8431 H   0  0  0  0  0  0  0  0  0  0  0  0
   60.5603   34.6856   47.9252 H   0  0  0  0  0  0  0  0  0  0  0  0
   62.0741   33.2887   45.7210 H   0  0  0  0  0  0  0  0  0  0  0  0
   62.4419   34.8335   46.5006 H   0  0  0  0  0  0  0  0  0  0  0  0
   63.7481   32.3970   47.0358 H   0  0  0  0  0  0  0  0  0  0  0  0
   63.7685   33.7867   48.1344 H   0  0  0  0  0  0  0  0  0  0  0  0
   64.2994   30.7560   50.8821 H   0  0  0  0  0  0  0  0  0  0  0  0
   63.0323   33.4134   51.0949 H   0  0  0  0  0  0  0  0  0  0  0  0
   63.8421   32.4803   52.3459 H   0  0  0  0  0  0  0  0  0  0  0  0
   64.9194   34.6330   50.6530 H   0  0  0  0  0  0  0  0  0  0  0  0
   65.7170   33.8653   52.0182 H   0  0  0  0  0  0  0  0  0  0  0  0
   66.4867   33.5014   49.3842 H   0  0  0  0  0  0  0  0  0  0  0  0
   66.7672   32.2665   50.6495 H   0  0  0  0  0  0  0  0  0  0  0  0
   60.3575   31.6925   48.0091 H   0  0  0  0  0  0  0  0  0  0  0  0
   60.3934   32.8305   49.3620 H   0  0  0  0  0  0  0  0  0  0  0  0
   59.2833   31.4864   46.8433 H   0  0  0  0  0  0  0  0  0  0  0  0
   55.9416   28.7782   45.7326 H   0  0  0  0  0  0  0  0  0  0  0  0
  1  2  1  0
  2  3  2  0
  2  4  2  0
  2  5  1  0
  5  6  2  0
  6  7  1  0
  7  8  2  0
  8  9  1  0
  9 10  1  0
 10 11  1  0
 11 12  2  0
 12 13  1  0
 13 14  2  0
 14 15  1  0
 15 16  1  0
 16 17  1  0
 17 18  1  0
 18 19  1  0
 19 20  1  0
 20 21  2  0
 20 22  1  0
 22 23  1  0
 23 24  1  0
 24 25  1  0
 25 26  1  0
 19 27  1  0
 15 28  2  0
  9 29  2  0
 29  5  1  0
 28 11  1  0
 27 16  1  0
 26 22  1  0
  1 30  1  0
  1 31  1  0
  1 32  1  0
  6 33  1  0
  7 34  1  0
  8 35  1  0
 12 36  1  0
 13 37  1  0
 14 38  1  0
 16 39  1  1
 17 40  1  0
 17 41  1  0
 18 42  1  0
 18 43  1  0
 22 44  1  1
 23 45  1  0
 23 46  1  0
 24 47  1  0
 24 48  1  0
 25 49  1  0
 25 50  1  0
 27 51  1  0
 27 52  1  0
 28 53  1  0
 29 54  1  0
M  END
>  <UniqueID>  (50) 
48

>  <SMILES>  (50) 
CS(=O)(=O)c1cccc(Oc2cccc([C@@H]3CCN(C(=O)[C@@H]4CCCO4)C3)c2)c1

>  <Energy>  (50) 
60.87946787785119

>  <Genealogy>  (50) 
CS(=O)(=O)c1cccc(Oc2cccc([C@@H]3CCN(C(=O)[C@@H]4CCCO4)C3)c2)c1 (chirality)
CS(=O)(=O)c1cccc(Oc2cccc([C@@H]3CCN(C(=O)[C@@H]4CCCO4)C3)c2)c1 (3D coordinates assigned)
CS(=O)(=O)c1cccc(Oc2cccc([C@@H]3CCN(C(=O)[C@@H]4CCCO4)C3)c2)c1 (nonaromatic ring conformer: 60.87946787785119 kcal/mol)

>  <smiles>  (50) 
CS(=O)(=O)c1cccc(Oc2cccc(C3CCN(C(=O)C4CCCO4)C3)c2)c1

>  <score_type>  (50) 
oracle

>  <origin>  (50) 
adg

>  <m_score__min__energy>  (50) 
-10.07

>  <m_primary>  (50) 
energy

$$$$
50:0
     RDKit          3D

 44 46  0  0  0  0  0  0  0  0999 V2000
   57.3950   28.3340   43.1180 N   0  0  0  0  0  0  0  0  0  0  0  0
   56.3550   29.4250   43.9660 S   0  0  0  0  0  0  0  0  0  0  0  0
   55.8620   28.7700   45.2260 O   0  0  0  0  0  0  0  0  0  0  0  0
   55.1730   29.7590   43.1000 O   0  0  0  0  0  0  0  0  0  0  0  0
   57.2420   30.8890   44.3750 C   0  0  0  0  0  0  0  0  0  0  0  0
   57.4160   31.9070   43.4260 C   0  0  0  0  0  0  0  0  0  0  0  0
   58.1330   33.0600   43.7580 C   0  0  0  0  0  0  0  0  0  0  0  0
   58.6950   33.1960   45.0310 C   0  0  0  0  0  0  0  0  0  0  0  0
   58.5460   32.1730   45.9780 C   0  0  0  0  0  0  0  0  0  0  0  0
   59.1790   32.2750   47.3050 C   0  0  0  0  0  0  0  0  0  0  0  0
   58.5980   32.9280   48.2110 O   0  0  0  0  0  0  0  0  0  0  0  0
   60.4050   31.5970   47.6160 N   0  0  0  0  0  0  0  0  0  0  0  0
   61.0670   30.5960   46.7810 C   0  0  0  0  0  0  0  0  0  0  0  0
   60.1630   29.4190   46.5090 C   0  0  0  0  0  0  0  0  0  0  0  0
   59.4360   28.8180   47.5430 C   0  0  0  0  0  0  0  0  0  0  0  0
   58.5720   27.7570   47.2680 C   0  0  0  0  0  0  0  0  0  0  0  0
   58.4520   27.2840   45.9500 C   0  0  0  0  0  0  0  0  0  0  0  0
   57.5640   26.1980   45.6200 N   0  0  0  0  0  0  0  0  0  0  0  0
   56.3090   25.9210   46.2990 C   0  0  0  0  0  0  0  0  0  0  0  0
   55.7740   24.6410   45.6700 C   0  0  0  0  0  0  0  0  0  0  0  0
   56.5510   24.4550   44.3700 C   0  0  0  0  0  0  0  0  0  0  0  0
   57.8230   25.2760   44.5270 C   0  0  0  0  0  0  0  0  0  0  0  0
   59.1870   27.8720   44.9660 N   0  0  0  0  0  0  0  0  0  0  0  0
   60.0300   28.9090   45.2090 C   0  0  0  0  0  0  0  0  0  0  0  0
   57.8040   31.0270   45.6500 C   0  0  0  0  0  0  0  0  0  0  0  0
   57.4310   27.4510   43.6750 H   0  0  0  0  0  0  0  0  0  0  0  0
   58.3520   28.7480   43.1450 H   0  0  0  0  0  0  0  0  0  0  0  0
   56.9875   31.7978   42.4188 H   0  0  0  0  0  0  0  0  0  0  0  0
   58.2554   33.8625   43.0158 H   0  0  0  0  0  0  0  0  0  0  0  0
   59.2548   34.1068   45.2898 H   0  0  0  0  0  0  0  0  0  0  0  0
   61.3494   31.0588   45.8239 H   0  0  0  0  0  0  0  0  0  0  0  0
   61.9562   30.2323   47.3168 H   0  0  0  0  0  0  0  0  0  0  0  0
   59.5459   29.1828   48.5749 H   0  0  0  0  0  0  0  0  0  0  0  0
   57.9887   27.2940   48.0776 H   0  0  0  0  0  0  0  0  0  0  0  0
   56.4793   25.7769   47.3761 H   0  0  0  0  0  0  0  0  0  0  0  0
   55.5978   26.7534   46.1933 H   0  0  0  0  0  0  0  0  0  0  0  0
   55.9419   23.7860   46.3414 H   0  0  0  0  0  0  0  0  0  0  0  0
   54.6912   24.7039   45.4869 H   0  0  0  0  0  0  0  0  0  0  0  0
   56.7963   23.3934   44.2188 H   0  0  0  0  0  0  0  0  0  0  0  0
   55.9646   24.7791   43.4976 H   0  0  0  0  0  0  0  0  0  0  0  0
   58.6737   24.6224   44.7701 H   0  0  0  0  0  0  0  0  0  0  0  0
   58.0796   25.8083   43.5992 H   0  0  0  0  0  0  0  0  0  0  0  0
   60.6097   29.3498   44.3846 H   0  0  0  0  0  0  0  0  0  0  0  0
   57.6635   30.2334   46.3986 H   0  0  0  0  0  0  0  0  0  0  0  0
  1  2  1  0
  2  3  2  0
  2  4  2  0
  2  5  1  0
  5  6  2  0
  6  7  1  0
  7  8  2  0
  8  9  1  0
  9 10  1  0
 10 11  2  0
 10 12  1  0
 12 13  1  0
 13 14  1  0
 14 15  2  0
 15 16  1  0
 16 17  2  0
 17 18  1  0
 18 19  1  0
 19 20  1  0
 20 21  1  0
 21 22  1  0
 17 23  1  0
 23 24  2  0
  9 25  2  0
 25  5  1  0
 24 14  1  0
 22 18  1  0
  1 26  1  0
  1 27  1  0
  6 28  1  0
  7 29  1  0
  8 30  1  0
 13 31  1  0
 13 32  1  0
 15 33  1  0
 16 34  1  0
 19 35  1  0
 19 36  1  0
 20 37  1  0
 20 38  1  0
 21 39  1  0
 21 40  1  0
 22 41  1  0
 22 42  1  0
 24 43  1  0
 25 44  1  0
M  CHG  1  12  -1
M  END
>  <UniqueID>  (51) 
49

>  <SMILES>  (51) 
NS(=O)(=O)c1cccc(C(=O)[N-]Cc2ccc(N3CCCC3)nc2)c1

>  <Energy>  (51) 
44.10394021174481

>  <Genealogy>  (51) 
NS(=O)(=O)c1cccc(C(=O)[N-]Cc2ccc(N3CCCC3)nc2)c1 (protonated)
NS(=O)(=O)c1cccc(C(=O)[N-]Cc2ccc(N3CCCC3)nc2)c1 (3D coordinates assigned)
NS(=O)(=O)c1cccc(C(=O)[N-]Cc2ccc(N3CCCC3)nc2)c1 (nonaromatic ring conformer: 44.10394021174481 kcal/mol)

>  <smiles>  (51) 
NS(=O)(=O)c1cccc(C(=O)NCc2ccc(N3CCCC3)nc2)c1

>  <score_type>  (51) 
oracle

>  <origin>  (51) 
adg

>  <m_score__min__energy>  (51) 
-10.6

>  <m_primary>  (51) 
energy

$$$$
51:0
     RDKit          3D

 59 62  0  0  0  0  0  0  0  0999 V2000
   55.3090   29.7890   44.8840 O   0  0  0  0  0  0  0  0  0  0  0  0
   56.2250   28.9300   44.9870 C   0  0  0  0  0  0  0  0  0  0  0  0
   57.6260   29.2740   44.5420 C   0  0  0  0  0  0  0  0  0  0  0  0
   57.7770   30.7430   44.2650 C   0  0  0  0  0  0  0  0  0  0  0  0
   57.6400   31.3710   43.0320 C   0  0  0  0  0  0  0  0  0  0  0  0
   57.7750   32.7100   43.1660 N   0  0  0  0  0  0  0  0  0  0  0  0
   57.9830   32.9330   44.4760 C   0  0  0  0  0  0  0  0  0  0  0  0
   58.1560   34.1640   45.1080 C   0  0  0  0  0  0  0  0  0  0  0  0
   58.3350   34.1670   46.5030 C   0  0  0  0  0  0  0  0  0  0  0  0
   58.3320   32.9540   47.2290 C   0  0  0  0  0  0  0  0  0  0  0  0
   58.1520   31.7270   46.5650 C   0  0  0  0  0  0  0  0  0  0  0  0
   57.9860   31.7550   45.1800 C   0  0  0  0  0  0  0  0  0  0  0  0
   55.9190   27.6800   45.6200 N   0  0  0  0  0  0  0  0  0  0  0  0
   56.7930   26.5130   45.6620 C   0  0  0  0  0  0  0  0  0  0  0  0
   57.7900   26.6370   46.8220 C   0  0  0  0  0  0  0  0  0  0  0  0
   59.2480   26.6430   46.3430 C   0  0  0  0  0  0  0  0  0  0  0  0
   59.8870   27.9880   46.5190 C   0  0  0  0  0  0  0  0  0  0  0  0
   60.5460   28.4880   45.5670 O   0  0  0  0  0  0  0  0  0  0  0  0
   59.8020   28.6670   47.7820 N   0  0  0  0  0  0  0  0  0  0  0  0
   60.4130   29.9420   48.0270 C   0  0  0  0  0  0  0  0  0  0  0  0
   61.1750   30.5290   47.0060 C   0  0  0  0  0  0  0  0  0  0  0  0
   61.7910   31.7660   47.2030 C   0  0  0  0  0  0  0  0  0  0  0  0
   61.6730   32.4190   48.4310 C   0  0  0  0  0  0  0  0  0  0  0  0
   60.9390   31.8340   49.4670 C   0  0  0  0  0  0  0  0  0  0  0  0
   60.2950   30.6000   49.2770 C   0  0  0  0  0  0  0  0  0  0  0  0
   59.6020   29.9650   50.4160 C   0  0  0  0  0  0  0  0  0  0  0  0
   59.8270   28.7480   50.6600 O   0  0  0  0  0  0  0  0  0  0  0  0
   58.6660   30.6930   51.2350 N   0  0  0  0  0  0  0  0  0  0  0  0
   58.1300   32.0040   50.9000 C   0  0  0  0  0  0  0  0  0  0  0  0
   57.1240   32.3340   51.9940 C   0  0  0  0  0  0  0  0  0  0  0  0
   56.8320   31.0190   52.7120 C   0  0  0  0  0  0  0  0  0  0  0  0
   57.9880   30.0880   52.3700 C   0  0  0  0  0  0  0  0  0  0  0  0
   58.3324   28.9864   45.3347 H   0  0  0  0  0  0  0  0  0  0  0  0
   57.8337   28.7267   43.6107 H   0  0  0  0  0  0  0  0  0  0  0  0
   57.4487   30.8518   42.0813 H   0  0  0  0  0  0  0  0  0  0  0  0
   57.7140   33.4250   42.4070 H   0  0  0  0  0  0  0  0  0  0  0  0
   58.1526   35.1024   44.5340 H   0  0  0  0  0  0  0  0  0  0  0  0
   58.4784   35.1202   47.0330 H   0  0  0  0  0  0  0  0  0  0  0  0
   58.4713   32.9697   48.3200 H   0  0  0  0  0  0  0  0  0  0  0  0
   58.1424   30.7769   47.1194 H   0  0  0  0  0  0  0  0  0  0  0  0
   56.1837   25.6079   45.8021 H   0  0  0  0  0  0  0  0  0  0  0  0
   57.3504   26.4487   44.7159 H   0  0  0  0  0  0  0  0  0  0  0  0
   57.5911   27.5757   47.3598 H   0  0  0  0  0  0  0  0  0  0  0  0
   57.6553   25.7619   47.4747 H   0  0  0  0  0  0  0  0  0  0  0  0
   59.8161   25.9004   46.9225 H   0  0  0  0  0  0  0  0  0  0  0  0
   59.2563   26.3985   45.2705 H   0  0  0  0  0  0  0  0  0  0  0  0
   59.4630   28.1230   48.6070 H   0  0  0  0  0  0  0  0  0  0  0  0
   61.2880   30.0104   46.0425 H   0  0  0  0  0  0  0  0  0  0  0  0
   62.3703   32.2269   46.3893 H   0  0  0  0  0  0  0  0  0  0  0  0
   62.1579   33.3945   48.5836 H   0  0  0  0  0  0  0  0  0  0  0  0
   60.8651   32.3440   50.4388 H   0  0  0  0  0  0  0  0  0  0  0  0
   58.9350   32.7534   50.8814 H   0  0  0  0  0  0  0  0  0  0  0  0
   57.6609   32.0069   49.9050 H   0  0  0  0  0  0  0  0  0  0  0  0
   57.5500   33.0658   52.6961 H   0  0  0  0  0  0  0  0  0  0  0  0
   56.2072   32.7759   51.5766 H   0  0  0  0  0  0  0  0  0  0  0  0
   56.7799   31.1804   53.7989 H   0  0  0  0  0  0  0  0  0  0  0  0
   55.8667   30.5946   52.3986 H   0  0  0  0  0  0  0  0  0  0  0  0
   58.6753   30.0018   53.2245 H   0  0  0  0  0  0  0  0  0  0  0  0
   57.6330   29.0739   52.1341 H   0  0  0  0  0  0  0  0  0  0  0  0
  1  2  2  0
  2  3  1  0
  3  4  1  0
  4  5  2  0
  5  6  1  0
  6  7  1  0
  7  8  2  0
  8  9  1  0
  9 10  2  0
 10 11  1  0
 11 12  2  0
  2 13  1  0
 13 14  1  0
 14 15  1  0
 15 16  1  0
 16 17  1  0
 17 18  2  0
 17 19  1  0
 19 20  1  0
 20 21  2  0
 21 22  1  0
 22 23  2  0
 23 24  1  0
 24 25  2  0
 25 26  1  0
 26 27  2  0
 26 28  1  0
 28 29  1  0
 29 30  1  0
 30 31  1  0
 31 32  1  0
 12  4  1  0
 25 20  1  0
 32 28  1  0
 12  7  1  0
  3 33  1  0
  3 34  1  0
  5 35  1  0
  6 36  1  0
  8 37  1  0
  9 38  1  0
 10 39  1  0
 11 40  1  0
 14 41  1  0
 14 42  1  0
 15 43  1  0
 15 44  1  0
 16 45  1  0
 16 46  1  0
 19 47  1  0
 21 48  1  0
 22 49  1  0
 23 50  1  0
 24 51  1  0
 29 52  1  0
 29 53  1  0
 30 54  1  0
 30 55  1  0
 31 56  1  0
 31 57  1  0
 32 58  1  0
 32 59  1  0
M  CHG  1  13  -1
M  END
>  <UniqueID>  (52) 
50

>  <SMILES>  (52) 
O=C(Cc1c[nH]c2ccccc12)[N-]CCCC(=O)Nc1ccccc1C(=O)N1CCCC1

>  <Energy>  (52) 
97.83493817401884

>  <Genealogy>  (52) 
O=C(Cc1c[nH]c2ccccc12)[N-]CCCC(=O)Nc1ccccc1C(=O)N1CCCC1 (protonated)
O=C(Cc1c[nH]c2ccccc12)[N-]CCCC(=O)Nc1ccccc1C(=O)N1CCCC1 (3D coordinates assigned)
O=C(Cc1c[nH]c2ccccc12)[N-]CCCC(=O)Nc1ccccc1C(=O)N1CCCC1 (nonaromatic ring conformer: 97.83493817401884 kcal/mol)

>  <smiles>  (52) 
O=C(Cc1c[nH]c2ccccc12)NCCCC(=O)Nc1ccccc1C(=O)N1CCCC1

>  <score_type>  (52) 
oracle

>  <origin>  (52) 
adg

>  <m_score__min__energy>  (52) 
-10.77

>  <m_primary>  (52) 
energy

$$$$
52:0
     RDKit          3D

 48 50  0  0  0  0  0  0  0  0999 V2000
   63.3720   32.3190   48.1490 C   0  0  0  0  0  0  0  0  0  0  0  0
   62.2330   31.3600   48.0010 C   0  0  0  0  0  0  0  0  0  0  0  0
   61.6030   30.8200   49.1460 C   0  0  0  0  0  0  0  0  0  0  0  0
   60.5140   29.9470   48.9750 C   0  0  0  0  0  0  0  0  0  0  0  0
   59.8300   29.3060   50.1440 C   0  0  0  0  0  0  0  0  0  0  0  0
   60.1290   29.6740   47.7030 N   0  0  0  0  0  0  0  0  0  0  0  0
   59.1530   28.8900   47.2960 N   0  0  0  0  0  0  0  0  0  0  0  0
   59.2080   28.9520   45.9430 C   0  0  0  0  0  0  0  0  0  0  0  0
   58.2640   28.2120   45.0400 C   0  0  0  0  0  0  0  0  0  0  0  0
   58.0240   28.9190   43.7750 N   0  0  0  0  0  0  0  0  0  0  0  0
   56.8600   30.2020   43.9550 S   0  0  0  0  0  0  0  0  0  0  0  0
   56.2630   30.5120   42.6120 O   0  0  0  0  0  0  0  0  0  0  0  0
   55.7510   29.7710   44.8750 O   0  0  0  0  0  0  0  0  0  0  0  0
   57.6330   31.6610   44.5750 C   0  0  0  0  0  0  0  0  0  0  0  0
   58.1290   32.6160   43.6820 C   0  0  0  0  0  0  0  0  0  0  0  0
   58.7570   33.7680   44.1600 C   0  0  0  0  0  0  0  0  0  0  0  0
   58.9040   33.9680   45.5350 C   0  0  0  0  0  0  0  0  0  0  0  0
   58.4290   33.0040   46.4450 C   0  0  0  0  0  0  0  0  0  0  0  0
   58.5380   33.1560   47.8350 O   0  0  0  0  0  0  0  0  0  0  0  0
   59.6480   33.6570   48.5310 C   0  0  0  0  0  0  0  0  0  0  0  0
   60.5340   34.3270   47.9330 O   0  0  0  0  0  0  0  0  0  0  0  0
   59.8050   33.3480   49.9260 N   0  0  0  0  0  0  0  0  0  0  0  0
   60.9960   33.8040   50.6470 C   0  0  0  0  0  0  0  0  0  0  0  0
   58.7500   32.6020   50.6170 C   0  0  0  0  0  0  0  0  0  0  0  0
   57.7780   31.8650   45.9550 C   0  0  0  0  0  0  0  0  0  0  0  0
   60.1870   29.7750   45.4790 N   0  0  0  0  0  0  0  0  0  0  0  0
   60.7320   30.1930   46.6340 C   0  0  0  0  0  0  0  0  0  0  0  0
   61.7790   31.0420   46.7530 N   0  0  0  0  0  0  0  0  0  0  0  0
   63.5726   32.4879   49.2173 H   0  0  0  0  0  0  0  0  0  0  0  0
   64.2688   31.9000   47.6693 H   0  0  0  0  0  0  0  0  0  0  0  0
   63.1119   33.2741   47.6693 H   0  0  0  0  0  0  0  0  0  0  0  0
   61.9590   31.0787   50.1541 H   0  0  0  0  0  0  0  0  0  0  0  0
   60.2530   29.7024   51.0788 H   0  0  0  0  0  0  0  0  0  0  0  0
   58.7533   29.5279   50.1057 H   0  0  0  0  0  0  0  0  0  0  0  0
   59.9816   28.2172   50.1057 H   0  0  0  0  0  0  0  0  0  0  0  0
   58.6921   27.2238   44.8159 H   0  0  0  0  0  0  0  0  0  0  0  0
   57.3000   28.1264   45.5628 H   0  0  0  0  0  0  0  0  0  0  0  0
   58.9180   29.3300   43.4200 H   0  0  0  0  0  0  0  0  0  0  0  0
   58.0240   32.4591   42.5983 H   0  0  0  0  0  0  0  0  0  0  0  0
   59.1368   34.5197   43.4524 H   0  0  0  0  0  0  0  0  0  0  0  0
   59.3920   34.8807   45.9076 H   0  0  0  0  0  0  0  0  0  0  0  0
   60.8174   33.7356   51.7303 H   0  0  0  0  0  0  0  0  0  0  0  0
   61.8536   33.1706   50.3761 H   0  0  0  0  0  0  0  0  0  0  0  0
   61.2113   34.8481   50.3761 H   0  0  0  0  0  0  0  0  0  0  0  0
   58.8853   32.6977   51.7044 H   0  0  0  0  0  0  0  0  0  0  0  0
   57.7678   33.0075   50.3327 H   0  0  0  0  0  0  0  0  0  0  0  0
   58.8049   31.5408   50.3327 H   0  0  0  0  0  0  0  0  0  0  0  0
   57.3761   31.1224   46.6600 H   0  0  0  0  0  0  0  0  0  0  0  0
  1  2  1  0
  2  3  1  0
  3  4  2  0
  4  5  1  0
  4  6  1  0
  6  7  1  0
  7  8  2  0
  8  9  1  0
  9 10  1  0
 10 11  1  0
 11 12  2  0
 11 13  2  0
 11 14  1  0
 14 15  2  0
 15 16  1  0
 16 17  2  0
 17 18  1  0
 18 19  1  0
 19 20  1  0
 20 21  2  0
 20 22  1  0
 22 23  1  0
 22 24  1  0
 18 25  2  0
  8 26  1  0
 26 27  2  0
 27 28  1  0
 28  2  2  0
 27  6  1  0
 25 14  1  0
  1 29  1  0
  1 30  1  0
  1 31  1  0
  3 32  1  0
  5 33  1  0
  5 34  1  0
  5 35  1  0
  9 36  1  0
  9 37  1  0
 10 38  1  0
 15 39  1  0
 16 40  1  0
 17 41  1  0
 23 42  1  0
 23 43  1  0
 23 44  1  0
 24 45  1  0
 24 46  1  0
 24 47  1  0
 25 48  1  0
M  END
>  <UniqueID>  (53) 
51

>  <SMILES>  (53) 
Cc1cc(C)n2nc(CNS(=O)(=O)c3cccc(OC(=O)N(C)C)c3)nc2n1

>  <Energy>  (53) 
80.55313088697234

>  <Genealogy>  (53) 
Cc1cc(C)n2nc(CNS(=O)(=O)c3cccc(OC(=O)N(C)C)c3)nc2n1 (3D coordinates assigned)
Cc1cc(C)n2nc(CNS(=O)(=O)c3cccc(OC(=O)N(C)C)c3)nc2n1 (optimized conformer: 80.55313088697234 kcal/mol)

>  <smiles>  (53) 
Cc1cc(C)n2nc(CNS(=O)(=O)c3cccc(OC(=O)N(C)C)c3)nc2n1

>  <score_type>  (53) 
oracle

>  <origin>  (53) 
adg

>  <m_score__min__energy>  (53) 
-8.9199999999999999

>  <m_primary>  (53) 
energy

$$$$
53:0
     RDKit          3D

 47 49  0  0  0  0  0  0  0  0999 V2000
   55.1520   26.3640   45.9350 N   0  0  0  0  0  0  0  0  0  0  0  0
   56.8680   26.5530   45.9280 S   0  0  0  0  0  0  0  0  0  0  0  0
   57.3880   26.4550   47.3340 O   0  0  0  0  0  0  0  0  0  0  0  0
   57.4930   25.4620   45.1040 O   0  0  0  0  0  0  0  0  0  0  0  0
   57.2770   28.1200   45.2440 C   0  0  0  0  0  0  0  0  0  0  0  0
   56.2620   28.9700   44.7820 C   0  0  0  0  0  0  0  0  0  0  0  0
   56.5800   30.2210   44.2480 C   0  0  0  0  0  0  0  0  0  0  0  0
   57.9220   30.6380   44.1690 C   0  0  0  0  0  0  0  0  0  0  0  0
   58.2970   31.8730   43.6190 O   0  0  0  0  0  0  0  0  0  0  0  0
   57.8020   33.1500   44.0350 C   0  0  0  0  0  0  0  0  0  0  0  0
   58.3470   33.5670   45.3830 C   0  0  0  0  0  0  0  0  0  0  0  0
   59.0170   34.7930   45.5020 C   0  0  0  0  0  0  0  0  0  0  0  0
   59.4990   35.2170   46.7450 C   0  0  0  0  0  0  0  0  0  0  0  0
   59.3130   34.4200   47.8770 C   0  0  0  0  0  0  0  0  0  0  0  0
   58.6380   33.1990   47.7820 C   0  0  0  0  0  0  0  0  0  0  0  0
   58.4730   32.4070   48.9670 N   0  0  0  0  0  0  0  0  0  0  0  0
   59.4470   31.0390   49.3960 S   0  0  0  0  0  0  0  0  0  0  0  0
   58.5430   29.8740   49.6900 O   0  0  0  0  0  0  0  0  0  0  0  0
   60.2420   31.3560   50.6330 O   0  0  0  0  0  0  0  0  0  0  0  0
   60.5210   30.6030   48.0350 C   0  0  0  0  0  0  0  0  0  0  0  0
   61.6480   31.5910   47.9190 C   0  0  0  0  0  0  0  0  0  0  0  0
   62.6540   31.6380   48.8990 C   0  0  0  0  0  0  0  0  0  0  0  0
   63.6760   32.5880   48.8150 C   0  0  0  0  0  0  0  0  0  0  0  0
   63.6990   33.5000   47.7560 C   0  0  0  0  0  0  0  0  0  0  0  0
   62.6950   33.4690   46.7850 C   0  0  0  0  0  0  0  0  0  0  0  0
   61.6710   32.5190   46.8640 C   0  0  0  0  0  0  0  0  0  0  0  0
   58.1410   32.7830   46.5330 C   0  0  0  0  0  0  0  0  0  0  0  0
   58.9290   29.7900   44.6440 C   0  0  0  0  0  0  0  0  0  0  0  0
   58.6110   28.5400   45.1790 C   0  0  0  0  0  0  0  0  0  0  0  0
   54.7700   27.0470   46.6260 H   0  0  0  0  0  0  0  0  0  0  0  0
   55.2111   28.6504   44.8403 H   0  0  0  0  0  0  0  0  0  0  0  0
   55.7785   30.8828   43.8879 H   0  0  0  0  0  0  0  0  0  0  0  0
   58.0935   33.9027   43.2877 H   0  0  0  0  0  0  0  0  0  0  0  0
   56.7083   33.0737   44.1238 H   0  0  0  0  0  0  0  0  0  0  0  0
   59.1644   35.4246   44.6135 H   0  0  0  0  0  0  0  0  0  0  0  0
   60.0251   36.1792   46.8310 H   0  0  0  0  0  0  0  0  0  0  0  0
   59.7004   34.7553   48.8504 H   0  0  0  0  0  0  0  0  0  0  0  0
   60.9357   29.5989   48.2079 H   0  0  0  0  0  0  0  0  0  0  0  0
   59.9380   30.6159   47.1023 H   0  0  0  0  0  0  0  0  0  0  0  0
   62.6372   30.9242   49.7358 H   0  0  0  0  0  0  0  0  0  0  0  0
   64.4629   32.6179   49.5831 H   0  0  0  0  0  0  0  0  0  0  0  0
   64.5078   34.2423   47.6871 H   0  0  0  0  0  0  0  0  0  0  0  0
   62.7096   34.1929   45.9569 H   0  0  0  0  0  0  0  0  0  0  0  0
   60.8817   32.4984   46.0981 H   0  0  0  0  0  0  0  0  0  0  0  0
   57.5864   31.8363   46.4550 H   0  0  0  0  0  0  0  0  0  0  0  0
   59.9800   30.1110   44.5955 H   0  0  0  0  0  0  0  0  0  0  0  0
   59.4112   27.8831   45.5506 H   0  0  0  0  0  0  0  0  0  0  0  0
  1  2  1  0
  2  3  2  0
  2  4  2  0
  2  5  1  0
  5  6  2  0
  6  7  1  0
  7  8  2  0
  8  9  1  0
  9 10  1  0
 10 11  1  0
 11 12  2  0
 12 13  1  0
 13 14  2  0
 14 15  1  0
 15 16  1  0
 16 17  1  0
 17 18  2  0
 17 19  2  0
 17 20  1  0
 20 21  1  0
 21 22  2  0
 22 23  1  0
 23 24  2  0
 24 25  1  0
 25 26  2  0
 15 27  2  0
  8 28  1  0
 28 29  2  0
 29  5  1  0
 27 11  1  0
 26 21  1  0
  1 30  1  0
  6 31  1  0
  7 32  1  0
 10 33  1  0
 10 34  1  0
 12 35  1  0
 13 36  1  0
 14 37  1  0
 20 38  1  0
 20 39  1  0
 22 40  1  0
 23 41  1  0
 24 42  1  0
 25 43  1  0
 26 44  1  0
 27 45  1  0
 28 46  1  0
 29 47  1  0
M  CHG  2   1  -1  16  -1
M  END
>  <UniqueID>  (54) 
52

>  <SMILES>  (54) 
[NH-]S(=O)(=O)c1ccc(OCc2cccc([N-]S(=O)(=O)Cc3ccccc3)c2)cc1

>  <Energy>  (54) 
46.16648327092619

>  <Genealogy>  (54) 
[NH-]S(=O)(=O)c1ccc(OCc2cccc([N-]S(=O)(=O)Cc3ccccc3)c2)cc1 (protonated)
[NH-]S(=O)(=O)c1ccc(OCc2cccc([N-]S(=O)(=O)Cc3ccccc3)c2)cc1 (3D coordinates assigned)
[NH-]S(=O)(=O)c1ccc(OCc2cccc([N-]S(=O)(=O)Cc3ccccc3)c2)cc1 (optimized conformer: 46.16648327092619 kcal/mol)

>  <smiles>  (54) 
NS(=O)(=O)c1ccc(OCc2cccc(NS(=O)(=O)Cc3ccccc3)c2)cc1

>  <score_type>  (54) 
oracle

>  <origin>  (54) 
adg

>  <m_score__min__energy>  (54) 
-12.83

>  <m_primary>  (54) 
energy

$$$$
54:0
     RDKit          3D

 49 51  0  0  0  0  0  0  0  0999 V2000
   57.3990   26.0000   44.4520 O   0  0  0  0  0  0  0  0  0  0  0  0
   57.0320   26.9200   45.5820 S   0  0  0  0  0  0  0  0  0  0  0  0
   57.8930   26.5790   46.7670 O   0  0  0  0  0  0  0  0  0  0  0  0
   55.3520   26.6880   45.9770 N   0  0  0  0  0  0  0  0  0  0  0  0
   54.9310   25.3040   45.7420 C   0  0  0  0  0  0  0  0  0  0  0  0
   56.0900   24.3380   46.0240 C   0  0  0  0  0  0  0  0  0  0  0  0
   56.3940   23.4560   44.8090 C   0  0  0  0  0  0  0  0  0  0  0  0
   57.2260   22.2990   45.2210 N   0  0  0  0  0  0  0  0  0  0  0  0
   56.4380   21.1420   45.7020 C   0  0  0  0  0  0  0  0  0  0  0  0
   56.0580   20.1760   44.5630 C   0  0  0  0  0  0  0  0  0  0  0  0
   56.1260   20.8240   43.3110 O   0  0  0  0  0  0  0  0  0  0  0  0
   57.4730   21.1430   43.0130 C   0  0  0  0  0  0  0  0  0  0  0  0
   58.1780   21.8940   44.1680 C   0  0  0  0  0  0  0  0  0  0  0  0
   57.3190   28.5860   45.0920 C   0  0  0  0  0  0  0  0  0  0  0  0
   57.1150   28.9730   43.7610 C   0  0  0  0  0  0  0  0  0  0  0  0
   57.2650   30.3110   43.3870 C   0  0  0  0  0  0  0  0  0  0  0  0
   57.5900   31.2780   44.3430 C   0  0  0  0  0  0  0  0  0  0  0  0
   57.7940   32.9470   43.8280 Cl  0  0  0  0  0  0  0  0  0  0  0  0
   57.7740   30.8980   45.6870 C   0  0  0  0  0  0  0  0  0  0  0  0
   58.0360   31.8640   46.7030 N   0  0  0  0  0  0  0  0  0  0  0  0
   58.9880   31.4820   48.1000 S   0  0  0  0  0  0  0  0  0  0  0  0
   58.2730   31.9680   49.3280 O   0  0  0  0  0  0  0  0  0  0  0  0
   59.1870   29.9940   48.1880 O   0  0  0  0  0  0  0  0  0  0  0  0
   60.5590   32.2570   47.9730 C   0  0  0  0  0  0  0  0  0  0  0  0
   61.7050   31.7750   48.6210 C   0  0  0  0  0  0  0  0  0  0  0  0
   62.8290   32.5490   48.3780 C   0  0  0  0  0  0  0  0  0  0  0  0
   64.4280   32.2590   49.0290 Cl  0  0  0  0  0  0  0  0  0  0  0  0
   62.4160   33.8260   47.3670 S   0  0  0  0  0  0  0  0  0  0  0  0
   60.7930   33.4110   47.2300 C   0  0  0  0  0  0  0  0  0  0  0  0
   59.6110   34.3210   46.3080 Cl  0  0  0  0  0  0  0  0  0  0  0  0
   57.6700   29.5500   46.0460 C   0  0  0  0  0  0  0  0  0  0  0  0
   54.0884   25.0634   46.4070 H   0  0  0  0  0  0  0  0  0  0  0  0
   54.6248   25.1973   44.6909 H   0  0  0  0  0  0  0  0  0  0  0  0
   56.9880   24.9211   46.2761 H   0  0  0  0  0  0  0  0  0  0  0  0
   55.7995   23.6852   46.8603 H   0  0  0  0  0  0  0  0  0  0  0  0
   55.4501   23.0914   44.3776 H   0  0  0  0  0  0  0  0  0  0  0  0
   56.9411   24.0472   44.0599 H   0  0  0  0  0  0  0  0  0  0  0  0
   57.0340   20.5936   46.4463 H   0  0  0  0  0  0  0  0  0  0  0  0
   55.5056   21.5293   46.1385 H   0  0  0  0  0  0  0  0  0  0  0  0
   56.7536   19.3239   44.5660 H   0  0  0  0  0  0  0  0  0  0  0  0
   55.0265   19.8297   44.7246 H   0  0  0  0  0  0  0  0  0  0  0  0
   58.0201   20.2096   42.8143 H   0  0  0  0  0  0  0  0  0  0  0  0
   57.4712   21.8076   42.1365 H   0  0  0  0  0  0  0  0  0  0  0  0
   58.9383   21.2335   44.6104 H   0  0  0  0  0  0  0  0  0  0  0  0
   58.6370   22.8039   43.7540 H   0  0  0  0  0  0  0  0  0  0  0  0
   56.8359   28.2212   43.0081 H   0  0  0  0  0  0  0  0  0  0  0  0
   57.1268   30.6047   42.3360 H   0  0  0  0  0  0  0  0  0  0  0  0
   61.7115   30.8767   49.2558 H   0  0  0  0  0  0  0  0  0  0  0  0
   57.8652   29.2448   47.0846 H   0  0  0  0  0  0  0  0  0  0  0  0
  1  2  2  0
  2  3  2  0
  2  4  1  0
  4  5  1  0
  5  6  1  0
  6  7  1  0
  7  8  1  0
  8  9  1  0
  9 10  1  0
 10 11  1  0
 11 12  1  0
 12 13  1  0
  2 14  1  0
 14 15  2  0
 15 16  1  0
 16 17  2  0
 17 18  1  0
 17 19  1  0
 19 20  1  0
 20 21  1  0
 21 22  2  0
 21 23  2  0
 21 24  1  0
 24 25  1  0
 25 26  2  0
 26 27  1  0
 26 28  1  0
 28 29  1  0
 29 30  1  0
 19 31  2  0
 13  8  1  0
 31 14  1  0
 29 24  2  0
  5 32  1  0
  5 33  1  0
  6 34  1  0
  6 35  1  0
  7 36  1  0
  7 37  1  0
  9 38  1  0
  9 39  1  0
 10 40  1  0
 10 41  1  0
 12 42  1  0
 12 43  1  0
 13 44  1  0
 13 45  1  0
 15 46  1  0
 16 47  1  0
 25 48  1  0
 31 49  1  0
M  CHG  2   4  -1  20  -1
M  END
>  <UniqueID>  (55) 
53

>  <SMILES>  (55) 
O=S(=O)([N-]CCCN1CCOCC1)c1ccc(Cl)c([N-]S(=O)(=O)c2cc(Cl)sc2Cl)c1

>  <Energy>  (55) 
90.57483422414046

>  <Genealogy>  (55) 
O=S(=O)([N-]CCCN1CCOCC1)c1ccc(Cl)c([N-]S(=O)(=O)c2cc(Cl)sc2Cl)c1 (protonated)
O=S(=O)([N-]CCCN1CCOCC1)c1ccc(Cl)c([N-]S(=O)(=O)c2cc(Cl)sc2Cl)c1 (3D coordinates assigned)
O=S(=O)([N-]CCCN1CCOCC1)c1ccc(Cl)c([N-]S(=O)(=O)c2cc(Cl)sc2Cl)c1 (nonaromatic ring conformer: 90.57483422414046 kcal/mol)

>  <smiles>  (55) 
O=S(=O)(NCCCN1CCOCC1)c1ccc(Cl)c(NS(=O)(=O)c2cc(Cl)sc2Cl)c1

>  <score_type>  (55) 
oracle

>  <origin>  (55) 
adg

>  <m_score__min__energy>  (55) 
-12.56

>  <m_primary>  (55) 
energy

$$$$
55:0
     RDKit          3D

 27 28  0  0  1  0  0  0  0  0999 V2000
   58.0740   32.5090   42.7770 C   0  0  0  0  0  0  0  0  0  0  0  0
   58.0610   32.5720   44.2920 C   0  0  0  0  0  0  0  0  0  0  0  0
   57.4300   33.7030   44.8710 C   0  0  0  0  0  0  0  0  0  0  0  0
   57.6340   33.3860   46.6870 S   0  0  0  0  0  0  0  0  0  0  0  0
   58.5370   31.7770   46.3950 C   0  0  0  0  0  0  0  0  0  0  0  0
   58.9700   31.0290   47.4170 N   0  0  0  0  0  0  0  0  0  0  0  0
   59.5800   29.8020   47.0310 C   0  0  0  0  0  0  0  0  0  0  0  0
   60.3440   29.6650   46.0640 O   0  0  0  0  0  0  0  0  0  0  0  0
   59.2430   28.6190   47.8880 C   0  0  0  0  0  0  0  0  0  0  0  0
   58.1500   27.4410   47.0270 S   0  0  0  0  0  0  0  0  0  0  0  0
   57.5850   28.3100   45.5430 C   0  0  0  0  0  0  0  0  0  0  0  0
   56.3480   28.7280   45.2480 N   0  0  0  0  0  0  0  0  0  0  0  0
   56.4490   29.3360   44.0260 C   0  0  0  0  0  0  0  0  0  0  0  0
   55.4580   29.8660   43.4090 N   0  0  0  0  0  0  0  0  0  0  0  0
   57.7460   29.2680   43.6180 N   0  0  0  0  0  0  0  0  0  0  0  0
   58.4410   28.6320   44.5610 N   0  0  0  0  0  0  0  0  0  0  0  0
   58.5780   31.6730   45.0610 N   0  0  0  0  0  0  0  0  0  0  0  0
   58.2866   31.4790   42.4547 H   0  0  0  0  0  0  0  0  0  0  0  0
   57.0928   32.8196   42.3887 H   0  0  0  0  0  0  0  0  0  0  0  0
   58.8521   33.1827   42.3887 H   0  0  0  0  0  0  0  0  0  0  0  0
   56.9431   34.5526   44.3699 H   0  0  0  0  0  0  0  0  0  0  0  0
   60.1746   28.1030   48.1633 H   0  0  0  0  0  0  0  0  0  0  0  0
   58.7127   28.9853   48.7794 H   0  0  0  0  0  0  0  0  0  0  0  0
   55.1500   29.4280   42.5240 H   0  0  0  0  0  0  0  0  0  0  0  0
   58.1350   29.6490   42.7140 H   0  0  0  0  0  0  0  0  0  0  0  0
   59.4500   28.4410   44.5110 H   0  0  0  0  0  0  0  0  0  0  0  0
   59.0670   30.7930   44.6570 H   0  0  0  0  0  0  0  0  0  0  0  0
  1  2  1  0
  2  3  2  0
  3  4  1  0
  4  5  1  0
  5  6  2  0
  6  7  1  0
  7  8  2  0
  7  9  1  0
  9 10  1  0
 10 11  1  0
 11 12  2  0
 12 13  1  0
 13 14  2  3
 13 15  1  0
 15 16  1  0
  5 17  1  0
 17  2  1  0
 16 11  1  0
  1 18  1  0
  1 19  1  0
  1 20  1  0
  3 21  1  0
  9 22  1  0
  9 23  1  0
 14 24  1  0
 15 25  1  0
 16 26  1  0
 17 27  1  0
M  END
>  <smiles>  (56) 
Cc1csc(=NC(=O)CSc2nc(=N)[nH][nH]2)[nH]1

>  <score_type>  (56) 
oracle

>  <origin>  (56) 
adg

>  <m_score__min__energy>  (56) 
-6.5300000000000002

>  <m_primary>  (56) 
energy

$$$$
56:0
     RDKit          3D

 78 80  0  0  0  0  0  0  0  0999 V2000
   55.3970   30.7990   52.9290 C   0  0  0  0  0  0  0  0  0  0  0  0
   56.5940   30.7570   52.0160 C   0  0  0  0  0  0  0  0  0  0  0  0
   57.1370   29.6750   51.8290 O   0  0  0  0  0  0  0  0  0  0  0  0
   57.1040   31.9450   51.3420 N   0  0  1  0  0  0  0  0  0  0  0  0
   57.5350   32.9790   52.3250 C   0  0  0  0  0  0  0  0  0  0  0  0
   59.0130   32.8720   52.7650 C   0  0  0  0  0  0  0  0  0  0  0  0
   59.9920   32.4980   51.6290 C   0  0  2  0  0  0  0  0  0  0  0  0
   61.1170   33.3790   51.6600 O   0  0  0  0  0  0  0  0  0  0  0  0
   62.2300   33.3200   50.8030 C   0  0  0  0  0  0  0  0  0  0  0  0
   63.5050   33.4250   51.3670 C   0  0  0  0  0  0  0  0  0  0  0  0
   64.6540   33.3530   50.5710 C   0  0  0  0  0  0  0  0  0  0  0  0
   65.9030   33.4270   51.2090 O   0  0  0  0  0  0  0  0  0  0  0  0
   67.1360   32.9310   50.6850 C   0  0  0  0  0  0  0  0  0  0  0  0
   68.2300   33.9620   50.9550 C   0  0  0  0  0  0  0  0  0  0  0  0
   67.4920   31.5920   51.3410 C   0  0  0  0  0  0  0  0  0  0  0  0
   64.5200   33.2310   49.1740 C   0  0  0  0  0  0  0  0  0  0  0  0
   63.2460   33.1740   48.5870 C   0  0  0  0  0  0  0  0  0  0  0  0
   63.0900   33.1940   47.1120 C   0  0  0  0  0  0  0  0  0  0  0  0
   64.1070   33.1500   46.3700 O   0  0  0  0  0  0  0  0  0  0  0  0
   61.7890   33.2670   46.5040 N   0  0  0  0  0  0  0  0  0  0  0  0
   60.8390   32.3830   46.6460 C   0  0  0  0  0  0  0  0  0  0  0  0
   61.0100   31.0260   46.8520 C   0  0  0  0  0  0  0  0  0  0  0  0
   59.7210   30.5200   46.8590 C   0  0  0  0  0  0  0  0  0  0  0  0
   59.3170   29.0750   47.1040 C   0  0  0  0  0  0  0  0  0  0  0  0
   59.1760   28.7920   48.6140 C   0  0  0  0  0  0  0  0  0  0  0  0
   60.3910   28.1290   46.5290 C   0  0  0  0  0  0  0  0  0  0  0  0
   57.9720   28.8120   46.4030 C   0  0  0  0  0  0  0  0  0  0  0  0
   58.8410   31.5340   46.7090 N   0  0  0  0  0  0  0  0  0  0  0  0
   59.5160   32.6680   46.5830 N   0  0  0  0  0  0  0  0  0  0  0  0
   58.8730   33.9880   46.3830 C   0  0  0  0  0  0  0  0  0  0  0  0
   59.2620   34.9410   47.5280 C   0  0  0  0  0  0  0  0  0  0  0  0
   57.3350   33.8420   46.3790 C   0  0  0  0  0  0  0  0  0  0  0  0
   59.3060   34.5810   45.0280 C   0  0  0  0  0  0  0  0  0  0  0  0
   62.1090   33.1640   49.4110 C   0  0  0  0  0  0  0  0  0  0  0  0
   59.2990   32.5510   50.2610 C   0  0  0  0  0  0  0  0  0  0  0  0
   58.0990   31.6010   50.2850 C   0  0  0  0  0  0  0  0  0  0  0  0
   55.7339   30.7872   53.9761 H   0  0  0  0  0  0  0  0  0  0  0  0
   54.8229   31.7178   52.7389 H   0  0  0  0  0  0  0  0  0  0  0  0
   54.7599   29.9227   52.7389 H   0  0  0  0  0  0  0  0  0  0  0  0
   56.2900   32.3760   50.8400 H   0  0  0  0  0  0  0  0  0  0  0  0
   56.9028   32.8858   53.2204 H   0  0  0  0  0  0  0  0  0  0  0  0
   57.4292   33.9512   51.8214 H   0  0  0  0  0  0  0  0  0  0  0  0
   59.0841   32.1024   53.5477 H   0  0  0  0  0  0  0  0  0  0  0  0
   59.3086   33.8711   53.1178 H   0  0  0  0  0  0  0  0  0  0  0  0
   60.3366   31.4651   51.7850 H   0  0  0  0  0  0  0  0  0  0  0  0
   63.6067   33.5664   52.4531 H   0  0  0  0  0  0  0  0  0  0  0  0
   67.0407   32.7651   49.6018 H   0  0  0  0  0  0  0  0  0  0  0  0
   68.3592   34.0838   52.0406 H   0  0  0  0  0  0  0  0  0  0  0  0
   69.1753   33.6188   50.5094 H   0  0  0  0  0  0  0  0  0  0  0  0
   67.9434   34.9260   50.5094 H   0  0  0  0  0  0  0  0  0  0  0  0
   67.4631   31.7006   52.4352 H   0  0  0  0  0  0  0  0  0  0  0  0
   66.7662   30.8265   51.0292 H   0  0  0  0  0  0  0  0  0  0  0  0
   68.5022   31.2880   51.0292 H   0  0  0  0  0  0  0  0  0  0  0  0
   65.4176   33.1802   48.5402 H   0  0  0  0  0  0  0  0  0  0  0  0
   61.9534   30.4752   46.9807 H   0  0  0  0  0  0  0  0  0  0  0  0
   59.5952   29.6333   49.1854 H   0  0  0  0  0  0  0  0  0  0  0  0
   58.1123   28.6710   48.8666 H   0  0  0  0  0  0  0  0  0  0  0  0
   59.7200   27.8699   48.8666 H   0  0  0  0  0  0  0  0  0  0  0  0
   60.9364   27.6486   47.3546 H   0  0  0  0  0  0  0  0  0  0  0  0
   59.9076   27.3579   45.9111 H   0  0  0  0  0  0  0  0  0  0  0  0
   61.0949   28.7059   45.9111 H   0  0  0  0  0  0  0  0  0  0  0  0
   57.1881   28.6587   47.1593 H   0  0  0  0  0  0  0  0  0  0  0  0
   57.7110   29.6761   45.7744 H   0  0  0  0  0  0  0  0  0  0  0  0
   58.0557   27.9132   45.7744 H   0  0  0  0  0  0  0  0  0  0  0  0
   59.0632   34.4539   48.4940 H   0  0  0  0  0  0  0  0  0  0  0  0
   60.3319   35.1856   47.4540 H   0  0  0  0  0  0  0  0  0  0  0  0
   58.6688   35.8644   47.4540 H   0  0  0  0  0  0  0  0  0  0  0  0
   56.9673   33.8071   47.4151 H   0  0  0  0  0  0  0  0  0  0  0  0
   56.8864   34.7016   45.8595 H   0  0  0  0  0  0  0  0  0  0  0  0
   57.0562   32.9133   45.8595 H   0  0  0  0  0  0  0  0  0  0  0  0
   59.9467   35.4585   45.1997 H   0  0  0  0  0  0  0  0  0  0  0  0
   59.8655   33.8242   44.4586 H   0  0  0  0  0  0  0  0  0  0  0  0
   58.4148   34.8835   44.4586 H   0  0  0  0  0  0  0  0  0  0  0  0
   61.1131   33.0327   48.9626 H   0  0  0  0  0  0  0  0  0  0  0  0
   60.0036   32.2385   49.4762 H   0  0  0  0  0  0  0  0  0  0  0  0
   58.9625   33.5767   50.0494 H   0  0  0  0  0  0  0  0  0  0  0  0
   58.4643   30.5794   50.4666 H   0  0  0  0  0  0  0  0  0  0  0  0
   57.5905   31.6887   49.3135 H   0  0  0  0  0  0  0  0  0  0  0  0
  1  2  1  0
  2  3  2  0
  2  4  1  0
  4  5  1  0
  5  6  1  0
  6  7  1  0
  7  8  1  0
  8  9  1  0
  9 10  2  0
 10 11  1  0
 11 12  1  0
 12 13  1  0
 13 14  1  0
 13 15  1  0
 11 16  2  0
 16 17  1  0
 17 18  1  0
 18 19  2  0
 18 20  1  0
 20 21  2  3
 21 22  1  0
 22 23  2  0
 23 24  1  0
 24 25  1  0
 24 26  1  0
 24 27  1  0
 23 28  1  0
 28 29  1  0
 29 30  1  0
 30 31  1  0
 30 32  1  0
 30 33  1  0
 17 34  2  0
  7 35  1  0
 35 36  1  0
 36  4  1  0
 34  9  1  0
 29 21  1  0
  1 37  1  0
  1 38  1  0
  1 39  1  0
  4 40  1  6
  5 41  1  0
  5 42  1  0
  6 43  1  0
  6 44  1  0
  7 45  1  1
 10 46  1  0
 13 47  1  0
 14 48  1  0
 14 49  1  0
 14 50  1  0
 15 51  1  0
 15 52  1  0
 15 53  1  0
 16 54  1  0
 22 55  1  0
 25 56  1  0
 25 57  1  0
 25 58  1  0
 26 59  1  0
 26 60  1  0
 26 61  1  0
 27 62  1  0
 27 63  1  0
 27 64  1  0
 31 65  1  0
 31 66  1  0
 31 67  1  0
 32 68  1  0
 32 69  1  0
 32 70  1  0
 33 71  1  0
 33 72  1  0
 33 73  1  0
 34 74  1  0
 35 75  1  0
 35 76  1  0
 36 77  1  0
 36 78  1  0
M  CHG  2   4   1  28  -1
M  END
>  <UniqueID>  (57) 
54

>  <SMILES>  (57) 
CC(=O)[NH+]1CCC(Oc2cc(OC(C)C)cc(C(=O)N=c3cc(C(C)(C)C)[n-]n3C(C)(C)C)c2)CC1

>  <Energy>  (57) 
115.94223522393558

>  <Genealogy>  (57) 
CC(=O)[NH+]1CCC(Oc2cc(OC(C)C)cc(C(=O)N=c3cc(C(C)(C)C)[n-]n3C(C)(C)C)c2)CC1 (protonated)
CC(=O)[NH+]1CCC(Oc2cc(OC(C)C)cc(C(=O)N=c3cc(C(C)(C)C)[n-]n3C(C)(C)C)c2)CC1 (3D coordinates assigned)
CC(=O)[NH+]1CCC(Oc2cc(OC(C)C)cc(C(=O)N=c3cc(C(C)(C)C)[n-]n3C(C)(C)C)c2)CC1 (nonaromatic ring conformer: 115.94223522393558 kcal/mol)

>  <smiles>  (57) 
CC(=O)N1CCC(Oc2cc(OC(C)C)cc(C(=O)N=c3cc(C(C)(C)C)[nH]n3C(C)(C)C)c2)CC1

>  <score_type>  (57) 
oracle

>  <origin>  (57) 
adg

>  <m_score__min__energy>  (57) 
-8.6099999999999994

>  <m_primary>  (57) 
energy

$$$$
57:0
     RDKit          3D

 30 32  0  0  0  0  0  0  0  0999 V2000
   59.3980   34.1370   45.5180 O   0  0  0  0  0  0  0  0  0  0  0  0
   59.7020   33.0030   45.9760 C   0  0  0  0  0  0  0  0  0  0  0  0
   58.8300   31.9730   45.8330 N   0  0  0  0  0  0  0  0  0  0  0  0
   59.1160   30.7280   46.2980 C   0  0  0  0  0  0  0  0  0  0  0  0
   58.1390   29.6230   46.1330 C   0  0  0  0  0  0  0  0  0  0  0  0
   58.3730   28.3650   46.7230 C   0  0  0  0  0  0  0  0  0  0  0  0
   57.4520   27.3250   46.5660 C   0  0  0  0  0  0  0  0  0  0  0  0
   56.2880   27.5240   45.8210 C   0  0  0  0  0  0  0  0  0  0  0  0
   55.3760   26.4850   45.6700 O   0  0  0  0  0  0  0  0  0  0  0  0
   56.0410   28.7680   45.2290 C   0  0  0  0  0  0  0  0  0  0  0  0
   54.8840   28.9710   44.4870 O   0  0  0  0  0  0  0  0  0  0  0  0
   56.9610   29.8110   45.3840 C   0  0  0  0  0  0  0  0  0  0  0  0
   60.3060   30.5060   46.9170 N   0  0  0  0  0  0  0  0  0  0  0  0
   61.2250   31.4950   47.0780 C   0  0  0  0  0  0  0  0  0  0  0  0
   60.9290   32.7990   46.6260 C   0  0  0  0  0  0  0  0  0  0  0  0
   61.9430   33.9190   46.7300 C   0  0  0  0  0  0  0  0  0  0  0  0
   63.0390   33.6320   47.7620 C   0  0  0  0  0  0  0  0  0  0  0  0
   63.5910   32.2190   47.5790 C   0  0  0  0  0  0  0  0  0  0  0  0
   62.4920   31.1830   47.8290 C   0  0  0  0  0  0  0  0  0  0  0  0
   59.2874   28.1999   47.3117 H   0  0  0  0  0  0  0  0  0  0  0  0
   57.6450   26.3469   47.0308 H   0  0  0  0  0  0  0  0  0  0  0  0
   56.7624   30.7867   44.9166 H   0  0  0  0  0  0  0  0  0  0  0  0
   62.4144   34.0592   45.7461 H   0  0  0  0  0  0  0  0  0  0  0  0
   61.4073   34.8222   47.0574 H   0  0  0  0  0  0  0  0  0  0  0  0
   63.8550   34.3585   47.6347 H   0  0  0  0  0  0  0  0  0  0  0  0
   62.6085   33.7174   48.7706 H   0  0  0  0  0  0  0  0  0  0  0  0
   63.9684   32.1070   46.5519 H   0  0  0  0  0  0  0  0  0  0  0  0
   64.4061   32.0571   48.2996 H   0  0  0  0  0  0  0  0  0  0  0  0
   62.8579   30.1962   47.5092 H   0  0  0  0  0  0  0  0  0  0  0  0
   62.2564   31.1978   48.9034 H   0  0  0  0  0  0  0  0  0  0  0  0
  1  2  2  0
  2  3  1  0
  3  4  1  0
  4  5  1  0
  5  6  2  0
  6  7  1  0
  7  8  2  0
  8  9  1  0
  8 10  1  0
 10 11  1  0
 10 12  2  0
  4 13  2  0
 13 14  1  0
 14 15  2  0
 15 16  1  0
 16 17  1  0
 17 18  1  0
 18 19  1  0
 15  2  1  0
 12  5  1  0
 19 14  1  0
  6 20  1  0
  7 21  1  0
 12 22  1  0
 16 23  1  0
 16 24  1  0
 17 25  1  0
 17 26  1  0
 18 27  1  0
 18 28  1  0
 19 29  1  0
 19 30  1  0
M  CHG  3   3  -1   9  -1  11  -1
M  END
>  <UniqueID>  (58) 
55

>  <SMILES>  (58) 
O=c1[n-]c(-c2ccc([O-])c([O-])c2)nc2c1CCCC2

>  <Energy>  (58) 
34.278203541226524

>  <Genealogy>  (58) 
O=c1[n-]c(-c2ccc([O-])c([O-])c2)nc2c1CCCC2 (protonated)
O=c1[n-]c(-c2ccc([O-])c([O-])c2)nc2c1CCCC2 (3D coordinates assigned)
O=c1[n-]c(-c2ccc([O-])c([O-])c2)nc2c1CCCC2 (nonaromatic ring conformer: 34.278203541226524 kcal/mol)

>  <smiles>  (58) 
O=c1[nH]c(-c2ccc(O)c(O)c2)nc2c1CCCC2

>  <score_type>  (58) 
oracle

>  <origin>  (58) 
adg

>  <m_score__min__energy>  (58) 
-15.57

>  <m_primary>  (58) 
energy

$$$$
58:0
     RDKit          3D

 63 66  0  0  0  0  0  0  0  0999 V2000
   54.3770   27.0890   46.3370 H   0  0  0  0  0  0  0  0  0  0  0  0
   55.1220   26.6880   45.7800 O   0  0  0  0  0  0  0  0  0  0  0  0
   56.0260   25.7730   46.3110 C   0  0  0  0  0  0  0  0  0  0  0  0
   55.6590   24.7480   47.0990 N   0  0  0  0  0  0  0  0  0  0  0  0
   56.8260   24.1110   47.3250 C   0  0  0  0  0  0  0  0  0  0  0  0
   56.9050   23.0660   48.0290 O   0  0  0  0  0  0  0  0  0  0  0  0
   57.9040   24.6720   46.7310 N   0  0  0  0  0  0  0  0  0  0  0  0
   57.3940   25.7490   46.1110 C   0  0  0  0  0  0  0  0  0  0  0  0
   58.1930   26.6440   45.2580 C   0  0  0  0  0  0  0  0  0  0  0  0
   58.9872   26.1830   44.6524 H   0  0  0  0  0  0  0  0  0  0  0  0
   58.0370   27.9780   45.1540 C   0  0  0  0  0  0  0  0  0  0  0  0
   57.0000   28.5550   44.4390 C   0  0  0  0  0  0  0  0  0  0  0  0
   56.2477   28.0275   43.8343 H   0  0  0  0  0  0  0  0  0  0  0  0
   57.0920   29.9180   44.6310 C   0  0  0  0  0  0  0  0  0  0  0  0
   56.1330   30.9240   44.0740 C   0  0  0  0  0  0  0  0  0  0  0  0
   55.6320   31.4496   44.9003 H   0  0  0  0  0  0  0  0  0  0  0  0
   56.6813   31.6504   43.4563 H   0  0  0  0  0  0  0  0  0  0  0  0
   55.3812   30.4110   43.4563 H   0  0  0  0  0  0  0  0  0  0  0  0
   58.1640   30.2140   45.3960 N   0  0  0  0  0  0  0  0  0  0  0  0
   58.5280   31.5270   45.8540 C   0  0  0  0  0  0  0  0  0  0  0  0
   58.3790   32.6400   45.0180 C   0  0  0  0  0  0  0  0  0  0  0  0
   57.9958   32.5118   43.9949 H   0  0  0  0  0  0  0  0  0  0  0  0
   58.7170   33.9140   45.4830 C   0  0  0  0  0  0  0  0  0  0  0  0
   58.6146   34.7847   44.8187 H   0  0  0  0  0  0  0  0  0  0  0  0
   59.1850   34.0860   46.7900 C   0  0  0  0  0  0  0  0  0  0  0  0
   59.4507   35.0912   47.1491 H   0  0  0  0  0  0  0  0  0  0  0  0
   59.3170   32.9790   47.6460 C   0  0  0  0  0  0  0  0  0  0  0  0
   59.7800   33.1570   49.0420 C   0  0  0  0  0  0  0  0  0  0  0  0
   58.9300   33.2780   49.9660 O   0  0  0  0  0  0  0  0  0  0  0  0
   61.1830   33.2090   49.3600 N   0  0  0  0  0  0  0  0  0  0  0  0
   62.0790   32.1410   48.8910 C   0  0  0  0  0  0  0  0  0  0  0  0
   62.1852   31.3816   49.6797 H   0  0  0  0  0  0  0  0  0  0  0  0
   61.6524   31.6817   47.9871 H   0  0  0  0  0  0  0  0  0  0  0  0
   63.4530   32.7220   48.5590 C   0  0  0  0  0  0  0  0  0  0  0  0
   64.1663   31.9030   48.3842 H   0  0  0  0  0  0  0  0  0  0  0  0
   63.3829   33.3424   47.6533 H   0  0  0  0  0  0  0  0  0  0  0  0
   63.9140   33.5420   49.6830 N   0  0  0  0  0  0  0  0  0  0  0  0
   64.9860   33.0860   50.5260 C   0  0  0  0  0  0  0  0  0  0  0  0
   64.8020   32.9840   51.7680 O   0  0  0  0  0  0  0  0  0  0  0  0
   66.3400   32.7520   49.9430 C   0  0  0  0  0  0  0  0  0  0  0  0
   66.1929   32.3415   48.9331 H   0  0  0  0  0  0  0  0  0  0  0  0
   66.9271   33.6822   49.9329 H   0  0  0  0  0  0  0  0  0  0  0  0
   67.0980   31.7670   50.7430 N   0  0  0  0  0  0  0  0  0  0  0  0
   66.2770   30.6120   51.1460 C   0  0  0  0  0  0  0  0  0  0  0  0
   66.2370   30.5558   52.2438 H   0  0  0  0  0  0  0  0  0  0  0  0
   65.2584   30.7293   50.7475 H   0  0  0  0  0  0  0  0  0  0  0  0
   66.7225   29.6886   50.7475 H   0  0  0  0  0  0  0  0  0  0  0  0
   67.7600   32.3800   51.9070 C   0  0  0  0  0  0  0  0  0  0  0  0
   67.3234   31.9757   52.8322 H   0  0  0  0  0  0  0  0  0  0  0  0
   68.8358   32.1521   51.8791 H   0  0  0  0  0  0  0  0  0  0  0  0
   67.6153   33.4701   51.8791 H   0  0  0  0  0  0  0  0  0  0  0  0
   63.0340   34.6270   50.1290 C   0  0  0  0  0  0  0  0  0  0  0  0
   63.4594   35.0963   51.0283 H   0  0  0  0  0  0  0  0  0  0  0  0
   62.9448   35.3758   49.3281 H   0  0  0  0  0  0  0  0  0  0  0  0
   61.6480   34.0670   50.4550 C   0  0  0  0  0  0  0  0  0  0  0  0
   61.7023   33.4772   51.3819 H   0  0  0  0  0  0  0  0  0  0  0  0
   60.9429   34.9013   50.5842 H   0  0  0  0  0  0  0  0  0  0  0  0
   59.0080   31.6980   47.1590 C   0  0  0  0  0  0  0  0  0  0  0  0
   59.1442   30.8208   47.8086 H   0  0  0  0  0  0  0  0  0  0  0  0
   58.7720   29.0410   45.7050 C   0  0  0  0  0  0  0  0  0  0  0  0
   59.9570   28.9740   46.3320 C   0  0  0  0  0  0  0  0  0  0  0  0
   60.4270   29.8901   46.7190 H   0  0  0  0  0  0  0  0  0  0  0  0
   60.4580   28.0030   46.4588 H   0  0  0  0  0  0  0  0  0  0  0  0
  1  2  1  0
  2  3  1  0
  3  4  1  0
  4  5  1  0
  5  6  2  0
  5  7  1  0
  7  8  1  0
  8  9  1  0
  9 10  1  0
  9 11  2  0
 11 12  1  0
 12 13  1  0
 12 14  2  0
 14 15  1  0
 15 16  1  0
 15 17  1  0
 15 18  1  0
 14 19  1  0
 19 20  1  0
 20 21  2  0
 21 22  1  0
 21 23  1  0
 23 24  1  0
 23 25  2  0
 25 26  1  0
 25 27  1  0
 27 28  1  0
 28 29  2  0
 28 30  1  0
 30 31  1  0
 31 32  1  0
 31 33  1  0
 31 34  1  0
 34 35  1  0
 34 36  1  0
 34 37  1  0
 37 38  1  0
 38 39  2  0
 38 40  1  0
 40 41  1  0
 40 42  1  0
 40 43  1  0
 43 44  1  0
 44 45  1  0
 44 46  1  0
 44 47  1  0
 43 48  1  0
 48 49  1  0
 48 50  1  0
 48 51  1  0
 37 52  1  0
 52 53  1  0
 52 54  1  0
 52 55  1  0
 55 56  1  0
 55 57  1  0
 27 58  2  0
 58 59  1  0
 19 60  1  0
 60 61  2  0
 61 62  1  0
 61 63  1  0
  8  3  2  0
 60 11  1  0
 58 20  1  0
 55 30  1  0
M  CHG  2   4  -1   7  -1
M  END
>  <UniqueID>  (59) 
56

>  <SMILES>  (59) 
C=c1/c(=C\c2[n-]c(=O)[n-]c2O)cc(C)n1-c1cccc(C(=O)N2CCN(C(=O)CN(C)C)CC2)c1

>  <Energy>  (59) 
148.5871670794481

>  <Genealogy>  (59) 
C=c1c(=Cc2[n-]c(=O)[n-]c2O)cc(C)n1-c1cccc(C(=O)N2CCN(C(=O)CN(C)C)CC2)c1 (protonated)
C=c1/c(=C\c2[n-]c(=O)[n-]c2O)cc(C)n1-c1cccc(C(=O)N2CCN(C(=O)CN(C)C)CC2)c1 (cis-trans isomerization)
C=c1/c(=C\c2[n-]c(=O)[n-]c2O)cc(C)n1-c1cccc(C(=O)N2CCN(C(=O)CN(C)C)CC2)c1 (3D coordinates assigned)
C=c1/c(=C\c2[n-]c(=O)[n-]c2O)cc(C)n1-c1cccc(C(=O)N2CCN(C(=O)CN(C)C)CC2)c1 (nonaromatic ring conformer: 148.5871670794481 kcal/mol)

>  <smiles>  (59) 
C=c1c(=Cc2[nH]c(=O)[nH]c2O)cc(C)n1-c1cccc(C(=O)N2CCN(C(=O)CN(C)C)CC2)c1

>  <score_type>  (59) 
oracle

>  <origin>  (59) 
adg

>  <m_score__min__energy>  (59) 
-14.130000000000001

>  <m_primary>  (59) 
energy

$$$$
59:0
     RDKit          3D

 50 53  0  0  0  0  0  0  0  0999 V2000
   55.9700   26.1500   45.0130 H   0  0  0  0  0  0  0  0  0  0  0  0
   56.0000   26.8020   45.7890 O   0  0  0  0  0  0  0  0  0  0  0  0
   56.3010   28.1430   45.5770 C   0  0  0  0  0  0  0  0  0  0  0  0
   55.5580   28.9640   44.8170 N   0  0  0  0  0  0  0  0  0  0  0  0
   56.2610   30.1150   44.8490 C   0  0  0  0  0  0  0  0  0  0  0  0
   55.8920   31.1530   44.2390 O   0  0  0  0  0  0  0  0  0  0  0  0
   57.3970   30.0660   45.5770 N   0  0  0  0  0  0  0  0  0  0  0  0
   57.4040   28.8110   46.0610 C   0  0  0  0  0  0  0  0  0  0  0  0
   58.5150   28.2590   46.8580 C   0  0  0  0  0  0  0  0  0  0  0  0
   58.6820   27.1722   46.8276 H   0  0  0  0  0  0  0  0  0  0  0  0
   59.3380   29.0040   47.6210 C   0  0  0  0  0  0  0  0  0  0  0  0
   59.5620   28.8530   48.9840 C   0  0  0  0  0  0  0  0  0  0  0  0
   59.1254   28.0856   49.6401 H   0  0  0  0  0  0  0  0  0  0  0  0
   60.4380   29.8520   49.3550 C   0  0  0  0  0  0  0  0  0  0  0  0
   60.9330   30.0850   50.7500 C   0  0  0  0  0  0  0  0  0  0  0  0
   60.1806   29.7308   51.4700 H   0  0  0  0  0  0  0  0  0  0  0  0
   61.8734   29.5350   50.9020 H   0  0  0  0  0  0  0  0  0  0  0  0
   61.1084   31.1602   50.9020 H   0  0  0  0  0  0  0  0  0  0  0  0
   60.7570   30.6190   48.2890 N   0  0  0  0  0  0  0  0  0  0  0  0
   61.6290   31.7620   48.3100 C   0  0  0  0  0  0  0  0  0  0  0  0
   63.0160   31.5670   48.2250 C   0  0  0  0  0  0  0  0  0  0  0  0
   63.4187   30.5495   48.1127 H   0  0  0  0  0  0  0  0  0  0  0  0
   63.8880   32.6550   48.2820 C   0  0  0  0  0  0  0  0  0  0  0  0
   64.9739   32.4927   48.2157 H   0  0  0  0  0  0  0  0  0  0  0  0
   63.3840   33.9490   48.4230 C   0  0  0  0  0  0  0  0  0  0  0  0
   64.0736   34.8046   48.4719 H   0  0  0  0  0  0  0  0  0  0  0  0
   62.0060   34.1590   48.5020 C   0  0  0  0  0  0  0  0  0  0  0  0
   61.6149   35.1817   48.6073 H   0  0  0  0  0  0  0  0  0  0  0  0
   61.1140   33.0730   48.4480 C   0  0  0  0  0  0  0  0  0  0  0  0
   59.6560   33.3290   48.4930 C   0  0  0  0  0  0  0  0  0  0  0  0
   59.0570   33.2790   49.6030 O   0  0  0  0  0  0  0  0  0  0  0  0
   58.9040   33.5890   47.2910 N   0  0  0  0  0  0  0  0  0  0  0  0
   57.4840   33.2210   47.2440 C   0  0  0  0  0  0  0  0  0  0  0  0
   57.3787   32.1568   47.5015 H   0  0  0  0  0  0  0  0  0  0  0  0
   56.9342   33.8456   47.9634 H   0  0  0  0  0  0  0  0  0  0  0  0
   56.9050   33.4590   45.8440 C   0  0  0  0  0  0  0  0  0  0  0  0
   55.9759   32.8807   45.7330 H   0  0  0  0  0  0  0  0  0  0  0  0
   56.6993   34.5326   45.7209 H   0  0  0  0  0  0  0  0  0  0  0  0
   57.8630   33.0370   44.8150 N   0  0  0  0  0  0  0  0  0  0  0  0
   58.1120   32.0330   44.9860 H   0  0  0  0  0  0  0  0  0  0  0  0
   59.0990   33.8440   44.8300 C   0  0  0  0  0  0  0  0  0  0  0  0
   59.9316   33.2074   44.4961 H   0  0  0  0  0  0  0  0  0  0  0  0
   58.9267   34.7015   44.1629 H   0  0  0  0  0  0  0  0  0  0  0  0
   59.4560   34.4220   46.2160 C   0  0  0  0  0  0  0  0  0  0  0  0
   60.5505   34.4622   46.3180 H   0  0  0  0  0  0  0  0  0  0  0  0
   59.0243   35.4305   46.2971 H   0  0  0  0  0  0  0  0  0  0  0  0
   60.0850   30.1180   47.2220 C   0  0  0  0  0  0  0  0  0  0  0  0
   60.1410   30.6430   45.9880 C   0  0  0  0  0  0  0  0  0  0  0  0
   60.7676   31.5260   45.7939 H   0  0  0  0  0  0  0  0  0  0  0  0
   59.5603   30.1903   45.1708 H   0  0  0  0  0  0  0  0  0  0  0  0
  1  2  1  0
  2  3  1  0
  3  4  1  0
  4  5  1  0
  5  6  2  0
  5  7  1  0
  7  8  1  0
  8  9  1  0
  9 10  1  0
  9 11  2  0
 11 12  1  0
 12 13  1  0
 12 14  2  0
 14 15  1  0
 15 16  1  0
 15 17  1  0
 15 18  1  0
 14 19  1  0
 19 20  1  0
 20 21  2  0
 21 22  1  0
 21 23  1  0
 23 24  1  0
 23 25  2  0
 25 26  1  0
 25 27  1  0
 27 28  1  0
 27 29  2  0
 29 30  1  0
 30 31  2  0
 30 32  1  0
 32 33  1  0
 33 34  1  0
 33 35  1  0
 33 36  1  0
 36 37  1  0
 36 38  1  0
 36 39  1  0
 39 40  1  0
 39 41  1  0
 41 42  1  0
 41 43  1  0
 41 44  1  0
 44 45  1  0
 44 46  1  0
 19 47  1  0
 47 48  2  0
 48 49  1  0
 48 50  1  0
  8  3  2  0
 47 11  1  0
 29 20  1  0
 44 32  1  0
M  CHG  2   4  -1   7  -1
M  END
>  <UniqueID>  (60) 
57

>  <SMILES>  (60) 
C=c1/c(=C/c2[n-]c(=O)[n-]c2O)cc(C)n1-c1ccccc1C(=O)N1CCNCC1

>  <Energy>  (60) 
131.79063971627892

>  <Genealogy>  (60) 
C=c1c(=Cc2[n-]c(=O)[n-]c2O)cc(C)n1-c1ccccc1C(=O)N1CCNCC1 (protonated)
C=c1/c(=C/c2[n-]c(=O)[n-]c2O)cc(C)n1-c1ccccc1C(=O)N1CCNCC1 (cis-trans isomerization)
C=c1/c(=C/c2[n-]c(=O)[n-]c2O)cc(C)n1-c1ccccc1C(=O)N1CCNCC1 (3D coordinates assigned)
C=c1/c(=C/c2[n-]c(=O)[n-]c2O)cc(C)n1-c1ccccc1C(=O)N1CCNCC1 (nonaromatic ring conformer: 131.79063971627892 kcal/mol)

>  <smiles>  (60) 
C=c1c(=Cc2[nH]c(=O)[nH]c2O)cc(C)n1-c1ccccc1C(=O)N1CCNCC1

>  <score_type>  (60) 
oracle

>  <origin>  (60) 
adg

>  <m_score__min__energy>  (60) 
-13.08

>  <m_primary>  (60) 
energy

$$$$
60:0
     RDKit          3D

 46 48  0  0  0  0  0  0  0  0999 V2000
   59.0750   29.2410   48.2220 C   0  0  0  0  0  0  0  0  0  0  0  0
   58.8070   30.0470   47.1830 C   0  0  0  0  0  0  0  0  0  0  0  0
   58.4250   29.6690   45.8840 C   0  0  0  0  0  0  0  0  0  0  0  0
   58.3720   28.4590   45.2900 C   0  0  0  0  0  0  0  0  0  0  0  0
   57.5100   27.3330   45.7030 C   0  0  0  0  0  0  0  0  0  0  0  0
   56.1160   27.4450   45.6190 C   0  0  0  0  0  0  0  0  0  0  0  0
   55.5220   28.6270   45.1860 O   0  0  0  0  0  0  0  0  0  0  0  0
   55.3290   26.3970   45.9720 N   0  0  0  0  0  0  0  0  0  0  0  0
   55.8720   25.2270   46.3940 C   0  0  0  0  0  0  0  0  0  0  0  0
   55.1250   24.2710   46.7220 O   0  0  0  0  0  0  0  0  0  0  0  0
   57.2220   25.0850   46.4580 N   0  0  0  0  0  0  0  0  0  0  0  0
   58.0510   26.1040   46.1160 C   0  0  0  0  0  0  0  0  0  0  0  0
   59.3000   25.9330   46.1690 O   0  0  0  0  0  0  0  0  0  0  0  0
   58.0770   30.8390   45.2280 C   0  0  0  0  0  0  0  0  0  0  0  0
   58.3060   31.8770   46.1070 C   0  0  0  0  0  0  0  0  0  0  0  0
   58.0700   33.3240   45.7960 C   0  0  0  0  0  0  0  0  0  0  0  0
   58.7480   31.4010   47.2910 N   0  0  0  0  0  0  0  0  0  0  0  0
   59.0860   32.1960   48.4430 C   0  0  0  0  0  0  0  0  0  0  0  0
   60.0260   33.2310   48.3390 C   0  0  0  0  0  0  0  0  0  0  0  0
   60.3460   34.0030   49.4580 C   0  0  0  0  0  0  0  0  0  0  0  0
   59.7330   33.7470   50.6880 C   0  0  0  0  0  0  0  0  0  0  0  0
   58.7970   32.7040   50.8140 C   0  0  0  0  0  0  0  0  0  0  0  0
   58.1570   32.4460   52.0810 N   0  0  0  0  0  0  0  0  0  0  0  0
   58.4230   33.3160   53.2280 C   0  0  0  0  0  0  0  0  0  0  0  0
   57.0740   31.0940   52.2770 S   0  0  0  0  0  0  0  0  0  0  0  0
   56.9370   30.6760   54.0040 C   0  0  0  0  0  0  0  0  0  0  0  0
   57.6050   29.9150   51.5170 O   0  0  0  0  0  0  0  0  0  0  0  0
   55.7120   31.4370   51.7330 O   0  0  0  0  0  0  0  0  0  0  0  0
   58.4780   31.9350   49.6810 C   0  0  0  0  0  0  0  0  0  0  0  0
   59.3652   29.6717   49.1917 H   0  0  0  0  0  0  0  0  0  0  0  0
   59.0045   28.1496   48.1040 H   0  0  0  0  0  0  0  0  0  0  0  0
   59.0281   28.2967   44.4222 H   0  0  0  0  0  0  0  0  0  0  0  0
   57.6914   30.9238   44.2013 H   0  0  0  0  0  0  0  0  0  0  0  0
   57.9776   33.8904   46.7344 H   0  0  0  0  0  0  0  0  0  0  0  0
   58.9160   33.7164   45.2127 H   0  0  0  0  0  0  0  0  0  0  0  0
   57.1431   33.4272   45.2127 H   0  0  0  0  0  0  0  0  0  0  0  0
   60.5126   33.4355   47.3739 H   0  0  0  0  0  0  0  0  0  0  0  0
   61.0828   34.8151   49.3712 H   0  0  0  0  0  0  0  0  0  0  0  0
   59.9840   34.3648   51.5628 H   0  0  0  0  0  0  0  0  0  0  0  0
   58.2520   32.7569   54.1597 H   0  0  0  0  0  0  0  0  0  0  0  0
   59.4673   33.6598   53.1930 H   0  0  0  0  0  0  0  0  0  0  0  0
   57.7495   34.1850   53.1930 H   0  0  0  0  0  0  0  0  0  0  0  0
   57.2218   31.5450   54.6153 H   0  0  0  0  0  0  0  0  0  0  0  0
   55.8988   30.3922   54.2313 H   0  0  0  0  0  0  0  0  0  0  0  0
   57.6058   29.8328   54.2313 H   0  0  0  0  0  0  0  0  0  0  0  0
   57.7441   31.1200   49.7656 H   0  0  0  0  0  0  0  0  0  0  0  0
  1  2  2  0
  2  3  1  0
  3  4  2  3
  4  5  1  0
  5  6  2  0
  6  7  1  0
  6  8  1  0
  8  9  1  0
  9 10  2  0
  9 11  1  0
 11 12  1  0
 12 13  2  0
  3 14  1  0
 14 15  2  0
 15 16  1  0
 15 17  1  0
 17 18  1  0
 18 19  2  0
 19 20  1  0
 20 21  2  0
 21 22  1  0
 22 23  1  0
 23 24  1  0
 23 25  1  0
 25 26  1  0
 25 27  2  0
 25 28  2  0
 22 29  2  0
 17  2  1  0
 29 18  1  0
 12  5  1  0
  1 30  1  0
  1 31  1  0
  4 32  1  0
 14 33  1  0
 16 34  1  0
 16 35  1  0
 16 36  1  0
 19 37  1  0
 20 38  1  0
 21 39  1  0
 24 40  1  0
 24 41  1  0
 24 42  1  0
 26 43  1  0
 26 44  1  0
 26 45  1  0
 29 46  1  0
M  CHG  3   7  -1   8  -1  11  -1
M  END
>  <UniqueID>  (61) 
58

>  <SMILES>  (61) 
C=c1c(=Cc2c([O-])[n-]c(=O)[n-]c2=O)cc(C)n1-c1cccc(N(C)S(C)(=O)=O)c1

>  <Energy>  (61) 
96.82216639635045

>  <Genealogy>  (61) 
C=c1c(=Cc2c([O-])[n-]c(=O)[n-]c2=O)cc(C)n1-c1cccc(N(C)S(C)(=O)=O)c1 (protonated)
C=c1c(=Cc2c([O-])[n-]c(=O)[n-]c2=O)cc(C)n1-c1cccc(N(C)S(C)(=O)=O)c1 (3D coordinates assigned)
C=c1c(=Cc2c([O-])[n-]c(=O)[n-]c2=O)cc(C)n1-c1cccc(N(C)S(C)(=O)=O)c1 (optimized conformer: 96.82216639635045 kcal/mol)

>  <smiles>  (61) 
C=c1c(=Cc2c(O)[nH]c(=O)[nH]c2=O)cc(C)n1-c1cccc(N(C)S(C)(=O)=O)c1

>  <score_type>  (61) 
oracle

>  <origin>  (61) 
adg

>  <m_score__min__energy>  (61) 
-16.41

>  <m_primary>  (61) 
energy

$$$$
61:0
     RDKit          3D

 50 53  0  0  0  0  0  0  0  0999 V2000
   55.7836   27.6351   52.7827 H   0  0  0  0  0  0  0  0  0  0  0  0
   55.0380   28.4430   52.7460 C   0  0  0  0  0  0  0  0  0  0  0  0
   53.9755   28.2193   52.9222 H   0  0  0  0  0  0  0  0  0  0  0  0
   55.4250   29.7030   52.4860 C   0  0  0  0  0  0  0  0  0  0  0  0
   54.5850   30.8280   52.4090 C   0  0  0  0  0  0  0  0  0  0  0  0
   53.2430   30.9300   52.3530 C   0  0  0  0  0  0  0  0  0  0  0  0
   52.7188   31.1870   53.2853 H   0  0  0  0  0  0  0  0  0  0  0  0
   52.4180   30.7270   51.1510 C   0  0  0  0  0  0  0  0  0  0  0  0
   51.4610   31.5890   50.6660 C   0  0  0  0  0  0  0  0  0  0  0  0
   51.0200   32.7450   51.2950 O   0  0  0  0  0  0  0  0  0  0  0  0
   51.0030   31.1630   49.4730 N   0  0  0  0  0  0  0  0  0  0  0  0
   51.7280   30.0450   49.2550 C   0  0  0  0  0  0  0  0  0  0  0  0
   51.6070   29.3440   48.2170 O   0  0  0  0  0  0  0  0  0  0  0  0
   52.6030   29.7570   50.2380 N   0  0  0  0  0  0  0  0  0  0  0  0
   53.2960   28.9750   50.2630 H   0  0  0  0  0  0  0  0  0  0  0  0
   55.4170   31.9300   52.3600 C   0  0  0  0  0  0  0  0  0  0  0  0
   55.1058   32.9849   52.3400 H   0  0  0  0  0  0  0  0  0  0  0  0
   56.7110   31.4560   52.3410 C   0  0  0  0  0  0  0  0  0  0  0  0
   57.9200   32.3320   52.1940 C   0  0  0  0  0  0  0  0  0  0  0  0
   58.2978   32.6057   53.1902 H   0  0  0  0  0  0  0  0  0  0  0  0
   58.7013   31.7890   51.6420 H   0  0  0  0  0  0  0  0  0  0  0  0
   57.6474   33.2436   51.6420 H   0  0  0  0  0  0  0  0  0  0  0  0
   56.7260   30.1030   52.4010 N   0  0  0  0  0  0  0  0  0  0  0  0
   57.9420   29.2700   52.3620 C   0  0  0  0  0  0  0  0  0  0  0  0
   58.3563   29.1884   53.3777 H   0  0  0  0  0  0  0  0  0  0  0  0
   57.6761   28.2747   51.9766 H   0  0  0  0  0  0  0  0  0  0  0  0
   58.9780   29.8800   51.4530 C   0  0  0  0  0  0  0  0  0  0  0  0
   58.7110   30.0380   50.0840 C   0  0  0  0  0  0  0  0  0  0  0  0
   57.7368   29.7269   49.6788 H   0  0  0  0  0  0  0  0  0  0  0  0
   59.6720   30.5870   49.2320 C   0  0  0  0  0  0  0  0  0  0  0  0
   59.4500   30.7028   48.1609 H   0  0  0  0  0  0  0  0  0  0  0  0
   60.9190   30.9920   49.7330 C   0  0  0  0  0  0  0  0  0  0  0  0
   61.9030   31.5650   48.8520 N   0  0  0  0  0  0  0  0  0  0  0  0
   61.5940   31.7790   47.4320 C   0  0  0  0  0  0  0  0  0  0  0  0
   61.9528   30.9150   46.8534 H   0  0  0  0  0  0  0  0  0  0  0  0
   60.5049   31.8931   47.3279 H   0  0  0  0  0  0  0  0  0  0  0  0
   62.2720   33.0620   46.8940 C   0  0  0  0  0  0  0  0  0  0  0  0
   62.8221   32.8054   45.9767 H   0  0  0  0  0  0  0  0  0  0  0  0
   61.4729   33.7960   46.7130 H   0  0  0  0  0  0  0  0  0  0  0  0
   63.1800   33.6550   47.8100 O   0  0  0  0  0  0  0  0  0  0  0  0
   64.0410   32.6740   48.3430 C   0  0  0  0  0  0  0  0  0  0  0  0
   64.4277   32.0434   47.5289 H   0  0  0  0  0  0  0  0  0  0  0  0
   64.8816   33.1626   48.8574 H   0  0  0  0  0  0  0  0  0  0  0  0
   63.2670   31.8060   49.3380 C   0  0  0  0  0  0  0  0  0  0  0  0
   63.7846   30.8429   49.4583 H   0  0  0  0  0  0  0  0  0  0  0  0
   63.2149   32.3297   50.3040 H   0  0  0  0  0  0  0  0  0  0  0  0
   61.1820   30.8490   51.1050 C   0  0  0  0  0  0  0  0  0  0  0  0
   62.1513   31.1742   51.5109 H   0  0  0  0  0  0  0  0  0  0  0  0
   60.2230   30.2970   51.9600 C   0  0  0  0  0  0  0  0  0  0  0  0
   60.5110   30.1750   53.2780 F   0  0  0  0  0  0  0  0  0  0  0  0
  1  2  1  0
  2  3  1  0
  2  4  2  0
  4  5  1  0
  5  6  2  0
  6  7  1  0
  6  8  1  0
  8  9  2  0
  9 10  1  0
  9 11  1  0
 11 12  1  0
 12 13  2  0
 12 14  1  0
 14 15  1  0
  5 16  1  0
 16 17  1  0
 16 18  2  0
 18 19  1  0
 19 20  1  0
 19 21  1  0
 19 22  1  0
 18 23  1  0
 23 24  1  0
 24 25  1  0
 24 26  1  0
 24 27  1  0
 27 28  2  0
 28 29  1  0
 28 30  1  0
 30 31  1  0
 30 32  2  0
 32 33  1  0
 33 34  1  0
 34 35  1  0
 34 36  1  0
 34 37  1  0
 37 38  1  0
 37 39  1  0
 37 40  1  0
 40 41  1  0
 41 42  1  0
 41 43  1  0
 41 44  1  0
 44 45  1  0
 44 46  1  0
 32 47  1  0
 47 48  1  0
 47 49  2  0
 49 50  1  0
 23  4  1  0
 49 27  1  0
 14  8  1  0
 44 33  1  0
M  CHG  2  10  -1  11  -1
M  END
>  <UniqueID>  (62) 
59

>  <SMILES>  (62) 
C=c1/c(=C\c2[nH]c(=O)[n-]c2[O-])cc(C)n1Cc1ccc(N2CCOCC2)cc1F

>  <Energy>  (62) 
134.68479882144334

>  <Genealogy>  (62) 
C=c1c(=Cc2[nH]c(=O)[n-]c2[O-])cc(C)n1Cc1ccc(N2CCOCC2)cc1F (protonated)
C=c1/c(=C\c2[nH]c(=O)[n-]c2[O-])cc(C)n1Cc1ccc(N2CCOCC2)cc1F (cis-trans isomerization)
C=c1/c(=C\c2[nH]c(=O)[n-]c2[O-])cc(C)n1Cc1ccc(N2CCOCC2)cc1F (3D coordinates assigned)
C=c1/c(=C\c2[nH]c(=O)[n-]c2[O-])cc(C)n1Cc1ccc(N2CCOCC2)cc1F (nonaromatic ring conformer: 134.68479882144334 kcal/mol)

>  <smiles>  (62) 
C=c1c(=Cc2[nH]c(=O)[nH]c2O)cc(C)n1Cc1ccc(N2CCOCC2)cc1F

>  <score_type>  (62) 
oracle

>  <origin>  (62) 
adg

>  <m_score__min__energy>  (62) 
-14.25

>  <m_primary>  (62) 
energy

$$$$
62:0
     RDKit          3D

 57 60  0  0  0  0  0  0  0  0999 V2000
   57.3950   32.2440   42.5450 C   0  0  0  0  0  0  0  0  0  0  0  0
   57.5250   31.2640   43.6820 C   0  0  0  0  0  0  0  0  0  0  0  0
   57.5010   29.8870   43.4000 C   0  0  0  0  0  0  0  0  0  0  0  0
   57.6640   28.9490   44.4210 C   0  0  0  0  0  0  0  0  0  0  0  0
   57.8530   29.3660   45.7410 C   0  0  0  0  0  0  0  0  0  0  0  0
   58.1320   28.3830   46.7450 N   0  0  0  0  0  0  0  0  0  0  0  0
   59.7150   28.0670   47.3800 S   0  0  0  0  0  0  0  0  0  0  0  0
   59.5990   27.5450   48.7850 O   0  0  0  0  0  0  0  0  0  0  0  0
   60.4160   27.0520   46.5190 O   0  0  0  0  0  0  0  0  0  0  0  0
   60.6500   29.5840   47.4010 C   0  0  0  0  0  0  0  0  0  0  0  0
   60.3880   30.3400   48.6730 C   0  0  0  0  0  0  0  0  0  0  0  0
   59.1950   31.0680   48.8330 C   0  0  0  0  0  0  0  0  0  0  0  0
   58.9250   31.7240   50.0390 C   0  0  0  0  0  0  0  0  0  0  0  0
   59.8360   31.6510   51.0960 C   0  0  0  0  0  0  0  0  0  0  0  0
   61.0190   30.9200   50.9480 C   0  0  0  0  0  0  0  0  0  0  0  0
   61.2960   30.2660   49.7430 C   0  0  0  0  0  0  0  0  0  0  0  0
   57.8000   30.7350   46.0420 C   0  0  0  0  0  0  0  0  0  0  0  0
   57.6460   31.6910   45.0270 C   0  0  0  0  0  0  0  0  0  0  0  0
   57.6740   33.4050   45.4770 S   0  0  0  0  0  0  0  0  0  0  0  0
   57.0400   33.5930   46.8250 O   0  0  0  0  0  0  0  0  0  0  0  0
   56.8830   34.2040   44.4820 O   0  0  0  0  0  0  0  0  0  0  0  0
   59.2940   34.0160   45.5350 N   0  0  0  0  0  0  0  0  0  0  0  0
   60.1060   33.9490   46.7110 C   0  0  0  0  0  0  0  0  0  0  0  0
   59.7020   34.5550   47.9090 C   0  0  0  0  0  0  0  0  0  0  0  0
   60.5230   34.4980   49.0400 C   0  0  0  0  0  0  0  0  0  0  0  0
   61.7610   33.8330   48.9840 C   0  0  0  0  0  0  0  0  0  0  0  0
   62.1660   33.2080   47.7850 C   0  0  0  0  0  0  0  0  0  0  0  0
   61.3210   33.2470   46.6650 C   0  0  0  0  0  0  0  0  0  0  0  0
   63.4650   32.4380   47.7320 C   0  0  0  0  0  0  0  0  0  0  0  0
   64.5220   33.0870   48.6330 C   0  0  0  0  0  0  0  0  0  0  0  0
   63.9990   33.2790   49.9940 N   0  0  0  0  0  0  0  0  0  0  0  0
   64.8430   33.0340   51.1660 C   0  0  0  0  0  0  0  0  0  0  0  0
   62.6580   33.7810   50.1580 C   0  0  0  0  0  0  0  0  0  0  0  0
   62.2500   34.1570   51.2940 O   0  0  0  0  0  0  0  0  0  0  0  0
   57.2604   33.2583   42.9488 H   0  0  0  0  0  0  0  0  0  0  0  0
   58.3052   32.2127   41.9281 H   0  0  0  0  0  0  0  0  0  0  0  0
   56.5245   31.9765   41.9281 H   0  0  0  0  0  0  0  0  0  0  0  0
   57.3524   29.5454   42.3650 H   0  0  0  0  0  0  0  0  0  0  0  0
   57.6435   27.8749   44.1848 H   0  0  0  0  0  0  0  0  0  0  0  0
   61.7227   29.3502   47.3321 H   0  0  0  0  0  0  0  0  0  0  0  0
   60.3442   30.2049   46.5460 H   0  0  0  0  0  0  0  0  0  0  0  0
   58.4712   31.1218   48.0064 H   0  0  0  0  0  0  0  0  0  0  0  0
   57.9940   32.2982   50.1552 H   0  0  0  0  0  0  0  0  0  0  0  0
   59.6229   32.1679   52.0433 H   0  0  0  0  0  0  0  0  0  0  0  0
   61.7339   30.8592   51.7818 H   0  0  0  0  0  0  0  0  0  0  0  0
   62.2277   29.6918   49.6325 H   0  0  0  0  0  0  0  0  0  0  0  0
   57.8803   31.0636   47.0887 H   0  0  0  0  0  0  0  0  0  0  0  0
   58.7353   35.0775   47.9597 H   0  0  0  0  0  0  0  0  0  0  0  0
   60.1992   34.9751   49.9768 H   0  0  0  0  0  0  0  0  0  0  0  0
   61.6133   32.7229   45.7431 H   0  0  0  0  0  0  0  0  0  0  0  0
   63.2867   31.4068   48.0710 H   0  0  0  0  0  0  0  0  0  0  0  0
   63.8348   32.4430   46.6960 H   0  0  0  0  0  0  0  0  0  0  0  0
   65.4085   32.4371   48.6753 H   0  0  0  0  0  0  0  0  0  0  0  0
   64.7879   34.0691   48.2149 H   0  0  0  0  0  0  0  0  0  0  0  0
   64.2574   33.2040   52.0815 H   0  0  0  0  0  0  0  0  0  0  0  0
   65.2023   31.9945   51.1483 H   0  0  0  0  0  0  0  0  0  0  0  0
   65.7031   33.7196   51.1483 H   0  0  0  0  0  0  0  0  0  0  0  0
  1  2  1  0
  2  3  2  0
  3  4  1  0
  4  5  2  0
  5  6  1  0
  6  7  1  0
  7  8  2  0
  7  9  2  0
  7 10  1  0
 10 11  1  0
 11 12  2  0
 12 13  1  0
 13 14  2  0
 14 15  1  0
 15 16  2  0
  5 17  1  0
 17 18  2  0
 18 19  1  0
 19 20  2  0
 19 21  2  0
 19 22  1  0
 22 23  1  0
 23 24  2  0
 24 25  1  0
 25 26  2  0
 26 27  1  0
 27 28  2  0
 27 29  1  0
 29 30  1  0
 30 31  1  0
 31 32  1  0
 31 33  1  0
 33 34  2  0
 18  2  1  0
 28 23  1  0
 16 11  1  0
 33 26  1  0
  1 35  1  0
  1 36  1  0
  1 37  1  0
  3 38  1  0
  4 39  1  0
 10 40  1  0
 10 41  1  0
 12 42  1  0
 13 43  1  0
 14 44  1  0
 15 45  1  0
 16 46  1  0
 17 47  1  0
 24 48  1  0
 25 49  1  0
 28 50  1  0
 29 51  1  0
 29 52  1  0
 30 53  1  0
 30 54  1  0
 32 55  1  0
 32 56  1  0
 32 57  1  0
M  CHG  2   6  -1  22  -1
M  END
>  <UniqueID>  (63) 
60

>  <SMILES>  (63) 
Cc1ccc([N-]S(=O)(=O)Cc2ccccc2)cc1S(=O)(=O)[N-]c1ccc2c(c1)CCN(C)C2=O

>  <Energy>  (63) 
67.92393519653845

>  <Genealogy>  (63) 
Cc1ccc([N-]S(=O)(=O)Cc2ccccc2)cc1S(=O)(=O)[N-]c1ccc2c(c1)CCN(C)C2=O (protonated)
Cc1ccc([N-]S(=O)(=O)Cc2ccccc2)cc1S(=O)(=O)[N-]c1ccc2c(c1)CCN(C)C2=O (3D coordinates assigned)
Cc1ccc([N-]S(=O)(=O)Cc2ccccc2)cc1S(=O)(=O)[N-]c1ccc2c(c1)CCN(C)C2=O (nonaromatic ring conformer: 67.92393519653845 kcal/mol)

>  <smiles>  (63) 
Cc1ccc(NS(=O)(=O)Cc2ccccc2)cc1S(=O)(=O)Nc1ccc2c(c1)CCN(C)C2=O

>  <score_type>  (63) 
oracle

>  <origin>  (63) 
adg

>  <m_score__min__energy>  (63) 
-13.220000000000001

>  <m_primary>  (63) 
energy

$$$$
63:0
     RDKit          3D

 51 53  0  0  0  0  0  0  0  0999 V2000
   60.5180   30.0479   44.5611 H   0  0  0  0  0  0  0  0  0  0  0  0
   59.9260   29.1510   44.7960 C   0  0  0  0  0  0  0  0  0  0  0  0
   59.7751   28.3755   44.0306 H   0  0  0  0  0  0  0  0  0  0  0  0
   59.3880   29.0030   46.0160 C   0  0  0  0  0  0  0  0  0  0  0  0
   58.6160   27.9220   46.4560 C   0  0  0  0  0  0  0  0  0  0  0  0
   58.1860   26.8770   45.7240 C   0  0  0  0  0  0  0  0  0  0  0  0
   58.4561   26.8471   44.6581 H   0  0  0  0  0  0  0  0  0  0  0  0
   57.3750   25.7700   46.2640 C   0  0  0  0  0  0  0  0  0  0  0  0
   57.9080   24.6770   46.8380 N   0  0  0  0  0  0  0  0  0  0  0  0
   56.8270   23.9840   47.2580 C   0  0  0  0  0  0  0  0  0  0  0  0
   56.9190   22.8740   47.8420 O   0  0  0  0  0  0  0  0  0  0  0  0
   55.6400   24.5790   47.0100 N   0  0  0  0  0  0  0  0  0  0  0  0
   56.0040   25.7150   46.3920 C   0  0  0  0  0  0  0  0  0  0  0  0
   55.1030   26.6980   46.0010 O   0  0  0  0  0  0  0  0  0  0  0  0
   58.3410   28.1600   47.7970 C   0  0  0  0  0  0  0  0  0  0  0  0
   57.7574   27.5166   48.4719 H   0  0  0  0  0  0  0  0  0  0  0  0
   58.9420   29.3600   48.1180 C   0  0  0  0  0  0  0  0  0  0  0  0
   58.9290   29.9780   49.4820 C   0  0  0  0  0  0  0  0  0  0  0  0
   58.9457   29.1849   50.2440 H   0  0  0  0  0  0  0  0  0  0  0  0
   59.8138   30.6204   49.6019 H   0  0  0  0  0  0  0  0  0  0  0  0
   58.0179   30.5826   49.6019 H   0  0  0  0  0  0  0  0  0  0  0  0
   59.5740   29.8740   47.0390 N   0  0  0  0  0  0  0  0  0  0  0  0
   60.3110   31.1090   47.0100 C   0  0  0  0  0  0  0  0  0  0  0  0
   59.8070   32.3900   46.8570 C   0  0  0  0  0  0  0  0  0  0  0  0
   58.3690   32.7960   46.7280 C   0  0  0  0  0  0  0  0  0  0  0  0
   57.7317   32.0134   47.1655 H   0  0  0  0  0  0  0  0  0  0  0  0
   58.2203   33.7482   47.2582 H   0  0  0  0  0  0  0  0  0  0  0  0
   58.0060   32.9800   45.3070 N   0  0  0  0  0  0  0  0  0  0  0  0
   58.7890   34.0820   44.7260 C   0  0  0  0  0  0  0  0  0  0  0  0
   59.2213   34.6904   45.5340 H   0  0  0  0  0  0  0  0  0  0  0  0
   59.5977   33.6695   44.1048 H   0  0  0  0  0  0  0  0  0  0  0  0
   58.1334   34.7099   44.1048 H   0  0  0  0  0  0  0  0  0  0  0  0
   58.1810   31.7330   44.5200 C   0  0  0  0  0  0  0  0  0  0  0  0
   59.2425   31.6103   44.2591 H   0  0  0  0  0  0  0  0  0  0  0  0
   57.8480   30.8724   45.1188 H   0  0  0  0  0  0  0  0  0  0  0  0
   57.3500   31.8150   43.2430 C   0  0  0  0  0  0  0  0  0  0  0  0
   56.9849   30.8123   42.9761 H   0  0  0  0  0  0  0  0  0  0  0  0
   56.4906   32.4828   43.4023 H   0  0  0  0  0  0  0  0  0  0  0  0
   58.1560   32.3180   42.1990 O   0  0  0  0  0  0  0  0  0  0  0  0
   57.3900   32.4040   41.0180 C   0  0  0  0  0  0  0  0  0  0  0  0
   56.3278   32.5233   41.2778 H   0  0  0  0  0  0  0  0  0  0  0  0
   57.7226   33.2704   40.4275 H   0  0  0  0  0  0  0  0  0  0  0  0
   57.5222   31.4854   40.4275 H   0  0  0  0  0  0  0  0  0  0  0  0
   60.8230   33.2720   46.9650 N   0  0  0  0  0  0  0  0  0  0  0  0
   61.9310   32.5790   47.1860 N   0  0  0  0  0  0  0  0  0  0  0  0
   63.2510   33.1800   47.3200 C   0  0  0  0  0  0  0  0  0  0  0  0
   63.4965   33.2918   48.3864 H   0  0  0  0  0  0  0  0  0  0  0  0
   63.9989   32.5337   46.8374 H   0  0  0  0  0  0  0  0  0  0  0  0
   63.2545   34.1685   46.8374 H   0  0  0  0  0  0  0  0  0  0  0  0
   61.6620   31.2600   47.2210 C   0  0  0  0  0  0  0  0  0  0  0  0
   62.3891   30.4516   47.3877 H   0  0  0  0  0  0  0  0  0  0  0  0
  1  2  1  0
  2  3  1  0
  2  4  2  0
  4  5  1  0
  5  6  2  0
  6  7  1  0
  6  8  1  0
  8  9  1  0
  9 10  1  0
 10 11  2  0
 10 12  1  0
 12 13  1  0
 13 14  1  0
  5 15  1  0
 15 16  1  0
 15 17  2  0
 17 18  1  0
 18 19  1  0
 18 20  1  0
 18 21  1  0
 17 22  1  0
 22 23  1  0
 23 24  1  0
 24 25  1  0
 25 26  1  0
 25 27  1  0
 25 28  1  0
 28 29  1  0
 29 30  1  0
 29 31  1  0
 29 32  1  0
 28 33  1  0
 33 34  1  0
 33 35  1  0
 33 36  1  0
 36 37  1  0
 36 38  1  0
 36 39  1  0
 39 40  1  0
 40 41  1  0
 40 42  1  0
 40 43  1  0
 24 44  2  0
 44 45  1  0
 45 46  1  0
 46 47  1  0
 46 48  1  0
 46 49  1  0
 45 50  1  0
 50 51  1  0
 22  4  1  0
 50 23  2  0
 13  8  2  0
M  CHG  3   9  -1  12  -1  14  -1
M  END
>  <UniqueID>  (64) 
61

>  <SMILES>  (64) 
C=c1/c(=C/c2[n-]c(=O)[n-]c2[O-])cc(C)n1-c1cn(C)nc1CN(C)CCOC

>  <Energy>  (64) 
150.9267834952987

>  <Genealogy>  (64) 
C=c1c(=Cc2[n-]c(=O)[n-]c2[O-])cc(C)n1-c1cn(C)nc1CN(C)CCOC (protonated)
C=c1/c(=C/c2[n-]c(=O)[n-]c2[O-])cc(C)n1-c1cn(C)nc1CN(C)CCOC (cis-trans isomerization)
C=c1/c(=C/c2[n-]c(=O)[n-]c2[O-])cc(C)n1-c1cn(C)nc1CN(C)CCOC (3D coordinates assigned)
C=c1/c(=C/c2[n-]c(=O)[n-]c2[O-])cc(C)n1-c1cn(C)nc1CN(C)CCOC (optimized conformer: 150.9267834952987 kcal/mol)

>  <smiles>  (64) 
C=c1c(=Cc2[nH]c(=O)[nH]c2O)cc(C)n1-c1cn(C)nc1CN(C)CCOC

>  <score_type>  (64) 
oracle

>  <origin>  (64) 
adg

>  <m_score__min__energy>  (64) 
-15.119999999999999

>  <m_primary>  (64) 
energy

$$$$
64:0
     RDKit          3D

 59 63  0  0  0  0  0  0  0  0999 V2000
   57.9220   28.4300   44.5910 C   0  0  0  0  0  0  0  0  0  0  0  0
   58.3240   28.5230   45.8700 C   0  0  0  0  0  0  0  0  0  0  0  0
   58.5060   27.4700   46.7850 C   0  0  0  0  0  0  0  0  0  0  0  0
   58.4440   26.1320   46.6300 C   0  0  0  0  0  0  0  0  0  0  0  0
   57.2180   25.3230   46.6120 C   0  0  0  0  0  0  0  0  0  0  0  0
   57.2020   23.9890   46.7810 N   0  0  0  0  0  0  0  0  0  0  0  0
   55.9050   23.6650   46.5830 C   0  0  0  0  0  0  0  0  0  0  0  0
   55.4790   22.4800   46.6730 O   0  0  0  0  0  0  0  0  0  0  0  0
   55.1020   24.7040   46.2700 N   0  0  0  0  0  0  0  0  0  0  0  0
   55.9520   25.7450   46.2770 C   0  0  0  0  0  0  0  0  0  0  0  0
   55.5860   27.0490   45.9690 O   0  0  0  0  0  0  0  0  0  0  0  0
   58.7970   28.0650   48.0010 C   0  0  0  0  0  0  0  0  0  0  0  0
   58.8200   29.4270   47.7910 C   0  0  0  0  0  0  0  0  0  0  0  0
   59.0980   30.4500   48.8510 C   0  0  0  0  0  0  0  0  0  0  0  0
   58.5440   29.7090   46.4970 N   0  0  0  0  0  0  0  0  0  0  0  0
   58.4070   31.0310   45.9460 C   0  0  0  0  0  0  0  0  0  0  0  0
   57.4270   31.2960   44.9800 C   0  0  0  0  0  0  0  0  0  0  0  0
   57.3060   32.5770   44.4340 C   0  0  0  0  0  0  0  0  0  0  0  0
   58.1500   33.6050   44.8620 C   0  0  0  0  0  0  0  0  0  0  0  0
   59.1170   33.3560   45.8420 C   0  0  0  0  0  0  0  0  0  0  0  0
   59.9930   34.4440   46.2990 C   0  0  0  0  0  0  0  0  0  0  0  0
   59.7120   35.6250   45.9560 O   0  0  0  0  0  0  0  0  0  0  0  0
   61.1640   34.1770   47.1010 N   0  0  0  0  0  0  0  0  0  0  0  0
   61.0740   34.2730   48.5700 C   0  0  0  0  0  0  0  0  0  0  0  0
   62.4550   34.2710   49.2380 C   0  0  0  0  0  0  0  0  0  0  0  0
   63.2690   33.1660   48.7200 N   0  0  0  0  0  0  0  0  0  0  0  0
   64.1040   32.3940   49.6030 C   0  0  0  0  0  0  0  0  0  0  0  0
   63.5530   31.3420   50.3560 C   0  0  0  0  0  0  0  0  0  0  0  0
   64.3590   30.5960   51.2180 C   0  0  0  0  0  0  0  0  0  0  0  0
   65.7210   30.8930   51.3330 C   0  0  0  0  0  0  0  0  0  0  0  0
   66.2760   31.9390   50.5890 C   0  0  0  0  0  0  0  0  0  0  0  0
   65.4720   32.6900   49.7290 C   0  0  0  0  0  0  0  0  0  0  0  0
   63.2770   32.9620   47.2970 C   0  0  0  0  0  0  0  0  0  0  0  0
   63.9710   32.0450   46.7780 O   0  0  0  0  0  0  0  0  0  0  0  0
   62.4380   33.8490   46.4280 C   0  0  0  0  0  0  0  0  0  0  0  0
   59.2440   32.0690   46.3840 C   0  0  0  0  0  0  0  0  0  0  0  0
   57.8196   29.3384   43.9792 H   0  0  0  0  0  0  0  0  0  0  0  0
   57.6954   27.4455   44.1559 H   0  0  0  0  0  0  0  0  0  0  0  0
   59.3976   25.5980   46.5058 H   0  0  0  0  0  0  0  0  0  0  0  0
   54.7670   27.4680   46.3900 H   0  0  0  0  0  0  0  0  0  0  0  0
   58.9761   27.5479   48.9552 H   0  0  0  0  0  0  0  0  0  0  0  0
   58.9737   29.9926   49.8436 H   0  0  0  0  0  0  0  0  0  0  0  0
   60.1289   30.8185   48.7436 H   0  0  0  0  0  0  0  0  0  0  0  0
   58.3954   31.2896   48.7436 H   0  0  0  0  0  0  0  0  0  0  0  0
   56.7508   30.4934   44.6504 H   0  0  0  0  0  0  0  0  0  0  0  0
   56.5446   32.7763   43.6656 H   0  0  0  0  0  0  0  0  0  0  0  0
   58.0541   34.6112   44.4280 H   0  0  0  0  0  0  0  0  0  0  0  0
   60.5551   35.2067   48.8326 H   0  0  0  0  0  0  0  0  0  0  0  0
   60.5231   33.3925   48.9322 H   0  0  0  0  0  0  0  0  0  0  0  0
   62.9614   35.2246   49.0275 H   0  0  0  0  0  0  0  0  0  0  0  0
   62.3276   34.1438   50.3232 H   0  0  0  0  0  0  0  0  0  0  0  0
   62.4825   31.1058   50.2655 H   0  0  0  0  0  0  0  0  0  0  0  0
   63.9232   29.7751   51.8064 H   0  0  0  0  0  0  0  0  0  0  0  0
   66.3565   30.3029   52.0097 H   0  0  0  0  0  0  0  0  0  0  0  0
   67.3474   32.1705   50.6814 H   0  0  0  0  0  0  0  0  0  0  0  0
   65.9105   33.5153   49.1488 H   0  0  0  0  0  0  0  0  0  0  0  0
   62.9882   34.7788   46.2215 H   0  0  0  0  0  0  0  0  0  0  0  0
   62.2185   33.3217   45.4879 H   0  0  0  0  0  0  0  0  0  0  0  0
   60.0028   31.8721   47.1557 H   0  0  0  0  0  0  0  0  0  0  0  0
  1  2  2  0
  2  3  1  0
  3  4  2  3
  4  5  1  0
  5  6  1  0
  6  7  1  0
  7  8  2  0
  7  9  1  0
  9 10  1  0
 10 11  1  0
  3 12  1  0
 12 13  2  0
 13 14  1  0
 13 15  1  0
 15 16  1  0
 16 17  2  0
 17 18  1  0
 18 19  2  0
 19 20  1  0
 20 21  1  0
 21 22  2  0
 21 23  1  0
 23 24  1  0
 24 25  1  0
 25 26  1  0
 26 27  1  0
 27 28  2  0
 28 29  1  0
 29 30  2  0
 30 31  1  0
 31 32  2  0
 26 33  1  0
 33 34  2  0
 33 35  1  0
 20 36  2  0
 15  2  1  0
 36 16  1  0
 10  5  2  0
 35 23  1  0
 32 27  1  0
  1 37  1  0
  1 38  1  0
  4 39  1  0
 11 40  1  0
 12 41  1  0
 14 42  1  0
 14 43  1  0
 14 44  1  0
 17 45  1  0
 18 46  1  0
 19 47  1  0
 24 48  1  0
 24 49  1  0
 25 50  1  0
 25 51  1  0
 28 52  1  0
 29 53  1  0
 30 54  1  0
 31 55  1  0
 32 56  1  0
 35 57  1  0
 35 58  1  0
 36 59  1  0
M  CHG  2   6  -1   9  -1
M  END
>  <UniqueID>  (65) 
62

>  <SMILES>  (65) 
C=c1c(=Cc2[n-]c(=O)[n-]c2O)cc(C)n1-c1cccc(C(=O)N2CCN(c3ccccc3)C(=O)C2)c1

>  <Energy>  (65) 
153.8762309275497

>  <Genealogy>  (65) 
C=c1c(=Cc2[n-]c(=O)[n-]c2O)cc(C)n1-c1cccc(C(=O)N2CCN(c3ccccc3)C(=O)C2)c1 (protonated)
C=c1c(=Cc2[n-]c(=O)[n-]c2O)cc(C)n1-c1cccc(C(=O)N2CCN(c3ccccc3)C(=O)C2)c1 (3D coordinates assigned)
C=c1c(=Cc2[n-]c(=O)[n-]c2O)cc(C)n1-c1cccc(C(=O)N2CCN(c3ccccc3)C(=O)C2)c1 (nonaromatic ring conformer: 153.8762309275497 kcal/mol)

>  <smiles>  (65) 
C=c1c(=Cc2[nH]c(=O)[nH]c2O)cc(C)n1-c1cccc(C(=O)N2CCN(c3ccccc3)C(=O)C2)c1

>  <score_type>  (65) 
oracle

>  <origin>  (65) 
adg

>  <m_score__min__energy>  (65) 
-15.73

>  <m_primary>  (65) 
energy

$$$$
65:0
     RDKit          3D

 43 44  0  0  0  0  0  0  0  0999 V2000
   56.4230   22.8270   42.9700 C   0  0  0  0  0  0  0  0  0  0  0  0
   56.7040   23.0420   44.4240 C   0  0  0  0  0  0  0  0  0  0  0  0
   57.1860   21.9990   45.2240 C   0  0  0  0  0  0  0  0  0  0  0  0
   57.3950   22.2150   46.5490 N   0  0  0  0  0  0  0  0  0  0  0  0
   57.1390   23.4230   47.1190 C   0  0  0  0  0  0  0  0  0  0  0  0
   57.3400   23.5850   48.3520 O   0  0  0  0  0  0  0  0  0  0  0  0
   56.6490   24.4710   46.3220 C   0  0  0  0  0  0  0  0  0  0  0  0
   56.3110   25.8160   46.9040 C   0  0  0  0  0  0  0  0  0  0  0  0
   55.7000   26.6720   45.8920 N   0  0  0  0  0  0  0  0  0  0  0  0
   56.3250   27.8460   45.3670 C   0  0  0  0  0  0  0  0  0  0  0  0
   57.5740   27.8780   45.1830 O   0  0  0  0  0  0  0  0  0  0  0  0
   55.5210   28.9820   45.0460 N   0  0  0  0  0  0  0  0  0  0  0  0
   55.6670   29.7260   43.8010 C   0  0  0  0  0  0  0  0  0  0  0  0
   56.7490   30.7440   43.9510 C   0  0  0  0  0  0  0  0  0  0  0  0
   57.4660   31.0470   42.9580 O   0  0  0  0  0  0  0  0  0  0  0  0
   56.9670   31.3680   45.2190 N   0  0  0  0  0  0  0  0  0  0  0  0
   57.3150   32.7750   45.3570 C   0  0  0  0  0  0  0  0  0  0  0  0
   58.7260   32.8940   45.8560 C   0  0  0  0  0  0  0  0  0  0  0  0
   59.3980   31.7640   46.3510 C   0  0  0  0  0  0  0  0  0  0  0  0
   60.6980   31.8780   46.8520 C   0  0  0  0  0  0  0  0  0  0  0  0
   61.3440   33.1250   46.8630 C   0  0  0  0  0  0  0  0  0  0  0  0
   62.7290   33.2570   47.4360 C   0  0  0  0  0  0  0  0  0  0  0  0
   63.6090   32.3970   46.7650 O   0  0  0  0  0  0  0  0  0  0  0  0
   60.6620   34.2600   46.3960 C   0  0  0  0  0  0  0  0  0  0  0  0
   59.3610   34.1450   45.8960 C   0  0  0  0  0  0  0  0  0  0  0  0
   56.4360   24.2460   44.9960 N   0  0  0  0  0  0  0  0  0  0  0  0
   55.5538   22.1620   42.8589 H   0  0  0  0  0  0  0  0  0  0  0  0
   56.2085   23.7938   42.4911 H   0  0  0  0  0  0  0  0  0  0  0  0
   57.3001   22.3672   42.4911 H   0  0  0  0  0  0  0  0  0  0  0  0
   57.3938   21.0127   44.7834 H   0  0  0  0  0  0  0  0  0  0  0  0
   55.6068   25.6827   47.7385 H   0  0  0  0  0  0  0  0  0  0  0  0
   57.2363   26.2919   47.2609 H   0  0  0  0  0  0  0  0  0  0  0  0
   55.9270   29.0322   42.9880 H   0  0  0  0  0  0  0  0  0  0  0  0
   54.7194   30.2317   43.5638 H   0  0  0  0  0  0  0  0  0  0  0  0
   57.2285   33.2719   44.3794 H   0  0  0  0  0  0  0  0  0  0  0  0
   56.6308   33.2538   46.0730 H   0  0  0  0  0  0  0  0  0  0  0  0
   58.8984   30.7840   46.3443 H   0  0  0  0  0  0  0  0  0  0  0  0
   61.2166   30.9884   47.2388 H   0  0  0  0  0  0  0  0  0  0  0  0
   63.0741   34.2949   47.3194 H   0  0  0  0  0  0  0  0  0  0  0  0
   62.7056   32.9894   48.5027 H   0  0  0  0  0  0  0  0  0  0  0  0
   64.5220   32.6170   47.0870 H   0  0  0  0  0  0  0  0  0  0  0  0
   61.1531   35.2439   46.4235 H   0  0  0  0  0  0  0  0  0  0  0  0
   58.8331   35.0389   45.5325 H   0  0  0  0  0  0  0  0  0  0  0  0
  1  2  1  0
  2  3  2  0
  3  4  1  0
  4  5  1  0
  5  6  2  0
  5  7  1  0
  7  8  1  0
  8  9  1  0
  9 10  1  0
 10 11  2  0
 10 12  1  0
 12 13  1  0
 13 14  1  0
 14 15  2  0
 14 16  1  0
 16 17  1  0
 17 18  1  0
 18 19  2  0
 19 20  1  0
 20 21  2  0
 21 22  1  0
 22 23  1  0
 21 24  1  0
 24 25  2  0
  7 26  2  0
 26  2  1  0
 25 18  1  0
  1 27  1  0
  1 28  1  0
  1 29  1  0
  3 30  1  0
  8 31  1  0
  8 32  1  0
 13 33  1  0
 13 34  1  0
 17 35  1  0
 17 36  1  0
 19 37  1  0
 20 38  1  0
 22 39  1  0
 22 40  1  0
 23 41  1  0
 24 42  1  0
 25 43  1  0
M  CHG  4   4  -1   9  -1  12  -1  16  -1
M  END
>  <UniqueID>  (66) 
63

>  <SMILES>  (66) 
Cc1c[n-]c(=O)c(C[N-]C(=O)[N-]CC(=O)[N-]Cc2ccc(CO)cc2)n1

>  <Energy>  (66) 
34.633870717803234

>  <Genealogy>  (66) 
Cc1c[n-]c(=O)c(C[N-]C(=O)[N-]CC(=O)[N-]Cc2ccc(CO)cc2)n1 (protonated)
Cc1c[n-]c(=O)c(C[N-]C(=O)[N-]CC(=O)[N-]Cc2ccc(CO)cc2)n1 (3D coordinates assigned)
Cc1c[n-]c(=O)c(C[N-]C(=O)[N-]CC(=O)[N-]Cc2ccc(CO)cc2)n1 (optimized conformer: 34.633870717803234 kcal/mol)

>  <smiles>  (66) 
Cc1c[nH]c(=O)c(CNC(=O)NCC(=O)NCc2ccc(CO)cc2)n1

>  <score_type>  (66) 
oracle

>  <origin>  (66) 
adg

>  <m_score__min__energy>  (66) 
-14.23

>  <m_primary>  (66) 
energy

$$$$
66:0
     RDKit          3D

 61 64  0  0  0  0  0  0  0  0999 V2000
   57.1860   30.2980   52.6940 C   0  0  0  0  0  0  0  0  0  0  0  0
   57.8440   30.8280   51.4570 C   0  0  0  0  0  0  0  0  0  0  0  0
   57.9160   30.1030   50.4280 O   0  0  0  0  0  0  0  0  0  0  0  0
   58.4540   32.1260   51.4760 N   0  0  0  0  0  0  0  0  0  0  0  0
   58.9500   32.7980   50.3060 C   0  0  0  0  0  0  0  0  0  0  0  0
   60.0770   33.6380   50.3600 C   0  0  0  0  0  0  0  0  0  0  0  0
   60.5440   34.2670   49.2010 C   0  0  0  0  0  0  0  0  0  0  0  0
   59.9090   34.0430   47.9790 C   0  0  0  0  0  0  0  0  0  0  0  0
   58.8180   33.1690   47.8950 C   0  0  0  0  0  0  0  0  0  0  0  0
   58.1900   32.9590   46.6200 N   0  0  0  0  0  0  0  0  0  0  0  0
   57.8280   31.6890   46.0580 C   0  0  0  0  0  0  0  0  0  0  0  0
   57.7810   30.6780   46.8090 O   0  0  0  0  0  0  0  0  0  0  0  0
   57.5030   31.5500   44.6200 C   0  0  0  0  0  0  0  0  0  0  0  0
   58.0480   32.4510   43.6970 C   0  0  0  0  0  0  0  0  0  0  0  0
   57.8080   32.2990   42.3270 C   0  0  0  0  0  0  0  0  0  0  0  0
   57.0010   31.2580   41.8720 C   0  0  0  0  0  0  0  0  0  0  0  0
   56.4430   30.3580   42.7810 C   0  0  0  0  0  0  0  0  0  0  0  0
   56.7040   30.4820   44.1570 C   0  0  0  0  0  0  0  0  0  0  0  0
   56.1530   29.5420   45.0920 N   0  0  0  0  0  0  0  0  0  0  0  0
   56.6340   28.2120   45.3360 C   0  0  0  0  0  0  0  0  0  0  0  0
   55.8080   27.3100   45.6270 O   0  0  0  0  0  0  0  0  0  0  0  0
   58.0780   27.8890   45.3330 C   0  0  0  0  0  0  0  0  0  0  0  0
   58.6720   27.6630   44.2450 O   0  0  0  0  0  0  0  0  0  0  0  0
   58.7790   27.8080   46.5830 N   0  0  0  0  0  0  0  0  0  0  0  0
   59.7410   28.7450   47.0880 C   0  0  0  0  0  0  0  0  0  0  0  0
   60.4510   29.6240   46.2490 C   0  0  0  0  0  0  0  0  0  0  0  0
   61.3700   30.5280   46.7910 C   0  0  0  0  0  0  0  0  0  0  0  0
   61.5860   30.5820   48.1800 C   0  0  0  0  0  0  0  0  0  0  0  0
   62.5840   31.4690   48.7330 N   0  0  0  0  0  0  0  0  0  0  0  0
   63.3060   32.3980   47.8490 C   0  0  0  0  0  0  0  0  0  0  0  0
   64.0550   33.4530   48.6710 C   0  0  0  0  0  0  0  0  0  0  0  0
   63.2780   33.8100   49.7960 O   0  0  0  0  0  0  0  0  0  0  0  0
   63.2890   32.7570   50.7480 C   0  0  0  0  0  0  0  0  0  0  0  0
   62.9750   31.3600   50.1470 C   0  0  0  0  0  0  0  0  0  0  0  0
   60.8580   29.7220   49.0140 C   0  0  0  0  0  0  0  0  0  0  0  0
   59.9370   28.8200   48.4720 C   0  0  0  0  0  0  0  0  0  0  0  0
   58.3310   32.5630   49.0680 C   0  0  0  0  0  0  0  0  0  0  0  0
   57.6919   30.7055   53.5817 H   0  0  0  0  0  0  0  0  0  0  0  0
   56.1281   30.5991   52.7043 H   0  0  0  0  0  0  0  0  0  0  0  0
   57.2549   29.2002   52.7043 H   0  0  0  0  0  0  0  0  0  0  0  0
   58.6200   32.5730   52.4060 H   0  0  0  0  0  0  0  0  0  0  0  0
   60.5933   33.8010   51.3176 H   0  0  0  0  0  0  0  0  0  0  0  0
   61.4131   34.9392   49.2532 H   0  0  0  0  0  0  0  0  0  0  0  0
   60.2679   34.5567   47.0749 H   0  0  0  0  0  0  0  0  0  0  0  0
   58.6703   33.2856   44.0521 H   0  0  0  0  0  0  0  0  0  0  0  0
   58.2564   33.0014   41.6089 H   0  0  0  0  0  0  0  0  0  0  0  0
   56.8037   31.1456   40.7957 H   0  0  0  0  0  0  0  0  0  0  0  0
   55.7949   29.5464   42.4186 H   0  0  0  0  0  0  0  0  0  0  0  0
   60.2823   29.5998   45.1623 H   0  0  0  0  0  0  0  0  0  0  0  0
   61.9287   31.2026   46.1256 H   0  0  0  0  0  0  0  0  0  0  0  0
   64.0286   31.8321   47.2427 H   0  0  0  0  0  0  0  0  0  0  0  0
   62.5787   32.9059   47.1986 H   0  0  0  0  0  0  0  0  0  0  0  0
   65.0184   33.0412   49.0061 H   0  0  0  0  0  0  0  0  0  0  0  0
   64.2338   34.3434   48.0504 H   0  0  0  0  0  0  0  0  0  0  0  0
   64.2865   32.7187   51.2101 H   0  0  0  0  0  0  0  0  0  0  0  0
   62.4938   32.9769   51.4755 H   0  0  0  0  0  0  0  0  0  0  0  0
   63.8704   30.7258   50.2246 H   0  0  0  0  0  0  0  0  0  0  0  0
   62.1388   30.9175   50.7082 H   0  0  0  0  0  0  0  0  0  0  0  0
   61.0123   29.7569   50.1026 H   0  0  0  0  0  0  0  0  0  0  0  0
   59.3608   28.1628   49.1399 H   0  0  0  0  0  0  0  0  0  0  0  0
   57.4562   31.8983   49.0144 H   0  0  0  0  0  0  0  0  0  0  0  0
  1  2  1  0
  2  3  2  0
  2  4  1  0
  4  5  1  0
  5  6  2  0
  6  7  1  0
  7  8  2  0
  8  9  1  0
  9 10  1  0
 10 11  1  0
 11 12  2  0
 11 13  1  0
 13 14  2  0
 14 15  1  0
 15 16  2  0
 16 17  1  0
 17 18  2  0
 18 19  1  0
 19 20  1  0
 20 21  2  0
 20 22  1  0
 22 23  2  0
 22 24  1  0
 24 25  1  0
 25 26  2  0
 26 27  1  0
 27 28  2  0
 28 29  1  0
 29 30  1  0
 30 31  1  0
 31 32  1  0
 32 33  1  0
 33 34  1  0
 28 35  1  0
 35 36  2  0
  9 37  2  0
 37  5  1  0
 18 13  1  0
 36 25  1  0
 34 29  1  0
  1 38  1  0
  1 39  1  0
  1 40  1  0
  4 41  1  0
  6 42  1  0
  7 43  1  0
  8 44  1  0
 14 45  1  0
 15 46  1  0
 16 47  1  0
 17 48  1  0
 26 49  1  0
 27 50  1  0
 30 51  1  0
 30 52  1  0
 31 53  1  0
 31 54  1  0
 33 55  1  0
 33 56  1  0
 34 57  1  0
 34 58  1  0
 35 59  1  0
 36 60  1  0
 37 61  1  0
M  CHG  3  10  -1  19  -1  24  -1
M  END
>  <UniqueID>  (67) 
64

>  <SMILES>  (67) 
CC(=O)Nc1cccc([N-]C(=O)c2ccccc2[N-]C(=O)C(=O)[N-]c2ccc(N3CCOCC3)cc2)c1

>  <Energy>  (67) 
92.2249159426585

>  <Genealogy>  (67) 
CC(=O)Nc1cccc([N-]C(=O)c2ccccc2[N-]C(=O)C(=O)[N-]c2ccc(N3CCOCC3)cc2)c1 (protonated)
CC(=O)Nc1cccc([N-]C(=O)c2ccccc2[N-]C(=O)C(=O)[N-]c2ccc(N3CCOCC3)cc2)c1 (3D coordinates assigned)
CC(=O)Nc1cccc([N-]C(=O)c2ccccc2[N-]C(=O)C(=O)[N-]c2ccc(N3CCOCC3)cc2)c1 (nonaromatic ring conformer: 92.2249159426585 kcal/mol)

>  <smiles>  (67) 
CC(=O)Nc1cccc(NC(=O)c2ccccc2NC(=O)C(=O)Nc2ccc(N3CCOCC3)cc2)c1

>  <score_type>  (67) 
oracle

>  <origin>  (67) 
adg

>  <m_score__min__energy>  (67) 
-14.26

>  <m_primary>  (67) 
energy

$$$$
67:0
     RDKit          3D

 41 43  0  0  0  0  0  0  0  0999 V2000
   54.7600   25.4450   45.8340 O   0  0  0  0  0  0  0  0  0  0  0  0
   55.8550   26.0440   45.6580 C   0  0  0  0  0  0  0  0  0  0  0  0
   57.1140   25.2530   45.4810 C   0  0  0  0  0  0  0  0  0  0  0  0
   57.3540   24.7930   43.7300 S   0  0  0  0  0  0  0  0  0  0  0  0
   56.7680   23.1120   43.9330 C   0  0  0  0  0  0  0  0  0  0  0  0
   56.8420   22.4310   45.0930 N   0  0  0  0  0  0  0  0  0  0  0  0
   56.2980   21.2470   44.7510 C   0  0  0  0  0  0  0  0  0  0  0  0
   55.9210   21.2110   43.4590 N   0  0  0  0  0  0  0  0  0  0  0  0
   56.2190   22.3900   42.9420 N   0  0  0  0  0  0  0  0  0  0  0  0
   55.9000   27.4730   45.6160 N   0  0  0  0  0  0  0  0  0  0  0  0
   57.0290   28.2070   45.0630 C   0  0  0  0  0  0  0  0  0  0  0  0
   56.8040   29.6810   45.2300 C   0  0  0  0  0  0  0  0  0  0  0  0
   55.8720   30.2340   44.5890 O   0  0  0  0  0  0  0  0  0  0  0  0
   57.6190   30.4790   46.0980 N   0  0  0  0  0  0  0  0  0  0  0  0
   57.9290   31.8560   45.8620 C   0  0  0  0  0  0  0  0  0  0  0  0
   57.4530   32.4750   44.6990 C   0  0  0  0  0  0  0  0  0  0  0  0
   57.7640   33.8110   44.4330 C   0  0  0  0  0  0  0  0  0  0  0  0
   58.5430   34.5400   45.3350 C   0  0  0  0  0  0  0  0  0  0  0  0
   59.0030   33.9370   46.5090 C   0  0  0  0  0  0  0  0  0  0  0  0
   58.6920   32.5990   46.7850 C   0  0  0  0  0  0  0  0  0  0  0  0
   59.2540   31.8740   48.3320 S   0  0  0  0  0  0  0  0  0  0  0  0
   60.8850   32.6100   48.2030 C   0  0  0  0  0  0  0  0  0  0  0  0
   61.2540   33.6510   49.0630 C   0  0  0  0  0  0  0  0  0  0  0  0
   62.5280   34.2230   48.9650 C   0  0  0  0  0  0  0  0  0  0  0  0
   63.4360   33.7510   48.0100 C   0  0  0  0  0  0  0  0  0  0  0  0
   63.0690   32.7090   47.1510 C   0  0  0  0  0  0  0  0  0  0  0  0
   61.7960   32.1360   47.2480 C   0  0  0  0  0  0  0  0  0  0  0  0
   57.9696   25.8584   45.8148 H   0  0  0  0  0  0  0  0  0  0  0  0
   57.0378   24.3328   46.0788 H   0  0  0  0  0  0  0  0  0  0  0  0
   56.1757   20.4051   45.4483 H   0  0  0  0  0  0  0  0  0  0  0  0
   57.9488   27.9153   45.5910 H   0  0  0  0  0  0  0  0  0  0  0  0
   57.1274   27.9723   43.9928 H   0  0  0  0  0  0  0  0  0  0  0  0
   56.8313   31.9065   43.9917 H   0  0  0  0  0  0  0  0  0  0  0  0
   57.3955   34.2888   43.5133 H   0  0  0  0  0  0  0  0  0  0  0  0
   58.7945   35.5893   45.1211 H   0  0  0  0  0  0  0  0  0  0  0  0
   59.6119   34.5154   47.2194 H   0  0  0  0  0  0  0  0  0  0  0  0
   60.5424   34.0199   49.8164 H   0  0  0  0  0  0  0  0  0  0  0  0
   62.8156   35.0436   49.6387 H   0  0  0  0  0  0  0  0  0  0  0  0
   64.4378   34.1990   47.9347 H   0  0  0  0  0  0  0  0  0  0  0  0
   63.7818   32.3400   46.3989 H   0  0  0  0  0  0  0  0  0  0  0  0
   61.5100   31.3140   46.5753 H   0  0  0  0  0  0  0  0  0  0  0  0
  1  2  2  0
  2  3  1  0
  3  4  1  0
  4  5  1  0
  5  6  1  0
  6  7  2  0
  7  8  1  0
  8  9  1  0
  2 10  1  0
 10 11  1  0
 11 12  1  0
 12 13  2  0
 12 14  1  0
 14 15  1  0
 15 16  2  0
 16 17  1  0
 17 18  2  0
 18 19  1  0
 19 20  2  0
 20 21  1  0
 21 22  1  0
 22 23  2  0
 23 24  1  0
 24 25  2  0
 25 26  1  0
 26 27  2  0
  9  5  2  0
 20 15  1  0
 27 22  1  0
  3 28  1  0
  3 29  1  0
  7 30  1  0
 11 31  1  0
 11 32  1  0
 16 33  1  0
 17 34  1  0
 18 35  1  0
 19 36  1  0
 23 37  1  0
 24 38  1  0
 25 39  1  0
 26 40  1  0
 27 41  1  0
M  CHG  3   8  -1  10  -1  14  -1
M  END
>  <UniqueID>  (68) 
65

>  <SMILES>  (68) 
O=C(CSc1nc[n-]n1)[N-]CC(=O)[N-]c1ccccc1Sc1ccccc1

>  <Energy>  (68) 
67.80737578886162

>  <Genealogy>  (68) 
O=C(CSc1nc[n-]n1)[N-]CC(=O)[N-]c1ccccc1Sc1ccccc1 (protonated)
O=C(CSc1nc[n-]n1)[N-]CC(=O)[N-]c1ccccc1Sc1ccccc1 (3D coordinates assigned)
O=C(CSc1nc[n-]n1)[N-]CC(=O)[N-]c1ccccc1Sc1ccccc1 (optimized conformer: 67.80737578886162 kcal/mol)

>  <smiles>  (68) 
O=C(CSc1nc[nH]n1)NCC(=O)Nc1ccccc1Sc1ccccc1

>  <score_type>  (68) 
oracle

>  <origin>  (68) 
adg

>  <m_score__min__energy>  (68) 
-14.4

>  <m_primary>  (68) 
energy

$$$$
68:0
     RDKit          3D

 30 31  0  0  0  0  0  0  0  0999 V2000
   54.7830   26.3110   45.9570 O   0  0  0  0  0  0  0  0  0  0  0  0
   55.8700   25.8760   46.3890 N   0  0  0  0  0  0  0  0  0  0  0  0
   55.9060   24.6160   46.9420 O   0  0  0  0  0  0  0  0  0  0  0  0
   57.0650   26.6750   46.3130 C   0  0  0  0  0  0  0  0  0  0  0  0
   58.0730   26.5410   47.2830 C   0  0  0  0  0  0  0  0  0  0  0  0
   59.2290   27.3230   47.2160 C   0  0  0  0  0  0  0  0  0  0  0  0
   59.3950   28.2430   46.1800 C   0  0  0  0  0  0  0  0  0  0  0  0
   58.4040   28.3870   45.1970 C   0  0  0  0  0  0  0  0  0  0  0  0
   58.5570   29.4200   44.1160 C   0  0  0  0  0  0  0  0  0  0  0  0
   57.2290   30.6120   44.1960 S   0  0  0  0  0  0  0  0  0  0  0  0
   56.0340   29.9990   44.8710 O   0  0  0  0  0  0  0  0  0  0  0  0
   56.8340   30.9990   42.7980 O   0  0  0  0  0  0  0  0  0  0  0  0
   57.7620   32.0500   45.0770 C   0  0  0  0  0  0  0  0  0  0  0  0
   57.8150   33.2790   44.4050 C   0  0  0  0  0  0  0  0  0  0  0  0
   58.2680   34.4130   45.0790 C   0  0  0  0  0  0  0  0  0  0  0  0
   58.6670   34.3140   46.4100 C   0  0  0  0  0  0  0  0  0  0  0  0
   58.6100   33.0750   47.0500 C   0  0  0  0  0  0  0  0  0  0  0  0
   58.1660   31.9730   46.3830 N   0  0  0  0  0  0  0  0  0  0  0  0
   58.1470   30.7690   47.0510 O   0  0  0  0  0  0  0  0  0  0  0  0
   57.2390   27.6070   45.2720 C   0  0  0  0  0  0  0  0  0  0  0  0
   57.9511   25.8154   48.1007 H   0  0  0  0  0  0  0  0  0  0  0  0
   60.0106   27.2131   47.9822 H   0  0  0  0  0  0  0  0  0  0  0  0
   60.3061   28.8576   46.1337 H   0  0  0  0  0  0  0  0  0  0  0  0
   59.5179   29.9396   44.2454 H   0  0  0  0  0  0  0  0  0  0  0  0
   58.5256   28.9180   43.1377 H   0  0  0  0  0  0  0  0  0  0  0  0
   57.5014   33.3487   43.3530 H   0  0  0  0  0  0  0  0  0  0  0  0
   58.3101   35.3825   44.5611 H   0  0  0  0  0  0  0  0  0  0  0  0
   59.0233   35.2031   46.9510 H   0  0  0  0  0  0  0  0  0  0  0  0
   58.9257   32.9876   48.1001 H   0  0  0  0  0  0  0  0  0  0  0  0
   56.4545   27.7252   44.5100 H   0  0  0  0  0  0  0  0  0  0  0  0
  1  2  2  0
  2  3  1  0
  2  4  1  0
  4  5  2  0
  5  6  1  0
  6  7  2  0
  7  8  1  0
  8  9  1  0
  9 10  1  0
 10 11  2  0
 10 12  2  0
 10 13  1  0
 13 14  2  0
 14 15  1  0
 15 16  2  0
 16 17  1  0
 17 18  2  0
 18 19  1  0
  8 20  2  0
 20  4  1  0
 18 13  1  0
  5 21  1  0
  6 22  1  0
  7 23  1  0
  9 24  1  0
  9 25  1  0
 14 26  1  0
 15 27  1  0
 16 28  1  0
 17 29  1  0
 20 30  1  0
M  CHG  4   2   1   3  -1  18   1  19  -1
M  END
>  <UniqueID>  (69) 
66

>  <SMILES>  (69) 
O=[N+]([O-])c1cccc(CS(=O)(=O)c2cccc[n+]2[O-])c1

>  <Energy>  (69) 
28.624303008761622

>  <Genealogy>  (69) 
O=[N+]([O-])c1cccc(CS(=O)(=O)c2cccc[n+]2[O-])c1 (3D coordinates assigned)
O=[N+]([O-])c1cccc(CS(=O)(=O)c2cccc[n+]2[O-])c1 (optimized conformer: 28.624303008761622 kcal/mol)

>  <smiles>  (69) 
O=[N+]([O-])c1cccc(CS(=O)(=O)c2cccc[n+]2[O-])c1

>  <score_type>  (69) 
oracle

>  <origin>  (69) 
adg

>  <m_score__min__energy>  (69) 
-8.5299999999999994

>  <m_primary>  (69) 
energy

$$$$
69:0
     RDKit          3D

 56 58  0  0  0  0  0  0  0  0999 V2000
   64.5220   32.2140   46.9650 H   0  0  0  0  0  0  0  0  0  0  0  0
   63.7490   31.6090   47.2100 O   0  0  0  0  0  0  0  0  0  0  0  0
   62.4290   32.0520   47.1690 C   0  0  0  0  0  0  0  0  0  0  0  0
   61.3760   31.1820   47.4920 C   0  0  0  0  0  0  0  0  0  0  0  0
   61.5916   30.1407   47.7735 H   0  0  0  0  0  0  0  0  0  0  0  0
   60.0540   31.6350   47.4570 C   0  0  0  0  0  0  0  0  0  0  0  0
   59.2314   30.9462   47.6997 H   0  0  0  0  0  0  0  0  0  0  0  0
   59.7730   32.9700   47.1120 C   0  0  0  0  0  0  0  0  0  0  0  0
   58.3490   33.4620   47.0730 C   0  0  0  0  0  0  0  0  0  0  0  0
   58.2486   34.3299   47.7414 H   0  0  0  0  0  0  0  0  0  0  0  0
   57.6851   32.6484   47.4007 H   0  0  0  0  0  0  0  0  0  0  0  0
   57.9560   33.8750   45.6500 C   0  0  0  0  0  0  0  0  0  0  0  0
   58.7331   34.5391   45.2437 H   0  0  0  0  0  0  0  0  0  0  0  0
   56.9847   34.3892   45.6971 H   0  0  0  0  0  0  0  0  0  0  0  0
   57.8130   32.6840   44.7480 C   0  0  0  0  0  0  0  0  0  0  0  0
   58.2060   32.7530   43.5500 O   0  0  0  0  0  0  0  0  0  0  0  0
   57.3920   31.4310   45.3060 N   0  0  0  0  0  0  0  0  0  0  0  0
   57.3160   30.2730   44.7100 C   0  0  0  0  0  0  0  0  0  0  0  0
   56.0600   29.7540   44.1130 C   0  0  0  0  0  0  0  0  0  0  0  0
   55.8400   29.8980   42.8830 O   0  0  0  0  0  0  0  0  0  0  0  0
   55.1550   29.0250   44.8780 O   0  0  0  0  0  0  0  0  0  0  0  0
   58.5290   29.3840   44.7380 C   0  0  0  0  0  0  0  0  0  0  0  0
   59.3903   29.9596   45.1081 H   0  0  0  0  0  0  0  0  0  0  0  0
   58.7240   29.0189   43.7188 H   0  0  0  0  0  0  0  0  0  0  0  0
   58.3000   28.2010   45.6410 C   0  0  0  0  0  0  0  0  0  0  0  0
   57.4110   27.1830   45.2580 C   0  0  0  0  0  0  0  0  0  0  0  0
   56.8846   27.2498   44.2944 H   0  0  0  0  0  0  0  0  0  0  0  0
   57.1920   26.0850   46.0960 C   0  0  0  0  0  0  0  0  0  0  0  0
   56.4875   25.2964   45.7929 H   0  0  0  0  0  0  0  0  0  0  0  0
   57.8690   25.9850   47.3250 C   0  0  0  0  0  0  0  0  0  0  0  0
   57.6270   24.9010   48.2350 N   0  0  0  0  0  0  0  0  0  0  0  0
   57.0160   23.6460   47.9140 C   0  0  0  0  0  0  0  0  0  0  0  0
   57.3480   22.6010   48.5310 O   0  0  0  0  0  0  0  0  0  0  0  0
   55.9440   23.5820   46.9690 N   0  0  0  0  0  0  0  0  0  0  0  0
   56.0640   23.2650   45.5700 C   0  0  0  0  0  0  0  0  0  0  0  0
   57.1600   22.5250   45.0810 C   0  0  0  0  0  0  0  0  0  0  0  0
   57.9478   22.1924   45.7729 H   0  0  0  0  0  0  0  0  0  0  0  0
   57.2510   22.2120   43.7230 C   0  0  0  0  0  0  0  0  0  0  0  0
   58.1129   21.6401   43.3488 H   0  0  0  0  0  0  0  0  0  0  0  0
   56.2530   22.6220   42.8400 C   0  0  0  0  0  0  0  0  0  0  0  0
   56.3346   22.3845   41.7691 H   0  0  0  0  0  0  0  0  0  0  0  0
   55.1500   23.3340   43.3150 C   0  0  0  0  0  0  0  0  0  0  0  0
   54.3616   23.6499   42.6160 H   0  0  0  0  0  0  0  0  0  0  0  0
   55.0400   23.6500   44.6800 C   0  0  0  0  0  0  0  0  0  0  0  0
   53.8400   24.4100   45.1780 C   0  0  0  0  0  0  0  0  0  0  0  0
   53.8376   24.4115   46.2780 H   0  0  0  0  0  0  0  0  0  0  0  0
   53.8833   25.4457   44.8100 H   0  0  0  0  0  0  0  0  0  0  0  0
   52.9222   23.9282   44.8100 H   0  0  0  0  0  0  0  0  0  0  0  0
   58.7440   27.0070   47.7100 C   0  0  0  0  0  0  0  0  0  0  0  0
   59.2588   26.9477   48.6803 H   0  0  0  0  0  0  0  0  0  0  0  0
   58.9690   28.1020   46.8720 C   0  0  0  0  0  0  0  0  0  0  0  0
   59.6731   28.8900   47.1776 H   0  0  0  0  0  0  0  0  0  0  0  0
   60.8290   33.8310   46.7680 C   0  0  0  0  0  0  0  0  0  0  0  0
   60.6150   34.8690   46.4736 H   0  0  0  0  0  0  0  0  0  0  0  0
   62.1500   33.3750   46.7980 C   0  0  0  0  0  0  0  0  0  0  0  0
   63.1860   34.2390   46.4560 O   0  0  0  0  0  0  0  0  0  0  0  0
  1  2  1  0
  2  3  1  0
  3  4  2  0
  4  5  1  0
  4  6  1  0
  6  7  1  0
  6  8  2  0
  8  9  1  0
  9 10  1  0
  9 11  1  0
  9 12  1  0
 12 13  1  0
 12 14  1  0
 12 15  1  0
 15 16  2  0
 15 17  1  0
 17 18  2  0
 18 19  1  0
 19 20  2  0
 19 21  1  0
 18 22  1  0
 22 23  1  0
 22 24  1  0
 22 25  1  0
 25 26  2  0
 26 27  1  0
 26 28  1  0
 28 29  1  0
 28 30  2  0
 30 31  1  0
 31 32  1  0
 32 33  2  0
 32 34  1  0
 34 35  1  0
 35 36  2  0
 36 37  1  0
 36 38  1  0
 38 39  1  0
 38 40  2  0
 40 41  1  0
 40 42  1  0
 42 43  1  0
 42 44  2  0
 44 45  1  0
 45 46  1  0
 45 47  1  0
 45 48  1  0
 30 49  1  0
 49 50  1  0
 49 51  2  0
 51 52  1  0
  8 53  1  0
 53 54  1  0
 53 55  2  0
 55 56  1  0
 55  3  1  0
 51 25  1  0
 44 35  1  0
M  CHG  4  21  -1  31  -1  34  -1  56  -1
M  END
>  <UniqueID>  (70) 
67

>  <SMILES>  (70) 
Cc1ccccc1[N-]C(=O)[N-]c1ccc(C/C(=N/C(=O)CCc2ccc(O)c([O-])c2)C(=O)[O-])cc1

>  <Energy>  (70) 
68.3396859066396

>  <Genealogy>  (70) 
Cc1ccccc1[N-]C(=O)[N-]c1ccc(CC(=NC(=O)CCc2ccc(O)c([O-])c2)C(=O)[O-])cc1 (protonated)
Cc1ccccc1[N-]C(=O)[N-]c1ccc(C/C(=N/C(=O)CCc2ccc(O)c([O-])c2)C(=O)[O-])cc1 (cis-trans isomerization)
Cc1ccccc1[N-]C(=O)[N-]c1ccc(C/C(=N/C(=O)CCc2ccc(O)c([O-])c2)C(=O)[O-])cc1 (3D coordinates assigned)
Cc1ccccc1[N-]C(=O)[N-]c1ccc(C/C(=N/C(=O)CCc2ccc(O)c([O-])c2)C(=O)[O-])cc1 (optimized conformer: 68.3396859066396 kcal/mol)

>  <smiles>  (70) 
Cc1ccccc1NC(=O)Nc1ccc(CC(=NC(=O)CCc2ccc(O)c(O)c2)C(=O)O)cc1

>  <score_type>  (70) 
oracle

>  <origin>  (70) 
adg

>  <m_score__min__energy>  (70) 
-16.379999999999999

>  <m_primary>  (70) 
energy

$$$$
70:0
     RDKit          3D

 48 51  0  0  0  0  0  0  0  0999 V2000
   56.4990   29.5370   44.3820 C   0  0  0  0  0  0  0  0  0  0  0  0
   57.6650   29.0750   44.8570 C   0  0  0  0  0  0  0  0  0  0  0  0
   58.0850   27.7370   44.9390 C   0  0  0  0  0  0  0  0  0  0  0  0
   57.4080   26.5860   44.7680 C   0  0  0  0  0  0  0  0  0  0  0  0
   56.9840   25.6720   45.8420 C   0  0  0  0  0  0  0  0  0  0  0  0
   57.7510   24.6980   46.3660 N   0  0  0  0  0  0  0  0  0  0  0  0
   56.9050   24.0480   47.1940 C   0  0  0  0  0  0  0  0  0  0  0  0
   57.2610   23.0640   47.8930 O   0  0  0  0  0  0  0  0  0  0  0  0
   55.6420   24.5290   47.2070 N   0  0  0  0  0  0  0  0  0  0  0  0
   55.7090   25.5460   46.3330 C   0  0  0  0  0  0  0  0  0  0  0  0
   54.6220   26.3410   45.9880 O   0  0  0  0  0  0  0  0  0  0  0  0
   59.4320   27.7740   45.2710 C   0  0  0  0  0  0  0  0  0  0  0  0
   59.7640   29.1010   45.4460 C   0  0  0  0  0  0  0  0  0  0  0  0
   61.1270   29.6070   45.8030 C   0  0  0  0  0  0  0  0  0  0  0  0
   58.6940   29.8870   45.2040 N   0  0  0  0  0  0  0  0  0  0  0  0
   58.7040   31.3230   45.2060 C   0  0  0  0  0  0  0  0  0  0  0  0
   59.1840   32.0080   46.3320 C   0  0  0  0  0  0  0  0  0  0  0  0
   59.1800   33.4110   46.3670 C   0  0  0  0  0  0  0  0  0  0  0  0
   59.7040   34.1190   47.5510 C   0  0  0  0  0  0  0  0  0  0  0  0
   58.9650   34.9570   48.1350 O   0  0  0  0  0  0  0  0  0  0  0  0
   61.0370   33.8840   48.0430 N   0  0  0  0  0  0  0  0  0  0  0  0
   62.1460   33.4600   47.2030 C   0  0  0  0  0  0  0  0  0  0  0  0
   63.3650   33.4300   48.1130 C   0  0  0  0  0  0  0  0  0  0  0  0
   62.9890   34.2450   49.3480 C   0  0  0  0  0  0  0  0  0  0  0  0
   61.4670   34.3010   49.3670 C   0  0  0  0  0  0  0  0  0  0  0  0
   58.7220   34.1240   45.2500 C   0  0  0  0  0  0  0  0  0  0  0  0
   58.2450   33.4450   44.1260 C   0  0  0  0  0  0  0  0  0  0  0  0
   58.2290   32.0480   44.0970 C   0  0  0  0  0  0  0  0  0  0  0  0
   57.7480   31.4020   42.9580 O   0  0  0  0  0  0  0  0  0  0  0  0
   56.2973   30.6183   44.3760 H   0  0  0  0  0  0  0  0  0  0  0  0
   55.7443   28.8346   43.9984 H   0  0  0  0  0  0  0  0  0  0  0  0
   57.1491   26.3038   43.7368 H   0  0  0  0  0  0  0  0  0  0  0  0
   60.1056   26.9105   45.3747 H   0  0  0  0  0  0  0  0  0  0  0  0
   61.2290   29.6449   46.8976 H   0  0  0  0  0  0  0  0  0  0  0  0
   61.8893   28.9320   45.3869 H   0  0  0  0  0  0  0  0  0  0  0  0
   61.2642   30.6160   45.3869 H   0  0  0  0  0  0  0  0  0  0  0  0
   59.5663   31.4414   47.1939 H   0  0  0  0  0  0  0  0  0  0  0  0
   61.9523   32.4597   46.7885 H   0  0  0  0  0  0  0  0  0  0  0  0
   62.2926   34.1401   46.3509 H   0  0  0  0  0  0  0  0  0  0  0  0
   63.6046   32.3946   48.3968 H   0  0  0  0  0  0  0  0  0  0  0  0
   64.2521   33.8445   47.6117 H   0  0  0  0  0  0  0  0  0  0  0  0
   63.3648   33.7549   50.2583 H   0  0  0  0  0  0  0  0  0  0  0  0
   63.4288   35.2527   49.3148 H   0  0  0  0  0  0  0  0  0  0  0  0
   61.0684   33.6180   50.1316 H   0  0  0  0  0  0  0  0  0  0  0  0
   61.1028   35.3099   49.6110 H   0  0  0  0  0  0  0  0  0  0  0  0
   58.7383   35.2238   45.2587 H   0  0  0  0  0  0  0  0  0  0  0  0
   57.8797   34.0138   43.2582 H   0  0  0  0  0  0  0  0  0  0  0  0
   58.1340   30.5240   42.6300 H   0  0  0  0  0  0  0  0  0  0  0  0
  1  2  2  0
  2  3  1  0
  3  4  2  3
  4  5  1  0
  5  6  1  0
  6  7  1  0
  7  8  2  0
  7  9  1  0
  9 10  1  0
 10 11  1  0
  3 12  1  0
 12 13  2  0
 13 14  1  0
 13 15  1  0
 15 16  1  0
 16 17  2  0
 17 18  1  0
 18 19  1  0
 19 20  2  0
 19 21  1  0
 21 22  1  0
 22 23  1  0
 23 24  1  0
 24 25  1  0
 18 26  2  0
 26 27  1  0
 27 28  2  0
 28 29  1  0
 15  2  1  0
 28 16  1  0
 10  5  2  0
 25 21  1  0
  1 30  1  0
  1 31  1  0
  4 32  1  0
 12 33  1  0
 14 34  1  0
 14 35  1  0
 14 36  1  0
 17 37  1  0
 22 38  1  0
 22 39  1  0
 23 40  1  0
 23 41  1  0
 24 42  1  0
 24 43  1  0
 25 44  1  0
 25 45  1  0
 26 46  1  0
 27 47  1  0
 29 48  1  0
M  CHG  3   6  -1   9  -1  11  -1
M  END
>  <UniqueID>  (71) 
68

>  <SMILES>  (71) 
C=c1c(=Cc2[n-]c(=O)[n-]c2[O-])cc(C)n1-c1cc(C(=O)N2CCCC2)ccc1O

>  <Energy>  (71) 
130.64997486896198

>  <Genealogy>  (71) 
C=c1c(=Cc2[n-]c(=O)[n-]c2[O-])cc(C)n1-c1cc(C(=O)N2CCCC2)ccc1O (protonated)
C=c1c(=Cc2[n-]c(=O)[n-]c2[O-])cc(C)n1-c1cc(C(=O)N2CCCC2)ccc1O (3D coordinates assigned)
C=c1c(=Cc2[n-]c(=O)[n-]c2[O-])cc(C)n1-c1cc(C(=O)N2CCCC2)ccc1O (nonaromatic ring conformer: 130.64997486896198 kcal/mol)

>  <smiles>  (71) 
C=c1c(=Cc2[nH]c(=O)[nH]c2O)cc(C)n1-c1cc(C(=O)N2CCCC2)ccc1O

>  <score_type>  (71) 
oracle

>  <origin>  (71) 
adg

>  <m_score__min__energy>  (71) 
-16.52

>  <m_primary>  (71) 
energy

$$$$
71:0
     RDKit          3D

 54 57  0  0  0  0  0  0  0  0999 V2000
   57.4080   25.9400   47.4090 C   0  0  0  0  0  0  0  0  0  0  0  0
   57.9840   26.3890   46.2820 C   0  0  0  0  0  0  0  0  0  0  0  0
   57.6910   26.0080   44.9610 C   0  0  0  0  0  0  0  0  0  0  0  0
   56.9430   24.9980   44.4770 C   0  0  0  0  0  0  0  0  0  0  0  0
   55.6390   24.5650   45.0080 C   0  0  0  0  0  0  0  0  0  0  0  0
   55.0910   23.3520   44.8030 N   0  0  0  0  0  0  0  0  0  0  0  0
   53.8610   23.4690   45.3510 C   0  0  0  0  0  0  0  0  0  0  0  0
   53.0350   22.5190   45.3730 O   0  0  0  0  0  0  0  0  0  0  0  0
   53.5840   24.6880   45.8650 N   0  0  0  0  0  0  0  0  0  0  0  0
   54.7150   25.3720   45.6250 C   0  0  0  0  0  0  0  0  0  0  0  0
   54.8940   26.7100   45.9550 O   0  0  0  0  0  0  0  0  0  0  0  0
   58.3630   26.9030   44.1420 C   0  0  0  0  0  0  0  0  0  0  0  0
   59.0750   27.7470   44.9690 C   0  0  0  0  0  0  0  0  0  0  0  0
   59.9870   28.8410   44.5050 C   0  0  0  0  0  0  0  0  0  0  0  0
   58.8580   27.4260   46.2620 N   0  0  0  0  0  0  0  0  0  0  0  0
   59.3910   28.1320   47.3950 C   0  0  0  0  0  0  0  0  0  0  0  0
   60.2080   27.4560   48.3070 C   0  0  0  0  0  0  0  0  0  0  0  0
   60.7410   28.1240   49.4110 C   0  0  0  0  0  0  0  0  0  0  0  0
   60.4540   29.4870   49.6330 C   0  0  0  0  0  0  0  0  0  0  0  0
   61.0120   30.2320   50.8010 C   0  0  0  0  0  0  0  0  0  0  0  0
   61.8850   31.1230   50.5860 O   0  0  0  0  0  0  0  0  0  0  0  0
   60.6040   29.9350   52.1690 N   0  0  0  0  0  0  0  0  0  0  0  0
   60.2180   31.1730   52.8820 C   0  0  0  0  0  0  0  0  0  0  0  0
   58.8880   31.7720   52.3670 C   0  0  0  0  0  0  0  0  0  0  0  0
   58.0430   30.7700   51.6810 N   0  0  0  0  0  0  0  0  0  0  0  0
   56.6490   31.2350   51.6080 C   0  0  0  0  0  0  0  0  0  0  0  0
   58.1190   29.4670   52.3570 C   0  0  0  0  0  0  0  0  0  0  0  0
   59.5450   28.8890   52.2350 C   0  0  0  0  0  0  0  0  0  0  0  0
   59.6320   30.1620   48.7080 C   0  0  0  0  0  0  0  0  0  0  0  0
   59.1030   29.4930   47.5950 C   0  0  0  0  0  0  0  0  0  0  0  0
   58.2600   30.2130   46.6700 C   0  0  0  0  0  0  0  0  0  0  0  0
   57.5840   30.7920   45.9300 N   0  0  0  0  0  0  0  0  0  0  0  0
   57.7357   26.3258   48.3856 H   0  0  0  0  0  0  0  0  0  0  0  0
   56.6085   25.1864   47.3555 H   0  0  0  0  0  0  0  0  0  0  0  0
   57.3401   24.4491   43.6104 H   0  0  0  0  0  0  0  0  0  0  0  0
   58.3339   26.9340   43.0428 H   0  0  0  0  0  0  0  0  0  0  0  0
   60.4159   29.3555   45.3775 H   0  0  0  0  0  0  0  0  0  0  0  0
   60.7973   28.4103   43.8984 H   0  0  0  0  0  0  0  0  0  0  0  0
   59.4175   29.5605   43.8984 H   0  0  0  0  0  0  0  0  0  0  0  0
   60.4323   26.3901   48.1533 H   0  0  0  0  0  0  0  0  0  0  0  0
   61.3908   27.5824   50.1142 H   0  0  0  0  0  0  0  0  0  0  0  0
   61.4290   29.5270   52.6680 H   0  0  0  0  0  0  0  0  0  0  0  0
   60.1086   30.9426   53.9520 H   0  0  0  0  0  0  0  0  0  0  0  0
   61.0076   31.9177   52.7033 H   0  0  0  0  0  0  0  0  0  0  0  0
   58.3291   32.1779   53.2231 H   0  0  0  0  0  0  0  0  0  0  0  0
   59.1355   32.5565   51.6367 H   0  0  0  0  0  0  0  0  0  0  0  0
   56.2528   31.3672   52.6256 H   0  0  0  0  0  0  0  0  0  0  0  0
   56.6102   32.1947   51.0719 H   0  0  0  0  0  0  0  0  0  0  0  0
   56.0418   30.4907   51.0719 H   0  0  0  0  0  0  0  0  0  0  0  0
   57.8674   29.5935   53.4203 H   0  0  0  0  0  0  0  0  0  0  0  0
   57.4077   28.7739   51.8841 H   0  0  0  0  0  0  0  0  0  0  0  0
   59.7388   28.2514   53.1102 H   0  0  0  0  0  0  0  0  0  0  0  0
   59.5869   28.3246   51.2918 H   0  0  0  0  0  0  0  0  0  0  0  0
   59.4027   31.2269   48.8612 H   0  0  0  0  0  0  0  0  0  0  0  0
  1  2  2  0
  2  3  1  0
  3  4  2  3
  4  5  1  0
  5  6  1  0
  6  7  1  0
  7  8  2  0
  7  9  1  0
  9 10  1  0
 10 11  1  0
  3 12  1  0
 12 13  2  0
 13 14  1  0
 13 15  1  0
 15 16  1  0
 16 17  2  0
 17 18  1  0
 18 19  2  0
 19 20  1  0
 20 21  2  0
 20 22  1  0
 22 23  1  0
 23 24  1  0
 24 25  1  0
 25 26  1  0
 25 27  1  0
 27 28  1  0
 19 29  1  0
 29 30  2  0
 30 31  1  0
 31 32  3  0
 15  2  1  0
 30 16  1  0
 10  5  2  0
 28 22  1  0
  1 33  1  0
  1 34  1  0
  4 35  1  0
 12 36  1  0
 14 37  1  0
 14 38  1  0
 14 39  1  0
 17 40  1  0
 18 41  1  0
 22 42  1  0
 23 43  1  0
 23 44  1  0
 24 45  1  0
 24 46  1  0
 26 47  1  0
 26 48  1  0
 26 49  1  0
 27 50  1  0
 27 51  1  0
 28 52  1  0
 28 53  1  0
 29 54  1  0
M  CHG  4   6  -1   9  -1  11  -1  22   1
M  END
>  <UniqueID>  (72) 
69

>  <SMILES>  (72) 
C=c1c(=Cc2[n-]c(=O)[n-]c2[O-])cc(C)n1-c1ccc(C(=O)[NH+]2CCN(C)CC2)cc1C#N

>  <Energy>  (72) 
147.12609278618547

>  <Genealogy>  (72) 
C=c1c(=Cc2[n-]c(=O)[n-]c2[O-])cc(C)n1-c1ccc(C(=O)[NH+]2CCN(C)CC2)cc1C#N (protonated)
C=c1c(=Cc2[n-]c(=O)[n-]c2[O-])cc(C)n1-c1ccc(C(=O)[NH+]2CCN(C)CC2)cc1C#N (3D coordinates assigned)
C=c1c(=Cc2[n-]c(=O)[n-]c2[O-])cc(C)n1-c1ccc(C(=O)[NH+]2CCN(C)CC2)cc1C#N (nonaromatic ring conformer: 147.12609278618547 kcal/mol)

>  <smiles>  (72) 
C=c1c(=Cc2[nH]c(=O)[nH]c2O)cc(C)n1-c1ccc(C(=O)N2CCN(C)CC2)cc1C#N

>  <score_type>  (72) 
oracle

>  <origin>  (72) 
adg

>  <m_score__min__energy>  (72) 
-14.390000000000001

>  <m_primary>  (72) 
energy

$$$$
72:0
     RDKit          3D

 58 60  0  0  0  0  0  0  0  0999 V2000
   60.2730   28.9410   45.7650 C   0  0  0  0  0  0  0  0  0  0  0  0
   58.8500   29.2070   45.9960 N   0  0  0  0  0  0  0  0  0  0  0  0
   57.9770   28.1730   46.5710 C   0  0  0  0  0  0  0  0  0  0  0  0
   58.1790   26.8170   45.8580 C   0  0  0  0  0  0  0  0  0  0  0  0
   57.7430   26.7960   44.4410 N   0  0  0  0  0  0  0  0  0  0  0  0
   57.3880   25.4420   43.9740 C   0  0  0  0  0  0  0  0  0  0  0  0
   58.7240   27.4220   43.5370 C   0  0  0  0  0  0  0  0  0  0  0  0
   58.3490   30.5450   45.8200 C   0  0  0  0  0  0  0  0  0  0  0  0
   57.2290   30.8050   44.9820 C   0  0  0  0  0  0  0  0  0  0  0  0
   56.5340   29.7370   44.2140 C   0  0  0  0  0  0  0  0  0  0  0  0
   55.4990   28.9680   44.8270 N   0  0  0  0  0  0  0  0  0  0  0  0
   56.8310   29.5050   43.0120 O   0  0  0  0  0  0  0  0  0  0  0  0
   56.7670   32.1300   44.8560 C   0  0  0  0  0  0  0  0  0  0  0  0
   57.4020   33.1750   45.5230 C   0  0  0  0  0  0  0  0  0  0  0  0
   58.5060   32.9220   46.3290 C   0  0  0  0  0  0  0  0  0  0  0  0
   58.9830   31.6170   46.4880 C   0  0  0  0  0  0  0  0  0  0  0  0
   60.1090   31.3860   47.3510 N   0  0  0  0  0  0  0  0  0  0  0  0
   61.2740   32.2260   47.2480 C   0  0  0  0  0  0  0  0  0  0  0  0
   61.3470   33.0970   46.3390 O   0  0  0  0  0  0  0  0  0  0  0  0
   62.4480   32.0500   48.1750 C   0  0  0  0  0  0  0  0  0  0  0  0
   62.1080   31.2980   49.4820 C   0  0  0  0  0  0  0  0  0  0  0  0
   61.5500   32.1990   50.5770 C   0  0  0  0  0  0  0  0  0  0  0  0
   60.3280   32.8850   50.4320 C   0  0  0  0  0  0  0  0  0  0  0  0
   59.8330   33.6840   51.4680 C   0  0  0  0  0  0  0  0  0  0  0  0
   60.5430   33.8020   52.6630 C   0  0  0  0  0  0  0  0  0  0  0  0
   61.7490   33.1180   52.8270 C   0  0  0  0  0  0  0  0  0  0  0  0
   62.2490   32.3190   51.7950 C   0  0  0  0  0  0  0  0  0  0  0  0
   61.2090   30.0740   49.2310 C   0  0  0  0  0  0  0  0  0  0  0  0
   60.0020   30.4340   48.4210 C   0  0  0  0  0  0  0  0  0  0  0  0
   58.9010   29.8720   48.6700 O   0  0  0  0  0  0  0  0  0  0  0  0
   60.7896   28.8444   46.7314 H   0  0  0  0  0  0  0  0  0  0  0  0
   60.3836   28.0066   45.1952 H   0  0  0  0  0  0  0  0  0  0  0  0
   60.7136   29.7723   45.1952 H   0  0  0  0  0  0  0  0  0  0  0  0
   58.2131   28.0563   47.6390 H   0  0  0  0  0  0  0  0  0  0  0  0
   56.9306   28.4854   46.4390 H   0  0  0  0  0  0  0  0  0  0  0  0
   59.2498   26.5674   45.8917 H   0  0  0  0  0  0  0  0  0  0  0  0
   57.5501   26.0876   46.3895 H   0  0  0  0  0  0  0  0  0  0  0  0
   56.8690   27.3720   44.3890 H   0  0  0  0  0  0  0  0  0  0  0  0
   57.2165   24.7881   44.8417 H   0  0  0  0  0  0  0  0  0  0  0  0
   56.4726   25.4921   43.3661 H   0  0  0  0  0  0  0  0  0  0  0  0
   58.2102   25.0365   43.3661 H   0  0  0  0  0  0  0  0  0  0  0  0
   59.5044   27.9200   44.1311 H   0  0  0  0  0  0  0  0  0  0  0  0
   59.1831   26.6495   42.9026 H   0  0  0  0  0  0  0  0  0  0  0  0
   58.2168   28.1638   42.9026 H   0  0  0  0  0  0  0  0  0  0  0  0
   55.5740   27.9290   44.9050 H   0  0  0  0  0  0  0  0  0  0  0  0
   55.8932   32.3421   44.2224 H   0  0  0  0  0  0  0  0  0  0  0  0
   57.0287   34.2037   45.4116 H   0  0  0  0  0  0  0  0  0  0  0  0
   59.0077   33.7538   46.8451 H   0  0  0  0  0  0  0  0  0  0  0  0
   63.2274   31.4847   47.6431 H   0  0  0  0  0  0  0  0  0  0  0  0
   62.7799   33.0581   48.4642 H   0  0  0  0  0  0  0  0  0  0  0  0
   63.0700   30.9258   49.8641 H   0  0  0  0  0  0  0  0  0  0  0  0
   59.7581   32.7915   49.4958 H   0  0  0  0  0  0  0  0  0  0  0  0
   58.8814   34.2207   51.3401 H   0  0  0  0  0  0  0  0  0  0  0  0
   60.1531   34.4332   53.4751 H   0  0  0  0  0  0  0  0  0  0  0  0
   62.3070   33.2081   53.7707 H   0  0  0  0  0  0  0  0  0  0  0  0
   63.1970   31.7787   51.9347 H   0  0  0  0  0  0  0  0  0  0  0  0
   61.7876   29.3109   48.6898 H   0  0  0  0  0  0  0  0  0  0  0  0
   60.8687   29.6914   50.2045 H   0  0  0  0  0  0  0  0  0  0  0  0
  1  2  1  0
  2  3  1  0
  3  4  1  0
  4  5  1  0
  5  6  1  0
  5  7  1  0
  2  8  1  0
  8  9  2  0
  9 10  1  0
 10 11  1  0
 10 12  2  0
  9 13  1  0
 13 14  2  0
 14 15  1  0
 15 16  2  0
 16 17  1  0
 17 18  1  0
 18 19  2  0
 18 20  1  0
 20 21  1  0
 21 22  1  0
 22 23  2  0
 23 24  1  0
 24 25  2  0
 25 26  1  0
 26 27  2  0
 21 28  1  0
 28 29  1  0
 29 30  2  0
 16  8  1  0
 29 17  1  0
 27 22  1  0
  1 31  1  0
  1 32  1  0
  1 33  1  0
  3 34  1  0
  3 35  1  0
  4 36  1  0
  4 37  1  0
  5 38  1  0
  6 39  1  0
  6 40  1  0
  6 41  1  0
  7 42  1  0
  7 43  1  0
  7 44  1  0
 11 45  1  0
 13 46  1  0
 14 47  1  0
 15 48  1  0
 20 49  1  0
 20 50  1  0
 21 51  1  0
 23 52  1  0
 24 53  1  0
 25 54  1  0
 26 55  1  0
 27 56  1  0
 28 57  1  0
 28 58  1  0
M  CHG  2   5   1  11  -1
M  END
>  <UniqueID>  (73) 
70

>  <SMILES>  (73) 
CN(CC[NH+](C)C)c1c(C([NH-])=O)cccc1N1C(=O)CC(c2ccccc2)CC1=O

>  <Energy>  (73) 
74.64577600926275

>  <Genealogy>  (73) 
CN(CC[NH+](C)C)c1c(C([NH-])=O)cccc1N1C(=O)CC(c2ccccc2)CC1=O (protonated)
CN(CC[NH+](C)C)c1c(C([NH-])=O)cccc1N1C(=O)CC(c2ccccc2)CC1=O (3D coordinates assigned)
CN(CC[NH+](C)C)c1c(C([NH-])=O)cccc1N1C(=O)CC(c2ccccc2)CC1=O (nonaromatic ring conformer: 74.64577600926275 kcal/mol)

>  <smiles>  (73) 
CN(C)CCN(C)c1c(C(N)=O)cccc1N1C(=O)CC(c2ccccc2)CC1=O

>  <score_type>  (73) 
oracle

>  <origin>  (73) 
adg

>  <m_score__min__energy>  (73) 
-8.2100000000000009

>  <m_primary>  (73) 
energy

$$$$
73:0
     RDKit          3D

 61 65  0  0  0  0  0  0  0  0999 V2000
   54.7600   26.7160   47.1140 H   0  0  0  0  0  0  0  0  0  0  0  0
   54.9500   26.4700   46.1500 O   0  0  0  0  0  0  0  0  0  0  0  0
   54.7780   25.1610   45.7030 C   0  0  0  0  0  0  0  0  0  0  0  0
   53.6940   24.4140   45.9680 N   0  0  0  0  0  0  0  0  0  0  0  0
   53.9880   23.2440   45.3590 C   0  0  0  0  0  0  0  0  0  0  0  0
   53.2050   22.2620   45.3710 O   0  0  0  0  0  0  0  0  0  0  0  0
   55.1850   23.2150   44.7390 N   0  0  0  0  0  0  0  0  0  0  0  0
   55.6710   24.4520   44.9380 C   0  0  0  0  0  0  0  0  0  0  0  0
   57.0180   24.9030   44.5420 C   0  0  0  0  0  0  0  0  0  0  0  0
   57.5915   24.2491   43.8686 H   0  0  0  0  0  0  0  0  0  0  0  0
   57.6040   26.0500   44.9370 C   0  0  0  0  0  0  0  0  0  0  0  0
   57.8160   27.1200   44.0810 C   0  0  0  0  0  0  0  0  0  0  0  0
   57.6091   27.1472   43.0010 H   0  0  0  0  0  0  0  0  0  0  0  0
   58.3370   28.1450   44.8460 C   0  0  0  0  0  0  0  0  0  0  0  0
   58.7420   29.4890   44.3250 C   0  0  0  0  0  0  0  0  0  0  0  0
   58.9453   30.1637   45.1697 H   0  0  0  0  0  0  0  0  0  0  0  0
   59.6491   29.3862   43.7113 H   0  0  0  0  0  0  0  0  0  0  0  0
   57.9292   29.9045   43.7113 H   0  0  0  0  0  0  0  0  0  0  0  0
   58.4850   27.7450   46.1250 N   0  0  0  0  0  0  0  0  0  0  0  0
   59.0690   28.5250   47.1780 C   0  0  0  0  0  0  0  0  0  0  0  0
   60.1560   28.0280   47.8970 C   0  0  0  0  0  0  0  0  0  0  0  0
   60.5407   27.0196   47.6848 H   0  0  0  0  0  0  0  0  0  0  0  0
   60.7560   28.8100   48.8860 C   0  0  0  0  0  0  0  0  0  0  0  0
   61.6134   28.4120   49.4486 H   0  0  0  0  0  0  0  0  0  0  0  0
   60.2790   30.0930   49.1690 C   0  0  0  0  0  0  0  0  0  0  0  0
   60.9290   30.8830   50.1760 N   0  0  0  0  0  0  0  0  0  0  0  0
   60.4910   30.7110   51.5680 C   0  0  0  0  0  0  0  0  0  0  0  0
   59.4201   30.9544   51.6316 H   0  0  0  0  0  0  0  0  0  0  0  0
   60.6911   29.6668   51.8503 H   0  0  0  0  0  0  0  0  0  0  0  0
   61.2560   31.6080   52.5500 C   0  0  0  0  0  0  0  0  0  0  0  0
   60.7343   32.5731   52.6295 H   0  0  0  0  0  0  0  0  0  0  0  0
   61.2925   31.0938   53.5217 H   0  0  0  0  0  0  0  0  0  0  0  0
   62.5780   31.8400   52.1320 O   0  0  0  0  0  0  0  0  0  0  0  0
   62.5540   32.5920   50.9430 C   0  0  0  0  0  0  0  0  0  0  0  0
   61.8733   33.4474   51.0657 H   0  0  0  0  0  0  0  0  0  0  0  0
   63.5688   32.9544   50.7221 H   0  0  0  0  0  0  0  0  0  0  0  0
   62.0680   31.7190   49.7880 C   0  0  0  0  0  0  0  0  0  0  0  0
   61.7641   32.3692   48.9544 H   0  0  0  0  0  0  0  0  0  0  0  0
   62.8933   31.0545   49.4926 H   0  0  0  0  0  0  0  0  0  0  0  0
   59.1610   30.5900   48.4570 C   0  0  0  0  0  0  0  0  0  0  0  0
   58.6350   31.9480   48.7000 C   0  0  0  0  0  0  0  0  0  0  0  0
   58.1180   32.2050   49.8240 O   0  0  0  0  0  0  0  0  0  0  0  0
   58.7070   32.9800   47.6910 N   0  0  0  0  0  0  0  0  0  0  0  0
   57.6850   32.9770   46.6310 C   0  0  0  0  0  0  0  0  0  0  0  0
   56.6931   33.0494   47.1010 H   0  0  0  0  0  0  0  0  0  0  0  0
   57.8048   32.0427   46.0629 H   0  0  0  0  0  0  0  0  0  0  0  0
   57.8380   34.1130   45.6610 C   0  0  0  0  0  0  0  0  0  0  0  0
   56.8890   34.4110   44.8910 O   0  0  0  0  0  0  0  0  0  0  0  0
   59.0560   34.8520   45.5970 N   0  0  0  0  0  0  0  0  0  0  0  0
   60.1980   34.4600   46.4010 C   0  0  0  0  0  0  0  0  0  0  0  0
   60.8912   35.3093   46.4916 H   0  0  0  0  0  0  0  0  0  0  0  0
   60.7126   33.6157   45.9190 H   0  0  0  0  0  0  0  0  0  0  0  0
   59.7250   34.0410   47.7870 C   0  0  0  0  0  0  0  0  0  0  0  0
   59.2912   34.9124   48.2993 H   0  0  0  0  0  0  0  0  0  0  0  0
   60.5858   33.6552   48.3529 H   0  0  0  0  0  0  0  0  0  0  0  0
   58.5690   29.7970   47.4640 C   0  0  0  0  0  0  0  0  0  0  0  0
   57.7026   30.1803   46.9050 H   0  0  0  0  0  0  0  0  0  0  0  0
   58.0850   26.4510   46.1930 C   0  0  0  0  0  0  0  0  0  0  0  0
   58.2950   25.6780   47.2700 C   0  0  0  0  0  0  0  0  0  0  0  0
   58.6781   26.1230   48.2002 H   0  0  0  0  0  0  0  0  0  0  0  0
   58.0840   24.5995   47.2225 H   0  0  0  0  0  0  0  0  0  0  0  0
  1  2  1  0
  2  3  1  0
  3  4  1  0
  4  5  1  0
  5  6  2  0
  5  7  1  0
  7  8  1  0
  8  9  1  0
  9 10  1  0
  9 11  2  0
 11 12  1  0
 12 13  1  0
 12 14  2  0
 14 15  1  0
 15 16  1  0
 15 17  1  0
 15 18  1  0
 14 19  1  0
 19 20  1  0
 20 21  2  0
 21 22  1  0
 21 23  1  0
 23 24  1  0
 23 25  2  0
 25 26  1  0
 26 27  1  0
 27 28  1  0
 27 29  1  0
 27 30  1  0
 30 31  1  0
 30 32  1  0
 30 33  1  0
 33 34  1  0
 34 35  1  0
 34 36  1  0
 34 37  1  0
 37 38  1  0
 37 39  1  0
 25 40  1  0
 40 41  1  0
 41 42  2  0
 41 43  1  0
 43 44  1  0
 44 45  1  0
 44 46  1  0
 44 47  1  0
 47 48  2  0
 47 49  1  0
 49 50  1  0
 50 51  1  0
 50 52  1  0
 50 53  1  0
 53 54  1  0
 53 55  1  0
 40 56  2  0
 56 57  1  0
 19 58  1  0
 58 59  2  0
 59 60  1  0
 59 61  1  0
  8  3  2  0
 58 11  1  0
 56 20  1  0
 37 26  1  0
 53 43  1  0
M  CHG  3   4  -1   7  -1  49  -1
M  END
>  <UniqueID>  (74) 
71

>  <SMILES>  (74) 
C=c1/c(=C\c2[n-]c(=O)[n-]c2O)cc(C)n1-c1ccc(N2CCOCC2)c(C(=O)N2CC[N-]C(=O)C2)c1

>  <Energy>  (74) 
152.9730294821469

>  <Genealogy>  (74) 
C=c1c(=Cc2[n-]c(=O)[n-]c2O)cc(C)n1-c1ccc(N2CCOCC2)c(C(=O)N2CC[N-]C(=O)C2)c1 (protonated)
C=c1/c(=C\c2[n-]c(=O)[n-]c2O)cc(C)n1-c1ccc(N2CCOCC2)c(C(=O)N2CC[N-]C(=O)C2)c1 (cis-trans isomerization)
C=c1/c(=C\c2[n-]c(=O)[n-]c2O)cc(C)n1-c1ccc(N2CCOCC2)c(C(=O)N2CC[N-]C(=O)C2)c1 (3D coordinates assigned)
C=c1/c(=C\c2[n-]c(=O)[n-]c2O)cc(C)n1-c1ccc(N2CCOCC2)c(C(=O)N2CC[N-]C(=O)C2)c1 (nonaromatic ring conformer: 152.9730294821469 kcal/mol)

>  <smiles>  (74) 
C=c1c(=Cc2[nH]c(=O)[nH]c2O)cc(C)n1-c1ccc(N2CCOCC2)c(C(=O)N2CCNC(=O)C2)c1

>  <score_type>  (74) 
oracle

>  <origin>  (74) 
adg

>  <m_score__min__energy>  (74) 
-14.199999999999999

>  <m_primary>  (74) 
energy

$$$$
74:0
     RDKit          3D

 38 40  0  0  0  0  0  0  0  0999 V2000
   57.6445   30.5140   46.0214 H   0  0  0  0  0  0  0  0  0  0  0  0
   57.9770   31.5180   45.7190 C   0  0  0  0  0  0  0  0  0  0  0  0
   58.5600   32.3420   46.6290 N   0  0  0  0  0  0  0  0  0  0  0  0
   58.9750   33.5990   46.3040 C   0  0  0  0  0  0  0  0  0  0  0  0
   59.5270   34.3760   47.1910 N   0  0  0  0  0  0  0  0  0  0  0  0
   60.0520   33.9500   48.4580 C   0  0  0  0  0  0  0  0  0  0  0  0
   59.2660   33.8560   49.4370 O   0  0  0  0  0  0  0  0  0  0  0  0
   61.4900   33.6730   48.6630 C   0  0  0  0  0  0  0  0  0  0  0  0
   62.0880   34.0670   49.8210 N   0  0  0  0  0  0  0  0  0  0  0  0
   63.3880   33.8630   50.0450 N   0  0  0  0  0  0  0  0  0  0  0  0
   64.1780   33.2580   49.1210 C   0  0  0  0  0  0  0  0  0  0  0  0
   65.4000   33.0770   49.3610 O   0  0  0  0  0  0  0  0  0  0  0  0
   63.6280   32.8480   47.9090 C   0  0  0  0  0  0  0  0  0  0  0  0
   64.2567   32.3639   47.1472 H   0  0  0  0  0  0  0  0  0  0  0  0
   62.2710   33.0590   47.6740 C   0  0  0  0  0  0  0  0  0  0  0  0
   61.8170   32.7469   46.7219 H   0  0  0  0  0  0  0  0  0  0  0  0
   58.7740   34.0770   45.0040 C   0  0  0  0  0  0  0  0  0  0  0  0
   59.0789   35.0992   44.7354 H   0  0  0  0  0  0  0  0  0  0  0  0
   58.1830   33.2450   44.0510 C   0  0  0  0  0  0  0  0  0  0  0  0
   58.0190   33.6115   43.0269 H   0  0  0  0  0  0  0  0  0  0  0  0
   57.7990   31.9440   44.3990 C   0  0  0  0  0  0  0  0  0  0  0  0
   57.1720   31.0640   43.3990 C   0  0  0  0  0  0  0  0  0  0  0  0
   56.7460   31.5670   42.3260 O   0  0  0  0  0  0  0  0  0  0  0  0
   57.0710   29.6470   43.5880 N   0  0  0  0  0  0  0  0  0  0  0  0
   56.2660   28.9780   44.6070 C   0  0  0  0  0  0  0  0  0  0  0  0
   55.8436   29.7347   45.2845 H   0  0  0  0  0  0  0  0  0  0  0  0
   55.4645   28.4166   44.1045 H   0  0  0  0  0  0  0  0  0  0  0  0
   57.0970   28.0090   45.4090 C   0  0  0  0  0  0  0  0  0  0  0  0
   58.4940   28.1590   45.4640 C   0  0  0  0  0  0  0  0  0  0  0  0
   58.9757   28.9935   44.9333 H   0  0  0  0  0  0  0  0  0  0  0  0
   59.2740   27.2540   46.1890 C   0  0  0  0  0  0  0  0  0  0  0  0
   60.3652   27.3846   46.2356 H   0  0  0  0  0  0  0  0  0  0  0  0
   58.6720   26.1850   46.8540 C   0  0  0  0  0  0  0  0  0  0  0  0
   59.2875   25.4789   47.4307 H   0  0  0  0  0  0  0  0  0  0  0  0
   57.2880   26.0120   46.7870 C   0  0  0  0  0  0  0  0  0  0  0  0
   56.8162   25.1650   47.3067 H   0  0  0  0  0  0  0  0  0  0  0  0
   56.4990   26.9110   46.0620 C   0  0  0  0  0  0  0  0  0  0  0  0
   55.1250   26.7050   45.9910 O   0  0  0  0  0  0  0  0  0  0  0  0
  1  2  1  0
  2  3  1  0
  3  4  1  0
  4  5  2  0
  5  6  1  0
  6  7  2  0
  6  8  1  0
  8  9  2  0
  9 10  1  0
 10 11  1  0
 11 12  2  0
 11 13  1  0
 13 14  1  0
 13 15  2  0
 15 16  1  0
  4 17  1  0
 17 18  1  0
 17 19  2  0
 19 20  1  0
 19 21  1  0
 21 22  1  0
 22 23  2  0
 22 24  1  0
 24 25  1  0
 25 26  1  0
 25 27  1  0
 25 28  1  0
 28 29  2  0
 29 30  1  0
 29 31  1  0
 31 32  1  0
 31 33  2  0
 33 34  1  0
 33 35  1  0
 35 36  1  0
 35 37  2  0
 37 38  1  0
 21  2  2  0
 37 28  1  0
 15  8  1  0
M  CHG  4   3  -1  10  -1  24  -1  38  -1
M  END
>  <UniqueID>  (75) 
72

>  <SMILES>  (75) 
O=C([N-]Cc1ccccc1[O-])c1cc/c(=N/C(=O)c2ccc(=O)[n-]n2)[n-]c1

>  <Energy>  (75) 
54.02960869130803

>  <Genealogy>  (75) 
O=C([N-]Cc1ccccc1[O-])c1ccc(=NC(=O)c2ccc(=O)[n-]n2)[n-]c1 (protonated)
O=C([N-]Cc1ccccc1[O-])c1cc/c(=N/C(=O)c2ccc(=O)[n-]n2)[n-]c1 (cis-trans isomerization)
O=C([N-]Cc1ccccc1[O-])c1cc/c(=N/C(=O)c2ccc(=O)[n-]n2)[n-]c1 (3D coordinates assigned)
O=C([N-]Cc1ccccc1[O-])c1cc/c(=N/C(=O)c2ccc(=O)[n-]n2)[n-]c1 (optimized conformer: 54.02960869130803 kcal/mol)

>  <smiles>  (75) 
O=C(NCc1ccccc1O)c1ccc(=NC(=O)c2ccc(=O)[nH]n2)[nH]c1

>  <score_type>  (75) 
oracle

>  <origin>  (75) 
adg

>  <m_score__min__energy>  (75) 
-15.1

>  <m_primary>  (75) 
energy

$$$$
75:0
     RDKit          3D

 38 40  0  0  0  0  0  0  0  0999 V2000
   56.4410   30.0080   54.4800 H   0  0  0  0  0  0  0  0  0  0  0  0
   56.8980   30.8680   54.1050 N   0  0  0  0  0  0  0  0  0  0  0  0
   56.8710   30.7430   52.3820 S   0  0  0  0  0  0  0  0  0  0  0  0
   57.3740   29.3890   51.9680 O   0  0  0  0  0  0  0  0  0  0  0  0
   55.4650   30.9150   51.8850 O   0  0  0  0  0  0  0  0  0  0  0  0
   57.8930   31.9860   51.6850 C   0  0  0  0  0  0  0  0  0  0  0  0
   58.3170   32.0860   50.0600 S   0  0  0  0  0  0  0  0  0  0  0  0
   59.2680   33.4610   50.2400 C   0  0  0  0  0  0  0  0  0  0  0  0
   60.1330   34.2880   48.9100 S   0  0  0  0  0  0  0  0  0  0  0  0
   59.2840   33.3360   47.6520 C   0  0  0  0  0  0  0  0  0  0  0  0
   57.9960   33.7030   47.2450 C   0  0  0  0  0  0  0  0  0  0  0  0
   57.5029   34.5730   47.7032 H   0  0  0  0  0  0  0  0  0  0  0  0
   57.3350   32.9670   46.2580 C   0  0  0  0  0  0  0  0  0  0  0  0
   56.3263   33.2652   45.9360 H   0  0  0  0  0  0  0  0  0  0  0  0
   57.9550   31.8440   45.6730 C   0  0  0  0  0  0  0  0  0  0  0  0
   57.3320   31.0550   44.6440 N   0  0  0  0  0  0  0  0  0  0  0  0
   57.7670   29.9300   44.1610 C   0  0  0  0  0  0  0  0  0  0  0  0
   58.2915   29.9194   43.1941 H   0  0  0  0  0  0  0  0  0  0  0  0
   57.5640   28.6610   44.8990 C   0  0  0  0  0  0  0  0  0  0  0  0
   58.6610   27.8590   45.2660 C   0  0  0  0  0  0  0  0  0  0  0  0
   59.6812   28.1754   45.0030 H   0  0  0  0  0  0  0  0  0  0  0  0
   58.4630   26.6640   45.9620 C   0  0  0  0  0  0  0  0  0  0  0  0
   59.3283   26.0456   46.2426 H   0  0  0  0  0  0  0  0  0  0  0  0
   57.1740   26.2490   46.3040 C   0  0  0  0  0  0  0  0  0  0  0  0
   57.0060   25.0520   46.9990 O   0  0  0  0  0  0  0  0  0  0  0  0
   56.0930   24.7140   47.2760 H   0  0  0  0  0  0  0  0  0  0  0  0
   56.0710   27.0410   45.9430 C   0  0  0  0  0  0  0  0  0  0  0  0
   54.7820   26.6380   46.2770 O   0  0  0  0  0  0  0  0  0  0  0  0
   56.2640   28.2410   45.2440 C   0  0  0  0  0  0  0  0  0  0  0  0
   55.1560   29.0090   44.8970 O   0  0  0  0  0  0  0  0  0  0  0  0
   59.2490   31.4920   46.0810 C   0  0  0  0  0  0  0  0  0  0  0  0
   59.7502   30.6280   45.6201 H   0  0  0  0  0  0  0  0  0  0  0  0
   59.9080   32.2300   47.0690 C   0  0  0  0  0  0  0  0  0  0  0  0
   60.9198   31.9393   47.3880 H   0  0  0  0  0  0  0  0  0  0  0  0
   59.2700   33.8540   51.5710 C   0  0  0  0  0  0  0  0  0  0  0  0
   59.8217   34.7288   51.9456 H   0  0  0  0  0  0  0  0  0  0  0  0
   58.4970   33.0210   52.3860 C   0  0  0  0  0  0  0  0  0  0  0  0
   58.3798   33.1703   53.4695 H   0  0  0  0  0  0  0  0  0  0  0  0
  1  2  1  0
  2  3  1  0
  3  4  2  0
  3  5  2  0
  3  6  1  0
  6  7  1  0
  7  8  1  0
  8  9  1  0
  9 10  1  0
 10 11  2  0
 11 12  1  0
 11 13  1  0
 13 14  1  0
 13 15  2  0
 15 16  1  0
 16 17  2  0
 17 18  1  0
 17 19  1  0
 19 20  2  0
 20 21  1  0
 20 22  1  0
 22 23  1  0
 22 24  2  0
 24 25  1  0
 25 26  1  0
 24 27  1  0
 27 28  1  0
 27 29  2  0
 29 30  1  0
 15 31  1  0
 31 32  1  0
 31 33  2  0
 33 34  1  0
  8 35  2  0
 35 36  1  0
 35 37  1  0
 37 38  1  0
 37  6  2  0
 33 10  1  0
 29 19  1  0
M  CHG  3   2  -1  28  -1  30  -1
M  END
>  <UniqueID>  (76) 
73

>  <SMILES>  (76) 
[NH-]S(=O)(=O)c1ccc(Sc2ccc(/N=C/c3ccc(O)c([O-])c3[O-])cc2)s1

>  <Energy>  (76) 
66.66511029259698

>  <Genealogy>  (76) 
[NH-]S(=O)(=O)c1ccc(Sc2ccc(N=Cc3ccc(O)c([O-])c3[O-])cc2)s1 (protonated)
[NH-]S(=O)(=O)c1ccc(Sc2ccc(/N=C/c3ccc(O)c([O-])c3[O-])cc2)s1 (cis-trans isomerization)
[NH-]S(=O)(=O)c1ccc(Sc2ccc(/N=C/c3ccc(O)c([O-])c3[O-])cc2)s1 (3D coordinates assigned)
[NH-]S(=O)(=O)c1ccc(Sc2ccc(/N=C/c3ccc(O)c([O-])c3[O-])cc2)s1 (optimized conformer: 66.66511029259698 kcal/mol)

>  <smiles>  (76) 
NS(=O)(=O)c1ccc(Sc2ccc(N=Cc3ccc(O)c(O)c3O)cc2)s1

>  <score_type>  (76) 
oracle

>  <origin>  (76) 
adg

>  <m_score__min__energy>  (76) 
-16.899999999999999

>  <m_primary>  (76) 
energy

$$$$
76:0
     RDKit          3D

 58 61  0  0  0  0  0  0  0  0999 V2000
   60.7790   26.5340   50.1400 C   0  0  0  0  0  0  0  0  0  0  0  0
   60.6780   27.8010   49.3440 C   0  0  0  0  0  0  0  0  0  0  0  0
   60.2500   27.9210   48.0270 C   0  0  0  0  0  0  0  0  0  0  0  0
   59.7940   26.8870   47.1500 N   0  0  0  0  0  0  0  0  0  0  0  0
   58.4220   26.5170   46.9680 C   0  0  0  0  0  0  0  0  0  0  0  0
   57.8030   26.0050   47.9390 O   0  0  0  0  0  0  0  0  0  0  0  0
   57.7630   26.5800   45.6120 C   0  0  0  0  0  0  0  0  0  0  0  0
   57.8600   27.9270   45.0400 N   0  0  0  0  0  0  0  0  0  0  0  0
   56.8650   28.8070   44.8420 C   0  0  0  0  0  0  0  0  0  0  0  0
   55.5430   28.6100   45.2250 O   0  0  0  0  0  0  0  0  0  0  0  0
   57.3720   29.9210   44.2100 C   0  0  0  0  0  0  0  0  0  0  0  0
   56.5990   31.1400   43.8000 C   0  0  0  0  0  0  0  0  0  0  0  0
   57.4980   32.2130   43.2620 C   0  0  0  0  0  0  0  0  0  0  0  0
   58.0000   32.1090   42.1060 O   0  0  0  0  0  0  0  0  0  0  0  0
   57.8460   33.3190   44.1020 N   0  0  0  0  0  0  0  0  0  0  0  0
   58.6440   33.1880   45.3180 C   0  0  0  0  0  0  0  0  0  0  0  0
   57.7920   32.7440   46.5000 C   0  0  0  0  0  0  0  0  0  0  0  0
   58.4850   33.3160   47.7280 C   0  0  0  0  0  0  0  0  0  0  0  0
   59.2810   34.5320   47.2540 C   0  0  0  0  0  0  0  0  0  0  0  0
   59.2260   34.5360   45.7280 C   0  0  0  0  0  0  0  0  0  0  0  0
   58.6950   29.7530   43.9970 N   0  0  0  0  0  0  0  0  0  0  0  0
   58.9490   28.5310   44.5160 C   0  0  0  0  0  0  0  0  0  0  0  0
   60.0960   28.0090   44.5040 O   0  0  0  0  0  0  0  0  0  0  0  0
   60.5220   29.2210   47.6760 C   0  0  0  0  0  0  0  0  0  0  0  0
   60.2990   29.7430   46.5510 O   0  0  0  0  0  0  0  0  0  0  0  0
   61.0450   29.8720   48.7370 N   0  0  0  0  0  0  0  0  0  0  0  0
   61.4500   31.2510   48.7630 C   0  0  0  0  0  0  0  0  0  0  0  0
   62.3790   31.7360   47.8260 C   0  0  0  0  0  0  0  0  0  0  0  0
   62.7650   33.0800   47.8490 C   0  0  0  0  0  0  0  0  0  0  0  0
   62.2290   33.9450   48.8070 C   0  0  0  0  0  0  0  0  0  0  0  0
   61.3120   33.4660   49.7490 C   0  0  0  0  0  0  0  0  0  0  0  0
   60.9270   32.1220   49.7310 C   0  0  0  0  0  0  0  0  0  0  0  0
   61.1580   29.0070   49.7440 N   0  0  0  0  0  0  0  0  0  0  0  0
   61.7390   29.3120   51.0570 C   0  0  0  0  0  0  0  0  0  0  0  0
   60.7600   26.7729   51.2136 H   0  0  0  0  0  0  0  0  0  0  0  0
   59.9303   25.8785   49.8951 H   0  0  0  0  0  0  0  0  0  0  0  0
   61.7209   26.0212   49.8951 H   0  0  0  0  0  0  0  0  0  0  0  0
   58.2596   25.8667   44.9377 H   0  0  0  0  0  0  0  0  0  0  0  0
   56.6992   26.3256   45.7283 H   0  0  0  0  0  0  0  0  0  0  0  0
   55.8754   30.8578   43.0211 H   0  0  0  0  0  0  0  0  0  0  0  0
   56.0871   31.5361   44.6894 H   0  0  0  0  0  0  0  0  0  0  0  0
   59.4268   32.4501   45.0885 H   0  0  0  0  0  0  0  0  0  0  0  0
   56.7712   33.1441   46.4116 H   0  0  0  0  0  0  0  0  0  0  0  0
   57.6999   31.6491   46.5523 H   0  0  0  0  0  0  0  0  0  0  0  0
   57.7394   33.6193   48.4777 H   0  0  0  0  0  0  0  0  0  0  0  0
   59.1431   32.5691   48.1959 H   0  0  0  0  0  0  0  0  0  0  0  0
   58.8324   35.4548   47.6504 H   0  0  0  0  0  0  0  0  0  0  0  0
   60.3211   34.4823   47.6087 H   0  0  0  0  0  0  0  0  0  0  0  0
   58.5816   35.3533   45.3721 H   0  0  0  0  0  0  0  0  0  0  0  0
   60.2241   34.6901   45.2921 H   0  0  0  0  0  0  0  0  0  0  0  0
   62.8036   31.0564   47.0725 H   0  0  0  0  0  0  0  0  0  0  0  0
   63.4906   33.4564   47.1129 H   0  0  0  0  0  0  0  0  0  0  0  0
   62.5283   35.0034   48.8204 H   0  0  0  0  0  0  0  0  0  0  0  0
   60.8936   34.1474   50.5044 H   0  0  0  0  0  0  0  0  0  0  0  0
   60.2121   31.7463   50.4778 H   0  0  0  0  0  0  0  0  0  0  0  0
   61.0627   28.9570   51.8486 H   0  0  0  0  0  0  0  0  0  0  0  0
   62.7123   28.8086   51.1532 H   0  0  0  0  0  0  0  0  0  0  0  0
   61.8774   30.3990   51.1532 H   0  0  0  0  0  0  0  0  0  0  0  0
  1  2  1  0
  2  3  2  0
  3  4  1  0
  4  5  1  0
  5  6  2  0
  5  7  1  0
  7  8  1  0
  8  9  1  0
  9 10  1  0
  9 11  2  0
 11 12  1  0
 12 13  1  0
 13 14  2  0
 13 15  1  0
 15 16  1  0
 16 17  1  0
 17 18  1  0
 18 19  1  0
 19 20  1  0
 11 21  1  0
 21 22  1  0
 22 23  2  0
  3 24  1  0
 24 25  2  0
 24 26  1  0
 26 27  1  0
 27 28  2  0
 28 29  1  0
 29 30  2  0
 30 31  1  0
 31 32  2  0
 26 33  1  0
 33 34  1  0
 33  2  1  0
 22  8  1  0
 32 27  1  0
 20 16  1  0
  1 35  1  0
  1 36  1  0
  1 37  1  0
  7 38  1  0
  7 39  1  0
 12 40  1  0
 12 41  1  0
 16 42  1  0
 17 43  1  0
 17 44  1  0
 18 45  1  0
 18 46  1  0
 19 47  1  0
 19 48  1  0
 20 49  1  0
 20 50  1  0
 28 51  1  0
 29 52  1  0
 30 53  1  0
 31 54  1  0
 32 55  1  0
 34 56  1  0
 34 57  1  0
 34 58  1  0
M  CHG  4   4  -1  10  -1  15  -1  21  -1
M  END
>  <UniqueID>  (77) 
74

>  <SMILES>  (77) 
Cc1c([N-]C(=O)Cn2c([O-])c(CC(=O)[N-]C3CCCC3)[n-]c2=O)c(=O)n(-c2ccccc2)n1C

>  <Energy>  (77) 
137.03654079405112

>  <Genealogy>  (77) 
Cc1c([N-]C(=O)Cn2c([O-])c(CC(=O)[N-]C3CCCC3)[n-]c2=O)c(=O)n(-c2ccccc2)n1C (protonated)
Cc1c([N-]C(=O)Cn2c([O-])c(CC(=O)[N-]C3CCCC3)[n-]c2=O)c(=O)n(-c2ccccc2)n1C (3D coordinates assigned)
Cc1c([N-]C(=O)Cn2c([O-])c(CC(=O)[N-]C3CCCC3)[n-]c2=O)c(=O)n(-c2ccccc2)n1C (nonaromatic ring conformer: 137.03654079405112 kcal/mol)

>  <smiles>  (77) 
Cc1c(NC(=O)Cn2c(O)c(CC(=O)NC3CCCC3)[nH]c2=O)c(=O)n(-c2ccccc2)n1C

>  <score_type>  (77) 
oracle

>  <origin>  (77) 
adg

>  <m_score__min__energy>  (77) 
-17.510000000000002

>  <m_primary>  (77) 
energy

$$$$
77:0
     RDKit          3D

 45 48  0  0  0  0  0  0  0  0999 V2000
   58.5430   31.9250   43.1210 O   0  0  0  0  0  0  0  0  0  0  0  0
   57.5980   32.0800   43.9620 C   0  0  0  0  0  0  0  0  0  0  0  0
   57.3240   33.5250   44.2910 C   0  0  0  0  0  0  0  0  0  0  0  0
   58.5130   33.9060   45.1360 C   0  0  0  0  0  0  0  0  0  0  0  0
   58.6390   33.4710   46.4380 C   0  0  0  0  0  0  0  0  0  0  0  0
   59.8500   34.0240   46.8730 C   0  0  0  0  0  0  0  0  0  0  0  0
   60.3760   33.7910   48.1960 C   0  0  0  0  0  0  0  0  0  0  0  0
   60.0220   34.6010   49.1090 O   0  0  0  0  0  0  0  0  0  0  0  0
   61.2700   32.7080   48.5200 N   0  0  0  0  0  0  0  0  0  0  0  0
   61.7860   32.7760   49.8430 C   0  0  0  0  0  0  0  0  0  0  0  0
   61.1380   31.7640   50.7670 C   0  0  0  0  0  0  0  0  0  0  0  0
   61.3740   30.4460   50.2830 O   0  0  0  0  0  0  0  0  0  0  0  0
   61.0510   29.8660   49.0720 C   0  0  0  0  0  0  0  0  0  0  0  0
   60.6700   28.5340   49.2280 C   0  0  0  0  0  0  0  0  0  0  0  0
   60.3110   27.8090   48.0960 C   0  0  0  0  0  0  0  0  0  0  0  0
   60.3250   28.3830   46.8370 C   0  0  0  0  0  0  0  0  0  0  0  0
   60.7060   29.6910   46.7180 C   0  0  0  0  0  0  0  0  0  0  0  0
   61.0720   30.4450   47.8290 C   0  0  0  0  0  0  0  0  0  0  0  0
   61.4280   31.8010   47.3990 C   0  0  0  0  0  0  0  0  0  0  0  0
   60.3270   34.7170   45.8370 N   0  0  0  0  0  0  0  0  0  0  0  0
   59.5340   34.6530   44.7920 O   0  0  0  0  0  0  0  0  0  0  0  0
   56.8480   31.0820   44.5550 N   0  0  0  0  0  0  0  0  0  0  0  0
   57.1800   29.8630   44.6200 C   0  0  0  0  0  0  0  0  0  0  0  0
   56.4000   29.0760   45.4320 N   0  0  0  0  0  0  0  0  0  0  0  0
   56.6310   27.7730   45.6000 C   0  0  0  0  0  0  0  0  0  0  0  0
   57.6740   27.1500   44.9580 C   0  0  0  0  0  0  0  0  0  0  0  0
   58.4670   27.9220   44.1390 C   0  0  0  0  0  0  0  0  0  0  0  0
   58.1870   29.2540   44.0020 N   0  0  0  0  0  0  0  0  0  0  0  0
   57.2743   34.1367   43.3781 H   0  0  0  0  0  0  0  0  0  0  0  0
   56.3608   33.6811   44.7987 H   0  0  0  0  0  0  0  0  0  0  0  0
   57.9455   32.8339   47.0065 H   0  0  0  0  0  0  0  0  0  0  0  0
   62.8684   32.5830   49.8107 H   0  0  0  0  0  0  0  0  0  0  0  0
   61.5680   33.7794   50.2376 H   0  0  0  0  0  0  0  0  0  0  0  0
   61.5657   31.8644   51.7754 H   0  0  0  0  0  0  0  0  0  0  0  0
   60.0541   31.9481   50.8031 H   0  0  0  0  0  0  0  0  0  0  0  0
   60.6536   28.0667   50.2237 H   0  0  0  0  0  0  0  0  0  0  0  0
   60.0095   26.7567   48.2042 H   0  0  0  0  0  0  0  0  0  0  0  0
   60.0358   27.7995   45.9505 H   0  0  0  0  0  0  0  0  0  0  0  0
   60.7236   30.1575   45.7220 H   0  0  0  0  0  0  0  0  0  0  0  0
   62.4731   31.8168   47.0561 H   0  0  0  0  0  0  0  0  0  0  0  0
   60.7725   32.1133   46.5727 H   0  0  0  0  0  0  0  0  0  0  0  0
   55.9763   27.1881   46.2628 H   0  0  0  0  0  0  0  0  0  0  0  0
   57.8679   26.0757   45.0932 H   0  0  0  0  0  0  0  0  0  0  0  0
   59.3153   27.4732   43.6014 H   0  0  0  0  0  0  0  0  0  0  0  0
   58.8310   29.7600   43.3710 H   0  0  0  0  0  0  0  0  0  0  0  0
  1  2  2  0
  2  3  1  0
  3  4  1  0
  4  5  2  0
  5  6  1  0
  6  7  1  0
  7  8  2  0
  7  9  1  0
  9 10  1  0
 10 11  1  0
 11 12  1  0
 12 13  1  0
 13 14  2  0
 14 15  1  0
 15 16  2  0
 16 17  1  0
 17 18  2  0
 18 19  1  0
  6 20  2  0
 20 21  1  0
  2 22  1  0
 22 23  2  3
 23 24  1  0
 24 25  2  0
 25 26  1  0
 26 27  2  0
 27 28  1  0
 21  4  1  0
 28 23  1  0
 19  9  1  0
 18 13  1  0
  3 29  1  0
  3 30  1  0
  5 31  1  0
 10 32  1  0
 10 33  1  0
 11 34  1  0
 11 35  1  0
 14 36  1  0
 15 37  1  0
 16 38  1  0
 17 39  1  0
 19 40  1  0
 19 41  1  0
 25 42  1  0
 26 43  1  0
 27 44  1  0
 28 45  1  0
M  END
>  <smiles>  (78) 
O=C(Cc1cc(C(=O)N2CCOc3ccccc3C2)no1)N=c1nccc[nH]1

>  <score_type>  (78) 
oracle

>  <origin>  (78) 
adg

>  <m_score__min__energy>  (78) 
-7.0999999999999996

>  <m_primary>  (78) 
energy

$$$$
78:0
     RDKit          3D

 49 51  0  0  0  0  0  0  0  0999 V2000
   56.7180   23.2900   47.5260 C   0  0  0  0  0  0  0  0  0  0  0  0
   56.1600   24.4230   46.7610 N   0  0  0  0  0  0  0  0  0  0  0  0
   55.5760   23.9200   45.4960 C   0  0  0  0  0  0  0  0  0  0  0  0
   56.5480   24.2370   44.3570 C   0  0  0  0  0  0  0  0  0  0  0  0
   57.7260   24.9240   45.0220 C   0  0  0  0  0  0  0  0  0  0  0  0
   57.1480   25.4550   46.3410 C   0  0  2  0  0  0  0  0  0  0  0  0
   58.2130   25.8360   47.4360 C   0  0  0  0  0  0  0  0  0  0  0  0
   59.6950   25.9990   47.0100 C   0  0  0  0  0  0  0  0  0  0  0  0
   60.0980   27.4400   46.7750 C   0  0  0  0  0  0  0  0  0  0  0  0
   60.3720   27.9070   45.4800 C   0  0  0  0  0  0  0  0  0  0  0  0
   60.7200   29.2430   45.2760 C   0  0  0  0  0  0  0  0  0  0  0  0
   60.7730   30.1110   46.3680 C   0  0  0  0  0  0  0  0  0  0  0  0
   60.4740   29.6570   47.6150 N   0  0  0  0  0  0  0  0  0  0  0  0
   60.1320   28.3580   47.8370 C   0  0  0  0  0  0  0  0  0  0  0  0
   56.3710   26.7400   46.0630 C   0  0  0  0  0  0  0  0  0  0  0  0
   55.1110   26.7090   45.9850 O   0  0  0  0  0  0  0  0  0  0  0  0
   57.0560   27.9920   45.9690 N   0  0  0  0  0  0  0  0  0  0  0  0
   56.6810   29.1690   44.7590 S   0  0  0  0  0  0  0  0  0  0  0  0
   57.1530   28.6920   43.4140 O   0  0  0  0  0  0  0  0  0  0  0  0
   55.1930   29.3670   44.7050 O   0  0  0  0  0  0  0  0  0  0  0  0
   57.4500   30.6900   45.1660 C   0  0  0  0  0  0  0  0  0  0  0  0
   57.7830   31.6850   44.2770 C   0  0  0  0  0  0  0  0  0  0  0  0
   58.3820   32.6620   44.9760 N   0  0  0  0  0  0  0  0  0  0  0  0
   58.8330   33.9510   44.4680 C   0  0  0  0  0  0  0  0  0  0  0  0
   58.3800   32.2550   46.2610 C   0  0  0  0  0  0  0  0  0  0  0  0
   57.8220   31.0350   46.4160 N   0  0  0  0  0  0  0  0  0  0  0  0
   56.6192   23.4907   48.6030 H   0  0  0  0  0  0  0  0  0  0  0  0
   56.1695   22.3708   47.2724 H   0  0  0  0  0  0  0  0  0  0  0  0
   57.7810   23.1645   47.2724 H   0  0  0  0  0  0  0  0  0  0  0  0
   55.4241   22.8326   45.5632 H   0  0  0  0  0  0  0  0  0  0  0  0
   54.6047   24.4016   45.3097 H   0  0  0  0  0  0  0  0  0  0  0  0
   56.8721   23.3122   43.8573 H   0  0  0  0  0  0  0  0  0  0  0  0
   56.0853   24.8684   43.5842 H   0  0  0  0  0  0  0  0  0  0  0  0
   58.5401   24.2089   45.2114 H   0  0  0  0  0  0  0  0  0  0  0  0
   58.1600   25.7196   44.3986 H   0  0  0  0  0  0  0  0  0  0  0  0
   57.8959   26.7927   47.8767 H   0  0  0  0  0  0  0  0  0  0  0  0
   58.2236   24.9676   48.1111 H   0  0  0  0  0  0  0  0  0  0  0  0
   60.3336   25.5832   47.8033 H   0  0  0  0  0  0  0  0  0  0  0  0
   59.8189   25.4672   46.0551 H   0  0  0  0  0  0  0  0  0  0  0  0
   60.3123   27.2185   44.6242 H   0  0  0  0  0  0  0  0  0  0  0  0
   60.9503   29.6086   44.2644 H   0  0  0  0  0  0  0  0  0  0  0  0
   61.0569   31.1634   46.2200 H   0  0  0  0  0  0  0  0  0  0  0  0
   60.5030   30.3220   48.4200 H   0  0  0  0  0  0  0  0  0  0  0  0
   59.8807   28.0254   48.8550 H   0  0  0  0  0  0  0  0  0  0  0  0
   57.5935   31.6810   43.1934 H   0  0  0  0  0  0  0  0  0  0  0  0
   59.0659   34.6167   45.3122 H   0  0  0  0  0  0  0  0  0  0  0  0
   59.7345   33.8081   43.8542 H   0  0  0  0  0  0  0  0  0  0  0  0
   58.0390   34.4013   43.8542 H   0  0  0  0  0  0  0  0  0  0  0  0
   58.7876   32.8505   47.0912 H   0  0  0  0  0  0  0  0  0  0  0  0
  1  2  1  0
  2  3  1  0
  3  4  1  0
  4  5  1  0
  5  6  1  0
  6  7  1  1
  7  8  1  0
  8  9  1  0
  9 10  2  0
 10 11  1  0
 11 12  2  0
 12 13  1  0
 13 14  2  0
  6 15  1  0
 15 16  2  0
 15 17  1  0
 17 18  1  0
 18 19  2  0
 18 20  2  0
 18 21  1  0
 21 22  2  0
 22 23  1  0
 23 24  1  0
 23 25  1  0
 25 26  2  0
  6  2  1  0
 14  9  1  0
 26 21  1  0
  1 27  1  0
  1 28  1  0
  1 29  1  0
  3 30  1  0
  3 31  1  0
  4 32  1  0
  4 33  1  0
  5 34  1  0
  5 35  1  0
  7 36  1  0
  7 37  1  0
  8 38  1  0
  8 39  1  0
 10 40  1  0
 11 41  1  0
 12 42  1  0
 13 43  1  0
 14 44  1  0
 22 45  1  0
 24 46  1  0
 24 47  1  0
 24 48  1  0
 25 49  1  0
M  CHG  2  13   1  17  -1
M  END
>  <UniqueID>  (79) 
75

>  <SMILES>  (79) 
CN1CCC[C@@]1(CCc1ccc[nH+]c1)C(=O)[N-]S(=O)(=O)c1cn(C)cn1

>  <Energy>  (79) 
96.73394650794005

>  <Genealogy>  (79) 
CN1CCCC1(CCc1ccc[nH+]c1)C(=O)[N-]S(=O)(=O)c1cn(C)cn1 (protonated)
CN1CCC[C@@]1(CCc1ccc[nH+]c1)C(=O)[N-]S(=O)(=O)c1cn(C)cn1 (chirality)
CN1CCC[C@@]1(CCc1ccc[nH+]c1)C(=O)[N-]S(=O)(=O)c1cn(C)cn1 (3D coordinates assigned)
CN1CCC[C@@]1(CCc1ccc[nH+]c1)C(=O)[N-]S(=O)(=O)c1cn(C)cn1 (nonaromatic ring conformer: 96.73394650794005 kcal/mol)

>  <smiles>  (79) 
CN1CCCC1(CCc1cccnc1)C(=O)NS(=O)(=O)c1cn(C)cn1

>  <score_type>  (79) 
oracle

>  <origin>  (79) 
adg

>  <m_score__min__energy>  (79) 
-8.9600000000000009

>  <m_primary>  (79) 
energy

$$$$
79:0
     RDKit          3D

 47 49  0  0  0  0  0  0  0  0999 V2000
   56.5560   24.0750   46.8560 N   0  0  0  0  0  0  0  0  0  0  0  0
   56.7730   25.4740   46.7060 C   0  0  0  0  0  0  0  0  0  0  0  0
   55.8080   26.2260   46.4080 O   0  0  0  0  0  0  0  0  0  0  0  0
   58.1350   26.0570   46.9290 C   0  0  0  0  0  0  0  0  0  0  0  0
   58.6730   26.6670   45.6330 C   0  0  0  0  0  0  0  0  0  0  0  0
   58.1590   28.0710   45.4520 C   0  0  0  0  0  0  0  0  0  0  0  0
   57.0370   28.3210   44.6440 C   0  0  0  0  0  0  0  0  0  0  0  0
   56.5660   29.6270   44.4750 C   0  0  0  0  0  0  0  0  0  0  0  0
   57.2360   30.7050   45.0730 C   0  0  0  0  0  0  0  0  0  0  0  0
   56.7320   32.0300   44.8810 N   0  0  0  0  0  0  0  0  0  0  0  0
   57.7350   33.4440   44.8020 S   0  0  0  0  0  0  0  0  0  0  0  0
   58.4710   33.4530   43.4890 O   0  0  0  0  0  0  0  0  0  0  0  0
   56.8560   34.6650   44.8540 O   0  0  0  0  0  0  0  0  0  0  0  0
   58.8750   33.5230   46.1430 C   0  0  0  0  0  0  0  0  0  0  0  0
   58.4290   33.3110   47.4520 C   0  0  0  0  0  0  0  0  0  0  0  0
   59.3210   33.3970   48.5240 C   0  0  0  0  0  0  0  0  0  0  0  0
   60.6770   33.6970   48.3030 C   0  0  0  0  0  0  0  0  0  0  0  0
   61.5930   33.7840   49.4160 N   0  0  0  0  0  0  0  0  0  0  0  0
   63.0380   33.9130   49.2850 C   0  0  0  0  0  0  0  0  0  0  0  0
   63.5790   34.1460   50.7090 C   0  0  0  0  0  0  0  0  0  0  0  0
   62.4270   33.8630   51.6820 C   0  0  0  0  0  0  0  0  0  0  0  0
   61.2570   33.7290   50.7930 C   0  0  0  0  0  0  0  0  0  0  0  0
   60.0880   33.5270   51.2160 O   0  0  0  0  0  0  0  0  0  0  0  0
   61.1220   33.8820   46.9820 C   0  0  0  0  0  0  0  0  0  0  0  0
   60.2260   33.8070   45.9120 C   0  0  0  0  0  0  0  0  0  0  0  0
   58.3600   30.4580   45.8770 C   0  0  0  0  0  0  0  0  0  0  0  0
   58.8160   29.1490   46.0670 C   0  0  0  0  0  0  0  0  0  0  0  0
   55.6010   23.6760   46.7390 H   0  0  0  0  0  0  0  0  0  0  0  0
   57.3360   23.4460   47.1440 H   0  0  0  0  0  0  0  0  0  0  0  0
   58.0725   26.8397   47.6993 H   0  0  0  0  0  0  0  0  0  0  0  0
   58.8159   25.2576   47.2566 H   0  0  0  0  0  0  0  0  0  0  0  0
   59.7721   26.6871   45.6724 H   0  0  0  0  0  0  0  0  0  0  0  0
   58.3327   26.0538   44.7856 H   0  0  0  0  0  0  0  0  0  0  0  0
   56.5267   27.4857   44.1421 H   0  0  0  0  0  0  0  0  0  0  0  0
   55.6656   29.8100   43.8701 H   0  0  0  0  0  0  0  0  0  0  0  0
   57.3708   33.0754   47.6382 H   0  0  0  0  0  0  0  0  0  0  0  0
   58.9596   33.2287   49.5492 H   0  0  0  0  0  0  0  0  0  0  0  0
   63.4661   32.9931   48.8601 H   0  0  0  0  0  0  0  0  0  0  0  0
   63.3075   34.7411   48.6130 H   0  0  0  0  0  0  0  0  0  0  0  0
   64.4185   33.4641   50.9098 H   0  0  0  0  0  0  0  0  0  0  0  0
   63.9445   35.1770   50.8248 H   0  0  0  0  0  0  0  0  0  0  0  0
   62.6043   32.9335   52.2429 H   0  0  0  0  0  0  0  0  0  0  0  0
   62.3025   34.6486   52.4419 H   0  0  0  0  0  0  0  0  0  0  0  0
   62.1852   34.0877   46.7890 H   0  0  0  0  0  0  0  0  0  0  0  0
   60.5837   33.9717   44.8849 H   0  0  0  0  0  0  0  0  0  0  0  0
   58.8840   31.2964   46.3592 H   0  0  0  0  0  0  0  0  0  0  0  0
   59.6947   28.9631   46.7021 H   0  0  0  0  0  0  0  0  0  0  0  0
  1  2  1  0
  2  3  2  0
  2  4  1  0
  4  5  1  0
  5  6  1  0
  6  7  2  0
  7  8  1  0
  8  9  2  0
  9 10  1  0
 10 11  1  0
 11 12  2  0
 11 13  2  0
 11 14  1  0
 14 15  2  0
 15 16  1  0
 16 17  2  0
 17 18  1  0
 18 19  1  0
 19 20  1  0
 20 21  1  0
 21 22  1  0
 22 23  2  0
 17 24  1  0
 24 25  2  0
  9 26  1  0
 26 27  2  0
 27  6  1  0
 25 14  1  0
 22 18  1  0
  1 28  1  0
  1 29  1  0
  4 30  1  0
  4 31  1  0
  5 32  1  0
  5 33  1  0
  7 34  1  0
  8 35  1  0
 15 36  1  0
 16 37  1  0
 19 38  1  0
 19 39  1  0
 20 40  1  0
 20 41  1  0
 21 42  1  0
 21 43  1  0
 24 44  1  0
 25 45  1  0
 26 46  1  0
 27 47  1  0
M  CHG  1  10  -1
M  END
>  <UniqueID>  (80) 
76

>  <SMILES>  (80) 
NC(=O)CCc1ccc([N-]S(=O)(=O)c2ccc(N3CCCC3=O)cc2)cc1

>  <Energy>  (80) 
61.18273831867645

>  <Genealogy>  (80) 
NC(=O)CCc1ccc([N-]S(=O)(=O)c2ccc(N3CCCC3=O)cc2)cc1 (protonated)
NC(=O)CCc1ccc([N-]S(=O)(=O)c2ccc(N3CCCC3=O)cc2)cc1 (3D coordinates assigned)
NC(=O)CCc1ccc([N-]S(=O)(=O)c2ccc(N3CCCC3=O)cc2)cc1 (nonaromatic ring conformer: 61.18273831867645 kcal/mol)

>  <smiles>  (80) 
NC(=O)CCc1ccc(NS(=O)(=O)c2ccc(N3CCCC3=O)cc2)cc1

>  <score_type>  (80) 
oracle

>  <origin>  (80) 
adg

>  <m_score__min__energy>  (80) 
-10.6

>  <m_primary>  (80) 
energy

$$$$
80:0
     RDKit          3D

 32 34  0  0  0  0  0  0  0  0999 V2000
   55.2690   30.6705   44.2157 H   0  0  0  0  0  0  0  0  0  0  0  0
   55.9210   29.9470   44.7270 C   0  0  0  0  0  0  0  0  0  0  0  0
   55.6690   28.6340   44.8670 N   0  0  0  0  0  0  0  0  0  0  0  0
   56.7430   28.1700   45.5410 C   0  0  0  0  0  0  0  0  0  0  0  0
   56.8870   26.9310   45.9100 N   0  0  0  0  0  0  0  0  0  0  0  0
   55.8680   25.9210   45.8650 C   0  0  0  0  0  0  0  0  0  0  0  0
   54.6650   26.2730   45.9970 O   0  0  0  0  0  0  0  0  0  0  0  0
   56.1960   24.4820   45.7470 C   0  0  0  0  0  0  0  0  0  0  0  0
   56.6120   23.7900   46.8440 N   0  0  0  0  0  0  0  0  0  0  0  0
   56.9030   22.4650   46.7750 C   0  0  0  0  0  0  0  0  0  0  0  0
   57.2930   21.8530   47.8020 O   0  0  0  0  0  0  0  0  0  0  0  0
   56.7720   21.8010   45.5980 N   0  0  0  0  0  0  0  0  0  0  0  0
   56.3500   22.4430   44.4780 C   0  0  0  0  0  0  0  0  0  0  0  0
   56.2330   21.8090   43.3980 O   0  0  0  0  0  0  0  0  0  0  0  0
   56.0460   23.8050   44.5290 C   0  0  0  0  0  0  0  0  0  0  0  0
   55.6959   24.3358   43.6314 H   0  0  0  0  0  0  0  0  0  0  0  0
   57.6510   29.1160   45.8500 N   0  0  0  0  0  0  0  0  0  0  0  0
   57.1300   30.2430   45.3280 C   0  0  0  0  0  0  0  0  0  0  0  0
   57.7880   31.5710   45.4150 C   0  0  0  0  0  0  0  0  0  0  0  0
   57.4060   32.6000   44.5370 C   0  0  0  0  0  0  0  0  0  0  0  0
   56.6210   32.4144   43.7891 H   0  0  0  0  0  0  0  0  0  0  0  0
   58.0140   33.8570   44.6050 C   0  0  0  0  0  0  0  0  0  0  0  0
   57.6975   34.6560   43.9184 H   0  0  0  0  0  0  0  0  0  0  0  0
   59.0250   34.1040   45.5440 C   0  0  0  0  0  0  0  0  0  0  0  0
   59.6490   35.4650   45.6430 C   0  0  0  0  0  0  0  0  0  0  0  0
   59.7730   35.7354   46.7020 H   0  0  0  0  0  0  0  0  0  0  0  0
   60.6322   35.4544   45.1498 H   0  0  0  0  0  0  0  0  0  0  0  0
   58.9993   36.2030   45.1498 H   0  0  0  0  0  0  0  0  0  0  0  0
   59.3980   33.0880   46.4360 C   0  0  0  0  0  0  0  0  0  0  0  0
   60.1732   33.2811   47.1922 H   0  0  0  0  0  0  0  0  0  0  0  0
   58.7900   31.8320   46.3690 C   0  0  0  0  0  0  0  0  0  0  0  0
   59.0969   31.0399   47.0678 H   0  0  0  0  0  0  0  0  0  0  0  0
  1  2  1  0
  2  3  1  0
  3  4  1  0
  4  5  2  0
  5  6  1  0
  6  7  2  0
  6  8  1  0
  8  9  1  0
  9 10  1  0
 10 11  2  0
 10 12  1  0
 12 13  1  0
 13 14  2  0
 13 15  1  0
 15 16  1  0
  4 17  1  0
 17 18  1  0
 18 19  1  0
 19 20  2  0
 20 21  1  0
 20 22  1  0
 22 23  1  0
 22 24  2  0
 24 25  1  0
 25 26  1  0
 25 27  1  0
 25 28  1  0
 24 29  1  0
 29 30  1  0
 29 31  2  0
 31 32  1  0
 18  2  2  0
 31 19  1  0
 15  8  2  0
M  CHG  4   3  -1   9  -1  12  -1  17  -1
M  END
>  <UniqueID>  (81) 
77

>  <SMILES>  (81) 
Cc1ccc(-c2c[n-]/c(=N\C(=O)c3cc(=O)[n-]c(=O)[n-]3)[n-]2)cc1

>  <Energy>  (81) 
71.0325848989172

>  <Genealogy>  (81) 
Cc1ccc(-c2c[n-]c(=NC(=O)c3cc(=O)[n-]c(=O)[n-]3)[n-]2)cc1 (protonated)
Cc1ccc(-c2c[n-]/c(=N\C(=O)c3cc(=O)[n-]c(=O)[n-]3)[n-]2)cc1 (cis-trans isomerization)
Cc1ccc(-c2c[n-]/c(=N\C(=O)c3cc(=O)[n-]c(=O)[n-]3)[n-]2)cc1 (3D coordinates assigned)
Cc1ccc(-c2c[n-]/c(=N\C(=O)c3cc(=O)[n-]c(=O)[n-]3)[n-]2)cc1 (optimized conformer: 71.0325848989172 kcal/mol)

>  <smiles>  (81) 
Cc1ccc(-c2c[nH]c(=NC(=O)c3cc(=O)[nH]c(=O)[nH]3)[nH]2)cc1

>  <score_type>  (81) 
oracle

>  <origin>  (81) 
adg

>  <m_score__min__energy>  (81) 
-14.300000000000001

>  <m_primary>  (81) 
energy

$$$$
81:0
     RDKit          3D

 71 75  0  0  0  0  0  0  0  0999 V2000
   60.0100   35.0090   46.5390 C   0  0  0  0  0  0  0  0  0  0  0  0
   59.1580   33.9230   45.9290 C   0  0  0  0  0  0  0  0  0  0  0  0
   59.0130   33.9350   44.5300 C   0  0  0  0  0  0  0  0  0  0  0  0
   58.1050   33.0910   43.9000 C   0  0  0  0  0  0  0  0  0  0  0  0
   57.3330   32.2300   44.6690 C   0  0  0  0  0  0  0  0  0  0  0  0
   57.5040   32.1850   46.0140 N   0  0  0  0  0  0  0  0  0  0  0  0
   58.4110   32.9580   46.6750 C   0  0  0  0  0  0  0  0  0  0  0  0
   58.5210   32.7570   47.9610 N   0  0  0  0  0  0  0  0  0  0  0  0
   58.5350   31.5370   48.7110 C   0  0  0  0  0  0  0  0  0  0  0  0
   58.1510   31.5340   49.9110 O   0  0  0  0  0  0  0  0  0  0  0  0
   59.0540   30.2880   48.1140 C   0  0  0  0  0  0  0  0  0  0  0  0
   58.3350   29.7190   47.0470 C   0  0  0  0  0  0  0  0  0  0  0  0
   58.7910   28.5680   46.3860 C   0  0  0  0  0  0  0  0  0  0  0  0
   57.9790   28.0400   45.2570 C   0  0  0  0  0  0  0  0  0  0  0  0
   57.4400   26.8130   45.2080 C   0  0  0  0  0  0  0  0  0  0  0  0
   56.5310   26.3170   46.2550 C   0  0  0  0  0  0  0  0  0  0  0  0
   56.9780   25.9440   47.3760 O   0  0  0  0  0  0  0  0  0  0  0  0
   55.1260   26.2720   45.9950 N   0  0  0  0  0  0  0  0  0  0  0  0
   54.4370   25.0450   45.6160 C   0  0  0  0  0  0  0  0  0  0  0  0
   55.4350   24.0270   45.1400 C   0  0  0  0  0  0  0  0  0  0  0  0
   56.0680   23.1800   46.0650 C   0  0  0  0  0  0  0  0  0  0  0  0
   56.9960   22.2290   45.6290 C   0  0  0  0  0  0  0  0  0  0  0  0
   57.3050   22.1210   44.2710 C   0  0  0  0  0  0  0  0  0  0  0  0
   56.6840   22.9650   43.3440 C   0  0  0  0  0  0  0  0  0  0  0  0
   55.7510   23.9140   43.7740 C   0  0  0  0  0  0  0  0  0  0  0  0
   59.9920   27.9740   46.8170 C   0  0  0  0  0  0  0  0  0  0  0  0
   60.7080   28.5220   47.8810 C   0  0  0  0  0  0  0  0  0  0  0  0
   60.2440   29.6610   48.5520 C   0  0  0  0  0  0  0  0  0  0  0  0
   61.1960   30.2380   49.9750 S   0  0  0  0  0  0  0  0  0  0  0  0
   61.8820   31.6640   49.1120 C   0  0  0  0  0  0  0  0  0  0  0  0
   62.2010   31.5380   47.7520 C   0  0  0  0  0  0  0  0  0  0  0  0
   62.8030   32.5920   47.0640 C   0  0  0  0  0  0  0  0  0  0  0  0
   63.0760   33.7890   47.7230 C   0  0  0  0  0  0  0  0  0  0  0  0
   62.7260   33.9440   49.0650 C   0  0  0  0  0  0  0  0  0  0  0  0
   62.1130   32.8940   49.7720 C   0  0  0  0  0  0  0  0  0  0  0  0
   61.6450   33.1270   51.1140 N   0  0  0  0  0  0  0  0  0  0  0  0
   62.4410   32.6460   52.2500 C   0  0  0  0  0  0  0  0  0  0  0  0
   61.5140   32.1500   53.3650 C   0  0  0  0  0  0  0  0  0  0  0  0
   60.4130   31.4720   52.7940 O   0  0  0  0  0  0  0  0  0  0  0  0
   59.5310   32.3870   52.1610 C   0  0  0  0  0  0  0  0  0  0  0  0
   60.2480   33.4990   51.3620 C   0  0  0  0  0  0  0  0  0  0  0  0
   59.9583   34.9430   47.6358 H   0  0  0  0  0  0  0  0  0  0  0  0
   61.0530   34.8834   46.2129 H   0  0  0  0  0  0  0  0  0  0  0  0
   59.6398   35.9922   46.2129 H   0  0  0  0  0  0  0  0  0  0  0  0
   59.6257   34.6208   43.9265 H   0  0  0  0  0  0  0  0  0  0  0  0
   57.9994   33.1052   42.8052 H   0  0  0  0  0  0  0  0  0  0  0  0
   56.5832   31.5848   44.1877 H   0  0  0  0  0  0  0  0  0  0  0  0
   57.3936   30.1871   46.7233 H   0  0  0  0  0  0  0  0  0  0  0  0
   57.8079   28.7057   44.3982 H   0  0  0  0  0  0  0  0  0  0  0  0
   57.6844   26.1569   44.3596 H   0  0  0  0  0  0  0  0  0  0  0  0
   53.8956   24.6463   46.4866 H   0  0  0  0  0  0  0  0  0  0  0  0
   53.7260   25.2632   44.8055 H   0  0  0  0  0  0  0  0  0  0  0  0
   55.8328   23.2652   47.1362 H   0  0  0  0  0  0  0  0  0  0  0  0
   57.4838   21.5644   46.3572 H   0  0  0  0  0  0  0  0  0  0  0  0
   58.0361   21.3729   43.9307 H   0  0  0  0  0  0  0  0  0  0  0  0
   56.9300   22.8820   42.2751 H   0  0  0  0  0  0  0  0  0  0  0  0
   55.2628   24.5740   43.0418 H   0  0  0  0  0  0  0  0  0  0  0  0
   60.3681   27.0722   46.3117 H   0  0  0  0  0  0  0  0  0  0  0  0
   61.6511   28.0529   48.1981 H   0  0  0  0  0  0  0  0  0  0  0  0
   61.9747   30.6003   47.2234 H   0  0  0  0  0  0  0  0  0  0  0  0
   63.0622   32.4780   46.0011 H   0  0  0  0  0  0  0  0  0  0  0  0
   63.5679   34.6127   47.1848 H   0  0  0  0  0  0  0  0  0  0  0  0
   62.9316   34.8968   49.5749 H   0  0  0  0  0  0  0  0  0  0  0  0
   63.0871   31.8197   51.9186 H   0  0  0  0  0  0  0  0  0  0  0  0
   63.0591   33.4711   52.6337 H   0  0  0  0  0  0  0  0  0  0  0  0
   62.0665   31.4633   54.0232 H   0  0  0  0  0  0  0  0  0  0  0  0
   61.1531   33.0079   53.9513 H   0  0  0  0  0  0  0  0  0  0  0  0
   58.8866   31.8245   51.4694 H   0  0  0  0  0  0  0  0  0  0  0  0
   58.9613   32.8849   52.9595 H   0  0  0  0  0  0  0  0  0  0  0  0
   59.7345   33.6433   50.3999 H   0  0  0  0  0  0  0  0  0  0  0  0
   60.2239   34.4313   51.9453 H   0  0  0  0  0  0  0  0  0  0  0  0
  1  2  1  0
  2  3  2  0
  3  4  1  0
  4  5  2  0
  5  6  1  0
  6  7  1  0
  7  8  2  3
  8  9  1  0
  9 10  2  0
  9 11  1  0
 11 12  2  0
 12 13  1  0
 13 14  1  0
 14 15  2  3
 15 16  1  0
 16 17  2  0
 16 18  1  0
 18 19  1  0
 19 20  1  0
 20 21  2  0
 21 22  1  0
 22 23  2  0
 23 24  1  0
 24 25  2  0
 13 26  2  0
 26 27  1  0
 27 28  2  0
 28 29  1  0
 29 30  1  0
 30 31  2  0
 31 32  1  0
 32 33  2  0
 33 34  1  0
 34 35  2  0
 35 36  1  0
 36 37  1  0
 37 38  1  0
 38 39  1  0
 39 40  1  0
 40 41  1  0
  7  2  1  0
 28 11  1  0
 35 30  1  0
 41 36  1  0
 25 20  1  0
  1 42  1  0
  1 43  1  0
  1 44  1  0
  3 45  1  0
  4 46  1  0
  5 47  1  0
 12 48  1  0
 14 49  1  0
 15 50  1  0
 19 51  1  0
 19 52  1  0
 21 53  1  0
 22 54  1  0
 23 55  1  0
 24 56  1  0
 25 57  1  0
 26 58  1  0
 27 59  1  0
 31 60  1  0
 32 61  1  0
 33 62  1  0
 34 63  1  0
 37 64  1  0
 37 65  1  0
 38 66  1  0
 38 67  1  0
 40 68  1  0
 40 69  1  0
 41 70  1  0
 41 71  1  0
M  CHG  2   6  -1  18  -1
M  END
>  <UniqueID>  (82) 
78

>  <SMILES>  (82) 
Cc1ccc[n-]c1=NC(=O)c1cc(C=CC(=O)[N-]Cc2ccccc2)ccc1Sc1ccccc1N1CCOCC1

>  <Energy>  (82) 
104.74463298169275

>  <Genealogy>  (82) 
Cc1ccc[n-]c1=NC(=O)c1cc(C=CC(=O)[N-]Cc2ccccc2)ccc1Sc1ccccc1N1CCOCC1 (protonated)
Cc1ccc[n-]c1=NC(=O)c1cc(C=CC(=O)[N-]Cc2ccccc2)ccc1Sc1ccccc1N1CCOCC1 (3D coordinates assigned)
Cc1ccc[n-]c1=NC(=O)c1cc(C=CC(=O)[N-]Cc2ccccc2)ccc1Sc1ccccc1N1CCOCC1 (nonaromatic ring conformer: 104.74463298169275 kcal/mol)

>  <smiles>  (82) 
Cc1ccc[nH]c1=NC(=O)c1cc(C=CC(=O)NCc2ccccc2)ccc1Sc1ccccc1N1CCOCC1

>  <score_type>  (82) 
oracle

>  <origin>  (82) 
adg

>  <m_score__min__energy>  (82) 
-14.35

>  <m_primary>  (82) 
energy

$$$$
82:0
     RDKit          3D

 51 54  0  0  0  0  0  0  0  0999 V2000
   54.6430   27.0530   46.8230 H   0  0  0  0  0  0  0  0  0  0  0  0
   55.1580   26.6870   45.9940 N   0  0  0  0  0  0  0  0  0  0  0  0
   56.4040   26.3490   46.0670 C   0  0  0  0  0  0  0  0  0  0  0  0
   57.3380   27.2830   46.3850 N   0  0  0  0  0  0  0  0  0  0  0  0
   58.6580   26.9640   46.4690 C   0  0  0  0  0  0  0  0  0  0  0  0
   59.5840   27.9800   46.7600 O   0  0  0  0  0  0  0  0  0  0  0  0
   59.6400   28.6910   47.9680 C   0  0  0  0  0  0  0  0  0  0  0  0
   60.4050   28.2150   49.0460 C   0  0  0  0  0  0  0  0  0  0  0  0
   60.9271   27.2509   48.9569 H   0  0  0  0  0  0  0  0  0  0  0  0
   60.5120   28.9530   50.2350 C   0  0  0  0  0  0  0  0  0  0  0  0
   61.3620   28.4810   51.3540 C   0  0  0  0  0  0  0  0  0  0  0  0
   61.2450   27.2930   51.7560 O   0  0  0  0  0  0  0  0  0  0  0  0
   62.2990   29.3540   52.0080 N   0  0  0  0  0  0  0  0  0  0  0  0
   61.8430   30.3040   53.0230 C   0  0  0  0  0  0  0  0  0  0  0  0
   60.7485   30.3967   52.9643 H   0  0  0  0  0  0  0  0  0  0  0  0
   62.1433   29.9324   54.0138 H   0  0  0  0  0  0  0  0  0  0  0  0
   62.4640   31.6550   52.8070 C   0  0  0  0  0  0  0  0  0  0  0  0
   61.9410   32.6590   53.3640 O   0  0  0  0  0  0  0  0  0  0  0  0
   63.6550   31.8080   52.0100 N   0  0  0  0  0  0  0  0  0  0  0  0
   64.3660   33.0930   52.0080 C   0  0  0  0  0  0  0  0  0  0  0  0
   64.5442   33.4151   53.0446 H   0  0  0  0  0  0  0  0  0  0  0  0
   65.3290   32.9784   51.4890 H   0  0  0  0  0  0  0  0  0  0  0  0
   63.7573   33.8480   51.4890 H   0  0  0  0  0  0  0  0  0  0  0  0
   64.0770   30.7490   51.0910 C   0  0  0  0  0  0  0  0  0  0  0  0
   63.5781   30.8957   50.1217 H   0  0  0  0  0  0  0  0  0  0  0  0
   65.1699   30.8022   50.9776 H   0  0  0  0  0  0  0  0  0  0  0  0
   63.7150   29.3690   51.6330 C   0  0  0  0  0  0  0  0  0  0  0  0
   63.8983   28.6099   50.8582 H   0  0  0  0  0  0  0  0  0  0  0  0
   64.3329   29.1451   52.5151 H   0  0  0  0  0  0  0  0  0  0  0  0
   59.7890   30.1470   50.3560 C   0  0  0  0  0  0  0  0  0  0  0  0
   59.8479   30.7280   51.2882 H   0  0  0  0  0  0  0  0  0  0  0  0
   58.9940   30.6060   49.3030 C   0  0  0  0  0  0  0  0  0  0  0  0
   58.4386   31.5493   49.4109 H   0  0  0  0  0  0  0  0  0  0  0  0
   58.8970   29.8740   48.1070 C   0  0  0  0  0  0  0  0  0  0  0  0
   58.1310   30.3710   46.9910 N   0  0  0  0  0  0  0  0  0  0  0  0
   57.6050   29.6830   46.4050 H   0  0  0  0  0  0  0  0  0  0  0  0
   58.0660   31.7500   46.5940 C   0  0  0  0  0  0  0  0  0  0  0  0
   58.4230   32.6590   47.3900 O   0  0  0  0  0  0  0  0  0  0  0  0
   57.5470   32.0730   45.2950 N   0  0  0  0  0  0  0  0  0  0  0  0
   57.0020   31.2540   44.4450 C   0  0  0  0  0  0  0  0  0  0  0  0
   56.1830   30.2550   44.8390 N   0  0  0  0  0  0  0  0  0  0  0  0
   55.7730   29.4960   43.7890 C   0  0  0  0  0  0  0  0  0  0  0  0
   55.1000   28.6346   43.9115 H   0  0  0  0  0  0  0  0  0  0  0  0
   56.2660   29.8870   42.5470 C   0  0  0  0  0  0  0  0  0  0  0  0
   56.0477   29.4030   41.5836 H   0  0  0  0  0  0  0  0  0  0  0  0
   57.2530   31.2280   42.7770 S   0  0  0  0  0  0  0  0  0  0  0  0
   59.0600   25.6440   46.2090 C   0  0  0  0  0  0  0  0  0  0  0  0
   60.1219   25.3611   46.2584 H   0  0  0  0  0  0  0  0  0  0  0  0
   58.0870   24.6990   45.8870 C   0  0  0  0  0  0  0  0  0  0  0  0
   58.4140   23.5040   45.6500 O   0  0  0  0  0  0  0  0  0  0  0  0
   56.7820   25.0650   45.8200 N   0  0  0  0  0  0  0  0  0  0  0  0
  1  2  1  0
  2  3  2  3
  3  4  1  0
  4  5  1  0
  5  6  1  0
  6  7  1  0
  7  8  2  0
  8  9  1  0
  8 10  1  0
 10 11  1  0
 11 12  2  0
 11 13  1  0
 13 14  1  0
 14 15  1  0
 14 16  1  0
 14 17  1  0
 17 18  2  0
 17 19  1  0
 19 20  1  0
 20 21  1  0
 20 22  1  0
 20 23  1  0
 19 24  1  0
 24 25  1  0
 24 26  1  0
 24 27  1  0
 27 28  1  0
 27 29  1  0
 10 30  2  0
 30 31  1  0
 30 32  1  0
 32 33  1  0
 32 34  2  0
 34 35  1  0
 35 36  1  0
 35 37  1  0
 37 38  2  0
 37 39  1  0
 39 40  2  0
 40 41  1  0
 41 42  1  0
 42 43  1  0
 42 44  2  0
 44 45  1  0
 44 46  1  0
  5 47  2  0
 47 48  1  0
 47 49  1  0
 49 50  2  0
 49 51  1  0
 51  3  1  0
 34  7  1  0
 46 40  1  0
 27 13  1  0
M  CHG  3   4  -1  41  -1  51  -1
M  END
>  <UniqueID>  (83) 
79

>  <SMILES>  (83) 
CN1CCN(C(=O)c2ccc(NC(=O)/N=c3/[n-]ccs3)c(Oc3cc(=O)[n-]c(=N)[n-]3)c2)CC1=O

>  <Energy>  (83) 
103.13228309502617

>  <Genealogy>  (83) 
CN1CCN(C(=O)c2ccc(NC(=O)N=c3[n-]ccs3)c(Oc3cc(=O)[n-]c(=N)[n-]3)c2)CC1=O (protonated)
CN1CCN(C(=O)c2ccc(NC(=O)/N=c3/[n-]ccs3)c(Oc3cc(=O)[n-]c(=N)[n-]3)c2)CC1=O (cis-trans isomerization)
CN1CCN(C(=O)c2ccc(NC(=O)/N=c3/[n-]ccs3)c(Oc3cc(=O)[n-]c(=N)[n-]3)c2)CC1=O (3D coordinates assigned)
CN1CCN(C(=O)c2ccc(NC(=O)/N=c3/[n-]ccs3)c(Oc3cc(=O)[n-]c(=N)[n-]3)c2)CC1=O (nonaromatic ring conformer: 103.13228309502617 kcal/mol)

>  <smiles>  (83) 
CN1CCN(C(=O)c2ccc(NC(=O)N=c3[nH]ccs3)c(Oc3cc(=O)[nH]c(=N)[nH]3)c2)CC1=O

>  <score_type>  (83) 
oracle

>  <origin>  (83) 
adg

>  <m_score__min__energy>  (83) 
-13.1

>  <m_primary>  (83) 
energy

$$$$
83:0
     RDKit          3D

 54 57  0  0  0  0  0  0  0  0999 V2000
   60.5160   34.4550   48.7740 O   0  0  0  0  0  0  0  0  0  0  0  0
   59.5550   33.6410   48.8020 C   0  0  0  0  0  0  0  0  0  0  0  0
   58.9090   33.2970   47.5680 N   0  0  0  0  0  0  0  0  0  0  0  0
   59.0790   32.0770   46.8290 C   0  0  0  0  0  0  0  0  0  0  0  0
   57.9930   31.5900   46.0900 C   0  0  0  0  0  0  0  0  0  0  0  0
   58.1050   30.4030   45.3540 C   0  0  0  0  0  0  0  0  0  0  0  0
   56.7340   29.8260   44.4120 S   0  0  0  0  0  0  0  0  0  0  0  0
   55.7390   30.9290   44.1840 O   0  0  0  0  0  0  0  0  0  0  0  0
   57.2290   29.3290   43.0840 O   0  0  0  0  0  0  0  0  0  0  0  0
   55.9540   28.5260   45.2510 N   0  0  0  0  0  0  0  0  0  0  0  0
   56.5790   27.2940   45.6330 C   0  0  0  0  0  0  0  0  0  0  0  0
   57.9780   27.1470   45.6670 C   0  0  0  0  0  0  0  0  0  0  0  0
   58.5500   25.9320   46.0510 C   0  0  0  0  0  0  0  0  0  0  0  0
   57.7340   24.8550   46.4030 C   0  0  0  0  0  0  0  0  0  0  0  0
   56.3450   24.9910   46.3730 C   0  0  0  0  0  0  0  0  0  0  0  0
   55.7660   26.2060   45.9920 C   0  0  0  0  0  0  0  0  0  0  0  0
   54.3810   26.3280   45.9650 O   0  0  0  0  0  0  0  0  0  0  0  0
   59.3160   29.7000   45.3560 C   0  0  0  0  0  0  0  0  0  0  0  0
   60.4130   30.1960   46.0610 C   0  0  0  0  0  0  0  0  0  0  0  0
   60.3130   31.3950   46.7790 C   0  0  0  0  0  0  0  0  0  0  0  0
   61.4390   31.9170   47.4120 O   0  0  0  0  0  0  0  0  0  0  0  0
   59.0960   33.1040   50.1030 C   0  0  0  0  0  0  0  0  0  0  0  0
   59.2820   33.8340   51.2890 C   0  0  0  0  0  0  0  0  0  0  0  0
   58.8180   33.3310   52.5070 C   0  0  0  0  0  0  0  0  0  0  0  0
   58.1750   32.0920   52.5550 C   0  0  0  0  0  0  0  0  0  0  0  0
   58.0150   31.3320   51.3850 C   0  0  0  0  0  0  0  0  0  0  0  0
   57.3110   30.0830   51.3900 N   0  0  0  0  0  0  0  0  0  0  0  0
   56.5830   29.5170   52.4870 C   0  0  0  0  0  0  0  0  0  0  0  0
   57.1260   28.6090   53.1710 O   0  0  0  0  0  0  0  0  0  0  0  0
   55.2410   30.0540   52.9160 C   0  0  1  0  0  0  0  0  0  0  0  0
   54.7660   31.1860   52.0030 C   0  0  0  0  0  0  0  0  0  0  0  0
   53.5010   30.6590   51.3910 C   0  0  0  0  0  0  0  0  0  0  0  0
   53.1240   29.5170   52.3050 C   0  0  0  0  0  0  0  0  0  0  0  0
   54.2990   29.0040   52.8820 O   0  0  0  0  0  0  0  0  0  0  0  0
   58.4680   31.8480   50.1630 C   0  0  0  0  0  0  0  0  0  0  0  0
   57.0432   32.1449   46.0875 H   0  0  0  0  0  0  0  0  0  0  0  0
   58.6242   27.9929   45.3899 H   0  0  0  0  0  0  0  0  0  0  0  0
   59.6443   25.8235   46.0761 H   0  0  0  0  0  0  0  0  0  0  0  0
   58.1861   23.8985   46.7042 H   0  0  0  0  0  0  0  0  0  0  0  0
   55.7043   24.1407   46.6496 H   0  0  0  0  0  0  0  0  0  0  0  0
   59.4026   28.7545   44.8005 H   0  0  0  0  0  0  0  0  0  0  0  0
   61.3632   29.6418   46.0531 H   0  0  0  0  0  0  0  0  0  0  0  0
   61.4130   32.8080   47.8930 H   0  0  0  0  0  0  0  0  0  0  0  0
   59.7955   34.8063   51.2584 H   0  0  0  0  0  0  0  0  0  0  0  0
   58.9594   33.9120   53.4303 H   0  0  0  0  0  0  0  0  0  0  0  0
   57.7924   31.7100   53.5130 H   0  0  0  0  0  0  0  0  0  0  0  0
   55.3400   30.4591   53.9339 H   0  0  0  0  0  0  0  0  0  0  0  0
   54.5675   32.0987   52.5841 H   0  0  0  0  0  0  0  0  0  0  0  0
   55.5167   31.4613   51.2476 H   0  0  0  0  0  0  0  0  0  0  0  0
   52.7171   31.4306   51.3801 H   0  0  0  0  0  0  0  0  0  0  0  0
   53.6258   30.3491   50.3429 H   0  0  0  0  0  0  0  0  0  0  0  0
   52.4502   29.8803   53.0949 H   0  0  0  0  0  0  0  0  0  0  0  0
   52.6086   28.7305   51.7343 H   0  0  0  0  0  0  0  0  0  0  0  0
   58.3305   31.2638   49.2412 H   0  0  0  0  0  0  0  0  0  0  0  0
  1  2  2  0
  2  3  1  0
  3  4  1  0
  4  5  2  0
  5  6  1  0
  6  7  1  0
  7  8  2  0
  7  9  2  0
  7 10  1  0
 10 11  1  0
 11 12  2  0
 12 13  1  0
 13 14  2  0
 14 15  1  0
 15 16  2  0
 16 17  1  0
  6 18  2  0
 18 19  1  0
 19 20  2  0
 20 21  1  0
  2 22  1  0
 22 23  2  0
 23 24  1  0
 24 25  2  0
 25 26  1  0
 26 27  1  0
 27 28  1  0
 28 29  2  0
 28 30  1  0
 30 31  1  0
 31 32  1  0
 32 33  1  0
 33 34  1  0
 26 35  2  0
 20  4  1  0
 35 22  1  0
 16 11  1  0
 34 30  1  0
  5 36  1  0
 12 37  1  0
 13 38  1  0
 14 39  1  0
 15 40  1  0
 18 41  1  0
 19 42  1  0
 21 43  1  0
 23 44  1  0
 24 45  1  0
 25 46  1  0
 30 47  1  1
 31 48  1  0
 31 49  1  0
 32 50  1  0
 32 51  1  0
 33 52  1  0
 33 53  1  0
 35 54  1  0
M  CHG  4   3  -1  10  -1  17  -1  27  -1
M  END
>  <UniqueID>  (84) 
80

>  <SMILES>  (84) 
O=C([N-]c1cc(S(=O)(=O)[N-]c2ccccc2[O-])ccc1O)c1cccc([N-]C(=O)[C@H]2CCCO2)c1

>  <Energy>  (84) 
74.01195775528258

>  <Genealogy>  (84) 
O=C([N-]c1cc(S(=O)(=O)[N-]c2ccccc2[O-])ccc1O)c1cccc([N-]C(=O)C2CCCO2)c1 (protonated)
O=C([N-]c1cc(S(=O)(=O)[N-]c2ccccc2[O-])ccc1O)c1cccc([N-]C(=O)[C@H]2CCCO2)c1 (chirality)
O=C([N-]c1cc(S(=O)(=O)[N-]c2ccccc2[O-])ccc1O)c1cccc([N-]C(=O)[C@H]2CCCO2)c1 (3D coordinates assigned)
O=C([N-]c1cc(S(=O)(=O)[N-]c2ccccc2[O-])ccc1O)c1cccc([N-]C(=O)[C@H]2CCCO2)c1 (nonaromatic ring conformer: 74.01195775528258 kcal/mol)

>  <smiles>  (84) 
O=C(Nc1cc(S(=O)(=O)Nc2ccccc2O)ccc1O)c1cccc(NC(=O)C2CCCO2)c1

>  <score_type>  (84) 
oracle

>  <origin>  (84) 
adg

>  <m_score__min__energy>  (84) 
-16.800000000000001

>  <m_primary>  (84) 
energy

$$$$
84:0
     RDKit          3D

 54 57  0  0  0  0  0  0  0  0999 V2000
   58.7685   27.4483   48.9169 H   0  0  0  0  0  0  0  0  0  0  0  0
   58.7220   28.1200   48.0470 C   0  0  0  0  0  0  0  0  0  0  0  0
   58.0070   27.8240   46.9300 N   0  0  0  0  0  0  0  0  0  0  0  0
   58.0900   28.8030   46.0030 C   0  0  0  0  0  0  0  0  0  0  0  0
   57.4610   28.7250   44.8670 N   0  0  0  0  0  0  0  0  0  0  0  0
   56.3500   29.5200   44.4200 C   0  0  0  0  0  0  0  0  0  0  0  0
   55.1880   29.3350   44.8750 O   0  0  0  0  0  0  0  0  0  0  0  0
   56.5750   30.5400   43.3450 C   0  0  0  0  0  0  0  0  0  0  0  0
   55.6012   30.8702   42.9543 H   0  0  0  0  0  0  0  0  0  0  0  0
   57.1768   30.0788   42.5480 H   0  0  0  0  0  0  0  0  0  0  0  0
   57.3190   31.7300   43.8730 C   0  0  0  0  0  0  0  0  0  0  0  0
   57.2800   32.0610   45.1910 N   0  0  0  0  0  0  0  0  0  0  0  0
   58.0310   33.1570   45.4500 C   0  0  0  0  0  0  0  0  0  0  0  0
   58.1310   33.7110   46.6220 N   0  0  0  0  0  0  0  0  0  0  0  0
   59.3620   33.8870   47.3410 C   0  0  0  0  0  0  0  0  0  0  0  0
   59.3260   34.3730   48.6530 C   0  0  0  0  0  0  0  0  0  0  0  0
   58.3616   34.6294   49.1158 H   0  0  0  0  0  0  0  0  0  0  0  0
   60.5110   34.5340   49.3780 C   0  0  0  0  0  0  0  0  0  0  0  0
   60.4743   34.9017   50.4141 H   0  0  0  0  0  0  0  0  0  0  0  0
   61.7420   34.2290   48.7900 C   0  0  0  0  0  0  0  0  0  0  0  0
   62.6713   34.3434   49.3674 H   0  0  0  0  0  0  0  0  0  0  0  0
   61.7910   33.7780   47.4660 C   0  0  0  0  0  0  0  0  0  0  0  0
   63.3700   33.4250   46.6910 S   0  0  0  0  0  0  0  0  0  0  0  0
   63.4110   31.6970   47.2770 C   0  0  0  0  0  0  0  0  0  0  0  0
   63.4113   31.6827   48.3769 H   0  0  0  0  0  0  0  0  0  0  0  0
   62.5253   31.1621   46.9036 H   0  0  0  0  0  0  0  0  0  0  0  0
   64.3211   31.2047   46.9036 H   0  0  0  0  0  0  0  0  0  0  0  0
   60.6060   33.6190   46.7390 C   0  0  0  0  0  0  0  0  0  0  0  0
   60.6467   33.2831   45.6923 H   0  0  0  0  0  0  0  0  0  0  0  0
   58.7650   33.7610   44.0660 S   0  0  0  0  0  0  0  0  0  0  0  0
   58.1120   32.5590   43.0790 C   0  0  0  0  0  0  0  0  0  0  0  0
   58.2818   32.4481   41.9979 H   0  0  0  0  0  0  0  0  0  0  0  0
   59.0560   30.0870   46.5340 S   0  0  0  0  0  0  0  0  0  0  0  0
   59.3910   29.3400   48.0040 C   0  0  0  0  0  0  0  0  0  0  0  0
   60.1810   29.9450   49.1220 C   0  0  0  0  0  0  0  0  0  0  0  0
   60.8035   29.1679   49.5897 H   0  0  0  0  0  0  0  0  0  0  0  0
   60.8201   30.7447   48.7195 H   0  0  0  0  0  0  0  0  0  0  0  0
   59.2540   30.5280   50.1540 C   0  0  0  0  0  0  0  0  0  0  0  0
   59.2860   31.9000   50.4430 C   0  0  0  0  0  0  0  0  0  0  0  0
   60.0206   32.5483   49.9429 H   0  0  0  0  0  0  0  0  0  0  0  0
   58.3890   32.4460   51.3630 C   0  0  0  0  0  0  0  0  0  0  0  0
   58.4171   33.5233   51.5834 H   0  0  0  0  0  0  0  0  0  0  0  0
   57.4550   31.6270   52.0050 C   0  0  0  0  0  0  0  0  0  0  0  0
   56.7445   32.0645   52.7218 H   0  0  0  0  0  0  0  0  0  0  0  0
   57.4200   30.2540   51.7400 C   0  0  0  0  0  0  0  0  0  0  0  0
   56.4170   29.4550   52.3820 N   0  0  0  0  0  0  0  0  0  0  0  0
   54.9950   29.6330   52.3100 C   0  0  0  0  0  0  0  0  0  0  0  0
   54.2450   28.7310   52.7650 O   0  0  0  0  0  0  0  0  0  0  0  0
   54.3720   30.8460   51.6840 C   0  0  0  0  0  0  0  0  0  0  0  0
   54.0221   31.5273   52.4735 H   0  0  0  0  0  0  0  0  0  0  0  0
   55.1175   31.3603   51.0598 H   0  0  0  0  0  0  0  0  0  0  0  0
   53.5197   30.5396   51.0598 H   0  0  0  0  0  0  0  0  0  0  0  0
   58.3040   29.7120   50.7900 C   0  0  0  0  0  0  0  0  0  0  0  0
   58.2511   28.6413   50.5432 H   0  0  0  0  0  0  0  0  0  0  0  0
  1  2  1  0
  2  3  1  0
  3  4  1  0
  4  5  2  3
  5  6  1  0
  6  7  2  0
  6  8  1  0
  8  9  1  0
  8 10  1  0
  8 11  1  0
 11 12  1  0
 12 13  1  0
 13 14  2  0
 14 15  1  0
 15 16  2  0
 16 17  1  0
 16 18  1  0
 18 19  1  0
 18 20  2  0
 20 21  1  0
 20 22  1  0
 22 23  1  0
 23 24  1  0
 24 25  1  0
 24 26  1  0
 24 27  1  0
 22 28  2  0
 28 29  1  0
 13 30  1  0
 30 31  1  0
 31 32  1  0
  4 33  1  0
 33 34  1  0
 34 35  1  0
 35 36  1  0
 35 37  1  0
 35 38  1  0
 38 39  2  0
 39 40  1  0
 39 41  1  0
 41 42  1  0
 41 43  2  0
 43 44  1  0
 43 45  1  0
 45 46  1  0
 46 47  1  0
 47 48  2  0
 47 49  1  0
 49 50  1  0
 49 51  1  0
 49 52  1  0
 45 53  2  0
 53 54  1  0
 34  2  2  0
 53 38  1  0
 31 11  2  0
 28 15  1  0
M  CHG  3   3  -1  12  -1  46  -1
M  END
>  <UniqueID>  (85) 
81

>  <SMILES>  (85) 
CSc1cccc(/N=c2\[n-]c(CC(=O)N=c3[n-]cc(Cc4cccc([N-]C(C)=O)c4)s3)cs2)c1

>  <Energy>  (85) 
122.01153110400027

>  <Genealogy>  (85) 
CSc1cccc(N=c2[n-]c(CC(=O)N=c3[n-]cc(Cc4cccc([N-]C(C)=O)c4)s3)cs2)c1 (protonated)
CSc1cccc(/N=c2\[n-]c(CC(=O)N=c3[n-]cc(Cc4cccc([N-]C(C)=O)c4)s3)cs2)c1 (cis-trans isomerization)
CSc1cccc(/N=c2\[n-]c(CC(=O)N=c3[n-]cc(Cc4cccc([N-]C(C)=O)c4)s3)cs2)c1 (3D coordinates assigned)
CSc1cccc(/N=c2\[n-]c(CC(=O)N=c3[n-]cc(Cc4cccc([N-]C(C)=O)c4)s3)cs2)c1 (optimized conformer: 122.01153110400027 kcal/mol)

>  <smiles>  (85) 
CSc1cccc(N=c2[nH]c(CC(=O)N=c3[nH]cc(Cc4cccc(NC(C)=O)c4)s3)cs2)c1

>  <score_type>  (85) 
oracle

>  <origin>  (85) 
adg

>  <m_score__min__energy>  (85) 
-13.68

>  <m_primary>  (85) 
energy

$$$$
85:0
     RDKit          3D

 38 39  0  0  0  0  0  0  0  0999 V2000
   61.2450   29.1790   50.2070 O   0  0  0  0  0  0  0  0  0  0  0  0
   60.3060   29.5090   49.4320 C   0  0  0  0  0  0  0  0  0  0  0  0
   59.6740   30.8620   49.5790 C   0  0  0  0  0  0  0  0  0  0  0  0
   58.7050   31.0970   48.5070 N   0  0  0  0  0  0  0  0  0  0  0  0
   59.5070   31.5320   47.0250 S   0  0  0  0  0  0  0  0  0  0  0  0
   59.6260   30.3140   46.1550 O   0  0  0  0  0  0  0  0  0  0  0  0
   58.6840   32.5590   46.2970 O   0  0  0  0  0  0  0  0  0  0  0  0
   61.1240   32.1610   47.3470 C   0  0  0  0  0  0  0  0  0  0  0  0
   62.2520   31.3480   47.1550 C   0  0  0  0  0  0  0  0  0  0  0  0
   63.5310   31.8500   47.4150 C   0  0  0  0  0  0  0  0  0  0  0  0
   63.6930   33.1680   47.8480 C   0  0  0  0  0  0  0  0  0  0  0  0
   62.5750   33.9840   48.0310 C   0  0  0  0  0  0  0  0  0  0  0  0
   61.2910   33.4850   47.7870 C   0  0  0  0  0  0  0  0  0  0  0  0
   60.2160   34.2920   47.9680 F   0  0  0  0  0  0  0  0  0  0  0  0
   59.8850   28.6280   48.3800 N   0  0  0  0  0  0  0  0  0  0  0  0
   60.3440   27.2730   48.2510 C   0  0  0  0  0  0  0  0  0  0  0  0
   60.9240   26.6980   49.2110 O   0  0  0  0  0  0  0  0  0  0  0  0
   60.0920   26.5140   46.9840 C   0  0  0  0  0  0  0  0  0  0  0  0
   58.6200   26.4610   46.6830 C   0  0  0  0  0  0  0  0  0  0  0  0
   58.0100   27.4930   45.9540 C   0  0  0  0  0  0  0  0  0  0  0  0
   56.6410   27.4440   45.6720 C   0  0  0  0  0  0  0  0  0  0  0  0
   55.8740   26.3600   46.1110 C   0  0  0  0  0  0  0  0  0  0  0  0
   54.5140   26.3120   45.8300 O   0  0  0  0  0  0  0  0  0  0  0  0
   56.4780   25.3210   46.8250 C   0  0  0  0  0  0  0  0  0  0  0  0
   57.8470   25.3660   47.1060 C   0  0  0  0  0  0  0  0  0  0  0  0
   59.1597   30.9173   50.5498 H   0  0  0  0  0  0  0  0  0  0  0  0
   60.4603   31.6290   49.5209 H   0  0  0  0  0  0  0  0  0  0  0  0
   62.1297   30.3143   46.7994 H   0  0  0  0  0  0  0  0  0  0  0  0
   64.4117   31.2053   47.2782 H   0  0  0  0  0  0  0  0  0  0  0  0
   64.7007   33.5628   48.0447 H   0  0  0  0  0  0  0  0  0  0  0  0
   62.7042   35.0230   48.3683 H   0  0  0  0  0  0  0  0  0  0  0  0
   59.2320   28.9980   47.6540 H   0  0  0  0  0  0  0  0  0  0  0  0
   60.6130   27.0132   46.1538 H   0  0  0  0  0  0  0  0  0  0  0  0
   60.4664   25.4868   47.1054 H   0  0  0  0  0  0  0  0  0  0  0  0
   58.6112   28.3445   45.6026 H   0  0  0  0  0  0  0  0  0  0  0  0
   56.1672   28.2586   45.1046 H   0  0  0  0  0  0  0  0  0  0  0  0
   55.8752   24.4665   47.1664 H   0  0  0  0  0  0  0  0  0  0  0  0
   58.3205   24.5419   47.6598 H   0  0  0  0  0  0  0  0  0  0  0  0
  1  2  2  0
  2  3  1  0
  3  4  1  0
  4  5  1  0
  5  6  2  0
  5  7  2  0
  5  8  1  0
  8  9  2  0
  9 10  1  0
 10 11  2  0
 11 12  1  0
 12 13  2  0
 13 14  1  0
  2 15  1  0
 15 16  1  0
 16 17  2  0
 16 18  1  0
 18 19  1  0
 19 20  2  0
 20 21  1  0
 21 22  2  0
 22 23  1  0
 22 24  1  0
 24 25  2  0
 13  8  1  0
 25 19  1  0
  3 26  1  0
  3 27  1  0
  9 28  1  0
 10 29  1  0
 11 30  1  0
 12 31  1  0
 15 32  1  0
 18 33  1  0
 18 34  1  0
 20 35  1  0
 21 36  1  0
 24 37  1  0
 25 38  1  0
M  CHG  2   4  -1  23  -1
M  END
>  <UniqueID>  (86) 
82

>  <SMILES>  (86) 
O=C(C[N-]S(=O)(=O)c1ccccc1F)NC(=O)Cc1ccc([O-])cc1

>  <Energy>  (86) 
30.25833859360668

>  <Genealogy>  (86) 
O=C(C[N-]S(=O)(=O)c1ccccc1F)NC(=O)Cc1ccc([O-])cc1 (protonated)
O=C(C[N-]S(=O)(=O)c1ccccc1F)NC(=O)Cc1ccc([O-])cc1 (3D coordinates assigned)
O=C(C[N-]S(=O)(=O)c1ccccc1F)NC(=O)Cc1ccc([O-])cc1 (optimized conformer: 30.25833859360668 kcal/mol)

>  <smiles>  (86) 
O=C(CNS(=O)(=O)c1ccccc1F)NC(=O)Cc1ccc(O)cc1

>  <score_type>  (86) 
oracle

>  <origin>  (86) 
adg

>  <m_score__min__energy>  (86) 
-12.92

>  <m_primary>  (86) 
energy

$$$$
86:0
     RDKit          3D

 51 54  0  0  0  0  0  0  0  0999 V2000
   57.6690   25.5900   47.5160 C   0  0  0  0  0  0  0  0  0  0  0  0
   58.0250   26.2720   46.4140 C   0  0  0  0  0  0  0  0  0  0  0  0
   57.6300   26.0150   45.0900 C   0  0  0  0  0  0  0  0  0  0  0  0
   56.9730   24.9690   44.5510 C   0  0  0  0  0  0  0  0  0  0  0  0
   55.6010   24.5500   44.8960 C   0  0  0  0  0  0  0  0  0  0  0  0
   54.7410   25.3930   45.6200 C   0  0  0  0  0  0  0  0  0  0  0  0
   55.1480   26.6670   45.9990 O   0  0  0  0  0  0  0  0  0  0  0  0
   53.5000   24.9620   45.9630 N   0  0  0  0  0  0  0  0  0  0  0  0
   53.0760   23.7150   45.6340 C   0  0  0  0  0  0  0  0  0  0  0  0
   51.9220   23.3370   45.9630 O   0  0  0  0  0  0  0  0  0  0  0  0
   53.8980   22.8730   44.9570 N   0  0  0  0  0  0  0  0  0  0  0  0
   55.1480   23.2570   44.5890 C   0  0  0  0  0  0  0  0  0  0  0  0
   55.8870   22.4470   43.9680 O   0  0  0  0  0  0  0  0  0  0  0  0
   58.0770   27.0890   44.3380 C   0  0  0  0  0  0  0  0  0  0  0  0
   58.7680   27.9190   45.1940 C   0  0  0  0  0  0  0  0  0  0  0  0
   59.4390   29.1940   44.7830 C   0  0  0  0  0  0  0  0  0  0  0  0
   58.7370   27.4280   46.4530 N   0  0  0  0  0  0  0  0  0  0  0  0
   59.3490   28.0330   47.6070 C   0  0  0  0  0  0  0  0  0  0  0  0
   60.1540   27.2690   48.4630 C   0  0  0  0  0  0  0  0  0  0  0  0
   60.7490   27.8600   49.5790 C   0  0  0  0  0  0  0  0  0  0  0  0
   60.5470   29.2170   49.8470 C   0  0  0  0  0  0  0  0  0  0  0  0
   59.7410   29.9990   49.0000 C   0  0  0  0  0  0  0  0  0  0  0  0
   59.5350   31.4400   49.2750 C   0  0  0  0  0  0  0  0  0  0  0  0
   60.3220   32.0560   50.0460 O   0  0  0  0  0  0  0  0  0  0  0  0
   58.4490   32.1400   48.6610 N   0  0  0  0  0  0  0  0  0  0  0  0
   58.6230   33.3800   47.9180 C   0  0  0  0  0  0  0  0  0  0  0  0
   58.4350   33.1130   46.4530 C   0  0  0  0  0  0  0  0  0  0  0  0
   57.7670   31.9520   46.0310 C   0  0  0  0  0  0  0  0  0  0  0  0
   57.5750   31.7090   44.6680 C   0  0  0  0  0  0  0  0  0  0  0  0
   58.0390   32.6240   43.7180 C   0  0  0  0  0  0  0  0  0  0  0  0
   57.7990   32.3130   42.0090 Cl  0  0  0  0  0  0  0  0  0  0  0  0
   58.6960   33.7860   44.1330 C   0  0  0  0  0  0  0  0  0  0  0  0
   58.8870   34.0350   45.4940 C   0  0  0  0  0  0  0  0  0  0  0  0
   59.1410   29.3920   47.8820 C   0  0  0  0  0  0  0  0  0  0  0  0
   58.0515   25.8973   48.5005 H   0  0  0  0  0  0  0  0  0  0  0  0
   56.9951   24.7245   47.4334 H   0  0  0  0  0  0  0  0  0  0  0  0
   57.5041   24.3782   43.7902 H   0  0  0  0  0  0  0  0  0  0  0  0
   57.9118   27.2489   43.2623 H   0  0  0  0  0  0  0  0  0  0  0  0
   59.7357   29.7578   45.6797 H   0  0  0  0  0  0  0  0  0  0  0  0
   60.3318   28.9619   44.1838 H   0  0  0  0  0  0  0  0  0  0  0  0
   58.7422   29.7984   44.1838 H   0  0  0  0  0  0  0  0  0  0  0  0
   60.3173   26.2013   48.2550 H   0  0  0  0  0  0  0  0  0  0  0  0
   61.3785   27.2563   50.2493 H   0  0  0  0  0  0  0  0  0  0  0  0
   61.0217   29.6765   50.7265 H   0  0  0  0  0  0  0  0  0  0  0  0
   57.8797   34.1174   48.2551 H   0  0  0  0  0  0  0  0  0  0  0  0
   59.6347   33.7747   48.0930 H   0  0  0  0  0  0  0  0  0  0  0  0
   57.3941   31.2324   46.7747 H   0  0  0  0  0  0  0  0  0  0  0  0
   57.0572   30.7950   44.3417 H   0  0  0  0  0  0  0  0  0  0  0  0
   59.0632   34.5055   43.3864 H   0  0  0  0  0  0  0  0  0  0  0  0
   59.3934   34.9568   45.8164 H   0  0  0  0  0  0  0  0  0  0  0  0
   58.5016   29.9901   47.2161 H   0  0  0  0  0  0  0  0  0  0  0  0
  1  2  2  0
  2  3  1  0
  3  4  2  3
  4  5  1  0
  5  6  2  0
  6  7  1  0
  6  8  1  0
  8  9  1  0
  9 10  2  0
  9 11  1  0
 11 12  1  0
 12 13  2  0
  3 14  1  0
 14 15  2  0
 15 16  1  0
 15 17  1  0
 17 18  1  0
 18 19  2  0
 19 20  1  0
 20 21  2  0
 21 22  1  0
 22 23  1  0
 23 24  2  0
 23 25  1  0
 25 26  1  0
 26 27  1  0
 27 28  2  0
 28 29  1  0
 29 30  2  0
 30 31  1  0
 30 32  1  0
 32 33  2  0
 22 34  2  0
 17  2  1  0
 34 18  1  0
 12  5  1  0
 33 27  1  0
  1 35  1  0
  1 36  1  0
  4 37  1  0
 14 38  1  0
 16 39  1  0
 16 40  1  0
 16 41  1  0
 19 42  1  0
 20 43  1  0
 21 44  1  0
 26 45  1  0
 26 46  1  0
 28 47  1  0
 29 48  1  0
 32 49  1  0
 33 50  1  0
 34 51  1  0
M  CHG  4   7  -1   8  -1  11  -1  25  -1
M  END
>  <UniqueID>  (87) 
83

>  <SMILES>  (87) 
C=c1c(=Cc2c([O-])[n-]c(=O)[n-]c2=O)cc(C)n1-c1cccc(C(=O)[N-]Cc2ccc(Cl)cc2)c1

>  <Energy>  (87) 
102.25370651329132

>  <Genealogy>  (87) 
C=c1c(=Cc2c([O-])[n-]c(=O)[n-]c2=O)cc(C)n1-c1cccc(C(=O)[N-]Cc2ccc(Cl)cc2)c1 (protonated)
C=c1c(=Cc2c([O-])[n-]c(=O)[n-]c2=O)cc(C)n1-c1cccc(C(=O)[N-]Cc2ccc(Cl)cc2)c1 (3D coordinates assigned)
C=c1c(=Cc2c([O-])[n-]c(=O)[n-]c2=O)cc(C)n1-c1cccc(C(=O)[N-]Cc2ccc(Cl)cc2)c1 (optimized conformer: 102.25370651329132 kcal/mol)

>  <smiles>  (87) 
C=c1c(=Cc2c(O)[nH]c(=O)[nH]c2=O)cc(C)n1-c1cccc(C(=O)NCc2ccc(Cl)cc2)c1

>  <score_type>  (87) 
oracle

>  <origin>  (87) 
adg

>  <m_score__min__energy>  (87) 
-17.600000000000001

>  <m_primary>  (87) 
energy

$$$$
87:0
     RDKit          3D

 60 64  0  0  0  0  0  0  0  0999 V2000
   62.5963   26.8166   55.0690 H   0  0  0  0  0  0  0  0  0  0  0  0
   62.7810   27.5540   54.2740 C   0  0  0  0  0  0  0  0  0  0  0  0
   61.9990   27.7630   53.2400 O   0  0  0  0  0  0  0  0  0  0  0  0
   62.5260   28.7120   52.5000 C   0  0  0  0  0  0  0  0  0  0  0  0
   61.9270   29.2210   51.2530 C   0  0  0  0  0  0  0  0  0  0  0  0
   60.8180   28.6240   50.7460 N   0  0  0  0  0  0  0  0  0  0  0  0
   60.2140   29.0210   49.5950 C   0  0  0  0  0  0  0  0  0  0  0  0
   59.1910   28.3120   49.1940 N   0  0  0  0  0  0  0  0  0  0  0  0
   59.0650   27.4580   48.0500 C   0  0  0  0  0  0  0  0  0  0  0  0
   59.0600   26.2100   48.2250 O   0  0  0  0  0  0  0  0  0  0  0  0
   59.0360   28.0130   46.6710 C   0  0  0  0  0  0  0  0  0  0  0  0
   60.1420   27.8510   45.8160 C   0  0  0  0  0  0  0  0  0  0  0  0
   61.0367   27.3214   46.1752 H   0  0  0  0  0  0  0  0  0  0  0  0
   60.1120   28.3580   44.5140 C   0  0  0  0  0  0  0  0  0  0  0  0
   60.9820   28.2267   43.8539 H   0  0  0  0  0  0  0  0  0  0  0  0
   58.9800   29.0310   44.0490 C   0  0  0  0  0  0  0  0  0  0  0  0
   58.9598   29.4267   43.0228 H   0  0  0  0  0  0  0  0  0  0  0  0
   57.8720   29.2030   44.8850 C   0  0  0  0  0  0  0  0  0  0  0  0
   56.4300   30.0420   44.3130 S   0  0  0  0  0  0  0  0  0  0  0  0
   56.3810   30.0290   42.8110 O   0  0  0  0  0  0  0  0  0  0  0  0
   55.2150   29.3320   44.8400 O   0  0  0  0  0  0  0  0  0  0  0  0
   56.4210   31.6870   44.8770 N   0  0  0  0  0  0  0  0  0  0  0  0
   56.6670   31.6620   45.8930 H   0  0  0  0  0  0  0  0  0  0  0  0
   57.4480   32.4570   44.1730 C   0  0  0  0  0  0  0  0  0  0  0  0
   58.1517   31.7672   43.6842 H   0  0  0  0  0  0  0  0  0  0  0  0
   56.9702   33.0948   43.4148 H   0  0  0  0  0  0  0  0  0  0  0  0
   58.1930   33.3200   45.1530 C   0  0  0  0  0  0  0  0  0  0  0  0
   57.7990   33.3630   46.5010 C   0  0  0  0  0  0  0  0  0  0  0  0
   56.9606   32.7408   46.8474 H   0  0  0  0  0  0  0  0  0  0  0  0
   58.4700   34.1950   47.4040 C   0  0  0  0  0  0  0  0  0  0  0  0
   58.1639   34.2196   48.4603 H   0  0  0  0  0  0  0  0  0  0  0  0
   59.5290   34.9950   46.9650 C   0  0  0  0  0  0  0  0  0  0  0  0
   60.0596   35.6439   47.6773 H   0  0  0  0  0  0  0  0  0  0  0  0
   59.9140   34.9710   45.6220 C   0  0  0  0  0  0  0  0  0  0  0  0
   60.7428   35.6065   45.2768 H   0  0  0  0  0  0  0  0  0  0  0  0
   59.2470   34.1400   44.7160 C   0  0  0  0  0  0  0  0  0  0  0  0
   59.5485   34.1284   43.6582 H   0  0  0  0  0  0  0  0  0  0  0  0
   57.9050   28.7020   46.1940 C   0  0  0  0  0  0  0  0  0  0  0  0
   57.0382   28.8488   46.8551 H   0  0  0  0  0  0  0  0  0  0  0  0
   60.7310   30.1600   48.9050 C   0  0  0  0  0  0  0  0  0  0  0  0
   60.0790   30.7310   47.7450 C   0  0  0  0  0  0  0  0  0  0  0  0
   59.5680   31.1980   46.8180 N   0  0  0  0  0  0  0  0  0  0  0  0
   61.8950   30.7890   49.4110 C   0  0  0  0  0  0  0  0  0  0  0  0
   62.5130   31.9580   48.7420 C   0  0  0  0  0  0  0  0  0  0  0  0
   62.4450   33.2260   49.3430 C   0  0  0  0  0  0  0  0  0  0  0  0
   61.9429   33.3460   50.3143 H   0  0  0  0  0  0  0  0  0  0  0  0
   63.0140   34.3370   48.7100 C   0  0  0  0  0  0  0  0  0  0  0  0
   62.9620   35.3273   49.1860 H   0  0  0  0  0  0  0  0  0  0  0  0
   63.6480   34.1890   47.4740 C   0  0  0  0  0  0  0  0  0  0  0  0
   64.0982   35.0624   46.9795 H   0  0  0  0  0  0  0  0  0  0  0  0
   63.7110   32.9330   46.8650 C   0  0  0  0  0  0  0  0  0  0  0  0
   64.2077   32.8190   45.8902 H   0  0  0  0  0  0  0  0  0  0  0  0
   63.1430   31.8210   47.4940 C   0  0  0  0  0  0  0  0  0  0  0  0
   63.1897   30.8346   47.0095 H   0  0  0  0  0  0  0  0  0  0  0  0
   62.4960   30.3020   50.5780 C   0  0  0  0  0  0  0  0  0  0  0  0
   63.4144   30.7702   50.9619 H   0  0  0  0  0  0  0  0  0  0  0  0
   63.7080   29.1490   53.0670 C   0  0  0  0  0  0  0  0  0  0  0  0
   64.3795   29.9316   52.6841 H   0  0  0  0  0  0  0  0  0  0  0  0
   63.8700   28.4000   54.2120 C   0  0  0  0  0  0  0  0  0  0  0  0
   64.6996   28.4634   54.9315 H   0  0  0  0  0  0  0  0  0  0  0  0
  1  2  1  0
  2  3  1  0
  3  4  1  0
  4  5  1  0
  5  6  1  0
  6  7  1  0
  7  8  2  0
  8  9  1  0
  9 10  2  0
  9 11  1  0
 11 12  2  0
 12 13  1  0
 12 14  1  0
 14 15  1  0
 14 16  2  0
 16 17  1  0
 16 18  1  0
 18 19  1  0
 19 20  2  0
 19 21  2  0
 19 22  1  0
 22 23  1  0
 22 24  1  0
 24 25  1  0
 24 26  1  0
 24 27  1  0
 27 28  2  0
 28 29  1  0
 28 30  1  0
 30 31  1  0
 30 32  2  0
 32 33  1  0
 32 34  1  0
 34 35  1  0
 34 36  2  0
 36 37  1  0
 18 38  2  0
 38 39  1  0
  7 40  1  0
 40 41  1  0
 41 42  3  0
 40 43  2  0
 43 44  1  0
 44 45  2  0
 45 46  1  0
 45 47  1  0
 47 48  1  0
 47 49  2  0
 49 50  1  0
 49 51  1  0
 51 52  1  0
 51 53  2  0
 53 54  1  0
 43 55  1  0
 55 56  1  0
  4 57  2  0
 57 58  1  0
 57 59  1  0
 59 60  1  0
 59  2  2  0
 55  5  2  0
 38 11  1  0
 53 44  1  0
 36 27  1  0
M  CHG  1   6  -1
M  END
>  <UniqueID>  (88) 
84

>  <SMILES>  (88) 
N#Cc1c(-c2ccccc2)cc(-c2ccco2)[n-]/c1=N/C(=O)c1cccc(S(=O)(=O)NCc2ccccc2)c1

>  <Energy>  (88) 
113.52844272922718

>  <Genealogy>  (88) 
N#Cc1c(-c2ccccc2)cc(-c2ccco2)[n-]c1=NC(=O)c1cccc(S(=O)(=O)NCc2ccccc2)c1 (protonated)
N#Cc1c(-c2ccccc2)cc(-c2ccco2)[n-]/c1=N/C(=O)c1cccc(S(=O)(=O)NCc2ccccc2)c1 (cis-trans isomerization)
N#Cc1c(-c2ccccc2)cc(-c2ccco2)[n-]/c1=N/C(=O)c1cccc(S(=O)(=O)NCc2ccccc2)c1 (3D coordinates assigned)
N#Cc1c(-c2ccccc2)cc(-c2ccco2)[n-]/c1=N/C(=O)c1cccc(S(=O)(=O)NCc2ccccc2)c1 (optimized conformer: 113.52844272922718 kcal/mol)

>  <smiles>  (88) 
N#Cc1c(-c2ccccc2)cc(-c2ccco2)[nH]c1=NC(=O)c1cccc(S(=O)(=O)NCc2ccccc2)c1

>  <score_type>  (88) 
oracle

>  <origin>  (88) 
adg

>  <m_score__min__energy>  (88) 
-11.75

>  <m_primary>  (88) 
energy

$$$$
